PCCDB-ID:  196
public computational chemistry database (PCCDB) project, http://pccdb.org

 20 19  0  0  0  0  0  0  0  0999 V2000
    1.6793   -0.1167   -0.3303 C   0  0  0  0  0  0  0  0  0  0  0  0
    1.3857   -0.2074   -1.8409 C   0  0  0  0  0  0  0  0  0  0  0  0
    3.1650   -0.0852    0.0646 C   0  0  0  0  0  0  0  0  0  0  0  0
    1.5453   -1.5941   -2.5048 C   0  0  0  0  0  0  0  0  0  0  0  0
    3.8806   -1.4272    0.1333 C   0  0  0  0  0  0  0  0  0  0  0  0
    0.4931   -2.5781   -1.9917 C   0  0  0  0  0  0  0  0  0  0  0  0
    3.3749   -2.5165   -0.0348 O   0  0  0  0  0  0  0  0  0  0  0  0
    5.1963   -1.3677    0.4359 O   0  0  0  0  0  0  0  0  0  0  0  0
   -0.5963   -2.6910   -2.5047 O   0  0  0  0  0  0  0  0  0  0  0  0
    0.8168   -3.2839   -0.8879 O   0  0  0  0  0  0  0  0  0  0  0  0
    1.1757   -0.9263    0.2090 H   0  0  0  0  0  0  0  0  0  0  0  0
    1.2360    0.8154    0.0391 H   0  0  0  0  0  0  0  0  0  0  0  0
    2.0237    0.5116   -2.3735 H   0  0  0  0  0  0  0  0  0  0  0  0
    0.3521    0.1179   -2.0087 H   0  0  0  0  0  0  0  0  0  0  0  0
    3.2709    0.3668    1.0621 H   0  0  0  0  0  0  0  0  0  0  0  0
    3.7281    0.5673   -0.6194 H   0  0  0  0  0  0  0  0  0  0  0  0
    2.5566   -1.9875   -2.3626 H   0  0  0  0  0  0  0  0  0  0  0  0
    1.3719   -1.4865   -3.5789 H   0  0  0  0  0  0  0  0  0  0  0  0
    5.4771   -0.4440    0.5498 H   0  0  0  0  0  0  0  0  0  0  0  0
    1.7295   -3.0720   -0.5947 H   0  0  0  0  0  0  0  0  0  0  0  0
  1 12  1  0  0  0  0
  1  3  1  0  0  0  0
  1 11  1  0  0  0  0
  2  1  1  0  0  0  0
  3  5  1  0  0  0  0
  3 15  1  0  0  0  0
  4 17  1  0  0  0  0
  4  6  1  0  0  0  0
  4  2  1  0  0  0  0
  5  8  1  0  0  0  0
  6 10  1  0  0  0  0
  7  5  2  0  0  0  0
  8 19  1  0  0  0  0
  9  6  2  0  0  0  0
 10 20  1  0  0  0  0
 13  2  1  0  0  0  0
 14  2  1  0  0  0  0
 16  3  1  0  0  0  0
 18  4  1  0  0  0  0
M  END
>  <HBA>
4

>  <HBD>
2

>  <TPSA>
74.6

>  <cid>
196

>  <dipole>
8.29

>  <excitation_energy_1>
5.46

>  <excitation_energy_2>
5.576

>  <excitation_energy_3>
5.784

>  <excitation_energy_4>
5.848

>  <homo_energy>
-6.748

>  <homo_lumo_gap>
6.063

>  <logP>
0.716

>  <lumo_energy>
-0.686

>  <melting_point>
127.75

>  <molecular_refractivity>
34.5

>  <oscillator_strength_1>
0.0011

>  <oscillator_strength_2>
0.0006

>  <oscillator_strength_3>
0.0003

>  <oscillator_strength_4>
0.0004

>  <open_babel_can_smiles>
OC(=O)CCCCC(=O)O

>  <mulliken_charges>
20
1   -0.274545
2   -0.274615
3   -0.407136
4   -0.364298
5   0.625418
6   0.574006
7   -0.460582
8   -0.547956
9   -0.455337
10   -0.597788
11   0.172348
12   0.150594
13   0.137036
14   0.170607
15   0.182713
16   0.171556
17   0.151114
18   0.171633
19   0.420198
20   0.455032

>  <lowdin_charges>
20
1   -0.282308
2   -0.269908
3   -0.324932
4   -0.31941
5   0.213677
6   0.188351
7   -0.250479
8   -0.33524
9   -0.261013
10   -0.367944
11   0.16406
12   0.15779
13   0.145101
14   0.160467
15   0.173542
16   0.166414
17   0.152956
18   0.169154
19   0.364044
20   0.355679

$$$$

