PCCDB-ID:  1146
public computational chemistry database (PCCDB) project, http://pccdb.org

 13 12  0  0  0  0  0  0  0  0999 V2000
    1.0493   -0.0786   -0.0155 C   0  0  0  0  0  0  0  0  0  0  0  0
    3.0137    1.0707    0.7643 C   0  0  0  0  0  0  0  0  0  0  0  0
    3.0136   -1.3284    0.5900 C   0  0  0  0  0  0  0  0  0  0  0  0
    2.5030   -0.0825    0.0392 N   0  0  0  0  0  0  0  0  0  0  0  0
    0.6995    0.8451   -0.4899 H   0  0  0  0  0  0  0  0  0  0  0  0
    0.5720   -0.1512    0.9832 H   0  0  0  0  0  0  0  0  0  0  0  0
    0.6996   -0.9241   -0.6185 H   0  0  0  0  0  0  0  0  0  0  0  0
    2.6601    1.9927    0.2895 H   0  0  0  0  0  0  0  0  0  0  0  0
    4.1090    1.0711    0.7343 H   0  0  0  0  0  0  0  0  0  0  0  0
    2.7015    1.0932    1.8286 H   0  0  0  0  0  0  0  0  0  0  0  0
    2.6609   -2.1720   -0.0138 H   0  0  0  0  0  0  0  0  0  0  0  0
    2.7001   -1.5049    1.6394 H   0  0  0  0  0  0  0  0  0  0  0  0
    4.1089   -1.3241    0.5615 H   0  0  0  0  0  0  0  0  0  0  0  0
  1  4  1  0  0  0  0
  1  6  1  0  0  0  0
  2 10  1  0  0  0  0
  3 12  1  0  0  0  0
  4  3  1  0  0  0  0
  4  2  1  0  0  0  0
  5  1  1  0  0  0  0
  7  1  1  0  0  0  0
  8  2  1  0  0  0  0
  9  2  1  0  0  0  0
 11  3  1  0  0  0  0
 13  3  1  0  0  0  0
M  END
>  <HBA>
1

>  <HBD>
0

>  <TPSA>
3.24

>  <cid>
1146

>  <dipole>
0.57

>  <excitation_energy_1>
5.254

>  <excitation_energy_2>
5.948

>  <excitation_energy_3>
5.948

>  <excitation_energy_4>
6.13

>  <homo_energy>
-5.641

>  <homo_lumo_gap>
7.932

>  <logP>
0.178

>  <lumo_energy>
2.291

>  <melting_point>
-21.93

>  <molecular_refractivity>
19.43

>  <oscillator_strength_1>
0.0253

>  <oscillator_strength_2>
0.0033

>  <oscillator_strength_3>
0.0033

>  <oscillator_strength_4>
0.0881

>  <open_babel_can_smiles>
CN(C)C

>  <mulliken_charges>
13
1   -0.292134
2   -0.292089
3   -0.292193
4   -0.350655
5   0.147232
6   0.114543
7   0.147233
8   0.147219
9   0.147232
10   0.114531
11   0.147253
12   0.114573
13   0.147256

>  <lowdin_charges>
13
1   -0.356798
2   -0.352409
3   -0.353373
4   -0.180432
5   0.149374
6   0.11777
7   0.149865
8   0.14928
9   0.146832
10   0.116408
11   0.149864
12   0.116766
13   0.146853

$$$$

