PCCDB-ID:  1737
public computational chemistry database (PCCDB) project, http://pccdb.org

 23 22  0  0  1  0  0  0  0  0999 V2000
    1.1704   -1.1068   -0.7234 C   0  0  0  0  0  0  0  0  0  0  0  0
    0.0039   -0.6700   -1.6219 C   0  0  1  0  0  0  0  0  0  0  0  0
    1.4188   -0.1809    0.4788 C   0  0  1  0  0  0  0  0  0  0  0  0
   -0.2886   -1.7543   -2.6811 C   0  0  1  0  0  0  0  0  0  0  0  0
    0.6039   -0.6143    1.7144 C   0  0  0  0  0  0  0  0  0  0  0  0
   -1.3970   -1.3384   -3.6679 C   0  0  0  0  0  0  0  0  0  0  0  0
   -1.1953   -0.3795   -0.8987 O   0  0  0  0  0  0  0  0  0  0  0  0
    2.8017   -0.0776    0.8489 O   0  0  0  0  0  0  0  0  0  0  0  0
    0.8802   -2.0504   -3.4021 O   0  0  0  0  0  0  0  0  0  0  0  0
   -0.5439   -1.0157    1.6509 O   0  0  0  0  0  0  0  0  0  0  0  0
    1.2542   -0.5085    2.8699 O   0  0  0  0  0  0  0  0  0  0  0  0
   -1.2339   -1.5012   -4.8603 O   0  0  0  0  0  0  0  0  0  0  0  0
   -2.5180   -0.8428   -3.1496 O   0  0  0  0  0  0  0  0  0  0  0  0
    2.0648   -1.1117   -1.3541 H   0  0  0  0  0  0  0  0  0  0  0  0
    1.0065   -2.1357   -0.3769 H   0  0  0  0  0  0  0  0  0  0  0  0
    0.2915    0.2533   -2.1422 H   0  0  0  0  0  0  0  0  0  0  0  0
    1.1081    0.8426    0.2356 H   0  0  0  0  0  0  0  0  0  0  0  0
   -0.6587   -2.6464   -2.1425 H   0  0  0  0  0  0  0  0  0  0  0  0
   -1.1544   -0.7735    0.0041 H   0  0  0  0  0  0  0  0  0  0  0  0
    3.2334   -0.9267    0.6565 H   0  0  0  0  0  0  0  0  0  0  0  0
    0.5981   -2.0545   -4.3407 H   0  0  0  0  0  0  0  0  0  0  0  0
    2.1616   -0.2023    2.6417 H   0  0  0  0  0  0  0  0  0  0  0  0
   -2.3668   -0.6809   -2.1835 H   0  0  0  0  0  0  0  0  0  0  0  0
  1 15  1  0  0  0  0
  1  3  1  0  0  0  0
  2 16  1  6  0  0  0
  2  7  1  0  0  0  0
  2  1  1  0  0  0  0
  3 17  1  6  0  0  0
  3  8  1  0  0  0  0
  3  5  1  0  0  0  0
  4 18  1  1  0  0  0
  4  2  1  0  0  0  0
  5 11  1  0  0  0  0
  6 13  1  0  0  0  0
  6  4  1  0  0  0  0
  7 19  1  0  0  0  0
  9  4  1  0  0  0  0
 10  5  2  0  0  0  0
 12  6  2  0  0  0  0
 13 23  1  0  0  0  0
 14  1  1  0  0  0  0
 20  8  1  0  0  0  0
 21  9  1  0  0  0  0
 22 11  1  0  0  0  0
M  END
>  <HBA>
7

>  <HBD>
5

>  <TPSA>
135.29

>  <cid>
1737

>  <dipole>
5.58

>  <excitation_energy_1>
5.654

>  <excitation_energy_2>
5.873

>  <excitation_energy_3>
6.035

>  <excitation_energy_4>
6.295

>  <homo_energy>
-7.519

>  <homo_lumo_gap>
6.754

>  <logP>
-2.372

>  <lumo_energy>
-0.765

>  <melting_point>
183.61

>  <molecular_refractivity>
37.98

>  <oscillator_strength_1>
0.0004

>  <oscillator_strength_2>
0.0008

>  <oscillator_strength_3>
0.0014

>  <oscillator_strength_4>
0.0143

>  <open_babel_can_smiles>
OC(=O)[C@H](C[C@@H]([C@@H](C(=O)O)O)O)O

>  <mulliken_charges>
23
1   -0.359256
2   0.130305
3   0.034265
4   0.032993
5   0.607895
6   0.585624
7   -0.695403
8   -0.643019
9   -0.648779
10   -0.476174
11   -0.553739
12   -0.475401
13   -0.577646
14   0.196571
15   0.165599
16   0.155593
17   0.206528
18   0.148825
19   0.446435
20   0.414195
21   0.419237
22   0.436378
23   0.448976

>  <lowdin_charges>
23
1   -0.306076
2   -0.009075
3   -0.041556
4   -0.05971
5   0.182153
6   0.173649
7   -0.482957
8   -0.449199
9   -0.458781
10   -0.259054
11   -0.315746
12   -0.259731
13   -0.336522
14   0.181756
15   0.158193
16   0.149318
17   0.180446
18   0.147242
19   0.358818
20   0.356802
21   0.355157
22   0.368228
23   0.366643

$$$$

