PCCDB-ID:  588
public computational chemistry database (PCCDB) project, http://pccdb.org

 15 15  0  0  0  0  0  0  0  0999 V2000
    1.1640    0.0389    0.3779 C   0  0  0  0  0  0  0  0  0  0  0  0
    3.3006    1.2687   -0.2100 C   0  0  0  0  0  0  0  0  0  0  0  0
    4.6659    0.6496   -0.4441 C   0  0  0  0  0  0  0  0  0  0  0  0
    3.4165   -1.0180    0.1484 C   0  0  0  0  0  0  0  0  0  0  0  0
    3.0060   -2.2068    0.3544 N   0  0  0  0  0  0  0  0  0  0  0  0
    4.7265   -0.6107   -0.2450 N   0  0  0  0  0  0  0  0  0  0  0  0
    2.6049    0.1128    0.2900 N   0  0  0  0  0  0  0  0  0  0  0  0
    5.7315    1.3650   -0.8364 O   0  0  0  0  0  0  0  0  0  0  0  0
    0.7801    0.7916    1.0767 H   0  0  0  0  0  0  0  0  0  0  0  0
    0.9081   -0.9560    0.7451 H   0  0  0  0  0  0  0  0  0  0  0  0
    0.6798    0.1891   -0.6001 H   0  0  0  0  0  0  0  0  0  0  0  0
    2.8768    1.6634   -1.1524 H   0  0  0  0  0  0  0  0  0  0  0  0
    3.3358    2.1026    0.5100 H   0  0  0  0  0  0  0  0  0  0  0  0
    3.7823   -2.8542    0.2171 H   0  0  0  0  0  0  0  0  0  0  0  0
    5.4851    2.2992   -0.9258 H   0  0  0  0  0  0  0  0  0  0  0  0
  1 10  1  0  0  0  0
  1  9  1  0  0  0  0
  2  7  1  0  0  0  0
  2 13  1  0  0  0  0
  3  6  2  0  0  0  0
  3  2  1  0  0  0  0
  4  7  1  0  0  0  0
  4  5  1  0  0  0  0
  6  4  2  0  0  0  0
  7  1  1  0  0  0  0
  8  3  1  0  0  0  0
 11  1  1  0  0  0  0
 12  2  1  0  0  0  0
 14  5  1  0  0  0  0
 15  8  1  0  0  0  0
M  RAD  1   5   2
M  END
>  <HBA>
4

>  <HBD>
1

>  <TPSA>
58.69

>  <cid>
588

>  <dipole>
5.39

>  <excitation_energy_1>
4.727

>  <excitation_energy_2>
4.738

>  <excitation_energy_3>
5.463

>  <excitation_energy_4>
5.506

>  <homo_energy>
-5.932

>  <homo_lumo_gap>
5.48

>  <logP>
-1.153

>  <lumo_energy>
-0.452

>  <melting_point>
93.48

>  <molecular_refractivity>
35.96

>  <oscillator_strength_1>
0.0741

>  <oscillator_strength_2>
0.0121

>  <oscillator_strength_3>
0.0214

>  <oscillator_strength_4>
0.0043

>  <open_babel_can_smiles>
CN1CC(=[N]=C1[NH])O

>  <mulliken_charges>
15
1   -0.314624
2   -0.192703
3   0.502326
4   0.6259
5   -0.68058
6   -0.473091
7   -0.440709
8   -0.573791
9   0.148936
10   0.210014
11   0.142267
12   0.162976
13   0.165469
14   0.297168
15   0.420442

>  <lowdin_charges>
15
1   -0.350429
2   -0.225646
3   0.131827
4   0.113077
5   -0.44028
6   -0.195133
7   -0.131636
8   -0.322071
9   0.149624
10   0.187515
11   0.139672
12   0.15234
13   0.156412
14   0.267615
15   0.367113

$$$$

