PCCDB-ID:  400
public computational chemistry database (PCCDB) project, http://pccdb.org

 18 18  0  0  0  0  0  0  0  0999 V2000
   -1.5656   -0.0278    0.2462 C   0  0  0  0  0  0  0  0  0  0  0  0
   -0.7598   -1.1614    0.0944 C   0  0  0  0  0  0  0  0  0  0  0  0
   -1.0000    1.2330    0.0979 C   0  0  0  0  0  0  0  0  0  0  0  0
    0.5981   -1.0327   -0.1884 C   0  0  0  0  0  0  0  0  0  0  0  0
    0.9149    2.7485   -0.3591 C   0  0  0  0  0  0  0  0  0  0  0  0
    3.4214   -0.2930   -0.0183 C   0  0  0  0  0  0  0  0  0  0  0  0
    0.3639    1.3834   -0.1906 C   0  0  0  0  0  0  0  0  0  0  0  0
    1.1839    0.2378   -0.3187 C   0  0  0  0  0  0  0  0  0  0  0  0
    2.5467    0.3979   -0.6280 N   0  0  0  0  0  0  0  0  0  0  0  0
    0.2589    3.7664   -0.2178 O   0  0  0  0  0  0  0  0  0  0  0  0
    4.7252   -0.2342   -0.3261 O   0  0  0  0  0  0  0  0  0  0  0  0
   -2.6240   -0.1334    0.4655 H   0  0  0  0  0  0  0  0  0  0  0  0
   -1.1928   -2.1537    0.1903 H   0  0  0  0  0  0  0  0  0  0  0  0
   -1.5950    2.1358    0.1974 H   0  0  0  0  0  0  0  0  0  0  0  0
    1.2105   -1.9172   -0.3404 H   0  0  0  0  0  0  0  0  0  0  0  0
    1.9841    2.7958   -0.6381 H   0  0  0  0  0  0  0  0  0  0  0  0
    3.2411   -0.9855    0.8081 H   0  0  0  0  0  0  0  0  0  0  0  0
    4.8120    0.3947   -1.0684 H   0  0  0  0  0  0  0  0  0  0  0  0
  1 12  1  0  0  0  0
  2 13  1  0  0  0  0
  2  1  1  0  0  0  0
  3 14  1  0  0  0  0
  3  1  2  0  0  0  0
  4  2  2  0  0  0  0
  5 10  2  0  0  0  0
  5  7  1  0  0  0  0
  6 17  1  0  0  0  0
  7  3  1  0  0  0  0
  8  7  2  0  0  0  0
  8  4  1  0  0  0  0
  9  8  1  0  0  0  0
  9  6  2  0  0  0  0
 11  6  1  0  0  0  0
 15  4  1  0  0  0  0
 16  5  1  0  0  0  0
 18 11  1  0  0  0  0
M  END
>  <HBA>
3

>  <HBD>
1

>  <TPSA>
46.17

>  <cid>
400

>  <dipole>
3.73

>  <excitation_energy_1>
3.494

>  <excitation_energy_2>
4.139

>  <excitation_energy_3>
4.734

>  <excitation_energy_4>
5.074

>  <homo_energy>
-6.482

>  <homo_lumo_gap>
4.836

>  <logP>
1.776

>  <lumo_energy>
-1.646

>  <melting_point>
94.03

>  <molecular_refractivity>
41.72

>  <oscillator_strength_1>
0.0004

>  <oscillator_strength_2>
0.0866

>  <oscillator_strength_3>
0.0454

>  <oscillator_strength_4>
0.0896

>  <open_babel_can_smiles>
O/C=N/c1ccccc1C=O

>  <mulliken_charges>
18
1   -0.125654
2   -0.131009
3   -0.177286
4   -0.161147
5   0.198602
6   0.291682
7   0.057769
8   0.218873
9   -0.496189
10   -0.414157
11   -0.5433
12   0.1388
13   0.140826
14   0.166097
15   0.134828
16   0.121238
17   0.163678
18   0.41635

>  <lowdin_charges>
18
1   -0.161899
2   -0.132171
3   -0.120582
4   -0.188051
5   0.048136
6   0.036576
7   -0.070529
8   0.059309
9   -0.20527
10   -0.236582
11   -0.338024
12   0.161187
13   0.162713
14   0.177756
15   0.161408
16   0.128755
17   0.152909
18   0.36436

$$$$

