PCCDB-ID:  938
public computational chemistry database (PCCDB) project, http://pccdb.org

 14 14  0  0  0  0  0  0  0  0999 V2000
   -0.7449    1.2200   -0.0380 C   0  0  0  0  0  0  0  0  0  0  0  0
   -1.4235    0.0055   -0.0943 C   0  0  0  0  0  0  0  0  0  0  0  0
    0.6476    1.1979    0.0563 C   0  0  0  0  0  0  0  0  0  0  0  0
    0.7089   -1.0857    0.0622 C   0  0  0  0  0  0  0  0  0  0  0  0
   -0.6867   -1.1837   -0.0521 C   0  0  0  0  0  0  0  0  0  0  0  0
   -1.2983   -2.5511   -0.0831 C   0  0  0  0  0  0  0  0  0  0  0  0
    1.3721    0.0716    0.1070 N   0  0  0  0  0  0  0  0  0  0  0  0
   -0.7465   -3.5320    0.3531 O   0  0  0  0  0  0  0  0  0  0  0  0
   -2.5386   -2.6545   -0.6353 O   0  0  0  0  0  0  0  0  0  0  0  0
   -1.2808    2.1637   -0.0573 H   0  0  0  0  0  0  0  0  0  0  0  0
   -2.5108   -0.0045   -0.1343 H   0  0  0  0  0  0  0  0  0  0  0  0
    1.2096    2.1291    0.1015 H   0  0  0  0  0  0  0  0  0  0  0  0
    1.2992   -1.9970    0.1142 H   0  0  0  0  0  0  0  0  0  0  0  0
   -2.7787   -1.8291   -1.0863 H   0  0  0  0  0  0  0  0  0  0  0  0
  1  3  2  0  0  0  0
  2  5  2  0  0  0  0
  2  1  1  0  0  0  0
  3 12  1  0  0  0  0
  3  7  1  0  0  0  0
  4  7  2  0  0  0  0
  4 13  1  0  0  0  0
  5  4  1  0  0  0  0
  6  5  1  0  0  0  0
  6  8  2  0  0  0  0
  9  6  1  0  0  0  0
 10  1  1  0  0  0  0
 11  2  1  0  0  0  0
 14  9  1  0  0  0  0
M  END
>  <HBA>
3

>  <HBD>
1

>  <TPSA>
50.19

>  <cid>
938

>  <dipole>
5.1

>  <excitation_energy_1>
4.285

>  <excitation_energy_2>
4.746

>  <excitation_energy_3>
4.801

>  <excitation_energy_4>
5.212

>  <homo_energy>
-7.325

>  <homo_lumo_gap>
5.54

>  <logP>
0.78

>  <lumo_energy>
-1.785

>  <melting_point>
110.15

>  <molecular_refractivity>
31.2

>  <oscillator_strength_1>
0.0025

>  <oscillator_strength_2>
0.0116

>  <oscillator_strength_3>
0.0024

>  <oscillator_strength_4>
0.0637

>  <open_babel_can_smiles>
OC(=O)c1cccnc1

>  <mulliken_charges>
14
1   -0.141756
2   -0.160991
3   0.050713
4   0.029843
5   0.028395
6   0.553689
7   -0.405126
8   -0.435627
9   -0.571683
10   0.151691
11   0.148214
12   0.156868
13   0.184147
14   0.411623

>  <lowdin_charges>
14
1   -0.170401
2   -0.133737
3   -0.071059
4   -0.059733
5   -0.075662
6   0.197815
7   -0.136653
8   -0.230436
9   -0.354964
10   0.171401
11   0.160568
12   0.164742
13   0.179911
14   0.358207

$$$$

