PCCDB-ID:  2046
public computational chemistry database (PCCDB) project, http://pccdb.org

 21 21  0  0  0  0  0  0  0  0999 V2000
   -0.9334    0.2980   -0.6840 C   0  0  0  0  0  0  0  0  0  0  0  0
   -0.0145    1.3177   -0.8690 C   0  0  0  0  0  0  0  0  0  0  0  0
   -1.6734   -1.7902    0.3401 C   0  0  0  0  0  0  0  0  0  0  0  0
    0.5761   -0.7604    0.8888 C   0  0  0  0  0  0  0  0  0  0  0  0
   -0.6776   -3.3660    1.9810 C   0  0  0  0  0  0  0  0  0  0  0  0
   -2.8746   -3.7689    1.0373 C   0  0  0  0  0  0  0  0  0  0  0  0
   -0.6495   -0.7632    0.2026 C   0  0  0  0  0  0  0  0  0  0  0  0
   -1.7159   -2.9246    1.0984 C   0  0  0  0  0  0  0  0  0  0  0  0
    1.2070    1.2990   -0.1963 C   0  0  0  0  0  0  0  0  0  0  0  0
    1.5197    0.2558    0.7028 C   0  0  0  0  0  0  0  0  0  0  0  0
    0.1620   -3.7280    2.7008 N   0  0  0  0  0  0  0  0  0  0  0  0
   -3.8153   -4.4510    0.9847 N   0  0  0  0  0  0  0  0  0  0  0  0
    2.1413    2.4004   -0.4696 N   0  0  0  0  0  0  0  0  0  0  0  0
    2.6842    0.2683    1.3811 O   0  0  0  0  0  0  0  0  0  0  0  0
    1.6501    3.4555   -0.8756 O   0  0  0  0  0  0  0  0  0  0  0  0
    3.3387    2.1972   -0.3014 O   0  0  0  0  0  0  0  0  0  0  0  0
   -1.8764    0.3174   -1.2210 H   0  0  0  0  0  0  0  0  0  0  0  0
   -0.2188    2.1490   -1.5324 H   0  0  0  0  0  0  0  0  0  0  0  0
   -2.5585   -1.6217   -0.2682 H   0  0  0  0  0  0  0  0  0  0  0  0
    0.8199   -1.5547    1.5848 H   0  0  0  0  0  0  0  0  0  0  0  0
    2.7068   -0.4893    1.9894 H   0  0  0  0  0  0  0  0  0  0  0  0
  1  7  1  0  0  0  0
  2  1  2  0  0  0  0
  2  9  1  0  0  0  0
  3  8  2  0  0  0  0
  4 20  1  0  0  0  0
  5 11  3  0  0  0  0
  6  8  1  0  0  0  0
  7  3  1  0  0  0  0
  7  4  2  0  0  0  0
  8  5  1  0  0  0  0
  9 10  2  0  0  0  0
 10  4  1  0  0  0  0
 10 14  1  0  0  0  0
 12  6  3  0  0  0  0
 13 16  2  0  0  0  0
 13  9  1  0  0  0  0
 14 21  1  0  0  0  0
 15 13  2  0  0  0  0
 17  1  1  0  0  0  0
 18  2  1  0  0  0  0
 19  3  1  0  0  0  0
M  END
>  <HBA>
3

>  <HBD>
1

>  <TPSA>
113.63

>  <cid>
2046

>  <dipole>
1.67

>  <excitation_energy_1>
3.301

>  <excitation_energy_2>
3.444

>  <excitation_energy_3>
3.89

>  <excitation_energy_4>
4.009

>  <homo_energy>
-7.44

>  <homo_lumo_gap>
3.742

>  <logP>
2.254

>  <lumo_energy>
-3.698

>  <melting_point>
177.51

>  <molecular_refractivity>
56.49

>  <oscillator_strength_1>
0.1385

>  <oscillator_strength_2>
0.0622

>  <oscillator_strength_3>
0.4173

>  <oscillator_strength_4>
0.1527

>  <open_babel_can_smiles>
N#CC(=Cc1ccc(c(c1)O)N(=O)=O)C#N

>  <mulliken_charges>
21
1   -0.199772
2   -0.152796
3   -0.166504
4   -0.268475
5   0.325952
6   0.292521
7   0.191518
8   0.131798
9   0.263202
10   0.355331
11   -0.490463
12   -0.449141
13   0.363437
14   -0.600251
15   -0.385754
16   -0.359789
17   0.161267
18   0.197322
19   0.188077
20   0.173862
21   0.428657

>  <lowdin_charges>
21
1   -0.156089
2   -0.124023
3   -0.070499
4   -0.197808
5   0.002312
6   -0.005501
7   0.008324
8   -0.036712
9   -0.004365
10   0.123267
11   -0.092099
12   -0.081444
13   0.304129
14   -0.327201
15   -0.245944
16   -0.21304
17   0.17335
18   0.1959
19   0.190152
20   0.185008
21   0.372284

$$$$

