PCCDB-ID:  5219
public computational chemistry database (PCCDB) project, http://pccdb.org

 22 23  0  0  1  0  0  0  0  0999 V2000
    0.2661    1.4065   -0.4667 C   0  0  0  0  0  0  0  0  0  0  0  0
   -1.3177   -0.4420   -0.0776 C   0  0  0  0  0  0  0  0  0  0  0  0
    1.3799    0.4793    0.0270 C   0  0  0  0  0  0  0  0  0  0  0  0
   -0.1300   -1.2828    0.3977 C   0  0  0  0  0  0  0  0  0  0  0  0
   -2.3435    2.4326    1.5011 C   0  0  0  0  0  0  0  0  0  0  0  0
   -2.3257    2.7145    2.9061 C   0  0  0  0  0  0  0  0  0  0  0  0
   -2.9484    3.4404    3.7472 N   0  0  0  0  0  0  0  0  0  0  0  0
   -0.6936    1.1669    2.3524 N   0  0  0  0  0  0  0  0  0  0  0  0
   -1.0834    1.0200    0.0142 N   0  0  0  0  0  0  0  0  0  0  0  0
   -1.3720    1.5374    1.2904 N   0  0  2  0  0  0  0  0  0  0  0  0
    1.0611   -0.8767   -0.2697 O   0  0  0  0  0  0  0  0  0  0  0  0
   -1.2737    1.8890    3.3781 O   0  0  0  0  0  0  0  0  0  0  0  0
    0.2090    1.3514   -1.5598 H   0  0  0  0  0  0  0  0  0  0  0  0
    0.4453    2.4482   -0.1857 H   0  0  0  0  0  0  0  0  0  0  0  0
   -2.2332   -0.6780    0.4723 H   0  0  0  0  0  0  0  0  0  0  0  0
   -1.4966   -0.6388   -1.1408 H   0  0  0  0  0  0  0  0  0  0  0  0
    1.5422    0.6103    1.1059 H   0  0  0  0  0  0  0  0  0  0  0  0
    2.3132    0.7015   -0.5000 H   0  0  0  0  0  0  0  0  0  0  0  0
   -0.2880   -2.3343    0.1377 H   0  0  0  0  0  0  0  0  0  0  0  0
   -0.0095   -1.2006    1.4866 H   0  0  0  0  0  0  0  0  0  0  0  0
   -2.9579    2.8017    0.6991 H   0  0  0  0  0  0  0  0  0  0  0  0
   -3.6772    3.9778    3.2787 H   0  0  0  0  0  0  0  0  0  0  0  0
  1 14  1  0  0  0  0
  1  9  1  0  0  0  0
  1  3  1  0  0  0  0
  2  9  1  0  0  0  0
  2  4  1  0  0  0  0
  2 15  1  0  0  0  0
  3 17  1  0  0  0  0
  4 20  1  0  0  0  0
  5  6  1  0  0  0  0
  6 12  1  0  0  0  0
  6  7  2  0  0  0  0
  8 12  1  0  0  0  0
 10  9  1  6  0  0  0
 10  5  1  0  0  0  0
 10  8  1  0  0  0  0
 11  3  1  0  0  0  0
 11  4  1  0  0  0  0
 13  1  1  0  0  0  0
 16  2  1  0  0  0  0
 18  3  1  0  0  0  0
 19  4  1  0  0  0  0
 21  5  1  0  0  0  0
 22  7  1  0  0  0  0
M  RAD  2   5   2   8   2
M  END
>  <HBA>
4

>  <HBD>
1

>  <TPSA>
67.28

>  <cid>
5219

>  <dipole>
5.41

>  <excitation_energy_1>
3.748

>  <excitation_energy_2>
4.259

>  <excitation_energy_3>
4.705

>  <excitation_energy_4>
4.774

>  <homo_energy>
-5.38

>  <homo_lumo_gap>
3.951

>  <logP>
-0.911

>  <lumo_energy>
-1.429

>  <melting_point>
77.27

>  <molecular_refractivity>
42.48

>  <oscillator_strength_1>
0.1028

>  <oscillator_strength_2>
0.0015

>  <oscillator_strength_3>
0.0011

>  <oscillator_strength_4>
0.0006

>  <open_babel_can_smiles>
N=C1O[N]N([CH]1)N1CCOCC1

>  <mulliken_charges>
22
1   -0.160508
2   -0.160639
3   -0.044482
4   -0.044763
5   -0.045412
6   0.504602
7   -0.663576
8   0.028914
9   -0.312819
10   -0.058032
11   -0.467758
12   -0.37597
13   0.173225
14   0.171592
15   0.171831
16   0.173151
17   0.16622
18   0.155202
19   0.155135
20   0.166804
21   0.185438
22   0.281846

>  <lowdin_charges>
22
1   -0.214374
2   -0.216197
3   -0.14836
4   -0.146617
5   -0.234787
6   0.107702
7   -0.44704
8   -0.09191
9   -0.109247
10   0.155973
11   -0.274218
12   -0.103219
13   0.160652
14   0.165502
15   0.167086
16   0.161292
17   0.147665
18   0.157855
19   0.156217
20   0.147524
21   0.194898
22   0.263605

$$$$

