PCCDB-ID:  309
public computational chemistry database (PCCDB) project, http://pccdb.org

 18 17  0  0  0  0  0  0  0  0999 V2000
    1.0874    0.4185   -0.2755 C   0  0  0  0  0  0  0  0  0  0  0  0
    0.9739   -1.8251    0.8973 C   0  0  0  0  0  0  0  0  0  0  0  0
    0.3827   -0.5507    0.3377 C   0  0  0  0  0  0  0  0  0  0  0  0
    2.5335    0.3444   -0.5504 C   0  0  0  0  0  0  0  0  0  0  0  0
    0.8858   -2.9155   -0.1775 C   0  0  0  0  0  0  0  0  0  0  0  0
   -1.1196   -0.3540    0.4552 C   0  0  0  0  0  0  0  0  0  0  0  0
    3.2376   -0.6632   -0.5317 O   0  0  0  0  0  0  0  0  0  0  0  0
    3.0441    1.5467   -0.8595 O   0  0  0  0  0  0  0  0  0  0  0  0
   -0.1447   -3.5429   -0.3470 O   0  0  0  0  0  0  0  0  0  0  0  0
    1.9582   -3.0922   -0.9408 O   0  0  0  0  0  0  0  0  0  0  0  0
   -1.6138    0.7471    0.5293 O   0  0  0  0  0  0  0  0  0  0  0  0
   -1.8635   -1.4696    0.4816 O   0  0  0  0  0  0  0  0  0  0  0  0
    0.5742    1.3220   -0.5876 H   0  0  0  0  0  0  0  0  0  0  0  0
    0.3836   -2.1636    1.7527 H   0  0  0  0  0  0  0  0  0  0  0  0
    2.0045   -1.6668    1.2161 H   0  0  0  0  0  0  0  0  0  0  0  0
    3.9931    1.4152   -1.0482 H   0  0  0  0  0  0  0  0  0  0  0  0
    2.6059   -2.3675   -0.7679 H   0  0  0  0  0  0  0  0  0  0  0  0
   -1.3600   -2.2890    0.2477 H   0  0  0  0  0  0  0  0  0  0  0  0
  1  3  2  0  0  0  0
  2 15  1  0  0  0  0
  2 14  1  0  0  0  0
  3  6  1  0  0  0  0
  3  2  1  0  0  0  0
  4  7  2  0  0  0  0
  4  1  1  0  0  0  0
  5  2  1  0  0  0  0
  6 12  1  0  0  0  0
  6 11  2  0  0  0  0
  8  4  1  0  0  0  0
  9  5  2  0  0  0  0
 10 17  1  0  0  0  0
 10  5  1  0  0  0  0
 13  1  1  0  0  0  0
 16  8  1  0  0  0  0
 18 12  1  0  0  0  0
M  END
>  <HBA>
6

>  <HBD>
3

>  <TPSA>
111.9

>  <cid>
309

>  <dipole>
5.54

>  <excitation_energy_1>
3.724

>  <excitation_energy_2>
4.511

>  <excitation_energy_3>
4.691

>  <excitation_energy_4>
5.12

>  <homo_energy>
-7.619

>  <homo_lumo_gap>
4.718

>  <logP>
-0.443

>  <lumo_energy>
-2.901

>  <melting_point>
218.12

>  <molecular_refractivity>
35.8

>  <oscillator_strength_1>
0.0102

>  <oscillator_strength_2>
0.0633

>  <oscillator_strength_3>
0.0032

>  <oscillator_strength_4>
0.0475

>  <open_babel_can_smiles>
OC(=O)C/C(=C\C(=O)O)/C(=O)O

>  <mulliken_charges>
18
1   -0.194218
2   -0.483614
3   0.08016
4   0.586371
5   0.608781
6   0.56926
7   -0.520257
8   -0.546494
9   -0.459305
10   -0.55933
11   -0.436311
12   -0.591668
13   0.207709
14   0.206352
15   0.200451
16   0.425379
17   0.458304
18   0.448429

>  <lowdin_charges>
18
1   -0.177841
2   -0.32639
3   0.006151
4   0.212869
5   0.20682
6   0.189343
7   -0.302001
8   -0.3187
9   -0.265516
10   -0.325183
11   -0.233864
12   -0.347138
13   0.202785
14   0.187315
15   0.183595
16   0.370689
17   0.370189
18   0.366876

$$$$

