PCCDB-ID:  339
public computational chemistry database (PCCDB) project, http://pccdb.org

 15 14  0  0  0  0  0  0  0  0999 V2000
    1.0637   -0.3571    0.2188 C   0  0  0  0  0  0  0  0  0  0  0  0
    0.5974   -1.0883   -1.0481 C   0  0  0  0  0  0  0  0  0  0  0  0
    2.4915   -0.0409    0.1070 N   0  0  0  0  0  0  0  0  0  0  0  0
   -1.4049   -2.2263   -2.4577 O   0  0  0  0  0  0  0  0  0  0  0  0
   -1.3239   -2.5166    0.1086 O   0  0  0  0  0  0  0  0  0  0  0  0
   -2.1108   -0.2425   -0.9350 O   0  0  0  0  0  0  0  0  0  0  0  0
   -1.1853   -1.3994   -1.0695 P   0  0  0  0  0  0  0  0  0  0  0  0
    0.8001   -0.9606    1.1031 H   0  0  0  0  0  0  0  0  0  0  0  0
    0.5147    0.5871    0.3010 H   0  0  0  0  0  0  0  0  0  0  0  0
    1.1103   -2.0516   -1.1628 H   0  0  0  0  0  0  0  0  0  0  0  0
    0.8399   -0.4859   -1.9299 H   0  0  0  0  0  0  0  0  0  0  0  0
    3.0398   -0.8967    0.1897 H   0  0  0  0  0  0  0  0  0  0  0  0
    2.7718    0.5474    0.8902 H   0  0  0  0  0  0  0  0  0  0  0  0
   -2.1684   -1.8579   -2.9337 H   0  0  0  0  0  0  0  0  0  0  0  0
   -2.2285   -2.5105    0.4650 H   0  0  0  0  0  0  0  0  0  0  0  0
  1  9  1  0  0  0  0
  1  8  1  0  0  0  0
  2  1  1  0  0  0  0
  3 12  1  0  0  0  0
  3  1  1  0  0  0  0
  3 13  1  0  0  0  0
  4  7  1  0  0  0  0
  5 15  1  0  0  0  0
  7  2  1  0  0  0  0
  7  6  2  0  0  0  0
  7  5  1  0  0  0  0
 10  2  1  0  0  0  0
 11  2  1  0  0  0  0
 14  4  1  0  0  0  0
M  END
>  <HBA>
4

>  <HBD>
3

>  <TPSA>
93.36

>  <cid>
339

>  <dipole>
1.91

>  <excitation_energy_1>
5.666

>  <excitation_energy_2>
6.103

>  <excitation_energy_3>
6.636

>  <excitation_energy_4>
6.797

>  <homo_energy>
-6.561

>  <homo_lumo_gap>
7.728

>  <logP>
-0.177

>  <lumo_energy>
1.167

>  <melting_point>
116.67

>  <molecular_refractivity>
25.42

>  <oscillator_strength_1>
0.0149

>  <oscillator_strength_2>
0.0136

>  <oscillator_strength_3>
0.0186

>  <oscillator_strength_4>
0.0185

>  <open_babel_can_smiles>
NCCP(=O)(O)O

>  <mulliken_charges>
15
1   -0.156179
2   -0.463577
3   -0.716575
4   -0.650933
5   -0.653804
6   -0.567236
7   1.038654
8   0.141326
9   0.172241
10   0.183796
11   0.199912
12   0.295032
13   0.302538
14   0.43846
15   0.436346

>  <lowdin_charges>
15
1   -0.203423
2   -0.456156
3   -0.556895
4   -0.583861
5   -0.57771
6   -0.610955
7   1.052008
8   0.133191
9   0.159697
10   0.180126
11   0.189188
12   0.253332
13   0.259146
14   0.383302
15   0.379012

$$$$

