PCCDB-ID:  239
public computational chemistry database (PCCDB) project, http://pccdb.org

 13 12  0  0  0  0  0  0  0  0999 V2000
    1.2757    0.2769    0.2567 C   0  0  0  0  0  0  0  0  0  0  0  0
    0.6108    1.3212    1.1640 C   0  0  0  0  0  0  0  0  0  0  0  0
    2.7906    0.4451    0.0631 C   0  0  0  0  0  0  0  0  0  0  0  0
    1.1811    1.2490    2.5262 N   0  0  0  0  0  0  0  0  0  0  0  0
    3.3385    0.1792   -0.9817 O   0  0  0  0  0  0  0  0  0  0  0  0
    3.4736    0.8766    1.1368 O   0  0  0  0  0  0  0  0  0  0  0  0
    0.8216    0.2913   -0.7374 H   0  0  0  0  0  0  0  0  0  0  0  0
    1.1005   -0.7288    0.6674 H   0  0  0  0  0  0  0  0  0  0  0  0
   -0.4802    1.1834    1.1496 H   0  0  0  0  0  0  0  0  0  0  0  0
    0.8134    2.3271    0.7798 H   0  0  0  0  0  0  0  0  0  0  0  0
    0.8345    0.4251    3.0159 H   0  0  0  0  0  0  0  0  0  0  0  0
    0.9131    2.0601    3.0794 H   0  0  0  0  0  0  0  0  0  0  0  0
    2.8291    1.0525    1.8793 H   0  0  0  0  0  0  0  0  0  0  0  0
  1  8  1  0  0  0  0
  1  2  1  0  0  0  0
  2  4  1  0  0  0  0
  3  1  1  0  0  0  0
  3  6  1  0  0  0  0
  4 11  1  0  0  0  0
  4 12  1  0  0  0  0
  5  3  2  0  0  0  0
  6 13  1  0  0  0  0
  7  1  1  0  0  0  0
  9  2  1  0  0  0  0
 10  2  1  0  0  0  0
M  END
>  <HBA>
3

>  <HBD>
2

>  <TPSA>
63.32

>  <cid>
239

>  <dipole>
6.66

>  <excitation_energy_1>
5.559

>  <excitation_energy_2>
6.116

>  <excitation_energy_3>
6.36

>  <excitation_energy_4>
6.827

>  <homo_energy>
-6.729

>  <homo_lumo_gap>
7.461

>  <logP>
0.12

>  <lumo_energy>
0.732

>  <melting_point>
106.84

>  <molecular_refractivity>
21.01

>  <oscillator_strength_1>
0.0016

>  <oscillator_strength_2>
0.001

>  <oscillator_strength_3>
0.0142

>  <oscillator_strength_4>
0.0021

>  <open_babel_can_smiles>
NCCC(=O)O

>  <mulliken_charges>
13
1   -0.372943
2   -0.163268
3   0.585389
4   -0.759996
5   -0.459779
6   -0.591469
7   0.181072
8   0.166723
9   0.148524
10   0.170945
11   0.322448
12   0.328209
13   0.444144

>  <lowdin_charges>
13
1   -0.324436
2   -0.20511
3   0.184365
4   -0.543489
5   -0.262896
6   -0.379104
7   0.175655
8   0.163839
9   0.138848
10   0.155578
11   0.269367
12   0.274244
13   0.353138

$$$$

