PCCDB-ID:  47
public computational chemistry database (PCCDB) project, http://pccdb.org

 19 18  0  0  1  0  0  0  0  0999 V2000
    3.0751   -0.8557   -1.4347 C   0  0  0  0  0  0  0  0  0  0  0  0
    2.5442    0.8119    2.0901 C   0  0  0  0  0  0  0  0  0  0  0  0
    2.4812   -0.5868   -0.0476 C   0  0  0  0  0  0  0  0  0  0  0  0
    3.2971    0.3999    0.8015 C   0  0  2  0  0  0  0  0  0  0  0  0
    4.6397   -0.1841    1.2092 C   0  0  0  0  0  0  0  0  0  0  0  0
    5.7230    0.8527    1.6046 C   0  0  0  0  0  0  0  0  0  0  0  0
    4.8927   -1.3676    1.2661 O   0  0  0  0  0  0  0  0  0  0  0  0
    6.8347    0.2672    2.0778 O   0  0  0  0  0  0  0  0  0  0  0  0
    5.5800    2.0512    1.4911 O   0  0  0  0  0  0  0  0  0  0  0  0
    2.4324   -1.5331   -2.0077 H   0  0  0  0  0  0  0  0  0  0  0  0
    4.0632   -1.3217   -1.3621 H   0  0  0  0  0  0  0  0  0  0  0  0
    3.1766    0.0721   -2.0115 H   0  0  0  0  0  0  0  0  0  0  0  0
    1.5912    1.2809    1.8242 H   0  0  0  0  0  0  0  0  0  0  0  0
    3.1198    1.5309    2.6808 H   0  0  0  0  0  0  0  0  0  0  0  0
    2.3315   -0.0643    2.7131 H   0  0  0  0  0  0  0  0  0  0  0  0
    2.3847   -1.5309    0.5017 H   0  0  0  0  0  0  0  0  0  0  0  0
    1.4682   -0.1784   -0.1562 H   0  0  0  0  0  0  0  0  0  0  0  0
    3.4964    1.3161    0.2316 H   0  0  0  0  0  0  0  0  0  0  0  0
    7.4558    0.9899    2.2902 H   0  0  0  0  0  0  0  0  0  0  0  0
  1 11  1  0  0  0  0
  1  3  1  0  0  0  0
  2 14  1  0  0  0  0
  2 15  1  0  0  0  0
  3 16  1  0  0  0  0
  3  4  1  0  0  0  0
  4 18  1  6  0  0  0
  4  5  1  0  0  0  0
  4  2  1  0  0  0  0
  5  7  2  0  0  0  0
  5  6  1  0  0  0  0
  6  8  1  0  0  0  0
  8 19  1  0  0  0  0
  9  6  2  0  0  0  0
 10  1  1  0  0  0  0
 12  1  1  0  0  0  0
 13  2  1  0  0  0  0
 17  3  1  0  0  0  0
M  END
>  <HBA>
3

>  <HBD>
1

>  <TPSA>
54.37

>  <cid>
47

>  <dipole>
1.17

>  <excitation_energy_1>
3.181

>  <excitation_energy_2>
5.026

>  <excitation_energy_3>
5.716

>  <excitation_energy_4>
6.018

>  <homo_energy>
-6.955

>  <homo_lumo_gap>
4.816

>  <logP>
0.686

>  <lumo_energy>
-2.139

>  <melting_point>
71.99

>  <molecular_refractivity>
32.93

>  <oscillator_strength_1>
0.0002

>  <oscillator_strength_2>
0.0007

>  <oscillator_strength_3>
0.0007

>  <oscillator_strength_4>
0.015

>  <open_babel_can_smiles>
C[C@@H](C(=O)C(=O)O)CC

>  <mulliken_charges>
19
1   -0.457451
2   -0.467041
3   -0.247152
4   -0.159776
5   0.406785
6   0.526966
7   -0.42034
8   -0.537647
9   -0.449143
10   0.148048
11   0.161192
12   0.140967
13   0.161254
14   0.166681
15   0.159541
16   0.153857
17   0.133288
18   0.163992
19   0.415979

>  <lowdin_charges>
19
1   -0.449564
2   -0.44009
3   -0.270087
4   -0.15281
5   0.137824
6   0.15866
7   -0.183777
8   -0.319575
9   -0.245848
10   0.15516
11   0.154754
12   0.145839
13   0.160263
14   0.162179
15   0.15603
16   0.153375
17   0.144182
18   0.165664
19   0.367821

$$$$

