PCCDB-ID:  2331
public computational chemistry database (PCCDB) project, http://pccdb.org

 16 16  0  0  0  0  0  0  0  0999 V2000
   -1.4173   -0.0799    0.0364 C   0  0  0  0  0  0  0  0  0  0  0  0
   -0.7970    1.1682   -0.0380 C   0  0  0  0  0  0  0  0  0  0  0  0
   -0.6411   -1.2414    0.0584 C   0  0  0  0  0  0  0  0  0  0  0  0
    0.5943    1.2559   -0.0843 C   0  0  0  0  0  0  0  0  0  0  0  0
    0.7485   -1.1558    0.0031 C   0  0  0  0  0  0  0  0  0  0  0  0
    1.3813    0.0936   -0.0692 C   0  0  0  0  0  0  0  0  0  0  0  0
    2.8731    0.1795   -0.1463 C   0  0  0  0  0  0  0  0  0  0  0  0
    3.6578   -0.5991   -0.7750 N   0  0  0  0  0  0  0  0  0  0  0  0
    3.4351    1.2330    0.5166 O   0  0  0  0  0  0  0  0  0  0  0  0
   -2.5009   -0.1481    0.0771 H   0  0  0  0  0  0  0  0  0  0  0  0
   -1.3957    2.0745   -0.0656 H   0  0  0  0  0  0  0  0  0  0  0  0
   -1.1191   -2.2148    0.1250 H   0  0  0  0  0  0  0  0  0  0  0  0
    1.0716    2.2291   -0.1676 H   0  0  0  0  0  0  0  0  0  0  0  0
    1.3530   -2.0581    0.0372 H   0  0  0  0  0  0  0  0  0  0  0  0
    3.1157   -1.2937   -1.2909 H   0  0  0  0  0  0  0  0  0  0  0  0
    2.7838    1.5937    1.1381 H   0  0  0  0  0  0  0  0  0  0  0  0
  1  3  1  0  0  0  0
  1 10  1  0  0  0  0
  2  1  2  0  0  0  0
  3 12  1  0  0  0  0
  4  6  2  0  0  0  0
  4  2  1  0  0  0  0
  5 14  1  0  0  0  0
  5  3  2  0  0  0  0
  6  5  1  0  0  0  0
  7  6  1  0  0  0  0
  7  9  1  0  0  0  0
  8  7  2  0  0  0  0
  9 16  1  0  0  0  0
 11  2  1  0  0  0  0
 13  4  1  0  0  0  0
 15  8  1  0  0  0  0
M  END
>  <HBA>
2

>  <HBD>
1

>  <TPSA>
43.09

>  <cid>
2331

>  <dipole>
4.71

>  <excitation_energy_1>
4.997

>  <excitation_energy_2>
5.105

>  <excitation_energy_3>
5.348

>  <excitation_energy_4>
5.76

>  <homo_energy>
-6.846

>  <homo_lumo_gap>
5.782

>  <logP>
1.486

>  <lumo_energy>
-1.064

>  <melting_point>
93.12

>  <molecular_refractivity>
34.54

>  <oscillator_strength_1>
0.0126

>  <oscillator_strength_2>
0.0092

>  <oscillator_strength_3>
0.1451

>  <oscillator_strength_4>
0.0121

>  <open_babel_can_smiles>
OC(=N)c1ccccc1

>  <mulliken_charges>
16
1   -0.122335
2   -0.128923
3   -0.132213
4   -0.192065
5   -0.17076
6   0.068479
7   0.419006
8   -0.578423
9   -0.575688
10   0.141202
11   0.141975
12   0.14242
13   0.14683
14   0.147116
15   0.287357
16   0.406023

>  <lowdin_charges>
16
1   -0.143497
2   -0.150031
3   -0.148534
4   -0.166522
5   -0.152858
6   -0.047551
7   0.125931
8   -0.388935
9   -0.364482
10   0.161453
11   0.164133
12   0.163817
13   0.163745
14   0.166405
15   0.260113
16   0.356813

$$$$

