PCCDB-ID:  1254
public computational chemistry database (PCCDB) project, http://pccdb.org

 31 31  0  0  1  0  0  0  0  0999 V2000
    2.5554   -0.4125   -1.6029 C   0  0  0  0  0  0  0  0  0  0  0  0
    3.1070   -1.1735    0.7283 C   0  0  0  0  0  0  0  0  0  0  0  0
    3.3727    5.5983    1.4556 C   0  0  0  0  0  0  0  0  0  0  0  0
    3.3969    3.1179    2.0328 C   0  0  0  0  0  0  0  0  0  0  0  0
    2.8416    1.7225    1.7060 C   0  0  0  0  0  0  0  0  0  0  0  0
    2.9877    3.8380   -0.3369 C   0  0  0  0  0  0  0  0  0  0  0  0
    2.4415   -0.0667   -0.1085 C   0  0  0  0  0  0  0  0  0  0  0  0
    2.7937    4.2148    1.1409 C   0  0  2  0  0  0  0  0  0  0  0  0
    3.0138    1.3392    0.2187 C   0  0  1  0  0  0  0  0  0  0  0  0
    2.4234    2.4504   -0.6863 C   0  0  1  0  0  0  0  0  0  0  0  0
    0.9894    2.4503   -0.6779 O   0  0  0  0  0  0  0  0  0  0  0  0
    2.2122   -1.4378   -1.7843 H   0  0  0  0  0  0  0  0  0  0  0  0
    3.5961   -0.3487   -1.9487 H   0  0  0  0  0  0  0  0  0  0  0  0
    1.9460    0.2506   -2.2232 H   0  0  0  0  0  0  0  0  0  0  0  0
    2.7129   -2.1565    0.4450 H   0  0  0  0  0  0  0  0  0  0  0  0
    2.9353   -1.0527    1.8025 H   0  0  0  0  0  0  0  0  0  0  0  0
    4.1928   -1.1946    0.5629 H   0  0  0  0  0  0  0  0  0  0  0  0
    3.2060    5.8713    2.5047 H   0  0  0  0  0  0  0  0  0  0  0  0
    2.9153    6.3732    0.8292 H   0  0  0  0  0  0  0  0  0  0  0  0
    4.4551    5.6196    1.2738 H   0  0  0  0  0  0  0  0  0  0  0  0
    4.4892    3.1125    1.8950 H   0  0  0  0  0  0  0  0  0  0  0  0
    3.2205    3.3519    3.0914 H   0  0  0  0  0  0  0  0  0  0  0  0
    1.7730    1.6816    1.9736 H   0  0  0  0  0  0  0  0  0  0  0  0
    3.3332    0.9821    2.3451 H   0  0  0  0  0  0  0  0  0  0  0  0
    4.0637    3.8495   -0.5678 H   0  0  0  0  0  0  0  0  0  0  0  0
    2.5121    4.5813   -0.9891 H   0  0  0  0  0  0  0  0  0  0  0  0
    1.3715   -0.0467    0.1411 H   0  0  0  0  0  0  0  0  0  0  0  0
    1.7100    4.2563    1.3426 H   0  0  0  0  0  0  0  0  0  0  0  0
    4.0964    1.3161    0.0083 H   0  0  0  0  0  0  0  0  0  0  0  0
    2.6749    2.2353   -1.7288 H   0  0  0  0  0  0  0  0  0  0  0  0
    0.6962    2.6126    0.2321 H   0  0  0  0  0  0  0  0  0  0  0  0
  1  7  1  0  0  0  0
  2 16  1  0  0  0  0
  3 18  1  0  0  0  0
  4 22  1  0  0  0  0
  5 23  1  0  0  0  0
  5  4  1  0  0  0  0
  5 24  1  0  0  0  0
  6  8  1  0  0  0  0
  7 27  1  0  0  0  0
  7  9  1  0  0  0  0
  7  2  1  0  0  0  0
  8 28  1  1  0  0  0
  8  3  1  0  0  0  0
  8  4  1  0  0  0  0
  9 29  1  6  0  0  0
  9  5  1  0  0  0  0
 10 30  1  6  0  0  0
 10 11  1  0  0  0  0
 10  6  1  0  0  0  0
 10  9  1  0  0  0  0
 11 31  1  0  0  0  0
 12  1  1  0  0  0  0
 13  1  1  0  0  0  0
 14  1  1  0  0  0  0
 15  2  1  0  0  0  0
 17  2  1  0  0  0  0
 19  3  1  0  0  0  0
 20  3  1  0  0  0  0
 21  4  1  0  0  0  0
 25  6  1  0  0  0  0
 26  6  1  0  0  0  0
M  END
>  <HBA>
1

>  <HBD>
1

>  <TPSA>
20.23

>  <cid>
1254

>  <dipole>
1.6

>  <excitation_energy_1>
6.319

>  <excitation_energy_2>
6.686

>  <excitation_energy_3>
6.981

>  <excitation_energy_4>
7.075

>  <homo_energy>
-6.925

>  <homo_lumo_gap>
8.591

>  <logP>
2.439

>  <lumo_energy>
1.665

>  <melting_point>
11.98

>  <molecular_refractivity>
49.23

>  <oscillator_strength_1>
0.0146

>  <oscillator_strength_2>
0.0025

>  <oscillator_strength_3>
0.0097

>  <oscillator_strength_4>
0.009

>  <open_babel_can_smiles>
C[C@@H]1CC[C@H]([C@H](C1)O)C(C)C

>  <mulliken_charges>
31
1   -0.460898
2   -0.453023
3   -0.444521
4   -0.255454
5   -0.292259
6   -0.267726
7   -0.052044
8   -0.084116
9   -0.090847
10   0.120485
11   -0.637973
12   0.137374
13   0.13208
14   0.163684
15   0.140238
16   0.142721
17   0.135861
18   0.140348
19   0.143373
20   0.140135
21   0.126849
22   0.128911
23   0.114141
24   0.142752
25   0.12297
26   0.139699
27   0.125444
28   0.106154
29   0.110104
30   0.134555
31   0.390983

>  <lowdin_charges>
31
1   -0.447837
2   -0.443145
3   -0.4402
4   -0.274782
5   -0.284633
6   -0.293007
7   -0.119336
8   -0.127058
9   -0.144988
10   -0.004002
11   -0.468325
12   0.147097
13   0.140739
14   0.158899
15   0.148205
16   0.145241
17   0.141824
18   0.147033
19   0.151115
20   0.144561
21   0.136101
22   0.141181
23   0.128418
24   0.151658
25   0.13955
26   0.150677
27   0.137478
28   0.124657
29   0.133991
30   0.144355
31   0.33453

$$$$

