PCCDB-ID:  5971
public computational chemistry database (PCCDB) project, http://pccdb.org

 11 10  0  0  0  0  0  0  0  0999 V2000
    2.0141   -0.5641    1.1114 C   0  0  0  0  0  0  0  0  0  0  0  0
    2.6963   -0.1424    0.0484 C   0  0  0  0  0  0  0  0  0  0  0  0
    2.6126   -0.7947   -1.3094 C   0  0  0  0  0  0  0  0  0  0  0  0
    5.0549   -1.4261   -1.6179 C   0  0  0  0  0  0  0  0  0  0  0  0
    3.8982   -1.2038   -1.8114 N   0  0  0  0  0  0  0  0  0  0  0  0
    6.6092   -1.7513   -1.4859 S   0  0  0  0  0  0  0  0  0  0  0  0
    2.0807   -0.0547    2.0687 H   0  0  0  0  0  0  0  0  0  0  0  0
    1.3563   -1.4294    1.0651 H   0  0  0  0  0  0  0  0  0  0  0  0
    3.3538    0.7231    0.1147 H   0  0  0  0  0  0  0  0  0  0  0  0
    2.1810   -0.1022   -2.0440 H   0  0  0  0  0  0  0  0  0  0  0  0
    1.9577   -1.6736   -1.2753 H   0  0  0  0  0  0  0  0  0  0  0  0
  1  7  1  0  0  0  0
  2  9  1  0  0  0  0
  2  1  2  0  0  0  0
  3 11  1  0  0  0  0
  3  2  1  0  0  0  0
  4  6  2  0  0  0  0
  5  4  2  0  0  0  0
  5  3  1  0  0  0  0
  8  1  1  0  0  0  0
 10  3  1  0  0  0  0
M  END
>  <HBA>
2

>  <HBD>
0

>  <TPSA>
44.45

>  <cid>
5971

>  <dipole>
3.76

>  <excitation_energy_1>
4.629

>  <excitation_energy_2>
5.173

>  <excitation_energy_3>
5.478

>  <excitation_energy_4>
5.563

>  <homo_energy>
-6.626

>  <homo_lumo_gap>
6.079

>  <logP>
1.275

>  <lumo_energy>
-0.547

>  <melting_point>
3.58

>  <molecular_refractivity>
30.03

>  <oscillator_strength_1>
0.0004

>  <oscillator_strength_2>
0.0189

>  <oscillator_strength_3>
0.0178

>  <oscillator_strength_4>
0.0045

>  <open_babel_can_smiles>
C=CCN=C=S

>  <mulliken_charges>
11
1   -0.328423
2   -0.052364
3   -0.195039
4   0.222841
5   -0.348245
6   -0.128719
7   0.158051
8   0.149642
9   0.153871
10   0.186615
11   0.18177

>  <lowdin_charges>
11
1   -0.315155
2   -0.155222
3   -0.167853
4   -0.046169
5   -0.10539
6   -0.045408
7   0.168425
8   0.161168
9   0.16433
10   0.171917
11   0.169358

$$$$

