PCCDB-ID:  4087
public computational chemistry database (PCCDB) project, http://pccdb.org

 25 25  0  0  1  0  0  0  0  0999 V2000
    3.1525    2.3283    0.3853 C   0  0  0  0  0  0  0  0  0  0  0  0
    6.5106    0.4546    2.8660 C   0  0  0  0  0  0  0  0  0  0  0  0
    5.2313    0.3329    2.3243 C   0  0  0  0  0  0  0  0  0  0  0  0
    7.6416    0.1910    2.0937 C   0  0  0  0  0  0  0  0  0  0  0  0
    6.2043   -0.3336    0.2145 C   0  0  0  0  0  0  0  0  0  0  0  0
    3.2537    1.0587   -0.4641 C   0  0  1  0  0  0  0  0  0  0  0  0
    5.0723   -0.0619    0.9880 C   0  0  0  0  0  0  0  0  0  0  0  0
    7.4839   -0.2035    0.7604 C   0  0  0  0  0  0  0  0  0  0  0  0
    3.6939   -0.1876    0.3588 C   0  0  1  0  0  0  0  0  0  0  0  0
    1.9788    0.8480   -1.1599 N   0  0  0  0  0  0  0  0  0  0  0  0
    8.5450   -0.4869   -0.0560 O   0  0  0  0  0  0  0  0  0  0  0  0
    2.6662   -0.4139    1.3235 O   0  0  0  0  0  0  0  0  0  0  0  0
    4.1133    2.5823    0.8428 H   0  0  0  0  0  0  0  0  0  0  0  0
    2.4174    2.1986    1.1871 H   0  0  0  0  0  0  0  0  0  0  0  0
    2.8288    3.1604   -0.2461 H   0  0  0  0  0  0  0  0  0  0  0  0
    6.6325    0.7592    3.9022 H   0  0  0  0  0  0  0  0  0  0  0  0
    4.3539    0.5423    2.9268 H   0  0  0  0  0  0  0  0  0  0  0  0
    8.6381    0.2856    2.5214 H   0  0  0  0  0  0  0  0  0  0  0  0
    6.1117   -0.6562   -0.8194 H   0  0  0  0  0  0  0  0  0  0  0  0
    4.0233    1.2097   -1.2324 H   0  0  0  0  0  0  0  0  0  0  0  0
    3.7239   -1.0311   -0.3531 H   0  0  0  0  0  0  0  0  0  0  0  0
    1.2800    0.5873   -0.4636 H   0  0  0  0  0  0  0  0  0  0  0  0
    2.0574    0.0447   -1.7844 H   0  0  0  0  0  0  0  0  0  0  0  0
    9.3671   -0.3607    0.4425 H   0  0  0  0  0  0  0  0  0  0  0  0
    2.9104   -1.2007    1.8354 H   0  0  0  0  0  0  0  0  0  0  0  0
  1 13  1  0  0  0  0
  1 14  1  0  0  0  0
  2 16  1  0  0  0  0
  3  2  1  0  0  0  0
  3 17  1  0  0  0  0
  4 18  1  0  0  0  0
  4  2  2  0  0  0  0
  5  8  2  0  0  0  0
  5  7  1  0  0  0  0
  6 20  1  6  0  0  0
  6  9  1  0  0  0  0
  6  1  1  0  0  0  0
  7  3  2  0  0  0  0
  8  4  1  0  0  0  0
  9 21  1  6  0  0  0
  9  7  1  0  0  0  0
  9 12  1  0  0  0  0
 10  6  1  0  0  0  0
 10 22  1  0  0  0  0
 11 24  1  0  0  0  0
 11  8  1  0  0  0  0
 12 25  1  0  0  0  0
 15  1  1  0  0  0  0
 19  5  1  0  0  0  0
 23 10  1  0  0  0  0
M  END
>  <HBA>
3

>  <HBD>
3

>  <TPSA>
66.48

>  <cid>
4087

>  <dipole>
3.29

>  <excitation_energy_1>
4.913

>  <excitation_energy_2>
5.225

>  <excitation_energy_3>
5.241

>  <excitation_energy_4>
5.41

>  <homo_energy>
-5.948

>  <homo_lumo_gap>
5.763

>  <logP>
1.473

>  <lumo_energy>
-0.185

>  <melting_point>
119.66

>  <molecular_refractivity>
46.91

>  <oscillator_strength_1>
0.064

>  <oscillator_strength_2>
0.0008

>  <oscillator_strength_3>
0.0629

>  <oscillator_strength_4>
0.0081

>  <open_babel_can_smiles>
C[C@@H]([C@@H](c1cccc(c1)O)O)N

>  <mulliken_charges>
25
1   -0.447736
2   -0.134079
3   -0.189787
4   -0.19427
5   -0.21871
6   0.019979
7   0.112362
8   0.352445
9   0.068322
10   -0.706038
11   -0.643196
12   -0.636638
13   0.149392
14   0.153409
15   0.156651
16   0.132133
17   0.137091
18   0.117964
19   0.13314
20   0.133293
21   0.108269
22   0.306535
23   0.286894
24   0.407512
25   0.395065

>  <lowdin_charges>
25
1   -0.452784
2   -0.141199
3   -0.194937
4   -0.217272
5   -0.196624
6   -0.07039
7   -0.016436
8   0.104345
9   -0.02013
10   -0.546132
11   -0.379002
12   -0.461084
13   0.154818
14   0.15437
15   0.159852
16   0.157734
17   0.163961
18   0.15264
19   0.162687
20   0.143634
21   0.1274
22   0.259511
23   0.249142
24   0.358172
25   0.347727

$$$$

