PCCDB-ID:  4765
public computational chemistry database (PCCDB) project, http://pccdb.org

 17 17  0  0  0  0  0  0  0  0999 V2000
   -0.7681    1.1675    0.0410 C   0  0  0  0  0  0  0  0  0  0  0  0
    1.4242    0.1185   -0.0601 C   0  0  0  0  0  0  0  0  0  0  0  0
   -1.3715   -0.0855    0.0092 C   0  0  0  0  0  0  0  0  0  0  0  0
    0.8230   -1.1320   -0.0936 C   0  0  0  0  0  0  0  0  0  0  0  0
    0.6289    1.2719    0.0034 C   0  0  0  0  0  0  0  0  0  0  0  0
   -0.5726   -1.2279   -0.0621 C   0  0  0  0  0  0  0  0  0  0  0  0
    1.2753    2.4675    0.0341 O   0  0  0  0  0  0  0  0  0  0  0  0
   -1.5136   -3.0483   -1.7436 O   0  0  0  0  0  0  0  0  0  0  0  0
   -0.3931   -3.8499    0.3320 O   0  0  0  0  0  0  0  0  0  0  0  0
   -2.6778   -2.7243    0.4581 O   0  0  0  0  0  0  0  0  0  0  0  0
   -1.3420   -2.8273   -0.1142 S   0  0  0  0  0  0  0  0  0  0  0  0
   -1.3806    2.0647    0.1005 H   0  0  0  0  0  0  0  0  0  0  0  0
    2.5037    0.2253   -0.0758 H   0  0  0  0  0  0  0  0  0  0  0  0
   -2.4510   -0.1811    0.0512 H   0  0  0  0  0  0  0  0  0  0  0  0
    1.4262   -2.0329   -0.1262 H   0  0  0  0  0  0  0  0  0  0  0  0
    0.6252    3.1864    0.0797 H   0  0  0  0  0  0  0  0  0  0  0  0
   -1.1241   -3.9220   -1.9380 H   0  0  0  0  0  0  0  0  0  0  0  0
  1 12  1  0  0  0  0
  2  5  2  0  0  0  0
  3  1  2  0  0  0  0
  3 14  1  0  0  0  0
  4  6  2  0  0  0  0
  4  2  1  0  0  0  0
  5  7  1  0  0  0  0
  5  1  1  0  0  0  0
  6  3  1  0  0  0  0
  7 16  1  0  0  0  0
  8 11  1  0  0  0  0
 11  6  1  0  0  0  0
 11  9  1  0  0  0  0
 11 10  1  0  0  0  0
 13  2  1  0  0  0  0
 15  4  1  0  0  0  0
 17  8  1  0  0  0  0
M  RAD  2   9   2  10   2
M  END
>  <HBA>
4

>  <HBD>
2

>  <TPSA>
82.98

>  <cid>
4765

>  <dipole>
4.45

>  <excitation_energy_1>
5.069

>  <excitation_energy_2>
5.434

>  <excitation_energy_3>
5.681

>  <excitation_energy_4>
6.161

>  <homo_energy>
-6.841

>  <homo_lumo_gap>
5.856

>  <logP>
1.72

>  <lumo_energy>
-0.985

>  <melting_point>
129.78

>  <molecular_refractivity>
38.32

>  <oscillator_strength_1>
0.0076

>  <oscillator_strength_2>
0.2199

>  <oscillator_strength_3>
0.0004

>  <oscillator_strength_4>
0.0003

>  <open_babel_can_smiles>
Oc1ccc(cc1)S(O)([O])[O]

>  <mulliken_charges>
17
1   -0.189035
2   -0.152795
3   -0.137042
4   -0.141401
5   0.361795
6   -0.157312
7   -0.627271
8   -0.638461
9   -0.533751
10   -0.491724
11   1.188834
12   0.13813
13   0.158612
14   0.186956
15   0.180865
16   0.41582
17   0.437778

>  <lowdin_charges>
17
1   -0.207176
2   -0.175271
3   -0.115386
4   -0.121045
5   0.120788
6   -0.206453
7   -0.360736
8   -0.588381
9   -0.588332
10   -0.558979
11   1.347196
12   0.16361
13   0.175186
14   0.186002
15   0.185186
16   0.364408
17   0.379384

$$$$

