PCCDB-ID:  4509
public computational chemistry database (PCCDB) project, http://pccdb.org

 23 24  0  0  0  0  0  0  0  0999 V2000
   -1.2142    0.0224   -0.6376 C   0  0  0  0  0  0  0  0  0  0  0  0
   -0.5152   -1.1893   -0.4249 C   0  0  0  0  0  0  0  0  0  0  0  0
   -0.6734    2.4346    0.1838 C   0  0  0  0  0  0  0  0  0  0  0  0
   -3.0879    4.8893   -0.8751 C   0  0  0  0  0  0  0  0  0  0  0  0
   -0.5014    1.0103    0.0136 C   0  0  0  0  0  0  0  0  0  0  0  0
   -2.8883    6.3323   -0.4645 C   0  0  0  0  0  0  0  0  0  0  0  0
    0.5717   -0.8521    0.3391 C   0  0  0  0  0  0  0  0  0  0  0  0
   -1.1793    5.3209    0.4251 C   0  0  0  0  0  0  0  0  0  0  0  0
   -1.7064    2.9844   -0.3671 N   0  0  0  0  0  0  0  0  0  0  0  0
   -1.8469    6.5624    0.2445 N   0  0  0  0  0  0  0  0  0  0  0  0
   -1.9212    4.3145   -0.2424 N   0  0  0  0  0  0  0  0  0  0  0  0
    1.6271   -1.6603    0.8543 N   0  0  0  0  0  0  0  0  0  0  0  0
   -3.7322    7.3054   -0.8128 O   0  0  0  0  0  0  0  0  0  0  0  0
   -0.1537    5.1393    1.0405 O   0  0  0  0  0  0  0  0  0  0  0  0
    1.5620   -2.8649    0.5825 O   0  0  0  0  0  0  0  0  0  0  0  0
    2.5073   -1.1130    1.5175 O   0  0  0  0  0  0  0  0  0  0  0  0
    0.5998    0.4705    0.6150 O   0  0  0  0  0  0  0  0  0  0  0  0
   -2.1276    0.1712   -1.1943 H   0  0  0  0  0  0  0  0  0  0  0  0
   -0.7584   -2.1811   -0.7742 H   0  0  0  0  0  0  0  0  0  0  0  0
    0.0692    2.9740    0.7650 H   0  0  0  0  0  0  0  0  0  0  0  0
   -3.0742    4.7586   -1.9656 H   0  0  0  0  0  0  0  0  0  0  0  0
   -4.0224    4.4655   -0.4836 H   0  0  0  0  0  0  0  0  0  0  0  0
   -4.4620    6.9482   -1.3448 H   0  0  0  0  0  0  0  0  0  0  0  0
  1  2  1  0  0  0  0
  1  5  2  0  0  0  0
  2  7  2  0  0  0  0
  3 20  1  0  0  0  0
  4 22  1  0  0  0  0
  4  6  1  0  0  0  0
  4 11  1  0  0  0  0
  5  3  1  0  0  0  0
  5 17  1  0  0  0  0
  6 10  2  0  0  0  0
  7 17  1  0  0  0  0
  7 12  1  0  0  0  0
  8 14  2  0  0  0  0
  9 11  1  0  0  0  0
  9  3  2  0  0  0  0
 10  8  1  0  0  0  0
 11  8  1  0  0  0  0
 12 16  2  0  0  0  0
 13  6  1  0  0  0  0
 15 12  2  0  0  0  0
 18  1  1  0  0  0  0
 19  2  1  0  0  0  0
 21  4  1  0  0  0  0
 23 13  1  0  0  0  0
M  END
>  <HBA>
6

>  <HBD>
1

>  <TPSA>
120.73

>  <cid>
4509

>  <dipole>
10.41

>  <excitation_energy_1>
3.451

>  <excitation_energy_2>
3.684

>  <excitation_energy_3>
3.975

>  <excitation_energy_4>
4.204

>  <homo_energy>
-6.419

>  <homo_lumo_gap>
3.717

>  <logP>
0.863

>  <lumo_energy>
-2.702

>  <melting_point>
167.56

>  <molecular_refractivity>
62.8

>  <oscillator_strength_1>
0.6963

>  <oscillator_strength_2>
0.0

>  <oscillator_strength_3>
0.0004

>  <oscillator_strength_4>
0.0002

>  <open_babel_can_smiles>
O=C1N=C(CN1/N=C/c1ccc(o1)N(=O)=O)O

>  <mulliken_charges>
23
1   -0.191989
2   -0.145941
3   -0.017963
4   -0.188986
5   0.375588
6   0.524593
7   0.535692
8   0.763392
9   -0.283634
10   -0.478813
11   -0.344249
12   0.329033
13   -0.557249
14   -0.480011
15   -0.406707
16   -0.388542
17   -0.454028
18   0.169383
19   0.189378
20   0.226183
21   0.198996
22   0.198907
23   0.426968

>  <lowdin_charges>
23
1   -0.182487
2   -0.15072
3   -0.117465
4   -0.220732
5   0.091659
6   0.146126
7   0.06993
8   0.175966
9   -0.089428
10   -0.176535
11   -0.048435
12   0.301905
13   -0.304691
14   -0.240639
15   -0.256962
16   -0.237612
17   -0.060252
18   0.184783
19   0.195032
20   0.193824
21   0.175093
22   0.177241
23   0.374399

$$$$

