PCCDB-ID:  1465
public computational chemistry database (PCCDB) project, http://pccdb.org

 27 28  0  0  1  0  0  0  0  0999 V2000
    0.7751   -0.2111   -0.5770 C   0  0  0  0  0  0  0  0  0  0  0  0
    6.4875   -0.0169    2.1055 C   0  0  0  0  0  0  0  0  0  0  0  0
    5.3342   -0.1976    1.3975 C   0  0  0  0  0  0  0  0  0  0  0  0
    3.7368    0.7043   -1.5890 C   0  0  0  0  0  0  0  0  0  0  0  0
    2.0596    0.2769    0.0816 C   0  0  2  0  0  0  0  0  0  0  0  0
    2.7600    1.4442   -0.6637 C   0  0  2  0  0  0  0  0  0  0  0  0
    7.6900    0.0472    1.3366 C   0  0  0  0  0  0  0  0  0  0  0  0
    4.1255   -0.5227   -0.7593 C   0  0  1  0  0  0  0  0  0  0  0  0
    6.5953   -0.2601   -0.6836 C   0  0  0  0  0  0  0  0  0  0  0  0
    7.7451   -0.0682    0.0383 N   0  0  0  0  0  0  0  0  0  0  0  0
    5.3586   -0.2881    0.0495 N   0  0  0  0  0  0  0  0  0  0  0  0
    1.8899    2.3611   -1.2960 O   0  0  0  0  0  0  0  0  0  0  0  0
    8.8799    0.2336    1.9509 O   0  0  0  0  0  0  0  0  0  0  0  0
    6.5445   -0.4013   -1.8977 O   0  0  0  0  0  0  0  0  0  0  0  0
    3.0382   -0.7927    0.1014 O   0  0  0  0  0  0  0  0  0  0  0  0
    0.0061    0.5671   -0.5325 H   0  0  0  0  0  0  0  0  0  0  0  0
    0.4021   -1.0975   -0.0555 H   0  0  0  0  0  0  0  0  0  0  0  0
    0.9375   -0.4890   -1.6258 H   0  0  0  0  0  0  0  0  0  0  0  0
    6.4746    0.0529    3.1872 H   0  0  0  0  0  0  0  0  0  0  0  0
    4.3590   -0.2935    1.8587 H   0  0  0  0  0  0  0  0  0  0  0  0
    4.5978    1.2940   -1.9013 H   0  0  0  0  0  0  0  0  0  0  0  0
    3.2158    0.3693   -2.4956 H   0  0  0  0  0  0  0  0  0  0  0  0
    1.8521    0.5408    1.1252 H   0  0  0  0  0  0  0  0  0  0  0  0
    3.3189    2.0471    0.0593 H   0  0  0  0  0  0  0  0  0  0  0  0
    4.3371   -1.3997   -1.3733 H   0  0  0  0  0  0  0  0  0  0  0  0
    1.4812    1.9143   -2.0542 H   0  0  0  0  0  0  0  0  0  0  0  0
    8.7386    0.3115    2.9076 H   0  0  0  0  0  0  0  0  0  0  0  0
  1 16  1  0  0  0  0
  1 17  1  0  0  0  0
  1  5  1  0  0  0  0
  2 19  1  0  0  0  0
  3 20  1  0  0  0  0
  3  2  2  0  0  0  0
  4  8  1  0  0  0  0
  4  6  1  0  0  0  0
  5 15  1  0  0  0  0
  5 23  1  1  0  0  0
  6 24  1  1  0  0  0
  6  5  1  0  0  0  0
  7 13  1  0  0  0  0
  7  2  1  0  0  0  0
  8 25  1  6  0  0  0
  8 11  1  0  0  0  0
  8 15  1  0  0  0  0
  9 10  1  0  0  0  0
  9 11  1  0  0  0  0
 10  7  2  0  0  0  0
 11  3  1  0  0  0  0
 12  6  1  0  0  0  0
 13 27  1  0  0  0  0
 14  9  2  0  0  0  0
 18  1  1  0  0  0  0
 21  4  1  0  0  0  0
 22  4  1  0  0  0  0
 26 12  1  0  0  0  0
M  END
>  <HBA>
5

>  <HBD>
2

>  <TPSA>
84.32

>  <cid>
1465

>  <dipole>
6.33

>  <excitation_energy_1>
4.64

>  <excitation_energy_2>
4.779

>  <excitation_energy_3>
5.131

>  <excitation_energy_4>
5.457

>  <homo_energy>
-6.37

>  <homo_lumo_gap>
5.306

>  <logP>
-0.795

>  <lumo_energy>
-1.064

>  <melting_point>
153.23

>  <molecular_refractivity>
51.95

>  <oscillator_strength_1>
0.0996

>  <oscillator_strength_2>
0.0009

>  <oscillator_strength_3>
0.0008

>  <oscillator_strength_4>
0.0085

>  <open_babel_can_smiles>
O[C@@H]1C[C@H](O[C@@H]1C)n1ccc(nc1=O)O

>  <mulliken_charges>
27
1   -0.474544
2   -0.267352
3   0.11997
4   -0.333318
5   0.13451
6   0.104446
7   0.526092
8   0.289212
9   0.714895
10   -0.514975
11   -0.499302
12   -0.61675
13   -0.578537
14   -0.525315
15   -0.52066
16   0.16243
17   0.170001
18   0.142933
19   0.140448
20   0.193033
21   0.20192
22   0.147248
23   0.140113
24   0.152314
25   0.183592
26   0.394378
27   0.413215

>  <lowdin_charges>
27
1   -0.460929
2   -0.284782
3   -0.046929
4   -0.30899
5   -0.012107
6   -0.023963
7   0.162345
8   0.06847
9   0.166962
10   -0.195361
11   -0.062372
12   -0.440733
13   -0.331096
14   -0.303894
15   -0.264179
16   0.162943
17   0.167638
18   0.147081
19   0.166601
20   0.184745
21   0.18394
22   0.155378
23   0.142193
24   0.153532
25   0.169047
26   0.345402
27   0.359056

$$$$

