PCCDB-ID:  542
public computational chemistry database (PCCDB) project, http://pccdb.org

 16 16  0  0  1  0  0  0  0  0999 V2000
    1.0367    0.5861    0.0156 C   0  0  0  0  0  0  0  0  0  0  0  0
    1.1007   -0.7437   -0.0816 C   0  0  0  0  0  0  0  0  0  0  0  0
   -0.6535    1.7482    1.5309 C   0  0  0  0  0  0  0  0  0  0  0  0
   -0.3919    1.0148    0.2065 C   0  0  2  0  0  0  0  0  0  0  0  0
   -2.1108    2.1712    1.7618 C   0  0  0  0  0  0  0  0  0  0  0  0
   -0.2647   -1.3053    0.0305 C   0  0  0  0  0  0  0  0  0  0  0  0
   -2.4046    3.2573    2.1958 O   0  0  0  0  0  0  0  0  0  0  0  0
   -3.0525    1.2476    1.4821 O   0  0  0  0  0  0  0  0  0  0  0  0
   -0.6555   -2.4394    0.0111 O   0  0  0  0  0  0  0  0  0  0  0  0
   -1.1327   -0.2236    0.1815 O   0  0  0  0  0  0  0  0  0  0  0  0
    1.8572    1.2939   -0.0251 H   0  0  0  0  0  0  0  0  0  0  0  0
    1.9694   -1.3741   -0.2161 H   0  0  0  0  0  0  0  0  0  0  0  0
   -0.0476    2.6565    1.5776 H   0  0  0  0  0  0  0  0  0  0  0  0
   -0.3420    1.0954    2.3570 H   0  0  0  0  0  0  0  0  0  0  0  0
   -0.7418    1.6245   -0.6371 H   0  0  0  0  0  0  0  0  0  0  0  0
   -2.6436    0.4361    1.1194 H   0  0  0  0  0  0  0  0  0  0  0  0
  1  4  1  0  0  0  0
  2  1  2  0  0  0  0
  2  6  1  0  0  0  0
  3 13  1  0  0  0  0
  3  5  1  0  0  0  0
  3 14  1  0  0  0  0
  4 15  1  6  0  0  0
  4  3  1  0  0  0  0
  5  7  2  0  0  0  0
  6 10  1  0  0  0  0
  8  5  1  0  0  0  0
  9  6  2  0  0  0  0
 10  4  1  0  0  0  0
 11  1  1  0  0  0  0
 12  2  1  0  0  0  0
 16  8  1  0  0  0  0
M  END
>  <HBA>
4

>  <HBD>
1

>  <TPSA>
63.6

>  <cid>
542

>  <dipole>
5.6

>  <excitation_energy_1>
4.751

>  <excitation_energy_2>
4.904

>  <excitation_energy_3>
5.597

>  <excitation_energy_4>
6.022

>  <homo_energy>
-7.431

>  <homo_lumo_gap>
5.44

>  <logP>
-0.057

>  <lumo_energy>
-1.992

>  <melting_point>
95.41

>  <molecular_refractivity>
31.42

>  <oscillator_strength_1>
0.0002

>  <oscillator_strength_2>
0.0328

>  <oscillator_strength_3>
0.0006

>  <oscillator_strength_4>
0.033

>  <open_babel_can_smiles>
OC(=O)C[C@H]1C=CC(=O)O1

>  <mulliken_charges>
16
1   -0.110452
2   -0.176173
3   -0.387702
4   0.069102
5   0.59561
6   0.60495
7   -0.440011
8   -0.574731
9   -0.439511
10   -0.509189
11   0.179777
12   0.180436
13   0.18811
14   0.18877
15   0.190328
16   0.440685

>  <lowdin_charges>
16
1   -0.127179
2   -0.185379
3   -0.322782
4   0.005225
5   0.186872
6   0.19696
7   -0.238941
8   -0.353709
9   -0.210585
10   -0.219665
11   0.183257
12   0.190081
13   0.18235
14   0.17909
15   0.171807
16   0.362599

$$$$

