PCCDB-ID:  2972
public computational chemistry database (PCCDB) project, http://pccdb.org

 19 19  0  0  0  0  0  0  0  0999 V2000
    0.9193   -0.1094    0.1475 C   0  0  0  0  0  0  0  0  0  0  0  0
    2.4410   -2.5142   -0.0624 C   0  0  0  0  0  0  0  0  0  0  0  0
    5.2031   -0.0397   -0.2588 C   0  0  0  0  0  0  0  0  0  0  0  0
    4.4939   -1.1977   -0.2145 C   0  0  0  0  0  0  0  0  0  0  0  0
    2.4212   -0.0277    0.0332 C   0  0  0  0  0  0  0  0  0  0  0  0
    4.5638    1.2587   -0.1436 C   0  0  0  0  0  0  0  0  0  0  0  0
    3.0999    1.1642    0.0380 C   0  0  0  0  0  0  0  0  0  0  0  0
    3.1325   -1.2281   -0.0697 N   0  0  0  0  0  0  0  0  0  0  0  0
    5.1580    2.3384   -0.1802 O   0  0  0  0  0  0  0  0  0  0  0  0
    2.4909    2.3783    0.1765 O   0  0  0  0  0  0  0  0  0  0  0  0
    0.4571    0.8384   -0.1444 H   0  0  0  0  0  0  0  0  0  0  0  0
    0.5800   -0.3484    1.1648 H   0  0  0  0  0  0  0  0  0  0  0  0
    0.4992   -0.8645   -0.5236 H   0  0  0  0  0  0  0  0  0  0  0  0
    3.1865   -3.3086   -0.0040 H   0  0  0  0  0  0  0  0  0  0  0  0
    1.8500   -2.6646   -0.9737 H   0  0  0  0  0  0  0  0  0  0  0  0
    1.7799   -2.6021    0.8049 H   0  0  0  0  0  0  0  0  0  0  0  0
    6.2810   -0.0663   -0.3723 H   0  0  0  0  0  0  0  0  0  0  0  0
    4.9712   -2.1691   -0.2900 H   0  0  0  0  0  0  0  0  0  0  0  0
    1.5893    2.2606    0.5082 H   0  0  0  0  0  0  0  0  0  0  0  0
  1 12  1  0  0  0  0
  2 14  1  0  0  0  0
  2 16  1  0  0  0  0
  3  4  2  0  0  0  0
  3  6  1  0  0  0  0
  4  8  1  0  0  0  0
  5  7  2  0  0  0  0
  5  1  1  0  0  0  0
  6  7  1  0  0  0  0
  7 10  1  0  0  0  0
  8  2  1  0  0  0  0
  8  5  1  0  0  0  0
  9  6  2  0  0  0  0
 10 19  1  0  0  0  0
 11  1  1  0  0  0  0
 13  1  1  0  0  0  0
 15  2  1  0  0  0  0
 17  3  1  0  0  0  0
 18  4  1  0  0  0  0
M  END
>  <HBA>
3

>  <HBD>
1

>  <TPSA>
42.23

>  <cid>
2972

>  <dipole>
8.2

>  <excitation_energy_1>
4.067

>  <excitation_energy_2>
4.34

>  <excitation_energy_3>
4.767

>  <excitation_energy_4>
4.823

>  <homo_energy>
-5.287

>  <homo_lumo_gap>
5.056

>  <logP>
0.399

>  <lumo_energy>
-0.231

>  <melting_point>
86.74

>  <molecular_refractivity>
38.95

>  <oscillator_strength_1>
0.0003

>  <oscillator_strength_2>
0.0015

>  <oscillator_strength_3>
0.1714

>  <oscillator_strength_4>
0.0267

>  <open_babel_can_smiles>
Cn1ccc(=O)c(c1C)O

>  <mulliken_charges>
19
1   -0.553858
2   -0.32906
3   -0.249201
4   0.068646
5   0.319468
6   0.446882
7   0.169785
8   -0.467474
9   -0.537093
10   -0.615393
11   0.163278
12   0.178071
13   0.175021
14   0.17802
15   0.176513
16   0.176485
17   0.142958
18   0.154059
19   0.402892

>  <lowdin_charges>
19
1   -0.451819
2   -0.346488
3   -0.229105
4   -0.098006
5   -0.016747
6   0.109895
7   0.038867
8   -0.021735
9   -0.307059
10   -0.356907
11   0.163922
12   0.164353
13   0.170444
14   0.170431
15   0.159093
16   0.163237
17   0.172381
18   0.164253
19   0.35099

$$$$

