PCCDB-ID:  4055
public computational chemistry database (PCCDB) project, http://pccdb.org

 21 22  0  0  0  0  0  0  0  0999 V2000
    1.0387   -0.0292    0.0849 C   0  0  0  0  0  0  0  0  0  0  0  0
    7.5927   -0.9815    0.0497 C   0  0  0  0  0  0  0  0  0  0  0  0
    6.9438   -2.2213    0.0662 C   0  0  0  0  0  0  0  0  0  0  0  0
    6.8495    0.1976    0.0411 C   0  0  0  0  0  0  0  0  0  0  0  0
    5.5516   -2.2833    0.0747 C   0  0  0  0  0  0  0  0  0  0  0  0
    3.1841    1.2802    0.0559 C   0  0  0  0  0  0  0  0  0  0  0  0
    2.5332    0.0986    0.0716 C   0  0  0  0  0  0  0  0  0  0  0  0
    5.4531    0.1420    0.0507 C   0  0  0  0  0  0  0  0  0  0  0  0
    4.7995   -1.1040    0.0676 C   0  0  0  0  0  0  0  0  0  0  0  0
    4.6581    1.4037    0.0409 C   0  0  0  0  0  0  0  0  0  0  0  0
    3.3106   -1.1824    0.0789 C   0  0  0  0  0  0  0  0  0  0  0  0
    5.1920    2.5081    0.0209 O   0  0  0  0  0  0  0  0  0  0  0  0
    2.7226   -2.2584    0.0939 O   0  0  0  0  0  0  0  0  0  0  0  0
    0.5566    0.9519    0.0828 H   0  0  0  0  0  0  0  0  0  0  0  0
    0.7083   -0.5895    0.9669 H   0  0  0  0  0  0  0  0  0  0  0  0
    0.6935   -0.6000   -0.7846 H   0  0  0  0  0  0  0  0  0  0  0  0
    8.6782   -0.9371    0.0425 H   0  0  0  0  0  0  0  0  0  0  0  0
    7.5258   -3.1387    0.0716 H   0  0  0  0  0  0  0  0  0  0  0  0
    7.3286    1.1713    0.0286 H   0  0  0  0  0  0  0  0  0  0  0  0
    5.0269   -3.2330    0.0876 H   0  0  0  0  0  0  0  0  0  0  0  0
    2.6459    2.2251    0.0506 H   0  0  0  0  0  0  0  0  0  0  0  0
  1 15  1  0  0  0  0
  2  3  1  0  0  0  0
  3 18  1  0  0  0  0
  3  5  2  0  0  0  0
  4  2  2  0  0  0  0
  4  8  1  0  0  0  0
  5 20  1  0  0  0  0
  6  7  2  0  0  0  0
  7 11  1  0  0  0  0
  7  1  1  0  0  0  0
  8  9  2  0  0  0  0
  9  5  1  0  0  0  0
  9 11  1  0  0  0  0
 10  8  1  0  0  0  0
 10  6  1  0  0  0  0
 11 13  2  0  0  0  0
 12 10  2  0  0  0  0
 14  1  1  0  0  0  0
 16  1  1  0  0  0  0
 17  2  1  0  0  0  0
 19  4  1  0  0  0  0
 21  6  1  0  0  0  0
M  END
>  <HBA>
2

>  <HBD>
0

>  <TPSA>
34.14

>  <cid>
4055

>  <dipole>
1.07

>  <excitation_energy_1>
2.74

>  <excitation_energy_2>
3.01

>  <excitation_energy_3>
3.484

>  <excitation_energy_4>
3.631

>  <homo_energy>
-7.048

>  <homo_lumo_gap>
4.016

>  <logP>
2.012

>  <lumo_energy>
-3.031

>  <melting_point>
109.23

>  <molecular_refractivity>
49.05

>  <oscillator_strength_1>
0.0

>  <oscillator_strength_2>
0.0

>  <oscillator_strength_3>
0.0017

>  <oscillator_strength_4>
0.0578

>  <open_babel_can_smiles>
O=C1C=C(C)C(=O)c2c1cccc2

>  <mulliken_charges>
21
1   -0.512552
2   -0.123529
3   -0.125315
4   -0.173141
5   -0.172357
6   -0.247489
7   0.137087
8   0.04027
9   0.049262
10   0.406742
11   0.351256
12   -0.475233
13   -0.465852
14   0.159515
15   0.183148
16   0.183047
17   0.146538
18   0.146307
19   0.168775
20   0.168175
21   0.155347

>  <lowdin_charges>
21
1   -0.436175
2   -0.135465
3   -0.140567
4   -0.127581
5   -0.127391
6   -0.172253
7   0.000629
8   -0.037654
9   -0.039067
10   0.149108
11   0.149648
12   -0.231355
13   -0.229676
14   0.160572
15   0.176778
16   0.176814
17   0.163902
18   0.166298
19   0.17938
20   0.1791
21   0.174955

$$$$

