PCCDB-ID:  1066
public computational chemistry database (PCCDB) project, http://pccdb.org

 17 17  0  0  0  0  0  0  0  0999 V2000
   -1.0860   -0.5850    0.0484 C   0  0  0  0  0  0  0  0  0  0  0  0
    0.0876   -1.2808   -0.1997 C   0  0  0  0  0  0  0  0  0  0  0  0
   -0.9897    0.7554    0.4208 C   0  0  0  0  0  0  0  0  0  0  0  0
    1.3453   -0.6621   -0.0822 C   0  0  0  0  0  0  0  0  0  0  0  0
    1.3308    0.6977    0.2989 C   0  0  0  0  0  0  0  0  0  0  0  0
    2.5135   -1.6148   -0.3975 C   0  0  0  0  0  0  0  0  0  0  0  0
    2.5267    1.6167    0.5029 C   0  0  0  0  0  0  0  0  0  0  0  0
    0.1851    1.3666    0.5381 N   0  0  0  0  0  0  0  0  0  0  0  0
    2.2530   -2.7608   -0.7046 O   0  0  0  0  0  0  0  0  0  0  0  0
    3.7603   -1.1843   -0.3308 O   0  0  0  0  0  0  0  0  0  0  0  0
    3.6966    1.2953    0.3560 O   0  0  0  0  0  0  0  0  0  0  0  0
    2.1978    2.8456    0.8668 O   0  0  0  0  0  0  0  0  0  0  0  0
   -2.0546   -1.0658   -0.0423 H   0  0  0  0  0  0  0  0  0  0  0  0
    0.0795   -2.3247   -0.4919 H   0  0  0  0  0  0  0  0  0  0  0  0
   -1.8718    1.3558    0.6290 H   0  0  0  0  0  0  0  0  0  0  0  0
    3.8242   -0.2221   -0.0698 H   0  0  0  0  0  0  0  0  0  0  0  0
    1.2067    2.8504    0.9145 H   0  0  0  0  0  0  0  0  0  0  0  0
  1  3  2  0  0  0  0
  2  4  2  0  0  0  0
  2  1  1  0  0  0  0
  3  8  1  0  0  0  0
  3 15  1  0  0  0  0
  4  5  1  0  0  0  0
  5  7  1  0  0  0  0
  5  8  2  0  0  0  0
  6 10  1  0  0  0  0
  6  4  1  0  0  0  0
  7 12  1  0  0  0  0
  9  6  2  0  0  0  0
 10 16  1  0  0  0  0
 11  7  2  0  0  0  0
 12 17  1  0  0  0  0
 13  1  1  0  0  0  0
 14  2  1  0  0  0  0
M  END
>  <HBA>
5

>  <HBD>
2

>  <TPSA>
87.49

>  <cid>
1066

>  <dipole>
6.57

>  <excitation_energy_1>
3.853

>  <excitation_energy_2>
4.4

>  <excitation_energy_3>
4.581

>  <excitation_energy_4>
4.909

>  <homo_energy>
-7.529

>  <homo_lumo_gap>
4.849

>  <logP>
0.478

>  <lumo_energy>
-2.68

>  <melting_point>
202.48

>  <molecular_refractivity>
38.16

>  <oscillator_strength_1>
0.0

>  <oscillator_strength_2>
0.0007

>  <oscillator_strength_3>
0.0

>  <oscillator_strength_4>
0.0346

>  <open_babel_can_smiles>
OC(=O)c1ncccc1C(=O)O

>  <mulliken_charges>
17
1   -0.143119
2   -0.115453
3   0.063924
4   0.001752
5   0.190626
6   0.593703
7   0.638482
8   -0.558754
9   -0.461388
10   -0.595212
11   -0.503139
12   -0.561622
13   0.168323
14   0.207578
15   0.171846
16   0.462212
17   0.44024

>  <lowdin_charges>
17
1   -0.150471
2   -0.090111
3   -0.06812
4   -0.043648
5   0.003776
6   0.186084
7   0.200186
8   -0.15733
9   -0.257808
10   -0.339454
11   -0.25835
12   -0.309924
13   0.179414
14   0.198089
15   0.172815
16   0.369857
17   0.364994

$$$$

