PCCDB-ID:  3772
public computational chemistry database (PCCDB) project, http://pccdb.org

 21 21  0  0  0  0  0  0  0  0999 V2000
    0.7268    1.1836   -0.3845 C   0  0  0  0  0  0  0  0  0  0  0  0
   -1.4478   -0.0838   -0.1282 C   0  0  0  0  0  0  0  0  0  0  0  0
    1.4471   -0.0394    0.1927 C   0  0  0  0  0  0  0  0  0  0  0  0
   -0.6376   -1.2544    0.4387 C   0  0  0  0  0  0  0  0  0  0  0  0
   -0.7274    1.2572    0.1305 C   0  0  0  0  0  0  0  0  0  0  0  0
   -1.4839    2.4358   -0.4847 C   0  0  0  0  0  0  0  0  0  0  0  0
   -1.7460    2.6194   -1.7136 N   0  0  0  0  0  0  0  0  0  0  0  0
    0.7026   -1.2512   -0.1468 N   0  0  0  0  0  0  0  0  0  0  0  0
   -1.9189    3.3919    0.3869 O   0  0  0  0  0  0  0  0  0  0  0  0
    0.7199    1.1067   -1.4782 H   0  0  0  0  0  0  0  0  0  0  0  0
    1.2683    2.1008   -0.1229 H   0  0  0  0  0  0  0  0  0  0  0  0
   -2.4506   -0.0668    0.3155 H   0  0  0  0  0  0  0  0  0  0  0  0
   -1.5685   -0.2283   -1.2084 H   0  0  0  0  0  0  0  0  0  0  0  0
    1.5665    0.0972    1.2874 H   0  0  0  0  0  0  0  0  0  0  0  0
    2.4534   -0.1155   -0.2345 H   0  0  0  0  0  0  0  0  0  0  0  0
   -1.1268   -2.2024    0.1876 H   0  0  0  0  0  0  0  0  0  0  0  0
   -0.6216   -1.1784    1.5455 H   0  0  0  0  0  0  0  0  0  0  0  0
   -0.6794    1.3955    1.2234 H   0  0  0  0  0  0  0  0  0  0  0  0
   -1.3744    1.8473   -2.2701 H   0  0  0  0  0  0  0  0  0  0  0  0
    1.2178   -2.0729    0.1608 H   0  0  0  0  0  0  0  0  0  0  0  0
   -1.6614    3.1439    1.2867 H   0  0  0  0  0  0  0  0  0  0  0  0
  1 11  1  0  0  0  0
  1  5  1  0  0  0  0
  1  3  1  0  0  0  0
  2  5  1  0  0  0  0
  2 12  1  0  0  0  0
  2  4  1  0  0  0  0
  3 14  1  0  0  0  0
  4 17  1  0  0  0  0
  5 18  1  0  0  0  0
  6  5  1  0  0  0  0
  6  9  1  0  0  0  0
  7  6  2  0  0  0  0
  8 20  1  0  0  0  0
  8  3  1  0  0  0  0
  8  4  1  0  0  0  0
  9 21  1  0  0  0  0
 10  1  1  0  0  0  0
 13  2  1  0  0  0  0
 15  3  1  0  0  0  0
 16  4  1  0  0  0  0
 19  7  1  0  0  0  0
M  END
>  <HBA>
3

>  <HBD>
2

>  <TPSA>
55.12

>  <cid>
3772

>  <dipole>
5.16

>  <excitation_energy_1>
5.386

>  <excitation_energy_2>
5.746

>  <excitation_energy_3>
6.135

>  <excitation_energy_4>
6.183

>  <homo_energy>
-6.291

>  <homo_lumo_gap>
7.11

>  <logP>
0.5

>  <lumo_energy>
0.819

>  <melting_point>
98.83

>  <molecular_refractivity>
38.47

>  <oscillator_strength_1>
0.0096

>  <oscillator_strength_2>
0.0265

>  <oscillator_strength_3>
0.0004

>  <oscillator_strength_4>
0.003

>  <open_babel_can_smiles>
OC(=N)C1CCNCC1

>  <mulliken_charges>
21
1   -0.248102
2   -0.248271
3   -0.135611
4   -0.135959
5   -0.202078
6   0.488187
7   -0.588186
8   -0.545343
9   -0.57699
10   0.150536
11   0.143576
12   0.143817
13   0.150126
14   0.109408
15   0.144674
16   0.144694
17   0.109556
18   0.106521
19   0.285664
20   0.300262
21   0.403518

>  <lowdin_charges>
21
1   -0.276079
2   -0.275088
3   -0.201232
4   -0.201042
5   -0.160944
6   0.125094
7   -0.400342
8   -0.367454
9   -0.362059
10   0.149298
11   0.151616
12   0.150713
13   0.149335
14   0.111915
15   0.149133
16   0.149956
17   0.11161
18   0.130372
19   0.255892
20   0.258392
21   0.350913

$$$$

