PCCDB-ID:  42
public computational chemistry database (PCCDB) project, http://pccdb.org

 25 24  0  0  0  0  0  0  0  0999 V2000
    1.3446    0.2334   -0.4747 C   0  0  0  0  0  0  0  0  0  0  0  0
    0.3182    0.0253   -1.3332 C   0  0  0  0  0  0  0  0  0  0  0  0
    2.7093    0.3597   -0.9245 C   0  0  0  0  0  0  0  0  0  0  0  0
   -1.5038   -0.0871    0.5120 C   0  0  0  0  0  0  0  0  0  0  0  0
   -3.0150    0.1054    0.7553 C   0  0  0  0  0  0  0  0  0  0  0  0
   -1.0923   -0.1408   -0.9542 C   0  0  0  0  0  0  0  0  0  0  0  0
    3.8002    0.5716   -0.1497 C   0  0  0  0  0  0  0  0  0  0  0  0
   -3.8672   -1.1612    0.6136 C   0  0  0  0  0  0  0  0  0  0  0  0
    3.8086    0.7260    1.3497 C   0  0  0  0  0  0  0  0  0  0  0  0
   -1.9223   -0.3320   -1.8485 O   0  0  0  0  0  0  0  0  0  0  0  0
    5.0673    0.6746   -0.6570 O   0  0  0  0  0  0  0  0  0  0  0  0
   -4.4583   -1.6547    1.5462 O   0  0  0  0  0  0  0  0  0  0  0  0
   -3.9287   -1.6951   -0.6193 O   0  0  0  0  0  0  0  0  0  0  0  0
    2.8136    0.6825    2.0361 O   0  0  0  0  0  0  0  0  0  0  0  0
    5.0261    0.9224    1.8856 O   0  0  0  0  0  0  0  0  0  0  0  0
    1.1801    0.3084    0.5940 H   0  0  0  0  0  0  0  0  0  0  0  0
    0.4944   -0.0509   -2.4047 H   0  0  0  0  0  0  0  0  0  0  0  0
    2.8744    0.2742   -2.0000 H   0  0  0  0  0  0  0  0  0  0  0  0
   -1.1498   -1.0056    1.0019 H   0  0  0  0  0  0  0  0  0  0  0  0
   -0.9595    0.7306    0.9977 H   0  0  0  0  0  0  0  0  0  0  0  0
   -3.3969    0.8742    0.0717 H   0  0  0  0  0  0  0  0  0  0  0  0
   -3.1663    0.4590    1.7768 H   0  0  0  0  0  0  0  0  0  0  0  0
    5.0631    0.5725   -1.6231 H   0  0  0  0  0  0  0  0  0  0  0  0
   -3.3596   -1.1699   -1.2305 H   0  0  0  0  0  0  0  0  0  0  0  0
    5.6968    0.9246    1.1771 H   0  0  0  0  0  0  0  0  0  0  0  0
  1 16  1  0  0  0  0
  2  6  1  0  0  0  0
  2  1  2  0  0  0  0
  3  1  1  0  0  0  0
  3  7  2  0  0  0  0
  4  5  1  0  0  0  0
  4 20  1  0  0  0  0
  4 19  1  0  0  0  0
  5 22  1  0  0  0  0
  6  4  1  0  0  0  0
  7  9  1  0  0  0  0
  8  5  1  0  0  0  0
  8 12  2  0  0  0  0
  9 15  1  0  0  0  0
  9 14  2  0  0  0  0
 10  6  2  0  0  0  0
 11  7  1  0  0  0  0
 13  8  1  0  0  0  0
 17  2  1  0  0  0  0
 18  3  1  0  0  0  0
 21  5  1  0  0  0  0
 23 11  1  0  0  0  0
 24 13  1  0  0  0  0
 25 15  1  0  0  0  0
M  END
>  <HBA>
6

>  <HBD>
3

>  <TPSA>
111.9

>  <cid>
42

>  <dipole>
10.85

>  <excitation_energy_1>
3.227

>  <excitation_energy_2>
3.499

>  <excitation_energy_3>
4.088

>  <excitation_energy_4>
4.106

>  <homo_energy>
-6.705

>  <homo_lumo_gap>
3.646

>  <logP>
0.503

>  <lumo_energy>
-3.059

>  <melting_point>
181.44

>  <molecular_refractivity>
49.74

>  <oscillator_strength_1>
0.0063

>  <oscillator_strength_2>
0.0032

>  <oscillator_strength_3>
0.7239

>  <oscillator_strength_4>
0.0027

>  <open_babel_can_smiles>
O=C(CCC(=O)O)/C=C/C=C(\C(=O)O)/O

>  <mulliken_charges>
25
1   -0.097364
2   -0.192403
3   -0.203686
4   -0.382734
5   -0.376541
6   0.457317
7   0.290185
8   0.575453
9   0.607286
10   -0.502598
11   -0.65687
12   -0.452154
13   -0.588651
14   -0.452683
15   -0.570093
16   0.208749
17   0.151786
18   0.139572
19   0.199133
20   0.181405
21   0.171816
22   0.179229
23   0.431277
24   0.44123
25   0.441341

>  <lowdin_charges>
25
1   -0.108123
2   -0.189679
3   -0.181688
4   -0.310002
5   -0.315508
6   0.171625
7   0.064209
8   0.187356
9   0.193655
10   -0.263483
11   -0.371934
12   -0.259238
13   -0.37262
14   -0.234019
15   -0.333002
16   0.190947
17   0.167865
18   0.161593
19   0.182011
20   0.17485
21   0.167794
22   0.175038
23   0.371665
24   0.358991
25   0.371695

$$$$

