PCCDB-ID:  331
public computational chemistry database (PCCDB) project, http://pccdb.org

 24 23  0  0  1  0  0  0  0  0999 V2000
    2.5751    1.2181    1.0741 C   0  0  0  0  0  0  0  0  0  0  0  0
    3.1429   -0.2034   -0.9761 C   0  0  0  0  0  0  0  0  0  0  0  0
    1.8538   -2.2667   -1.7587 C   0  0  0  0  0  0  0  0  0  0  0  0
    3.6854    0.6960    0.1591 C   0  0  1  0  0  0  0  0  0  0  0  0
    2.4339   -1.4952   -0.5353 C   0  0  1  0  0  0  0  0  0  0  0  0
    0.7121   -1.4984   -2.4111 C   0  0  0  0  0  0  0  0  0  0  0  0
    4.4579    1.8451   -0.3420 N   0  0  0  0  0  0  0  0  0  0  0  0
    3.3416   -2.2999    0.2836 N   0  0  0  0  0  0  0  0  0  0  0  0
   -0.3422   -1.2987   -1.8609 O   0  0  0  0  0  0  0  0  0  0  0  0
    0.9392   -0.9831   -3.6523 O   0  0  0  0  0  0  0  0  0  0  0  0
    2.0518    0.4007    1.5797 H   0  0  0  0  0  0  0  0  0  0  0  0
    1.8318    1.7931    0.5048 H   0  0  0  0  0  0  0  0  0  0  0  0
    3.0029    1.8778    1.8346 H   0  0  0  0  0  0  0  0  0  0  0  0
    3.9879   -0.4797   -1.6301 H   0  0  0  0  0  0  0  0  0  0  0  0
    2.4562    0.3907   -1.5970 H   0  0  0  0  0  0  0  0  0  0  0  0
    1.4367   -3.2168   -1.4069 H   0  0  0  0  0  0  0  0  0  0  0  0
    2.6614   -2.5021   -2.4665 H   0  0  0  0  0  0  0  0  0  0  0  0
    4.3714    0.0936    0.7647 H   0  0  0  0  0  0  0  0  0  0  0  0
    1.5760   -1.2355    0.0945 H   0  0  0  0  0  0  0  0  0  0  0  0
    3.8641    2.4168   -0.9449 H   0  0  0  0  0  0  0  0  0  0  0  0
    5.2216    1.5172   -0.9335 H   0  0  0  0  0  0  0  0  0  0  0  0
    4.1316   -2.6225   -0.2755 H   0  0  0  0  0  0  0  0  0  0  0  0
    2.8681   -3.1335    0.6282 H   0  0  0  0  0  0  0  0  0  0  0  0
    1.8254   -1.2337   -3.9581 H   0  0  0  0  0  0  0  0  0  0  0  0
  1 11  1  0  0  0  0
  1 13  1  0  0  0  0
  2  5  1  0  0  0  0
  2  4  1  0  0  0  0
  3 16  1  0  0  0  0
  3  5  1  0  0  0  0
  4 18  1  1  0  0  0
  4  1  1  0  0  0  0
  5 19  1  1  0  0  0
  5  8  1  0  0  0  0
  6  9  2  0  0  0  0
  6  3  1  0  0  0  0
  7  4  1  0  0  0  0
  8 23  1  0  0  0  0
 10  6  1  0  0  0  0
 12  1  1  0  0  0  0
 14  2  1  0  0  0  0
 15  2  1  0  0  0  0
 17  3  1  0  0  0  0
 20  7  1  0  0  0  0
 21  7  1  0  0  0  0
 22  8  1  0  0  0  0
 24 10  1  0  0  0  0
M  END
>  <HBA>
4

>  <HBD>
3

>  <TPSA>
89.34

>  <cid>
331

>  <dipole>
4.76

>  <excitation_energy_1>
5.262

>  <excitation_energy_2>
5.457

>  <excitation_energy_3>
5.587

>  <excitation_energy_4>
5.725

>  <homo_energy>
-6.215

>  <homo_lumo_gap>
6.299

>  <logP>
0.926

>  <lumo_energy>
0.084

>  <melting_point>
159.09

>  <molecular_refractivity>
38.14

>  <oscillator_strength_1>
0.0156

>  <oscillator_strength_2>
0.0274

>  <oscillator_strength_3>
0.0138

>  <oscillator_strength_4>
0.0106

>  <open_babel_can_smiles>
C[C@@H](C[C@@H](CC(=O)O)N)N

>  <mulliken_charges>
24
1   -0.447183
2   -0.280348
3   -0.373145
4   0.034855
5   0.015804
6   0.590557
7   -0.706056
8   -0.705916
9   -0.441908
10   -0.563649
11   0.152675
12   0.134749
13   0.161332
14   0.102373
15   0.137088
16   0.171905
17   0.118628
18   0.155105
19   0.170366
20   0.285991
21   0.286947
22   0.291223
23   0.302362
24   0.406244

>  <lowdin_charges>
24
1   -0.451803
2   -0.305174
3   -0.334459
4   -0.066227
5   -0.065933
6   0.193989
7   -0.551519
8   -0.541221
9   -0.243373
10   -0.358534
11   0.155636
12   0.145308
13   0.162174
14   0.128304
15   0.146334
16   0.171217
17   0.1385
18   0.152111
19   0.158454
20   0.249725
21   0.249511
22   0.252823
23   0.258635
24   0.355523

$$$$

