PCCDB-ID:  3767
public computational chemistry database (PCCDB) project, http://pccdb.org

 17 17  0  0  0  0  0  0  0  0999 V2000
   -1.0159    0.6198    0.0113 C   0  0  0  0  0  0  0  0  0  0  0  0
    0.9784   -0.7103    0.0391 C   0  0  0  0  0  0  0  0  0  0  0  0
   -1.7418   -0.5679    0.0782 C   0  0  0  0  0  0  0  0  0  0  0  0
    0.1568   -1.8365    0.1104 C   0  0  0  0  0  0  0  0  0  0  0  0
    0.3799    0.5530   -0.0217 C   0  0  0  0  0  0  0  0  0  0  0  0
    1.1497    1.8421   -0.0966 C   0  0  0  0  0  0  0  0  0  0  0  0
    3.1854    2.9139   -0.8318 N   0  0  0  0  0  0  0  0  0  0  0  0
   -1.1800   -1.7839    0.1236 N   0  0  0  0  0  0  0  0  0  0  0  0
    2.4349    1.7455   -0.5709 N   0  0  0  0  0  0  0  0  0  0  0  0
    0.6644    2.9165    0.2411 O   0  0  0  0  0  0  0  0  0  0  0  0
   -1.5075    1.5862   -0.0133 H   0  0  0  0  0  0  0  0  0  0  0  0
    2.0577   -0.8280    0.0650 H   0  0  0  0  0  0  0  0  0  0  0  0
   -2.8299   -0.5444    0.0963 H   0  0  0  0  0  0  0  0  0  0  0  0
    0.5975   -2.8306    0.1636 H   0  0  0  0  0  0  0  0  0  0  0  0
    3.5916    3.2124    0.0559 H   0  0  0  0  0  0  0  0  0  0  0  0
    2.5105    3.6435   -1.0742 H   0  0  0  0  0  0  0  0  0  0  0  0
    2.6881    0.9634   -1.1595 H   0  0  0  0  0  0  0  0  0  0  0  0
  1  3  1  0  0  0  0
  2 12  1  0  0  0  0
  2  4  2  0  0  0  0
  3 13  1  0  0  0  0
  3  8  2  0  0  0  0
  4  8  1  0  0  0  0
  4 14  1  0  0  0  0
  5  1  2  0  0  0  0
  5  2  1  0  0  0  0
  6  5  1  0  0  0  0
  6 10  2  0  0  0  0
  7  9  1  0  0  0  0
  7 15  1  0  0  0  0
  9  6  1  0  0  0  0
 11  1  1  0  0  0  0
 16  7  1  0  0  0  0
 17  9  1  0  0  0  0
M  END
>  <HBA>
4

>  <HBD>
2

>  <TPSA>
68.01

>  <cid>
3767

>  <dipole>
1.87

>  <excitation_energy_1>
4.289

>  <excitation_energy_2>
4.604

>  <excitation_energy_3>
4.908

>  <excitation_energy_4>
5.05

>  <homo_energy>
-7.129

>  <homo_lumo_gap>
5.494

>  <logP>
0.776

>  <lumo_energy>
-1.635

>  <melting_point>
135.81

>  <molecular_refractivity>
35.13

>  <oscillator_strength_1>
0.0028

>  <oscillator_strength_2>
0.0022

>  <oscillator_strength_3>
0.0117

>  <oscillator_strength_4>
0.0721

>  <open_babel_can_smiles>
NNC(=O)c1ccncc1

>  <mulliken_charges>
17
1   -0.163071
2   -0.191053
3   0.035857
4   0.038735
5   0.089924
6   0.545261
7   -0.561209
8   -0.398781
9   -0.503127
10   -0.507853
11   0.170332
12   0.144043
13   0.150669
14   0.148391
15   0.329326
16   0.329045
17   0.343512

>  <lowdin_charges>
17
1   -0.151378
2   -0.177026
3   -0.082353
4   -0.086636
5   -0.017881
6   0.150105
7   -0.455926
8   -0.138467
9   -0.232703
10   -0.29951
11   0.182563
12   0.163975
13   0.159305
14   0.160227
15   0.268262
16   0.26876
17   0.288682

$$$$

