PCCDB-ID:  5126
public computational chemistry database (PCCDB) project, http://pccdb.org

 14 13  0  0  1  0  0  0  0  0999 V2000
    1.0194   -0.0344   -0.1155 C   0  0  0  0  0  0  0  0  0  0  0  0
    3.0439   -1.4816    0.3249 C   0  0  0  0  0  0  0  0  0  0  0  0
    2.5476   -0.0839   -0.0861 C   0  0  1  0  0  0  0  0  0  0  0  0
    3.0764    0.3830   -1.3754 N   0  0  0  0  0  0  0  0  0  0  0  0
    4.4636   -1.5806    0.3590 O   0  0  0  0  0  0  0  0  0  0  0  0
    0.5945   -0.3053    0.8579 H   0  0  0  0  0  0  0  0  0  0  0  0
    0.6172   -0.7342   -0.8607 H   0  0  0  0  0  0  0  0  0  0  0  0
    0.6778    0.9704   -0.3798 H   0  0  0  0  0  0  0  0  0  0  0  0
    2.6115   -2.2389   -0.3535 H   0  0  0  0  0  0  0  0  0  0  0  0
    2.7064   -1.7191    1.3396 H   0  0  0  0  0  0  0  0  0  0  0  0
    2.9134    0.6257    0.6680 H   0  0  0  0  0  0  0  0  0  0  0  0
    2.8264   -0.2684   -2.1208 H   0  0  0  0  0  0  0  0  0  0  0  0
    4.0932    0.4350   -1.3431 H   0  0  0  0  0  0  0  0  0  0  0  0
    4.7752   -1.5100   -0.5565 H   0  0  0  0  0  0  0  0  0  0  0  0
  1  3  1  0  0  0  0
  1  6  1  0  0  0  0
  2  5  1  0  0  0  0
  2 10  1  0  0  0  0
  3  2  1  0  0  0  0
  3 11  1  1  0  0  0
  4 13  1  0  0  0  0
  4  3  1  0  0  0  0
  7  1  1  0  0  0  0
  8  1  1  0  0  0  0
  9  2  1  0  0  0  0
 12  4  1  0  0  0  0
 14  5  1  0  0  0  0
M  END
>  <HBA>
2

>  <HBD>
2

>  <TPSA>
46.25

>  <cid>
5126

>  <dipole>
1.45

>  <excitation_energy_1>
5.538

>  <excitation_energy_2>
6.459

>  <excitation_energy_3>
6.61

>  <excitation_energy_4>
6.652

>  <homo_energy>
-6.387

>  <homo_lumo_gap>
7.856

>  <logP>
0.026

>  <lumo_energy>
1.469

>  <melting_point>
48.3

>  <molecular_refractivity>
20.4

>  <oscillator_strength_1>
0.0306

>  <oscillator_strength_2>
0.0173

>  <oscillator_strength_3>
0.0204

>  <oscillator_strength_4>
0.018

>  <open_babel_can_smiles>
C[C@@H](CO)N

>  <mulliken_charges>
14
1   -0.443827
2   -0.036585
3   0.013732
4   -0.712714
5   -0.611485
6   0.144302
7   0.134307
8   0.16521
9   0.107361
10   0.143844
11   0.142936
12   0.286202
13   0.291709
14   0.375008

>  <lowdin_charges>
14
1   -0.448521
2   -0.15591
3   -0.082276
4   -0.549757
5   -0.467286
6   0.151735
7   0.14506
8   0.162296
9   0.121451
10   0.147825
11   0.146827
12   0.249679
13   0.248878
14   0.329999

$$$$

