PCCDB-ID:  2468
public computational chemistry database (PCCDB) project, http://pccdb.org

 26 25  0  0  0  0  0  0  0  0999 V2000
    2.7165    0.8754   -0.8286 C   0  0  0  0  0  0  0  0  0  0  0  0
    1.9343    0.8483    0.4910 C   0  0  0  0  0  0  0  0  0  0  0  0
    1.9950   -0.4933    1.2395 C   0  0  0  0  0  0  0  0  0  0  0  0
    3.3895   -0.8392    1.7927 C   0  0  0  0  0  0  0  0  0  0  0  0
    2.9465   -4.4861    4.1084 C   0  0  0  0  0  0  0  0  0  0  0  0
    3.4294   -3.3039    1.9155 C   0  0  0  0  0  0  0  0  0  0  0  0
    2.6580   -3.4346    4.7949 N   0  0  0  0  0  0  0  0  0  0  0  0
    2.9011   -5.8091    4.5656 N   0  0  0  0  0  0  0  0  0  0  0  0
    3.5666   -3.6077    0.6704 N   0  0  0  0  0  0  0  0  0  0  0  0
    3.4441   -2.0855    2.5372 N   0  0  0  0  0  0  0  0  0  0  0  0
    3.2994   -4.4209    2.7748 N   0  0  0  0  0  0  0  0  0  0  0  0
    2.5913    1.8366   -1.3400 H   0  0  0  0  0  0  0  0  0  0  0  0
    2.3669    0.0891   -1.5093 H   0  0  0  0  0  0  0  0  0  0  0  0
    3.7913    0.7268   -0.6741 H   0  0  0  0  0  0  0  0  0  0  0  0
    0.8822    1.0846    0.2849 H   0  0  0  0  0  0  0  0  0  0  0  0
    2.2996    1.6495    1.1501 H   0  0  0  0  0  0  0  0  0  0  0  0
    1.6622   -1.3042    0.5778 H   0  0  0  0  0  0  0  0  0  0  0  0
    1.2912   -0.4743    2.0821 H   0  0  0  0  0  0  0  0  0  0  0  0
    3.7238   -0.0436    2.4697 H   0  0  0  0  0  0  0  0  0  0  0  0
    4.1301   -0.8825    0.9852 H   0  0  0  0  0  0  0  0  0  0  0  0
    2.4904   -3.6596    5.7743 H   0  0  0  0  0  0  0  0  0  0  0  0
    2.8203   -5.8899    5.5714 H   0  0  0  0  0  0  0  0  0  0  0  0
    3.6308   -6.4135    4.2031 H   0  0  0  0  0  0  0  0  0  0  0  0
    3.6679   -2.7741    0.0940 H   0  0  0  0  0  0  0  0  0  0  0  0
    3.1065   -2.0982    3.5016 H   0  0  0  0  0  0  0  0  0  0  0  0
    3.2459   -5.2738    2.2339 H   0  0  0  0  0  0  0  0  0  0  0  0
  1 14  1  0  0  0  0
  1  2  1  0  0  0  0
  2 16  1  0  0  0  0
  2  3  1  0  0  0  0
  3  4  1  0  0  0  0
  3 18  1  0  0  0  0
  4 19  1  0  0  0  0
  4 10  1  0  0  0  0
  5  8  2  0  0  0  0
  5  7  1  0  0  0  0
  6 10  1  0  0  0  0
  6 11  1  0  0  0  0
  7 21  1  0  0  0  0
  8 22  1  0  0  0  0
  9  6  2  0  0  0  0
 10 25  1  0  0  0  0
 11  5  1  0  0  0  0
 12  1  1  0  0  0  0
 13  1  1  0  0  0  0
 15  2  1  0  0  0  0
 17  3  1  0  0  0  0
 20  4  1  0  0  0  0
 23  8  1  0  0  0  0
 24  9  1  0  0  0  0
 26 11  1  0  0  0  0
M  RAD  1   7   2
M  END
>  <HBA>
5

>  <HBD>
3

>  <TPSA>
102.78

>  <cid>
2468

>  <dipole>
2.97

>  <excitation_energy_1>
4.854

>  <excitation_energy_2>
5.432

>  <excitation_energy_3>
5.599

>  <excitation_energy_4>
5.69

>  <homo_energy>
-5.546

>  <homo_lumo_gap>
6.392

>  <logP>
1.476

>  <lumo_energy>
0.846

>  <melting_point>
171.91

>  <molecular_refractivity>
46.45

>  <oscillator_strength_1>
0.001

>  <oscillator_strength_2>
0.0078

>  <oscillator_strength_3>
0.0013

>  <oscillator_strength_4>
0.0809

>  <open_babel_can_smiles>
CCCCNC(=N)NC(=[NH2])[NH]

>  <mulliken_charges>
26
1   -0.447586
2   -0.253023
3   -0.253256
4   -0.148856
5   0.662534
6   0.653156
7   -0.689997
8   -0.756896
9   -0.690978
10   -0.617842
11   -0.663667
12   0.144671
13   0.145907
14   0.145377
15   0.136526
16   0.129485
17   0.145748
18   0.137112
19   0.144321
20   0.147796
21   0.277796
22   0.325632
23   0.329057
24   0.278369
25   0.374806
26   0.343808

>  <lowdin_charges>
26
1   -0.447404
2   -0.273548
3   -0.291681
4   -0.202237
5   0.148254
6   0.139459
7   -0.488515
8   -0.499894
9   -0.503742
10   -0.3042
11   -0.257837
12   0.151035
13   0.149161
14   0.144458
15   0.144001
16   0.13929
17   0.148108
18   0.146608
19   0.150562
20   0.144651
21   0.253469
22   0.277713
23   0.283173
24   0.251202
25   0.299399
26   0.298515

$$$$

