PCCDB-ID:  2519
public computational chemistry database (PCCDB) project, http://pccdb.org

 24 25  0  0  0  0  0  0  0  0999 V2000
    1.0163   -0.1814   -0.0569 C   0  0  0  0  0  0  0  0  0  0  0  0
    6.9896    1.0755   -0.1545 C   0  0  0  0  0  0  0  0  0  0  0  0
    3.7743    4.7364   -0.0945 C   0  0  0  0  0  0  0  0  0  0  0  0
    3.3592   -1.1221   -0.0971 C   0  0  0  0  0  0  0  0  0  0  0  0
    3.2356    1.0609   -0.0911 C   0  0  0  0  0  0  0  0  0  0  0  0
    4.5468    0.6259   -0.1152 C   0  0  0  0  0  0  0  0  0  0  0  0
    2.8517    2.4415   -0.0814 C   0  0  0  0  0  0  0  0  0  0  0  0
    5.3400    2.8845   -0.1276 C   0  0  0  0  0  0  0  0  0  0  0  0
    4.6301   -0.7313   -0.1191 N   0  0  0  0  0  0  0  0  0  0  0  0
    2.4710   -0.0973   -0.0791 N   0  0  0  0  0  0  0  0  0  0  0  0
    5.5956    1.5161   -0.1323 N   0  0  0  0  0  0  0  0  0  0  0  0
    3.9906    3.2864   -0.1013 N   0  0  0  0  0  0  0  0  0  0  0  0
    1.7029    2.8755   -0.0593 O   0  0  0  0  0  0  0  0  0  0  0  0
    6.2485    3.7025   -0.1449 O   0  0  0  0  0  0  0  0  0  0  0  0
    0.7337   -1.2362   -0.0578 H   0  0  0  0  0  0  0  0  0  0  0  0
    0.5956    0.3153   -0.9340 H   0  0  0  0  0  0  0  0  0  0  0  0
    0.6227    0.3065    0.8375 H   0  0  0  0  0  0  0  0  0  0  0  0
    6.9931   -0.0140   -0.1568 H   0  0  0  0  0  0  0  0  0  0  0  0
    7.5169    1.4538    0.7250 H   0  0  0  0  0  0  0  0  0  0  0  0
    7.4894    1.4579   -1.0481 H   0  0  0  0  0  0  0  0  0  0  0  0
    2.6991    4.9032   -0.0676 H   0  0  0  0  0  0  0  0  0  0  0  0
    4.2099    5.1831   -0.9915 H   0  0  0  0  0  0  0  0  0  0  0  0
    4.2547    5.1818    0.7799 H   0  0  0  0  0  0  0  0  0  0  0  0
    3.0344   -2.1543   -0.0943 H   0  0  0  0  0  0  0  0  0  0  0  0
  1 17  1  0  0  0  0
  2 11  1  0  0  0  0
  2 19  1  0  0  0  0
  3 21  1  0  0  0  0
  3 23  1  0  0  0  0
  4 24  1  0  0  0  0
  4 10  1  0  0  0  0
  5  7  1  0  0  0  0
  5 10  1  0  0  0  0
  6  5  2  0  0  0  0
  7 13  2  0  0  0  0
  8 12  1  0  0  0  0
  9  6  1  0  0  0  0
  9  4  2  0  0  0  0
 10  1  1  0  0  0  0
 11  8  1  0  0  0  0
 11  6  1  0  0  0  0
 12  3  1  0  0  0  0
 12  7  1  0  0  0  0
 14  8  2  0  0  0  0
 15  1  1  0  0  0  0
 16  1  1  0  0  0  0
 18  2  1  0  0  0  0
 20  2  1  0  0  0  0
 22  3  1  0  0  0  0
M  END
>  <HBA>
6

>  <HBD>
0

>  <TPSA>
61.82

>  <cid>
2519

>  <dipole>
3.83

>  <excitation_energy_1>
4.622

>  <excitation_energy_2>
4.96

>  <excitation_energy_3>
5.33

>  <excitation_energy_4>
5.608

>  <homo_energy>
-5.959

>  <homo_lumo_gap>
5.143

>  <logP>
-1.029

>  <lumo_energy>
-0.816

>  <melting_point>
143.54

>  <molecular_refractivity>
52.04

>  <oscillator_strength_1>
0.1368

>  <oscillator_strength_2>
0.0

>  <oscillator_strength_3>
0.0016

>  <oscillator_strength_4>
0.0157

>  <open_babel_can_smiles>
Cn1cnc2c1c(=O)n(C)c(=O)n2C

>  <mulliken_charges>
24
1   -0.315086
2   -0.321667
3   -0.314767
4   0.220041
5   0.218189
6   0.475147
7   0.632169
8   0.785225
9   -0.511426
10   -0.484322
11   -0.589481
12   -0.574413
13   -0.540063
14   -0.526678
15   0.166143
16   0.199056
17   0.198936
18   0.197655
19   0.181458
20   0.181697
21   0.197998
22   0.177258
23   0.177475
24   0.169455

>  <lowdin_charges>
24
1   -0.338481
2   -0.340755
3   -0.347996
4   -0.062235
5   -0.081989
6   0.063597
7   0.157445
8   0.193157
9   -0.20512
10   0.012373
11   -0.057696
12   -0.093102
13   -0.311889
14   -0.310138
15   0.163503
16   0.178493
17   0.178236
18   0.178413
19   0.168822
20   0.168891
21   0.179696
22   0.166618
23   0.166981
24   0.173176

$$$$

