PCCDB-ID:  490
public computational chemistry database (PCCDB) project, http://pccdb.org

 12 11  0  0  0  0  0  0  0  0999 V2000
    0.8600   -0.3601    0.0001 C   0  0  0  0  0  0  0  0  0  0  0  0
    0.2666    1.0143    0.2604 C   0  0  0  0  0  0  0  0  0  0  0  0
    1.6106   -0.5951   -0.9178 O   0  0  0  0  0  0  0  0  0  0  0  0
   -1.9205    2.5829    0.2000 O   0  0  0  0  0  0  0  0  0  0  0  0
   -1.9351    0.4943   -1.2720 O   0  0  0  0  0  0  0  0  0  0  0  0
   -2.2028    0.2022    1.2970 O   0  0  0  0  0  0  0  0  0  0  0  0
   -1.5599    0.9920    0.2252 P   0  0  0  0  0  0  0  0  0  0  0  0
    0.5598   -1.1472    0.7216 H   0  0  0  0  0  0  0  0  0  0  0  0
    0.6599    1.7229   -0.4747 H   0  0  0  0  0  0  0  0  0  0  0  0
    0.5485    1.3481    1.2676 H   0  0  0  0  0  0  0  0  0  0  0  0
   -2.6800    2.7545    0.7835 H   0  0  0  0  0  0  0  0  0  0  0  0
   -1.9706    1.2179   -1.9187 H   0  0  0  0  0  0  0  0  0  0  0  0
  1  2  1  0  0  0  0
  1  8  1  0  0  0  0
  2 10  1  0  0  0  0
  3  1  2  0  0  0  0
  4  7  1  0  0  0  0
  4 11  1  0  0  0  0
  5  7  1  0  0  0  0
  7  2  1  0  0  0  0
  7  6  2  0  0  0  0
  9  2  1  0  0  0  0
 12  5  1  0  0  0  0
M  END
>  <HBA>
4

>  <HBD>
2

>  <TPSA>
84.41

>  <cid>
490

>  <dipole>
3.77

>  <excitation_energy_1>
4.218

>  <excitation_energy_2>
6.15

>  <excitation_energy_3>
6.248

>  <excitation_energy_4>
6.504

>  <homo_energy>
-7.276

>  <homo_lumo_gap>
6.174

>  <logP>
-0.637

>  <lumo_energy>
-1.102

>  <melting_point>
94.15

>  <molecular_refractivity>
22.92

>  <oscillator_strength_1>
0.0007

>  <oscillator_strength_2>
0.0097

>  <oscillator_strength_3>
0.0265

>  <oscillator_strength_4>
0.0015

>  <open_babel_can_smiles>
O=CCP(=O)(O)O

>  <mulliken_charges>
12
1   0.253462
2   -0.555668
3   -0.366973
4   -0.672443
5   -0.637745
6   -0.532383
7   1.071778
8   0.143017
9   0.204838
10   0.208392
11   0.445924
12   0.437801

>  <lowdin_charges>
12
1   0.059938
2   -0.494548
3   -0.200782
4   -0.592834
5   -0.572105
6   -0.580792
7   1.073443
8   0.140584
9   0.193594
10   0.200009
11   0.388387
12   0.385105

$$$$

