PCCDB-ID:  2045
public computational chemistry database (PCCDB) project, http://pccdb.org

 26 26  0  0  0  0  0  0  0  0999 V2000
   -1.1114    0.9788   -1.5251 C   0  0  0  0  0  0  0  0  0  0  0  0
   -1.9995    1.7353    0.5972 C   0  0  0  0  0  0  0  0  0  0  0  0
   -2.0561   -0.0337   -1.5731 C   0  0  0  0  0  0  0  0  0  0  0  0
   -2.9434    0.7256    0.5584 C   0  0  0  0  0  0  0  0  0  0  0  0
   -0.0289    2.9075   -0.5218 C   0  0  0  0  0  0  0  0  0  0  0  0
   -0.3812    4.1907    1.5456 C   0  0  0  0  0  0  0  0  0  0  0  0
    2.9984    6.0682   -1.3658 C   0  0  0  0  0  0  0  0  0  0  0  0
    1.2914    4.7434   -2.4755 C   0  0  0  0  0  0  0  0  0  0  0  0
   -1.0534    1.8914   -0.4461 C   0  0  0  0  0  0  0  0  0  0  0  0
    0.2866    3.9561    0.3021 C   0  0  0  0  0  0  0  0  0  0  0  0
    1.8779    5.1952   -1.2637 C   0  0  0  0  0  0  0  0  0  0  0  0
   -2.9796   -0.1660   -0.5269 C   0  0  0  0  0  0  0  0  0  0  0  0
    1.3964    4.8962    0.0160 C   0  0  0  0  0  0  0  0  0  0  0  0
   -0.8596    4.4191    2.5836 N   0  0  0  0  0  0  0  0  0  0  0  0
    3.9134    6.7918   -1.3620 N   0  0  0  0  0  0  0  0  0  0  0  0
    0.8330    4.3758   -3.4831 N   0  0  0  0  0  0  0  0  0  0  0  0
    1.9533    5.4960    1.0900 N   0  0  0  0  0  0  0  0  0  0  0  0
   -3.9307   -1.1306   -0.5029 O   0  0  0  0  0  0  0  0  0  0  0  0
   -0.4041    1.0825   -2.3434 H   0  0  0  0  0  0  0  0  0  0  0  0
   -1.9968    2.4070    1.4462 H   0  0  0  0  0  0  0  0  0  0  0  0
   -2.0829   -0.7189   -2.4174 H   0  0  0  0  0  0  0  0  0  0  0  0
   -3.6675    0.6047    1.3572 H   0  0  0  0  0  0  0  0  0  0  0  0
    0.5981    2.8114   -1.4006 H   0  0  0  0  0  0  0  0  0  0  0  0
    1.6170    5.3105    2.0238 H   0  0  0  0  0  0  0  0  0  0  0  0
    2.6579    6.2117    0.9683 H   0  0  0  0  0  0  0  0  0  0  0  0
   -3.8623   -1.6784   -1.3015 H   0  0  0  0  0  0  0  0  0  0  0  0
  1  9  1  0  0  0  0
  2 20  1  0  0  0  0
  3  1  2  0  0  0  0
  3 12  1  0  0  0  0
  4  2  1  0  0  0  0
  4 22  1  0  0  0  0
  5  9  1  0  0  0  0
  5 10  2  0  0  0  0
  6 14  3  0  0  0  0
  7 15  3  0  0  0  0
  7 11  1  0  0  0  0
  8 11  1  0  0  0  0
  9  2  2  0  0  0  0
 10  6  1  0  0  0  0
 11 13  2  0  0  0  0
 12 18  1  0  0  0  0
 12  4  2  0  0  0  0
 13 10  1  0  0  0  0
 13 17  1  0  0  0  0
 16  8  3  0  0  0  0
 17 24  1  0  0  0  0
 19  1  1  0  0  0  0
 21  3  1  0  0  0  0
 23  5  1  0  0  0  0
 25 17  1  0  0  0  0
 26 18  1  0  0  0  0
M  END
>  <HBA>
5

>  <HBD>
2

>  <TPSA>
117.62

>  <cid>
2045

>  <dipole>
6.77

>  <excitation_energy_1>
3.091

>  <excitation_energy_2>
3.748

>  <excitation_energy_3>
4.19

>  <excitation_energy_4>
4.735

>  <homo_energy>
-6.338

>  <homo_lumo_gap>
3.459

>  <logP>
2.259

>  <lumo_energy>
-2.879

>  <melting_point>
240.5

>  <molecular_refractivity>
64.07

>  <oscillator_strength_1>
0.2733

>  <oscillator_strength_2>
0.4904

>  <oscillator_strength_3>
0.005

>  <oscillator_strength_4>
0.0657

>  <open_babel_can_smiles>
N#C/C(=C\c1ccc(cc1)O)/C(=C(C#N)C#N)N

>  <mulliken_charges>
26
1   -0.182779
2   -0.183318
3   -0.195253
4   -0.161948
5   -0.199214
6   0.265186
7   0.27447
8   0.255682
9   0.163856
10   0.086963
11   0.025447
12   0.367517
13   0.415764
14   -0.514128
15   -0.492167
16   -0.506321
17   -0.81429
18   -0.618777
19   0.170071
20   0.181821
21   0.142091
22   0.163611
23   0.190263
24   0.370969
25   0.37502
26   0.419462

>  <lowdin_charges>
26
1   -0.11693
2   -0.127049
3   -0.210546
4   -0.175705
5   -0.069921
6   -0.015576
7   -0.010144
8   -0.013115
9   -0.0354
10   -0.076036
11   -0.141315
12   0.128293
13   0.136441
14   -0.124597
15   -0.134959
16   -0.141273
17   -0.410553
18   -0.347691
19   0.176434
20   0.186307
21   0.165251
22   0.179415
23   0.193706
24   0.307847
25   0.310754
26   0.36636

$$$$

