PCCDB-ID:  2946
public computational chemistry database (PCCDB) project, http://pccdb.org

 28 30  0  0  0  0  0  0  0  0999 V2000
    0.9113    0.4299    0.2315 C   0  0  0  0  0  0  0  0  0  0  0  0
    7.9799    2.4083   -0.2649 C   0  0  0  0  0  0  0  0  0  0  0  0
    4.3765   -1.1824    0.3435 C   0  0  0  0  0  0  0  0  0  0  0  0
    2.9548   -0.9337   -0.2010 C   0  0  0  0  0  0  0  0  0  0  0  0
    2.6265    2.7858    0.0358 C   0  0  0  0  0  0  0  0  0  0  0  0
    6.5528    0.3478    0.0229 C   0  0  0  0  0  0  0  0  0  0  0  0
    5.1965    0.0542    0.1212 C   0  0  0  0  0  0  0  0  0  0  0  0
    3.0984    1.4972    0.0978 C   0  0  0  0  0  0  0  0  0  0  0  0
    3.5253    3.9274   -0.1098 C   0  0  0  0  0  0  0  0  0  0  0  0
    4.5316    1.2852    0.0222 C   0  0  0  0  0  0  0  0  0  0  0  0
    5.4646    2.2977   -0.1235 C   0  0  0  0  0  0  0  0  0  0  0  0
    5.0835    3.6940   -0.1997 C   0  0  0  0  0  0  0  0  0  0  0  0
    2.3628    0.3434    0.2513 N   0  0  0  0  0  0  0  0  0  0  0  0
    6.7104    1.7043   -0.1263 N   0  0  0  0  0  0  0  0  0  0  0  0
    3.1267    5.0830   -0.1875 O   0  0  0  0  0  0  0  0  0  0  0  0
    5.8575    4.6340   -0.3123 O   0  0  0  0  0  0  0  0  0  0  0  0
    0.4893   -0.5241    0.5577 H   0  0  0  0  0  0  0  0  0  0  0  0
    0.5161    0.6675   -0.7685 H   0  0  0  0  0  0  0  0  0  0  0  0
    0.5794    1.2065    0.9260 H   0  0  0  0  0  0  0  0  0  0  0  0
    8.7876    1.6735   -0.2565 H   0  0  0  0  0  0  0  0  0  0  0  0
    8.1145    3.1137    0.5586 H   0  0  0  0  0  0  0  0  0  0  0  0
    8.0019    2.9697   -1.2017 H   0  0  0  0  0  0  0  0  0  0  0  0
    4.7919   -2.0669   -0.1537 H   0  0  0  0  0  0  0  0  0  0  0  0
    4.3178   -1.4172    1.4158 H   0  0  0  0  0  0  0  0  0  0  0  0
    2.2890   -1.7336    0.1345 H   0  0  0  0  0  0  0  0  0  0  0  0
    2.9776   -0.9642   -1.3026 H   0  0  0  0  0  0  0  0  0  0  0  0
    1.5705    3.0271    0.0642 H   0  0  0  0  0  0  0  0  0  0  0  0
    7.4186   -0.3002    0.0447 H   0  0  0  0  0  0  0  0  0  0  0  0
  1 13  1  0  0  0  0
  1 17  1  0  0  0  0
  1 19  1  0  0  0  0
  2 20  1  0  0  0  0
  2 14  1  0  0  0  0
  2 21  1  0  0  0  0
  3 24  1  0  0  0  0
  4 25  1  0  0  0  0
  4 13  1  0  0  0  0
  4  3  1  0  0  0  0
  5 27  1  0  0  0  0
  5  8  2  0  0  0  0
  6 28  1  0  0  0  0
  6  7  2  0  0  0  0
  7  3  1  0  0  0  0
  8 13  1  0  0  0  0
  9  5  1  0  0  0  0
 10  8  1  0  0  0  0
 10  7  1  0  0  0  0
 11 10  2  0  0  0  0
 12 11  1  0  0  0  0
 12  9  1  0  0  0  0
 14 11  1  0  0  0  0
 14  6  1  0  0  0  0
 15  9  2  0  0  0  0
 16 12  2  0  0  0  0
 18  1  1  0  0  0  0
 22  2  1  0  0  0  0
 23  3  1  0  0  0  0
 26  4  1  0  0  0  0
M  END
>  <HBA>
4

>  <HBD>
0

>  <TPSA>
42.31

>  <cid>
2946

>  <dipole>
8.56

>  <excitation_energy_1>
2.351

>  <excitation_energy_2>
2.656

>  <excitation_energy_3>
3.558

>  <excitation_energy_4>
3.718

>  <homo_energy>
-5.551

>  <homo_lumo_gap>
3.333

>  <logP>
0.557

>  <lumo_energy>
-2.218

>  <melting_point>
131.11

>  <molecular_refractivity>
63.34

>  <oscillator_strength_1>
0.0001

>  <oscillator_strength_2>
0.0146

>  <oscillator_strength_3>
0.0023

>  <oscillator_strength_4>
0.0921

>  <open_babel_can_smiles>
CN1CCc2c3C1=CC(=O)C(=O)c3n(c2)C

>  <mulliken_charges>
28
1   -0.313607
2   -0.311568
3   -0.348763
4   -0.14444
5   -0.334179
6   -0.024027
7   0.078719
8   0.426432
9   0.394175
10   -0.026627
11   0.23077
12   0.357126
13   -0.5064
14   -0.49003
15   -0.479212
16   -0.480243
17   0.159922
18   0.161509
19   0.181382
20   0.160424
21   0.197162
22   0.196693
23   0.154052
24   0.166243
25   0.151561
26   0.154791
27   0.130618
28   0.157514

>  <lowdin_charges>
28
1   -0.350871
2   -0.342968
3   -0.270149
4   -0.184526
5   -0.289579
6   -0.137853
7   -0.053918
8   0.079493
9   0.114792
10   -0.048101
11   -0.041117
12   0.116389
13   -0.096754
14   0.025621
15   -0.234213
16   -0.227267
17   0.15869
18   0.148772
19   0.169006
20   0.162147
21   0.177313
22   0.176724
23   0.160175
24   0.157767
25   0.15553
26   0.139981
27   0.16595
28   0.168967

$$$$

