PCCDB-ID:  2906
public computational chemistry database (PCCDB) project, http://pccdb.org

 17 17  0  0  0  0  0  0  0  0999 V2000
   -0.7458   -1.0640    0.3024 C   0  0  0  0  0  0  0  0  0  0  0  0
    0.6980   -1.0940   -0.2279 C   0  0  0  0  0  0  0  0  0  0  0  0
   -1.2518    0.3568   -0.0456 C   0  0  0  0  0  0  0  0  0  0  0  0
    1.2065    0.3151    0.1138 C   0  0  0  0  0  0  0  0  0  0  0  0
    0.0126    1.2535   -0.2253 C   0  0  0  0  0  0  0  0  0  0  0  0
    0.0214    1.8289   -1.5803 N   0  0  0  0  0  0  0  0  0  0  0  0
   -0.7340   -1.2072    1.3909 H   0  0  0  0  0  0  0  0  0  0  0  0
   -1.3780   -1.8538   -0.1180 H   0  0  0  0  0  0  0  0  0  0  0  0
    0.6975   -1.2439   -1.3172 H   0  0  0  0  0  0  0  0  0  0  0  0
    1.3049   -1.8956    0.2071 H   0  0  0  0  0  0  0  0  0  0  0  0
   -1.9274    0.7523    0.7196 H   0  0  0  0  0  0  0  0  0  0  0  0
   -1.8150    0.3583   -0.9860 H   0  0  0  0  0  0  0  0  0  0  0  0
    2.1203    0.6013   -0.4208 H   0  0  0  0  0  0  0  0  0  0  0  0
    1.4290    0.3674    1.1890 H   0  0  0  0  0  0  0  0  0  0  0  0
   -0.0082    2.1046    0.4647 H   0  0  0  0  0  0  0  0  0  0  0  0
    0.0811    1.0776   -2.2690 H   0  0  0  0  0  0  0  0  0  0  0  0
    0.8646    2.3893   -1.7069 H   0  0  0  0  0  0  0  0  0  0  0  0
  1  7  1  0  0  0  0
  2  4  1  0  0  0  0
  2 10  1  0  0  0  0
  2  1  1  0  0  0  0
  3  1  1  0  0  0  0
  3 11  1  0  0  0  0
  4 14  1  0  0  0  0
  5  3  1  0  0  0  0
  5  4  1  0  0  0  0
  5 15  1  0  0  0  0
  6  5  1  0  0  0  0
  8  1  1  0  0  0  0
  9  2  1  0  0  0  0
 12  3  1  0  0  0  0
 13  4  1  0  0  0  0
 16  6  1  0  0  0  0
 17  6  1  0  0  0  0
M  END
>  <HBA>
1

>  <HBD>
1

>  <TPSA>
26.02

>  <cid>
2906

>  <dipole>
1.33

>  <excitation_energy_1>
5.649

>  <excitation_energy_2>
6.183

>  <excitation_energy_3>
6.354

>  <excitation_energy_4>
6.685

>  <homo_energy>
-6.139

>  <homo_lumo_gap>
8.18

>  <logP>
1.588

>  <lumo_energy>
2.041

>  <melting_point>
50.93

>  <molecular_refractivity>
26.74

>  <oscillator_strength_1>
0.0306

>  <oscillator_strength_2>
0.0109

>  <oscillator_strength_3>
0.0022

>  <oscillator_strength_4>
0.0011

>  <open_babel_can_smiles>
NC1CCCC1

>  <mulliken_charges>
17
1   -0.268553
2   -0.269676
3   -0.276968
4   -0.272644
5   0.02923
6   -0.713594
7   0.133493
8   0.134064
9   0.1246
10   0.135157
11   0.139539
12   0.147579
13   0.122822
14   0.128877
15   0.129232
16   0.287136
17   0.289706

>  <lowdin_charges>
17
1   -0.283281
2   -0.2828
3   -0.29052
4   -0.30123
5   -0.071337
6   -0.552027
7   0.138346
8   0.145948
9   0.132379
10   0.146573
11   0.150499
12   0.151287
13   0.139493
14   0.139378
15   0.140047
16   0.24765
17   0.249596

$$$$

