PCCDB-ID:  611
public computational chemistry database (PCCDB) project, http://pccdb.org

 19 18  0  0  1  0  0  0  0  0999 V2000
    1.1019    0.2674   -0.1687 C   0  0  0  0  0  0  0  0  0  0  0  0
    0.6555    0.6667   -1.5930 C   0  0  0  0  0  0  0  0  0  0  0  0
    2.6357    0.2622    0.0564 C   0  0  1  0  0  0  0  0  0  0  0  0
    1.2444    1.9906   -2.0883 C   0  0  0  0  0  0  0  0  0  0  0  0
    2.9693   -0.4456    1.3793 C   0  0  0  0  0  0  0  0  0  0  0  0
    3.3271   -0.3452   -1.0845 N   0  0  0  0  0  0  0  0  0  0  0  0
    0.6086    3.0172   -2.1455 O   0  0  0  0  0  0  0  0  0  0  0  0
    2.5417    1.9398   -2.4517 O   0  0  0  0  0  0  0  0  0  0  0  0
    3.5473   -1.5023    1.4345 O   0  0  0  0  0  0  0  0  0  0  0  0
    2.5532    0.1747    2.5105 O   0  0  0  0  0  0  0  0  0  0  0  0
    0.7053   -0.7330    0.0472 H   0  0  0  0  0  0  0  0  0  0  0  0
    0.6381    0.9478    0.5555 H   0  0  0  0  0  0  0  0  0  0  0  0
   -0.4320    0.7706   -1.6024 H   0  0  0  0  0  0  0  0  0  0  0  0
    0.9226   -0.1299   -2.2965 H   0  0  0  0  0  0  0  0  0  0  0  0
    2.9837    1.3020    0.1210 H   0  0  0  0  0  0  0  0  0  0  0  0
    3.0440   -1.3226   -1.1662 H   0  0  0  0  0  0  0  0  0  0  0  0
    4.3277   -0.3794   -0.8897 H   0  0  0  0  0  0  0  0  0  0  0  0
    2.9049    1.0355   -2.2514 H   0  0  0  0  0  0  0  0  0  0  0  0
    2.1347    1.0270    2.3016 H   0  0  0  0  0  0  0  0  0  0  0  0
  1 11  1  0  0  0  0
  1  3  1  0  0  0  0
  1 12  1  0  0  0  0
  2  1  1  0  0  0  0
  3 15  1  1  0  0  0
  3  5  1  0  0  0  0
  4  2  1  0  0  0  0
  5  9  2  0  0  0  0
  5 10  1  0  0  0  0
  6 17  1  0  0  0  0
  6  3  1  0  0  0  0
  7  4  2  0  0  0  0
  8 18  1  0  0  0  0
  8  4  1  0  0  0  0
 13  2  1  0  0  0  0
 14  2  1  0  0  0  0
 16  6  1  0  0  0  0
 19 10  1  0  0  0  0
M  END
>  <HBA>
5

>  <HBD>
3

>  <TPSA>
100.62

>  <cid>
611

>  <dipole>
2.41

>  <excitation_energy_1>
5.455

>  <excitation_energy_2>
5.687

>  <excitation_energy_3>
6.137

>  <excitation_energy_4>
6.185

>  <homo_energy>
-7.075

>  <homo_lumo_gap>
6.648

>  <logP>
-0.037

>  <lumo_energy>
-0.427

>  <melting_point>
182.67

>  <molecular_refractivity>
32.4

>  <oscillator_strength_1>
0.0021

>  <oscillator_strength_2>
0.0012

>  <oscillator_strength_3>
0.0005

>  <oscillator_strength_4>
0.0038

>  <open_babel_can_smiles>
OC(=O)CC[C@@H](C(=O)O)N

>  <mulliken_charges>
19
1   -0.286283
2   -0.363979
3   -0.116637
4   0.578081
5   0.596326
6   -0.745779
7   -0.451929
8   -0.595205
9   -0.439973
10   -0.558032
11   0.168532
12   0.156432
13   0.181638
14   0.164466
15   0.180089
16   0.3309
17   0.337052
18   0.445382
19   0.41892

>  <lowdin_charges>
19
1   -0.277103
2   -0.315109
3   -0.121273
4   0.185627
5   0.174537
6   -0.513364
7   -0.255912
8   -0.378971
9   -0.237128
10   -0.341802
11   0.159661
12   0.155955
13   0.174372
14   0.162845
15   0.161986
16   0.27337
17   0.277089
18   0.351633
19   0.363587

$$$$

