PCCDB-ID:  632
public computational chemistry database (PCCDB) project, http://pccdb.org

 21 21  0  0  1  0  0  0  0  0999 V2000
    0.3569    1.4804    0.0092 C   0  0  0  0  0  0  0  0  0  0  0  0
    1.4002    0.4195   -0.3525 C   0  0  0  0  0  0  0  0  0  0  0  0
   -1.0250    1.0377   -0.4841 C   0  0  0  0  0  0  0  0  0  0  0  0
    0.9978   -0.9524    0.2072 C   0  0  1  0  0  0  0  0  0  0  0  0
   -1.3040   -0.3863   -0.0610 C   0  0  0  0  0  0  0  0  0  0  0  0
    1.5686   -1.2265    1.6252 C   0  0  0  0  0  0  0  0  0  0  0  0
   -2.7609   -0.7854    0.0132 C   0  0  0  0  0  0  0  0  0  0  0  0
   -0.4317   -1.2634    0.2550 N   0  0  0  0  0  0  0  0  0  0  0  0
    2.5842   -0.7210    2.0345 O   0  0  0  0  0  0  0  0  0  0  0  0
    0.8638   -2.1189    2.3400 O   0  0  0  0  0  0  0  0  0  0  0  0
   -2.9609   -2.0308    0.4850 O   0  0  0  0  0  0  0  0  0  0  0  0
   -3.6612   -0.0466   -0.3280 O   0  0  0  0  0  0  0  0  0  0  0  0
    0.6232    2.4486   -0.4270 H   0  0  0  0  0  0  0  0  0  0  0  0
    0.3315    1.6180    1.0982 H   0  0  0  0  0  0  0  0  0  0  0  0
    2.3881    0.6759    0.0388 H   0  0  0  0  0  0  0  0  0  0  0  0
    1.4821    0.3485   -1.4443 H   0  0  0  0  0  0  0  0  0  0  0  0
   -1.0874    1.1000   -1.5807 H   0  0  0  0  0  0  0  0  0  0  0  0
   -1.8275    1.6787   -0.1075 H   0  0  0  0  0  0  0  0  0  0  0  0
    1.4441   -1.7439   -0.4141 H   0  0  0  0  0  0  0  0  0  0  0  0
    0.0535   -2.3264    1.8219 H   0  0  0  0  0  0  0  0  0  0  0  0
   -3.9277   -2.1633    0.4818 H   0  0  0  0  0  0  0  0  0  0  0  0
  1 14  1  0  0  0  0
  2  1  1  0  0  0  0
  2 15  1  0  0  0  0
  2  4  1  0  0  0  0
  3 18  1  0  0  0  0
  3  5  1  0  0  0  0
  3  1  1  0  0  0  0
  4 19  1  6  0  0  0
  4  8  1  0  0  0  0
  4  6  1  0  0  0  0
  5  7  1  0  0  0  0
  5  8  2  0  0  0  0
  6  9  2  0  0  0  0
  6 10  1  0  0  0  0
  7 11  1  0  0  0  0
 12  7  2  0  0  0  0
 13  1  1  0  0  0  0
 16  2  1  0  0  0  0
 17  3  1  0  0  0  0
 20 10  1  0  0  0  0
 21 11  1  0  0  0  0
M  END
>  <HBA>
5

>  <HBD>
2

>  <TPSA>
86.96

>  <cid>
632

>  <dipole>
3.58

>  <excitation_energy_1>
3.935

>  <excitation_energy_2>
4.607

>  <excitation_energy_3>
4.883

>  <excitation_energy_4>
5.658

>  <homo_energy>
-7.32

>  <homo_lumo_gap>
5.187

>  <logP>
-0.415

>  <lumo_energy>
-2.133

>  <melting_point>
167.53

>  <molecular_refractivity>
44.2

>  <oscillator_strength_1>
0.0009

>  <oscillator_strength_2>
0.086

>  <oscillator_strength_3>
0.0248

>  <oscillator_strength_4>
0.0032

>  <open_babel_can_smiles>
OC(=O)[C@@H]1CCCC(=N1)C(=O)O

>  <mulliken_charges>
21
1   -0.281485
2   -0.287999
3   -0.328881
4   -0.091965
5   0.266137
6   0.610229
7   0.564104
8   -0.469185
9   -0.449174
10   -0.573974
11   -0.555521
12   -0.454973
13   0.15334
14   0.15924
15   0.188485
16   0.140714
17   0.175935
18   0.186744
19   0.196499
20   0.434169
21   0.41756

>  <lowdin_charges>
21
1   -0.27266
2   -0.286156
3   -0.292565
4   -0.111855
5   0.037192
6   0.182445
7   0.185136
8   -0.159063
9   -0.240866
10   -0.344942
11   -0.331649
12   -0.253176
13   0.156911
14   0.150784
15   0.176124
16   0.145739
17   0.168095
18   0.179201
19   0.181915
20   0.363772
21   0.365616

$$$$

