PCCDB-ID:  4075
public computational chemistry database (PCCDB) project, http://pccdb.org

 18 18  0  0  0  0  0  0  0  0999 V2000
   -1.4091   -0.1236   -0.0757 C   0  0  0  0  0  0  0  0  0  0  0  0
   -0.7119    1.0381   -0.3920 C   0  0  0  0  0  0  0  0  0  0  0  0
    0.6758   -1.2962    0.1557 C   0  0  0  0  0  0  0  0  0  0  0  0
   -0.7221   -1.3164    0.2049 C   0  0  0  0  0  0  0  0  0  0  0  0
    1.3962   -0.1375   -0.1560 C   0  0  0  0  0  0  0  0  0  0  0  0
    0.6815    1.0412   -0.4327 C   0  0  0  0  0  0  0  0  0  0  0  0
    2.8992   -0.2732   -0.1675 C   0  0  0  0  0  0  0  0  0  0  0  0
   -1.4140   -2.4734    0.5834 N   0  0  0  0  0  0  0  0  0  0  0  0
    1.3870    2.1882   -0.7523 O   0  0  0  0  0  0  0  0  0  0  0  0
    3.4455   -1.3336    0.0474 O   0  0  0  0  0  0  0  0  0  0  0  0
    3.6333    0.8285   -0.4213 O   0  0  0  0  0  0  0  0  0  0  0  0
   -2.4956   -0.1026   -0.0399 H   0  0  0  0  0  0  0  0  0  0  0  0
   -1.2600    1.9526   -0.6120 H   0  0  0  0  0  0  0  0  0  0  0  0
    1.2536   -2.1911    0.3656 H   0  0  0  0  0  0  0  0  0  0  0  0
   -2.3517   -2.5484    0.2082 H   0  0  0  0  0  0  0  0  0  0  0  0
   -0.8973   -3.3333    0.4442 H   0  0  0  0  0  0  0  0  0  0  0  0
    0.7795    2.9354   -0.8597 H   0  0  0  0  0  0  0  0  0  0  0  0
    3.0525    1.5986   -0.5787 H   0  0  0  0  0  0  0  0  0  0  0  0
  1 12  1  0  0  0  0
  1  4  2  0  0  0  0
  2  1  1  0  0  0  0
  3  4  1  0  0  0  0
  3 14  1  0  0  0  0
  4  8  1  0  0  0  0
  5  3  2  0  0  0  0
  6  2  2  0  0  0  0
  6  5  1  0  0  0  0
  7  5  1  0  0  0  0
  7 10  2  0  0  0  0
  9  6  1  0  0  0  0
 11  7  1  0  0  0  0
 13  2  1  0  0  0  0
 15  8  1  0  0  0  0
 16  8  1  0  0  0  0
 17  9  1  0  0  0  0
 18 11  1  0  0  0  0
M  END
>  <HBA>
4

>  <HBD>
3

>  <TPSA>
83.55

>  <cid>
4075

>  <dipole>
6.62

>  <excitation_energy_1>
3.847

>  <excitation_energy_2>
4.596

>  <excitation_energy_3>
4.668

>  <excitation_energy_4>
4.871

>  <homo_energy>
-5.636

>  <homo_lumo_gap>
4.498

>  <logP>
1.254

>  <lumo_energy>
-1.137

>  <melting_point>
185.78

>  <molecular_refractivity>
39.83

>  <oscillator_strength_1>
0.062

>  <oscillator_strength_2>
0.0001

>  <oscillator_strength_3>
0.0002

>  <oscillator_strength_4>
0.0062

>  <open_babel_can_smiles>
Nc1ccc(c(c1)C(=O)O)O

>  <mulliken_charges>
18
1   -0.168775
2   -0.188171
3   -0.233021
4   0.319625
5   0.017264
6   0.295056
7   0.574134
8   -0.79014
9   -0.694888
10   -0.464746
11   -0.601473
12   0.130976
13   0.125622
14   0.16576
15   0.31977
16   0.32665
17   0.424398
18   0.441958

>  <lowdin_charges>
18
1   -0.169274
2   -0.196692
3   -0.160423
4   0.048313
5   -0.075934
6   0.082139
7   0.196964
8   -0.488557
9   -0.396827
10   -0.261044
11   -0.361217
12   0.158085
13   0.157799
14   0.180931
15   0.275017
16   0.279545
17   0.369545
18   0.361629

$$$$

