PCCDB-ID:  2896
public computational chemistry database (PCCDB) project, http://pccdb.org

 19 19  0  0  0  0  0  0  0  0999 V2000
   -0.9795   -0.9796   -0.5188 C   0  0  0  0  0  0  0  0  0  0  0  0
    0.4179   -1.1263    0.1031 C   0  0  0  0  0  0  0  0  0  0  0  0
    2.3183    0.5438    0.3514 C   0  0  0  0  0  0  0  0  0  0  0  0
    3.2896    1.1749   -0.6690 C   0  0  0  0  0  0  0  0  0  0  0  0
    0.0256    1.1167   -0.3673 C   0  0  0  0  0  0  0  0  0  0  0  0
    0.2934    2.3764   -0.4600 N   0  0  0  0  0  0  0  0  0  0  0  0
   -1.2017    0.4639   -0.3765 N   0  0  0  0  0  0  0  0  0  0  0  0
    1.0164    0.1721   -0.2034 N   0  0  0  0  0  0  0  0  0  0  0  0
    4.3968    0.7145   -0.8419 O   0  0  0  0  0  0  0  0  0  0  0  0
    2.8518    2.2625   -1.3015 O   0  0  0  0  0  0  0  0  0  0  0  0
   -1.7399   -1.5558    0.0150 H   0  0  0  0  0  0  0  0  0  0  0  0
   -0.9713   -1.2904   -1.5732 H   0  0  0  0  0  0  0  0  0  0  0  0
    0.9926   -1.9451   -0.3385 H   0  0  0  0  0  0  0  0  0  0  0  0
    0.3513   -1.2889    1.1903 H   0  0  0  0  0  0  0  0  0  0  0  0
    2.1826    1.2447    1.1890 H   0  0  0  0  0  0  0  0  0  0  0  0
    2.8017   -0.3597    0.7237 H   0  0  0  0  0  0  0  0  0  0  0  0
   -0.5340    2.9549   -0.5834 H   0  0  0  0  0  0  0  0  0  0  0  0
   -1.9331    0.8882   -0.9334 H   0  0  0  0  0  0  0  0  0  0  0  0
    1.9150    2.4912   -1.0091 H   0  0  0  0  0  0  0  0  0  0  0  0
  1  7  1  0  0  0  0
  1 11  1  0  0  0  0
  1  2  1  0  0  0  0
  2 14  1  0  0  0  0
  3 16  1  0  0  0  0
  3 15  1  0  0  0  0
  4  3  1  0  0  0  0
  5  8  1  0  0  0  0
  6  5  2  0  0  0  0
  7  5  1  0  0  0  0
  8  2  1  0  0  0  0
  8  3  1  0  0  0  0
  9  4  2  0  0  0  0
 10 19  1  0  0  0  0
 10  4  1  0  0  0  0
 12  1  1  0  0  0  0
 13  2  1  0  0  0  0
 17  6  1  0  0  0  0
 18  7  1  0  0  0  0
M  END
>  <HBA>
5

>  <HBD>
2

>  <TPSA>
78.92

>  <cid>
2896

>  <dipole>
7.87

>  <excitation_energy_1>
5.319

>  <excitation_energy_2>
5.561

>  <excitation_energy_3>
5.828

>  <excitation_energy_4>
6.007

>  <homo_energy>
-6.316

>  <homo_lumo_gap>
7.023

>  <logP>
-1.225

>  <lumo_energy>
0.708

>  <melting_point>
148.59

>  <molecular_refractivity>
42.34

>  <oscillator_strength_1>
0.0132

>  <oscillator_strength_2>
0.0037

>  <oscillator_strength_3>
0.0002

>  <oscillator_strength_4>
0.0075

>  <open_babel_can_smiles>
OC(=O)CN1CCNC1=N

>  <mulliken_charges>
19
1   -0.14648
2   -0.129148
3   -0.253568
4   0.592307
5   0.736741
6   -0.769014
7   -0.624607
8   -0.449754
9   -0.461845
10   -0.589822
11   0.167101
12   0.163183
13   0.173946
14   0.157372
15   0.180422
16   0.18019
17   0.292331
18   0.328113
19   0.452533

>  <lowdin_charges>
19
1   -0.193529
2   -0.188772
3   -0.232283
4   0.178556
5   0.137543
6   -0.49743
7   -0.309631
8   -0.120443
9   -0.266331
10   -0.367102
11   0.160533
12   0.145376
13   0.163039
14   0.141497
15   0.166164
16   0.175377
17   0.265867
18   0.283974
19   0.357596

$$$$

