PCCDB-ID:  3712
public computational chemistry database (PCCDB) project, http://pccdb.org

 20 21  0  0  0  0  0  0  0  0999 V2000
    2.0972   -0.6805   -0.1097 C   0  0  0  0  0  0  0  0  0  0  0  0
    2.1061    0.7289   -0.0545 C   0  0  0  0  0  0  0  0  0  0  0  0
    0.9044   -1.3924   -0.1021 C   0  0  0  0  0  0  0  0  0  0  0  0
    0.9230    1.4564    0.0070 C   0  0  0  0  0  0  0  0  0  0  0  0
   -2.4307    0.0780    0.0556 C   0  0  0  0  0  0  0  0  0  0  0  0
   -2.2289   -2.4806    0.0016 C   0  0  0  0  0  0  0  0  0  0  0  0
   -1.6967   -1.0812    0.0021 C   0  0  0  0  0  0  0  0  0  0  0  0
   -0.3080   -0.6846   -0.0294 C   0  0  0  0  0  0  0  0  0  0  0  0
   -0.2757    0.7352    0.0181 C   0  0  0  0  0  0  0  0  0  0  0  0
   -1.5864    1.1712    0.0730 N   0  0  0  0  0  0  0  0  0  0  0  0
   -1.7171   -3.2781   -1.0700 O   0  0  0  0  0  0  0  0  0  0  0  0
    3.0417   -1.2149   -0.1648 H   0  0  0  0  0  0  0  0  0  0  0  0
    3.0556    1.2574   -0.0634 H   0  0  0  0  0  0  0  0  0  0  0  0
    0.8960   -2.4761   -0.1664 H   0  0  0  0  0  0  0  0  0  0  0  0
    0.9314    2.5428    0.0444 H   0  0  0  0  0  0  0  0  0  0  0  0
   -3.5036    0.2124    0.0939 H   0  0  0  0  0  0  0  0  0  0  0  0
   -3.3311   -2.4587   -0.0084 H   0  0  0  0  0  0  0  0  0  0  0  0
   -1.9261   -3.0172    0.9085 H   0  0  0  0  0  0  0  0  0  0  0  0
   -1.8815    2.1344    0.1054 H   0  0  0  0  0  0  0  0  0  0  0  0
   -1.8219   -2.7576   -1.8822 H   0  0  0  0  0  0  0  0  0  0  0  0
  1  3  2  0  0  0  0
  1  2  1  0  0  0  0
  2  4  2  0  0  0  0
  3  8  1  0  0  0  0
  4  9  1  0  0  0  0
  4 15  1  0  0  0  0
  5 10  1  0  0  0  0
  5 16  1  0  0  0  0
  6  7  1  0  0  0  0
  6 18  1  0  0  0  0
  7  5  2  0  0  0  0
  8  7  1  0  0  0  0
  8  9  2  0  0  0  0
  9 10  1  0  0  0  0
 10 19  1  0  0  0  0
 11  6  1  0  0  0  0
 12  1  1  0  0  0  0
 13  2  1  0  0  0  0
 14  3  1  0  0  0  0
 17  6  1  0  0  0  0
 20 11  1  0  0  0  0
M  END
>  <HBA>
1

>  <HBD>
2

>  <TPSA>
36.02

>  <cid>
3712

>  <dipole>
3.64

>  <excitation_energy_1>
4.69

>  <excitation_energy_2>
4.827

>  <excitation_energy_3>
4.875

>  <excitation_energy_4>
5.307

>  <homo_energy>
-5.483

>  <homo_lumo_gap>
5.317

>  <logP>
1.66

>  <lumo_energy>
-0.166

>  <melting_point>
118.38

>  <molecular_refractivity>
44.43

>  <oscillator_strength_1>
0.0672

>  <oscillator_strength_2>
0.0028

>  <oscillator_strength_3>
0.0357

>  <oscillator_strength_4>
0.0033

>  <open_babel_can_smiles>
OCc1c[nH]c2c1cccc2

>  <mulliken_charges>
20
1   -0.141362
2   -0.149753
3   -0.206773
4   -0.163962
5   0.000765
6   -0.093651
7   0.017528
8   0.082914
9   0.31055
10   -0.688671
11   -0.612011
12   0.121686
13   0.122717
14   0.144603
15   0.120042
16   0.148947
17   0.119892
18   0.153696
19   0.327226
20   0.385616

>  <lowdin_charges>
20
1   -0.176105
2   -0.163167
3   -0.155976
4   -0.186281
5   -0.131951
6   -0.124643
7   -0.09076
8   -0.033186
9   0.030111
10   -0.198491
11   -0.471169
12   0.155254
13   0.155628
14   0.164181
15   0.15266
16   0.162769
17   0.127654
18   0.152527
19   0.29006
20   0.340885

$$$$

