PCCDB-ID:  696
public computational chemistry database (PCCDB) project, http://pccdb.org

 22 21  0  0  1  0  0  0  0  0999 V2000
    1.3084   -0.1824   -0.1521 C   0  0  0  0  0  0  0  0  0  0  0  0
    0.4509   -0.7534   -1.2684 C   0  0  1  0  0  0  0  0  0  0  0  0
    0.9821   -2.1088   -1.7581 C   0  0  1  0  0  0  0  0  0  0  0  0
    0.1945   -2.6434   -2.9718 C   0  0  0  0  0  0  0  0  0  0  0  0
   -0.8817   -0.9887   -0.7968 O   0  0  0  0  0  0  0  0  0  0  0  0
    2.3361   -1.9845   -2.1056 O   0  0  0  0  0  0  0  0  0  0  0  0
    0.7934   -3.0920   -3.9267 O   0  0  0  0  0  0  0  0  0  0  0  0
   -1.1364   -2.6163   -2.9013 O   0  0  0  0  0  0  0  0  0  0  0  0
    1.4098    0.9496    2.6079 O   0  0  0  0  0  0  0  0  0  0  0  0
    2.7928    2.2569    0.9777 O   0  0  0  0  0  0  0  0  0  0  0  0
    0.4530    3.2207    1.6133 O   0  0  0  0  0  0  0  0  0  0  0  0
    0.6431    1.0407    0.2575 O   0  0  0  0  0  0  0  0  0  0  0  0
    1.2458    1.9987    1.3946 P   0  0  0  0  0  0  0  0  0  0  0  0
    2.3161    0.0374   -0.5098 H   0  0  0  0  0  0  0  0  0  0  0  0
    1.3514   -0.8688    0.6990 H   0  0  0  0  0  0  0  0  0  0  0  0
    0.4425   -0.0417   -2.1066 H   0  0  0  0  0  0  0  0  0  0  0  0
    0.8436   -2.8351   -0.9371 H   0  0  0  0  0  0  0  0  0  0  0  0
   -1.2239   -0.1481   -0.4482 H   0  0  0  0  0  0  0  0  0  0  0  0
    2.4177   -2.4481   -2.9648 H   0  0  0  0  0  0  0  0  0  0  0  0
   -1.4039   -2.1116   -2.0964 H   0  0  0  0  0  0  0  0  0  0  0  0
    1.7615    1.3708    3.4095 H   0  0  0  0  0  0  0  0  0  0  0  0
    2.8832    3.1450    0.5930 H   0  0  0  0  0  0  0  0  0  0  0  0
  1 12  1  0  0  0  0
  1 15  1  0  0  0  0
  2 16  1  6  0  0  0
  2  5  1  0  0  0  0
  2  1  1  0  0  0  0
  3  2  1  0  0  0  0
  3 17  1  1  0  0  0
  4  8  1  0  0  0  0
  4  3  1  0  0  0  0
  5 18  1  0  0  0  0
  6  3  1  0  0  0  0
  7  4  2  0  0  0  0
  8 20  1  0  0  0  0
  9 21  1  0  0  0  0
 10 13  1  0  0  0  0
 12 13  1  0  0  0  0
 13 11  2  0  0  0  0
 13  9  1  0  0  0  0
 14  1  1  0  0  0  0
 19  6  1  0  0  0  0
 22 10  1  0  0  0  0
M  END
>  <HBA>
8

>  <HBD>
5

>  <TPSA>
154.33

>  <cid>
696

>  <dipole>
3.8

>  <excitation_energy_1>
5.905

>  <excitation_energy_2>
6.702

>  <excitation_energy_3>
6.77

>  <excitation_energy_4>
6.875

>  <homo_energy>
-7.739

>  <homo_lumo_gap>
7.674

>  <logP>
-2.098

>  <lumo_energy>
-0.065

>  <melting_point>
168.89

>  <molecular_refractivity>
37.51

>  <oscillator_strength_1>
0.0007

>  <oscillator_strength_2>
0.0069

>  <oscillator_strength_3>
0.0117

>  <oscillator_strength_4>
0.0214

>  <open_babel_can_smiles>
O[C@H]([C@@H](C(=O)O)O)COP(=O)(O)O

>  <mulliken_charges>
22
1   -0.046614
2   0.087885
3   0.042523
4   0.585408
5   -0.662894
6   -0.645191
7   -0.469037
8   -0.575351
9   -0.646526
10   -0.657024
11   -0.523226
12   -0.538857
13   1.155504
14   0.197936
15   0.178268
16   0.157437
17   0.164283
18   0.434632
19   0.420848
20   0.449102
21   0.446367
22   0.444528

>  <lowdin_charges>
22
1   -0.131775
2   -0.018537
3   -0.04996
4   0.180572
5   -0.460684
6   -0.453956
7   -0.254311
8   -0.33927
9   -0.559009
10   -0.574618
11   -0.569333
12   -0.396521
13   1.109228
14   0.176048
15   0.165749
16   0.149507
17   0.155024
18   0.367795
19   0.357301
20   0.3681
21   0.390712
22   0.387939

$$$$

