PCCDB-ID:  841
public computational chemistry database (PCCDB) project, http://pccdb.org

 23 22  0  0  1  0  0  0  0  0999 V2000
    0.7962    0.2666    0.0612 C   0  0  0  0  0  0  0  0  0  0  0  0
    6.3704   -1.2212   -0.1431 C   0  0  0  0  0  0  0  0  0  0  0  0
    2.3023    0.0262    0.0748 C   0  0  1  0  0  0  0  0  0  0  0  0
    5.0035   -1.2276   -0.7884 C   0  0  0  0  0  0  0  0  0  0  0  0
    2.9201    0.1546   -1.3315 C   0  0  1  0  0  0  0  0  0  0  0  0
    4.4581    0.0912   -1.3460 C   0  0  2  0  0  0  0  0  0  0  0  0
    6.8096   -2.5082    0.1871 O   0  0  0  0  0  0  0  0  0  0  0  0
    2.9808    0.8919    0.9917 O   0  0  0  0  0  0  0  0  0  0  0  0
    4.3970   -2.2887   -0.9101 O   0  0  0  0  0  0  0  0  0  0  0  0
    2.4089   -0.8228   -2.2393 O   0  0  0  0  0  0  0  0  0  0  0  0
    4.9353    0.1801   -2.6860 O   0  0  0  0  0  0  0  0  0  0  0  0
    0.3042   -0.4139   -0.6398 H   0  0  0  0  0  0  0  0  0  0  0  0
    0.5716    1.2936   -0.2600 H   0  0  0  0  0  0  0  0  0  0  0  0
    0.3757    0.1183    1.0606 H   0  0  0  0  0  0  0  0  0  0  0  0
    6.3041   -0.5737    0.7499 H   0  0  0  0  0  0  0  0  0  0  0  0
    7.0686   -0.7256   -0.8370 H   0  0  0  0  0  0  0  0  0  0  0  0
    2.5042   -0.9837    0.4500 H   0  0  0  0  0  0  0  0  0  0  0  0
    2.6370    1.1257   -1.7603 H   0  0  0  0  0  0  0  0  0  0  0  0
    4.8819    0.9317   -0.7911 H   0  0  0  0  0  0  0  0  0  0  0  0
    6.0728   -3.1049   -0.0453 H   0  0  0  0  0  0  0  0  0  0  0  0
    2.6679    1.7964    0.8267 H   0  0  0  0  0  0  0  0  0  0  0  0
    2.7266   -1.6829   -1.8994 H   0  0  0  0  0  0  0  0  0  0  0  0
    4.2823   -0.3232   -3.2102 H   0  0  0  0  0  0  0  0  0  0  0  0
  1  3  1  0  0  0  0
  1 14  1  0  0  0  0
  2  7  1  0  0  0  0
  2 15  1  0  0  0  0
  3 17  1  1  0  0  0
  3  8  1  0  0  0  0
  4  2  1  0  0  0  0
  5 18  1  6  0  0  0
  5  3  1  0  0  0  0
  6  5  1  0  0  0  0
  6 19  1  1  0  0  0
  6  4  1  0  0  0  0
  9  4  2  0  0  0  0
 10 22  1  0  0  0  0
 10  5  1  0  0  0  0
 11  6  1  0  0  0  0
 12  1  1  0  0  0  0
 13  1  1  0  0  0  0
 16  2  1  0  0  0  0
 20  7  1  0  0  0  0
 21  8  1  0  0  0  0
 23 11  1  0  0  0  0
M  END
>  <HBA>
5

>  <HBD>
4

>  <TPSA>
97.99

>  <cid>
841

>  <dipole>
2.95

>  <excitation_energy_1>
4.262

>  <excitation_energy_2>
5.146

>  <excitation_energy_3>
5.266

>  <excitation_energy_4>
6.137

>  <homo_energy>
-7.14

>  <homo_lumo_gap>
5.823

>  <logP>
-2.35

>  <lumo_energy>
-1.317

>  <melting_point>
69.3

>  <molecular_refractivity>
35.8

>  <oscillator_strength_1>
0.0018

>  <oscillator_strength_2>
0.0001

>  <oscillator_strength_3>
0.0354

>  <oscillator_strength_4>
0.0126

>  <open_babel_can_smiles>
OCC(=O)[C@H]([C@H]([C@@H](O)C)O)O

>  <mulliken_charges>
23
1   -0.46754
2   -0.079654
3   0.111539
4   0.423964
5   0.080461
6   0.064258
7   -0.622776
8   -0.625596
9   -0.496796
10   -0.652339
11   -0.623955
12   0.17384
13   0.133649
14   0.162671
15   0.168846
16   0.178422
17   0.150569
18   0.138649
19   0.155263
20   0.409702
21   0.390058
22   0.417918
23   0.408847

>  <lowdin_charges>
23
1   -0.458776
2   -0.163062
3   -0.019568
4   0.155908
5   -0.034825
6   -0.04721
7   -0.457452
8   -0.461041
9   -0.260426
10   -0.463613
11   -0.446209
12   0.171022
13   0.143994
14   0.160515
15   0.162743
16   0.169544
17   0.148832
18   0.147728
19   0.162279
20   0.349319
21   0.342154
22   0.347541
23   0.350603

$$$$

