PCCDB-ID:  5950
public computational chemistry database (PCCDB) project, http://pccdb.org

 13 12  0  0  1  0  0  0  0  0999 V2000
    1.6032   -0.5808   -0.5128 C   0  0  0  0  0  0  0  0  0  0  0  0
    1.9881    0.3285    0.6682 C   0  0  2  0  0  0  0  0  0  0  0  0
    3.2414    1.1518    0.3078 C   0  0  0  0  0  0  0  0  0  0  0  0
    2.1595   -0.4730    1.8716 N   0  0  0  0  0  0  0  0  0  0  0  0
    4.3300    0.9590    0.7890 O   0  0  0  0  0  0  0  0  0  0  0  0
    3.0705    2.1239   -0.6302 O   0  0  0  0  0  0  0  0  0  0  0  0
    1.4122   -0.0128   -1.4303 H   0  0  0  0  0  0  0  0  0  0  0  0
    0.7051   -1.1477   -0.2549 H   0  0  0  0  0  0  0  0  0  0  0  0
    2.4106   -1.2914   -0.7241 H   0  0  0  0  0  0  0  0  0  0  0  0
    1.1630    1.0331    0.8501 H   0  0  0  0  0  0  0  0  0  0  0  0
    3.0090   -1.0283    1.7619 H   0  0  0  0  0  0  0  0  0  0  0  0
    2.3583    0.1448    2.6581 H   0  0  0  0  0  0  0  0  0  0  0  0
    2.1384    2.1619   -0.9027 H   0  0  0  0  0  0  0  0  0  0  0  0
  1  8  1  0  0  0  0
  1  2  1  0  0  0  0
  2 10  1  1  0  0  0
  2  4  1  0  0  0  0
  3  2  1  0  0  0  0
  3  5  2  0  0  0  0
  4 12  1  0  0  0  0
  6  3  1  0  0  0  0
  7  1  1  0  0  0  0
  9  1  1  0  0  0  0
 11  4  1  0  0  0  0
 13  6  1  0  0  0  0
M  END
>  <HBA>
3

>  <HBD>
2

>  <TPSA>
63.32

>  <cid>
5950

>  <dipole>
3.04

>  <excitation_energy_1>
5.543

>  <excitation_energy_2>
5.891

>  <excitation_energy_3>
6.043

>  <excitation_energy_4>
6.502

>  <homo_energy>
-6.833

>  <homo_lumo_gap>
6.977

>  <logP>
0.118

>  <lumo_energy>
0.144

>  <melting_point>
106.84

>  <molecular_refractivity>
21.01

>  <oscillator_strength_1>
0.0028

>  <oscillator_strength_2>
0.0015

>  <oscillator_strength_3>
0.001

>  <oscillator_strength_4>
0.0251

>  <open_babel_can_smiles>
C[C@H](C(=O)O)N

>  <mulliken_charges>
13
1   -0.440082
2   -0.10368
3   0.580263
4   -0.685536
5   -0.442503
6   -0.563915
7   0.136984
8   0.179974
9   0.164685
10   0.146232
11   0.309719
12   0.306761
13   0.411097

>  <lowdin_charges>
13
1   -0.444911
2   -0.111412
3   0.173408
4   -0.530443
5   -0.242192
6   -0.355071
7   0.147489
8   0.17012
9   0.161165
10   0.14957
11   0.262909
12   0.262749
13   0.356619

$$$$

