PCCDB-ID:  3121
public computational chemistry database (PCCDB) project, http://pccdb.org

 26 25  0  0  0  0  0  0  0  0999 V2000
    0.7916   -1.4139    2.1376 C   0  0  0  0  0  0  0  0  0  0  0  0
    6.9513    2.6190    0.0440 C   0  0  0  0  0  0  0  0  0  0  0  0
    2.3157   -1.3266    2.2645 C   0  0  0  0  0  0  0  0  0  0  0  0
    6.4841    1.3729    0.8027 C   0  0  0  0  0  0  0  0  0  0  0  0
    2.8975   -0.0819    1.5805 C   0  0  0  0  0  0  0  0  0  0  0  0
    4.9554    1.2753    0.8957 C   0  0  0  0  0  0  0  0  0  0  0  0
    4.4375    0.0214    1.6380 C   0  0  0  0  0  0  0  0  0  0  0  0
    4.9669   -0.0231    3.0727 C   0  0  0  0  0  0  0  0  0  0  0  0
    5.7598   -0.8324    3.4842 O   0  0  0  0  0  0  0  0  0  0  0  0
    4.4983    0.9478    3.9114 O   0  0  0  0  0  0  0  0  0  0  0  0
    0.4044   -2.3130    2.6290 H   0  0  0  0  0  0  0  0  0  0  0  0
    0.4810   -1.4482    1.0861 H   0  0  0  0  0  0  0  0  0  0  0  0
    0.3030   -0.5467    2.5991 H   0  0  0  0  0  0  0  0  0  0  0  0
    8.0445    2.6606   -0.0130 H   0  0  0  0  0  0  0  0  0  0  0  0
    6.6093    3.5371    0.5375 H   0  0  0  0  0  0  0  0  0  0  0  0
    6.5634    2.6302   -0.9822 H   0  0  0  0  0  0  0  0  0  0  0  0
    2.7755   -2.2228    1.8268 H   0  0  0  0  0  0  0  0  0  0  0  0
    2.5957   -1.3290    3.3262 H   0  0  0  0  0  0  0  0  0  0  0  0
    6.9185    1.3720    1.8106 H   0  0  0  0  0  0  0  0  0  0  0  0
    6.8697    0.4717    0.3071 H   0  0  0  0  0  0  0  0  0  0  0  0
    2.4393    0.8216    2.0155 H   0  0  0  0  0  0  0  0  0  0  0  0
    2.6010   -0.0739    0.5228 H   0  0  0  0  0  0  0  0  0  0  0  0
    4.5280    1.2677   -0.1165 H   0  0  0  0  0  0  0  0  0  0  0  0
    4.5603    2.1835    1.3778 H   0  0  0  0  0  0  0  0  0  0  0  0
    4.8635   -0.8667    1.1581 H   0  0  0  0  0  0  0  0  0  0  0  0
    3.8665    1.5160    3.4401 H   0  0  0  0  0  0  0  0  0  0  0  0
  1  3  1  0  0  0  0
  1 13  1  0  0  0  0
  1 11  1  0  0  0  0
  2 15  1  0  0  0  0
  2  4  1  0  0  0  0
  3 18  1  0  0  0  0
  4  6  1  0  0  0  0
  4 19  1  0  0  0  0
  5  7  1  0  0  0  0
  5 21  1  0  0  0  0
  5  3  1  0  0  0  0
  6 24  1  0  0  0  0
  6  7  1  0  0  0  0
  7  8  1  0  0  0  0
  8  9  2  0  0  0  0
  8 10  1  0  0  0  0
 12  1  1  0  0  0  0
 14  2  1  0  0  0  0
 16  2  1  0  0  0  0
 17  3  1  0  0  0  0
 20  4  1  0  0  0  0
 22  5  1  0  0  0  0
 23  6  1  0  0  0  0
 25  7  1  0  0  0  0
 26 10  1  0  0  0  0
M  END
>  <HBA>
2

>  <HBD>
1

>  <TPSA>
37.3

>  <cid>
3121

>  <dipole>
4.21

>  <excitation_energy_1>
5.591

>  <excitation_energy_2>
6.439

>  <excitation_energy_3>
7.077

>  <excitation_energy_4>
7.304

>  <homo_energy>
-7.105

>  <homo_lumo_gap>
7.475

>  <logP>
2.287

>  <lumo_energy>
0.37

>  <melting_point>
49.27

>  <molecular_refractivity>
42.34

>  <oscillator_strength_1>
0.004

>  <oscillator_strength_2>
0.0116

>  <oscillator_strength_3>
0.0045

>  <oscillator_strength_4>
0.0185

>  <open_babel_can_smiles>
CCCC(C(=O)O)CCC

>  <mulliken_charges>
26
1   -0.444169
2   -0.444432
3   -0.258509
4   -0.258177
5   -0.270534
6   -0.264585
7   -0.198568
8   0.600496
9   -0.448267
10   -0.57614
11   0.151344
12   0.143658
13   0.142397
14   0.150688
15   0.142882
16   0.142313
17   0.145377
18   0.154607
19   0.157968
20   0.143311
21   0.113479
22   0.144832
23   0.142545
24   0.117003
25   0.160617
26   0.409863

>  <lowdin_charges>
26
1   -0.443707
2   -0.441023
3   -0.275886
4   -0.275447
5   -0.275202
6   -0.273991
7   -0.167817
8   0.190044
9   -0.238967
10   -0.365286
11   0.1552
12   0.146124
13   0.147602
14   0.152342
15   0.147303
16   0.145632
17   0.148057
18   0.148928
19   0.151501
20   0.147003
21   0.130007
22   0.147819
23   0.146811
24   0.13247
25   0.164653
26   0.355828

$$$$

