PCCDB-ID:  504
public computational chemistry database (PCCDB) project, http://pccdb.org

 10 10  0  0  0  0  0  0  0  0999 V2000
   -0.0443    1.2301   -0.0001 C   0  0  0  0  0  0  0  0  0  0  0  0
   -0.6362   -0.8490   -0.0025 C   0  0  0  0  0  0  0  0  0  0  0  0
    1.1439    0.2866    0.0011 C   0  0  0  0  0  0  0  0  0  0  0  0
   -1.1837    0.3186   -0.0031 N   0  0  0  0  0  0  0  0  0  0  0  0
    0.7755   -0.9487   -0.0000 N   0  0  0  0  0  0  0  0  0  0  0  0
    2.4335    0.6489    0.0032 O   0  0  0  0  0  0  0  0  0  0  0  0
   -0.0627    1.8816   -0.8844 H   0  0  0  0  0  0  0  0  0  0  0  0
   -0.0658    1.8786    0.8863 H   0  0  0  0  0  0  0  0  0  0  0  0
   -1.2206   -1.7650   -0.0039 H   0  0  0  0  0  0  0  0  0  0  0  0
    2.5009    1.6168    0.0025 H   0  0  0  0  0  0  0  0  0  0  0  0
  1  3  1  0  0  0  0
  1  8  1  0  0  0  0
  2  5  1  0  0  0  0
  3  6  1  0  0  0  0
  4  2  2  0  0  0  0
  4  1  1  0  0  0  0
  5  3  2  0  0  0  0
  7  1  1  0  0  0  0
  9  2  1  0  0  0  0
 10  6  1  0  0  0  0
M  END
>  <HBA>
3

>  <HBD>
1

>  <TPSA>
41.46

>  <cid>
504

>  <dipole>
3.52

>  <excitation_energy_1>
4.895

>  <excitation_energy_2>
5.53

>  <excitation_energy_3>
5.692

>  <excitation_energy_4>
5.814

>  <homo_energy>
-7.021

>  <homo_lumo_gap>
6.074

>  <logP>
-1.091

>  <lumo_energy>
-0.947

>  <melting_point>
64.44

>  <molecular_refractivity>
28.35

>  <oscillator_strength_1>
0.0031

>  <oscillator_strength_2>
0.0991

>  <oscillator_strength_3>
0.0

>  <oscillator_strength_4>
0.0009

>  <open_babel_can_smiles>
OC1=NC=NC1

>  <mulliken_charges>
10
1   -0.253194
2   0.184823
3   0.48566
4   -0.379686
5   -0.434158
6   -0.565391
7   0.190256
8   0.190404
9   0.157999
10   0.423287

>  <lowdin_charges>
10
1   -0.250611
2   -0.039742
3   0.128149
4   -0.206599
5   -0.207354
6   -0.317178
7   0.179966
8   0.180055
9   0.165354
10   0.367959

$$$$

