PCCDB-ID:  723
public computational chemistry database (PCCDB) project, http://pccdb.org

 12 11  0  0  0  0  0  0  0  0999 V2000
    1.0090   -0.0524   -0.1022 C   0  0  0  0  0  0  0  0  0  0  0  0
    0.2293    0.4822   -1.0467 C   0  0  0  0  0  0  0  0  0  0  0  0
    2.4976    0.0175   -0.2180 C   0  0  0  0  0  0  0  0  0  0  0  0
   -1.2593    0.4122   -0.9311 C   0  0  0  0  0  0  0  0  0  0  0  0
    3.0749    0.5543   -1.1334 O   0  0  0  0  0  0  0  0  0  0  0  0
    3.1950   -0.5705    0.7860 O   0  0  0  0  0  0  0  0  0  0  0  0
   -1.8367   -0.1159   -0.0107 O   0  0  0  0  0  0  0  0  0  0  0  0
   -1.9565    0.9889   -1.9417 O   0  0  0  0  0  0  0  0  0  0  0  0
    0.5405   -0.5380    0.7521 H   0  0  0  0  0  0  0  0  0  0  0  0
    0.6980    0.9676   -1.9010 H   0  0  0  0  0  0  0  0  0  0  0  0
    2.5935   -0.9568    1.4438 H   0  0  0  0  0  0  0  0  0  0  0  0
   -1.3550    1.3696   -2.6029 H   0  0  0  0  0  0  0  0  0  0  0  0
  1  9  1  0  0  0  0
  2  4  1  0  0  0  0
  2  1  2  0  0  0  0
  3  1  1  0  0  0  0
  3  6  1  0  0  0  0
  4  7  2  0  0  0  0
  5  3  2  0  0  0  0
  6 11  1  0  0  0  0
  8  4  1  0  0  0  0
 10  2  1  0  0  0  0
 12  8  1  0  0  0  0
M  END
>  <HBA>
4

>  <HBD>
2

>  <TPSA>
74.6

>  <cid>
723

>  <dipole>
0.03

>  <excitation_energy_1>
3.905

>  <excitation_energy_2>
4.087

>  <excitation_energy_3>
5.336

>  <excitation_energy_4>
5.718

>  <homo_energy>
-7.943

>  <homo_lumo_gap>
5.181

>  <logP>
-0.288

>  <lumo_energy>
-2.762

>  <melting_point>
138.87

>  <molecular_refractivity>
24.41

>  <oscillator_strength_1>
0.0001

>  <oscillator_strength_2>
0.0

>  <oscillator_strength_3>
0.1976

>  <oscillator_strength_4>
0.0

>  <open_babel_can_smiles>
OC(=O)/C=C/C(=O)O

>  <mulliken_charges>
12
1   -0.193266
2   -0.193502
3   0.608294
4   0.608407
5   -0.441461
6   -0.56857
7   -0.44148
8   -0.568599
9   0.177812
10   0.177821
11   0.417273
12   0.417271

>  <lowdin_charges>
12
1   -0.162882
2   -0.162905
3   0.194629
4   0.194651
5   -0.233934
6   -0.343054
7   -0.233941
8   -0.34306
9   0.180646
10   0.180647
11   0.364607
12   0.364596

$$$$

