PCCDB-ID:  2285
public computational chemistry database (PCCDB) project, http://pccdb.org

 19 19  0  0  0  0  0  0  0  0999 V2000
   -1.9666    0.0494    0.0361 C   0  0  0  0  0  0  0  0  0  0  0  0
   -1.2560    1.2511    0.0442 C   0  0  0  0  0  0  0  0  0  0  0  0
   -1.2787   -1.1653   -0.0114 C   0  0  0  0  0  0  0  0  0  0  0  0
    0.1384    1.2350    0.0051 C   0  0  0  0  0  0  0  0  0  0  0  0
    0.1155   -1.1805   -0.0497 C   0  0  0  0  0  0  0  0  0  0  0  0
    2.3422    0.0123   -0.0979 C   0  0  0  0  0  0  0  0  0  0  0  0
    0.8363    0.0219   -0.0415 C   0  0  0  0  0  0  0  0  0  0  0  0
    3.0545   -1.2242   -2.0117 C   0  0  0  0  0  0  0  0  0  0  0  0
    2.9314   -2.2886   -1.4612 O   0  0  0  0  0  0  0  0  0  0  0  0
    3.4564   -1.0940   -3.2889 O   0  0  0  0  0  0  0  0  0  0  0  0
    2.8324   -0.0029   -1.4722 O   0  0  0  0  0  0  0  0  0  0  0  0
   -3.0528    0.0592    0.0682 H   0  0  0  0  0  0  0  0  0  0  0  0
   -1.7864    2.1988    0.0833 H   0  0  0  0  0  0  0  0  0  0  0  0
   -1.8287   -2.1025   -0.0157 H   0  0  0  0  0  0  0  0  0  0  0  0
    0.6915    2.1718    0.0149 H   0  0  0  0  0  0  0  0  0  0  0  0
    0.6541   -2.1225   -0.0954 H   0  0  0  0  0  0  0  0  0  0  0  0
    2.7615   -0.8545    0.4160 H   0  0  0  0  0  0  0  0  0  0  0  0
    2.7618    0.9290    0.3215 H   0  0  0  0  0  0  0  0  0  0  0  0
    3.4715   -0.1464   -3.5085 H   0  0  0  0  0  0  0  0  0  0  0  0
  1  2  1  0  0  0  0
  1 12  1  0  0  0  0
  2 13  1  0  0  0  0
  3  1  2  0  0  0  0
  4 15  1  0  0  0  0
  4  2  2  0  0  0  0
  5  7  2  0  0  0  0
  5  3  1  0  0  0  0
  6  7  1  0  0  0  0
  6 18  1  0  0  0  0
  6 17  1  0  0  0  0
  7  4  1  0  0  0  0
  8 11  1  0  0  0  0
  8  9  2  0  0  0  0
 10  8  1  0  0  0  0
 11  6  1  0  0  0  0
 14  3  1  0  0  0  0
 16  5  1  0  0  0  0
 19 10  1  0  0  0  0
M  END
>  <HBA>
3

>  <HBD>
1

>  <TPSA>
46.53

>  <cid>
2285

>  <dipole>
3.42

>  <excitation_energy_1>
5.289

>  <excitation_energy_2>
5.888

>  <excitation_energy_3>
6.347

>  <excitation_energy_4>
6.367

>  <homo_energy>
-6.925

>  <homo_lumo_gap>
6.471

>  <logP>
1.881

>  <lumo_energy>
-0.454

>  <melting_point>
85.03

>  <molecular_refractivity>
39.46

>  <oscillator_strength_1>
0.0024

>  <oscillator_strength_2>
0.0625

>  <oscillator_strength_3>
0.0122

>  <oscillator_strength_4>
0.0336

>  <open_babel_can_smiles>
OC(=O)OCc1ccccc1

>  <mulliken_charges>
19
1   -0.125035
2   -0.129052
3   -0.130298
4   -0.17295
5   -0.179023
6   -0.145202
7   0.147924
8   0.780549
9   -0.467551
10   -0.56933
11   -0.478481
12   0.134265
13   0.133312
14   0.137176
15   0.128431
16   0.166088
17   0.186643
18   0.160386
19   0.422148

>  <lowdin_charges>
19
1   -0.146817
2   -0.156199
3   -0.153651
4   -0.157769
5   -0.153518
6   -0.124251
7   -0.02625
8   0.235503
9   -0.269074
10   -0.33815
11   -0.218692
12   0.157762
13   0.159603
14   0.161487
15   0.156835
16   0.174085
17   0.171242
18   0.159764
19   0.368091

$$$$

