PCCDB-ID:  4263
public computational chemistry database (PCCDB) project, http://pccdb.org

 23 23  0  0  1  0  0  0  0  0999 V2000
    0.7700    0.0741    0.0119 C   0  0  0  0  0  0  0  0  0  0  0  0
    1.6156    3.2862    0.2355 C   0  0  0  0  0  0  0  0  0  0  0  0
    2.8647   -2.0335    1.1791 C   0  0  0  0  0  0  0  0  0  0  0  0
    2.2560    0.1502    0.0192 C   0  0  0  0  0  0  0  0  0  0  0  0
    2.9790    2.6414    0.1225 C   0  0  0  0  0  0  0  0  0  0  0  0
    3.1383    1.1795    0.0410 C   0  0  0  0  0  0  0  0  0  0  0  0
    4.4957    0.5420   -0.0666 C   0  0  0  0  0  0  0  0  0  0  0  0
    3.0886   -1.1474   -0.0505 C   0  0  1  0  0  0  0  0  0  0  0  0
    4.4831   -0.7420   -0.1419 N   0  0  0  0  0  0  0  0  0  0  0  0
    3.9867    3.3576    0.1033 O   0  0  0  0  0  0  0  0  0  0  0  0
    5.6138    1.2613   -0.0947 O   0  0  0  0  0  0  0  0  0  0  0  0
    2.7022   -1.8857   -1.2118 O   0  0  0  0  0  0  0  0  0  0  0  0
    0.2735    1.0336   -0.1336 H   0  0  0  0  0  0  0  0  0  0  0  0
    0.4060   -0.3611    0.9529 H   0  0  0  0  0  0  0  0  0  0  0  0
    0.4657   -0.6140   -0.7863 H   0  0  0  0  0  0  0  0  0  0  0  0
    1.0551    2.8849    1.0866 H   0  0  0  0  0  0  0  0  0  0  0  0
    1.0248    3.0986   -0.6688 H   0  0  0  0  0  0  0  0  0  0  0  0
    1.7483    4.3627    0.3581 H   0  0  0  0  0  0  0  0  0  0  0  0
    3.0710   -1.4840    2.1035 H   0  0  0  0  0  0  0  0  0  0  0  0
    3.5463   -2.8854    1.1159 H   0  0  0  0  0  0  0  0  0  0  0  0
    1.8353   -2.4065    1.2016 H   0  0  0  0  0  0  0  0  0  0  0  0
    5.3373    2.2083   -0.0309 H   0  0  0  0  0  0  0  0  0  0  0  0
    3.4529   -1.8030   -1.8226 H   0  0  0  0  0  0  0  0  0  0  0  0
  1  4  1  0  0  0  0
  1 14  1  0  0  0  0
  2 18  1  0  0  0  0
  2 16  1  0  0  0  0
  3 21  1  0  0  0  0
  3 19  1  0  0  0  0
  4  6  2  0  0  0  0
  5  2  1  0  0  0  0
  6  5  1  0  0  0  0
  7  6  1  0  0  0  0
  8 12  1  6  0  0  0
  8  4  1  0  0  0  0
  8  3  1  0  0  0  0
  9  7  2  0  0  0  0
  9  8  1  0  0  0  0
 10  5  2  0  0  0  0
 11  7  1  0  0  0  0
 11 22  1  0  0  0  0
 13  1  1  0  0  0  0
 15  1  1  0  0  0  0
 17  2  1  0  0  0  0
 20  3  1  0  0  0  0
 23 12  1  0  0  0  0
M  END
>  <HBA>
4

>  <HBD>
2

>  <TPSA>
66.4

>  <cid>
4263

>  <dipole>
4.8

>  <excitation_energy_1>
3.637

>  <excitation_energy_2>
3.846

>  <excitation_energy_3>
4.154

>  <excitation_energy_4>
4.773

>  <homo_energy>
-6.623

>  <homo_lumo_gap>
4.381

>  <logP>
0.059

>  <lumo_energy>
-2.242

>  <melting_point>
110.92

>  <molecular_refractivity>
46.3

>  <oscillator_strength_1>
0.0074

>  <oscillator_strength_2>
0.0007

>  <oscillator_strength_3>
0.0035

>  <oscillator_strength_4>
0.0019

>  <open_babel_can_smiles>
CC(=O)C1=C(C)[C@@](N=C1O)(C)O

>  <mulliken_charges>
23
1   -0.546001
2   -0.541165
3   -0.438549
4   0.102977
5   0.447614
6   -0.035523
7   0.490535
8   0.331728
9   -0.498325
10   -0.495992
11   -0.610848
12   -0.634174
13   0.165492
14   0.182438
15   0.204704
16   0.180282
17   0.184271
18   0.190301
19   0.148054
20   0.177301
21   0.148031
22   0.440579
23   0.406268

>  <lowdin_charges>
23
1   -0.449651
2   -0.466665
3   -0.44448
4   0.055297
5   0.178398
6   -0.123506
7   0.129518
8   0.162299
9   -0.247656
10   -0.264119
11   -0.340265
12   -0.451861
13   0.164146
14   0.177443
15   0.188229
16   0.17575
17   0.177389
18   0.17812
19   0.156515
20   0.1732
21   0.153414
22   0.364139
23   0.354346

$$$$

