PCCDB-ID:  5196
public computational chemistry database (PCCDB) project, http://pccdb.org

 10  9  0  0  0  0  0  0  0  0999 V2000
    0.8397   -0.0367    0.0329 C   0  0  0  0  0  0  0  0  0  0  0  0
    0.5198   -0.6095    1.1293 N   0  0  0  0  0  0  0  0  0  0  0  0
    0.7214    1.6793   -1.7243 N   0  0  0  0  0  0  0  0  0  0  0  0
    0.1344    0.8998   -0.7010 N   0  0  0  0  0  0  0  0  0  0  0  0
    2.0040   -0.3645   -0.5862 O   0  0  0  0  0  0  0  0  0  0  0  0
   -0.3743   -0.2773    1.4910 H   0  0  0  0  0  0  0  0  0  0  0  0
    0.8079    1.0877   -2.5489 H   0  0  0  0  0  0  0  0  0  0  0  0
    1.6718    1.9329   -1.4519 H   0  0  0  0  0  0  0  0  0  0  0  0
   -0.5865    1.3976   -0.1980 H   0  0  0  0  0  0  0  0  0  0  0  0
    2.3956   -1.0497   -0.0159 H   0  0  0  0  0  0  0  0  0  0  0  0
  1  2  2  0  0  0  0
  2  6  1  0  0  0  0
  3  8  1  0  0  0  0
  3  4  1  0  0  0  0
  4  9  1  0  0  0  0
  4  1  1  0  0  0  0
  5 10  1  0  0  0  0
  5  1  1  0  0  0  0
  7  3  1  0  0  0  0
M  END
>  <HBA>
4

>  <HBD>
3

>  <TPSA>
81.14

>  <cid>
5196

>  <dipole>
1.07

>  <excitation_energy_1>
5.596

>  <excitation_energy_2>
6.211

>  <excitation_energy_3>
6.379

>  <excitation_energy_4>
6.632

>  <homo_energy>
-6.351

>  <homo_lumo_gap>
7.832

>  <logP>
0.32

>  <lumo_energy>
1.48

>  <melting_point>
144.16

>  <molecular_refractivity>
15.73

>  <oscillator_strength_1>
0.0048

>  <oscillator_strength_2>
0.0109

>  <oscillator_strength_3>
0.0044

>  <oscillator_strength_4>
0.0085

>  <open_babel_can_smiles>
NNC(=N)O

>  <mulliken_charges>
10
1   0.638867
2   -0.656005
3   -0.567218
4   -0.498582
5   -0.600518
6   0.276262
7   0.328439
8   0.320475
9   0.334221
10   0.424059

>  <lowdin_charges>
10
1   0.149366
2   -0.489861
3   -0.456406
4   -0.260353
5   -0.382851
6   0.25636
7   0.267787
8   0.258784
9   0.285537
10   0.371639

$$$$

