PCCDB-ID:  3043
public computational chemistry database (PCCDB) project, http://pccdb.org

 29 31  0  0  1  0  0  0  0  0999 V2000
   -0.6865   -1.2291    0.1765 C   0  0  0  0  0  0  0  0  0  0  0  0
    0.8384   -1.3272    0.3580 C   0  0  0  0  0  0  0  0  0  0  0  0
   -1.4784    0.4628    1.9584 C   0  0  0  0  0  0  0  0  0  0  0  0
    3.7917   -1.9843   -3.0438 C   0  0  0  0  0  0  0  0  0  0  0  0
    0.9727    1.2416   -2.2813 C   0  0  0  0  0  0  0  0  0  0  0  0
   -0.9919    0.2366    0.5293 C   0  0  1  0  0  0  0  0  0  0  0  0
    1.2980    0.0832   -0.0186 C   0  0  1  0  0  0  0  0  0  0  0  0
    2.2565    0.1275   -3.5457 C   0  0  0  0  0  0  0  0  0  0  0  0
    2.3412   -0.4889   -2.2902 C   0  0  0  0  0  0  0  0  0  0  0  0
    3.0399   -0.4420   -4.5609 C   0  0  0  0  0  0  0  0  0  0  0  0
    3.0986   -1.5501   -1.9852 N   0  0  0  0  0  0  0  0  0  0  0  0
    3.8036   -1.4969   -4.2976 N   0  0  0  0  0  0  0  0  0  0  0  0
    1.3942    1.2068   -3.5244 N   0  0  0  0  0  0  0  0  0  0  0  0
    1.4881    0.2372   -1.4803 N   0  0  0  0  0  0  0  0  0  0  0  0
   -1.5569    1.8399    2.2678 O   0  0  0  0  0  0  0  0  0  0  0  0
    3.0546    0.0430   -5.8141 O   0  0  0  0  0  0  0  0  0  0  0  0
    0.2765    0.9537    0.4011 O   0  0  0  0  0  0  0  0  0  0  0  0
   -1.2285   -1.9270    0.8226 H   0  0  0  0  0  0  0  0  0  0  0  0
   -0.9696   -1.4461   -0.8579 H   0  0  0  0  0  0  0  0  0  0  0  0
    1.3200   -2.0985   -0.2447 H   0  0  0  0  0  0  0  0  0  0  0  0
    1.0970   -1.5018    1.4079 H   0  0  0  0  0  0  0  0  0  0  0  0
   -0.8149   -0.0744    2.6580 H   0  0  0  0  0  0  0  0  0  0  0  0
   -2.4879    0.0530    2.0729 H   0  0  0  0  0  0  0  0  0  0  0  0
    4.4321   -2.8461   -2.8717 H   0  0  0  0  0  0  0  0  0  0  0  0
    0.2844    1.9678   -1.8745 H   0  0  0  0  0  0  0  0  0  0  0  0
   -1.6974    0.7035   -0.1667 H   0  0  0  0  0  0  0  0  0  0  0  0
    2.2300    0.3835    0.4690 H   0  0  0  0  0  0  0  0  0  0  0  0
   -0.6841    2.2104    2.0550 H   0  0  0  0  0  0  0  0  0  0  0  0
    2.4529    0.8092   -5.8383 H   0  0  0  0  0  0  0  0  0  0  0  0
  1  2  1  0  0  0  0
  1  6  1  0  0  0  0
  1 18  1  0  0  0  0
  2 21  1  0  0  0  0
  3 23  1  0  0  0  0
  3 15  1  0  0  0  0
  3 22  1  0  0  0  0
  4 24  1  0  0  0  0
  4 11  2  0  0  0  0
  5 25  1  0  0  0  0
  5 14  1  0  0  0  0
  6 26  1  6  0  0  0
  6  3  1  0  0  0  0
  7  2  1  0  0  0  0
  7 17  1  0  0  0  0
  7 27  1  1  0  0  0
  8 13  1  0  0  0  0
  8  9  2  0  0  0  0
  9 11  1  0  0  0  0
  9 14  1  0  0  0  0
 10 12  2  0  0  0  0
 10  8  1  0  0  0  0
 12  4  1  0  0  0  0
 13  5  2  0  0  0  0
 14  7  1  0  0  0  0
 16 10  1  0  0  0  0
 17  6  1  0  0  0  0
 19  1  1  0  0  0  0
 20  2  1  0  0  0  0
 28 15  1  0  0  0  0
 29 16  1  0  0  0  0
M  END
>  <HBA>
6

>  <HBD>
2

>  <TPSA>
93.03

>  <cid>
3043

>  <dipole>
3.41

>  <excitation_energy_1>
4.89

>  <excitation_energy_2>
5.214

>  <excitation_energy_3>
5.357

>  <excitation_energy_4>
5.541

>  <homo_energy>
-6.561

>  <homo_lumo_gap>
5.682

>  <logP>
-0.21

>  <lumo_energy>
-0.879

>  <melting_point>
194.14

>  <molecular_refractivity>
58.77

>  <oscillator_strength_1>
0.0006

>  <oscillator_strength_2>
0.1877

>  <oscillator_strength_3>
0.0186

>  <oscillator_strength_4>
0.0014

>  <open_babel_can_smiles>
OC[C@@H]1CC[C@H](O1)n1cnc2c1ncnc2O

>  <mulliken_charges>
29
1   -0.329278
2   -0.314911
3   -0.0305
4   0.157891
5   0.225823
6   0.122019
7   0.27794
8   0.155806
9   0.535957
10   0.50031
11   -0.505603
12   -0.462876
13   -0.533074
14   -0.530575
15   -0.617713
16   -0.592761
17   -0.527648
18   0.163666
19   0.167522
20   0.203069
21   0.160145
22   0.121045
23   0.149697
24   0.154582
25   0.185904
26   0.152085
27   0.175321
28   0.403232
29   0.432924

>  <lowdin_charges>
29
1   -0.29453
2   -0.295848
3   -0.145344
4   -0.033111
5   -0.056784
6   -0.01654
7   0.071518
8   -0.070197
9   0.056409
10   0.147036
11   -0.19917
12   -0.18354
13   -0.197826
14   -0.044881
15   -0.460493
16   -0.328409
17   -0.272023
18   0.164276
19   0.15946
20   0.182916
21   0.157632
22   0.129358
23   0.151953
24   0.162309
25   0.183587
26   0.150761
27   0.161587
28   0.345676
29   0.374219

$$$$

