PCCDB-ID:  1809
public computational chemistry database (PCCDB) project, http://pccdb.org

 28 29  0  0  0  0  0  0  0  0999 V2000
    2.2892    1.4937   -0.0327 C   0  0  0  0  0  0  0  0  0  0  0  0
    1.0085    2.0194    0.0397 C   0  0  0  0  0  0  0  0  0  0  0  0
   -1.4807   -2.3750   -0.0699 C   0  0  0  0  0  0  0  0  0  0  0  0
   -1.3715   -3.0565    1.3058 C   0  0  0  0  0  0  0  0  0  0  0  0
    1.4365   -0.7892   -0.0903 C   0  0  0  0  0  0  0  0  0  0  0  0
   -2.0823    0.1262    0.0301 C   0  0  0  0  0  0  0  0  0  0  0  0
    2.5171    0.0968   -0.0999 C   0  0  0  0  0  0  0  0  0  0  0  0
   -1.1784   -0.9043   -0.0342 C   0  0  0  0  0  0  0  0  0  0  0  0
    0.1273   -0.2875   -0.0305 C   0  0  0  0  0  0  0  0  0  0  0  0
   -0.0647    1.1210    0.0359 C   0  0  0  0  0  0  0  0  0  0  0  0
    3.9172   -0.4151   -0.2028 C   0  0  0  0  0  0  0  0  0  0  0  0
   -1.5845   -4.5007    1.1725 N   0  0  0  0  0  0  0  0  0  0  0  0
    4.8936    0.1150   -0.8245 N   0  0  0  0  0  0  0  0  0  0  0  0
   -1.4217    1.3426    0.0809 N   0  0  0  0  0  0  0  0  0  0  0  0
    4.1554   -1.6024    0.4311 O   0  0  0  0  0  0  0  0  0  0  0  0
    3.1452    2.1617   -0.0111 H   0  0  0  0  0  0  0  0  0  0  0  0
    0.8482    3.0924    0.1034 H   0  0  0  0  0  0  0  0  0  0  0  0
   -2.4953   -2.5311   -0.4625 H   0  0  0  0  0  0  0  0  0  0  0  0
   -0.8021   -2.8920   -0.7593 H   0  0  0  0  0  0  0  0  0  0  0  0
   -2.0642   -2.5527    2.0042 H   0  0  0  0  0  0  0  0  0  0  0  0
   -0.3616   -2.9012    1.7050 H   0  0  0  0  0  0  0  0  0  0  0  0
    1.6069   -1.8598   -0.1780 H   0  0  0  0  0  0  0  0  0  0  0  0
   -3.1635    0.0927    0.0447 H   0  0  0  0  0  0  0  0  0  0  0  0
   -2.5485   -4.6781    0.8906 H   0  0  0  0  0  0  0  0  0  0  0  0
   -1.4709   -4.9536    2.0778 H   0  0  0  0  0  0  0  0  0  0  0  0
    4.5705    0.9444   -1.3249 H   0  0  0  0  0  0  0  0  0  0  0  0
   -1.8682    2.2463    0.0958 H   0  0  0  0  0  0  0  0  0  0  0  0
    3.4297   -1.7668    1.0530 H   0  0  0  0  0  0  0  0  0  0  0  0
  1 16  1  0  0  0  0
  1  2  2  0  0  0  0
  2 17  1  0  0  0  0
  3  8  1  0  0  0  0
  3  4  1  0  0  0  0
  4 21  1  0  0  0  0
  4 20  1  0  0  0  0
  5  9  1  0  0  0  0
  6 23  1  0  0  0  0
  6 14  1  0  0  0  0
  7  5  2  0  0  0  0
  7  1  1  0  0  0  0
  8  9  1  0  0  0  0
  8  6  2  0  0  0  0
  9 10  2  0  0  0  0
 10  2  1  0  0  0  0
 10 14  1  0  0  0  0
 11  7  1  0  0  0  0
 11 15  1  0  0  0  0
 12  4  1  0  0  0  0
 12 25  1  0  0  0  0
 13 11  2  0  0  0  0
 14 27  1  0  0  0  0
 15 28  1  0  0  0  0
 18  3  1  0  0  0  0
 19  3  1  0  0  0  0
 22  5  1  0  0  0  0
 24 12  1  0  0  0  0
 26 13  1  0  0  0  0
M  END
>  <HBA>
3

>  <HBD>
3

>  <TPSA>
84.9

>  <cid>
1809

>  <dipole>
8.34

>  <excitation_energy_1>
4.333

>  <excitation_energy_2>
4.506

>  <excitation_energy_3>
4.922

>  <excitation_energy_4>
5.126

>  <homo_energy>
-5.804

>  <homo_lumo_gap>
5.059

>  <logP>
2.169

>  <lumo_energy>
-0.746

>  <melting_point>
244.16

>  <molecular_refractivity>
58.87

>  <oscillator_strength_1>
0.0302

>  <oscillator_strength_2>
0.0114

>  <oscillator_strength_3>
0.0015

>  <oscillator_strength_4>
0.0067

>  <open_babel_can_smiles>
NCCc1c[nH]c2c1cc(cc2)C(=N)O

>  <mulliken_charges>
28
1   -0.201014
2   -0.161729
3   -0.339846
4   -0.127622
5   -0.290757
6   -0.003622
7   0.06567
8   0.079548
9   0.079708
10   0.323072
11   0.421781
12   -0.713857
13   -0.590979
14   -0.691721
15   -0.579343
16   0.139608
17   0.131761
18   0.133485
19   0.162596
20   0.11474
21   0.140516
22   0.149495
23   0.151441
24   0.292262
25   0.298063
26   0.282954
27   0.330956
28   0.402835

>  <lowdin_charges>
28
1   -0.163815
2   -0.176838
3   -0.273351
4   -0.20395
5   -0.169772
6   -0.129378
7   -0.065111
8   -0.055003
9   -0.032592
10   0.036379
11   0.127026
12   -0.556632
13   -0.398664
14   -0.196508
15   -0.368467
16   0.16461
17   0.158837
18   0.145409
19   0.161102
20   0.119739
21   0.141332
22   0.162656
23   0.163837
24   0.249673
25   0.255765
26   0.256388
27   0.293615
28   0.353713

$$$$

