PCCDB-ID:  1726
public computational chemistry database (PCCDB) project, http://pccdb.org

 21 20  0  0  0  0  0  0  0  0999 V2000
    1.3468    0.3369   -0.4071 C   0  0  0  0  0  0  0  0  0  0  0  0
    0.4335   -0.5213    0.4764 C   0  0  0  0  0  0  0  0  0  0  0  0
    2.8356    0.1812   -0.0764 C   0  0  0  0  0  0  0  0  0  0  0  0
   -1.0547   -0.3013    0.1625 C   0  0  0  0  0  0  0  0  0  0  0  0
    3.1194    0.6246    1.2946 N   0  0  0  0  0  0  0  0  0  0  0  0
   -1.9714   -0.7589    2.6653 O   0  0  0  0  0  0  0  0  0  0  0  0
   -3.6085   -0.8101    0.6688 O   0  0  0  0  0  0  0  0  0  0  0  0
   -1.9863   -2.8268    1.0899 O   0  0  0  0  0  0  0  0  0  0  0  0
   -2.1495   -1.3493    1.1525 P   0  0  0  0  0  0  0  0  0  0  0  0
    1.0668    1.3972   -0.3069 H   0  0  0  0  0  0  0  0  0  0  0  0
    1.1937    0.0807   -1.4649 H   0  0  0  0  0  0  0  0  0  0  0  0
    0.6325   -0.2905    1.5274 H   0  0  0  0  0  0  0  0  0  0  0  0
    0.6782   -1.5818    0.3333 H   0  0  0  0  0  0  0  0  0  0  0  0
    3.4273    0.7081   -0.8468 H   0  0  0  0  0  0  0  0  0  0  0  0
    3.1104   -0.8796   -0.1436 H   0  0  0  0  0  0  0  0  0  0  0  0
   -1.2748   -0.5254   -0.8885 H   0  0  0  0  0  0  0  0  0  0  0  0
   -1.3466    0.7420    0.3356 H   0  0  0  0  0  0  0  0  0  0  0  0
    3.0219    1.6382    1.3513 H   0  0  0  0  0  0  0  0  0  0  0  0
    4.0892    0.4222    1.5310 H   0  0  0  0  0  0  0  0  0  0  0  0
   -1.8453   -1.5006    3.2803 H   0  0  0  0  0  0  0  0  0  0  0  0
   -4.2811   -1.4962    0.8175 H   0  0  0  0  0  0  0  0  0  0  0  0
  1 10  1  0  0  0  0
  1  3  1  0  0  0  0
  1  2  1  0  0  0  0
  2 12  1  0  0  0  0
  3  5  1  0  0  0  0
  4 17  1  0  0  0  0
  4  2  1  0  0  0  0
  4  9  1  0  0  0  0
  5 18  1  0  0  0  0
  5 19  1  0  0  0  0
  6 20  1  0  0  0  0
  7 21  1  0  0  0  0
  7  9  1  0  0  0  0
  8  9  2  0  0  0  0
  9  6  1  0  0  0  0
 11  1  1  0  0  0  0
 13  2  1  0  0  0  0
 14  3  1  0  0  0  0
 15  3  1  0  0  0  0
 16  4  1  0  0  0  0
M  END
>  <HBA>
4

>  <HBD>
3

>  <TPSA>
93.36

>  <cid>
1726

>  <dipole>
2.35

>  <excitation_energy_1>
5.641

>  <excitation_energy_2>
5.965

>  <excitation_energy_3>
6.464

>  <excitation_energy_4>
6.533

>  <homo_energy>
-6.395

>  <homo_lumo_gap>
7.717

>  <logP>
0.603

>  <lumo_energy>
1.322

>  <melting_point>
115.35

>  <molecular_refractivity>
35.04

>  <oscillator_strength_1>
0.0103

>  <oscillator_strength_2>
0.0041

>  <oscillator_strength_3>
0.0365

>  <oscillator_strength_4>
0.0004

>  <open_babel_can_smiles>
NCCCCP(=O)(O)O

>  <mulliken_charges>
21
1   -0.255786
2   -0.269904
3   -0.139792
4   -0.473032
5   -0.712257
6   -0.656977
7   -0.649661
8   -0.568923
9   1.040388
10   0.125855
11   0.132006
12   0.181273
13   0.157659
14   0.115803
15   0.14176
16   0.181273
17   0.186626
18   0.292744
19   0.298819
20   0.43601
21   0.436117

>  <lowdin_charges>
21
1   -0.274836
2   -0.271628
3   -0.204101
4   -0.446032
5   -0.55451
6   -0.58712
7   -0.580653
8   -0.611472
9   1.049319
10   0.135404
11   0.141605
12   0.163902
13   0.153454
14   0.121716
15   0.141287
16   0.176988
17   0.180404
18   0.249135
19   0.254787
20   0.381856
21   0.380497

$$$$

