PCCDB-ID:  5446
public computational chemistry database (PCCDB) project, http://pccdb.org

 27 28  0  0  1  0  0  0  0  0999 V2000
    0.8223    0.0397    0.0557 C   0  0  0  0  0  0  0  0  0  0  0  0
    2.8267    0.0172    1.5123 C   0  0  0  0  0  0  0  0  0  0  0  0
    2.6960    2.6420   -0.4134 C   0  0  0  0  0  0  0  0  0  0  0  0
    2.4882   -0.7302   -2.2625 C   0  0  0  0  0  0  0  0  0  0  0  0
    2.5347    0.8261   -2.2607 C   0  0  0  0  0  0  0  0  0  0  0  0
    4.4880   -0.7227   -0.8059 C   0  0  0  0  0  0  0  0  0  0  0  0
    2.9883   -1.0834   -0.8420 C   0  0  1  0  0  0  0  0  0  0  0  0
    4.4705    0.8023   -0.7990 C   0  0  0  0  0  0  0  0  0  0  0  0
    2.3602    0.0386    0.0443 C   0  0  0  0  0  0  0  0  0  0  0  0
    3.0021    1.2073   -0.8067 C   0  0  1  0  0  0  0  0  0  0  0  0
    5.7808    1.7779   -0.8063 S   0  0  0  0  0  0  0  0  0  0  0  0
    0.4535   -0.8694    0.5470 H   0  0  0  0  0  0  0  0  0  0  0  0
    0.3714    0.0810   -0.9385 H   0  0  0  0  0  0  0  0  0  0  0  0
    0.4408    0.8940    0.6266 H   0  0  0  0  0  0  0  0  0  0  0  0
    2.5038   -0.9103    2.0010 H   0  0  0  0  0  0  0  0  0  0  0  0
    2.3796    0.8495    2.0680 H   0  0  0  0  0  0  0  0  0  0  0  0
    3.9107    0.0981    1.6307 H   0  0  0  0  0  0  0  0  0  0  0  0
    3.1992    3.3441   -1.0856 H   0  0  0  0  0  0  0  0  0  0  0  0
    3.0442    2.8618    0.6013 H   0  0  0  0  0  0  0  0  0  0  0  0
    1.6183    2.8345   -0.4604 H   0  0  0  0  0  0  0  0  0  0  0  0
    3.1295   -1.1680   -3.0346 H   0  0  0  0  0  0  0  0  0  0  0  0
    1.4752   -1.1034   -2.4409 H   0  0  0  0  0  0  0  0  0  0  0  0
    1.5490    1.2673   -2.4434 H   0  0  0  0  0  0  0  0  0  0  0  0
    3.2132    1.2384   -3.0136 H   0  0  0  0  0  0  0  0  0  0  0  0
    5.0565   -1.1073   -1.6603 H   0  0  0  0  0  0  0  0  0  0  0  0
    4.9946   -1.0901    0.0937 H   0  0  0  0  0  0  0  0  0  0  0  0
    2.7696   -2.1085   -0.5265 H   0  0  0  0  0  0  0  0  0  0  0  0
  1 12  1  0  0  0  0
  1 14  1  0  0  0  0
  2 17  1  0  0  0  0
  2 15  1  0  0  0  0
  2 16  1  0  0  0  0
  3 19  1  0  0  0  0
  4  5  1  0  0  0  0
  4  7  1  0  0  0  0
  5 10  1  0  0  0  0
  6  8  1  0  0  0  0
  6 26  1  0  0  0  0
  7  6  1  0  0  0  0
  7 27  1  1  0  0  0
  7  9  1  0  0  0  0
  9  1  1  0  0  0  0
  9  2  1  0  0  0  0
 10  8  1  0  0  0  0
 10  3  1  1  0  0  0
 10  9  1  0  0  0  0
 11  8  2  0  0  0  0
 13  1  1  0  0  0  0
 18  3  1  0  0  0  0
 20  3  1  0  0  0  0
 21  4  1  0  0  0  0
 22  4  1  0  0  0  0
 23  5  1  0  0  0  0
 24  5  1  0  0  0  0
 25  6  1  0  0  0  0
M  END
>  <HBA>
1

>  <HBD>
0

>  <TPSA>
32.09

>  <cid>
5446

>  <dipole>
3.41

>  <excitation_energy_1>
2.542

>  <excitation_energy_2>
5.138

>  <excitation_energy_3>
5.189

>  <excitation_energy_4>
5.336

>  <homo_energy>
-5.665

>  <homo_lumo_gap>
3.946

>  <logP>
3.203

>  <lumo_energy>
-1.72

>  <melting_point>
83.67

>  <molecular_refractivity>
53.23

>  <oscillator_strength_1>
0.0

>  <oscillator_strength_2>
0.0162

>  <oscillator_strength_3>
0.1718

>  <oscillator_strength_4>
0.0464

>  <open_babel_can_smiles>
S=C1C[C@H]2C([C@]1(C)CC2)(C)C

>  <mulliken_charges>
27
1   -0.468083
2   -0.469413
3   -0.475517
4   -0.279666
5   -0.293184
6   -0.310959
7   -0.112248
8   0.006792
9   0.090598
10   0.062121
11   -0.174084
12   0.146061
13   0.147654
14   0.148998
15   0.144441
16   0.150064
17   0.156588
18   0.169745
19   0.156117
20   0.138925
21   0.140604
22   0.14404
23   0.151172
24   0.157509
25   0.171591
26   0.179495
27   0.120638

>  <lowdin_charges>
27
1   -0.446773
2   -0.447136
3   -0.440507
4   -0.286407
5   -0.278714
6   -0.292866
7   -0.135279
8   -0.066893
9   0.006969
10   -0.008273
11   -0.089955
12   0.153571
13   0.151969
14   0.153644
15   0.151922
16   0.154662
17   0.154446
18   0.168252
19   0.157767
20   0.147653
21   0.148655
22   0.1471
23   0.15265
24   0.157568
25   0.169746
26   0.173596
27   0.142632

$$$$

