PCCDB-ID:  782
public computational chemistry database (PCCDB) project, http://pccdb.org

 20 20  0  0  1  0  0  0  0  0999 V2000
    1.1023    0.2371    0.0238 C   0  0  0  0  0  0  0  0  0  0  0  0
    0.6021    1.3482    0.9478 C   0  0  0  0  0  0  0  0  0  0  0  0
    2.5897   -0.0832    0.2664 C   0  0  2  0  0  0  0  0  0  0  0  0
    1.1400    2.7181    0.5473 C   0  0  0  0  0  0  0  0  0  0  0  0
    3.1454   -1.1192   -0.6993 C   0  0  0  0  0  0  0  0  0  0  0  0
    3.3684   -1.8455    1.2507 C   0  0  0  0  0  0  0  0  0  0  0  0
    2.8186   -0.7161    1.5612 N   0  0  0  0  0  0  0  0  0  0  0  0
    3.5995   -2.1667   -0.1000 N   0  0  0  0  0  0  0  0  0  0  0  0
    1.7957    2.9308   -0.4447 O   0  0  0  0  0  0  0  0  0  0  0  0
    0.8230    3.7405    1.3817 O   0  0  0  0  0  0  0  0  0  0  0  0
    3.1677   -0.9880   -2.0277 O   0  0  0  0  0  0  0  0  0  0  0  0
    3.7506   -2.7641    2.1434 O   0  0  0  0  0  0  0  0  0  0  0  0
    0.9494    0.5466   -1.0170 H   0  0  0  0  0  0  0  0  0  0  0  0
    0.5194   -0.6745    0.1923 H   0  0  0  0  0  0  0  0  0  0  0  0
    0.8937    1.1253    1.9826 H   0  0  0  0  0  0  0  0  0  0  0  0
   -0.4958    1.3979    0.9290 H   0  0  0  0  0  0  0  0  0  0  0  0
    3.1706    0.8463    0.1818 H   0  0  0  0  0  0  0  0  0  0  0  0
    0.3120    3.4078    2.1385 H   0  0  0  0  0  0  0  0  0  0  0  0
    2.8236   -0.1120   -2.2703 H   0  0  0  0  0  0  0  0  0  0  0  0
    3.5420   -2.3954    3.0198 H   0  0  0  0  0  0  0  0  0  0  0  0
  1 14  1  0  0  0  0
  1  3  1  0  0  0  0
  1  2  1  0  0  0  0
  2 15  1  0  0  0  0
  3 17  1  6  0  0  0
  3  7  1  0  0  0  0
  4  2  1  0  0  0  0
  4 10  1  0  0  0  0
  5  8  2  0  0  0  0
  5  3  1  0  0  0  0
  6  7  2  0  0  0  0
  6 12  1  0  0  0  0
  8  6  2  0  0  0  0
  9  4  2  0  0  0  0
 10 18  1  0  0  0  0
 11  5  1  0  0  0  0
 12 20  1  0  0  0  0
 13  1  1  0  0  0  0
 16  2  1  0  0  0  0
 19 11  1  0  0  0  0
M  END
>  <HBA>
6

>  <HBD>
3

>  <TPSA>
95.5

>  <cid>
782

>  <dipole>
4.69

>  <excitation_energy_1>
5.367

>  <excitation_energy_2>
5.37

>  <excitation_energy_3>
5.709

>  <excitation_energy_4>
5.869

>  <homo_energy>
-6.74

>  <homo_lumo_gap>
6.085

>  <logP>
-0.283

>  <lumo_energy>
-0.656

>  <melting_point>
180.65

>  <molecular_refractivity>
44.84

>  <oscillator_strength_1>
0.036

>  <oscillator_strength_2>
0.0149

>  <oscillator_strength_3>
0.0007

>  <oscillator_strength_4>
0.0021

>  <open_babel_can_smiles>
OC(=O)CC[C@H]1N=[C](=[N]=C1O)O

>  <mulliken_charges>
20
1   -0.248834
2   -0.412772
3   -0.097248
4   0.613009
5   0.526274
6   0.621239
7   -0.494339
8   -0.467534
9   -0.451724
10   -0.560181
11   -0.579824
12   -0.588602
13   0.146474
14   0.160374
15   0.198129
16   0.176927
17   0.192637
18   0.414232
19   0.433619
20   0.418142

>  <lowdin_charges>
20
1   -0.266175
2   -0.322031
3   -0.100891
4   0.196041
5   0.141265
6   0.146803
7   -0.299615
8   -0.195644
9   -0.250957
10   -0.34755
11   -0.313042
12   -0.328063
13   0.149848
14   0.161713
15   0.177186
16   0.168789
17   0.175426
18   0.362891
19   0.374745
20   0.36926

$$$$

