PCCDB-ID:  4678
public computational chemistry database (PCCDB) project, http://pccdb.org

 33 32  0  0  1  0  0  0  0  0999 V2000
   -0.1955    0.8235    2.1474 C   0  0  0  0  0  0  0  0  0  0  0  0
    1.7549    2.3668    2.4742 C   0  0  0  0  0  0  0  0  0  0  0  0
    4.4028    2.8788   -1.5453 C   0  0  0  0  0  0  0  0  0  0  0  0
    3.5891    2.5319   -0.2897 C   0  0  0  0  0  0  0  0  0  0  0  0
    4.3510    1.7853   -2.6121 C   0  0  0  0  0  0  0  0  0  0  0  0
    1.7849    0.1353    3.5664 C   0  0  0  0  0  0  0  0  0  0  0  0
    1.9870    0.2635    1.0154 C   0  0  2  0  0  0  0  0  0  0  0  0
    3.5144    0.4555    0.9086 C   0  0  0  0  0  0  0  0  0  0  0  0
    1.3390    0.8966    2.2955 C   0  0  0  0  0  0  0  0  0  0  0  0
    4.1863    1.3952    0.3866 N   0  0  0  0  0  0  0  0  0  0  0  0
    5.0676    2.1333   -3.7943 O   0  0  0  0  0  0  0  0  0  0  0  0
    1.3120   -1.2261    3.6208 O   0  0  0  0  0  0  0  0  0  0  0  0
    1.7209   -1.1449    0.9383 O   0  0  0  0  0  0  0  0  0  0  0  0
    4.2011   -0.5678    1.4884 O   0  0  0  0  0  0  0  0  0  0  0  0
   -0.6942    1.1687    3.0623 H   0  0  0  0  0  0  0  0  0  0  0  0
   -0.5406   -0.1906    1.9222 H   0  0  0  0  0  0  0  0  0  0  0  0
   -0.5313    1.4676    1.3275 H   0  0  0  0  0  0  0  0  0  0  0  0
    1.2421    2.7986    3.3418 H   0  0  0  0  0  0  0  0  0  0  0  0
    1.4796    2.9635    1.5994 H   0  0  0  0  0  0  0  0  0  0  0  0
    2.8334    2.4693    2.6304 H   0  0  0  0  0  0  0  0  0  0  0  0
    5.4462    3.0478   -1.2459 H   0  0  0  0  0  0  0  0  0  0  0  0
    4.0292    3.8155   -1.9785 H   0  0  0  0  0  0  0  0  0  0  0  0
    2.5326    2.3849   -0.5748 H   0  0  0  0  0  0  0  0  0  0  0  0
    3.6108    3.3984    0.3849 H   0  0  0  0  0  0  0  0  0  0  0  0
    3.3156    1.6267   -2.9370 H   0  0  0  0  0  0  0  0  0  0  0  0
    4.7134    0.8365   -2.1904 H   0  0  0  0  0  0  0  0  0  0  0  0
    1.4481    0.6795    4.4592 H   0  0  0  0  0  0  0  0  0  0  0  0
    2.8742    0.0605    3.6054 H   0  0  0  0  0  0  0  0  0  0  0  0
    1.5199    0.7259    0.1389 H   0  0  0  0  0  0  0  0  0  0  0  0
    6.0050    2.1946   -3.5531 H   0  0  0  0  0  0  0  0  0  0  0  0
    0.3710   -1.2107    3.8553 H   0  0  0  0  0  0  0  0  0  0  0  0
    1.4469   -1.4460    1.8310 H   0  0  0  0  0  0  0  0  0  0  0  0
    3.5734   -1.3196    1.4852 H   0  0  0  0  0  0  0  0  0  0  0  0
  1  9  1  0  0  0  0
  1 15  1  0  0  0  0
  2 20  1  0  0  0  0
  2 18  1  0  0  0  0
  3 21  1  0  0  0  0
  3  4  1  0  0  0  0
  4 24  1  0  0  0  0
  4 10  1  0  0  0  0
  5 26  1  0  0  0  0
  5  3  1  0  0  0  0
  6 28  1  0  0  0  0
  6 12  1  0  0  0  0
  6 27  1  0  0  0  0
  7 29  1  6  0  0  0
  7  9  1  0  0  0  0
  8  7  1  0  0  0  0
  8 14  1  0  0  0  0
  9  2  1  0  0  0  0
  9  6  1  0  0  0  0
 10  8  2  0  0  0  0
 11 30  1  0  0  0  0
 11  5  1  0  0  0  0
 12 31  1  0  0  0  0
 13  7  1  0  0  0  0
 13 32  1  0  0  0  0
 16  1  1  0  0  0  0
 17  1  1  0  0  0  0
 19  2  1  0  0  0  0
 22  3  1  0  0  0  0
 23  4  1  0  0  0  0
 25  5  1  0  0  0  0
 33 14  1  0  0  0  0
M  END
>  <HBA>
5

>  <HBD>
4

>  <TPSA>
89.79

>  <cid>
4678

>  <dipole>
5.88

>  <excitation_energy_1>
5.33

>  <excitation_energy_2>
5.613

>  <excitation_energy_3>
5.796

>  <excitation_energy_4>
6.057

>  <homo_energy>
-6.359

>  <homo_lumo_gap>
6.857

>  <logP>
-0.745

>  <lumo_energy>
0.498

>  <melting_point>
94.56

>  <molecular_refractivity>
51.6

>  <oscillator_strength_1>
0.003

>  <oscillator_strength_2>
0.0008

>  <oscillator_strength_3>
0.0121

>  <oscillator_strength_4>
0.0173

>  <open_babel_can_smiles>
OCCC/N=C(\[C@H](C(CO)(C)C)O)/O

>  <mulliken_charges>
33
1   -0.471594
2   -0.468951
3   -0.270692
4   -0.157116
5   -0.031306
6   -0.082851
7   0.06501
8   0.489914
9   0.033853
10   -0.429759
11   -0.619891
12   -0.631283
13   -0.682722
14   -0.60396
15   0.142263
16   0.150876
17   0.160876
18   0.145967
19   0.157313
20   0.173567
21   0.136391
22   0.136043
23   0.115208
24   0.143554
25   0.133449
26   0.142866
27   0.142253
28   0.187364
29   0.148314
30   0.386079
31   0.410414
32   0.43217
33   0.416384

>  <lowdin_charges>
33
1   -0.454116
2   -0.44527
3   -0.295927
4   -0.199667
5   -0.138112
6   -0.148719
7   -0.0325
8   0.105808
9   -0.019402
10   -0.209088
11   -0.469166
12   -0.45789
13   -0.479981
14   -0.376505
15   0.14887
16   0.151399
17   0.160979
18   0.153246
19   0.158915
20   0.162546
21   0.14352
22   0.145961
23   0.118451
24   0.147418
25   0.138623
26   0.136535
27   0.14324
28   0.164463
29   0.153696
30   0.338796
31   0.351364
32   0.346964
33   0.35555

$$$$

