PCCDB-ID:  93
public computational chemistry database (PCCDB) project, http://pccdb.org

 19 18  0  0  0  0  0  0  0  0999 V2000
    0.9943    0.3784   -0.4824 C   0  0  0  0  0  0  0  0  0  0  0  0
    0.3281    1.7471   -0.7127 C   0  0  0  0  0  0  0  0  0  0  0  0
    3.1937   -0.8855    0.0885 C   0  0  0  0  0  0  0  0  0  0  0  0
    2.5014    0.4014   -0.3607 C   0  0  0  0  0  0  0  0  0  0  0  0
    0.4431    2.2861   -2.1418 C   0  0  0  0  0  0  0  0  0  0  0  0
    2.9832   -1.1784    1.5809 C   0  0  0  0  0  0  0  0  0  0  0  0
    3.1835    1.3856   -0.6025 O   0  0  0  0  0  0  0  0  0  0  0  0
   -0.5048    2.3791   -2.8849 O   0  0  0  0  0  0  0  0  0  0  0  0
    1.6790    2.6561   -2.5357 O   0  0  0  0  0  0  0  0  0  0  0  0
    2.0420   -0.7872    2.2232 O   0  0  0  0  0  0  0  0  0  0  0  0
    3.9291   -1.9564    2.1544 O   0  0  0  0  0  0  0  0  0  0  0  0
    0.7297   -0.3299   -1.2824 H   0  0  0  0  0  0  0  0  0  0  0  0
    0.6185   -0.0683    0.4464 H   0  0  0  0  0  0  0  0  0  0  0  0
    0.7490    2.4758   -0.0089 H   0  0  0  0  0  0  0  0  0  0  0  0
   -0.7393    1.6569   -0.5034 H   0  0  0  0  0  0  0  0  0  0  0  0
    4.2578   -0.7874   -0.1484 H   0  0  0  0  0  0  0  0  0  0  0  0
    2.7920   -1.7414   -0.4718 H   0  0  0  0  0  0  0  0  0  0  0  0
    2.3233    2.4685   -1.8187 H   0  0  0  0  0  0  0  0  0  0  0  0
    4.6303   -2.1775    1.5196 H   0  0  0  0  0  0  0  0  0  0  0  0
  1  4  1  0  0  0  0
  1 13  1  0  0  0  0
  2 15  1  0  0  0  0
  2  1  1  0  0  0  0
  2 14  1  0  0  0  0
  3  6  1  0  0  0  0
  4  3  1  0  0  0  0
  5  2  1  0  0  0  0
  6 11  1  0  0  0  0
  6 10  2  0  0  0  0
  7  4  2  0  0  0  0
  8  5  2  0  0  0  0
  9  5  1  0  0  0  0
  9 18  1  0  0  0  0
 12  1  1  0  0  0  0
 16  3  1  0  0  0  0
 17  3  1  0  0  0  0
 19 11  1  0  0  0  0
M  END
>  <HBA>
5

>  <HBD>
2

>  <TPSA>
91.67

>  <cid>
93

>  <dipole>
6.18

>  <excitation_energy_1>
4.477

>  <excitation_energy_2>
4.727

>  <excitation_energy_3>
5.56

>  <excitation_energy_4>
5.666

>  <homo_energy>
-7.021

>  <homo_lumo_gap>
5.295

>  <logP>
-0.105

>  <lumo_energy>
-1.725

>  <melting_point>
149.15

>  <molecular_refractivity>
34.7

>  <oscillator_strength_1>
0.0009

>  <oscillator_strength_2>
0.0023

>  <oscillator_strength_3>
0.0017

>  <oscillator_strength_4>
0.0111

>  <open_babel_can_smiles>
OC(=O)CCC(=O)CC(=O)O

>  <mulliken_charges>
19
1   -0.384936
2   -0.379023
3   -0.49237
4   0.490556
5   0.575992
6   0.617246
7   -0.455254
8   -0.445849
9   -0.585747
10   -0.423394
11   -0.547332
12   0.188758
13   0.221732
14   0.177685
15   0.184939
16   0.190576
17   0.209189
18   0.43752
19   0.41971

>  <lowdin_charges>
19
1   -0.312753
2   -0.314186
3   -0.350212
4   0.192931
5   0.189179
6   0.205728
7   -0.234443
8   -0.253094
9   -0.370482
10   -0.230769
11   -0.336955
12   0.178476
13   0.195139
14   0.170855
15   0.177791
16   0.177534
17   0.192022
18   0.357057
19   0.36618

$$$$

