PCCDB-ID:  1217
public computational chemistry database (PCCDB) project, http://pccdb.org

 21 21  0  0  1  0  0  0  0  0999 V2000
   -0.6452    1.4064    0.0654 C   0  0  0  0  0  0  0  0  0  0  0  0
   -1.2430    0.1487    0.0351 C   0  0  0  0  0  0  0  0  0  0  0  0
    0.7428    1.5371   -0.0009 C   0  0  0  0  0  0  0  0  0  0  0  0
    0.9429   -0.8751   -0.1324 C   0  0  0  0  0  0  0  0  0  0  0  0
   -0.4458   -1.0037   -0.0709 C   0  0  0  0  0  0  0  0  0  0  0  0
    1.5386    0.3920   -0.0991 C   0  0  0  0  0  0  0  0  0  0  0  0
   -1.0933   -2.3800   -0.1271 C   0  0  1  0  0  0  0  0  0  0  0  0
   -2.0103   -2.6376    1.0966 C   0  0  0  0  0  0  0  0  0  0  0  0
   -1.7712   -2.6027   -1.4005 N   0  0  0  0  0  0  0  0  0  0  0  0
    2.9012    0.4390   -0.1661 O   0  0  0  0  0  0  0  0  0  0  0  0
   -3.0838   -3.1823    1.0122 O   0  0  0  0  0  0  0  0  0  0  0  0
   -1.5053   -2.2825    2.3026 O   0  0  0  0  0  0  0  0  0  0  0  0
   -1.2614    2.2973    0.1481 H   0  0  0  0  0  0  0  0  0  0  0  0
   -2.3247    0.0607    0.1010 H   0  0  0  0  0  0  0  0  0  0  0  0
    1.2047    2.5222    0.0264 H   0  0  0  0  0  0  0  0  0  0  0  0
    1.5818   -1.7483   -0.2251 H   0  0  0  0  0  0  0  0  0  0  0  0
   -0.2947   -3.1324   -0.0388 H   0  0  0  0  0  0  0  0  0  0  0  0
   -2.3845   -1.8111   -1.5921 H   0  0  0  0  0  0  0  0  0  0  0  0
   -2.3938   -3.4032   -1.2839 H   0  0  0  0  0  0  0  0  0  0  0  0
    3.1901    1.3645   -0.1410 H   0  0  0  0  0  0  0  0  0  0  0  0
   -0.6805   -1.7816    2.1691 H   0  0  0  0  0  0  0  0  0  0  0  0
  1 13  1  0  0  0  0
  2  1  1  0  0  0  0
  2 14  1  0  0  0  0
  3 15  1  0  0  0  0
  3  1  2  0  0  0  0
  4  6  2  0  0  0  0
  4  5  1  0  0  0  0
  5  2  2  0  0  0  0
  6  3  1  0  0  0  0
  7  5  1  0  0  0  0
  7 17  1  1  0  0  0
  7  8  1  0  0  0  0
  8 12  1  0  0  0  0
  9 19  1  0  0  0  0
  9  7  1  0  0  0  0
 10 20  1  0  0  0  0
 10  6  1  0  0  0  0
 11  8  2  0  0  0  0
 16  4  1  0  0  0  0
 18  9  1  0  0  0  0
 21 12  1  0  0  0  0
M  END
>  <HBA>
4

>  <HBD>
3

>  <TPSA>
83.55

>  <cid>
1217

>  <dipole>
4.94

>  <excitation_energy_1>
4.953

>  <excitation_energy_2>
5.212

>  <excitation_energy_3>
5.393

>  <excitation_energy_4>
5.426

>  <homo_energy>
-6.455

>  <homo_lumo_gap>
5.804

>  <logP>
1.177

>  <lumo_energy>
-0.65

>  <melting_point>
178.87

>  <molecular_refractivity>
42.72

>  <oscillator_strength_1>
0.0394

>  <oscillator_strength_2>
0.002

>  <oscillator_strength_3>
0.0018

>  <oscillator_strength_4>
0.0009

>  <open_babel_can_smiles>
OC(=O)[C@H](c1cccc(c1)O)N

>  <mulliken_charges>
21
1   -0.133112
2   -0.183302
3   -0.19198
4   -0.224654
5   0.115987
6   0.359129
7   -0.1617
8   0.580857
9   -0.691439
10   -0.637067
11   -0.453111
12   -0.561906
13   0.143166
14   0.14308
15   0.12747
16   0.150406
17   0.170981
18   0.303004
19   0.317869
20   0.411432
21   0.414889

>  <lowdin_charges>
21
1   -0.137816
2   -0.187606
3   -0.209733
4   -0.19464
5   -0.014926
6   0.108768
7   -0.105076
8   0.166888
9   -0.53223
10   -0.371444
11   -0.242803
12   -0.349656
13   0.165345
14   0.161229
15   0.157698
16   0.172597
17   0.165146
18   0.259374
19   0.267602
20   0.359048
21   0.362236

$$$$

