PCCDB-ID:  51
public computational chemistry database (PCCDB) project, http://pccdb.org

 16 15  0  0  0  0  0  0  0  0999 V2000
    2.3323   -1.1131   -0.4816 C   0  0  0  0  0  0  0  0  0  0  0  0
    1.3696   -2.2082   -0.9754 C   0  0  0  0  0  0  0  0  0  0  0  0
    3.7840   -1.3413   -0.8228 C   0  0  0  0  0  0  0  0  0  0  0  0
    1.3697   -3.4905   -0.1355 C   0  0  0  0  0  0  0  0  0  0  0  0
    4.7147   -0.1352   -0.5664 C   0  0  0  0  0  0  0  0  0  0  0  0
    4.2395   -2.3738   -1.2777 O   0  0  0  0  0  0  0  0  0  0  0  0
    0.4361   -3.8164    0.5571 O   0  0  0  0  0  0  0  0  0  0  0  0
    2.4826   -4.2496   -0.2104 O   0  0  0  0  0  0  0  0  0  0  0  0
    5.9957   -0.4253   -0.8239 O   0  0  0  0  0  0  0  0  0  0  0  0
    4.3060    0.9345   -0.1744 O   0  0  0  0  0  0  0  0  0  0  0  0
    2.2587   -0.9738    0.6072 H   0  0  0  0  0  0  0  0  0  0  0  0
    2.0507   -0.1376   -0.8968 H   0  0  0  0  0  0  0  0  0  0  0  0
    1.6014   -2.4535   -2.0196 H   0  0  0  0  0  0  0  0  0  0  0  0
    0.3502   -1.8203   -0.9391 H   0  0  0  0  0  0  0  0  0  0  0  0
    3.1463   -3.8140   -0.7854 H   0  0  0  0  0  0  0  0  0  0  0  0
    6.5116    0.3827   -0.6369 H   0  0  0  0  0  0  0  0  0  0  0  0
  1 11  1  0  0  0  0
  2 14  1  0  0  0  0
  2  1  1  0  0  0  0
  2  4  1  0  0  0  0
  3  5  1  0  0  0  0
  3  1  1  0  0  0  0
  4  7  2  0  0  0  0
  5 10  2  0  0  0  0
  6  3  2  0  0  0  0
  8  4  1  0  0  0  0
  9 16  1  0  0  0  0
  9  5  1  0  0  0  0
 12  1  1  0  0  0  0
 13  2  1  0  0  0  0
 15  8  1  0  0  0  0
M  END
>  <HBA>
5

>  <HBD>
2

>  <TPSA>
91.67

>  <cid>
51

>  <dipole>
5.43

>  <excitation_energy_1>
3.332

>  <excitation_energy_2>
3.607

>  <excitation_energy_3>
4.693

>  <excitation_energy_4>
4.975

>  <homo_energy>
-7.178

>  <homo_lumo_gap>
4.169

>  <logP>
-0.495

>  <lumo_energy>
-3.01

>  <melting_point>
149.81

>  <molecular_refractivity>
29.89

>  <oscillator_strength_1>
0.0003

>  <oscillator_strength_2>
0.003

>  <oscillator_strength_3>
0.0009

>  <oscillator_strength_4>
0.0001

>  <open_babel_can_smiles>
OC(=O)CCC(=O)C(=O)O

>  <mulliken_charges>
16
1   -0.369119
2   -0.382568
3   0.412622
4   0.578971
5   0.538952
6   -0.434802
7   -0.440623
8   -0.580856
9   -0.532851
10   -0.433688
11   0.212942
12   0.206146
13   0.173682
14   0.1882
15   0.437137
16   0.425853

>  <lowdin_charges>
16
1   -0.298983
2   -0.313474
3   0.15339
4   0.187632
5   0.16268
6   -0.193316
7   -0.247054
8   -0.365836
9   -0.312207
10   -0.231842
11   0.190598
12   0.190459
13   0.166065
14   0.180027
15   0.357624
16   0.374236

$$$$

