PCCDB-ID:  4266
public computational chemistry database (PCCDB) project, http://pccdb.org

 14 14  0  0  0  0  0  0  0  0999 V2000
   -0.9063    0.0645   -0.5802 C   0  0  0  0  0  0  0  0  0  0  0  0
   -0.4348   -2.4960   -0.2765 C   0  0  0  0  0  0  0  0  0  0  0  0
   -0.3778   -1.0314    0.0297 C   0  0  0  0  0  0  0  0  0  0  0  0
   -0.4377    1.1415    0.2318 C   0  0  0  0  0  0  0  0  0  0  0  0
   -1.6243   -2.7940   -1.0774 N   0  0  0  0  0  0  0  0  0  0  0  0
    0.3041    0.7424    1.2411 N   0  0  0  0  0  0  0  0  0  0  0  0
   -0.6665    2.4660    0.0824 O   0  0  0  0  0  0  0  0  0  0  0  0
    0.3361   -0.6599    1.1100 O   0  0  0  0  0  0  0  0  0  0  0  0
   -1.5249    0.0905   -1.4644 H   0  0  0  0  0  0  0  0  0  0  0  0
   -0.3520   -3.0488    0.6746 H   0  0  0  0  0  0  0  0  0  0  0  0
    0.4473   -2.7703   -0.8706 H   0  0  0  0  0  0  0  0  0  0  0  0
   -2.4578   -2.7208   -0.4965 H   0  0  0  0  0  0  0  0  0  0  0  0
   -1.5819   -3.7557   -1.4075 H   0  0  0  0  0  0  0  0  0  0  0  0
   -1.2116    2.5964   -0.7071 H   0  0  0  0  0  0  0  0  0  0  0  0
  1  3  2  0  0  0  0
  1  4  1  0  0  0  0
  2  3  1  0  0  0  0
  2 10  1  0  0  0  0
  3  8  1  0  0  0  0
  4  6  2  0  0  0  0
  5 12  1  0  0  0  0
  5  2  1  0  0  0  0
  7  4  1  0  0  0  0
  8  6  1  0  0  0  0
  9  1  1  0  0  0  0
 11  2  1  0  0  0  0
 13  5  1  0  0  0  0
 14  7  1  0  0  0  0
M  END
>  <HBA>
3

>  <HBD>
2

>  <TPSA>
72.02

>  <cid>
4266

>  <dipole>
4.79

>  <excitation_energy_1>
5.65

>  <excitation_energy_2>
5.766

>  <excitation_energy_3>
6.019

>  <excitation_energy_4>
6.054

>  <homo_energy>
-6.618

>  <homo_lumo_gap>
6.553

>  <logP>
0.127

>  <lumo_energy>
-0.065

>  <melting_point>
143.35

>  <molecular_refractivity>
27.0

>  <oscillator_strength_1>
0.0341

>  <oscillator_strength_2>
0.0091

>  <oscillator_strength_3>
0.0308

>  <oscillator_strength_4>
0.0209

>  <open_babel_can_smiles>
NCc1cc(no1)O

>  <mulliken_charges>
14
1   -0.303599
2   -0.225727
3   0.435238
4   0.498622
5   -0.716087
6   -0.222457
7   -0.609978
8   -0.384068
9   0.157761
10   0.155658
11   0.178763
12   0.307037
13   0.309488
14   0.41935

>  <lowdin_charges>
14
1   -0.281109
2   -0.205197
3   0.091702
4   0.099524
5   -0.547935
6   -0.110738
7   -0.352223
8   -0.079278
9   0.181448
10   0.145086
11   0.167498
12   0.260916
13   0.261366
14   0.36894

$$$$

