PCCDB-ID:  4728
public computational chemistry database (PCCDB) project, http://pccdb.org

 22 22  0  0  1  0  0  0  0  0999 V2000
    3.1675   -0.9754   -0.8487 C   0  0  0  0  0  0  0  0  0  0  0  0
    0.9925    0.2077   -0.4873 C   0  0  0  0  0  0  0  0  0  0  0  0
    6.4344   -0.4782    1.8945 C   0  0  0  0  0  0  0  0  0  0  0  0
    5.0499    1.9221    1.0763 C   0  0  0  0  0  0  0  0  0  0  0  0
    2.4428   -0.0733   -0.1807 C   0  0  0  0  0  0  0  0  0  0  0  0
    4.5181    0.6960    1.2014 C   0  0  0  0  0  0  0  0  0  0  0  0
    3.9550    2.8477    0.7550 C   0  0  0  0  0  0  0  0  0  0  0  0
    3.0098    0.7456    0.9729 C   0  0  2  0  0  0  0  0  0  0  0  0
    3.9747    4.0323    0.5471 O   0  0  0  0  0  0  0  0  0  0  0  0
    2.3316    0.4484    2.1840 O   0  0  0  0  0  0  0  0  0  0  0  0
    5.0424   -0.4820    1.5524 O   0  0  0  0  0  0  0  0  0  0  0  0
    2.7674    2.1227    0.7140 O   0  0  0  0  0  0  0  0  0  0  0  0
    2.7244   -1.5515   -1.6569 H   0  0  0  0  0  0  0  0  0  0  0  0
    4.2069   -1.1817   -0.6206 H   0  0  0  0  0  0  0  0  0  0  0  0
    0.6233   -0.4609   -1.2701 H   0  0  0  0  0  0  0  0  0  0  0  0
    0.8631    1.2441   -0.8175 H   0  0  0  0  0  0  0  0  0  0  0  0
    0.3737    0.0820    0.4080 H   0  0  0  0  0  0  0  0  0  0  0  0
    6.6791   -1.5021    2.1774 H   0  0  0  0  0  0  0  0  0  0  0  0
    6.6164    0.2005    2.7348 H   0  0  0  0  0  0  0  0  0  0  0  0
    7.0384   -0.1716    1.0335 H   0  0  0  0  0  0  0  0  0  0  0  0
    6.0687    2.2548    1.2099 H   0  0  0  0  0  0  0  0  0  0  0  0
    2.4713   -0.4987    2.3533 H   0  0  0  0  0  0  0  0  0  0  0  0
  1 14  1  0  0  0  0
  1  5  2  0  0  0  0
  2  5  1  0  0  0  0
  2 17  1  0  0  0  0
  3 18  1  0  0  0  0
  3 19  1  0  0  0  0
  4  6  2  0  0  0  0
  4 21  1  0  0  0  0
  6 11  1  0  0  0  0
  7  4  1  0  0  0  0
  8  5  1  6  0  0  0
  8  6  1  0  0  0  0
  8 10  1  0  0  0  0
  9  7  2  0  0  0  0
 10 22  1  0  0  0  0
 11  3  1  0  0  0  0
 12  7  1  0  0  0  0
 12  8  1  0  0  0  0
 13  1  1  0  0  0  0
 15  2  1  0  0  0  0
 16  2  1  0  0  0  0
 20  3  1  0  0  0  0
M  END
>  <HBA>
4

>  <HBD>
1

>  <TPSA>
55.76

>  <cid>
4728

>  <dipole>
6.47

>  <excitation_energy_1>
4.98

>  <excitation_energy_2>
5.395

>  <excitation_energy_3>
5.726

>  <excitation_energy_4>
6.022

>  <homo_energy>
-7.037

>  <homo_lumo_gap>
6.139

>  <logP>
0.338

>  <lumo_energy>
-0.898

>  <melting_point>
23.85

>  <molecular_refractivity>
41.08

>  <oscillator_strength_1>
0.0028

>  <oscillator_strength_2>
0.0334

>  <oscillator_strength_3>
0.0717

>  <oscillator_strength_4>
0.0931

>  <open_babel_can_smiles>
COC1=CC(=O)O[C@@]1(O)C(=C)C

>  <mulliken_charges>
22
1   -0.396566
2   -0.506481
3   -0.229978
4   -0.269823
5   0.18
6   0.358526
7   0.61637
8   0.412784
9   -0.468571
10   -0.604585
11   -0.494233
12   -0.494945
13   0.144206
14   0.150592
15   0.149731
16   0.188342
17   0.17049
18   0.18351
19   0.175397
20   0.172276
21   0.1597
22   0.403258

>  <lowdin_charges>
22
1   -0.347227
2   -0.441659
3   -0.271834
4   -0.269499
5   -0.015021
6   0.092068
7   0.203559
8   0.209125
9   -0.230741
10   -0.423493
11   -0.16729
12   -0.185223
13   0.162638
14   0.161791
15   0.157793
16   0.173717
17   0.16702
18   0.169746
19   0.161171
20   0.159384
21   0.180651
22   0.353324

$$$$

