PCCDB-ID:  1032
public computational chemistry database (PCCDB) project, http://pccdb.org

 11 10  0  0  0  0  0  0  0  0999 V2000
    0.9939   -0.1937    0.0737 C   0  0  0  0  0  0  0  0  0  0  0  0
    2.4636    0.2592    0.0545 C   0  0  0  0  0  0  0  0  0  0  0  0
    2.9265    0.8115   -1.2893 C   0  0  0  0  0  0  0  0  0  0  0  0
    3.4071    1.9043   -1.4481 O   0  0  0  0  0  0  0  0  0  0  0  0
    2.7731   -0.0233   -2.3578 O   0  0  0  0  0  0  0  0  0  0  0  0
    0.7149   -0.5310    1.0767 H   0  0  0  0  0  0  0  0  0  0  0  0
    0.8006   -1.0290   -0.6114 H   0  0  0  0  0  0  0  0  0  0  0  0
    0.3248    0.6265   -0.2058 H   0  0  0  0  0  0  0  0  0  0  0  0
    3.1174   -0.5815    0.3271 H   0  0  0  0  0  0  0  0  0  0  0  0
    2.6299    1.0509    0.7883 H   0  0  0  0  0  0  0  0  0  0  0  0
    2.3817   -0.8648   -2.0719 H   0  0  0  0  0  0  0  0  0  0  0  0
  1  6  1  0  0  0  0
  2  1  1  0  0  0  0
  2  9  1  0  0  0  0
  2 10  1  0  0  0  0
  3  2  1  0  0  0  0
  4  3  2  0  0  0  0
  5 11  1  0  0  0  0
  5  3  1  0  0  0  0
  7  1  1  0  0  0  0
  8  1  1  0  0  0  0
M  END
>  <HBA>
2

>  <HBD>
1

>  <TPSA>
37.3

>  <cid>
1032

>  <dipole>
4.41

>  <excitation_energy_1>
5.6

>  <excitation_energy_2>
6.534

>  <excitation_energy_3>
7.495

>  <excitation_energy_4>
7.55

>  <homo_energy>
-7.276

>  <homo_lumo_gap>
7.532

>  <logP>
0.481

>  <lumo_energy>
0.256

>  <melting_point>
52.59

>  <molecular_refractivity>
18.31

>  <oscillator_strength_1>
0.0017

>  <oscillator_strength_2>
0.0133

>  <oscillator_strength_3>
0.0086

>  <oscillator_strength_4>
0.0143

>  <open_babel_can_smiles>
CCC(=O)O

>  <mulliken_charges>
11
1   -0.45894
2   -0.374602
3   0.590407
4   -0.433657
5   -0.562921
6   0.167506
7   0.137097
8   0.175902
9   0.166097
10   0.18518
11   0.407932

>  <lowdin_charges>
11
1   -0.444553
2   -0.316184
3   0.189875
4   -0.234652
5   -0.361161
6   0.162656
7   0.14343
8   0.164354
9   0.163661
10   0.176313
11   0.35626

$$$$

