PCCDB-ID:  5788
public computational chemistry database (PCCDB) project, http://pccdb.org

 19 19  0  0  0  0  0  0  0  0999 V2000
    0.9823   -0.1367    0.0428 C   0  0  0  0  0  0  0  0  0  0  0  0
    3.1244    1.1086   -0.5024 C   0  0  0  0  0  0  0  0  0  0  0  0
    4.5077    1.1549   -0.6195 C   0  0  0  0  0  0  0  0  0  0  0  0
    3.2793   -1.1612    0.2717 C   0  0  0  0  0  0  0  0  0  0  0  0
    2.4864   -0.0575   -0.0565 C   0  0  0  0  0  0  0  0  0  0  0  0
    5.3161    0.0551   -0.2988 C   0  0  0  0  0  0  0  0  0  0  0  0
    4.6680   -1.1093    0.1522 C   0  0  0  0  0  0  0  0  0  0  0  0
    6.8027    0.2342   -0.4613 C   0  0  0  0  0  0  0  0  0  0  0  0
    5.4403   -2.2032    0.4771 O   0  0  0  0  0  0  0  0  0  0  0  0
    7.2785    1.2767   -0.8551 O   0  0  0  0  0  0  0  0  0  0  0  0
    7.6072   -0.8050   -0.1554 O   0  0  0  0  0  0  0  0  0  0  0  0
    0.5412    0.8534    0.1934 H   0  0  0  0  0  0  0  0  0  0  0  0
    0.6650   -0.7808    0.8699 H   0  0  0  0  0  0  0  0  0  0  0  0
    0.5497   -0.5507   -0.8776 H   0  0  0  0  0  0  0  0  0  0  0  0
    2.5311    1.9823   -0.7573 H   0  0  0  0  0  0  0  0  0  0  0  0
    5.0117    2.0526   -0.9612 H   0  0  0  0  0  0  0  0  0  0  0  0
    2.8101   -2.0785    0.6261 H   0  0  0  0  0  0  0  0  0  0  0  0
    4.8798   -2.9323    0.7843 H   0  0  0  0  0  0  0  0  0  0  0  0
    7.0800   -1.5699    0.1452 H   0  0  0  0  0  0  0  0  0  0  0  0
  1 12  1  0  0  0  0
  1 13  1  0  0  0  0
  2  5  1  0  0  0  0
  3  2  2  0  0  0  0
  3  6  1  0  0  0  0
  4 17  1  0  0  0  0
  5  1  1  0  0  0  0
  5  4  2  0  0  0  0
  6  7  2  0  0  0  0
  7  4  1  0  0  0  0
  7  9  1  0  0  0  0
  8  6  1  0  0  0  0
  8 11  1  0  0  0  0
  9 18  1  0  0  0  0
 10  8  2  0  0  0  0
 11 19  1  0  0  0  0
 14  1  1  0  0  0  0
 15  2  1  0  0  0  0
 16  3  1  0  0  0  0
M  END
>  <HBA>
3

>  <HBD>
2

>  <TPSA>
57.53

>  <cid>
5788

>  <dipole>
6.96

>  <excitation_energy_1>
4.699

>  <excitation_energy_2>
4.716

>  <excitation_energy_3>
5.364

>  <excitation_energy_4>
5.409

>  <homo_energy>
-6.67

>  <homo_lumo_gap>
5.489

>  <logP>
1.399

>  <lumo_energy>
-1.181

>  <melting_point>
140.46

>  <molecular_refractivity>
40.39

>  <oscillator_strength_1>
0.0002

>  <oscillator_strength_2>
0.0631

>  <oscillator_strength_3>
0.1776

>  <oscillator_strength_4>
0.0

>  <open_babel_can_smiles>
Cc1ccc(c(c1)O)C(=O)O

>  <mulliken_charges>
19
1   -0.533411
2   -0.181581
3   -0.173741
4   -0.241393
5   0.180788
6   0.015288
7   0.31484
8   0.573077
9   -0.688046
10   -0.463406
11   -0.600934
12   0.167242
13   0.161261
14   0.175247
15   0.133043
16   0.176301
17   0.118434
18   0.426699
19   0.440292

>  <lowdin_charges>
19
1   -0.44241
2   -0.183092
3   -0.112879
4   -0.219766
5   0.028457
6   -0.092049
7   0.107709
8   0.195092
9   -0.38696
10   -0.259298
11   -0.362169
12   0.163784
13   0.161502
14   0.168539
15   0.162115
16   0.185244
17   0.154514
18   0.371
19   0.360666

$$$$

