PCCDB-ID:  3676
public computational chemistry database (PCCDB) project, http://pccdb.org

 39 39  0  0  0  0  0  0  0  0999 V2000
    7.6738   -2.4033    0.9478 C   0  0  0  0  0  0  0  0  0  0  0  0
    6.4047   -6.5055    1.0023 C   0  0  0  0  0  0  0  0  0  0  0  0
    1.0231   -4.6913    1.8569 C   0  0  0  0  0  0  0  0  0  0  0  0
    2.6278   -0.0859    0.4843 C   0  0  0  0  0  0  0  0  0  0  0  0
    7.0551   -3.5227    1.7851 C   0  0  0  0  0  0  0  0  0  0  0  0
    5.5196   -5.4427    1.6521 C   0  0  0  0  0  0  0  0  0  0  0  0
    0.4046   -1.2388    3.3664 C   0  0  0  0  0  0  0  0  0  0  0  0
    0.3750   -2.6163    3.1547 C   0  0  0  0  0  0  0  0  0  0  0  0
    1.1404   -0.4292    2.5028 C   0  0  0  0  0  0  0  0  0  0  0  0
    4.6593   -3.1870    1.3768 C   0  0  0  0  0  0  0  0  0  0  0  0
    1.0813   -3.2024    2.0998 C   0  0  0  0  0  0  0  0  0  0  0  0
    1.8635   -0.9743    1.4370 C   0  0  0  0  0  0  0  0  0  0  0  0
    3.7089   -3.2998    0.1752 C   0  0  0  0  0  0  0  0  0  0  0  0
    1.8484   -2.3744    1.2505 C   0  0  0  0  0  0  0  0  0  0  0  0
    2.4918   -2.9396    0.1285 N   0  0  0  0  0  0  0  0  0  0  0  0
    5.8198   -4.0696    1.1940 N   0  0  0  0  0  0  0  0  0  0  0  0
    4.2967   -3.8169   -0.9183 O   0  0  0  0  0  0  0  0  0  0  0  0
    8.6003   -2.0526    1.4156 H   0  0  0  0  0  0  0  0  0  0  0  0
    7.0086   -1.5384    0.8503 H   0  0  0  0  0  0  0  0  0  0  0  0
    7.9100   -2.7623   -0.0594 H   0  0  0  0  0  0  0  0  0  0  0  0
    6.1083   -7.5005    1.3519 H   0  0  0  0  0  0  0  0  0  0  0  0
    7.4648   -6.3756    1.2445 H   0  0  0  0  0  0  0  0  0  0  0  0
    6.2996   -6.4807   -0.0876 H   0  0  0  0  0  0  0  0  0  0  0  0
    0.8063   -4.9088    0.8049 H   0  0  0  0  0  0  0  0  0  0  0  0
    0.2530   -5.1595    2.4783 H   0  0  0  0  0  0  0  0  0  0  0  0
    1.9763   -5.1875    2.0874 H   0  0  0  0  0  0  0  0  0  0  0  0
    2.3779    0.9673    0.6476 H   0  0  0  0  0  0  0  0  0  0  0  0
    2.4031   -0.3410   -0.5574 H   0  0  0  0  0  0  0  0  0  0  0  0
    3.7162   -0.1834    0.6015 H   0  0  0  0  0  0  0  0  0  0  0  0
    6.8716   -3.1752    2.8170 H   0  0  0  0  0  0  0  0  0  0  0  0
    7.7761   -4.3417    1.8579 H   0  0  0  0  0  0  0  0  0  0  0  0
    5.5848   -5.5057    2.7529 H   0  0  0  0  0  0  0  0  0  0  0  0
    4.4771   -5.6507    1.3879 H   0  0  0  0  0  0  0  0  0  0  0  0
   -0.1561   -0.7981    4.1863 H   0  0  0  0  0  0  0  0  0  0  0  0
   -0.2137   -3.2536    3.8112 H   0  0  0  0  0  0  0  0  0  0  0  0
    1.1516    0.6490    2.6479 H   0  0  0  0  0  0  0  0  0  0  0  0
    4.1095   -3.3880    2.3071 H   0  0  0  0  0  0  0  0  0  0  0  0
    5.0019   -2.1486    1.4338 H   0  0  0  0  0  0  0  0  0  0  0  0
    5.2106   -4.0435   -0.6145 H   0  0  0  0  0  0  0  0  0  0  0  0
  1 18  1  0  0  0  0
  1  5  1  0  0  0  0
  2 22  1  0  0  0  0
  2 21  1  0  0  0  0
  2  6  1  0  0  0  0
  3 26  1  0  0  0  0
  3 11  1  0  0  0  0
  3 25  1  0  0  0  0
  4 29  1  0  0  0  0
  4 27  1  0  0  0  0
  4 12  1  0  0  0  0
  5 31  1  0  0  0  0
  5 30  1  0  0  0  0
  6 32  1  0  0  0  0
  7 34  1  0  0  0  0
  8  7  1  0  0  0  0
  8 35  1  0  0  0  0
  9 36  1  0  0  0  0
  9  7  2  0  0  0  0
 10 38  1  0  0  0  0
 10 37  1  0  0  0  0
 11  8  2  0  0  0  0
 12  9  1  0  0  0  0
 13 10  1  0  0  0  0
 14 12  2  0  0  0  0
 14 11  1  0  0  0  0
 15 13  2  0  0  0  0
 15 14  1  0  0  0  0
 16 10  1  0  0  0  0
 16  6  1  0  0  0  0
 16  5  1  0  0  0  0
 17 39  1  0  0  0  0
 17 13  1  0  0  0  0
 19  1  1  0  0  0  0
 20  1  1  0  0  0  0
 23  2  1  0  0  0  0
 24  3  1  0  0  0  0
 28  4  1  0  0  0  0
 33  6  1  0  0  0  0
M  END
>  <HBA>
3

>  <HBD>
1

>  <TPSA>
32.34

>  <cid>
3676

>  <dipole>
5.09

>  <excitation_energy_1>
4.738

>  <excitation_energy_2>
4.906

>  <excitation_energy_3>
4.98

>  <excitation_energy_4>
5.283

>  <homo_energy>
-5.404

>  <homo_lumo_gap>
5.872

>  <logP>
2.657

>  <lumo_energy>
0.468

>  <melting_point>
68.25

>  <molecular_refractivity>
72.81

>  <oscillator_strength_1>
0.0075

>  <oscillator_strength_2>
0.0235

>  <oscillator_strength_3>
0.0126

>  <oscillator_strength_4>
0.0315

>  <open_babel_can_smiles>
CCN(C/C(=N\c1c(C)cccc1C)/O)CC

>  <mulliken_charges>
39
1   -0.450815
2   -0.450955
3   -0.532932
4   -0.53272
5   -0.125526
6   -0.135726
7   -0.120484
8   -0.208165
9   -0.207446
10   -0.229694
11   0.174444
12   0.17582
13   0.494369
14   0.090131
15   -0.482765
16   -0.441966
17   -0.592416
18   0.153071
19   0.153918
20   0.158401
21   0.155228
22   0.152659
23   0.160022
24   0.178104
25   0.146853
26   0.143165
27   0.147987
28   0.178848
29   0.140969
30   0.133129
31   0.149552
32   0.13472
33   0.165824
34   0.117336
35   0.114282
36   0.114289
37   0.174581
38   0.183431
39   0.420475

>  <lowdin_charges>
39
1   -0.450564
2   -0.446403
3   -0.442075
4   -0.437371
5   -0.197664
6   -0.197633
7   -0.175835
8   -0.172872
9   -0.169014
10   -0.239486
11   -0.025133
12   -0.025344
13   0.125734
14   0.027692
15   -0.181985
16   -0.193752
17   -0.359169
18   0.158307
19   0.151638
20   0.155358
21   0.159007
22   0.149275
23   0.154479
24   0.16713
25   0.154175
26   0.147016
27   0.152215
28   0.167322
29   0.1448
30   0.129601
31   0.152005
32   0.13012
33   0.154017
34   0.154015
35   0.152322
36   0.148895
37   0.161497
38   0.16941
39   0.348272

$$$$

