PCCDB-ID:  3248
public computational chemistry database (PCCDB) project, http://pccdb.org

 24 24  0  0  0  0  0  0  0  0999 V2000
    4.1376   -0.7180    1.3709 C   0  0  0  0  0  0  0  0  0  0  0  0
    0.7251   -3.1467   -0.9573 C   0  0  0  0  0  0  0  0  0  0  0  0
   -1.3556   -6.6363   -2.3060 C   0  0  0  0  0  0  0  0  0  0  0  0
   -1.7756   -5.3641   -2.6897 C   0  0  0  0  0  0  0  0  0  0  0  0
    1.8228   -3.0819   -0.1799 C   0  0  0  0  0  0  0  0  0  0  0  0
    0.4364   -5.6458   -1.0310 C   0  0  0  0  0  0  0  0  0  0  0  0
    0.0324   -4.3536   -1.4046 C   0  0  0  0  0  0  0  0  0  0  0  0
   -0.2426   -6.7786   -1.4709 C   0  0  0  0  0  0  0  0  0  0  0  0
   -1.0962   -4.2275   -2.2492 C   0  0  0  0  0  0  0  0  0  0  0  0
    2.3965   -1.7724    0.1834 C   0  0  0  0  0  0  0  0  0  0  0  0
    0.2244   -7.9986   -1.0535 O   0  0  0  0  0  0  0  0  0  0  0  0
   -1.4855   -2.9653   -2.6103 O   0  0  0  0  0  0  0  0  0  0  0  0
    1.9719   -0.6810   -0.1475 O   0  0  0  0  0  0  0  0  0  0  0  0
    3.4995   -1.9342    0.9614 O   0  0  0  0  0  0  0  0  0  0  0  0
    4.9798   -1.0227    1.9937 H   0  0  0  0  0  0  0  0  0  0  0  0
    3.4462   -0.0908    1.9406 H   0  0  0  0  0  0  0  0  0  0  0  0
    4.4887   -0.1540    0.5019 H   0  0  0  0  0  0  0  0  0  0  0  0
    0.3056   -2.2020   -1.2912 H   0  0  0  0  0  0  0  0  0  0  0  0
   -1.8965   -7.5129   -2.6570 H   0  0  0  0  0  0  0  0  0  0  0  0
   -2.6415   -5.2568   -3.3401 H   0  0  0  0  0  0  0  0  0  0  0  0
    2.3322   -3.9578    0.2089 H   0  0  0  0  0  0  0  0  0  0  0  0
    1.2953   -5.7854   -0.3837 H   0  0  0  0  0  0  0  0  0  0  0  0
   -0.3350   -8.6960   -1.4280 H   0  0  0  0  0  0  0  0  0  0  0  0
   -2.2681   -3.0264   -3.1786 H   0  0  0  0  0  0  0  0  0  0  0  0
  1 16  1  0  0  0  0
  1 15  1  0  0  0  0
  2  5  2  0  0  0  0
  3  8  1  0  0  0  0
  4  3  2  0  0  0  0
  4  9  1  0  0  0  0
  5 10  1  0  0  0  0
  5 21  1  0  0  0  0
  6 22  1  0  0  0  0
  7  6  1  0  0  0  0
  7  2  1  0  0  0  0
  8 11  1  0  0  0  0
  8  6  2  0  0  0  0
  9  7  2  0  0  0  0
 10 14  1  0  0  0  0
 12  9  1  0  0  0  0
 13 10  2  0  0  0  0
 14  1  1  0  0  0  0
 17  1  1  0  0  0  0
 18  2  1  0  0  0  0
 19  3  1  0  0  0  0
 20  4  1  0  0  0  0
 23 11  1  0  0  0  0
 24 12  1  0  0  0  0
M  END
>  <HBA>
4

>  <HBD>
2

>  <TPSA>
66.76

>  <cid>
3248

>  <dipole>
4.13

>  <excitation_energy_1>
3.518

>  <excitation_energy_2>
4.379

>  <excitation_energy_3>
4.428

>  <excitation_energy_4>
4.823

>  <homo_energy>
-5.657

>  <homo_lumo_gap>
4.022

>  <logP>
1.284

>  <lumo_energy>
-1.635

>  <melting_point>
119.9

>  <molecular_refractivity>
51.48

>  <oscillator_strength_1>
0.1844

>  <oscillator_strength_2>
0.0036

>  <oscillator_strength_3>
0.4811

>  <oscillator_strength_4>
0.0002

>  <open_babel_can_smiles>
COC(=O)/C=C/c1cc(O)ccc1O

>  <mulliken_charges>
24
1   -0.214021
2   -0.141286
3   -0.195741
4   -0.193451
5   -0.204462
6   -0.233765
7   0.124801
8   0.360034
9   0.288341
10   0.619939
11   -0.648405
12   -0.641332
13   -0.501614
14   -0.472117
15   0.159578
16   0.168073
17   0.167165
18   0.19073
19   0.126612
20   0.125618
21   0.148877
22   0.147808
23   0.407006
24   0.411612

>  <lowdin_charges>
24
1   -0.282319
2   -0.099869
3   -0.194414
4   -0.200101
5   -0.20625
6   -0.165942
7   -0.026748
8   0.089117
9   0.0925
10   0.193911
11   -0.385603
12   -0.375887
13   -0.27961
14   -0.198708
15   0.158336
16   0.159667
17   0.158489
18   0.188366
19   0.15851
20   0.157341
21   0.166555
22   0.172202
23   0.359099
24   0.361356

$$$$

