PCCDB-ID:  873
public computational chemistry database (PCCDB) project, http://pccdb.org

 22 22  0  0  0  0  0  0  0  0999 V2000
   -1.6057   -0.5616    0.4380 C   0  0  0  0  0  0  0  0  0  0  0  0
   -0.9278   -1.7691    0.2825 C   0  0  0  0  0  0  0  0  0  0  0  0
   -0.8902    0.6378    0.3882 C   0  0  0  0  0  0  0  0  0  0  0  0
    0.4530   -1.7748    0.0799 C   0  0  0  0  0  0  0  0  0  0  0  0
    1.2772    1.9641    0.1465 C   0  0  0  0  0  0  0  0  0  0  0  0
    1.8201    2.3859   -1.2444 C   0  0  0  0  0  0  0  0  0  0  0  0
    0.4960    0.6658    0.1815 C   0  0  0  0  0  0  0  0  0  0  0  0
    1.1582   -0.5702    0.0317 C   0  0  0  0  0  0  0  0  0  0  0  0
    0.7804    2.8871   -2.2421 C   0  0  0  0  0  0  0  0  0  0  0  0
    2.5147   -0.5257   -0.1563 O   0  0  0  0  0  0  0  0  0  0  0  0
    0.8875    3.9235   -2.8507 O   0  0  0  0  0  0  0  0  0  0  0  0
   -0.2990    2.0875   -2.4501 O   0  0  0  0  0  0  0  0  0  0  0  0
   -2.6793   -0.5479    0.5980 H   0  0  0  0  0  0  0  0  0  0  0  0
   -1.4667   -2.7116    0.3172 H   0  0  0  0  0  0  0  0  0  0  0  0
   -1.4138    1.5824    0.5152 H   0  0  0  0  0  0  0  0  0  0  0  0
    0.9865   -2.7162   -0.0397 H   0  0  0  0  0  0  0  0  0  0  0  0
    0.6556    2.7702    0.5529 H   0  0  0  0  0  0  0  0  0  0  0  0
    2.1445    1.8688    0.8096 H   0  0  0  0  0  0  0  0  0  0  0  0
    2.3574    1.5401   -1.6914 H   0  0  0  0  0  0  0  0  0  0  0  0
    2.5389    3.1998   -1.1245 H   0  0  0  0  0  0  0  0  0  0  0  0
    2.8562   -1.4309   -0.2271 H   0  0  0  0  0  0  0  0  0  0  0  0
   -0.2638    1.3071   -1.8670 H   0  0  0  0  0  0  0  0  0  0  0  0
  1 13  1  0  0  0  0
  2 14  1  0  0  0  0
  2  1  2  0  0  0  0
  3  1  1  0  0  0  0
  3 15  1  0  0  0  0
  4  2  1  0  0  0  0
  5  7  1  0  0  0  0
  5 17  1  0  0  0  0
  5 18  1  0  0  0  0
  6 20  1  0  0  0  0
  6  5  1  0  0  0  0
  7  3  2  0  0  0  0
  8  4  2  0  0  0  0
  8  7  1  0  0  0  0
  9  6  1  0  0  0  0
 10  8  1  0  0  0  0
 11  9  2  0  0  0  0
 12  9  1  0  0  0  0
 12 22  1  0  0  0  0
 16  4  1  0  0  0  0
 19  6  1  0  0  0  0
 21 10  1  0  0  0  0
M  END
>  <HBA>
3

>  <HBD>
2

>  <TPSA>
57.53

>  <cid>
873

>  <dipole>
6.35

>  <excitation_energy_1>
5.015

>  <excitation_energy_2>
5.335

>  <excitation_energy_3>
5.574

>  <excitation_energy_4>
5.728

>  <homo_energy>
-6.493

>  <homo_lumo_gap>
5.902

>  <logP>
1.409

>  <lumo_energy>
-0.59

>  <melting_point>
123.96

>  <molecular_refractivity>
44.82

>  <oscillator_strength_1>
0.0479

>  <oscillator_strength_2>
0.0003

>  <oscillator_strength_3>
0.0052

>  <oscillator_strength_4>
0.021

>  <open_babel_can_smiles>
OC(=O)CCc1ccccc1O

>  <mulliken_charges>
22
1   -0.122917
2   -0.13562
3   -0.207424
4   -0.184154
5   -0.336896
6   -0.381572
7   0.063143
8   0.308167
9   0.579174
10   -0.641855
11   -0.444903
12   -0.577194
13   0.13923
14   0.140623
15   0.146967
16   0.126256
17   0.159414
18   0.174084
19   0.186241
20   0.177388
21   0.413876
22   0.417974

>  <lowdin_charges>
22
1   -0.171516
2   -0.142033
3   -0.162111
4   -0.209171
5   -0.273045
6   -0.317899
7   -0.058085
8   0.096226
9   0.188018
10   -0.377633
11   -0.246876
12   -0.367232
13   0.162138
14   0.163846
15   0.165587
16   0.157357
17   0.158614
18   0.16968
19   0.173983
20   0.174154
21   0.360908
22   0.355091

$$$$

