PCCDB-ID:  2544
public computational chemistry database (PCCDB) project, http://pccdb.org

 29 30  0  0  1  0  0  0  0  0999 V2000
    1.2021    0.4293   -0.6974 C   0  0  0  0  0  0  0  0  0  0  0  0
    3.9373   -2.3050   -0.6117 C   0  0  0  0  0  0  0  0  0  0  0  0
    4.6129    0.8475    1.1871 C   0  0  0  0  0  0  0  0  0  0  0  0
    4.8081   -0.6007    1.7173 C   0  0  0  0  0  0  0  0  0  0  0  0
    3.1020    0.8654    0.8932 C   0  0  1  0  0  0  0  0  0  0  0  0
    3.3755   -1.1486    1.6250 C   0  0  2  0  0  0  0  0  0  0  0  0
    3.4578    0.3775   -1.6557 C   0  0  0  0  0  0  0  0  0  0  0  0
    1.5604   -2.1875    0.1593 C   0  0  0  0  0  0  0  0  0  0  0  0
    2.6791    0.0593   -0.3745 C   0  0  2  0  0  0  0  0  0  0  0  0
    2.9174   -1.4508    0.1620 C   0  0  2  0  0  0  0  0  0  0  0  0
    4.2717    1.2616   -1.7749 O   0  0  0  0  0  0  0  0  0  0  0  0
    3.1126   -0.3634   -2.7395 O   0  0  0  0  0  0  0  0  0  0  0  0
    1.2240   -2.9336   -0.7338 O   0  0  0  0  0  0  0  0  0  0  0  0
    0.7312   -1.9282    1.1899 O   0  0  0  0  0  0  0  0  0  0  0  0
    2.5738    0.0120    1.9500 O   0  0  0  0  0  0  0  0  0  0  0  0
    1.1699    1.4247   -1.1534 H   0  0  0  0  0  0  0  0  0  0  0  0
    0.5984    0.4570    0.2111 H   0  0  0  0  0  0  0  0  0  0  0  0
    0.7251   -0.2724   -1.3878 H   0  0  0  0  0  0  0  0  0  0  0  0
    4.2457   -3.1524    0.0109 H   0  0  0  0  0  0  0  0  0  0  0  0
    4.8320   -1.7376   -0.8788 H   0  0  0  0  0  0  0  0  0  0  0  0
    3.5042   -2.7234   -1.5203 H   0  0  0  0  0  0  0  0  0  0  0  0
    5.2050    1.0837    0.3047 H   0  0  0  0  0  0  0  0  0  0  0  0
    4.8391    1.5848    1.9624 H   0  0  0  0  0  0  0  0  0  0  0  0
    5.1274   -0.6056    2.7632 H   0  0  0  0  0  0  0  0  0  0  0  0
    5.5338   -1.1825    1.1460 H   0  0  0  0  0  0  0  0  0  0  0  0
    2.6281    1.8450    0.9598 H   0  0  0  0  0  0  0  0  0  0  0  0
    3.1485   -1.9538    2.3275 H   0  0  0  0  0  0  0  0  0  0  0  0
    2.4595   -1.0457   -2.5035 H   0  0  0  0  0  0  0  0  0  0  0  0
    1.1012   -1.1886    1.7207 H   0  0  0  0  0  0  0  0  0  0  0  0
  1  9  1  0  0  0  0
  1 17  1  0  0  0  0
  2 19  1  0  0  0  0
  2 10  1  0  0  0  0
  3  4  1  0  0  0  0
  3 23  1  0  0  0  0
  4 24  1  0  0  0  0
  5 26  1  1  0  0  0
  5  3  1  0  0  0  0
  5 15  1  0  0  0  0
  6  4  1  0  0  0  0
  6 15  1  0  0  0  0
  6 27  1  1  0  0  0
  8 14  1  0  0  0  0
  9  7  1  6  0  0  0
  9 10  1  0  0  0  0
  9  5  1  0  0  0  0
 10  8  1  1  0  0  0
 10  6  1  0  0  0  0
 11  7  2  0  0  0  0
 12 28  1  0  0  0  0
 12  7  1  0  0  0  0
 13  8  2  0  0  0  0
 14 29  1  0  0  0  0
 16  1  1  0  0  0  0
 18  1  1  0  0  0  0
 20  2  1  0  0  0  0
 21  2  1  0  0  0  0
 22  3  1  0  0  0  0
 25  4  1  0  0  0  0
M  END
>  <HBA>
5

>  <HBD>
2

>  <TPSA>
83.83

>  <cid>
2544

>  <dipole>
3.05

>  <excitation_energy_1>
5.431

>  <excitation_energy_2>
5.57

>  <excitation_energy_3>
6.55

>  <excitation_energy_4>
6.593

>  <homo_energy>
-7.426

>  <homo_lumo_gap>
6.985

>  <logP>
0.729

>  <lumo_energy>
-0.441

>  <melting_point>
198.68

>  <molecular_refractivity>
50.06

>  <oscillator_strength_1>
0.0042

>  <oscillator_strength_2>
0.0004

>  <oscillator_strength_3>
0.0026

>  <oscillator_strength_4>
0.0069

>  <open_babel_can_smiles>
OC(=O)[C@]1(C)[C@@H]2CC[C@H]([C@@]1(C)C(=O)O)O2

>  <mulliken_charges>
29
1   -0.497874
2   -0.488684
3   -0.297718
4   -0.286108
5   0.096727
6   0.047148
7   0.61686
8   0.615471
9   -0.053883
10   -0.046427
11   -0.452319
12   -0.573183
13   -0.470198
14   -0.591823
15   -0.512348
16   0.177182
17   0.175731
18   0.173693
19   0.161585
20   0.169423
21   0.18175
22   0.195998
23   0.1565
24   0.160398
25   0.159634
26   0.156949
27   0.16011
28   0.426048
29   0.439357

>  <lowdin_charges>
29
1   -0.452643
2   -0.451856
3   -0.299853
4   -0.293014
5   0.007299
6   -0.019223
7   0.192665
8   0.189223
9   -0.045135
10   -0.049417
11   -0.237584
12   -0.344753
13   -0.257454
14   -0.351548
15   -0.286449
16   0.167325
17   0.166649
18   0.164504
19   0.16254
20   0.162168
21   0.171255
22   0.177314
23   0.16005
24   0.158669
25   0.160578
26   0.161518
27   0.159735
28   0.365204
29   0.362234

$$$$

