PCCDB-ID:  691
public computational chemistry database (PCCDB) project, http://pccdb.org

 20 20  0  0  0  0  0  0  0  0999 V2000
   -2.0566    0.1038   -0.1032 C   0  0  0  0  0  0  0  0  0  0  0  0
   -1.3619    1.2650    0.2410 C   0  0  0  0  0  0  0  0  0  0  0  0
   -1.3961   -1.1256   -0.0653 C   0  0  0  0  0  0  0  0  0  0  0  0
   -0.0227    1.2149    0.6215 C   0  0  0  0  0  0  0  0  0  0  0  0
   -0.0593   -1.1821    0.3135 C   0  0  0  0  0  0  0  0  0  0  0  0
    2.0593   -0.2274    1.0447 C   0  0  0  0  0  0  0  0  0  0  0  0
    0.6601   -0.0176    0.6649 C   0  0  0  0  0  0  0  0  0  0  0  0
    3.1101    0.5391    1.4227 C   0  0  0  0  0  0  0  0  0  0  0  0
    3.2245    2.0231    1.6057 C   0  0  0  0  0  0  0  0  0  0  0  0
    4.3356   -0.0490    1.7103 O   0  0  0  0  0  0  0  0  0  0  0  0
    2.3225    2.8178    1.4609 O   0  0  0  0  0  0  0  0  0  0  0  0
    4.4569    2.4442    1.9579 O   0  0  0  0  0  0  0  0  0  0  0  0
   -3.1014    0.1554   -0.3975 H   0  0  0  0  0  0  0  0  0  0  0  0
   -1.8670    2.2270    0.2152 H   0  0  0  0  0  0  0  0  0  0  0  0
   -1.9209   -2.0395   -0.3302 H   0  0  0  0  0  0  0  0  0  0  0  0
    0.5032    2.1209    0.8871 H   0  0  0  0  0  0  0  0  0  0  0  0
    0.4456   -2.1454    0.3395 H   0  0  0  0  0  0  0  0  0  0  0  0
    2.3175   -1.2893    1.0076 H   0  0  0  0  0  0  0  0  0  0  0  0
    4.2944   -1.0058    1.5576 H   0  0  0  0  0  0  0  0  0  0  0  0
    5.0459    1.6690    2.0250 H   0  0  0  0  0  0  0  0  0  0  0  0
  1  3  2  0  0  0  0
  1  2  1  0  0  0  0
  2  4  2  0  0  0  0
  3  5  1  0  0  0  0
  4  7  1  0  0  0  0
  4 16  1  0  0  0  0
  5 17  1  0  0  0  0
  5  7  2  0  0  0  0
  6  8  2  0  0  0  0
  7  6  1  0  0  0  0
  8  9  1  0  0  0  0
  8 10  1  0  0  0  0
  9 12  1  0  0  0  0
 11  9  2  0  0  0  0
 12 20  1  0  0  0  0
 13  1  1  0  0  0  0
 14  2  1  0  0  0  0
 15  3  1  0  0  0  0
 18  6  1  0  0  0  0
 19 10  1  0  0  0  0
M  END
>  <HBA>
3

>  <HBD>
2

>  <TPSA>
57.53

>  <cid>
691

>  <dipole>
4.74

>  <excitation_energy_1>
4.109

>  <excitation_energy_2>
4.337

>  <excitation_energy_3>
4.513

>  <excitation_energy_4>
4.897

>  <homo_energy>
-6.06

>  <homo_lumo_gap>
4.338

>  <logP>
1.67

>  <lumo_energy>
-1.722

>  <melting_point>
118.04

>  <molecular_refractivity>
44.68

>  <oscillator_strength_1>
0.4835

>  <oscillator_strength_2>
0.0276

>  <oscillator_strength_3>
0.0

>  <oscillator_strength_4>
0.0002

>  <open_babel_can_smiles>
O/C(=C/c1ccccc1)/C(=O)O

>  <mulliken_charges>
20
1   -0.124167
2   -0.136178
3   -0.131701
4   -0.194032
5   -0.194942
6   -0.284733
7   0.181339
8   0.30754
9   0.584037
10   -0.681313
11   -0.455428
12   -0.57913
13   0.133374
14   0.137447
15   0.131747
16   0.205348
17   0.12426
18   0.11716
19   0.421249
20   0.438123

>  <lowdin_charges>
20
1   -0.146149
2   -0.153711
3   -0.160289
4   -0.155961
5   -0.158716
6   -0.173725
7   -0.002376
8   0.042086
9   0.195352
10   -0.404606
11   -0.241957
12   -0.347639
13   0.158034
14   0.161187
15   0.159548
16   0.193065
17   0.152725
18   0.153325
19   0.362271
20   0.367536

$$$$

