PCCDB-ID:  2148
public computational chemistry database (PCCDB) project, http://pccdb.org

 24 24  0  0  0  0  0  0  0  0999 V2000
   -0.7490   -0.2756    0.1614 C   0  0  0  0  0  0  0  0  0  0  0  0
    0.9213   -1.9807   -0.1774 C   0  0  0  0  0  0  0  0  0  0  0  0
   -1.7301   -1.2480    0.2628 C   0  0  0  0  0  0  0  0  0  0  0  0
   -0.0545   -2.9625   -0.0826 C   0  0  0  0  0  0  0  0  0  0  0  0
    3.9725    1.1358   -0.1581 C   0  0  0  0  0  0  0  0  0  0  0  0
    0.5965   -0.6203   -0.0483 C   0  0  0  0  0  0  0  0  0  0  0  0
   -1.4002   -2.6135    0.1465 C   0  0  0  0  0  0  0  0  0  0  0  0
    4.1167    2.1759    0.9720 C   0  0  0  0  0  0  0  0  0  0  0  0
    1.5892    0.4765   -0.1426 C   0  0  0  0  0  0  0  0  0  0  0  0
   -2.3685   -3.5908    0.2989 N   0  0  0  0  0  0  0  0  0  0  0  0
    2.9038    0.1608    0.0403 N   0  0  0  0  0  0  0  0  0  0  0  0
    5.1490    2.3191    1.5847 O   0  0  0  0  0  0  0  0  0  0  0  0
    3.0291    2.9220    1.2031 O   0  0  0  0  0  0  0  0  0  0  0  0
    1.2507    1.6500   -0.3831 O   0  0  0  0  0  0  0  0  0  0  0  0
   -1.0054    0.7754    0.2428 H   0  0  0  0  0  0  0  0  0  0  0  0
    1.9418   -2.2859   -0.3944 H   0  0  0  0  0  0  0  0  0  0  0  0
   -2.7644   -0.9611    0.4369 H   0  0  0  0  0  0  0  0  0  0  0  0
    0.2163   -4.0096   -0.1937 H   0  0  0  0  0  0  0  0  0  0  0  0
    4.9201    0.6027   -0.2377 H   0  0  0  0  0  0  0  0  0  0  0  0
    3.7814    1.6638   -1.0997 H   0  0  0  0  0  0  0  0  0  0  0  0
   -3.3273   -3.3066    0.1483 H   0  0  0  0  0  0  0  0  0  0  0  0
   -2.1601   -4.5023   -0.0859 H   0  0  0  0  0  0  0  0  0  0  0  0
    3.1427   -0.7219    0.4675 H   0  0  0  0  0  0  0  0  0  0  0  0
    2.2961    2.6436    0.5926 H   0  0  0  0  0  0  0  0  0  0  0  0
  1 15  1  0  0  0  0
  1  3  1  0  0  0  0
  2  4  2  0  0  0  0
  2  6  1  0  0  0  0
  3 17  1  0  0  0  0
  4  7  1  0  0  0  0
  5 11  1  0  0  0  0
  5  8  1  0  0  0  0
  6  1  2  0  0  0  0
  7  3  2  0  0  0  0
  7 10  1  0  0  0  0
  8 13  1  0  0  0  0
  8 12  2  0  0  0  0
  9  6  1  0  0  0  0
  9 11  1  0  0  0  0
 11 23  1  0  0  0  0
 14  9  2  0  0  0  0
 16  2  1  0  0  0  0
 18  4  1  0  0  0  0
 19  5  1  0  0  0  0
 20  5  1  0  0  0  0
 21 10  1  0  0  0  0
 22 10  1  0  0  0  0
 24 13  1  0  0  0  0
M  END
>  <HBA>
5

>  <HBD>
3

>  <TPSA>
92.42

>  <cid>
2148

>  <dipole>
9.1

>  <excitation_energy_1>
4.507

>  <excitation_energy_2>
4.677

>  <excitation_energy_3>
5.011

>  <excitation_energy_4>
5.036

>  <homo_energy>
-6.101

>  <homo_lumo_gap>
4.928

>  <logP>
1.055

>  <lumo_energy>
-1.173

>  <melting_point>
192.04

>  <molecular_refractivity>
50.42

>  <oscillator_strength_1>
0.4201

>  <oscillator_strength_2>
0.0761

>  <oscillator_strength_3>
0.0024

>  <oscillator_strength_4>
0.0009

>  <open_babel_can_smiles>
O=C(c1ccc(cc1)N)NCC(=O)O

>  <mulliken_charges>
24
1   -0.160264
2   -0.188267
3   -0.179878
4   -0.178203
5   -0.251284
6   0.078129
7   0.340197
8   0.591224
9   0.565106
10   -0.791172
11   -0.602866
12   -0.451143
13   -0.58516
14   -0.57118
15   0.167226
16   0.129813
17   0.131396
18   0.127671
19   0.18072
20   0.195946
21   0.332483
22   0.331023
23   0.341656
24   0.446825

>  <lowdin_charges>
24
1   -0.11364
2   -0.141958
3   -0.194356
4   -0.197529
5   -0.236391
6   -0.07316
7   0.077546
8   0.177858
9   0.174335
10   -0.467345
11   -0.265281
12   -0.254643
13   -0.362996
14   -0.34437
15   0.178162
16   0.156224
17   0.158264
18   0.15654
19   0.174966
20   0.177201
21   0.282703
22   0.282504
23   0.29063
24   0.364737

$$$$

