PCCDB-ID:  709
public computational chemistry database (PCCDB) project, http://pccdb.org

 24 24  0  0  0  0  0  0  0  0999 V2000
    3.5249   -1.2734   -1.1939 C   0  0  0  0  0  0  0  0  0  0  0  0
    4.4426    3.5112   -2.3618 C   0  0  0  0  0  0  0  0  0  0  0  0
    3.0815    4.5519   -0.5903 C   0  0  0  0  0  0  0  0  0  0  0  0
    5.0754    2.4180   -2.9464 C   0  0  0  0  0  0  0  0  0  0  0  0
    2.3871    4.6478    0.5603 C   0  0  0  0  0  0  0  0  0  0  0  0
    3.6394    2.0904   -0.5888 C   0  0  0  0  0  0  0  0  0  0  0  0
    3.7181    3.3739   -1.1665 C   0  0  0  0  0  0  0  0  0  0  0  0
    5.0031    1.1560   -2.3533 C   0  0  0  0  0  0  0  0  0  0  0  0
    4.2617    0.9901   -1.1604 C   0  0  0  0  0  0  0  0  0  0  0  0
    1.8160    5.9532    0.9688 C   0  0  0  0  0  0  0  0  0  0  0  0
    5.6268    0.0582   -2.8690 O   0  0  0  0  0  0  0  0  0  0  0  0
    1.9035    6.9781    0.3298 O   0  0  0  0  0  0  0  0  0  0  0  0
    1.1479    5.9599    2.1604 O   0  0  0  0  0  0  0  0  0  0  0  0
    4.2021   -0.2143   -0.5086 O   0  0  0  0  0  0  0  0  0  0  0  0
    3.5385   -2.1257   -0.5113 H   0  0  0  0  0  0  0  0  0  0  0  0
    4.0327   -1.5408   -2.1249 H   0  0  0  0  0  0  0  0  0  0  0  0
    2.4843   -0.9950   -1.4065 H   0  0  0  0  0  0  0  0  0  0  0  0
    4.5151    4.4865   -2.8349 H   0  0  0  0  0  0  0  0  0  0  0  0
    3.1815    5.4754   -1.1594 H   0  0  0  0  0  0  0  0  0  0  0  0
    5.6415    2.5431   -3.8678 H   0  0  0  0  0  0  0  0  0  0  0  0
    2.2351    3.7847    1.2060 H   0  0  0  0  0  0  0  0  0  0  0  0
    3.0885    1.9211    0.3306 H   0  0  0  0  0  0  0  0  0  0  0  0
    6.1060    0.3176   -3.6720 H   0  0  0  0  0  0  0  0  0  0  0  0
    1.1694    5.0754    2.5602 H   0  0  0  0  0  0  0  0  0  0  0  0
  1 15  1  0  0  0  0
  1 14  1  0  0  0  0
  2  7  1  0  0  0  0
  3  5  2  0  0  0  0
  4  2  2  0  0  0  0
  4  8  1  0  0  0  0
  5 10  1  0  0  0  0
  5 21  1  0  0  0  0
  6 22  1  0  0  0  0
  7  3  1  0  0  0  0
  7  6  2  0  0  0  0
  8  9  2  0  0  0  0
  9  6  1  0  0  0  0
  9 14  1  0  0  0  0
 10 13  1  0  0  0  0
 11  8  1  0  0  0  0
 12 10  2  0  0  0  0
 13 24  1  0  0  0  0
 16  1  1  0  0  0  0
 17  1  1  0  0  0  0
 18  2  1  0  0  0  0
 19  3  1  0  0  0  0
 20  4  1  0  0  0  0
 23 11  1  0  0  0  0
M  END
>  <HBA>
4

>  <HBD>
2

>  <TPSA>
66.76

>  <cid>
709

>  <dipole>
6.11

>  <excitation_energy_1>
4.028

>  <excitation_energy_2>
4.312

>  <excitation_energy_3>
4.386

>  <excitation_energy_4>
5.04

>  <homo_energy>
-6.046

>  <homo_lumo_gap>
4.31

>  <logP>
1.499

>  <lumo_energy>
-1.736

>  <melting_point>
150.42

>  <molecular_refractivity>
51.63

>  <oscillator_strength_1>
0.4963

>  <oscillator_strength_2>
0.0026

>  <oscillator_strength_3>
0.1548

>  <oscillator_strength_4>
0.0563

>  <open_babel_can_smiles>
COc1cc(/C=C/C(=O)O)ccc1O

>  <mulliken_charges>
24
1   -0.217906
2   -0.192896
3   -0.151981
4   -0.201055
5   -0.248592
6   -0.235759
7   0.170864
8   0.320958
9   0.34245
10   0.608383
11   -0.631591
12   -0.465613
13   -0.586711
14   -0.520005
15   0.164302
16   0.170629
17   0.142599
18   0.145438
19   0.172009
20   0.130772
21   0.12368
22   0.139644
23   0.415347
24   0.405035

>  <lowdin_charges>
24
1   -0.275446
2   -0.145027
3   -0.091809
4   -0.206217
5   -0.24428
6   -0.15933
7   -0.023337
8   0.087881
9   0.071699
10   0.196656
11   -0.36151
12   -0.259178
13   -0.363721
14   -0.220185
15   0.159903
16   0.153841
17   0.139259
18   0.165987
19   0.179419
20   0.158821
21   0.15123
22   0.16819
23   0.363922
24   0.353232

$$$$

