PCCDB-ID:  1194
public computational chemistry database (PCCDB) project, http://pccdb.org

 18 18  0  0  0  0  0  0  0  0999 V2000
    0.4240    1.4233   -0.0850 C   0  0  0  0  0  0  0  0  0  0  0  0
    1.3993    0.2749   -0.3620 C   0  0  0  0  0  0  0  0  0  0  0  0
   -0.9964    0.9943   -0.4690 C   0  0  0  0  0  0  0  0  0  0  0  0
    0.9720   -0.9718    0.4213 C   0  0  0  0  0  0  0  0  0  0  0  0
   -1.2913   -0.4215   -0.0085 C   0  0  0  0  0  0  0  0  0  0  0  0
   -2.7523   -0.8064   -0.0428 C   0  0  0  0  0  0  0  0  0  0  0  0
   -0.4538   -1.2950    0.3932 N   0  0  0  0  0  0  0  0  0  0  0  0
   -3.0027   -2.0689    0.3544 O   0  0  0  0  0  0  0  0  0  0  0  0
   -3.6265   -0.0426   -0.4045 O   0  0  0  0  0  0  0  0  0  0  0  0
    0.7088    2.3279   -0.6334 H   0  0  0  0  0  0  0  0  0  0  0  0
    0.4549    1.6776    0.9834 H   0  0  0  0  0  0  0  0  0  0  0  0
    2.4262    0.5481   -0.0917 H   0  0  0  0  0  0  0  0  0  0  0  0
    1.4024    0.0485   -1.4372 H   0  0  0  0  0  0  0  0  0  0  0  0
   -1.1358    1.0380   -1.5590 H   0  0  0  0  0  0  0  0  0  0  0  0
   -1.7550    1.6664   -0.0551 H   0  0  0  0  0  0  0  0  0  0  0  0
    1.2404   -0.8728    1.4837 H   0  0  0  0  0  0  0  0  0  0  0  0
    1.5042   -1.8629    0.0660 H   0  0  0  0  0  0  0  0  0  0  0  0
   -3.9697   -2.1747    0.2798 H   0  0  0  0  0  0  0  0  0  0  0  0
  1 11  1  0  0  0  0
  2 12  1  0  0  0  0
  2  1  1  0  0  0  0
  2  4  1  0  0  0  0
  3  1  1  0  0  0  0
  3 15  1  0  0  0  0
  3  5  1  0  0  0  0
  4 16  1  0  0  0  0
  5  7  2  0  0  0  0
  6  5  1  0  0  0  0
  6  8  1  0  0  0  0
  7  4  1  0  0  0  0
  9  6  2  0  0  0  0
 10  1  1  0  0  0  0
 13  2  1  0  0  0  0
 14  3  1  0  0  0  0
 17  4  1  0  0  0  0
 18  8  1  0  0  0  0
M  END
>  <HBA>
3

>  <HBD>
1

>  <TPSA>
49.66

>  <cid>
1194

>  <dipole>
1.76

>  <excitation_energy_1>
3.811

>  <excitation_energy_2>
4.931

>  <excitation_energy_3>
6.05

>  <excitation_energy_4>
6.156

>  <homo_energy>
-6.631

>  <homo_lumo_gap>
5.255

>  <logP>
0.132

>  <lumo_energy>
-1.377

>  <melting_point>
91.04

>  <molecular_refractivity>
37.62

>  <oscillator_strength_1>
0.0011

>  <oscillator_strength_2>
0.0005

>  <oscillator_strength_3>
0.0013

>  <oscillator_strength_4>
0.2411

>  <open_babel_can_smiles>
OC(=O)C1=NCCCC1

>  <mulliken_charges>
18
1   -0.271263
2   -0.282265
3   -0.322368
4   -0.153853
5   0.243496
6   0.563361
7   -0.403364
8   -0.549889
9   -0.470245
10   0.143222
11   0.142841
12   0.140957
13   0.14329
14   0.16796
15   0.1773
16   0.160931
17   0.160873
18   0.409017

>  <lowdin_charges>
18
1   -0.275278
2   -0.288737
3   -0.294794
4   -0.209809
5   0.014702
6   0.186012
7   -0.133017
8   -0.329154
9   -0.269553
10   0.151069
11   0.143167
12   0.150563
13   0.143519
14   0.163076
15   0.173968
16   0.155843
17   0.158469
18   0.359952

$$$$

