PCCDB-ID:  392
public computational chemistry database (PCCDB) project, http://pccdb.org

 24 23  0  0  1  0  0  0  0  0999 V2000
    1.1192    0.1800    0.0255 C   0  0  0  0  0  0  0  0  0  0  0  0
    0.4853   -0.4557   -1.2167 C   0  0  0  0  0  0  0  0  0  0  0  0
    2.6510    0.1386    0.0092 C   0  0  0  0  0  0  0  0  0  0  0  0
   -1.6400   -1.0287   -2.5187 C   0  0  0  0  0  0  0  0  0  0  0  0
   -1.0472   -0.5515   -1.1573 C   0  0  1  0  0  0  0  0  0  0  0  0
   -1.4475    0.0044   -3.6198 C   0  0  0  0  0  0  0  0  0  0  0  0
    3.1397   -1.2489    0.0071 N   0  0  0  0  0  0  0  0  0  0  0  0
   -1.4430   -1.4022   -0.0322 N   0  0  0  0  0  0  0  0  0  0  0  0
   -2.1119    1.0070   -3.7090 O   0  0  0  0  0  0  0  0  0  0  0  0
   -0.4304   -0.2165   -4.5015 O   0  0  0  0  0  0  0  0  0  0  0  0
    0.7449   -0.3312    0.9212 H   0  0  0  0  0  0  0  0  0  0  0  0
    0.7962    1.2268    0.1107 H   0  0  0  0  0  0  0  0  0  0  0  0
    0.9063   -1.4624   -1.3508 H   0  0  0  0  0  0  0  0  0  0  0  0
    0.7766    0.1237   -2.1035 H   0  0  0  0  0  0  0  0  0  0  0  0
    3.0315    0.7400    0.8542 H   0  0  0  0  0  0  0  0  0  0  0  0
    3.0215    0.6191   -0.9062 H   0  0  0  0  0  0  0  0  0  0  0  0
   -2.7197   -1.1681   -2.4031 H   0  0  0  0  0  0  0  0  0  0  0  0
   -1.2040   -2.0023   -2.7842 H   0  0  0  0  0  0  0  0  0  0  0  0
   -1.4618    0.4465   -0.9655 H   0  0  0  0  0  0  0  0  0  0  0  0
    2.9316   -1.6778    0.9090 H   0  0  0  0  0  0  0  0  0  0  0  0
    4.1551   -1.2559   -0.0764 H   0  0  0  0  0  0  0  0  0  0  0  0
   -1.1300   -2.3600   -0.1930 H   0  0  0  0  0  0  0  0  0  0  0  0
   -2.4580   -1.4364    0.0487 H   0  0  0  0  0  0  0  0  0  0  0  0
    0.0164   -1.0512   -4.2877 H   0  0  0  0  0  0  0  0  0  0  0  0
  1 12  1  0  0  0  0
  1 11  1  0  0  0  0
  2  5  1  0  0  0  0
  2  1  1  0  0  0  0
  3  1  1  0  0  0  0
  3 15  1  0  0  0  0
  4 17  1  0  0  0  0
  4  5  1  0  0  0  0
  5 19  1  1  0  0  0
  5  8  1  0  0  0  0
  6  4  1  0  0  0  0
  7  3  1  0  0  0  0
  7 20  1  0  0  0  0
  8 23  1  0  0  0  0
  9  6  2  0  0  0  0
 10 24  1  0  0  0  0
 10  6  1  0  0  0  0
 13  2  1  0  0  0  0
 14  2  1  0  0  0  0
 16  3  1  0  0  0  0
 18  4  1  0  0  0  0
 21  7  1  0  0  0  0
 22  8  1  0  0  0  0
M  END
>  <HBA>
4

>  <HBD>
3

>  <TPSA>
89.34

>  <cid>
392

>  <dipole>
4.53

>  <excitation_energy_1>
5.425

>  <excitation_energy_2>
5.631

>  <excitation_energy_3>
5.72

>  <excitation_energy_4>
5.812

>  <homo_energy>
-6.389

>  <homo_lumo_gap>
6.634

>  <logP>
0.928

>  <lumo_energy>
0.245

>  <melting_point>
159.09

>  <molecular_refractivity>
38.14

>  <oscillator_strength_1>
0.0084

>  <oscillator_strength_2>
0.0053

>  <oscillator_strength_3>
0.0251

>  <oscillator_strength_4>
0.0022

>  <open_babel_can_smiles>
NCCC[C@@H](CC(=O)O)N

>  <mulliken_charges>
24
1   -0.25473
2   -0.270243
3   -0.142338
4   -0.373588
5   0.020467
6   0.586127
7   -0.717001
8   -0.706051
9   -0.442672
10   -0.563128
11   0.155661
12   0.13184
13   0.145283
14   0.136577
15   0.116355
16   0.136918
17   0.168649
18   0.123156
19   0.157746
20   0.292938
21   0.296947
22   0.292072
23   0.300182
24   0.408833

>  <lowdin_charges>
24
1   -0.279194
2   -0.288761
3   -0.20639
4   -0.332275
5   -0.060217
6   0.192842
7   -0.559316
8   -0.537598
9   -0.244137
10   -0.359701
11   0.152442
12   0.14339
13   0.146632
14   0.145211
15   0.121923
16   0.140072
17   0.16777
18   0.140233
19   0.150945
20   0.250763
21   0.252678
22   0.250798
23   0.254514
24   0.357377

$$$$

