PCCDB-ID:  7
public computational chemistry database (PCCDB) project, http://pccdb.org

 21 22  0  0  1  0  0  0  0  0999 V2000
    3.7436   -0.3983   -0.6969 C   0  0  0  0  0  0  0  0  0  0  0  0
    2.5528    0.0400    0.1574 C   0  0  0  0  0  0  0  0  0  0  0  0
    4.5952   -0.1172    4.0264 C   0  0  0  0  0  0  0  0  0  0  0  0
    2.6883    2.4253    1.0639 C   0  0  0  0  0  0  0  0  0  0  0  0
    3.7146    2.1293    2.8941 C   0  0  0  0  0  0  0  0  0  0  0  0
    4.3668    2.1768    4.1438 C   0  0  2  0  0  0  0  0  0  0  0  0
    3.5770    0.8578    2.3261 C   0  0  0  0  0  0  0  0  0  0  0  0
    4.6008    3.3464    4.7955 N   0  0  0  0  0  0  0  0  0  0  0  0
    4.7971    1.0293    4.6975 N   0  0  0  0  0  0  0  0  0  0  0  0
    4.0016   -0.3038    2.8436 N   0  0  0  0  0  0  0  0  0  0  0  0
    3.1484    3.1026    2.0895 N   0  0  0  0  0  0  0  0  0  0  0  0
    2.9073    1.0637    1.1376 N   0  0  0  0  0  0  0  0  0  0  0  0
    3.4259   -1.1592   -1.4184 H   0  0  0  0  0  0  0  0  0  0  0  0
    4.5265   -0.8278   -0.0653 H   0  0  0  0  0  0  0  0  0  0  0  0
    4.1645    0.4480   -1.2502 H   0  0  0  0  0  0  0  0  0  0  0  0
    2.1459   -0.8131    0.7085 H   0  0  0  0  0  0  0  0  0  0  0  0
    1.7503    0.4500   -0.4642 H   0  0  0  0  0  0  0  0  0  0  0  0
    4.9658   -1.0139    4.5192 H   0  0  0  0  0  0  0  0  0  0  0  0
    2.1695    2.8570    0.2166 H   0  0  0  0  0  0  0  0  0  0  0  0
    4.1095    4.1741    4.4919 H   0  0  0  0  0  0  0  0  0  0  0  0
    4.8993    3.2901    5.7584 H   0  0  0  0  0  0  0  0  0  0  0  0
  1 14  1  0  0  0  0
  1  2  1  0  0  0  0
  2 16  1  0  0  0  0
  2 12  1  0  0  0  0
  3 18  1  0  0  0  0
  3  9  2  0  0  0  0
  4 12  1  0  0  0  0
  4 11  2  0  0  0  0
  5  6  1  0  0  0  0
  6  9  1  0  0  0  0
  6  8  1  6  0  0  0
  7 10  1  0  0  0  0
  7  5  2  0  0  0  0
  8 21  1  0  0  0  0
 10  3  1  0  0  0  0
 11  5  1  0  0  0  0
 12  7  1  0  0  0  0
 13  1  1  0  0  0  0
 15  1  1  0  0  0  0
 17  2  1  0  0  0  0
 19  4  1  0  0  0  0
 20  8  1  0  0  0  0
M  RAD  2   6   2  10   2
M  END
>  <HBA>
5

>  <HBD>
1

>  <TPSA>
69.62

>  <cid>
7

>  <dipole>
2.48

>  <excitation_energy_1>
4.949

>  <excitation_energy_2>
4.986

>  <excitation_energy_3>
5.215

>  <excitation_energy_4>
5.433

>  <homo_energy>
-5.842

>  <homo_lumo_gap>
5.442

>  <logP>
1.01

>  <lumo_energy>
-0.4

>  <melting_point>
146.83

>  <molecular_refractivity>
45.8

>  <oscillator_strength_1>
0.1801

>  <oscillator_strength_2>
0.0314

>  <oscillator_strength_3>
0.0366

>  <oscillator_strength_4>
0.0102

>  <open_babel_can_smiles>
CCn1cnc2c1[N]C=N[C]2N

>  <mulliken_charges>
21
1   -0.448121
2   -0.151743
3   0.160899
4   0.213715
5   0.193071
6   0.483482
7   0.513626
8   -0.77493
9   -0.509117
10   -0.510597
11   -0.527562
12   -0.474722
13   0.153341
14   0.186059
15   0.154996
16   0.184461
17   0.156449
18   0.142533
19   0.159211
20   0.352578
21   0.34237

>  <lowdin_charges>
21
1   -0.452989
2   -0.189017
3   -0.037176
4   -0.067197
5   -0.062936
6   0.120071
7   0.056413
8   -0.441993
9   -0.223617
10   -0.211215
11   -0.195717
12   -0.025588
13   0.15928
14   0.171175
15   0.155754
16   0.170216
17   0.157099
18   0.157503
19   0.16897
20   0.298621
21   0.292342

$$$$

