PCCDB-ID:  326
public computational chemistry database (PCCDB) project, http://pccdb.org

 23 23  0  0  0  0  0  0  0  0999 V2000
    1.3007    0.8666    0.0552 C   0  0  0  0  0  0  0  0  0  0  0  0
    3.6352    0.6933   -0.9337 C   0  0  0  0  0  0  0  0  0  0  0  0
    4.1208    0.8981    3.4716 C   0  0  0  0  0  0  0  0  0  0  0  0
    3.9048   -1.5039    3.2874 C   0  0  0  0  0  0  0  0  0  0  0  0
    3.5874    1.0450    2.1946 C   0  0  0  0  0  0  0  0  0  0  0  0
    3.3728   -1.3498    2.0127 C   0  0  0  0  0  0  0  0  0  0  0  0
    4.8513   -0.5258    5.3865 C   0  0  0  0  0  0  0  0  0  0  0  0
    2.6201    0.0712    0.0444 C   0  0  0  0  0  0  0  0  0  0  0  0
    4.2843   -0.3767    4.0300 C   0  0  0  0  0  0  0  0  0  0  0  0
    3.2034   -0.0768    1.4425 C   0  0  0  0  0  0  0  0  0  0  0  0
    5.0380   -1.5883    5.9498 O   0  0  0  0  0  0  0  0  0  0  0  0
    0.8670    0.9018   -0.9509 H   0  0  0  0  0  0  0  0  0  0  0  0
    1.4597    1.9003    0.3844 H   0  0  0  0  0  0  0  0  0  0  0  0
    0.5666    0.4104    0.7279 H   0  0  0  0  0  0  0  0  0  0  0  0
    3.2172    0.7326   -1.9464 H   0  0  0  0  0  0  0  0  0  0  0  0
    4.5619    0.1104   -0.9693 H   0  0  0  0  0  0  0  0  0  0  0  0
    3.8949    1.7175   -0.6409 H   0  0  0  0  0  0  0  0  0  0  0  0
    4.4144    1.7758    4.0444 H   0  0  0  0  0  0  0  0  0  0  0  0
    4.0365   -2.4865    3.7305 H   0  0  0  0  0  0  0  0  0  0  0  0
    3.4676    2.0417    1.7783 H   0  0  0  0  0  0  0  0  0  0  0  0
    3.0804   -2.2283    1.4421 H   0  0  0  0  0  0  0  0  0  0  0  0
    5.1100    0.4343    5.8878 H   0  0  0  0  0  0  0  0  0  0  0  0
    2.3914   -0.9402   -0.3173 H   0  0  0  0  0  0  0  0  0  0  0  0
  1 13  1  0  0  0  0
  1 14  1  0  0  0  0
  2 17  1  0  0  0  0
  2  8  1  0  0  0  0
  3  9  1  0  0  0  0
  3 18  1  0  0  0  0
  4 19  1  0  0  0  0
  4  9  2  0  0  0  0
  5  3  2  0  0  0  0
  6  4  1  0  0  0  0
  7 22  1  0  0  0  0
  7 11  2  0  0  0  0
  8  1  1  0  0  0  0
  8 10  1  0  0  0  0
  9  7  1  0  0  0  0
 10  6  2  0  0  0  0
 10  5  1  0  0  0  0
 12  1  1  0  0  0  0
 15  2  1  0  0  0  0
 16  2  1  0  0  0  0
 20  5  1  0  0  0  0
 21  6  1  0  0  0  0
 23  8  1  0  0  0  0
M  END
>  <HBA>
1

>  <HBD>
0

>  <TPSA>
17.07

>  <cid>
326

>  <dipole>
3.86

>  <excitation_energy_1>
3.711

>  <excitation_energy_2>
4.677

>  <excitation_energy_3>
4.929

>  <excitation_energy_4>
5.597

>  <homo_energy>
-6.836

>  <homo_lumo_gap>
5.238

>  <logP>
2.623

>  <lumo_energy>
-1.597

>  <melting_point>
40.6

>  <molecular_refractivity>
46.41

>  <oscillator_strength_1>
0.0001

>  <oscillator_strength_2>
0.0162

>  <oscillator_strength_3>
0.3753

>  <oscillator_strength_4>
0.0001

>  <open_babel_can_smiles>
O=Cc1ccc(cc1)C(C)C

>  <mulliken_charges>
23
1   -0.440594
2   -0.440259
3   -0.179538
4   -0.154454
5   -0.187417
6   -0.196994
7   0.19192
8   -0.164096
9   0.095405
10   0.194337
11   -0.410201
12   0.146731
13   0.145344
14   0.153406
15   0.146729
16   0.153337
17   0.145515
18   0.138402
19   0.161879
20   0.133175
21   0.133785
22   0.099466
23   0.134121

>  <lowdin_charges>
23
1   -0.440578
2   -0.439279
3   -0.141471
4   -0.123511
5   -0.165367
6   -0.167516
7   0.046075
8   -0.118967
9   -0.060192
10   0.021574
11   -0.232125
12   0.151032
13   0.147449
14   0.155872
15   0.150765
16   0.154691
17   0.147785
18   0.161596
19   0.174913
20   0.157995
21   0.1597
22   0.115788
23   0.143772

$$$$

