PCCDB-ID:  1647
public computational chemistry database (PCCDB) project, http://pccdb.org

 11 10  0  0  0  0  0  0  0  0999 V2000
    1.0341   -0.0735   -0.0400 C   0  0  0  0  0  0  0  0  0  0  0  0
    0.4915    0.6848   -1.2687 C   0  0  0  0  0  0  0  0  0  0  0  0
    2.4981   -0.0876    0.0095 C   0  0  0  0  0  0  0  0  0  0  0  0
   -0.9705    0.6770   -1.2230 N   0  0  0  0  0  0  0  0  0  0  0  0
    3.6587   -0.0858    0.0312 N   0  0  0  0  0  0  0  0  0  0  0  0
    0.6757   -1.1112   -0.0504 H   0  0  0  0  0  0  0  0  0  0  0  0
    0.6394    0.3908    0.8705 H   0  0  0  0  0  0  0  0  0  0  0  0
    0.9296    0.2488   -2.1820 H   0  0  0  0  0  0  0  0  0  0  0  0
    0.8305    1.7246   -1.2172 H   0  0  0  0  0  0  0  0  0  0  0  0
   -1.3245   -0.2419   -1.4856 H   0  0  0  0  0  0  0  0  0  0  0  0
   -1.3417    1.3308   -1.9091 H   0  0  0  0  0  0  0  0  0  0  0  0
  1  3  1  0  0  0  0
  1  7  1  0  0  0  0
  2  4  1  0  0  0  0
  2  9  1  0  0  0  0
  2  1  1  0  0  0  0
  3  5  3  0  0  0  0
  6  1  1  0  0  0  0
  8  2  1  0  0  0  0
 10  4  1  0  0  0  0
 11  4  1  0  0  0  0
M  END
>  <HBA>
2

>  <HBD>
1

>  <TPSA>
49.81

>  <cid>
1647

>  <dipole>
4.16

>  <excitation_energy_1>
5.829

>  <excitation_energy_2>
6.748

>  <excitation_energy_3>
6.94

>  <excitation_energy_4>
7.162

>  <homo_energy>
-6.966

>  <homo_lumo_gap>
7.932

>  <logP>
0.559

>  <lumo_energy>
0.966

>  <melting_point>
63.58

>  <molecular_refractivity>
18.99

>  <oscillator_strength_1>
0.0143

>  <oscillator_strength_2>
0.0015

>  <oscillator_strength_3>
0.0114

>  <oscillator_strength_4>
0.0078

>  <open_babel_can_smiles>
NCCC#N

>  <mulliken_charges>
11
1   -0.32873
2   -0.142873
3   0.345243
4   -0.715596
5   -0.472544
6   0.186497
7   0.20801
8   0.143174
9   0.166715
10   0.30076
11   0.309344

>  <lowdin_charges>
11
1   -0.275745
2   -0.195267
3   -0.019908
4   -0.555644
5   -0.128979
6   0.176164
7   0.18906
8   0.133667
9   0.155461
10   0.256407
11   0.264785

$$$$

