PCCDB-ID:  909
public computational chemistry database (PCCDB) project, http://pccdb.org

 22 21  0  0  1  0  0  0  0  0999 V2000
    1.0142   -0.2015   -0.3062 C   0  0  0  0  0  0  0  0  0  0  0  0
    0.1207   -1.3184    0.2920 C   0  0  0  0  0  0  0  0  0  0  0  0
    4.4489   -0.9251   -1.5713 C   0  0  0  0  0  0  0  0  0  0  0  0
    2.5496   -0.2971   -0.0976 C   0  0  1  0  0  0  0  0  0  0  0  0
    0.3842   -2.7093   -0.2622 C   0  0  0  0  0  0  0  0  0  0  0  0
    2.8855   -0.5392    1.3949 C   0  0  0  0  0  0  0  0  0  0  0  0
    5.2190   -1.6890   -2.2437 N   0  0  0  0  0  0  0  0  0  0  0  0
    3.2007   -1.1962   -1.0373 N   0  0  0  0  0  0  0  0  0  0  0  0
    1.4385   -3.3015   -0.1003 O   0  0  0  0  0  0  0  0  0  0  0  0
   -0.5905   -3.3106   -0.9621 O   0  0  0  0  0  0  0  0  0  0  0  0
    3.1191    0.3791    2.1444 O   0  0  0  0  0  0  0  0  0  0  0  0
    2.8621   -1.8129    1.8320 O   0  0  0  0  0  0  0  0  0  0  0  0
    0.6810    0.7324    0.1589 H   0  0  0  0  0  0  0  0  0  0  0  0
    0.8329   -0.1126   -1.3832 H   0  0  0  0  0  0  0  0  0  0  0  0
   -0.9278   -1.0332    0.1465 H   0  0  0  0  0  0  0  0  0  0  0  0
    0.2839   -1.3796    1.3742 H   0  0  0  0  0  0  0  0  0  0  0  0
    4.7678    0.1073   -1.3994 H   0  0  0  0  0  0  0  0  0  0  0  0
    2.9447    0.7018   -0.2998 H   0  0  0  0  0  0  0  0  0  0  0  0
    4.8242   -2.6325   -2.3363 H   0  0  0  0  0  0  0  0  0  0  0  0
    2.8889   -2.1599   -1.0621 H   0  0  0  0  0  0  0  0  0  0  0  0
   -1.3758   -2.7417   -1.0183 H   0  0  0  0  0  0  0  0  0  0  0  0
    2.5753   -2.4316    1.1242 H   0  0  0  0  0  0  0  0  0  0  0  0
  1  4  1  0  0  0  0
  1 13  1  0  0  0  0
  1  2  1  0  0  0  0
  2 16  1  0  0  0  0
  3 17  1  0  0  0  0
  3  8  1  0  0  0  0
  4 18  1  6  0  0  0
  4  6  1  0  0  0  0
  5  9  2  0  0  0  0
  5  2  1  0  0  0  0
  6 12  1  0  0  0  0
  6 11  2  0  0  0  0
  7  3  2  0  0  0  0
  8  4  1  0  0  0  0
 10  5  1  0  0  0  0
 14  1  1  0  0  0  0
 15  2  1  0  0  0  0
 19  7  1  0  0  0  0
 20  8  1  0  0  0  0
 21 10  1  0  0  0  0
 22 12  1  0  0  0  0
M  END
>  <HBA>
6

>  <HBD>
3

>  <TPSA>
112.98

>  <cid>
909

>  <dipole>
8.2

>  <excitation_energy_1>
4.278

>  <excitation_energy_2>
4.926

>  <excitation_energy_3>
5.093

>  <excitation_energy_4>
5.217

>  <homo_energy>
-6.272

>  <homo_lumo_gap>
5.012

>  <logP>
-0.008

>  <lumo_energy>
-1.26

>  <melting_point>
199.87

>  <molecular_refractivity>
40.89

>  <oscillator_strength_1>
0.0058

>  <oscillator_strength_2>
0.001

>  <oscillator_strength_3>
0.0057

>  <oscillator_strength_4>
0.0011

>  <open_babel_can_smiles>
OC(=O)[C@@H](NC=N)CCC(=O)O

>  <mulliken_charges>
22
1   -0.279177
2   -0.409937
3   0.233285
4   -0.088211
5   0.623177
6   0.597525
7   -0.577344
8   -0.581872
9   -0.476024
10   -0.532683
11   -0.448902
12   -0.593562
13   0.183235
14   0.168929
15   0.151035
16   0.218651
17   0.14806
18   0.186581
19   0.267367
20   0.343995
21   0.425007
22   0.440863

>  <lowdin_charges>
22
1   -0.271136
2   -0.322196
3   -0.030691
4   -0.097641
5   0.216791
6   0.177377
7   -0.417613
8   -0.311206
9   -0.271441
10   -0.315948
11   -0.248195
12   -0.361785
13   0.172824
14   0.159706
15   0.156777
16   0.189468
17   0.149139
18   0.177827
19   0.241801
20   0.277764
21   0.370429
22   0.357947

$$$$

