PCCDB-ID:  1551
public computational chemistry database (PCCDB) project, http://pccdb.org

 33 33  0  0  1  0  0  0  0  0999 V2000
   -1.9729   -0.0968    0.5091 C   0  0  0  0  0  0  0  0  0  0  0  0
   -1.7512    1.2278   -0.2355 C   0  0  0  0  0  0  0  0  0  0  0  0
   -1.7299   -1.3948   -0.2737 C   0  0  0  0  0  0  0  0  0  0  0  0
   -0.3212    1.5314   -0.7332 C   0  0  0  0  0  0  0  0  0  0  0  0
   -0.3021   -1.6491   -0.7994 C   0  0  0  0  0  0  0  0  0  0  0  0
    0.8225    1.2301    0.2648 C   0  0  0  0  0  0  0  0  0  0  0  0
    0.8519   -1.3934    0.2041 C   0  0  0  0  0  0  0  0  0  0  0  0
    3.8936   -1.1842    0.7567 C   0  0  0  0  0  0  0  0  0  0  0  0
    1.6326   -0.0681    0.0305 C   0  0  0  0  0  0  0  0  0  0  0  0
    2.8964   -0.0228    0.9403 C   0  0  2  0  0  0  0  0  0  0  0  0
    4.5351   -1.0561   -0.5635 N   0  0  0  0  0  0  0  0  0  0  0  0
    3.6279    1.1841    0.7448 O   0  0  0  0  0  0  0  0  0  0  0  0
   -3.0128   -0.1120    0.8637 H   0  0  0  0  0  0  0  0  0  0  0  0
   -1.3583   -0.1045    1.4186 H   0  0  0  0  0  0  0  0  0  0  0  0
   -2.0500    2.0349    0.4487 H   0  0  0  0  0  0  0  0  0  0  0  0
   -2.4433    1.2875   -1.0881 H   0  0  0  0  0  0  0  0  0  0  0  0
   -2.4270   -1.4438   -1.1228 H   0  0  0  0  0  0  0  0  0  0  0  0
   -2.0039   -2.2304    0.3866 H   0  0  0  0  0  0  0  0  0  0  0  0
   -0.2935    2.5995   -0.9855 H   0  0  0  0  0  0  0  0  0  0  0  0
   -0.1290    1.0129   -1.6796 H   0  0  0  0  0  0  0  0  0  0  0  0
   -0.1252   -1.0679   -1.7110 H   0  0  0  0  0  0  0  0  0  0  0  0
   -0.2638   -2.6994   -1.1174 H   0  0  0  0  0  0  0  0  0  0  0  0
    0.4338    1.2298    1.2942 H   0  0  0  0  0  0  0  0  0  0  0  0
    1.5506    2.0443    0.2278 H   0  0  0  0  0  0  0  0  0  0  0  0
    1.5628   -2.2210    0.0991 H   0  0  0  0  0  0  0  0  0  0  0  0
    0.4767   -1.4659    1.2355 H   0  0  0  0  0  0  0  0  0  0  0  0
    3.4278   -2.1630    0.9376 H   0  0  0  0  0  0  0  0  0  0  0  0
    4.6757   -1.0536    1.5119 H   0  0  0  0  0  0  0  0  0  0  0  0
    1.9910   -0.0323   -1.0126 H   0  0  0  0  0  0  0  0  0  0  0  0
    2.5638   -0.0180    1.9879 H   0  0  0  0  0  0  0  0  0  0  0  0
    3.9408   -1.4488   -1.2909 H   0  0  0  0  0  0  0  0  0  0  0  0
    5.4100   -1.5736   -0.5898 H   0  0  0  0  0  0  0  0  0  0  0  0
    4.2106    0.9776   -0.0138 H   0  0  0  0  0  0  0  0  0  0  0  0
  1 13  1  0  0  0  0
  1 14  1  0  0  0  0
  2 15  1  0  0  0  0
  2  1  1  0  0  0  0
  3 18  1  0  0  0  0
  3  1  1  0  0  0  0
  4  2  1  0  0  0  0
  4  6  1  0  0  0  0
  5  3  1  0  0  0  0
  5  7  1  0  0  0  0
  6 23  1  0  0  0  0
  7 26  1  0  0  0  0
  8 27  1  0  0  0  0
  8 10  1  0  0  0  0
  8 28  1  0  0  0  0
  9  7  1  0  0  0  0
  9  6  1  0  0  0  0
  9 10  1  0  0  0  0
 10 30  1  1  0  0  0
 11  8  1  0  0  0  0
 12 10  1  0  0  0  0
 16  2  1  0  0  0  0
 17  3  1  0  0  0  0
 19  4  1  0  0  0  0
 20  4  1  0  0  0  0
 21  5  1  0  0  0  0
 22  5  1  0  0  0  0
 24  6  1  0  0  0  0
 25  7  1  0  0  0  0
 29  9  1  0  0  0  0
 31 11  1  0  0  0  0
 32 11  1  0  0  0  0
 33 12  1  0  0  0  0
M  END
>  <HBA>
2

>  <HBD>
2

>  <TPSA>
46.25

>  <cid>
1551

>  <dipole>
3.01

>  <excitation_energy_1>
5.777

>  <excitation_energy_2>
6.257

>  <excitation_energy_3>
6.38

>  <excitation_energy_4>
6.565

>  <homo_energy>
-6.52

>  <homo_lumo_gap>
8.163

>  <logP>
2.367

>  <lumo_energy>
1.644

>  <melting_point>
66.23

>  <molecular_refractivity>
51.94

>  <oscillator_strength_1>
0.0081

>  <oscillator_strength_2>
0.0191

>  <oscillator_strength_3>
0.002

>  <oscillator_strength_4>
0.0052

>  <open_babel_can_smiles>
NC[C@H](C1CCCCCCC1)O

>  <mulliken_charges>
33
1   -0.256082
2   -0.257099
3   -0.25636
4   -0.265901
5   -0.263774
6   -0.268904
7   -0.272441
8   -0.181387
9   -0.10712
10   0.154761
11   -0.747731
12   -0.646214
13   0.126759
14   0.132295
15   0.129064
16   0.123397
17   0.125681
18   0.126898
19   0.130414
20   0.130123
21   0.136367
22   0.126483
23   0.122433
24   0.166297
25   0.122567
26   0.131744
27   0.130642
28   0.153031
29   0.106626
30   0.121064
31   0.309444
32   0.311225
33   0.405694

>  <lowdin_charges>
33
1   -0.282121
2   -0.279611
3   -0.278476
4   -0.282414
5   -0.282369
6   -0.286606
7   -0.285419
8   -0.229209
9   -0.142676
10   -0.009572
11   -0.560337
12   -0.471639
13   0.142333
14   0.138431
15   0.141527
16   0.138502
17   0.139751
18   0.140016
19   0.142023
20   0.13735
21   0.14116
22   0.140017
23   0.135634
24   0.163107
25   0.13956
26   0.139265
27   0.130056
28   0.153178
29   0.127472
30   0.135503
31   0.260388
32   0.263972
33   0.341206

$$$$

