PCCDB-ID:  215
public computational chemistry database (PCCDB) project, http://pccdb.org

 12 11  0  0  0  0  0  0  0  0999 V2000
    1.5904   -0.7079    0.8522 C   0  0  0  0  0  0  0  0  0  0  0  0
    2.6335   -0.2960   -1.5014 C   0  0  0  0  0  0  0  0  0  0  0  0
    2.4946    0.1246   -0.0335 C   0  0  0  0  0  0  0  0  0  0  0  0
    2.5071   -1.7410   -1.6996 N   0  0  0  0  0  0  0  0  0  0  0  0
    3.0733    1.1154    0.3711 O   0  0  0  0  0  0  0  0  0  0  0  0
    2.0127   -1.7094    0.9907 H   0  0  0  0  0  0  0  0  0  0  0  0
    0.6137   -0.8571    0.3782 H   0  0  0  0  0  0  0  0  0  0  0  0
    1.4764   -0.2148    1.8198 H   0  0  0  0  0  0  0  0  0  0  0  0
    3.5582    0.1647   -1.8822 H   0  0  0  0  0  0  0  0  0  0  0  0
    1.7988    0.1873   -2.0299 H   0  0  0  0  0  0  0  0  0  0  0  0
    3.3737   -2.2062   -1.4346 H   0  0  0  0  0  0  0  0  0  0  0  0
    2.3672   -1.9455   -2.6865 H   0  0  0  0  0  0  0  0  0  0  0  0
  1  6  1  0  0  0  0
  1  8  1  0  0  0  0
  2  3  1  0  0  0  0
  3  5  2  0  0  0  0
  3  1  1  0  0  0  0
  4  2  1  0  0  0  0
  4 11  1  0  0  0  0
  7  1  1  0  0  0  0
  9  2  1  0  0  0  0
 10  2  1  0  0  0  0
 12  4  1  0  0  0  0
M  END
>  <HBA>
2

>  <HBD>
1

>  <TPSA>
43.09

>  <cid>
215

>  <dipole>
2.9

>  <excitation_energy_1>
4.304

>  <excitation_energy_2>
5.413

>  <excitation_energy_3>
5.79

>  <excitation_energy_4>
6.264

>  <homo_energy>
-6.411

>  <homo_lumo_gap>
6.112

>  <logP>
0.234

>  <lumo_energy>
-0.299

>  <melting_point>
51.07

>  <molecular_refractivity>
19.44

>  <oscillator_strength_1>
0.0001

>  <oscillator_strength_2>
0.0072

>  <oscillator_strength_3>
0.0057

>  <oscillator_strength_4>
0.0257

>  <open_babel_can_smiles>
CC(=O)CN

>  <mulliken_charges>
12
1   -0.505599
2   -0.226906
3   0.443153
4   -0.719813
5   -0.437943
6   0.175223
7   0.170188
8   0.168916
9   0.151985
10   0.168885
11   0.303992
12   0.307918

>  <lowdin_charges>
12
1   -0.469898
2   -0.241136
3   0.157163
4   -0.553594
5   -0.237672
6   0.175945
7   0.172412
8   0.166982
9   0.144368
10   0.167007
11   0.257859
12   0.260562

$$$$

