PCCDB-ID:  2743
public computational chemistry database (PCCDB) project, http://pccdb.org

 28 28  0  0  1  0  0  0  0  0999 V2000
    1.0552    0.4574   -0.6132 C   0  0  0  0  0  0  0  0  0  0  0  0
    2.2955    0.4556    1.6016 C   0  0  0  0  0  0  0  0  0  0  0  0
    6.3579   -2.6040    0.5878 C   0  0  0  0  0  0  0  0  0  0  0  0
    5.1472   -2.6312   -1.6426 C   0  0  0  0  0  0  0  0  0  0  0  0
    3.4100   -0.3147   -0.5380 C   0  0  0  0  0  0  0  0  0  0  0  0
    2.3416    0.1655    0.1218 C   0  0  0  0  0  0  0  0  0  0  0  0
    4.7355   -0.6508    0.0304 C   0  0  2  0  0  0  0  0  0  0  0  0
    6.0195   -0.3550   -0.7604 C   0  0  1  0  0  0  0  0  0  0  0  0
    7.1442    0.3136   -0.0427 C   0  0  0  0  0  0  0  0  0  0  0  0
    5.5953   -1.7981   -0.4511 C   0  0  0  0  0  0  0  0  0  0  0  0
    7.3205    0.2873    1.1543 O   0  0  0  0  0  0  0  0  0  0  0  0
    8.0227    0.9978   -0.8310 O   0  0  0  0  0  0  0  0  0  0  0  0
    0.7654    1.5115   -0.4991 H   0  0  0  0  0  0  0  0  0  0  0  0
    0.2241   -0.1372   -0.2081 H   0  0  0  0  0  0  0  0  0  0  0  0
    1.1352    0.2419   -1.6835 H   0  0  0  0  0  0  0  0  0  0  0  0
    1.5028   -0.1326    2.0848 H   0  0  0  0  0  0  0  0  0  0  0  0
    2.0493    1.5115    1.7796 H   0  0  0  0  0  0  0  0  0  0  0  0
    3.2326    0.2404    2.1191 H   0  0  0  0  0  0  0  0  0  0  0  0
    5.7134   -3.3986    0.9840 H   0  0  0  0  0  0  0  0  0  0  0  0
    6.6970   -1.9822    1.4180 H   0  0  0  0  0  0  0  0  0  0  0  0
    7.2376   -3.0832    0.1392 H   0  0  0  0  0  0  0  0  0  0  0  0
    4.4274   -3.3957   -1.3253 H   0  0  0  0  0  0  0  0  0  0  0  0
    6.0057   -3.1473   -2.0895 H   0  0  0  0  0  0  0  0  0  0  0  0
    4.6731   -2.0344   -2.4274 H   0  0  0  0  0  0  0  0  0  0  0  0
    3.3000   -0.4746   -1.6101 H   0  0  0  0  0  0  0  0  0  0  0  0
    4.8701   -0.4316    1.0858 H   0  0  0  0  0  0  0  0  0  0  0  0
    5.8736   -0.0520   -1.7966 H   0  0  0  0  0  0  0  0  0  0  0  0
    7.7644    0.9174   -1.7633 H   0  0  0  0  0  0  0  0  0  0  0  0
  1 13  1  0  0  0  0
  1 14  1  0  0  0  0
  1  6  1  0  0  0  0
  2 17  1  0  0  0  0
  2 16  1  0  0  0  0
  2 18  1  0  0  0  0
  3 19  1  0  0  0  0
  3 20  1  0  0  0  0
  4 22  1  0  0  0  0
  4 10  1  0  0  0  0
  5  7  1  0  0  0  0
  5  6  2  0  0  0  0
  6  2  1  0  0  0  0
  7 26  1  1  0  0  0
  8 27  1  6  0  0  0
  8 10  1  0  0  0  0
  8  9  1  0  0  0  0
  8  7  1  0  0  0  0
  9 11  2  0  0  0  0
 10  7  1  0  0  0  0
 10  3  1  0  0  0  0
 12  9  1  0  0  0  0
 15  1  1  0  0  0  0
 21  3  1  0  0  0  0
 23  4  1  0  0  0  0
 24  4  1  0  0  0  0
 25  5  1  0  0  0  0
 28 12  1  0  0  0  0
M  END
>  <HBA>
2

>  <HBD>
1

>  <TPSA>
37.3

>  <cid>
2743

>  <dipole>
4.18

>  <excitation_energy_1>
5.267

>  <excitation_energy_2>
5.363

>  <excitation_energy_3>
5.617

>  <excitation_energy_4>
5.76

>  <homo_energy>
-6.123

>  <homo_lumo_gap>
6.128

>  <logP>
2.309

>  <lumo_energy>
0.005

>  <melting_point>
102.41

>  <molecular_refractivity>
49.11

>  <oscillator_strength_1>
0.1662

>  <oscillator_strength_2>
0.0282

>  <oscillator_strength_3>
0.0073

>  <oscillator_strength_4>
0.0012

>  <open_babel_can_smiles>
CC(=C[C@@H]1[C@H](C1(C)C)C(=O)O)C

>  <mulliken_charges>
28
1   -0.509404
2   -0.514907
3   -0.479697
4   -0.464735
5   -0.150707
6   0.176053
7   -0.157434
8   -0.283308
9   0.63251
10   0.120584
11   -0.46598
12   -0.578996
13   0.152592
14   0.152337
15   0.150148
16   0.154282
17   0.156395
18   0.163498
19   0.14625
20   0.190556
21   0.143208
22   0.157877
23   0.150021
24   0.14418
25   0.106981
26   0.173815
27   0.127517
28   0.406365

>  <lowdin_charges>
28
1   -0.436835
2   -0.444153
3   -0.446158
4   -0.438164
5   -0.188105
6   -0.003978
7   -0.133675
8   -0.216195
9   0.199401
10   0.018983
11   -0.258261
12   -0.355408
13   0.153154
14   0.155051
15   0.151776
16   0.157979
17   0.156833
18   0.159859
19   0.154434
20   0.175384
21   0.150864
22   0.158629
23   0.154937
24   0.150815
25   0.144342
26   0.172354
27   0.151822
28   0.354316

$$$$

