PCCDB-ID:  2606
public computational chemistry database (PCCDB) project, http://pccdb.org

 22 22  0  0  1  0  0  0  0  0999 V2000
    3.5721    3.7202   -2.5181 C   0  0  0  0  0  0  0  0  0  0  0  0
    3.6810    3.1235   -1.4751 C   0  0  0  0  0  0  0  0  0  0  0  0
    3.7870    2.4149   -0.2019 C   0  0  0  0  0  0  0  0  0  0  0  0
    7.1230    0.2951    1.3912 C   0  0  0  0  0  0  0  0  0  0  0  0
    7.1019   -1.1529   -0.6632 C   0  0  0  0  0  0  0  0  0  0  0  0
    6.1753   -1.8276    1.5181 C   0  0  0  0  0  0  0  0  0  0  0  0
    6.8150    0.2554   -0.1283 C   0  0  1  0  0  0  0  0  0  0  0  0
    5.3735    0.6520   -0.4207 C   0  0  0  0  0  0  0  0  0  0  0  0
    6.4407   -0.7459    2.1503 N   0  0  0  0  0  0  0  0  0  0  0  0
    6.5288   -2.1619    0.2295 N   0  0  0  0  0  0  0  0  0  0  0  0
    4.5512   -0.0370   -0.9838 O   0  0  0  0  0  0  0  0  0  0  0  0
    5.1238    1.9092    0.0252 O   0  0  0  0  0  0  0  0  0  0  0  0
    3.4785    4.2405   -3.4444 H   0  0  0  0  0  0  0  0  0  0  0  0
    3.0792    1.5823   -0.1653 H   0  0  0  0  0  0  0  0  0  0  0  0
    3.5981    3.0912    0.6363 H   0  0  0  0  0  0  0  0  0  0  0  0
    6.8364    1.2694    1.7979 H   0  0  0  0  0  0  0  0  0  0  0  0
    8.2105    0.2017    1.5278 H   0  0  0  0  0  0  0  0  0  0  0  0
    8.1875   -1.2957   -0.7383 H   0  0  0  0  0  0  0  0  0  0  0  0
    6.6733   -1.2778   -1.6603 H   0  0  0  0  0  0  0  0  0  0  0  0
    5.6293   -2.6169    2.0392 H   0  0  0  0  0  0  0  0  0  0  0  0
    7.4555    0.9871   -0.6360 H   0  0  0  0  0  0  0  0  0  0  0  0
    5.9638   -2.8779   -0.2057 H   0  0  0  0  0  0  0  0  0  0  0  0
  1  2  3  0  0  0  0
  2  3  1  0  0  0  0
  3 14  1  0  0  0  0
  3 12  1  0  0  0  0
  3 15  1  0  0  0  0
  4 17  1  0  0  0  0
  4 16  1  0  0  0  0
  4  9  1  0  0  0  0
  5  7  1  0  0  0  0
  5 10  1  0  0  0  0
  6 20  1  0  0  0  0
  6  9  2  0  0  0  0
  7 21  1  6  0  0  0
  7  4  1  0  0  0  0
  8  7  1  0  0  0  0
  8 12  1  0  0  0  0
 10  6  1  0  0  0  0
 11  8  2  0  0  0  0
 13  1  1  0  0  0  0
 18  5  1  0  0  0  0
 19  5  1  0  0  0  0
 22 10  1  0  0  0  0
M  END
>  <HBA>
4

>  <HBD>
1

>  <TPSA>
50.69

>  <cid>
2606

>  <dipole>
2.17

>  <excitation_energy_1>
5.025

>  <excitation_energy_2>
5.413

>  <excitation_energy_3>
5.493

>  <excitation_energy_4>
5.764

>  <homo_energy>
-6.038

>  <homo_lumo_gap>
6.131

>  <logP>
-0.825

>  <lumo_energy>
0.093

>  <melting_point>
69.52

>  <molecular_refractivity>
51.63

>  <oscillator_strength_1>
0.0018

>  <oscillator_strength_2>
0.0003

>  <oscillator_strength_3>
0.0141

>  <oscillator_strength_4>
0.0001

>  <open_babel_can_smiles>
C#CCOC(=O)[C@@H]1CNC=NC1

>  <mulliken_charges>
22
1   -0.46068
2   0.330023
3   -0.190803
4   -0.148876
5   -0.110095
6   0.214895
7   -0.250984
8   0.655907
9   -0.410294
10   -0.55657
11   -0.478991
12   -0.458761
13   0.197411
14   0.20544
15   0.189797
16   0.165685
17   0.148332
18   0.153374
19   0.168664
20   0.138654
21   0.168054
22   0.329818

>  <lowdin_charges>
22
1   -0.225776
2   -0.049952
3   -0.116295
4   -0.202043
5   -0.191491
6   -0.045086
7   -0.176961
8   0.206874
9   -0.249822
10   -0.296312
11   -0.26322
12   -0.187891
13   0.208691
14   0.184745
15   0.17851
16   0.157387
17   0.145045
18   0.14573
19   0.162863
20   0.154477
21   0.174146
22   0.286379

$$$$

