PCCDB-ID:  3786
public computational chemistry database (PCCDB) project, http://pccdb.org

 27 28  0  0  0  0  0  0  0  0999 V2000
   -2.2989    0.3566    0.0477 C   0  0  0  0  0  0  0  0  0  0  0  0
   -1.5398   -0.5072    0.8387 C   0  0  0  0  0  0  0  0  0  0  0  0
   -1.6560    1.2222   -0.8395 C   0  0  0  0  0  0  0  0  0  0  0  0
   -0.1484   -0.5075    0.7474 C   0  0  0  0  0  0  0  0  0  0  0  0
   -0.2665    1.2183   -0.9410 C   0  0  0  0  0  0  0  0  0  0  0  0
    4.2324   -0.2613   -0.4755 C   0  0  0  0  0  0  0  0  0  0  0  0
    4.3714    1.0961   -0.4651 C   0  0  0  0  0  0  0  0  0  0  0  0
    2.4908   -2.1622   -0.4193 C   0  0  0  0  0  0  0  0  0  0  0  0
    0.5105    0.3505   -0.1521 C   0  0  0  0  0  0  0  0  0  0  0  0
    2.8706   -0.7009   -0.3637 C   0  0  0  0  0  0  0  0  0  0  0  0
    2.7157   -2.9037    0.8876 C   0  0  0  0  0  0  0  0  0  0  0  0
    1.9824    0.3569   -0.2591 C   0  0  0  0  0  0  0  0  0  0  0  0
    2.8681   -4.1670    1.0171 N   0  0  0  0  0  0  0  0  0  0  0  0
    2.7090   -2.1886    2.0462 O   0  0  0  0  0  0  0  0  0  0  0  0
    2.7696   -4.8042   -0.2510 O   0  0  0  0  0  0  0  0  0  0  0  0
    2.8386    1.8872   -0.3094 S   0  0  0  0  0  0  0  0  0  0  0  0
   -3.3826    0.3581    0.1244 H   0  0  0  0  0  0  0  0  0  0  0  0
   -2.0287   -1.1765    1.5412 H   0  0  0  0  0  0  0  0  0  0  0  0
   -2.2376    1.8978   -1.4608 H   0  0  0  0  0  0  0  0  0  0  0  0
    0.4315   -1.1579    1.3948 H   0  0  0  0  0  0  0  0  0  0  0  0
    0.2253    1.8784   -1.6500 H   0  0  0  0  0  0  0  0  0  0  0  0
    5.0670   -0.9483   -0.5734 H   0  0  0  0  0  0  0  0  0  0  0  0
    5.2807    1.6777   -0.5367 H   0  0  0  0  0  0  0  0  0  0  0  0
    3.0664   -2.6784   -1.1937 H   0  0  0  0  0  0  0  0  0  0  0  0
    1.4362   -2.2744   -0.6982 H   0  0  0  0  0  0  0  0  0  0  0  0
    2.8183   -1.2501    1.8110 H   0  0  0  0  0  0  0  0  0  0  0  0
    2.9532   -5.7253   -0.0133 H   0  0  0  0  0  0  0  0  0  0  0  0
  1 17  1  0  0  0  0
  1  2  2  0  0  0  0
  2 18  1  0  0  0  0
  3  1  1  0  0  0  0
  4  2  1  0  0  0  0
  4 20  1  0  0  0  0
  5  3  2  0  0  0  0
  5  9  1  0  0  0  0
  6  7  2  0  0  0  0
  6 10  1  0  0  0  0
  7 16  1  0  0  0  0
  8 10  1  0  0  0  0
  8 11  1  0  0  0  0
  9  4  2  0  0  0  0
 10 12  2  0  0  0  0
 11 13  2  0  0  0  0
 11 14  1  0  0  0  0
 12  9  1  0  0  0  0
 15 27  1  0  0  0  0
 15 13  1  0  0  0  0
 16 12  1  0  0  0  0
 19  3  1  0  0  0  0
 21  5  1  0  0  0  0
 22  6  1  0  0  0  0
 23  7  1  0  0  0  0
 24  8  1  0  0  0  0
 25  8  1  0  0  0  0
 26 14  1  0  0  0  0
M  END
>  <HBA>
4

>  <HBD>
2

>  <TPSA>
77.57

>  <cid>
3786

>  <dipole>
2.41

>  <excitation_energy_1>
4.4

>  <excitation_energy_2>
4.555

>  <excitation_energy_3>
4.807

>  <excitation_energy_4>
5.12

>  <homo_energy>
-6.057

>  <homo_lumo_gap>
4.901

>  <logP>
2.854

>  <lumo_energy>
-1.156

>  <melting_point>
146.47

>  <molecular_refractivity>
63.26

>  <oscillator_strength_1>
0.0006

>  <oscillator_strength_2>
0.3501

>  <oscillator_strength_3>
0.0019

>  <oscillator_strength_4>
0.0537

>  <open_babel_can_smiles>
O/N=C(\Cc1ccsc1c1ccccc1)/O

>  <mulliken_charges>
27
1   -0.123546
2   -0.13672
3   -0.131818
4   -0.184489
5   -0.177536
6   -0.118163
7   -0.341783
8   -0.406356
9   0.142519
10   0.080524
11   0.512801
12   -0.285595
13   -0.249453
14   -0.594261
15   -0.526744
16   0.263091
17   0.135955
18   0.141247
19   0.136681
20   0.150126
21   0.146352
22   0.153052
23   0.1793
24   0.196853
25   0.196583
26   0.423327
27   0.418054

>  <lowdin_charges>
27
1   -0.149678
2   -0.151339
3   -0.153117
4   -0.164514
5   -0.159357
6   -0.188902
7   -0.317629
8   -0.299065
9   -0.009115
10   -0.057569
11   0.093946
12   -0.164086
13   -0.104258
14   -0.362678
15   -0.395947
16   0.322289
17   0.159101
18   0.164624
19   0.162764
20   0.167789
21   0.167003
22   0.171305
23   0.186676
24   0.185265
25   0.182735
26   0.359022
27   0.354735

$$$$

