PCCDB-ID:  3125
public computational chemistry database (PCCDB) project, http://pccdb.org

 27 27  0  0  1  0  0  0  0  0999 V2000
    0.5373   -0.3921    0.2162 C   0  0  0  0  0  0  0  0  0  0  0  0
    3.3318   -1.8273   -2.6727 C   0  0  0  0  0  0  0  0  0  0  0  0
    1.2639   -0.6868   -3.0993 C   0  0  0  0  0  0  0  0  0  0  0  0
    3.0959   -2.6751   -3.7564 C   0  0  0  0  0  0  0  0  0  0  0  0
    1.0143   -1.5213   -4.1834 C   0  0  0  0  0  0  0  0  0  0  0  0
    2.6842    0.0772   -1.1268 C   0  0  0  0  0  0  0  0  0  0  0  0
    2.4209   -0.8238   -2.3135 C   0  0  0  0  0  0  0  0  0  0  0  0
    1.9309   -2.5266   -4.5138 C   0  0  0  0  0  0  0  0  0  0  0  0
    2.5802    0.6269    1.2821 C   0  0  0  0  0  0  0  0  0  0  0  0
    2.0707   -0.3985    0.2323 C   0  0  1  0  0  0  0  0  0  0  0  0
    2.6454   -1.7162    0.5847 N   0  0  0  0  0  0  0  0  0  0  0  0
    1.6363   -3.3182   -5.5879 O   0  0  0  0  0  0  0  0  0  0  0  0
    2.0921    1.7249    1.4213 O   0  0  0  0  0  0  0  0  0  0  0  0
    3.6460    0.2033    1.9794 O   0  0  0  0  0  0  0  0  0  0  0  0
    0.1584    0.6206    0.0564 H   0  0  0  0  0  0  0  0  0  0  0  0
    0.1443   -0.7415    1.1790 H   0  0  0  0  0  0  0  0  0  0  0  0
    0.1546   -1.0499   -0.5702 H   0  0  0  0  0  0  0  0  0  0  0  0
    4.2559   -1.9385   -2.1091 H   0  0  0  0  0  0  0  0  0  0  0  0
    0.5510    0.0997   -2.8654 H   0  0  0  0  0  0  0  0  0  0  0  0
    3.8233   -3.4419   -4.0172 H   0  0  0  0  0  0  0  0  0  0  0  0
    0.1216   -1.4052   -4.7898 H   0  0  0  0  0  0  0  0  0  0  0  0
    2.2947    1.0833   -1.3119 H   0  0  0  0  0  0  0  0  0  0  0  0
    3.7668    0.1783   -0.9823 H   0  0  0  0  0  0  0  0  0  0  0  0
    2.7184   -2.3026   -0.2455 H   0  0  0  0  0  0  0  0  0  0  0  0
    2.0270   -2.2051    1.2314 H   0  0  0  0  0  0  0  0  0  0  0  0
    2.3562   -3.9544   -5.7207 H   0  0  0  0  0  0  0  0  0  0  0  0
    3.7910   -0.7269    1.6650 H   0  0  0  0  0  0  0  0  0  0  0  0
  1 10  1  0  0  0  0
  1 16  1  0  0  0  0
  2  7  1  0  0  0  0
  2 18  1  0  0  0  0
  3 19  1  0  0  0  0
  3  7  2  0  0  0  0
  4  2  2  0  0  0  0
  5  3  1  0  0  0  0
  6 23  1  0  0  0  0
  6 10  1  0  0  0  0
  7  6  1  0  0  0  0
  8  5  2  0  0  0  0
  8  4  1  0  0  0  0
  9 13  2  0  0  0  0
  9 14  1  0  0  0  0
 10 11  1  0  0  0  0
 10  9  1  1  0  0  0
 11 25  1  0  0  0  0
 12  8  1  0  0  0  0
 15  1  1  0  0  0  0
 17  1  1  0  0  0  0
 20  4  1  0  0  0  0
 21  5  1  0  0  0  0
 22  6  1  0  0  0  0
 24 11  1  0  0  0  0
 26 12  1  0  0  0  0
 27 14  1  0  0  0  0
M  END
>  <HBA>
4

>  <HBD>
3

>  <TPSA>
83.55

>  <cid>
3125

>  <dipole>
6.02

>  <excitation_energy_1>
4.93

>  <excitation_energy_2>
5.246

>  <excitation_energy_3>
5.412

>  <excitation_energy_4>
5.538

>  <homo_energy>
-6.259

>  <homo_lumo_gap>
5.769

>  <logP>
1.437

>  <lumo_energy>
-0.49

>  <melting_point>
188.56

>  <molecular_refractivity>
52.37

>  <oscillator_strength_1>
0.028

>  <oscillator_strength_2>
0.0059

>  <oscillator_strength_3>
0.0461

>  <oscillator_strength_4>
0.0851

>  <open_babel_can_smiles>
Oc1ccc(cc1)C[C@](C(=O)O)(N)C

>  <mulliken_charges>
27
1   -0.465486
2   -0.209834
3   -0.187757
4   -0.192679
5   -0.157948
6   -0.37093
7   0.162014
8   0.351235
9   0.620019
10   0.098352
11   -0.791007
12   -0.63885
13   -0.476542
14   -0.588819
15   0.179361
16   0.145196
17   0.153007
18   0.138152
19   0.139439
20   0.124397
21   0.146844
22   0.178172
23   0.158645
24   0.326275
25   0.318726
26   0.409399
27   0.430616

>  <lowdin_charges>
27
1   -0.454963
2   -0.16598
3   -0.151933
4   -0.21447
5   -0.181594
6   -0.272394
7   -0.031037
8   0.104504
9   0.173651
10   0.025311
11   -0.551571
12   -0.375337
13   -0.260715
14   -0.357112
15   0.170406
16   0.15226
17   0.156597
18   0.159713
19   0.163095
20   0.156716
21   0.170982
22   0.170285
23   0.157305
24   0.271161
25   0.26799
26   0.35981
27   0.357321

$$$$

