PCCDB-ID:  1990
public computational chemistry database (PCCDB) project, http://pccdb.org

 10  9  0  0  0  0  0  0  0  0999 V2000
    1.0810   -0.0114   -0.0419 C   0  0  0  0  0  0  0  0  0  0  0  0
    2.5800    0.0769   -0.0257 C   0  0  0  0  0  0  0  0  0  0  0  0
    3.3016    1.1121    0.1781 N   0  0  0  0  0  0  0  0  0  0  0  0
    3.2805   -1.0749   -0.2536 O   0  0  0  0  0  0  0  0  0  0  0  0
    2.4975    2.2600    0.4029 O   0  0  0  0  0  0  0  0  0  0  0  0
    0.6388    0.9679    0.1381 H   0  0  0  0  0  0  0  0  0  0  0  0
    0.7308   -0.7052    0.7333 H   0  0  0  0  0  0  0  0  0  0  0  0
    0.7310   -0.3853   -1.0127 H   0  0  0  0  0  0  0  0  0  0  0  0
    2.6487   -1.7971   -0.3838 H   0  0  0  0  0  0  0  0  0  0  0  0
    3.1750    2.9393    0.5378 H   0  0  0  0  0  0  0  0  0  0  0  0
  1  2  1  0  0  0  0
  1  6  1  0  0  0  0
  1  7  1  0  0  0  0
  2  3  2  0  0  0  0
  3  5  1  0  0  0  0
  4  2  1  0  0  0  0
  5 10  1  0  0  0  0
  8  1  1  0  0  0  0
  9  4  1  0  0  0  0
M  END
>  <HBA>
3

>  <HBD>
2

>  <TPSA>
49.33

>  <cid>
1990

>  <dipole>
2.44

>  <excitation_energy_1>
5.393

>  <excitation_energy_2>
5.798

>  <excitation_energy_3>
6.511

>  <excitation_energy_4>
6.6

>  <homo_energy>
-6.057

>  <homo_lumo_gap>
6.846

>  <logP>
-0.097

>  <lumo_energy>
0.789

>  <melting_point>
78.57

>  <molecular_refractivity>
15.46

>  <oscillator_strength_1>
0.0018

>  <oscillator_strength_2>
0.0014

>  <oscillator_strength_3>
0.1608

>  <oscillator_strength_4>
0.0023

>  <open_babel_can_smiles>
O/N=C(/O)\C

>  <mulliken_charges>
10
1   -0.554463
2   0.524622
3   -0.240778
4   -0.586573
5   -0.526428
6   0.214454
7   0.170186
8   0.169578
9   0.411218
10   0.418183

>  <lowdin_charges>
10
1   -0.478522
2   0.103727
3   -0.101942
4   -0.369264
5   -0.397606
6   0.190261
7   0.168431
8   0.167095
9   0.360572
10   0.35725

$$$$

