PCCDB-ID:  974
public computational chemistry database (PCCDB) project, http://pccdb.org

  9  8  0  0  0  0  0  0  0  0999 V2000
    1.0999    0.0452   -0.1524 C   0  0  0  0  0  0  0  0  0  0  0  0
    0.3263    1.2963    0.3182 C   0  0  0  0  0  0  0  0  0  0  0  0
    0.5378   -1.0811    0.3507 N   0  0  0  0  0  0  0  0  0  0  0  0
    2.0764    0.1030   -0.8757 O   0  0  0  0  0  0  0  0  0  0  0  0
    0.8584    2.4250   -0.1610 O   0  0  0  0  0  0  0  0  0  0  0  0
   -0.6493    1.2465    1.0389 O   0  0  0  0  0  0  0  0  0  0  0  0
   -0.2779   -1.0182    0.9429 H   0  0  0  0  0  0  0  0  0  0  0  0
    0.9406   -1.9782    0.1236 H   0  0  0  0  0  0  0  0  0  0  0  0
    0.3111    3.1567    0.1829 H   0  0  0  0  0  0  0  0  0  0  0  0
  1  2  1  0  0  0  0
  1  3  1  0  0  0  0
  2  6  2  0  0  0  0
  3  7  1  0  0  0  0
  4  1  2  0  0  0  0
  5  9  1  0  0  0  0
  5  2  1  0  0  0  0
  8  3  1  0  0  0  0
M  END
>  <HBA>
4

>  <HBD>
2

>  <TPSA>
80.39

>  <cid>
974

>  <dipole>
2.28

>  <excitation_energy_1>
4.009

>  <excitation_energy_2>
5.611

>  <excitation_energy_3>
5.705

>  <excitation_energy_4>
6.467

>  <homo_energy>
-7.051

>  <homo_lumo_gap>
5.562

>  <logP>
-0.743

>  <lumo_energy>
-1.488

>  <melting_point>
128.89

>  <molecular_refractivity>
16.41

>  <oscillator_strength_1>
0.0001

>  <oscillator_strength_2>
0.0497

>  <oscillator_strength_3>
0.0

>  <oscillator_strength_4>
0.0156

>  <open_babel_can_smiles>
OC(=O)C(=O)N

>  <mulliken_charges>
9
1   0.550408
2   0.529554
3   -0.740361
4   -0.476389
5   -0.530267
6   -0.470701
7   0.366478
8   0.352649
9   0.41863

>  <lowdin_charges>
9
1   0.127986
2   0.166749
3   -0.438252
4   -0.260865
5   -0.308541
6   -0.261938
7   0.305464
8   0.299051
9   0.370347

$$$$

