PCCDB-ID:  1140
public computational chemistry database (PCCDB) project, http://pccdb.org

 15 15  0  0  0  0  0  0  0  0999 V2000
    0.9315    0.0696   -0.0174 C   0  0  0  0  0  0  0  0  0  0  0  0
    5.2523    0.1075   -0.3094 C   0  0  0  0  0  0  0  0  0  0  0  0
    4.5631   -1.1041   -0.2658 C   0  0  0  0  0  0  0  0  0  0  0  0
    4.5368    1.3065   -0.2604 C   0  0  0  0  0  0  0  0  0  0  0  0
    3.1693   -1.1152   -0.1735 C   0  0  0  0  0  0  0  0  0  0  0  0
    3.1457    1.2894   -0.1690 C   0  0  0  0  0  0  0  0  0  0  0  0
    2.4395    0.0783   -0.1235 C   0  0  0  0  0  0  0  0  0  0  0  0
    0.5347   -0.9501   -0.0469 H   0  0  0  0  0  0  0  0  0  0  0  0
    0.4679    0.6322   -0.8373 H   0  0  0  0  0  0  0  0  0  0  0  0
    0.5930    0.5310    0.9191 H   0  0  0  0  0  0  0  0  0  0  0  0
    6.3366    0.1195   -0.3812 H   0  0  0  0  0  0  0  0  0  0  0  0
    5.1082   -2.0439   -0.3042 H   0  0  0  0  0  0  0  0  0  0  0  0
    5.0636    2.2568   -0.2953 H   0  0  0  0  0  0  0  0  0  0  0  0
    2.6396   -2.0648   -0.1409 H   0  0  0  0  0  0  0  0  0  0  0  0
    2.5973    2.2287   -0.1329 H   0  0  0  0  0  0  0  0  0  0  0  0
  1 10  1  0  0  0  0
  2  3  2  0  0  0  0
  2  4  1  0  0  0  0
  3  5  1  0  0  0  0
  4  6  2  0  0  0  0
  5 14  1  0  0  0  0
  5  7  2  0  0  0  0
  6 15  1  0  0  0  0
  6  7  1  0  0  0  0
  7  1  1  0  0  0  0
  8  1  1  0  0  0  0
  9  1  1  0  0  0  0
 11  2  1  0  0  0  0
 12  3  1  0  0  0  0
 13  4  1  0  0  0  0
M  END
>  <HBA>
0

>  <HBD>
0

>  <TPSA>
0.0

>  <cid>
1140

>  <dipole>
0.32

>  <excitation_energy_1>
5.292

>  <excitation_energy_2>
5.909

>  <excitation_energy_3>
6.034

>  <excitation_energy_4>
6.257

>  <homo_energy>
-6.403

>  <homo_lumo_gap>
6.504

>  <logP>
1.995

>  <lumo_energy>
0.101

>  <melting_point>
7.15

>  <molecular_refractivity>
31.41

>  <oscillator_strength_1>
0.0022

>  <oscillator_strength_2>
0.0191

>  <oscillator_strength_3>
0.0021

>  <oscillator_strength_4>
0.0

>  <open_babel_can_smiles>
Cc1ccccc1

>  <mulliken_charges>
15
1   -0.529898
2   -0.133008
3   -0.125656
4   -0.127433
5   -0.18243
6   -0.176134
7   0.177272
8   0.154037
9   0.16106
10   0.162384
11   0.126139
12   0.126538
13   0.126669
14   0.120241
15   0.120218

>  <lowdin_charges>
15
1   -0.443326
2   -0.160607
3   -0.15609
4   -0.155292
5   -0.169903
6   -0.167276
7   0.002216
8   0.155394
9   0.160926
10   0.160656
11   0.154027
12   0.156361
13   0.156135
14   0.153271
15   0.153506

$$$$

