PCCDB-ID:  6038
public computational chemistry database (PCCDB) project, http://pccdb.org

 18 19  0  0  0  0  0  0  0  0999 V2000
    2.4062    0.7199    0.0114 C   0  0  0  0  0  0  0  0  0  0  0  0
    2.3907   -0.6959   -0.0130 C   0  0  0  0  0  0  0  0  0  0  0  0
    1.2214    1.4230    0.0124 C   0  0  0  0  0  0  0  0  0  0  0  0
    1.1993   -1.3884   -0.0370 C   0  0  0  0  0  0  0  0  0  0  0  0
   -1.2775    1.3979   -0.0124 C   0  0  0  0  0  0  0  0  0  0  0  0
   -2.4334    0.6622   -0.0361 C   0  0  0  0  0  0  0  0  0  0  0  0
   -0.0199    0.7385   -0.0115 C   0  0  0  0  0  0  0  0  0  0  0  0
   -0.0372   -0.6923   -0.0370 C   0  0  0  0  0  0  0  0  0  0  0  0
   -2.3276   -0.7618   -0.0602 C   0  0  0  0  0  0  0  0  0  0  0  0
   -1.1946   -1.4151   -0.0608 N   0  0  0  0  0  0  0  0  0  0  0  0
   -3.4470   -1.5358   -0.0834 O   0  0  0  0  0  0  0  0  0  0  0  0
    3.3551    1.2484    0.0303 H   0  0  0  0  0  0  0  0  0  0  0  0
    3.3316   -1.2398   -0.0135 H   0  0  0  0  0  0  0  0  0  0  0  0
    1.2224    2.5106    0.0321 H   0  0  0  0  0  0  0  0  0  0  0  0
    1.1680   -2.4731   -0.0559 H   0  0  0  0  0  0  0  0  0  0  0  0
   -1.3140    2.4847    0.0069 H   0  0  0  0  0  0  0  0  0  0  0  0
   -3.4080    1.1449   -0.0364 H   0  0  0  0  0  0  0  0  0  0  0  0
   -4.2282   -0.9614   -0.0851 H   0  0  0  0  0  0  0  0  0  0  0  0
  1  3  1  0  0  0  0
  1 12  1  0  0  0  0
  2  1  2  0  0  0  0
  3 14  1  0  0  0  0
  4  2  1  0  0  0  0
  5  7  1  0  0  0  0
  5 16  1  0  0  0  0
  6  5  2  0  0  0  0
  7  3  2  0  0  0  0
  8  4  2  0  0  0  0
  8  7  1  0  0  0  0
  9  6  1  0  0  0  0
 10  9  2  0  0  0  0
 10  8  1  0  0  0  0
 11  9  1  0  0  0  0
 13  2  1  0  0  0  0
 15  4  1  0  0  0  0
 17  6  1  0  0  0  0
 18 11  1  0  0  0  0
M  END
>  <HBA>
1

>  <HBD>
1

>  <TPSA>
32.86

>  <cid>
6038

>  <dipole>
3.29

>  <excitation_energy_1>
4.184

>  <excitation_energy_2>
4.565

>  <excitation_energy_3>
4.615

>  <excitation_energy_4>
5.394

>  <homo_energy>
-6.065

>  <homo_lumo_gap>
4.776

>  <logP>
1.528

>  <lumo_energy>
-1.29

>  <melting_point>
130.37

>  <molecular_refractivity>
44.57

>  <oscillator_strength_1>
0.0498

>  <oscillator_strength_2>
0.0367

>  <oscillator_strength_3>
0.0011

>  <oscillator_strength_4>
0.0002

>  <open_babel_can_smiles>
Oc1ccc2c(n1)cccc2

>  <mulliken_charges>
18
1   -0.135867
2   -0.135578
3   -0.196519
4   -0.147891
5   -0.143815
6   -0.213189
7   0.149339
8   0.2421
9   0.504359
10   -0.547015
11   -0.598984
12   0.131605
13   0.134122
14   0.130398
15   0.14531
16   0.143742
17   0.129775
18   0.408106

>  <lowdin_charges>
18
1   -0.164106
2   -0.148766
3   -0.152072
4   -0.155155
5   -0.11519
6   -0.22267
7   -0.030135
8   0.053654
9   0.135927
10   -0.168499
11   -0.355999
12   0.159553
13   0.160863
14   0.155324
15   0.168188
16   0.162066
17   0.159158
18   0.35786

$$$$

