PCCDB-ID:  72
public computational chemistry database (PCCDB) project, http://pccdb.org

 17 17  0  0  0  0  0  0  0  0999 V2000
   -1.3996    0.0060   -0.0765 C   0  0  0  0  0  0  0  0  0  0  0  0
   -0.7374    1.2347   -0.0729 C   0  0  0  0  0  0  0  0  0  0  0  0
    0.7370   -1.1206   -0.0376 C   0  0  0  0  0  0  0  0  0  0  0  0
   -0.6659   -1.1839   -0.0680 C   0  0  0  0  0  0  0  0  0  0  0  0
    0.6554    1.2962   -0.0628 C   0  0  0  0  0  0  0  0  0  0  0  0
    1.4032    0.0963   -0.0416 C   0  0  0  0  0  0  0  0  0  0  0  0
   -1.2886   -2.5420   -0.0548 C   0  0  0  0  0  0  0  0  0  0  0  0
    1.3581    2.4600   -0.0639 O   0  0  0  0  0  0  0  0  0  0  0  0
    2.7599    0.2177   -0.0239 O   0  0  0  0  0  0  0  0  0  0  0  0
   -0.7000   -3.5433    0.2832 O   0  0  0  0  0  0  0  0  0  0  0  0
   -2.5894   -2.6261   -0.4528 O   0  0  0  0  0  0  0  0  0  0  0  0
   -2.4859    0.0024   -0.0377 H   0  0  0  0  0  0  0  0  0  0  0  0
   -1.3093    2.1605   -0.0674 H   0  0  0  0  0  0  0  0  0  0  0  0
    1.2933   -2.0539   -0.0098 H   0  0  0  0  0  0  0  0  0  0  0  0
    0.7351    3.2036   -0.0718 H   0  0  0  0  0  0  0  0  0  0  0  0
    3.1500   -0.6701    0.0063 H   0  0  0  0  0  0  0  0  0  0  0  0
   -2.8667   -1.7869   -0.8540 H   0  0  0  0  0  0  0  0  0  0  0  0
  1  2  2  0  0  0  0
  1  4  1  0  0  0  0
  1 12  1  0  0  0  0
  2 13  1  0  0  0  0
  2  5  1  0  0  0  0
  3 14  1  0  0  0  0
  4  7  1  0  0  0  0
  4  3  2  0  0  0  0
  5  6  2  0  0  0  0
  6  3  1  0  0  0  0
  6  9  1  0  0  0  0
  7 10  2  0  0  0  0
  8  5  1  0  0  0  0
  9 16  1  0  0  0  0
 11  7  1  0  0  0  0
 15  8  1  0  0  0  0
 17 11  1  0  0  0  0
M  END
>  <HBA>
4

>  <HBD>
3

>  <TPSA>
77.76

>  <cid>
72

>  <dipole>
4.57

>  <excitation_energy_1>
4.542

>  <excitation_energy_2>
4.805

>  <excitation_energy_3>
5.004

>  <excitation_energy_4>
5.186

>  <homo_energy>
-6.207

>  <homo_lumo_gap>
5.075

>  <logP>
0.796

>  <lumo_energy>
-1.132

>  <melting_point>
176.59

>  <molecular_refractivity>
37.45

>  <oscillator_strength_1>
0.0959

>  <oscillator_strength_2>
0.0291

>  <oscillator_strength_3>
0.0544

>  <oscillator_strength_4>
0.0007

>  <open_babel_can_smiles>
OC(=O)c1ccc(c(c1)O)O

>  <mulliken_charges>
17
1   -0.211118
2   -0.200515
3   -0.235934
4   0.054913
5   0.33333
6   0.32987
7   0.548298
8   -0.618911
9   -0.628775
10   -0.453768
11   -0.578802
12   0.131672
13   0.130435
14   0.160887
15   0.413301
16   0.415473
17   0.409646

>  <lowdin_charges>
17
1   -0.171574
2   -0.204628
3   -0.181431
4   -0.067545
5   0.092484
6   0.083719
7   0.197641
8   -0.353299
9   -0.361355
10   -0.249311
11   -0.360938
12   0.155521
13   0.160082
14   0.1781
15   0.363495
16   0.363216
17   0.355824

$$$$

