PCCDB-ID:  5230
public computational chemistry database (PCCDB) project, http://pccdb.org

 20 19  0  0  0  0  0  0  0  0999 V2000
    2.2354    1.5485    1.3397 C   0  0  0  0  0  0  0  0  0  0  0  0
    3.7857   -1.0040   -1.7711 C   0  0  0  0  0  0  0  0  0  0  0  0
    4.5506   -0.7054   -3.0661 C   0  0  0  0  0  0  0  0  0  0  0  0
    3.5181    0.2568   -0.9365 C   0  0  0  0  0  0  0  0  0  0  0  0
    3.7942    0.2187   -3.9198 N   0  0  0  0  0  0  0  0  0  0  0  0
    3.4044   -0.9043    1.5033 O   0  0  0  0  0  0  0  0  0  0  0  0
    1.1385   -0.7556    0.1872 O   0  0  0  0  0  0  0  0  0  0  0  0
    2.4238   -0.0530    0.4876 P   0  0  1  0  0  0  0  0  0  0  0  0
    1.6515    1.3988    2.2525 H   0  0  0  0  0  0  0  0  0  0  0  0
    1.6991    2.2499    0.6931 H   0  0  0  0  0  0  0  0  0  0  0  0
    3.2088    1.9728    1.6045 H   0  0  0  0  0  0  0  0  0  0  0  0
    4.3541   -1.7304   -1.1778 H   0  0  0  0  0  0  0  0  0  0  0  0
    2.8277   -1.4820   -2.0155 H   0  0  0  0  0  0  0  0  0  0  0  0
    4.7973   -1.6649   -3.5551 H   0  0  0  0  0  0  0  0  0  0  0  0
    5.5063   -0.2227   -2.8225 H   0  0  0  0  0  0  0  0  0  0  0  0
    3.0437    1.0153   -1.5697 H   0  0  0  0  0  0  0  0  0  0  0  0
    4.4586    0.6855   -0.5653 H   0  0  0  0  0  0  0  0  0  0  0  0
    2.9628   -0.2508   -4.2782 H   0  0  0  0  0  0  0  0  0  0  0  0
    4.3491    0.4739   -4.7345 H   0  0  0  0  0  0  0  0  0  0  0  0
    2.9019   -1.6580    1.8554 H   0  0  0  0  0  0  0  0  0  0  0  0
  1 11  1  0  0  0  0
  1  9  1  0  0  0  0
  2 12  1  0  0  0  0
  2  4  1  0  0  0  0
  3 15  1  0  0  0  0
  3  2  1  0  0  0  0
  4 17  1  0  0  0  0
  4  8  1  0  0  0  0
  5  3  1  0  0  0  0
  6 20  1  0  0  0  0
  8  7  2  6  0  0  0
  8  1  1  0  0  0  0
  8  6  1  0  0  0  0
 10  1  1  0  0  0  0
 13  2  1  0  0  0  0
 14  3  1  0  0  0  0
 16  4  1  0  0  0  0
 18  5  1  0  0  0  0
 19  5  1  0  0  0  0
M  END
>  <HBA>
3

>  <HBD>
2

>  <TPSA>
73.13

>  <cid>
5230

>  <dipole>
2.61

>  <excitation_energy_1>
5.692

>  <excitation_energy_2>
6.175

>  <excitation_energy_3>
6.35

>  <excitation_energy_4>
6.509

>  <homo_energy>
-6.463

>  <homo_lumo_gap>
8.115

>  <logP>
0.936

>  <lumo_energy>
1.652

>  <melting_point>
77.55

>  <molecular_refractivity>
33.87

>  <oscillator_strength_1>
0.0093

>  <oscillator_strength_2>
0.0017

>  <oscillator_strength_3>
0.0516

>  <oscillator_strength_4>
0.0293

>  <open_babel_can_smiles>
NCCC[P@@](=O)(O)C

>  <mulliken_charges>
20
1   -0.653687
2   -0.272061
3   -0.140209
4   -0.463954
5   -0.715854
6   -0.682774
7   -0.57114
8   0.978408
9   0.192331
10   0.185696
11   0.180494
12   0.14939
13   0.164773
14   0.119919
15   0.137925
16   0.197983
17   0.164331
18   0.29804
19   0.299637
20   0.430751

>  <lowdin_charges>
20
1   -0.639364
2   -0.278609
3   -0.203653
4   -0.461523
5   -0.560851
6   -0.603852
7   -0.621344
8   0.99209
9   0.188104
10   0.185226
11   0.180454
12   0.154585
13   0.157258
14   0.122658
15   0.140364
16   0.186923
17   0.1702
18   0.255567
19   0.257525
20   0.378243

$$$$

