PCCDB-ID:  5115
public computational chemistry database (PCCDB) project, http://pccdb.org

 23 23  0  0  1  0  0  0  0  0999 V2000
   -0.7619    0.9293   -0.3756 C   0  0  0  0  0  0  0  0  0  0  0  0
    1.2453   -0.2294    0.3044 C   0  0  0  0  0  0  0  0  0  0  0  0
   -1.4498   -0.2798   -0.4114 C   0  0  0  0  0  0  0  0  0  0  0  0
    0.5633   -1.4428    0.2686 C   0  0  0  0  0  0  0  0  0  0  0  0
    0.5928    0.9710   -0.0186 C   0  0  0  0  0  0  0  0  0  0  0  0
   -0.7911   -1.4729   -0.0901 C   0  0  0  0  0  0  0  0  0  0  0  0
    1.3551    2.2883   -0.0203 C   0  0  1  0  0  0  0  0  0  0  0  0
   -1.5735   -2.7379   -0.1413 C   0  0  0  0  0  0  0  0  0  0  0  0
    2.1947    2.4880    1.2675 C   0  0  0  0  0  0  0  0  0  0  0  0
    2.1393    2.4336   -1.2425 N   0  0  0  0  0  0  0  0  0  0  0  0
   -0.8352   -3.8302    0.1796 O   0  0  0  0  0  0  0  0  0  0  0  0
   -2.7489   -2.8138   -0.4362 O   0  0  0  0  0  0  0  0  0  0  0  0
    3.3214    2.9178    1.2572 O   0  0  0  0  0  0  0  0  0  0  0  0
    1.5669    2.2178    2.4382 O   0  0  0  0  0  0  0  0  0  0  0  0
   -1.2746    1.8509   -0.6385 H   0  0  0  0  0  0  0  0  0  0  0  0
    2.2939   -0.2156    0.5937 H   0  0  0  0  0  0  0  0  0  0  0  0
   -2.4985   -0.3203   -0.6865 H   0  0  0  0  0  0  0  0  0  0  0  0
    1.0747   -2.3652    0.5197 H   0  0  0  0  0  0  0  0  0  0  0  0
    0.6168    3.1046   -0.0042 H   0  0  0  0  0  0  0  0  0  0  0  0
    2.7387    1.6154   -1.3500 H   0  0  0  0  0  0  0  0  0  0  0  0
    2.7793    3.2179   -1.1117 H   0  0  0  0  0  0  0  0  0  0  0  0
   -1.4425   -4.5902    0.1125 H   0  0  0  0  0  0  0  0  0  0  0  0
    0.7015    1.8100    2.2576 H   0  0  0  0  0  0  0  0  0  0  0  0
  1  5  1  0  0  0  0
  2 16  1  0  0  0  0
  3  1  2  0  0  0  0
  3  6  1  0  0  0  0
  4  2  1  0  0  0  0
  4 18  1  0  0  0  0
  5  2  2  0  0  0  0
  6  4  2  0  0  0  0
  7  5  1  0  0  0  0
  7 19  1  6  0  0  0
  7  9  1  0  0  0  0
  8  6  1  0  0  0  0
  8 11  1  0  0  0  0
  9 14  1  0  0  0  0
 10 21  1  0  0  0  0
 10  7  1  0  0  0  0
 12  8  2  0  0  0  0
 13  9  2  0  0  0  0
 15  1  1  0  0  0  0
 17  3  1  0  0  0  0
 20 10  1  0  0  0  0
 22 11  1  0  0  0  0
 23 14  1  0  0  0  0
M  END
>  <HBA>
5

>  <HBD>
3

>  <TPSA>
100.62

>  <cid>
5115

>  <dipole>
2.06

>  <excitation_energy_1>
4.405

>  <excitation_energy_2>
4.765

>  <excitation_energy_3>
4.886

>  <excitation_energy_4>
5.162

>  <homo_energy>
-6.925

>  <homo_lumo_gap>
5.105

>  <logP>
1.169

>  <lumo_energy>
-1.82

>  <melting_point>
230.22

>  <molecular_refractivity>
47.65

>  <oscillator_strength_1>
0.0026

>  <oscillator_strength_2>
0.0001

>  <oscillator_strength_3>
0.0202

>  <oscillator_strength_4>
0.2508

>  <open_babel_can_smiles>
N[C@@H](c1ccc(cc1)C(=O)O)C(=O)O

>  <mulliken_charges>
23
1   -0.187213
2   -0.186328
3   -0.153922
4   -0.16102
5   0.123488
6   0.070864
7   -0.159571
8   0.542594
9   0.577904
10   -0.686291
11   -0.581189
12   -0.467939
13   -0.448273
14   -0.558741
15   0.149436
16   0.15559
17   0.173827
18   0.171037
19   0.170361
20   0.30486
21   0.319734
22   0.415988
23   0.414803

>  <lowdin_charges>
23
1   -0.157975
2   -0.164885
3   -0.12192
4   -0.13276
5   -0.012625
6   -0.042047
7   -0.106876
8   0.19194
9   0.164826
10   -0.529023
11   -0.356915
12   -0.264834
13   -0.237782
14   -0.347593
15   0.167616
16   0.166425
17   0.180757
18   0.179427
19   0.165762
20   0.26086
21   0.269052
22   0.366884
23   0.361685

$$$$

