PCCDB-ID:  460
public computational chemistry database (PCCDB) project, http://pccdb.org

 17 17  0  0  0  0  0  0  0  0999 V2000
    0.9356    0.0570    0.1067 C   0  0  0  0  0  0  0  0  0  0  0  0
    4.3421   -2.9749    2.1859 C   0  0  0  0  0  0  0  0  0  0  0  0
    4.7055   -1.6297    2.2067 C   0  0  0  0  0  0  0  0  0  0  0  0
    3.2823   -3.3986    1.3811 C   0  0  0  0  0  0  0  0  0  0  0  0
    3.9969   -0.7124    1.4272 C   0  0  0  0  0  0  0  0  0  0  0  0
    2.5818   -2.4857    0.5900 C   0  0  0  0  0  0  0  0  0  0  0  0
    2.9360   -1.1220    0.6204 C   0  0  0  0  0  0  0  0  0  0  0  0
    1.5535   -2.8593   -0.2361 O   0  0  0  0  0  0  0  0  0  0  0  0
    2.3141   -0.1926   -0.1776 O   0  0  0  0  0  0  0  0  0  0  0  0
    0.6315    0.8618   -0.5667 H   0  0  0  0  0  0  0  0  0  0  0  0
    0.8049    0.3860    1.1466 H   0  0  0  0  0  0  0  0  0  0  0  0
    0.3188   -0.8278   -0.0775 H   0  0  0  0  0  0  0  0  0  0  0  0
    4.8793   -3.7010    2.7893 H   0  0  0  0  0  0  0  0  0  0  0  0
    5.5320   -1.2919    2.8250 H   0  0  0  0  0  0  0  0  0  0  0  0
    2.9992   -4.4501    1.3557 H   0  0  0  0  0  0  0  0  0  0  0  0
    4.2556    0.3422    1.4212 H   0  0  0  0  0  0  0  0  0  0  0  0
    1.4414   -3.8205   -0.1722 H   0  0  0  0  0  0  0  0  0  0  0  0
  1 11  1  0  0  0  0
  2  3  1  0  0  0  0
  2 13  1  0  0  0  0
  3 14  1  0  0  0  0
  4  2  2  0  0  0  0
  5  3  2  0  0  0  0
  6  7  2  0  0  0  0
  6  4  1  0  0  0  0
  7  5  1  0  0  0  0
  8 17  1  0  0  0  0
  8  6  1  0  0  0  0
  9  1  1  0  0  0  0
  9  7  1  0  0  0  0
 10  1  1  0  0  0  0
 12  1  1  0  0  0  0
 15  4  1  0  0  0  0
 16  5  1  0  0  0  0
M  END
>  <HBA>
2

>  <HBD>
1

>  <TPSA>
29.46

>  <cid>
460

>  <dipole>
2.14

>  <excitation_energy_1>
5.0

>  <excitation_energy_2>
5.108

>  <excitation_energy_3>
5.631

>  <excitation_energy_4>
5.746

>  <homo_energy>
-5.821

>  <homo_lumo_gap>
5.951

>  <logP>
1.401

>  <lumo_energy>
0.131

>  <melting_point>
49.4

>  <molecular_refractivity>
34.96

>  <oscillator_strength_1>
0.0411

>  <oscillator_strength_2>
0.0004

>  <oscillator_strength_3>
0.0324

>  <oscillator_strength_4>
0.0052

>  <open_babel_can_smiles>
COc1ccccc1O

>  <mulliken_charges>
17
1   -0.213048
2   -0.132426
3   -0.142307
4   -0.200988
5   -0.174114
6   0.315242
7   0.325674
8   -0.641918
9   -0.519141
10   0.157755
11   0.137838
12   0.16783
13   0.128322
14   0.127824
15   0.117782
16   0.136923
17   0.40875

>  <lowdin_charges>
17
1   -0.275481
2   -0.159196
3   -0.173128
4   -0.209754
5   -0.167306
6   0.078623
7   0.067032
8   -0.374867
9   -0.223926
10   0.156584
11   0.136865
12   0.152624
13   0.159827
14   0.158989
15   0.151335
16   0.165201
17   0.356576

$$$$

