PCCDB-ID:  247
public computational chemistry database (PCCDB) project, http://pccdb.org

 19 18  0  0  0  0  0  0  0  0999 V2000
    1.0436    0.3322    0.1833 C   0  0  0  0  0  0  0  0  0  0  0  0
    2.8907   -1.2415    0.5018 C   0  0  0  0  0  0  0  0  0  0  0  0
    3.0339    0.5099   -1.2307 C   0  0  0  0  0  0  0  0  0  0  0  0
    3.1728    1.1393    1.1727 C   0  0  0  0  0  0  0  0  0  0  0  0
    4.7564    0.9698    1.1389 C   0  0  0  0  0  0  0  0  0  0  0  0
    2.5334    0.1826    0.1546 N   0  0  0  0  0  0  0  0  0  0  0  0
    5.1762    0.0758    1.9017 O   0  0  0  0  0  0  0  0  0  0  0  0
    5.3159    1.6970    0.2929 O   0  0  0  0  0  0  0  0  0  0  0  0
    0.5955   -0.3521   -0.5421 H   0  0  0  0  0  0  0  0  0  0  0  0
    0.7881    1.3627   -0.0681 H   0  0  0  0  0  0  0  0  0  0  0  0
    0.6863    0.0981    1.1872 H   0  0  0  0  0  0  0  0  0  0  0  0
    2.4973   -1.8969   -0.2781 H   0  0  0  0  0  0  0  0  0  0  0  0
    2.4376   -1.4807    1.4650 H   0  0  0  0  0  0  0  0  0  0  0  0
    3.9732   -1.3097    0.6042 H   0  0  0  0  0  0  0  0  0  0  0  0
    2.6361   -0.2313   -1.9270 H   0  0  0  0  0  0  0  0  0  0  0  0
    4.1231    0.5264   -1.2077 H   0  0  0  0  0  0  0  0  0  0  0  0
    2.6796    1.5078   -1.4932 H   0  0  0  0  0  0  0  0  0  0  0  0
    2.8600    2.1434    0.8756 H   0  0  0  0  0  0  0  0  0  0  0  0
    2.7513    0.8673    2.1436 H   0  0  0  0  0  0  0  0  0  0  0  0
  1 11  1  0  0  0  0
  2 14  1  0  0  0  0
  2 13  1  0  0  0  0
  3 16  1  0  0  0  0
  3  6  1  0  0  0  0
  4 19  1  0  0  0  0
  5  4  1  0  0  0  0
  5  7  1  0  0  0  0
  6  1  1  0  0  0  0
  6  2  1  0  0  0  0
  6  4  1  0  0  0  0
  8  5  2  0  0  0  0
  9  1  1  0  0  0  0
 10  1  1  0  0  0  0
 12  2  1  0  0  0  0
 15  3  1  0  0  0  0
 17  3  1  0  0  0  0
 18  4  1  0  0  0  0
M  RAD  1   7   2
M  END
>  <HBA>
2

>  <HBD>
0

>  <TPSA>
40.13

>  <cid>
247

>  <dipole>
10.74

>  <excitation_energy_1>
4.375

>  <excitation_energy_2>
4.43

>  <excitation_energy_3>
4.779

>  <excitation_energy_4>
4.792

>  <homo_energy>
-5.116

>  <homo_lumo_gap>
5.665

>  <logP>
-1.558

>  <lumo_energy>
0.55

>  <melting_point>
80.89

>  <molecular_refractivity>
28.35

>  <oscillator_strength_1>
0.0002

>  <oscillator_strength_2>
0.0247

>  <oscillator_strength_3>
0.0

>  <oscillator_strength_4>
0.0002

>  <open_babel_can_smiles>
[O]C(=O)C[N](C)(C)C

>  <mulliken_charges>
19
1   -0.303657
2   -0.324943
3   -0.325507
4   -0.214372
5   0.53624
6   -0.366699
7   -0.565953
8   -0.565847
9   0.182693
10   0.19557
11   0.195592
12   0.166087
13   0.188883
14   0.259041
15   0.166267
16   0.2592
17   0.188648
18   0.164365
19   0.16439

>  <lowdin_charges>
19
1   -0.351205
2   -0.35674
3   -0.35685
4   -0.254485
5   0.10526
6   0.080165
7   -0.401074
8   -0.401178
9   0.170142
10   0.175478
11   0.175888
12   0.161937
13   0.175683
14   0.211116
15   0.162111
16   0.211052
17   0.175151
18   0.158543
19   0.159006

$$$$

