PCCDB-ID:  4538
public computational chemistry database (PCCDB) project, http://pccdb.org

 22 22  0  0  1  0  0  0  0  0999 V2000
   -0.8343    1.3459    0.0654 C   0  0  0  0  0  0  0  0  0  0  0  0
   -1.2862    0.0260    0.0291 C   0  0  0  0  0  0  0  0  0  0  0  0
    0.5291    1.6355    0.0274 C   0  0  0  0  0  0  0  0  0  0  0  0
    1.0024   -0.7381   -0.0905 C   0  0  0  0  0  0  0  0  0  0  0  0
   -0.4073   -3.2354    1.2182 C   0  0  0  0  0  0  0  0  0  0  0  0
   -0.3661   -1.0259   -0.0443 C   0  0  0  0  0  0  0  0  0  0  0  0
    1.4494    0.5845   -0.0553 C   0  0  0  0  0  0  0  0  0  0  0  0
   -0.8361   -2.4830   -0.0633 C   0  0  2  0  0  0  0  0  0  0  0  0
   -1.2595   -2.7704    2.3214 N   0  0  0  0  0  0  0  0  0  0  0  0
    2.8030    0.7913   -0.1046 O   0  0  0  0  0  0  0  0  0  0  0  0
   -2.2386   -2.6057   -0.2033 O   0  0  0  0  0  0  0  0  0  0  0  0
   -1.5506    2.1617    0.1198 H   0  0  0  0  0  0  0  0  0  0  0  0
   -2.3457   -0.2019    0.0303 H   0  0  0  0  0  0  0  0  0  0  0  0
    0.8776    2.6666    0.0539 H   0  0  0  0  0  0  0  0  0  0  0  0
    1.7435   -1.5301   -0.1647 H   0  0  0  0  0  0  0  0  0  0  0  0
    0.6719   -3.1147    1.3949 H   0  0  0  0  0  0  0  0  0  0  0  0
   -0.6090   -4.3019    1.0706 H   0  0  0  0  0  0  0  0  0  0  0  0
   -0.3790   -2.9834   -0.9270 H   0  0  0  0  0  0  0  0  0  0  0  0
   -0.9568   -1.8497    2.6351 H   0  0  0  0  0  0  0  0  0  0  0  0
   -1.1968   -3.3971    3.1194 H   0  0  0  0  0  0  0  0  0  0  0  0
    2.9737    1.7457   -0.0923 H   0  0  0  0  0  0  0  0  0  0  0  0
   -2.5631   -2.6170    0.7217 H   0  0  0  0  0  0  0  0  0  0  0  0
  1 12  1  0  0  0  0
  2 13  1  0  0  0  0
  2  1  1  0  0  0  0
  3 14  1  0  0  0  0
  3  1  2  0  0  0  0
  4  7  2  0  0  0  0
  4  6  1  0  0  0  0
  5 16  1  0  0  0  0
  5  9  1  0  0  0  0
  6  2  2  0  0  0  0
  7  3  1  0  0  0  0
  8 18  1  6  0  0  0
  8  6  1  0  0  0  0
  8  5  1  0  0  0  0
  9 19  1  0  0  0  0
  9 20  1  0  0  0  0
 10 21  1  0  0  0  0
 10  7  1  0  0  0  0
 11  8  1  0  0  0  0
 11 22  1  0  0  0  0
 15  4  1  0  0  0  0
 17  5  1  0  0  0  0
M  END
>  <HBA>
3

>  <HBD>
3

>  <TPSA>
66.48

>  <cid>
4538

>  <dipole>
3.15

>  <excitation_energy_1>
4.976

>  <excitation_energy_2>
5.193

>  <excitation_energy_3>
5.565

>  <excitation_energy_4>
5.76

>  <homo_energy>
-5.913

>  <homo_lumo_gap>
5.891

>  <logP>
1.085

>  <lumo_energy>
-0.022

>  <melting_point>
120.33

>  <molecular_refractivity>
42.11

>  <oscillator_strength_1>
0.0453

>  <oscillator_strength_2>
0.0001

>  <oscillator_strength_3>
0.0018

>  <oscillator_strength_4>
0.0059

>  <open_babel_can_smiles>
NC[C@H](c1cccc(c1)O)O

>  <mulliken_charges>
22
1   -0.134536
2   -0.186806
3   -0.195619
4   -0.220133
5   -0.168631
6   0.118285
7   0.350229
8   0.08563
9   -0.75052
10   -0.645907
11   -0.644698
12   0.129499
13   0.138747
14   0.114778
15   0.129323
16   0.135113
17   0.153102
18   0.143995
19   0.316921
20   0.313262
21   0.406128
22   0.411833

>  <lowdin_charges>
22
1   -0.14539
2   -0.18707
3   -0.218998
4   -0.205263
5   -0.21841
6   -0.014251
7   0.104199
8   -0.007868
9   -0.556371
10   -0.381891
11   -0.462799
12   0.158633
13   0.164645
14   0.1507
15   0.162403
16   0.131598
17   0.148706
18   0.150855
19   0.264822
20   0.265911
21   0.354506
22   0.341333

$$$$

