PCCDB-ID:  1745
public computational chemistry database (PCCDB) project, http://pccdb.org

 13 13  0  0  0  0  0  0  0  0999 V2000
   -1.1513    0.1213    0.2673 C   0  0  0  0  0  0  0  0  0  0  0  0
   -0.8737   -2.4908    0.0097 C   0  0  0  0  0  0  0  0  0  0  0  0
    0.8722    0.7039   -0.0984 C   0  0  0  0  0  0  0  0  0  0  0  0
   -0.4719   -1.0529    0.0374 C   0  0  0  0  0  0  0  0  0  0  0  0
   -0.3093    1.2087    0.1864 N   0  0  0  0  0  0  0  0  0  0  0  0
    0.8346   -0.6579   -0.1906 N   0  0  0  0  0  0  0  0  0  0  0  0
   -0.3990   -3.1692   -1.1570 O   0  0  0  0  0  0  0  0  0  0  0  0
   -2.2023    0.2417    0.4968 H   0  0  0  0  0  0  0  0  0  0  0  0
   -1.9662   -2.5606    0.1128 H   0  0  0  0  0  0  0  0  0  0  0  0
   -0.4339   -3.0467    0.8464 H   0  0  0  0  0  0  0  0  0  0  0  0
    1.7819    1.2698   -0.2505 H   0  0  0  0  0  0  0  0  0  0  0  0
    1.5861   -1.2780   -0.4588 H   0  0  0  0  0  0  0  0  0  0  0  0
   -0.7854   -2.7176   -1.9249 H   0  0  0  0  0  0  0  0  0  0  0  0
  1  8  1  0  0  0  0
  2  4  1  0  0  0  0
  2  9  1  0  0  0  0
  2 10  1  0  0  0  0
  3  5  2  0  0  0  0
  4  1  2  0  0  0  0
  5  1  1  0  0  0  0
  6  3  1  0  0  0  0
  6  4  1  0  0  0  0
  7  2  1  0  0  0  0
 11  3  1  0  0  0  0
 12  6  1  0  0  0  0
 13  7  1  0  0  0  0
M  END
>  <HBA>
2

>  <HBD>
2

>  <TPSA>
48.91

>  <cid>
1745

>  <dipole>
2.15

>  <excitation_energy_1>
5.362

>  <excitation_energy_2>
5.955

>  <excitation_energy_3>
6.155

>  <excitation_energy_4>
6.176

>  <homo_energy>
-6.147

>  <homo_lumo_gap>
6.653

>  <logP>
-0.098

>  <lumo_energy>
0.506

>  <melting_point>
88.55

>  <molecular_refractivity>
24.72

>  <oscillator_strength_1>
0.063

>  <oscillator_strength_2>
0.1058

>  <oscillator_strength_3>
0.0045

>  <oscillator_strength_4>
0.0303

>  <open_babel_can_smiles>
OCc1cnc[nH]1

>  <mulliken_charges>
13
1   -0.075602
2   -0.115224
3   0.208844
4   0.276593
5   -0.424638
6   -0.586626
7   -0.612806
8   0.133245
9   0.145637
10   0.1638
11   0.155957
12   0.33994
13   0.390879

>  <lowdin_charges>
13
1   -0.164213
2   -0.13267
3   -0.088664
4   -0.042375
5   -0.187527
6   -0.183328
7   -0.472602
8   0.159338
9   0.143289
10   0.157732
11   0.167521
12   0.298681
13   0.344816

$$$$

