PCCDB-ID:  229
public computational chemistry database (PCCDB) project, http://pccdb.org

 20 20  0  0  1  0  0  0  0  0999 V2000
    0.6301    1.2135   -0.2280 C   0  0  0  0  0  0  0  0  0  0  0  0
    1.4135   -0.0005    0.2825 C   0  0  2  0  0  0  0  0  0  0  0  0
    0.7205   -1.2867   -0.2008 C   0  0  2  0  0  0  0  0  0  0  0  0
   -0.7743   -1.2452    0.1604 C   0  0  2  0  0  0  0  0  0  0  0  0
   -1.4486    0.0655   -0.2915 C   0  0  1  0  0  0  0  0  0  0  0  0
    1.4172   -0.0498    1.7195 O   0  0  0  0  0  0  0  0  0  0  0  0
    1.3381   -2.4581    0.2868 O   0  0  0  0  0  0  0  0  0  0  0  0
   -0.9648   -1.4032    1.5704 O   0  0  0  0  0  0  0  0  0  0  0  0
   -2.7426    0.1362    0.1870 O   0  0  0  0  0  0  0  0  0  0  0  0
   -0.7144    1.1889    0.2182 O   0  0  0  0  0  0  0  0  0  0  0  0
    0.6867    1.2470   -1.3304 H   0  0  0  0  0  0  0  0  0  0  0  0
    1.0617    2.1474    0.1512 H   0  0  0  0  0  0  0  0  0  0  0  0
    2.4466    0.0245   -0.0932 H   0  0  0  0  0  0  0  0  0  0  0  0
    0.8173   -1.3179   -1.2936 H   0  0  0  0  0  0  0  0  0  0  0  0
   -1.2889   -2.0900   -0.3082 H   0  0  0  0  0  0  0  0  0  0  0  0
   -1.4910    0.1341   -1.3895 H   0  0  0  0  0  0  0  0  0  0  0  0
    1.7137    0.8099    2.0574 H   0  0  0  0  0  0  0  0  0  0  0  0
    1.0446   -2.5481    1.2097 H   0  0  0  0  0  0  0  0  0  0  0  0
   -0.3748   -0.7436    1.9906 H   0  0  0  0  0  0  0  0  0  0  0  0
   -2.7023   -0.2422    1.0867 H   0  0  0  0  0  0  0  0  0  0  0  0
  1 12  1  0  0  0  0
  1 10  1  0  0  0  0
  1  2  1  0  0  0  0
  2 13  1  6  0  0  0
  2  6  1  0  0  0  0
  3 14  1  6  0  0  0
  3  4  1  0  0  0  0
  3  2  1  0  0  0  0
  3  7  1  0  0  0  0
  4 15  1  6  0  0  0
  4  8  1  0  0  0  0
  5 16  1  6  0  0  0
  5  4  1  0  0  0  0
  5  9  1  0  0  0  0
  5 10  1  0  0  0  0
  6 17  1  0  0  0  0
  7 18  1  0  0  0  0
  8 19  1  0  0  0  0
  9 20  1  0  0  0  0
 11  1  1  0  0  0  0
M  END
>  <HBA>
5

>  <HBD>
4

>  <TPSA>
90.15

>  <cid>
229

>  <dipole>
3.09

>  <excitation_energy_1>
6.198

>  <excitation_energy_2>
6.458

>  <excitation_energy_3>
6.761

>  <excitation_energy_4>
6.858

>  <homo_energy>
-7.048

>  <homo_lumo_gap>
8.218

>  <logP>
-2.582

>  <lumo_energy>
1.17

>  <melting_point>
62.2

>  <molecular_refractivity>
29.77

>  <oscillator_strength_1>
0.0071

>  <oscillator_strength_2>
0.0001

>  <oscillator_strength_3>
0.026

>  <oscillator_strength_4>
0.0056

>  <open_babel_can_smiles>
O[C@@H]1CO[C@@H]([C@@H]([C@@H]1O)O)O

>  <mulliken_charges>
20
1   -0.069194
2   0.101622
3   0.109134
4   0.054557
5   0.332162
6   -0.642125
7   -0.624659
8   -0.663203
9   -0.607523
10   -0.470468
11   0.132204
12   0.146941
13   0.1382
14   0.139908
15   0.159325
16   0.120422
17   0.406348
18   0.406213
19   0.422934
20   0.407203

>  <lowdin_charges>
20
1   -0.151819
2   -0.035934
3   -0.03084
4   -0.051213
5   0.077006
6   -0.46132
7   -0.44425
8   -0.473288
9   -0.415224
10   -0.279058
11   0.134181
12   0.151339
13   0.144203
14   0.149514
15   0.161132
16   0.128493
17   0.353129
18   0.348029
19   0.347475
20   0.348445

$$$$

