PCCDB-ID:  753
public computational chemistry database (PCCDB) project, http://pccdb.org

 14 13  0  0  0  0  0  0  0  0999 V2000
    1.3961   -0.1899   -0.0736 C   0  0  0  0  0  0  0  0  0  0  0  0
    1.6815    2.2502    0.6235 C   0  0  0  0  0  0  0  0  0  0  0  0
    0.8705    0.9668    0.7656 C   0  0  0  0  0  0  0  0  0  0  0  0
    0.4609   -1.2574    0.1012 O   0  0  0  0  0  0  0  0  0  0  0  0
    1.1095    3.2951    1.3883 O   0  0  0  0  0  0  0  0  0  0  0  0
   -0.4553    1.2966    0.3544 O   0  0  0  0  0  0  0  0  0  0  0  0
    2.4036   -0.4828    0.2594 H   0  0  0  0  0  0  0  0  0  0  0  0
    1.4499    0.1175   -1.1285 H   0  0  0  0  0  0  0  0  0  0  0  0
    1.7406    2.5209   -0.4444 H   0  0  0  0  0  0  0  0  0  0  0  0
    2.7013    2.1010    0.9948 H   0  0  0  0  0  0  0  0  0  0  0  0
    0.8699    0.6617    1.8245 H   0  0  0  0  0  0  0  0  0  0  0  0
    0.6391   -1.9354   -0.5668 H   0  0  0  0  0  0  0  0  0  0  0  0
    0.1603    3.2772    1.1781 H   0  0  0  0  0  0  0  0  0  0  0  0
   -0.9413    0.4552    0.3271 H   0  0  0  0  0  0  0  0  0  0  0  0
  1  4  1  0  0  0  0
  1  7  1  0  0  0  0
  1  3  1  0  0  0  0
  2  3  1  0  0  0  0
  2 10  1  0  0  0  0
  2  5  1  0  0  0  0
  3 11  1  0  0  0  0
  6  3  1  0  0  0  0
  8  1  1  0  0  0  0
  9  2  1  0  0  0  0
 12  4  1  0  0  0  0
 13  5  1  0  0  0  0
 14  6  1  0  0  0  0
M  END
>  <HBA>
3

>  <HBD>
3

>  <TPSA>
60.69

>  <cid>
753

>  <dipole>
3.54

>  <excitation_energy_1>
6.453

>  <excitation_energy_2>
6.68

>  <excitation_energy_3>
6.7

>  <excitation_energy_4>
6.95

>  <homo_energy>
-7.012

>  <homo_lumo_gap>
8.433

>  <logP>
-1.668

>  <lumo_energy>
1.42

>  <melting_point>
31.28

>  <molecular_refractivity>
20.02

>  <oscillator_strength_1>
0.0134

>  <oscillator_strength_2>
0.0057

>  <oscillator_strength_3>
0.0061

>  <oscillator_strength_4>
0.0122

>  <open_babel_can_smiles>
OCC(CO)O

>  <mulliken_charges>
14
1   -0.052722
2   -0.016892
3   0.105484
4   -0.633093
5   -0.626638
6   -0.655333
7   0.128768
8   0.131551
9   0.120923
10   0.138914
11   0.136227
12   0.402706
13   0.408172
14   0.411933

>  <lowdin_charges>
14
1   -0.149782
2   -0.135875
3   -0.025843
4   -0.476797
5   -0.462888
6   -0.47688
7   0.134606
8   0.133322
9   0.126389
10   0.146107
11   0.135841
12   0.352667
13   0.347363
14   0.351771

$$$$

