PCCDB-ID:  397
public computational chemistry database (PCCDB) project, http://pccdb.org

 23 24  0  0  0  0  0  0  0  0999 V2000
    2.5347    0.2894    0.0134 C   0  0  0  0  0  0  0  0  0  0  0  0
    2.1839    1.6548    0.0514 C   0  0  0  0  0  0  0  0  0  0  0  0
    1.5623   -0.7020    0.0081 C   0  0  0  0  0  0  0  0  0  0  0  0
    0.8541    2.0572    0.0857 C   0  0  0  0  0  0  0  0  0  0  0  0
   -1.2070   -2.5562   -0.0022 C   0  0  0  0  0  0  0  0  0  0  0  0
   -2.0422   -0.1227    0.0940 C   0  0  0  0  0  0  0  0  0  0  0  0
   -1.0411   -1.0626    0.0533 C   0  0  0  0  0  0  0  0  0  0  0  0
    0.2046   -0.3275    0.0404 C   0  0  0  0  0  0  0  0  0  0  0  0
   -0.1234    1.0569    0.0788 C   0  0  0  0  0  0  0  0  0  0  0  0
   -1.1580   -3.1725   -1.4084 C   0  0  0  0  0  0  0  0  0  0  0  0
   -1.7816   -4.2076   -1.7999 N   0  0  0  0  0  0  0  0  0  0  0  0
   -1.4995    1.1460    0.1134 N   0  0  0  0  0  0  0  0  0  0  0  0
   -0.3098   -2.5762   -2.2839 O   0  0  0  0  0  0  0  0  0  0  0  0
    3.5844    0.0109   -0.0123 H   0  0  0  0  0  0  0  0  0  0  0  0
    2.9679    2.4067    0.0531 H   0  0  0  0  0  0  0  0  0  0  0  0
    1.8466   -1.7509   -0.0233 H   0  0  0  0  0  0  0  0  0  0  0  0
    0.5854    3.1098    0.1154 H   0  0  0  0  0  0  0  0  0  0  0  0
   -2.1529   -2.8521    0.4626 H   0  0  0  0  0  0  0  0  0  0  0  0
   -0.4108   -3.0317    0.5890 H   0  0  0  0  0  0  0  0  0  0  0  0
   -3.1147   -0.2618    0.1163 H   0  0  0  0  0  0  0  0  0  0  0  0
   -2.3601   -4.5704   -1.0403 H   0  0  0  0  0  0  0  0  0  0  0  0
   -2.0291    2.0032    0.1470 H   0  0  0  0  0  0  0  0  0  0  0  0
   -0.0159   -1.7250   -1.9175 H   0  0  0  0  0  0  0  0  0  0  0  0
  1  2  1  0  0  0  0
  2 15  1  0  0  0  0
  2  4  2  0  0  0  0
  3  1  2  0  0  0  0
  3  8  1  0  0  0  0
  4 17  1  0  0  0  0
  5  7  1  0  0  0  0
  5 18  1  0  0  0  0
  5 19  1  0  0  0  0
  6 12  1  0  0  0  0
  6 20  1  0  0  0  0
  7  6  2  0  0  0  0
  8  7  1  0  0  0  0
  8  9  2  0  0  0  0
  9  4  1  0  0  0  0
  9 12  1  0  0  0  0
 10  5  1  0  0  0  0
 11 10  2  0  0  0  0
 11 21  1  0  0  0  0
 12 22  1  0  0  0  0
 13 23  1  0  0  0  0
 13 10  1  0  0  0  0
 14  1  1  0  0  0  0
 16  3  1  0  0  0  0
M  END
>  <HBA>
2

>  <HBD>
2

>  <TPSA>
58.88

>  <cid>
397

>  <dipole>
6.01

>  <excitation_energy_1>
4.6

>  <excitation_energy_2>
4.829

>  <excitation_energy_3>
4.94

>  <excitation_energy_4>
5.33

>  <homo_energy>
-5.804

>  <homo_lumo_gap>
5.192

>  <logP>
1.896

>  <lumo_energy>
-0.612

>  <melting_point>
174.74

>  <molecular_refractivity>
50.98

>  <oscillator_strength_1>
0.0744

>  <oscillator_strength_2>
0.0225

>  <oscillator_strength_3>
0.0007

>  <oscillator_strength_4>
0.012

>  <open_babel_can_smiles>
OC(=N)Cc1c[nH]c2c1cccc2

>  <mulliken_charges>
23
1   -0.136086
2   -0.150385
3   -0.213755
4   -0.159028
5   -0.437486
6   0.019312
7   0.025046
8   0.045512
9   0.321803
10   0.483788
11   -0.585708
12   -0.687525
13   -0.58427
14   0.130594
15   0.131052
16   0.137582
17   0.12848
18   0.158791
19   0.182101
20   0.159668
21   0.277002
22   0.333221
23   0.420291

>  <lowdin_charges>
23
1   -0.167792
2   -0.160117
3   -0.170707
4   -0.181226
5   -0.306493
6   -0.120972
7   -0.082904
8   -0.05227
9   0.033368
10   0.123302
11   -0.406756
12   -0.193739
13   -0.363791
14   0.158282
15   0.160703
16   0.159528
17   0.157605
18   0.165206
19   0.173732
20   0.167932
21   0.252863
22   0.295395
23   0.35885

$$$$

