PCCDB-ID:  219
public computational chemistry database (PCCDB) project, http://pccdb.org

 15 14  0  0  1  0  0  0  0  0999 V2000
    0.8762    0.5259    0.1597 C   0  0  0  0  0  0  0  0  0  0  0  0
    2.1152    0.0377   -0.5371 C   0  0  0  0  0  0  0  0  0  0  0  0
    3.3985    0.8865   -0.4538 C   0  0  1  0  0  0  0  0  0  0  0  0
    4.1144    0.9943   -1.8353 C   0  0  0  0  0  0  0  0  0  0  0  0
    3.1968    2.1729    0.1914 N   0  0  0  0  0  0  0  0  0  0  0  0
    2.1452   -1.0299   -1.1398 O   0  0  0  0  0  0  0  0  0  0  0  0
    4.5707    2.0462   -2.2159 O   0  0  0  0  0  0  0  0  0  0  0  0
    4.2220   -0.1411   -2.5319 O   0  0  0  0  0  0  0  0  0  0  0  0
    0.0842   -0.2181    0.0580 H   0  0  0  0  0  0  0  0  0  0  0  0
    0.5558    1.4819   -0.2704 H   0  0  0  0  0  0  0  0  0  0  0  0
    1.0914    0.7328    1.2127 H   0  0  0  0  0  0  0  0  0  0  0  0
    4.0659    0.2776    0.1748 H   0  0  0  0  0  0  0  0  0  0  0  0
    3.0420    2.8730   -0.5345 H   0  0  0  0  0  0  0  0  0  0  0  0
    4.0656    2.4608    0.6360 H   0  0  0  0  0  0  0  0  0  0  0  0
    3.6205   -0.8124   -2.1233 H   0  0  0  0  0  0  0  0  0  0  0  0
  1 11  1  0  0  0  0
  2  3  1  0  0  0  0
  2  1  1  0  0  0  0
  3 12  1  1  0  0  0
  3  5  1  0  0  0  0
  4  3  1  0  0  0  0
  5 14  1  0  0  0  0
  6  2  2  0  0  0  0
  7  4  2  0  0  0  0
  8 15  1  0  0  0  0
  8  4  1  0  0  0  0
  9  1  1  0  0  0  0
 10  1  1  0  0  0  0
 13  5  1  0  0  0  0
M  END
>  <HBA>
4

>  <HBD>
2

>  <TPSA>
80.39

>  <cid>
219

>  <dipole>
3.61

>  <excitation_energy_1>
4.248

>  <excitation_energy_2>
5.287

>  <excitation_energy_3>
5.415

>  <excitation_energy_4>
5.747

>  <homo_energy>
-7.034

>  <homo_lumo_gap>
5.671

>  <logP>
-0.312

>  <lumo_energy>
-1.363

>  <melting_point>
127.56

>  <molecular_refractivity>
26.02

>  <oscillator_strength_1>
0.0029

>  <oscillator_strength_2>
0.0082

>  <oscillator_strength_3>
0.0121

>  <oscillator_strength_4>
0.0009

>  <open_babel_can_smiles>
N[C@H](C(=O)O)C(=O)C

>  <mulliken_charges>
15
1   -0.505635
2   0.463472
3   -0.200814
4   0.587075
5   -0.706477
6   -0.46496
7   -0.449277
8   -0.572708
9   0.180998
10   0.186927
11   0.197156
12   0.203658
13   0.322719
14   0.320309
15   0.437556

>  <lowdin_charges>
15
1   -0.459934
2   0.175782
3   -0.149912
4   0.173716
5   -0.532949
6   -0.250871
7   -0.249997
8   -0.349302
9   0.174915
10   0.184631
11   0.187898
12   0.189859
13   0.270007
14   0.271345
15   0.364813

$$$$

