PCCDB-ID:  5123
public computational chemistry database (PCCDB) project, http://pccdb.org

 23 23  0  0  1  0  0  0  0  0999 V2000
    4.9511   -1.2416   -1.9877 C   0  0  0  0  0  0  0  0  0  0  0  0
    3.9942   -0.3341   -1.6412 C   0  0  0  0  0  0  0  0  0  0  0  0
    3.2576    1.7390   -0.5424 C   0  0  0  0  0  0  0  0  0  0  0  0
    3.2557    3.2121   -1.0367 C   0  0  1  0  0  0  0  0  0  0  0  0
    6.2920   -0.8932   -1.6453 C   0  0  0  0  0  0  0  0  0  0  0  0
    3.6848    3.3264   -2.5150 C   0  0  0  0  0  0  0  0  0  0  0  0
    5.6865    1.1775   -0.8141 C   0  0  0  0  0  0  0  0  0  0  0  0
    1.9008    3.7095   -0.8113 N   0  0  0  0  0  0  0  0  0  0  0  0
    6.6332    0.2404   -1.0900 N   0  0  0  0  0  0  0  0  0  0  0  0
    4.3180    0.8405   -1.0430 N   0  0  0  0  0  0  0  0  0  0  0  0
    7.3060   -1.7470   -1.8809 O   0  0  0  0  0  0  0  0  0  0  0  0
    2.8720    3.3461   -3.4140 O   0  0  0  0  0  0  0  0  0  0  0  0
    5.0022    3.4021   -2.7510 O   0  0  0  0  0  0  0  0  0  0  0  0
    5.9399    2.3113   -0.3929 O   0  0  0  0  0  0  0  0  0  0  0  0
    4.6879   -2.1739   -2.4733 H   0  0  0  0  0  0  0  0  0  0  0  0
    2.9385   -0.5079   -1.8196 H   0  0  0  0  0  0  0  0  0  0  0  0
    2.3045    1.2915   -0.8332 H   0  0  0  0  0  0  0  0  0  0  0  0
    3.3038    1.7538    0.5498 H   0  0  0  0  0  0  0  0  0  0  0  0
    3.9540    3.7764   -0.4172 H   0  0  0  0  0  0  0  0  0  0  0  0
    1.3659    3.5256   -1.6624 H   0  0  0  0  0  0  0  0  0  0  0  0
    1.9235    4.7229   -0.7149 H   0  0  0  0  0  0  0  0  0  0  0  0
    6.9649   -2.5543   -2.2978 H   0  0  0  0  0  0  0  0  0  0  0  0
    5.4993    3.2824   -1.9067 H   0  0  0  0  0  0  0  0  0  0  0  0
  1  5  1  0  0  0  0
  1  2  2  0  0  0  0
  2 10  1  0  0  0  0
  3 18  1  0  0  0  0
  4  8  1  0  0  0  0
  4  3  1  0  0  0  0
  4 19  1  1  0  0  0
  5  9  2  0  0  0  0
  6  4  1  0  0  0  0
  7 14  2  0  0  0  0
  8 21  1  0  0  0  0
  9  7  1  0  0  0  0
 10  7  1  0  0  0  0
 10  3  1  0  0  0  0
 11  5  1  0  0  0  0
 12  6  2  0  0  0  0
 13  6  1  0  0  0  0
 13 23  1  0  0  0  0
 15  1  1  0  0  0  0
 16  2  1  0  0  0  0
 17  3  1  0  0  0  0
 20  8  1  0  0  0  0
 22 11  1  0  0  0  0
M  END
>  <HBA>
6

>  <HBD>
3

>  <TPSA>
118.18

>  <cid>
5123

>  <dipole>
5.94

>  <excitation_energy_1>
4.575

>  <excitation_energy_2>
4.791

>  <excitation_energy_3>
4.917

>  <excitation_energy_4>
5.16

>  <homo_energy>
-6.817

>  <homo_lumo_gap>
5.178

>  <logP>
-1.351

>  <lumo_energy>
-1.638

>  <melting_point>
253.72

>  <molecular_refractivity>
46.68

>  <oscillator_strength_1>
0.0352

>  <oscillator_strength_2>
0.036

>  <oscillator_strength_3>
0.0028

>  <oscillator_strength_4>
0.0006

>  <open_babel_can_smiles>
OC(=O)[C@H](Cn1ccc(nc1=O)O)N

>  <mulliken_charges>
23
1   -0.254131
2   0.124771
3   -0.119539
4   -0.112204
5   0.531539
6   0.576393
7   0.710822
8   -0.71283
9   -0.497787
10   -0.458327
11   -0.569233
12   -0.465626
13   -0.584703
14   -0.557177
15   0.153951
16   0.188942
17   0.168866
18   0.196955
19   0.181693
20   0.317993
21   0.311945
22   0.419513
23   0.448173

>  <lowdin_charges>
23
1   -0.270844
2   -0.034709
3   -0.187453
4   -0.122592
5   0.170268
6   0.173108
7   0.178595
8   -0.535533
9   -0.183486
10   -0.041496
11   -0.320808
12   -0.26594
13   -0.351994
14   -0.336129
15   0.175497
16   0.180176
17   0.165804
18   0.17423
19   0.171409
20   0.2655
21   0.263189
22   0.366413
23   0.366794

$$$$

