PCCDB-ID:  39
public computational chemistry database (PCCDB) project, http://pccdb.org

 17 17  0  0  0  0  0  0  0  0999 V2000
    0.8580   -0.0104   -0.0531 C   0  0  0  0  0  0  0  0  0  0  0  0
    2.9103    0.2329    1.4162 C   0  0  0  0  0  0  0  0  0  0  0  0
    2.9651    1.1163   -0.9938 C   0  0  0  0  0  0  0  0  0  0  0  0
    2.9647   -1.2450   -0.6008 C   0  0  0  0  0  0  0  0  0  0  0  0
    3.8159   -0.8920   -1.8356 C   0  0  0  0  0  0  0  0  0  0  0  0
    2.3976    0.0478   -0.0254 C   0  0  0  0  0  0  0  0  0  0  0  0
    2.7989   -2.3667   -0.1888 O   0  0  0  0  0  0  0  0  0  0  0  0
    4.4231   -1.6437   -2.5484 O   0  0  0  0  0  0  0  0  0  0  0  0
    3.7729    0.4509   -2.0010 O   0  0  0  0  0  0  0  0  0  0  0  0
    0.4340    0.9132    0.3571 H   0  0  0  0  0  0  0  0  0  0  0  0
    0.5049   -0.8540    0.5477 H   0  0  0  0  0  0  0  0  0  0  0  0
    0.4775   -0.1361   -1.0730 H   0  0  0  0  0  0  0  0  0  0  0  0
    2.5136    1.1599    1.8458 H   0  0  0  0  0  0  0  0  0  0  0  0
    4.0044    0.2824    1.4518 H   0  0  0  0  0  0  0  0  0  0  0  0
    2.5874   -0.6070    2.0388 H   0  0  0  0  0  0  0  0  0  0  0  0
    3.6149    1.8381   -0.4910 H   0  0  0  0  0  0  0  0  0  0  0  0
    2.1806    1.6627   -1.5251 H   0  0  0  0  0  0  0  0  0  0  0  0
  1  6  1  0  0  0  0
  1 10  1  0  0  0  0
  1 11  1  0  0  0  0
  2 14  1  0  0  0  0
  2 13  1  0  0  0  0
  2 15  1  0  0  0  0
  3 16  1  0  0  0  0
  3  6  1  0  0  0  0
  4  7  2  0  0  0  0
  4  6  1  0  0  0  0
  5  4  1  0  0  0  0
  6  2  1  0  0  0  0
  8  5  2  0  0  0  0
  9  5  1  0  0  0  0
  9  3  1  0  0  0  0
 12  1  1  0  0  0  0
 17  3  1  0  0  0  0
M  END
>  <HBA>
3

>  <HBD>
0

>  <TPSA>
43.37

>  <cid>
39

>  <dipole>
5.44

>  <excitation_energy_1>
3.026

>  <excitation_energy_2>
4.661

>  <excitation_energy_3>
5.471

>  <excitation_energy_4>
6.135

>  <homo_energy>
-6.934

>  <homo_lumo_gap>
4.599

>  <logP>
0.139

>  <lumo_energy>
-2.335

>  <melting_point>
48.53

>  <molecular_refractivity>
30.07

>  <oscillator_strength_1>
0.0002

>  <oscillator_strength_2>
0.0

>  <oscillator_strength_3>
0.0591

>  <oscillator_strength_4>
0.0024

>  <open_babel_can_smiles>
O=C1C(=O)OCC1(C)C

>  <mulliken_charges>
17
1   -0.456139
2   -0.456178
3   -0.059569
4   0.378442
5   0.571399
6   -0.025244
7   -0.415121
8   -0.422746
9   -0.447942
10   0.157265
11   0.178868
12   0.159617
13   0.157364
14   0.159696
15   0.178866
16   0.17071
17   0.170712

>  <lowdin_charges>
17
1   -0.434188
2   -0.432821
3   -0.128308
4   0.125914
5   0.154505
6   -0.038541
7   -0.165497
8   -0.193934
9   -0.175537
10   0.157853
11   0.169267
12   0.157041
13   0.157825
14   0.155841
15   0.169234
16   0.160781
17   0.160565

$$$$

