PCCDB-ID:  137
public computational chemistry database (PCCDB) project, http://pccdb.org

 18 17  0  0  0  0  0  0  0  0999 V2000
    1.3462    0.6091    0.4067 C   0  0  0  0  0  0  0  0  0  0  0  0
    0.3355    1.7331    0.7164 C   0  0  0  0  0  0  0  0  0  0  0  0
    3.8703    0.0880    0.0438 C   0  0  0  0  0  0  0  0  0  0  0  0
    2.7945    0.9186    0.7438 C   0  0  0  0  0  0  0  0  0  0  0  0
   -0.0990    1.8298    2.1837 C   0  0  0  0  0  0  0  0  0  0  0  0
    5.2345    0.2880    0.4921 N   0  0  0  0  0  0  0  0  0  0  0  0
    3.1141    1.7962    1.5364 O   0  0  0  0  0  0  0  0  0  0  0  0
   -1.2408    1.6476    2.5355 O   0  0  0  0  0  0  0  0  0  0  0  0
    0.8680    2.1370    3.0677 O   0  0  0  0  0  0  0  0  0  0  0  0
    1.2939    0.3475   -0.6583 H   0  0  0  0  0  0  0  0  0  0  0  0
    1.0743   -0.3140    0.9410 H   0  0  0  0  0  0  0  0  0  0  0  0
   -0.5760    1.5629    0.1407 H   0  0  0  0  0  0  0  0  0  0  0  0
    0.7561    2.6969    0.4018 H   0  0  0  0  0  0  0  0  0  0  0  0
    3.8025    0.3088   -1.0324 H   0  0  0  0  0  0  0  0  0  0  0  0
    3.6017   -0.9741    0.1338 H   0  0  0  0  0  0  0  0  0  0  0  0
    5.4559    1.2821    0.4553 H   0  0  0  0  0  0  0  0  0  0  0  0
    5.3083    0.0362    1.4767 H   0  0  0  0  0  0  0  0  0  0  0  0
    1.7316    2.2223    2.6014 H   0  0  0  0  0  0  0  0  0  0  0  0
  1  2  1  0  0  0  0
  1  4  1  0  0  0  0
  1 11  1  0  0  0  0
  2  5  1  0  0  0  0
  3 15  1  0  0  0  0
  3  6  1  0  0  0  0
  3  4  1  0  0  0  0
  4  7  2  0  0  0  0
  5  8  2  0  0  0  0
  5  9  1  0  0  0  0
  6 17  1  0  0  0  0
 10  1  1  0  0  0  0
 12  2  1  0  0  0  0
 13  2  1  0  0  0  0
 14  3  1  0  0  0  0
 16  6  1  0  0  0  0
 18  9  1  0  0  0  0
M  END
>  <HBA>
4

>  <HBD>
2

>  <TPSA>
80.39

>  <cid>
137

>  <dipole>
5.01

>  <excitation_energy_1>
4.254

>  <excitation_energy_2>
4.972

>  <excitation_energy_3>
5.093

>  <excitation_energy_4>
5.534

>  <homo_energy>
-6.928

>  <homo_lumo_gap>
5.464

>  <logP>
0.079

>  <lumo_energy>
-1.464

>  <melting_point>
126.9

>  <molecular_refractivity>
30.83

>  <oscillator_strength_1>
0.0002

>  <oscillator_strength_2>
0.0006

>  <oscillator_strength_3>
0.0004

>  <oscillator_strength_4>
0.0013

>  <open_babel_can_smiles>
NCC(=O)CCC(=O)O

>  <mulliken_charges>
18
1   -0.376597
2   -0.376138
3   -0.238683
4   0.447616
5   0.576853
6   -0.682889
7   -0.468046
8   -0.447292
9   -0.586874
10   0.176088
11   0.199463
12   0.182864
13   0.173273
14   0.180497
15   0.177882
16   0.312732
17   0.309627
18   0.439624

>  <lowdin_charges>
18
1   -0.308291
2   -0.314417
3   -0.238678
4   0.160287
5   0.183068
6   -0.527033
7   -0.250178
8   -0.253414
9   -0.367019
10   0.169868
11   0.183302
12   0.177772
13   0.167113
14   0.168722
15   0.167602
16   0.262814
17   0.261747
18   0.356734

$$$$

