PCCDB-ID:  3171
public computational chemistry database (PCCDB) project, http://pccdb.org

 26 26  0  0  1  0  0  0  0  0999 V2000
   -1.3101   -0.0563   -0.0929 C   0  0  0  0  0  0  0  0  0  0  0  0
   -0.7372    1.2181   -0.1317 C   0  0  0  0  0  0  0  0  0  0  0  0
    0.8923   -1.0258   -0.0100 C   0  0  0  0  0  0  0  0  0  0  0  0
   -0.5017   -1.1894   -0.0413 C   0  0  0  0  0  0  0  0  0  0  0  0
    0.6455    1.3804   -0.1120 C   0  0  0  0  0  0  0  0  0  0  0  0
    1.4717    0.2374   -0.0478 C   0  0  0  0  0  0  0  0  0  0  0  0
   -0.9196   -3.3952   -1.3035 C   0  0  1  0  0  0  0  0  0  0  0  0
   -1.1073   -2.5724   -0.0036 C   0  0  1  0  0  0  0  0  0  0  0  0
   -1.6622   -4.7626   -1.2657 C   0  0  0  0  0  0  0  0  0  0  0  0
   -1.2841   -2.6027   -2.4682 N   0  0  0  0  0  0  0  0  0  0  0  0
    1.2670    2.5943   -0.1422 O   0  0  0  0  0  0  0  0  0  0  0  0
    2.8197    0.4506   -0.0180 O   0  0  0  0  0  0  0  0  0  0  0  0
   -0.4966   -3.3712    1.0392 O   0  0  0  0  0  0  0  0  0  0  0  0
   -2.2709   -5.1743   -2.2271 O   0  0  0  0  0  0  0  0  0  0  0  0
   -1.5665   -5.4826   -0.1349 O   0  0  0  0  0  0  0  0  0  0  0  0
   -2.3921   -0.1572   -0.1087 H   0  0  0  0  0  0  0  0  0  0  0  0
   -1.3737    2.1001   -0.1751 H   0  0  0  0  0  0  0  0  0  0  0  0
    1.5351   -1.9018    0.0535 H   0  0  0  0  0  0  0  0  0  0  0  0
    0.1539   -3.6239   -1.3725 H   0  0  0  0  0  0  0  0  0  0  0  0
   -2.1863   -2.4801    0.1963 H   0  0  0  0  0  0  0  0  0  0  0  0
   -2.2915   -2.4372   -2.4482 H   0  0  0  0  0  0  0  0  0  0  0  0
   -1.1510   -3.1904   -3.2904 H   0  0  0  0  0  0  0  0  0  0  0  0
    0.5900    3.2861   -0.2028 H   0  0  0  0  0  0  0  0  0  0  0  0
    3.2678   -0.4096   -0.0119 H   0  0  0  0  0  0  0  0  0  0  0  0
   -0.6207   -2.9106    1.8844 H   0  0  0  0  0  0  0  0  0  0  0  0
   -1.0951   -4.9436    0.5421 H   0  0  0  0  0  0  0  0  0  0  0  0
  1  4  2  0  0  0  0
  2  5  2  0  0  0  0
  2  1  1  0  0  0  0
  3 18  1  0  0  0  0
  4  3  1  0  0  0  0
  4  8  1  0  0  0  0
  5  6  1  0  0  0  0
  6 12  1  0  0  0  0
  6  3  2  0  0  0  0
  7 19  1  6  0  0  0
  7  9  1  0  0  0  0
  7  8  1  0  0  0  0
  8 20  1  1  0  0  0
  8 13  1  0  0  0  0
  9 15  1  0  0  0  0
 10 21  1  0  0  0  0
 10  7  1  0  0  0  0
 11  5  1  0  0  0  0
 12 24  1  0  0  0  0
 13 25  1  0  0  0  0
 14  9  2  0  0  0  0
 15 26  1  0  0  0  0
 16  1  1  0  0  0  0
 17  2  1  0  0  0  0
 22 10  1  0  0  0  0
 23 11  1  0  0  0  0
M  END
>  <HBA>
6

>  <HBD>
5

>  <TPSA>
124.01

>  <cid>
3171

>  <dipole>
4.4

>  <excitation_energy_1>
4.729

>  <excitation_energy_2>
4.926

>  <excitation_energy_3>
5.164

>  <excitation_energy_4>
5.243

>  <homo_energy>
-5.848

>  <homo_lumo_gap>
5.543

>  <logP>
0.243

>  <lumo_energy>
-0.305

>  <melting_point>
237.8

>  <molecular_refractivity>
50.71

>  <oscillator_strength_1>
0.0859

>  <oscillator_strength_2>
0.0039

>  <oscillator_strength_3>
0.0171

>  <oscillator_strength_4>
0.0097

>  <open_babel_can_smiles>
OC(=O)[C@H]([C@H](c1ccc(c(c1)O)O)O)N

>  <mulliken_charges>
26
1   -0.196855
2   -0.19842
3   -0.252593
4   0.18184
5   0.32485
6   0.329598
7   -0.099716
8   0.015072
9   0.574939
10   -0.688628
11   -0.627438
12   -0.63136
13   -0.654649
14   -0.462461
15   -0.587415
16   0.125017
17   0.123757
18   0.128486
19   0.172267
20   0.136122
21   0.298449
22   0.318758
23   0.409667
24   0.409712
25   0.411447
26   0.439554

>  <lowdin_charges>
26
1   -0.168701
2   -0.204631
3   -0.207078
4   -0.029326
5   0.083176
6   0.084301
7   -0.118496
8   -0.000409
9   0.166408
10   -0.522728
11   -0.364445
12   -0.36659
13   -0.461231
14   -0.260572
15   -0.365008
16   0.154568
17   0.157276
18   0.15928
19   0.162933
20   0.137232
21   0.254388
22   0.269657
23   0.360964
24   0.359439
25   0.358099
26   0.361492

$$$$

