PCCDB-ID:  4807
public computational chemistry database (PCCDB) project, http://pccdb.org

 16 16  0  0  0  0  0  0  0  0999 V2000
   -1.3176   -0.0203    0.0426 C   0  0  0  0  0  0  0  0  0  0  0  0
   -0.5843   -1.2051   -0.0438 C   0  0  0  0  0  0  0  0  0  0  0  0
   -0.6505    1.2028    0.0236 C   0  0  0  0  0  0  0  0  0  0  0  0
    0.8048   -1.1573   -0.1479 C   0  0  0  0  0  0  0  0  0  0  0  0
    1.3257    2.6387   -0.0878 C   0  0  0  0  0  0  0  0  0  0  0  0
    2.9828    0.0045   -0.2830 C   0  0  0  0  0  0  0  0  0  0  0  0
    0.7469    1.2693   -0.0799 C   0  0  0  0  0  0  0  0  0  0  0  0
    1.4893    0.0632   -0.1675 C   0  0  0  0  0  0  0  0  0  0  0  0
    2.5011    2.9419   -0.1588 O   0  0  0  0  0  0  0  0  0  0  0  0
    3.5817   -1.0544   -0.3524 O   0  0  0  0  0  0  0  0  0  0  0  0
   -2.4003   -0.0489    0.1244 H   0  0  0  0  0  0  0  0  0  0  0  0
   -1.0945   -2.1642   -0.0303 H   0  0  0  0  0  0  0  0  0  0  0  0
   -1.2175    2.1286    0.0907 H   0  0  0  0  0  0  0  0  0  0  0  0
    1.3952   -2.0653   -0.2166 H   0  0  0  0  0  0  0  0  0  0  0  0
    0.5521    3.4351   -0.0182 H   0  0  0  0  0  0  0  0  0  0  0  0
    3.5119    0.9678   -0.3025 H   0  0  0  0  0  0  0  0  0  0  0  0
  1 11  1  0  0  0  0
  2 12  1  0  0  0  0
  2  1  2  0  0  0  0
  3  1  1  0  0  0  0
  3 13  1  0  0  0  0
  4  2  1  0  0  0  0
  5  7  1  0  0  0  0
  5 15  1  0  0  0  0
  6  8  1  0  0  0  0
  7  3  2  0  0  0  0
  8  4  2  0  0  0  0
  8  7  1  0  0  0  0
  9  5  2  0  0  0  0
 10  6  2  0  0  0  0
 14  4  1  0  0  0  0
 16  6  1  0  0  0  0
M  END
>  <HBA>
2

>  <HBD>
0

>  <TPSA>
34.14

>  <cid>
4807

>  <dipole>
4.91

>  <excitation_energy_1>
2.939

>  <excitation_energy_2>
3.623

>  <excitation_energy_3>
4.341

>  <excitation_energy_4>
4.367

>  <homo_energy>
-6.759

>  <homo_lumo_gap>
4.234

>  <logP>
1.312

>  <lumo_energy>
-2.525

>  <melting_point>
71.86

>  <molecular_refractivity>
37.22

>  <oscillator_strength_1>
0.0

>  <oscillator_strength_2>
0.0

>  <oscillator_strength_3>
0.0599

>  <oscillator_strength_4>
0.0001

>  <open_babel_can_smiles>
O=Cc1ccccc1C=O

>  <mulliken_charges>
16
1   -0.119039
2   -0.116819
3   -0.193597
4   -0.161
5   0.199982
6   0.187071
7   0.063949
8   0.031933
9   -0.402764
10   -0.402008
11   0.150381
12   0.151986
13   0.150642
14   0.177076
15   0.114645
16   0.167564

>  <lowdin_charges>
16
1   -0.13634
2   -0.132732
3   -0.141198
4   -0.122627
5   0.044869
6   0.041479
7   -0.04502
8   -0.031966
9   -0.218968
10   -0.22322
11   0.165685
12   0.168454
13   0.16618
14   0.183019
15   0.12598
16   0.156405

$$$$

