PCCDB-ID:  2902
public computational chemistry database (PCCDB) project, http://pccdb.org

 26 26  0  0  1  0  0  0  0  0999 V2000
    0.8604   -0.1330    0.2639 C   0  0  0  0  0  0  0  0  0  0  0  0
    2.6972    1.5956    0.4332 C   0  0  0  0  0  0  0  0  0  0  0  0
    3.2119   -0.8905    0.7436 C   0  0  0  0  0  0  0  0  0  0  0  0
    6.1461   -3.0112   -0.6654 C   0  0  0  0  0  0  0  0  0  0  0  0
    2.3481    0.1591    0.0183 C   0  0  0  0  0  0  0  0  0  0  0  0
    4.7337   -0.8028    0.4530 C   0  0  1  0  0  0  0  0  0  0  0  0
    5.5773   -1.8491   -1.4547 C   0  0  0  0  0  0  0  0  0  0  0  0
    5.4918   -1.8629    1.2410 C   0  0  0  0  0  0  0  0  0  0  0  0
    6.1262   -2.8559    0.7728 N   0  0  0  0  0  0  0  0  0  0  0  0
    4.9674   -0.8453   -0.9814 N   0  0  0  0  0  0  0  0  0  0  0  0
    5.7437   -1.9065   -2.8058 O   0  0  0  0  0  0  0  0  0  0  0  0
    5.4802   -1.7203    2.5961 O   0  0  0  0  0  0  0  0  0  0  0  0
    0.2260    0.5818   -0.2730 H   0  0  0  0  0  0  0  0  0  0  0  0
    0.6117   -0.0596    1.3312 H   0  0  0  0  0  0  0  0  0  0  0  0
    0.5884   -1.1405   -0.0729 H   0  0  0  0  0  0  0  0  0  0  0  0
    2.0524    2.3144   -0.0855 H   0  0  0  0  0  0  0  0  0  0  0  0
    3.7329    1.8537    0.1874 H   0  0  0  0  0  0  0  0  0  0  0  0
    2.5531    1.7440    1.5126 H   0  0  0  0  0  0  0  0  0  0  0  0
    2.8762   -1.8963    0.4578 H   0  0  0  0  0  0  0  0  0  0  0  0
    3.0439   -0.8069    1.8284 H   0  0  0  0  0  0  0  0  0  0  0  0
    7.1874   -3.1827   -0.9826 H   0  0  0  0  0  0  0  0  0  0  0  0
    5.6017   -3.9289   -0.9419 H   0  0  0  0  0  0  0  0  0  0  0  0
    2.5498    0.0588   -1.0548 H   0  0  0  0  0  0  0  0  0  0  0  0
    5.0897    0.1775    0.8078 H   0  0  0  0  0  0  0  0  0  0  0  0
    6.2628   -2.6946   -3.0316 H   0  0  0  0  0  0  0  0  0  0  0  0
    4.9985   -0.9109    2.8272 H   0  0  0  0  0  0  0  0  0  0  0  0
  1 14  1  0  0  0  0
  2 18  1  0  0  0  0
  3 20  1  0  0  0  0
  4  9  1  0  0  0  0
  5  1  1  0  0  0  0
  5  2  1  0  0  0  0
  5  3  1  0  0  0  0
  6  3  1  0  0  0  0
  6 24  1  1  0  0  0
  6  8  1  0  0  0  0
  7 10  2  0  0  0  0
  7  4  1  0  0  0  0
  8 12  1  0  0  0  0
  9  8  2  0  0  0  0
 10  6  1  0  0  0  0
 11  7  1  0  0  0  0
 12 26  1  0  0  0  0
 13  1  1  0  0  0  0
 15  1  1  0  0  0  0
 16  2  1  0  0  0  0
 17  2  1  0  0  0  0
 19  3  1  0  0  0  0
 21  4  1  0  0  0  0
 22  4  1  0  0  0  0
 23  5  1  0  0  0  0
 25 11  1  0  0  0  0
M  END
>  <HBA>
4

>  <HBD>
2

>  <TPSA>
58.2

>  <cid>
2902

>  <dipole>
0.78

>  <excitation_energy_1>
5.376

>  <excitation_energy_2>
5.554

>  <excitation_energy_3>
5.644

>  <excitation_energy_4>
6.004

>  <homo_energy>
-6.433

>  <homo_lumo_gap>
6.776

>  <logP>
0.305

>  <lumo_energy>
0.343

>  <melting_point>
91.83

>  <molecular_refractivity>
52.29

>  <oscillator_strength_1>
0.0021

>  <oscillator_strength_2>
0.0018

>  <oscillator_strength_3>
0.0012

>  <oscillator_strength_4>
0.0008

>  <open_babel_can_smiles>
CC(C[C@@H]1N=C(O)CN=C1O)C

>  <mulliken_charges>
26
1   -0.44498
2   -0.455586
3   -0.251078
4   -0.242707
5   -0.062928
6   -0.097351
7   0.495281
8   0.521988
9   -0.43837
10   -0.429192
11   -0.58483
12   -0.592253
13   0.144164
14   0.135578
15   0.141989
16   0.146939
17   0.156055
18   0.128466
19   0.14229
20   0.114462
21   0.163011
22   0.173706
23   0.160759
24   0.14964
25   0.412082
26   0.412864

>  <lowdin_charges>
26
1   -0.442888
2   -0.44665
3   -0.274391
4   -0.236712
5   -0.120919
6   -0.098261
7   0.118416
8   0.121459
9   -0.205749
10   -0.202207
11   -0.359446
12   -0.358112
13   0.151685
14   0.141798
15   0.147803
16   0.154179
17   0.152172
18   0.137966
19   0.14879
20   0.131929
21   0.156623
22   0.162788
23   0.153763
24   0.15006
25   0.359106
26   0.356801

$$$$

