PCCDB-ID:  6210
public computational chemistry database (PCCDB) project, http://pccdb.org

 15 15  0  0  0  0  0  0  0  0999 V2000
    1.0259   -0.0653   -0.0052 C   0  0  0  0  0  0  0  0  0  0  0  0
    5.9705    1.3973    0.0188 C   0  0  0  0  0  0  0  0  0  0  0  0
    3.3560    1.1587    0.0065 C   0  0  0  0  0  0  0  0  0  0  0  0
    2.5173    0.0578   -0.0006 C   0  0  0  0  0  0  0  0  0  0  0  0
    4.6748    0.6384    0.0115 C   0  0  0  0  0  0  0  0  0  0  0  0
    3.3491   -1.0198    0.0014 N   0  0  0  0  0  0  0  0  0  0  0  0
    4.6646   -0.6962    0.0077 N   0  0  0  0  0  0  0  0  0  0  0  0
    0.5684    0.9275   -0.0086 H   0  0  0  0  0  0  0  0  0  0  0  0
    0.6559   -0.5986    0.8799 H   0  0  0  0  0  0  0  0  0  0  0  0
    0.6612   -0.6022   -0.8903 H   0  0  0  0  0  0  0  0  0  0  0  0
    5.7868    2.4759    0.0112 H   0  0  0  0  0  0  0  0  0  0  0  0
    6.5812    1.1508   -0.8572 H   0  0  0  0  0  0  0  0  0  0  0  0
    6.5659    1.1611    0.9082 H   0  0  0  0  0  0  0  0  0  0  0  0
    3.0560    2.1977    0.0064 H   0  0  0  0  0  0  0  0  0  0  0  0
    3.0915   -1.9955   -0.0058 H   0  0  0  0  0  0  0  0  0  0  0  0
  1  4  1  0  0  0  0
  1  9  1  0  0  0  0
  2 13  1  0  0  0  0
  3  5  1  0  0  0  0
  4  6  1  0  0  0  0
  4  3  2  0  0  0  0
  5  2  1  0  0  0  0
  6  7  1  0  0  0  0
  7  5  2  0  0  0  0
  8  1  1  0  0  0  0
 10  1  1  0  0  0  0
 11  2  1  0  0  0  0
 12  2  1  0  0  0  0
 14  3  1  0  0  0  0
 15  6  1  0  0  0  0
M  END
>  <HBA>
1

>  <HBD>
1

>  <TPSA>
28.68

>  <cid>
6210

>  <dipole>
2.39

>  <excitation_energy_1>
5.576

>  <excitation_energy_2>
5.863

>  <excitation_energy_3>
6.23

>  <excitation_energy_4>
6.29

>  <homo_energy>
-6.142

>  <homo_lumo_gap>
6.885

>  <logP>
1.026

>  <lumo_energy>
0.743

>  <melting_point>
74.77

>  <molecular_refractivity>
28.52

>  <oscillator_strength_1>
0.0001

>  <oscillator_strength_2>
0.0002

>  <oscillator_strength_3>
0.0021

>  <oscillator_strength_4>
0.0569

>  <open_babel_can_smiles>
Cc1[nH]nc(c1)C

>  <mulliken_charges>
15
1   -0.532475
2   -0.512695
3   -0.305897
4   0.392327
5   0.31457
6   -0.461474
7   -0.334793
8   0.174207
9   0.166199
10   0.165829
11   0.148721
12   0.16582
13   0.165683
14   0.120771
15   0.333207

>  <lowdin_charges>
15
1   -0.444732
2   -0.440288
3   -0.257324
4   0.01629
5   0.004512
6   -0.131687
7   -0.176271
8   0.171101
9   0.163179
10   0.163002
11   0.154602
12   0.164672
13   0.164451
14   0.159951
15   0.288542

$$$$

