PCCDB-ID:  5842
public computational chemistry database (PCCDB) project, http://pccdb.org

 27 27  0  0  0  0  0  0  0  0999 V2000
    1.8203   -0.1344   -2.9741 C   0  0  0  0  0  0  0  0  0  0  0  0
    3.7047    0.7092    2.2442 C   0  0  0  0  0  0  0  0  0  0  0  0
    2.6039   -1.0209   -2.3610 C   0  0  0  0  0  0  0  0  0  0  0  0
    4.7476    0.5926    1.4165 C   0  0  0  0  0  0  0  0  0  0  0  0
    3.1075   -0.8732   -0.9491 C   0  0  0  0  0  0  0  0  0  0  0  0
    5.1183   -0.6657    0.6705 C   0  0  0  0  0  0  0  0  0  0  0  0
    5.1271    0.5158   -1.6008 C   0  0  0  0  0  0  0  0  0  0  0  0
    5.3522   -1.9284   -1.4848 C   0  0  0  0  0  0  0  0  0  0  0  0
    6.7088   -0.6337   -2.8543 C   0  0  0  0  0  0  0  0  0  0  0  0
    4.6620   -0.7267   -0.8405 C   0  0  0  0  0  0  0  0  0  0  0  0
    6.0331    0.5590   -2.4934 N   0  0  0  0  0  0  0  0  0  0  0  0
    6.2580   -1.8938   -2.3756 N   0  0  0  0  0  0  0  0  0  0  0  0
    4.5161    1.6805   -1.2934 O   0  0  0  0  0  0  0  0  0  0  0  0
    4.9776   -3.1534   -1.0448 O   0  0  0  0  0  0  0  0  0  0  0  0
    7.6727   -0.5827   -3.5836 O   0  0  0  0  0  0  0  0  0  0  0  0
    1.4881   -0.2822   -3.9974 H   0  0  0  0  0  0  0  0  0  0  0  0
    1.4846    0.7755   -2.4812 H   0  0  0  0  0  0  0  0  0  0  0  0
    3.4960    1.6371    2.7696 H   0  0  0  0  0  0  0  0  0  0  0  0
    3.0343   -0.1239    2.4465 H   0  0  0  0  0  0  0  0  0  0  0  0
    2.9250   -1.9155   -2.8938 H   0  0  0  0  0  0  0  0  0  0  0  0
    5.4029    1.4500    1.2669 H   0  0  0  0  0  0  0  0  0  0  0  0
    2.7986   -1.7432   -0.3488 H   0  0  0  0  0  0  0  0  0  0  0  0
    2.6241   -0.0180   -0.4650 H   0  0  0  0  0  0  0  0  0  0  0  0
    4.6864   -1.5323    1.1862 H   0  0  0  0  0  0  0  0  0  0  0  0
    6.2070   -0.7908    0.6934 H   0  0  0  0  0  0  0  0  0  0  0  0
    3.9262    1.5590   -0.5301 H   0  0  0  0  0  0  0  0  0  0  0  0
    4.2794   -3.0765   -0.3766 H   0  0  0  0  0  0  0  0  0  0  0  0
  1 17  1  0  0  0  0
  1  3  2  0  0  0  0
  2 19  1  0  0  0  0
  2 18  1  0  0  0  0
  3  5  1  0  0  0  0
  4  2  2  0  0  0  0
  5 10  1  0  0  0  0
  5 23  1  0  0  0  0
  5 22  1  0  0  0  0
  6 25  1  0  0  0  0
  6 24  1  0  0  0  0
  6  4  1  0  0  0  0
  7 13  1  0  0  0  0
  7 10  1  0  0  0  0
  8 14  1  0  0  0  0
  8 10  1  0  0  0  0
  9 11  2  0  0  0  0
  9 12  1  0  0  0  0
 10  6  1  0  0  0  0
 11  7  2  0  0  0  0
 12  8  2  0  0  0  0
 13 26  1  0  0  0  0
 14 27  1  0  0  0  0
 15  9  2  0  0  0  0
 16  1  1  0  0  0  0
 20  3  1  0  0  0  0
 21  4  1  0  0  0  0
M  END
>  <HBA>
5

>  <HBD>
2

>  <TPSA>
75.27

>  <cid>
5842

>  <dipole>
10.14

>  <excitation_energy_1>
3.965

>  <excitation_energy_2>
4.149

>  <excitation_energy_3>
5.176

>  <excitation_energy_4>
5.293

>  <homo_energy>
-6.879

>  <homo_lumo_gap>
5.309

>  <logP>
1.149

>  <lumo_energy>
-1.57

>  <melting_point>
99.71

>  <molecular_refractivity>
61.28

>  <oscillator_strength_1>
0.0003

>  <oscillator_strength_2>
0.0001

>  <oscillator_strength_3>
0.001

>  <oscillator_strength_4>
0.0074

>  <open_babel_can_smiles>
C=CCC1(CC=C)C(=N[C](=[N]=C1O)=O)O

>  <mulliken_charges>
27
1   -0.324463
2   -0.33193
3   -0.048837
4   -0.111656
5   -0.344218
6   -0.305658
7   0.55188
8   0.547803
9   0.617429
10   -0.150333
11   -0.467039
12   -0.465776
13   -0.581057
14   -0.579669
15   -0.430398
16   0.161915
17   0.145593
18   0.166492
19   0.151428
20   0.16074
21   0.175755
22   0.138522
23   0.154565
24   0.145266
25   0.190229
26   0.417904
27   0.415515

>  <lowdin_charges>
27
1   -0.309253
2   -0.324831
3   -0.163526
4   -0.171711
5   -0.275695
6   -0.26752
7   0.148679
8   0.143162
9   0.169635
10   -0.058348
11   -0.180284
12   -0.180887
13   -0.3298
14   -0.332907
15   -0.207697
16   0.169729
17   0.15907
18   0.172045
19   0.161419
20   0.166473
21   0.171187
22   0.145975
23   0.15693
24   0.152458
25   0.173509
26   0.355678
27   0.356509

$$$$

