PCCDB-ID:  5200
public computational chemistry database (PCCDB) project, http://pccdb.org

 28 29  0  0  1  0  0  0  0  0999 V2000
    0.8759    1.3563   -0.5680 C   0  0  0  0  0  0  0  0  0  0  0  0
    5.4600    1.7481   -1.1503 C   0  0  0  0  0  0  0  0  0  0  0  0
    1.6220    0.9901   -1.8644 C   0  0  1  0  0  0  0  0  0  0  0  0
    3.9815    2.0173   -1.4047 C   0  0  0  0  0  0  0  0  0  0  0  0
    4.3055    4.2982   -1.3210 C   0  0  0  0  0  0  0  0  0  0  0  0
    3.1238    0.8436   -1.5969 C   0  0  0  0  0  0  0  0  0  0  0  0
    5.5883    4.1637   -0.7721 C   0  0  0  0  0  0  0  0  0  0  0  0
    3.8038    5.6427   -1.4624 C   0  0  0  0  0  0  0  0  0  0  0  0
    5.7356    6.6239   -0.6545 C   0  0  0  0  0  0  0  0  0  0  0  0
    6.4249    7.6624   -0.3650 N   0  0  0  0  0  0  0  0  0  0  0  0
    6.0732    2.9309   -0.5234 N   0  0  0  0  0  0  0  0  0  0  0  0
    3.4991    3.2193   -1.5290 N   0  0  0  0  0  0  0  0  0  0  0  0
    6.2649    5.2846   -0.4450 N   0  0  0  0  0  0  0  0  0  0  0  0
    4.4673    6.7189   -1.1718 N   0  0  0  0  0  0  0  0  0  0  0  0
    1.1350   -0.2214   -2.3997 O   0  0  0  0  0  0  0  0  0  0  0  0
    3.6118   -0.2877   -1.5326 O   0  0  0  0  0  0  0  0  0  0  0  0
    2.5565    5.7786   -1.9335 O   0  0  0  0  0  0  0  0  0  0  0  0
    1.1797    2.3374   -0.1901 H   0  0  0  0  0  0  0  0  0  0  0  0
    1.0649    0.6017    0.2038 H   0  0  0  0  0  0  0  0  0  0  0  0
   -0.1984    1.3699   -0.7740 H   0  0  0  0  0  0  0  0  0  0  0  0
    5.9702    1.5019   -2.0959 H   0  0  0  0  0  0  0  0  0  0  0  0
    5.5754    0.8863   -0.4892 H   0  0  0  0  0  0  0  0  0  0  0  0
    1.4650    1.7850   -2.6037 H   0  0  0  0  0  0  0  0  0  0  0  0
    7.3447    7.4192    0.0106 H   0  0  0  0  0  0  0  0  0  0  0  0
    6.9967    2.8290   -0.1242 H   0  0  0  0  0  0  0  0  0  0  0  0
    7.1929    5.2133   -0.0444 H   0  0  0  0  0  0  0  0  0  0  0  0
    1.8025   -0.8936   -2.1607 H   0  0  0  0  0  0  0  0  0  0  0  0
    2.2046    4.8759   -2.0664 H   0  0  0  0  0  0  0  0  0  0  0  0
  1 18  1  0  0  0  0
  1 19  1  0  0  0  0
  2 11  1  0  0  0  0
  2 22  1  0  0  0  0
  3 23  1  6  0  0  0
  3  6  1  0  0  0  0
  3  1  1  0  0  0  0
  4  2  1  0  0  0  0
  5  7  2  0  0  0  0
  6 16  2  0  0  0  0
  6  4  1  0  0  0  0
  7 11  1  0  0  0  0
  7 13  1  0  0  0  0
  8  5  1  0  0  0  0
  8 14  2  0  0  0  0
  9 13  1  0  0  0  0
  9 10  1  0  0  0  0
 10 24  1  0  0  0  0
 11 25  1  0  0  0  0
 12  4  2  0  0  0  0
 12  5  1  0  0  0  0
 13 26  1  0  0  0  0
 14  9  2  0  0  0  0
 15 27  1  0  0  0  0
 15  3  1  0  0  0  0
 17  8  1  0  0  0  0
 20  1  1  0  0  0  0
 21  2  1  0  0  0  0
 28 17  1  0  0  0  0
M  RAD  1  10   2
M  END
>  <HBA>
7

>  <HBD>
4

>  <TPSA>
133.46

>  <cid>
5200

>  <dipole>
7.61

>  <excitation_energy_1>
2.986

>  <excitation_energy_2>
3.447

>  <excitation_energy_3>
3.871

>  <excitation_energy_4>
3.989

>  <homo_energy>
-5.87

>  <homo_lumo_gap>
3.23

>  <logP>
-1.045

>  <lumo_energy>
-2.64

>  <melting_point>
273.09

>  <molecular_refractivity>
67.71

>  <oscillator_strength_1>
0.3802

>  <oscillator_strength_2>
0.0011

>  <oscillator_strength_3>
0.0039

>  <oscillator_strength_4>
0.0027

>  <open_babel_can_smiles>
C[C@@H](C(=O)C1=NC2=C(NC1)NC(=[N]=C2O)[NH])O

>  <mulliken_charges>
28
1   -0.456117
2   -0.167643
3   0.097427
4   0.217118
5   0.163144
6   0.375425
7   0.688319
8   0.522547
9   0.612208
10   -0.601035
11   -0.672879
12   -0.55966
13   -0.743191
14   -0.503845
15   -0.635821
16   -0.5041
17   -0.588251
18   0.149021
19   0.150005
20   0.169902
21   0.182007
22   0.197559
23   0.145822
24   0.261852
25   0.338197
26   0.327274
27   0.405051
28   0.429664

>  <lowdin_charges>
28
1   -0.452091
2   -0.197345
3   -0.021238
4   -0.020643
5   -0.125688
6   0.131491
7   0.144614
8   0.154952
9   0.133526
10   -0.401771
11   -0.244841
12   -0.111651
13   -0.2366
14   -0.191948
15   -0.462391
16   -0.268712
17   -0.324797
18   0.153913
19   0.15433
20   0.163931
21   0.157327
22   0.180139
23   0.152149
24   0.242751
25   0.291614
26   0.288594
27   0.347091
28   0.363294

$$$$

