PCCDB-ID:  3415
public computational chemistry database (PCCDB) project, http://pccdb.org

 10  9  0  0  0  0  0  0  0  0999 V2000
    1.0860    0.0980    0.0610 C   0  0  0  0  0  0  0  0  0  0  0  0
    0.5874   -0.4221   -0.9023 O   0  0  0  0  0  0  0  0  0  0  0  0
    0.3861    0.4617    1.1504 O   0  0  0  0  0  0  0  0  0  0  0  0
    3.2047    1.3724   -1.1437 O   0  0  0  0  0  0  0  0  0  0  0  0
    2.9878    1.4326    1.3625 O   0  0  0  0  0  0  0  0  0  0  0  0
    3.7824   -0.8123    0.2019 O   0  0  0  0  0  0  0  0  0  0  0  0
    2.9285    0.3923    0.1110 P   0  0  0  0  0  0  0  0  0  0  0  0
    0.9788    0.9127    1.7815 H   0  0  0  0  0  0  0  0  0  0  0  0
    3.4151    0.8647   -1.9468 H   0  0  0  0  0  0  0  0  0  0  0  0
    3.8673    1.4521    1.7790 H   0  0  0  0  0  0  0  0  0  0  0  0
  1  7  1  0  0  0  0
  1  3  1  0  0  0  0
  2  1  2  0  0  0  0
  3  8  1  0  0  0  0
  4  7  1  0  0  0  0
  5 10  1  0  0  0  0
  7  6  2  0  0  0  0
  7  5  1  0  0  0  0
  9  4  1  0  0  0  0
M  END
>  <HBA>
5

>  <HBD>
3

>  <TPSA>
104.64

>  <cid>
3415

>  <dipole>
3.77

>  <excitation_energy_1>
5.062

>  <excitation_energy_2>
6.497

>  <excitation_energy_3>
6.533

>  <excitation_energy_4>
6.73

>  <homo_energy>
-7.799

>  <homo_lumo_gap>
6.743

>  <logP>
-0.158

>  <lumo_energy>
-1.056

>  <melting_point>
150.58

>  <molecular_refractivity>
20.07

>  <oscillator_strength_1>
0.0039

>  <oscillator_strength_2>
0.0255

>  <oscillator_strength_3>
0.0102

>  <oscillator_strength_4>
0.0368

>  <open_babel_can_smiles>
OC(=O)P(=O)(O)O

>  <mulliken_charges>
10
1   0.404993
2   -0.405048
3   -0.542467
4   -0.621958
5   -0.673129
6   -0.503831
7   0.987959
8   0.442201
9   0.45647
10   0.45481

>  <lowdin_charges>
10
1   0.049829
2   -0.202327
3   -0.329491
4   -0.553545
5   -0.579352
6   -0.559545
7   1.012064
8   0.374941
9   0.395682
10   0.391743

$$$$

