PCCDB-ID:  1233
public computational chemistry database (PCCDB) project, http://pccdb.org

 17 17  0  0  1  0  0  0  0  0999 V2000
   -1.3058    0.2192    0.0165 C   0  0  0  0  0  0  0  0  0  0  0  0
   -0.5528   -0.9075    0.0831 C   0  0  0  0  0  0  0  0  0  0  0  0
   -0.3289    1.2639   -0.0460 C   0  0  0  0  0  0  0  0  0  0  0  0
   -0.8855   -2.3707    0.1579 C   0  0  1  0  0  0  0  0  0  0  0  0
   -0.1633   -3.1137    1.3300 C   0  0  0  0  0  0  0  0  0  0  0  0
   -2.3296   -2.5438    0.1840 N   0  0  0  0  0  0  0  0  0  0  0  0
    0.9096    0.8236   -0.0216 N   0  0  0  0  0  0  0  0  0  0  0  0
   -0.5336    2.5930   -0.1270 O   0  0  0  0  0  0  0  0  0  0  0  0
   -0.7561   -3.9196    2.0038 O   0  0  0  0  0  0  0  0  0  0  0  0
    1.1453   -2.8697    1.5089 O   0  0  0  0  0  0  0  0  0  0  0  0
    0.7616   -0.5815    0.0532 O   0  0  0  0  0  0  0  0  0  0  0  0
   -2.3822    0.2895   -0.0094 H   0  0  0  0  0  0  0  0  0  0  0  0
   -0.5007   -2.8372   -0.7619 H   0  0  0  0  0  0  0  0  0  0  0  0
   -2.6509   -2.4047    1.1423 H   0  0  0  0  0  0  0  0  0  0  0  0
   -2.5389   -3.5206   -0.0124 H   0  0  0  0  0  0  0  0  0  0  0  0
   -1.4869    2.7648   -0.1375 H   0  0  0  0  0  0  0  0  0  0  0  0
    1.4376   -2.1081    0.9695 H   0  0  0  0  0  0  0  0  0  0  0  0
  1  2  2  0  0  0  0
  2  4  1  0  0  0  0
  3  7  2  0  0  0  0
  3  1  1  0  0  0  0
  4 13  1  6  0  0  0
  4  6  1  0  0  0  0
  4  5  1  0  0  0  0
  5 10  1  0  0  0  0
  5  9  2  0  0  0  0
  6 14  1  0  0  0  0
  7 11  1  0  0  0  0
  8  3  1  0  0  0  0
 11  2  1  0  0  0  0
 12  1  1  0  0  0  0
 15  6  1  0  0  0  0
 16  8  1  0  0  0  0
 17 10  1  0  0  0  0
M  END
>  <HBA>
5

>  <HBD>
3

>  <TPSA>
109.32

>  <cid>
1233

>  <dipole>
4.32

>  <excitation_energy_1>
5.41

>  <excitation_energy_2>
5.658

>  <excitation_energy_3>
5.953

>  <excitation_energy_4>
5.962

>  <homo_energy>
-7.165

>  <homo_lumo_gap>
6.327

>  <logP>
-0.247

>  <lumo_energy>
-0.838

>  <melting_point>
219.84

>  <molecular_refractivity>
33.58

>  <oscillator_strength_1>
0.0329

>  <oscillator_strength_2>
0.0044

>  <oscillator_strength_3>
0.0205

>  <oscillator_strength_4>
0.0255

>  <open_babel_can_smiles>
OC(=O)[C@H](c1onc(c1)O)N

>  <mulliken_charges>
17
1   -0.298293
2   0.457034
3   0.507372
4   -0.198202
5   0.581216
6   -0.6925
7   -0.205239
8   -0.60183
9   -0.438704
10   -0.569032
11   -0.433592
12   0.172348
13   0.204558
14   0.317505
15   0.32541
16   0.425918
17   0.446032

>  <lowdin_charges>
17
1   -0.262076
2   0.094492
3   0.108014
4   -0.114708
5   0.175646
6   -0.51818
7   -0.099743
8   -0.338572
9   -0.24111
10   -0.345204
11   -0.105474
12   0.18714
13   0.18454
14   0.265914
15   0.27176
16   0.371316
17   0.366245

$$$$

