PCCDB-ID:  2111
public computational chemistry database (PCCDB) project, http://pccdb.org

 23 22  0  0  1  0  0  0  0  0999 V2000
    0.7391   -0.1358    0.3103 C   0  0  0  0  0  0  0  0  0  0  0  0
    4.4401    2.7526   -2.8832 C   0  0  0  0  0  0  0  0  0  0  0  0
    2.8233    0.4028   -1.0130 C   0  0  0  0  0  0  0  0  0  0  0  0
    4.3465    0.5746   -1.0842 C   0  0  0  0  0  0  0  0  0  0  0  0
    2.6726    1.0532    1.4008 C   0  0  0  0  0  0  0  0  0  0  0  0
    2.2707   -0.0362    0.3680 C   0  0  1  0  0  0  0  0  0  0  0  0
    2.9176   -1.3065    0.7798 N   0  0  0  0  0  0  0  0  0  0  0  0
    2.1345    2.1353    1.4527 O   0  0  0  0  0  0  0  0  0  0  0  0
    3.6968    0.7051    2.1950 O   0  0  0  0  0  0  0  0  0  0  0  0
    4.9680    1.0064   -2.7564 S   0  0  0  0  0  0  0  0  0  0  0  0
    0.2986    0.8460    0.1215 H   0  0  0  0  0  0  0  0  0  0  0  0
    0.3367   -0.5032    1.2624 H   0  0  0  0  0  0  0  0  0  0  0  0
    0.4299   -0.8253   -0.4836 H   0  0  0  0  0  0  0  0  0  0  0  0
    4.8423    3.1319   -3.8262 H   0  0  0  0  0  0  0  0  0  0  0  0
    4.8514    3.3457   -2.0608 H   0  0  0  0  0  0  0  0  0  0  0  0
    3.3517    2.8546   -2.9025 H   0  0  0  0  0  0  0  0  0  0  0  0
    2.5061   -0.3351   -1.7620 H   0  0  0  0  0  0  0  0  0  0  0  0
    2.3331    1.3474   -1.2693 H   0  0  0  0  0  0  0  0  0  0  0  0
    4.8600   -0.3587   -0.8316 H   0  0  0  0  0  0  0  0  0  0  0  0
    4.6956    1.3321   -0.3742 H   0  0  0  0  0  0  0  0  0  0  0  0
    3.1023   -1.9001   -0.0266 H   0  0  0  0  0  0  0  0  0  0  0  0
    2.2985   -1.8335    1.3947 H   0  0  0  0  0  0  0  0  0  0  0  0
    3.9143   -0.2246    1.9276 H   0  0  0  0  0  0  0  0  0  0  0  0
  1  6  1  0  0  0  0
  1 12  1  0  0  0  0
  2 10  1  0  0  0  0
  2 15  1  0  0  0  0
  3  6  1  0  0  0  0
  4  3  1  0  0  0  0
  4 19  1  0  0  0  0
  4 20  1  0  0  0  0
  5  8  2  0  0  0  0
  5  9  1  0  0  0  0
  6  7  1  0  0  0  0
  6  5  1  1  0  0  0
  7 22  1  0  0  0  0
 10  4  1  0  0  0  0
 11  1  1  0  0  0  0
 13  1  1  0  0  0  0
 14  2  1  0  0  0  0
 16  2  1  0  0  0  0
 17  3  1  0  0  0  0
 18  3  1  0  0  0  0
 21  7  1  0  0  0  0
 23  9  1  0  0  0  0
M  END
>  <HBA>
4

>  <HBD>
2

>  <TPSA>
88.62

>  <cid>
2111

>  <dipole>
3.97

>  <excitation_energy_1>
5.063

>  <excitation_energy_2>
5.272

>  <excitation_energy_3>
5.527

>  <excitation_energy_4>
5.564

>  <homo_energy>
-6.082

>  <homo_lumo_gap>
6.495

>  <logP>
1.242

>  <lumo_energy>
0.414

>  <melting_point>
124.84

>  <molecular_refractivity>
43.06

>  <oscillator_strength_1>
0.0032

>  <oscillator_strength_2>
0.0006

>  <oscillator_strength_3>
0.006

>  <oscillator_strength_4>
0.0113

>  <open_babel_can_smiles>
C[C@](C(=O)O)(CCSC)N

>  <mulliken_charges>
23
1   -0.458329
2   -0.585391
3   -0.272874
4   -0.438939
5   0.616783
6   0.098336
7   -0.785261
8   -0.475519
9   -0.588825
10   0.087964
11   0.186324
12   0.147293
13   0.144002
14   0.185732
15   0.185015
16   0.181362
17   0.150179
18   0.174013
19   0.175286
20   0.19297
21   0.322346
22   0.322686
23   0.434848

>  <lowdin_charges>
23
1   -0.448528
2   -0.545886
3   -0.282411
4   -0.388042
5   0.171819
6   0.021325
7   -0.548505
8   -0.260408
9   -0.354384
10   0.098629
11   0.174442
12   0.152615
13   0.151463
14   0.177718
15   0.167175
16   0.160101
17   0.152419
18   0.165454
19   0.16655
20   0.168697
21   0.27123
22   0.270052
23   0.358473

$$$$

