PCCDB-ID:  6334
public computational chemistry database (PCCDB) project, http://pccdb.org

 11 10  0  0  0  0  0  0  0  0999 V2000
    0.9782   -0.0935   -0.0578 C   0  0  0  0  0  0  0  0  0  0  0  0
    3.0640   -0.2100    1.4126 C   0  0  0  0  0  0  0  0  0  0  0  0
    2.5096   -0.0971   -0.0113 C   0  0  0  0  0  0  0  0  0  0  0  0
    0.6069   -0.0120   -1.0859 H   0  0  0  0  0  0  0  0  0  0  0  0
    0.5673    0.7486    0.5131 H   0  0  0  0  0  0  0  0  0  0  0  0
    0.5673   -1.0150    0.3733 H   0  0  0  0  0  0  0  0  0  0  0  0
    4.1602   -0.2107    1.4189 H   0  0  0  0  0  0  0  0  0  0  0  0
    2.7269   -1.1356    1.8957 H   0  0  0  0  0  0  0  0  0  0  0  0
    2.7274    0.6280    2.0358 H   0  0  0  0  0  0  0  0  0  0  0  0
    2.8911    0.8204   -0.4796 H   0  0  0  0  0  0  0  0  0  0  0  0
    2.8910   -0.9295   -0.6182 H   0  0  0  0  0  0  0  0  0  0  0  0
  1  3  1  0  0  0  0
  1  6  1  0  0  0  0
  1  5  1  0  0  0  0
  2  7  1  0  0  0  0
  2  8  1  0  0  0  0
  2  9  1  0  0  0  0
  3  2  1  0  0  0  0
  4  1  1  0  0  0  0
 10  3  1  0  0  0  0
 11  3  1  0  0  0  0
M  END
>  <HBA>
0

>  <HBD>
0

>  <TPSA>
0.0

>  <cid>
6334

>  <dipole>
0.06

>  <excitation_energy_1>
8.414

>  <excitation_energy_2>
8.689

>  <excitation_energy_3>
8.702

>  <excitation_energy_4>
8.947

>  <homo_energy>
-8.83

>  <homo_lumo_gap>
11.445

>  <logP>
1.416

>  <lumo_energy>
2.615

>  <melting_point>
-24.57

>  <molecular_refractivity>
16.54

>  <oscillator_strength_1>
0.001

>  <oscillator_strength_2>
0.0574

>  <oscillator_strength_3>
0.0032

>  <oscillator_strength_4>
0.0

>  <open_babel_can_smiles>
CCC

>  <mulliken_charges>
11
1   -0.434696
2   -0.43484
3   -0.240993
4   0.14104
5   0.140572
6   0.140579
7   0.141072
8   0.140588
9   0.140588
10   0.133039
11   0.133051

>  <lowdin_charges>
11
1   -0.445473
2   -0.44403
3   -0.270694
4   0.147612
5   0.146588
6   0.146091
7   0.146438
8   0.145997
9   0.146512
10   0.140216
11   0.140743

$$$$

