PCCDB-ID:  3331
public computational chemistry database (PCCDB) project, http://pccdb.org

 31 31  0  0  0  0  0  0  0  0999 V2000
   -1.6087   -1.5283    1.7591 C   0  0  0  0  0  0  0  0  0  0  0  0
   -0.4199   -1.8521    2.4149 C   0  0  0  0  0  0  0  0  0  0  0  0
   -1.5652   -0.7398    0.6089 C   0  0  0  0  0  0  0  0  0  0  0  0
    0.8045   -1.3925    1.9280 C   0  0  0  0  0  0  0  0  0  0  0  0
   -0.3401   -0.2796    0.1244 C   0  0  0  0  0  0  0  0  0  0  0  0
    2.8481    0.8748    1.2276 C   0  0  0  0  0  0  0  0  0  0  0  0
    3.1348   -1.1600   -0.2778 C   0  0  0  0  0  0  0  0  0  0  0  0
    0.8616   -0.5981    0.7716 C   0  0  0  0  0  0  0  0  0  0  0  0
    2.1791   -0.0684    0.2201 C   0  0  0  0  0  0  0  0  0  0  0  0
    4.7154    2.3173    1.2895 C   0  0  0  0  0  0  0  0  0  0  0  0
    4.4298   -2.9329    0.5892 C   0  0  0  0  0  0  0  0  0  0  0  0
    4.4533    2.6078    2.5011 N   0  0  0  0  0  0  0  0  0  0  0  0
    4.7796   -3.2572   -0.5910 N   0  0  0  0  0  0  0  0  0  0  0  0
    5.7265    2.7539    0.4898 O   0  0  0  0  0  0  0  0  0  0  0  0
    4.7620   -3.4972    1.7825 O   0  0  0  0  0  0  0  0  0  0  0  0
    3.9755    1.4754    0.5608 O   0  0  0  0  0  0  0  0  0  0  0  0
    3.6153   -1.9069    0.8561 O   0  0  0  0  0  0  0  0  0  0  0  0
   -2.5606   -1.8875    2.1413 H   0  0  0  0  0  0  0  0  0  0  0  0
   -0.4428   -2.4671    3.3110 H   0  0  0  0  0  0  0  0  0  0  0  0
   -2.4835   -0.4800    0.0885 H   0  0  0  0  0  0  0  0  0  0  0  0
    1.7210   -1.6668    2.4393 H   0  0  0  0  0  0  0  0  0  0  0  0
   -0.3162    0.3378   -0.7713 H   0  0  0  0  0  0  0  0  0  0  0  0
    3.1975    0.3470    2.1180 H   0  0  0  0  0  0  0  0  0  0  0  0
    2.1578    1.6614    1.5457 H   0  0  0  0  0  0  0  0  0  0  0  0
    3.9906   -0.7175   -0.7936 H   0  0  0  0  0  0  0  0  0  0  0  0
    2.6288   -1.8426   -0.9666 H   0  0  0  0  0  0  0  0  0  0  0  0
    1.9494    0.5308   -0.6710 H   0  0  0  0  0  0  0  0  0  0  0  0
    5.1251    3.2637    2.8987 H   0  0  0  0  0  0  0  0  0  0  0  0
    5.4025   -4.0642   -0.6052 H   0  0  0  0  0  0  0  0  0  0  0  0
    6.2707    3.3727    1.0000 H   0  0  0  0  0  0  0  0  0  0  0  0
    5.3536   -4.2455    1.6106 H   0  0  0  0  0  0  0  0  0  0  0  0
  1 18  1  0  0  0  0
  1  2  2  0  0  0  0
  2 19  1  0  0  0  0
  3  1  1  0  0  0  0
  4  2  1  0  0  0  0
  4 21  1  0  0  0  0
  5  3  2  0  0  0  0
  5  8  1  0  0  0  0
  6 24  1  0  0  0  0
  6 23  1  0  0  0  0
  7  9  1  0  0  0  0
  7 17  1  0  0  0  0
  8  4  2  0  0  0  0
  9  8  1  0  0  0  0
  9  6  1  0  0  0  0
 10 12  2  0  0  0  0
 11 17  1  0  0  0  0
 11 15  1  0  0  0  0
 12 28  1  0  0  0  0
 13 11  2  0  0  0  0
 14 30  1  0  0  0  0
 14 10  1  0  0  0  0
 16  6  1  0  0  0  0
 16 10  1  0  0  0  0
 20  3  1  0  0  0  0
 22  5  1  0  0  0  0
 25  7  1  0  0  0  0
 26  7  1  0  0  0  0
 27  9  1  0  0  0  0
 29 13  1  0  0  0  0
 31 15  1  0  0  0  0
M  END
>  <HBA>
6

>  <HBD>
2

>  <TPSA>
104.64

>  <cid>
3331

>  <dipole>
1.84

>  <excitation_energy_1>
5.325

>  <excitation_energy_2>
5.815

>  <excitation_energy_3>
5.875

>  <excitation_energy_4>
5.908

>  <homo_energy>
-6.544

>  <homo_lumo_gap>
6.602

>  <logP>
2.361

>  <lumo_energy>
0.057

>  <melting_point>
158.54

>  <molecular_refractivity>
59.4

>  <oscillator_strength_1>
0.0004

>  <oscillator_strength_2>
0.0081

>  <oscillator_strength_3>
0.0084

>  <oscillator_strength_4>
0.0034

>  <open_babel_can_smiles>
OC(=N)OCC(c1ccccc1)COC(=N)O

>  <mulliken_charges>
31
1   -0.127964
2   -0.130438
3   -0.126436
4   -0.180057
5   -0.192
6   -0.01555
7   -0.018067
8   0.155494
9   -0.243854
10   0.647445
11   0.652131
12   -0.625504
13   -0.625482
14   -0.571118
15   -0.572915
16   -0.456002
17   -0.452284
18   0.128051
19   0.13012
20   0.128462
21   0.15686
22   0.125224
23   0.181457
24   0.166083
25   0.179334
26   0.166611
27   0.152377
28   0.275645
29   0.276457
30   0.407642
31   0.408276

>  <lowdin_charges>
31
1   -0.158185
2   -0.153357
3   -0.157456
4   -0.16445
5   -0.166734
6   -0.1223
7   -0.122705
8   -0.007202
9   -0.13981
10   0.185523
11   0.186895
12   -0.467586
13   -0.464961
14   -0.366458
15   -0.366078
16   -0.180302
17   -0.179269
18   0.15706
19   0.157599
20   0.157644
21   0.169196
22   0.15398
23   0.164264
24   0.159826
25   0.165099
26   0.160744
27   0.160037
28   0.257309
29   0.256914
30   0.362604
31   0.362162

$$$$

