PCCDB-ID:  6124
public computational chemistry database (PCCDB) project, http://pccdb.org

 11 10  0  0  0  0  0  0  0  0999 V2000
    1.0387    0.0894    0.0064 C   0  0  0  0  0  0  0  0  0  0  0  0
    3.2449   -1.0260   -0.5008 C   0  0  0  0  0  0  0  0  0  0  0  0
    3.0373    1.3621    0.0533 N   0  0  0  0  0  0  0  0  0  0  0  0
    2.4765    0.1552   -0.1481 N   0  0  0  0  0  0  0  0  0  0  0  0
    4.2545    1.4154   -0.0774 O   0  0  0  0  0  0  0  0  0  0  0  0
    0.5595   -0.2314   -0.9272 H   0  0  0  0  0  0  0  0  0  0  0  0
    0.6886    1.0895    0.2700 H   0  0  0  0  0  0  0  0  0  0  0  0
    0.7627   -0.6156    0.8008 H   0  0  0  0  0  0  0  0  0  0  0  0
    2.9077   -1.4262   -1.4642 H   0  0  0  0  0  0  0  0  0  0  0  0
    3.1285   -1.8011    0.2661 H   0  0  0  0  0  0  0  0  0  0  0  0
    4.2907   -0.7237   -0.5677 H   0  0  0  0  0  0  0  0  0  0  0  0
  1  7  1  0  0  0  0
  1  8  1  0  0  0  0
  2  4  1  0  0  0  0
  2 10  1  0  0  0  0
  4  1  1  0  0  0  0
  4  3  1  0  0  0  0
  5  3  2  0  0  0  0
  6  1  1  0  0  0  0
  9  2  1  0  0  0  0
 11  2  1  0  0  0  0
M  END
>  <HBA>
3

>  <HBD>
0

>  <TPSA>
32.67

>  <cid>
6124

>  <dipole>
3.92

>  <excitation_energy_1>
3.441

>  <excitation_energy_2>
5.644

>  <excitation_energy_3>
5.86

>  <excitation_energy_4>
6.351

>  <homo_energy>
-6.101

>  <homo_lumo_gap>
5.301

>  <logP>
0.229

>  <lumo_energy>
-0.8

>  <melting_point>
-2.22

>  <molecular_refractivity>
19.36

>  <oscillator_strength_1>
0.0012

>  <oscillator_strength_2>
0.0098

>  <oscillator_strength_3>
0.181

>  <oscillator_strength_4>
0.0268

>  <open_babel_can_smiles>
O=NN(C)C

>  <mulliken_charges>
11
1   -0.307149
2   -0.336008
3   0.149574
4   -0.194856
5   -0.375888
6   0.163436
7   0.191526
8   0.163498
9   0.16712
10   0.167383
11   0.211364

>  <lowdin_charges>
11
1   -0.354043
2   -0.378306
3   0.050477
4   -0.043899
5   -0.26809
6   0.155429
7   0.176407
8   0.15588
9   0.160046
10   0.160876
11   0.185224

$$$$

