PCCDB-ID:  3417
public computational chemistry database (PCCDB) project, http://pccdb.org

 15 15  0  0  1  0  0  0  0  0999 V2000
    0.9688   -0.3109   -0.2372 C   0  0  0  0  0  0  0  0  0  0  0  0
    2.3658    0.1088    0.1380 C   0  0  2  0  0  0  0  0  0  0  0  0
    3.2824    0.7194   -0.8450 C   0  0  2  0  0  0  0  0  0  0  0  0
    5.9411    1.3525   -1.0959 O   0  0  0  0  0  0  0  0  0  0  0  0
    4.1980    3.1730   -1.0224 O   0  0  0  0  0  0  0  0  0  0  0  0
    4.8159    1.8632    1.2032 O   0  0  0  0  0  0  0  0  0  0  0  0
    3.4415   -0.6496   -0.4399 O   0  0  0  0  0  0  0  0  0  0  0  0
    4.6156    1.8037   -0.2656 P   0  0  0  0  0  0  0  0  0  0  0  0
    0.2536    0.4865   -0.0043 H   0  0  0  0  0  0  0  0  0  0  0  0
    0.6759   -1.2037    0.3266 H   0  0  0  0  0  0  0  0  0  0  0  0
    0.9040   -0.5423   -1.3048 H   0  0  0  0  0  0  0  0  0  0  0  0
    2.5357    0.3613    1.1848 H   0  0  0  0  0  0  0  0  0  0  0  0
    2.9468    0.8696   -1.8725 H   0  0  0  0  0  0  0  0  0  0  0  0
    6.5112    0.8035   -0.5313 H   0  0  0  0  0  0  0  0  0  0  0  0
    4.6965    3.9335   -0.6782 H   0  0  0  0  0  0  0  0  0  0  0  0
  1  9  1  0  0  0  0
  1  2  1  0  0  0  0
  1 10  1  0  0  0  0
  2 12  1  1  0  0  0
  3 13  1  6  0  0  0
  3  7  1  0  0  0  0
  3  8  1  0  0  0  0
  3  2  1  0  0  0  0
  4 14  1  0  0  0  0
  4  8  1  0  0  0  0
  5 15  1  0  0  0  0
  5  8  1  0  0  0  0
  7  2  1  0  0  0  0
  8  6  2  0  0  0  0
 11  1  1  0  0  0  0
M  END
>  <HBA>
4

>  <HBD>
2

>  <TPSA>
79.87

>  <cid>
3417

>  <dipole>
1.6

>  <excitation_energy_1>
6.56

>  <excitation_energy_2>
6.759

>  <excitation_energy_3>
7.053

>  <excitation_energy_4>
7.283

>  <homo_energy>
-7.434

>  <homo_lumo_gap>
8.441

>  <logP>
-0.091

>  <lumo_energy>
1.007

>  <melting_point>
75.39

>  <molecular_refractivity>
26.49

>  <oscillator_strength_1>
0.0312

>  <oscillator_strength_2>
0.0058

>  <oscillator_strength_3>
0.0311

>  <oscillator_strength_4>
0.0204

>  <open_babel_can_smiles>
C[C@H]1O[C@@H]1P(=O)(O)O

>  <mulliken_charges>
15
1   -0.470129
2   0.090236
3   -0.121565
4   -0.639228
5   -0.642246
6   -0.54886
7   -0.441858
8   1.024369
9   0.161944
10   0.169089
11   0.162314
12   0.183189
13   0.185717
14   0.443306
15   0.443722

>  <lowdin_charges>
15
1   -0.445397
2   -0.003863
3   -0.194031
4   -0.57214
5   -0.566947
6   -0.59269
7   -0.271419
8   1.033123
9   0.164997
10   0.16601
11   0.161452
12   0.168679
13   0.177761
14   0.388318
15   0.386148

$$$$

