PCCDB-ID:  2383
public computational chemistry database (PCCDB) project, http://pccdb.org

 24 23  0  0  0  0  0  0  0  0999 V2000
    0.6922   -0.5147    0.1914 C   0  0  0  0  0  0  0  0  0  0  0  0
    7.1349   -4.0378    4.5594 C   0  0  0  0  0  0  0  0  0  0  0  0
    4.2350   -1.0107    1.0247 C   0  0  0  0  0  0  0  0  0  0  0  0
    6.3855   -1.4179    2.1008 C   0  0  0  0  0  0  0  0  0  0  0  0
    2.7295   -0.9989    1.2632 C   0  0  0  0  0  0  0  0  0  0  0  0
    7.0349   -2.0220    3.3351 C   0  0  0  0  0  0  0  0  0  0  0  0
    4.9328   -1.4561    2.2255 N   0  0  0  0  0  0  0  0  0  0  0  0
    2.0957   -0.5735    0.0724 O   0  0  0  0  0  0  0  0  0  0  0  0
    6.6588   -3.3892    3.4002 O   0  0  0  0  0  0  0  0  0  0  0  0
    0.2990   -0.1759   -0.7710 H   0  0  0  0  0  0  0  0  0  0  0  0
    0.3767    0.1932    0.9754 H   0  0  0  0  0  0  0  0  0  0  0  0
    0.2595   -1.5015    0.4260 H   0  0  0  0  0  0  0  0  0  0  0  0
    6.7901   -5.0744    4.5160 H   0  0  0  0  0  0  0  0  0  0  0  0
    6.7469   -3.5688    5.4779 H   0  0  0  0  0  0  0  0  0  0  0  0
    8.2360   -4.0300    4.6066 H   0  0  0  0  0  0  0  0  0  0  0  0
    4.5582    0.0113    0.7902 H   0  0  0  0  0  0  0  0  0  0  0  0
    4.4512   -1.6245    0.1304 H   0  0  0  0  0  0  0  0  0  0  0  0
    6.7600   -1.9531    1.2071 H   0  0  0  0  0  0  0  0  0  0  0  0
    6.7074   -0.3721    2.0079 H   0  0  0  0  0  0  0  0  0  0  0  0
    2.4908   -0.3256    2.1024 H   0  0  0  0  0  0  0  0  0  0  0  0
    2.3795   -2.0092    1.5455 H   0  0  0  0  0  0  0  0  0  0  0  0
    6.6924   -1.4886    4.2366 H   0  0  0  0  0  0  0  0  0  0  0  0
    8.1323   -1.9276    3.2754 H   0  0  0  0  0  0  0  0  0  0  0  0
    4.6732   -2.4199    2.4329 H   0  0  0  0  0  0  0  0  0  0  0  0
  1 12  1  0  0  0  0
  1 11  1  0  0  0  0
  2 15  1  0  0  0  0
  2 14  1  0  0  0  0
  3  5  1  0  0  0  0
  3  7  1  0  0  0  0
  4  7  1  0  0  0  0
  4  6  1  0  0  0  0
  5 21  1  0  0  0  0
  5 20  1  0  0  0  0
  6  9  1  0  0  0  0
  6 22  1  0  0  0  0
  7 24  1  0  0  0  0
  8  1  1  0  0  0  0
  8  5  1  0  0  0  0
  9  2  1  0  0  0  0
 10  1  1  0  0  0  0
 13  2  1  0  0  0  0
 16  3  1  0  0  0  0
 17  3  1  0  0  0  0
 18  4  1  0  0  0  0
 19  4  1  0  0  0  0
 23  6  1  0  0  0  0
M  END
>  <HBA>
3

>  <HBD>
1

>  <TPSA>
30.49

>  <cid>
2383

>  <dipole>
1.46

>  <excitation_energy_1>
5.721

>  <excitation_energy_2>
5.901

>  <excitation_energy_3>
6.068

>  <excitation_energy_4>
6.164

>  <homo_energy>
-5.91

>  <homo_lumo_gap>
8.319

>  <logP>
0.26

>  <lumo_energy>
2.408

>  <melting_point>
-17.28

>  <molecular_refractivity>
35.93

>  <oscillator_strength_1>
0.0008

>  <oscillator_strength_2>
0.0144

>  <oscillator_strength_3>
0.0223

>  <oscillator_strength_4>
0.0194

>  <open_babel_can_smiles>
COCCNCCOC

>  <mulliken_charges>
24
1   -0.188577
2   -0.189984
3   -0.129911
4   -0.121513
5   -0.012145
6   -0.022548
7   -0.571803
8   -0.464503
9   -0.468344
10   0.156358
11   0.128981
12   0.127697
13   0.157753
14   0.133058
15   0.130572
16   0.146964
17   0.126091
18   0.123446
19   0.138915
20   0.130454
21   0.110208
22   0.131109
23   0.119497
24   0.308227

>  <lowdin_charges>
24
1   -0.278222
2   -0.275556
3   -0.205656
4   -0.204089
5   -0.133042
6   -0.131206
7   -0.364499
8   -0.271647
9   -0.278482
10   0.154065
11   0.131836
12   0.129966
13   0.153532
14   0.133512
15   0.129609
16   0.145548
17   0.125185
18   0.125389
19   0.144935
20   0.132454
21   0.119863
22   0.133916
23   0.127034
24   0.255556

$$$$

