PCCDB-ID:  5896
public computational chemistry database (PCCDB) project, http://pccdb.org

 31 33  0  0  0  0  0  0  0  0999 V2000
    0.9193   -0.3132   -0.5027 C   0  0  0  0  0  0  0  0  0  0  0  0
   11.3628    1.7149   -2.0407 C   0  0  0  0  0  0  0  0  0  0  0  0
   11.2740    0.5093   -1.3364 C   0  0  0  0  0  0  0  0  0  0  0  0
   10.2044    2.3855   -2.4509 C   0  0  0  0  0  0  0  0  0  0  0  0
   10.0303   -0.0471   -1.0300 C   0  0  0  0  0  0  0  0  0  0  0  0
    5.4332   -0.8684   -0.6189 C   0  0  0  0  0  0  0  0  0  0  0  0
    6.8241   -0.7904   -0.6394 C   0  0  0  0  0  0  0  0  0  0  0  0
    7.5749    2.3535   -2.4716 C   0  0  0  0  0  0  0  0  0  0  0  0
    5.2895    1.2348   -1.8480 C   0  0  0  0  0  0  0  0  0  0  0  0
    2.4045   -0.5649   -0.3192 C   0  0  0  0  0  0  0  0  0  0  0  0
    8.9639    1.8364   -2.1493 C   0  0  0  0  0  0  0  0  0  0  0  0
    6.6754    1.2933   -1.8665 C   0  0  0  0  0  0  0  0  0  0  0  0
    4.6612    0.1463   -1.2172 C   0  0  0  0  0  0  0  0  0  0  0  0
    8.8735    0.6202   -1.4390 C   0  0  0  0  0  0  0  0  0  0  0  0
    7.4548    0.2868   -1.2644 C   0  0  0  0  0  0  0  0  0  0  0  0
    3.2392    0.0691   -1.2360 N   0  0  0  0  0  0  0  0  0  0  0  0
    2.8495   -1.2920    0.5550 O   0  0  0  0  0  0  0  0  0  0  0  0
    2.6021    0.9887   -2.0879 O   0  0  0  0  0  0  0  0  0  0  0  0
    0.5764   -0.6397   -1.4904 H   0  0  0  0  0  0  0  0  0  0  0  0
    0.6780    0.7496   -0.4116 H   0  0  0  0  0  0  0  0  0  0  0  0
    0.3985   -0.8820    0.2687 H   0  0  0  0  0  0  0  0  0  0  0  0
   12.3384    2.1345   -2.2709 H   0  0  0  0  0  0  0  0  0  0  0  0
   12.1823    0.0004   -1.0242 H   0  0  0  0  0  0  0  0  0  0  0  0
   10.2800    3.3229   -2.9973 H   0  0  0  0  0  0  0  0  0  0  0  0
    9.9685   -0.9836   -0.4815 H   0  0  0  0  0  0  0  0  0  0  0  0
    4.9380   -1.6938   -0.1295 H   0  0  0  0  0  0  0  0  0  0  0  0
    7.4041   -1.5801   -0.1688 H   0  0  0  0  0  0  0  0  0  0  0  0
    7.4163    2.4601   -3.5540 H   0  0  0  0  0  0  0  0  0  0  0  0
    7.3935    3.3451   -2.0340 H   0  0  0  0  0  0  0  0  0  0  0  0
    4.6890    2.0156   -2.2994 H   0  0  0  0  0  0  0  0  0  0  0  0
    2.6278    0.5681   -2.9680 H   0  0  0  0  0  0  0  0  0  0  0  0
  1 20  1  0  0  0  0
  1 10  1  0  0  0  0
  1 21  1  0  0  0  0
  2  3  2  0  0  0  0
  3  5  1  0  0  0  0
  3 23  1  0  0  0  0
  4 11  2  0  0  0  0
  4  2  1  0  0  0  0
  5 25  1  0  0  0  0
  6 26  1  0  0  0  0
  7  6  1  0  0  0  0
  7 27  1  0  0  0  0
  8 11  1  0  0  0  0
  8 29  1  0  0  0  0
  8 12  1  0  0  0  0
  9 13  1  0  0  0  0
 10 17  2  0  0  0  0
 11 14  1  0  0  0  0
 12  9  2  0  0  0  0
 12 15  1  0  0  0  0
 13  6  2  0  0  0  0
 14 15  1  0  0  0  0
 14  5  2  0  0  0  0
 15  7  2  0  0  0  0
 16 13  1  0  0  0  0
 16 10  1  0  0  0  0
 18 16  1  0  0  0  0
 19  1  1  0  0  0  0
 22  2  1  0  0  0  0
 24  4  1  0  0  0  0
 28  8  1  0  0  0  0
 30  9  1  0  0  0  0
 31 18  1  0  0  0  0
M  END
>  <HBA>
3

>  <HBD>
1

>  <TPSA>
40.54

>  <cid>
5896

>  <dipole>
3.52

>  <excitation_energy_1>
4.18

>  <excitation_energy_2>
4.316

>  <excitation_energy_3>
4.65

>  <excitation_energy_4>
4.732

>  <homo_energy>
-5.467

>  <homo_lumo_gap>
4.623

>  <logP>
3.0

>  <lumo_energy>
-0.844

>  <melting_point>
159.15

>  <molecular_refractivity>
70.03

>  <oscillator_strength_1>
0.6565

>  <oscillator_strength_2>
0.0788

>  <oscillator_strength_3>
0.0233

>  <oscillator_strength_4>
0.0034

>  <open_babel_can_smiles>
CC(=O)N(c1ccc2c(c1)Cc1c2cccc1)O

>  <mulliken_charges>
31
1   -0.513078
2   -0.129673
3   -0.138032
4   -0.204066
5   -0.191916
6   -0.174217
7   -0.210348
8   -0.420114
9   -0.263217
10   0.567269
11   0.105713
12   0.109261
13   0.310615
14   0.08756
15   0.096636
16   -0.309696
17   -0.480645
18   -0.499243
19   0.161032
20   0.186433
21   0.181855
22   0.126356
23   0.127672
24   0.123765
25   0.129546
26   0.178436
27   0.134386
28   0.169747
29   0.174196
30   0.143832
31   0.419934

>  <lowdin_charges>
31
1   -0.465111
2   -0.160073
3   -0.157156
4   -0.162941
5   -0.161887
6   -0.174284
7   -0.155698
8   -0.272468
9   -0.195845
10   0.166001
11   -0.006418
12   0.00108
13   0.04467
14   -0.011417
15   -0.019672
16   0.012891
17   -0.281085
18   -0.356909
19   0.166368
20   0.176761
21   0.176669
22   0.156781
23   0.157743
24   0.155424
25   0.157234
26   0.186532
27   0.161692
28   0.165808
29   0.169213
30   0.168797
31   0.357301

$$$$

