PCCDB-ID:  5810
public computational chemistry database (PCCDB) project, http://pccdb.org

 18 18  0  0  1  0  0  0  0  0999 V2000
   -0.2901   -1.4071    0.3658 C   0  0  0  0  0  0  0  0  0  0  0  0
    1.1478    0.4804    0.0512 C   0  0  0  0  0  0  0  0  0  0  0  0
    1.1105   -1.0356   -0.1579 C   0  0  2  0  0  0  0  0  0  0  0  0
   -1.1302   -0.1140    0.1482 C   0  0  1  0  0  0  0  0  0  0  0  0
   -1.8350    0.3477    1.4395 C   0  0  0  0  0  0  0  0  0  0  0  0
   -0.2044    0.9493   -0.3217 N   0  0  0  0  0  0  0  0  0  0  0  0
    1.2257   -1.2357   -1.5688 O   0  0  0  0  0  0  0  0  0  0  0  0
   -2.4456   -0.4066    2.1605 O   0  0  0  0  0  0  0  0  0  0  0  0
   -1.7211    1.6642    1.6687 O   0  0  0  0  0  0  0  0  0  0  0  0
   -0.2649   -1.6721    1.4271 H   0  0  0  0  0  0  0  0  0  0  0  0
   -1.9201   -0.2642   -0.5947 H   0  0  0  0  0  0  0  0  0  0  0  0
    1.9110    0.9726   -0.5558 H   0  0  0  0  0  0  0  0  0  0  0  0
    1.3312    0.7135    1.1071 H   0  0  0  0  0  0  0  0  0  0  0  0
    1.9147   -1.5581    0.3793 H   0  0  0  0  0  0  0  0  0  0  0  0
   -0.7052   -2.2662   -0.1705 H   0  0  0  0  0  0  0  0  0  0  0  0
   -0.2474    1.0004   -1.3372 H   0  0  0  0  0  0  0  0  0  0  0  0
    1.0921   -2.1790   -1.7490 H   0  0  0  0  0  0  0  0  0  0  0  0
   -1.1317    1.9918    0.9403 H   0  0  0  0  0  0  0  0  0  0  0  0
  1 10  1  0  0  0  0
  2 13  1  0  0  0  0
  3  2  1  0  0  0  0
  3  1  1  0  0  0  0
  3 14  1  1  0  0  0
  4 11  1  6  0  0  0
  4  1  1  0  0  0  0
  4  5  1  0  0  0  0
  5  9  1  0  0  0  0
  5  8  2  0  0  0  0
  6  2  1  0  0  0  0
  6  4  1  0  0  0  0
  7  3  1  0  0  0  0
 12  2  1  0  0  0  0
 15  1  1  0  0  0  0
 16  6  1  0  0  0  0
 17  7  1  0  0  0  0
 18  9  1  0  0  0  0
M  END
>  <HBA>
4

>  <HBD>
3

>  <TPSA>
69.56

>  <cid>
5810

>  <dipole>
4.79

>  <excitation_energy_1>
5.455

>  <excitation_energy_2>
6.094

>  <excitation_energy_3>
6.518

>  <excitation_energy_4>
6.622

>  <homo_energy>
-6.8

>  <homo_lumo_gap>
7.214

>  <logP>
-0.877

>  <lumo_energy>
0.414

>  <melting_point>
119.64

>  <molecular_refractivity>
33.69

>  <oscillator_strength_1>
0.002

>  <oscillator_strength_2>
0.0065

>  <oscillator_strength_3>
0.0027

>  <oscillator_strength_4>
0.0072

>  <open_babel_can_smiles>
O[C@H]1CN[C@@H](C1)C(=O)O

>  <mulliken_charges>
18
1   -0.303501
2   -0.160959
3   0.115412
4   -0.085868
5   0.596276
6   -0.60023
7   -0.633895
8   -0.465205
9   -0.578815
10   0.176589
11   0.17797
12   0.17056
13   0.158831
14   0.130371
15   0.14693
16   0.329904
17   0.394769
18   0.430863

>  <lowdin_charges>
18
1   -0.301409
2   -0.215065
3   -0.018594
4   -0.112186
5   0.174706
6   -0.359061
7   -0.470797
8   -0.261443
9   -0.358239
10   0.167051
11   0.171938
12   0.165762
13   0.150619
14   0.137414
15   0.156444
16   0.269866
17   0.343872
18   0.35912

$$$$

