PCCDB-ID:  1108
public computational chemistry database (PCCDB) project, http://pccdb.org

 45 48  0  0  1  0  0  0  0  0999 V2000
   -3.0127    3.3207   -0.0068 C   0  0  0  0  0  0  0  0  0  0  0  0
   -3.6072    1.9473   -0.3418 C   0  0  0  0  0  0  0  0  0  0  0  0
    3.1464   -2.4241   -1.1511 C   0  0  0  0  0  0  0  0  0  0  0  0
   -1.5360    3.3883   -0.4140 C   0  0  0  0  0  0  0  0  0  0  0  0
    1.7532   -3.0810   -0.9610 C   0  0  0  0  0  0  0  0  0  0  0  0
   -2.7824    0.8035    0.2687 C   0  0  0  0  0  0  0  0  0  0  0  0
    3.3144   -1.4251    0.0315 C   0  0  0  0  0  0  0  0  0  0  0  0
    0.7712    2.3477   -0.1842 C   0  0  0  0  0  0  0  0  0  0  0  0
   -0.1739   -2.8052    0.7774 C   0  0  0  0  0  0  0  0  0  0  0  0
    1.5988    1.2198    0.4372 C   0  0  0  0  0  0  0  0  0  0  0  0
   -0.9896   -1.6831    0.1217 C   0  0  0  0  0  0  0  0  0  0  0  0
   -0.7074    2.2523    0.2104 C   0  0  2  0  0  0  0  0  0  0  0  0
    1.3253   -2.7112    0.4758 C   0  0  2  0  0  0  0  0  0  0  0  0
   -1.2942    0.8616   -0.1376 C   0  0  1  0  0  0  0  0  0  0  0  0
    1.9177   -1.2960    0.6879 C   0  0  2  0  0  0  0  0  0  0  0  0
   -0.4466   -0.2859    0.4780 C   0  0  2  0  0  0  0  0  0  0  0  0
    1.0476   -0.1698    0.0718 C   0  0  1  0  0  0  0  0  0  0  0  0
   -3.0995    3.5001    1.0752 H   0  0  0  0  0  0  0  0  0  0  0  0
   -3.5835    4.1171   -0.5017 H   0  0  0  0  0  0  0  0  0  0  0  0
   -3.6373    1.8249   -1.4349 H   0  0  0  0  0  0  0  0  0  0  0  0
   -4.6467    1.8842    0.0056 H   0  0  0  0  0  0  0  0  0  0  0  0
    3.2140   -1.9158   -2.1191 H   0  0  0  0  0  0  0  0  0  0  0  0
    3.9451   -3.1738   -1.1406 H   0  0  0  0  0  0  0  0  0  0  0  0
   -1.1046    4.3573   -0.1275 H   0  0  0  0  0  0  0  0  0  0  0  0
   -1.4576    3.3271   -1.5105 H   0  0  0  0  0  0  0  0  0  0  0  0
    1.7730   -4.1663   -1.1121 H   0  0  0  0  0  0  0  0  0  0  0  0
    1.0392   -2.6778   -1.6890 H   0  0  0  0  0  0  0  0  0  0  0  0
   -3.2262   -0.1524   -0.0302 H   0  0  0  0  0  0  0  0  0  0  0  0
   -2.8534    0.8496    1.3668 H   0  0  0  0  0  0  0  0  0  0  0  0
    3.7247   -0.4648   -0.2964 H   0  0  0  0  0  0  0  0  0  0  0  0
    4.0222   -1.8290    0.7656 H   0  0  0  0  0  0  0  0  0  0  0  0
    0.8559    2.3032   -1.2810 H   0  0  0  0  0  0  0  0  0  0  0  0
    1.1735    3.3250    0.1168 H   0  0  0  0  0  0  0  0  0  0  0  0
   -0.5619   -3.7855    0.4685 H   0  0  0  0  0  0  0  0  0  0  0  0
   -0.3189   -2.7487    1.8662 H   0  0  0  0  0  0  0  0  0  0  0  0
    1.5936    1.3257    1.5331 H   0  0  0  0  0  0  0  0  0  0  0  0
    2.6459    1.3120    0.1252 H   0  0  0  0  0  0  0  0  0  0  0  0
   -2.0330   -1.7823    0.4390 H   0  0  0  0  0  0  0  0  0  0  0  0
   -0.9896   -1.7994   -0.9722 H   0  0  0  0  0  0  0  0  0  0  0  0
   -0.7670    2.3627    1.3073 H   0  0  0  0  0  0  0  0  0  0  0  0
    1.8572   -3.3912    1.1585 H   0  0  0  0  0  0  0  0  0  0  0  0
   -1.2450    0.7517   -1.2356 H   0  0  0  0  0  0  0  0  0  0  0  0
    2.0127   -1.0855    1.7633 H   0  0  0  0  0  0  0  0  0  0  0  0
   -0.4979   -0.1801    1.5764 H   0  0  0  0  0  0  0  0  0  0  0  0
    1.0890   -0.2638   -1.0267 H   0  0  0  0  0  0  0  0  0  0  0  0
  1 18  1  0  0  0  0
  2  1  1  0  0  0  0
  2 21  1  0  0  0  0
  2  6  1  0  0  0  0
  3 23  1  0  0  0  0
  3  5  1  0  0  0  0
  3  7  1  0  0  0  0
  4 24  1  0  0  0  0
  4  1  1  0  0  0  0
  4 12  1  0  0  0  0
  5 13  1  0  0  0  0
  6 29  1  0  0  0  0
  7 15  1  0  0  0  0
  7 31  1  0  0  0  0
  8 33  1  0  0  0  0
  8 12  1  0  0  0  0
  8 10  1  0  0  0  0
  9 35  1  0  0  0  0
 10 36  1  0  0  0  0
 11 38  1  0  0  0  0
 11 16  1  0  0  0  0
 11  9  1  0  0  0  0
 12 40  1  1  0  0  0
 13 15  1  0  0  0  0
 13  9  1  0  0  0  0
 13 41  1  1  0  0  0
 14 42  1  6  0  0  0
 14 12  1  0  0  0  0
 14  6  1  0  0  0  0
 14 16  1  0  0  0  0
 15 43  1  1  0  0  0
 16 44  1  1  0  0  0
 17 45  1  6  0  0  0
 17 10  1  0  0  0  0
 17 16  1  0  0  0  0
 17 15  1  0  0  0  0
 19  1  1  0  0  0  0
 20  2  1  0  0  0  0
 22  3  1  0  0  0  0
 25  4  1  0  0  0  0
 26  5  1  0  0  0  0
 27  5  1  0  0  0  0
 28  6  1  0  0  0  0
 30  7  1  0  0  0  0
 32  8  1  0  0  0  0
 34  9  1  0  0  0  0
 37 10  1  0  0  0  0
 39 11  1  0  0  0  0
M  END
>  <HBA>
0

>  <HBD>
0

>  <TPSA>
0.0

>  <cid>
1108

>  <dipole>
0.09

>  <excitation_energy_1>
6.682

>  <excitation_energy_2>
6.728

>  <excitation_energy_3>
6.791

>  <excitation_energy_4>
6.819

>  <homo_energy>
-7.143

>  <homo_lumo_gap>
9.304

>  <logP>
5.029

>  <lumo_energy>
2.161

>  <melting_point>
56.44

>  <molecular_refractivity>
75.38

>  <oscillator_strength_1>
0.0004

>  <oscillator_strength_2>
0.0046

>  <oscillator_strength_3>
0.0022

>  <oscillator_strength_4>
0.0011

>  <open_babel_can_smiles>
C1CC[C@H]2[C@H](C1)CC[C@@H]1[C@@H]2CC[C@@H]2[C@H]1CCC2

>  <mulliken_charges>
45
1   -0.257464
2   -0.259832
3   -0.273678
4   -0.259461
5   -0.279482
6   -0.270162
7   -0.279606
8   -0.263722
9   -0.267406
10   -0.270614
11   -0.275553
12   -0.080125
13   -0.084603
14   -0.079319
15   -0.097216
16   -0.084332
17   -0.088061
18   0.12583
19   0.127509
20   0.126249
21   0.127693
22   0.134218
23   0.134434
24   0.125027
25   0.122609
26   0.130603
27   0.135455
28   0.133643
29   0.122501
30   0.134542
31   0.131832
32   0.122388
33   0.124338
34   0.126244
35   0.124765
36   0.122661
37   0.13019
38   0.133664
39   0.125977
40   0.108194
41   0.114135
42   0.103804
43   0.10945
44   0.103495
45   0.109186

>  <lowdin_charges>
45
1   -0.277347
2   -0.273805
3   -0.28758
4   -0.274565
5   -0.288336
6   -0.277948
7   -0.286842
8   -0.273757
9   -0.274808
10   -0.273621
11   -0.277436
12   -0.128426
13   -0.133368
14   -0.128681
15   -0.133087
16   -0.127498
17   -0.130412
18   0.134706
19   0.143204
20   0.134643
21   0.14096
22   0.142681
23   0.144651
24   0.140603
25   0.13357
26   0.141434
27   0.140807
28   0.144011
29   0.133581
30   0.14349
31   0.143864
32   0.133523
33   0.140338
34   0.141561
35   0.137028
36   0.133345
37   0.140928
38   0.143707
39   0.1342
40   0.12769
41   0.137639
42   0.126827
43   0.132534
44   0.126838
45   0.129153

$$$$

