PCCDB-ID:  281
public computational chemistry database (PCCDB) project, http://pccdb.org

  2  1  0  0  0  0  0  0  0  0999 V2000
    0.9527   -0.0249   -0.0906 C   0  0  0  0  0  0  0  0  0  0  0  0
    2.0907   -0.0249   -0.0906 O   0  0  0  0  0  0  0  0  0  0  0  0
  1  2  2  0  0  0  0
M  RAD  1   1   3
M  END
>  <HBA>
1

>  <HBD>
0

>  <TPSA>
0.0

>  <cid>
281

>  <dipole>
0.06

>  <excitation_energy_1>
8.35

>  <excitation_energy_2>
8.35

>  <excitation_energy_3>
9.56

>  <excitation_energy_4>
9.895

>  <homo_energy>
-10.109

>  <homo_lumo_gap>
9.516

>  <logP>
-0.208

>  <lumo_energy>
-0.593

>  <melting_point>
34.22

>  <molecular_refractivity>
4.07

>  <oscillator_strength_1>
0.09

>  <oscillator_strength_2>
0.09

>  <oscillator_strength_3>
0.0

>  <oscillator_strength_4>
0.0

>  <open_babel_can_smiles>
[C]=O

>  <mulliken_charges>
2
1   0.17441
2   -0.17441

>  <lowdin_charges>
2
1   0.012661
2   -0.012661

$$$$

