PCCDB-ID:  2859
public computational chemistry database (PCCDB) project, http://pccdb.org

 21 22  0  0  1  0  0  0  0  0999 V2000
   -1.5687    0.7405    0.0681 C   0  0  2  0  0  0  0  0  0  0  0  0
   -0.3540    1.5865   -0.3760 C   0  0  2  0  0  0  0  0  0  0  0  0
   -1.3652   -0.7671   -0.2223 C   0  0  2  0  0  0  0  0  0  0  0  0
    0.9198    1.1559    0.3811 C   0  0  2  0  0  0  0  0  0  0  0  0
    0.0272   -1.2780    0.1306 C   0  0  2  0  0  0  0  0  0  0  0  0
    1.1463   -0.3416    0.3708 C   0  0  1  0  0  0  0  0  0  0  0  0
   -2.7751    1.1675   -0.5213 O   0  0  0  0  0  0  0  0  0  0  0  0
   -0.5604    2.9706   -0.1889 O   0  0  0  0  0  0  0  0  0  0  0  0
   -1.6417   -1.0310   -1.6001 O   0  0  0  0  0  0  0  0  0  0  0  0
    0.8800    1.6328    1.7359 O   0  0  0  0  0  0  0  0  0  0  0  0
    1.0045   -1.0002   -0.8961 O   0  0  0  0  0  0  0  0  0  0  0  0
   -1.6986    0.8707    1.1535 H   0  0  0  0  0  0  0  0  0  0  0  0
   -0.1994    1.4413   -1.4512 H   0  0  0  0  0  0  0  0  0  0  0  0
   -2.1177   -1.3267    0.3427 H   0  0  0  0  0  0  0  0  0  0  0  0
    1.7824    1.6658   -0.0599 H   0  0  0  0  0  0  0  0  0  0  0  0
    0.0955   -2.2911    0.5263 H   0  0  0  0  0  0  0  0  0  0  0  0
    1.9981   -0.6829    0.9611 H   0  0  0  0  0  0  0  0  0  0  0  0
   -2.8059    0.7212   -1.3876 H   0  0  0  0  0  0  0  0  0  0  0  0
   -0.3593    3.1435    0.7482 H   0  0  0  0  0  0  0  0  0  0  0  0
   -0.7965   -0.9193   -2.0714 H   0  0  0  0  0  0  0  0  0  0  0  0
    0.2471    1.0877    2.2318 H   0  0  0  0  0  0  0  0  0  0  0  0
  1 12  1  1  0  0  0
  2 13  1  6  0  0  0
  2  8  1  0  0  0  0
  2  1  1  0  0  0  0
  2  4  1  0  0  0  0
  3  1  1  0  0  0  0
  3  5  1  0  0  0  0
  3 14  1  1  0  0  0
  4 15  1  6  0  0  0
  4 10  1  0  0  0  0
  5  6  1  0  0  0  0
  5 16  1  1  0  0  0
  6  4  1  0  0  0  0
  6 17  1  1  0  0  0
  7  1  1  0  0  0  0
  8 19  1  0  0  0  0
  9  3  1  0  0  0  0
 10 21  1  0  0  0  0
 11  5  1  0  0  0  0
 11  6  1  0  0  0  0
 18  7  1  0  0  0  0
 20  9  1  0  0  0  0
M  END
>  <HBA>
5

>  <HBD>
4

>  <TPSA>
93.45

>  <cid>
2859

>  <dipole>
3.82

>  <excitation_energy_1>
5.644

>  <excitation_energy_2>
6.197

>  <excitation_energy_3>
6.506

>  <excitation_energy_4>
6.653

>  <homo_energy>
-6.705

>  <homo_lumo_gap>
7.532

>  <logP>
-2.789

>  <lumo_energy>
0.827

>  <melting_point>
84.12

>  <molecular_refractivity>
32.46

>  <oscillator_strength_1>
0.0008

>  <oscillator_strength_2>
0.0003

>  <oscillator_strength_3>
0.01

>  <oscillator_strength_4>
0.0042

>  <open_babel_can_smiles>
O[C@@H]1[C@@H](O)[C@@H](O)[C@H]2[C@@H]([C@@H]1O)O2

>  <mulliken_charges>
21
1   0.119602
2   0.114255
3   0.097011
4   0.076123
5   0.020102
6   0.057783
7   -0.627359
8   -0.62267
9   -0.643489
10   -0.632263
11   -0.463734
12   0.100774
13   0.133271
14   0.151691
15   0.169539
16   0.166618
17   0.162525
18   0.40485
19   0.39766
20   0.419237
21   0.398474

>  <lowdin_charges>
21
1   -0.039628
2   -0.041169
3   -0.030949
4   -0.026679
5   -0.045564
6   -0.039385
7   -0.443605
8   -0.441816
9   -0.456156
10   -0.454994
11   -0.283776
12   0.12731
13   0.145414
14   0.15995
15   0.16496
16   0.162178
17   0.162985
18   0.345421
19   0.340531
20   0.350481
21   0.344492

$$$$

