PCCDB-ID:  107
public computational chemistry database (PCCDB) project, http://pccdb.org

 21 21  0  0  0  0  0  0  0  0999 V2000
   -1.8611   -0.1002   -0.0186 C   0  0  0  0  0  0  0  0  0  0  0  0
   -1.2215    1.1249    0.1663 C   0  0  0  0  0  0  0  0  0  0  0  0
   -1.0992   -1.2490   -0.2483 C   0  0  0  0  0  0  0  0  0  0  0  0
    0.1735    1.2017    0.1220 C   0  0  0  0  0  0  0  0  0  0  0  0
    0.2917   -1.1695   -0.2924 C   0  0  0  0  0  0  0  0  0  0  0  0
    2.4676    0.1286   -0.1579 C   0  0  0  0  0  0  0  0  0  0  0  0
    3.0903   -0.0533   -1.5667 C   0  0  0  0  0  0  0  0  0  0  0  0
    0.9519    0.0568   -0.1074 C   0  0  0  0  0  0  0  0  0  0  0  0
    2.9237    1.1297   -2.5182 C   0  0  0  0  0  0  0  0  0  0  0  0
    3.8470    1.6605   -3.0845 O   0  0  0  0  0  0  0  0  0  0  0  0
    1.6550    1.5669   -2.7276 O   0  0  0  0  0  0  0  0  0  0  0  0
   -2.9452   -0.1620    0.0168 H   0  0  0  0  0  0  0  0  0  0  0  0
   -1.8038    2.0241    0.3477 H   0  0  0  0  0  0  0  0  0  0  0  0
   -1.5894   -2.2085   -0.3896 H   0  0  0  0  0  0  0  0  0  0  0  0
    0.6653    2.1601    0.2719 H   0  0  0  0  0  0  0  0  0  0  0  0
    0.8764   -2.0715   -0.4616 H   0  0  0  0  0  0  0  0  0  0  0  0
    2.8098    1.0789    0.2680 H   0  0  0  0  0  0  0  0  0  0  0  0
    2.8802   -0.6615    0.4814 H   0  0  0  0  0  0  0  0  0  0  0  0
    2.6594   -0.9452   -2.0425 H   0  0  0  0  0  0  0  0  0  0  0  0
    4.1664   -0.2186   -1.4777 H   0  0  0  0  0  0  0  0  0  0  0  0
    1.0243    1.0735   -2.1723 H   0  0  0  0  0  0  0  0  0  0  0  0
  1 12  1  0  0  0  0
  1  2  2  0  0  0  0
  2 13  1  0  0  0  0
  3  1  1  0  0  0  0
  4  2  1  0  0  0  0
  4 15  1  0  0  0  0
  5  3  2  0  0  0  0
  5  8  1  0  0  0  0
  6  8  1  0  0  0  0
  6 17  1  0  0  0  0
  6 18  1  0  0  0  0
  7 20  1  0  0  0  0
  7  6  1  0  0  0  0
  8  4  2  0  0  0  0
  9  7  1  0  0  0  0
 10  9  2  0  0  0  0
 11  9  1  0  0  0  0
 11 21  1  0  0  0  0
 14  3  1  0  0  0  0
 16  5  1  0  0  0  0
 19  7  1  0  0  0  0
M  END
>  <HBA>
2

>  <HBD>
1

>  <TPSA>
37.3

>  <cid>
107

>  <dipole>
5.06

>  <excitation_energy_1>
5.29

>  <excitation_energy_2>
5.52

>  <excitation_energy_3>
5.811

>  <excitation_energy_4>
6.033

>  <homo_energy>
-6.983

>  <homo_lumo_gap>
6.348

>  <logP>
1.704

>  <lumo_energy>
-0.634

>  <melting_point>
82.98

>  <molecular_refractivity>
42.79

>  <oscillator_strength_1>
0.0009

>  <oscillator_strength_2>
0.0049

>  <oscillator_strength_3>
0.0339

>  <oscillator_strength_4>
0.0021

>  <open_babel_can_smiles>
OC(=O)CCc1ccccc1

>  <mulliken_charges>
21
1   -0.129396
2   -0.120176
3   -0.125601
4   -0.197433
5   -0.173296
6   -0.349881
7   -0.378059
8   0.105801
9   0.581925
10   -0.44057
11   -0.573174
12   0.139583
13   0.142387
14   0.139466
15   0.145206
16   0.133224
17   0.164825
18   0.165904
19   0.169252
20   0.180828
21   0.419183

>  <lowdin_charges>
21
1   -0.150824
2   -0.15158
3   -0.149674
4   -0.174361
5   -0.16812
6   -0.275465
7   -0.315256
8   -0.027274
9   0.19362
10   -0.244505
11   -0.36676
12   0.160638
13   0.164512
14   0.162322
15   0.163862
16   0.158904
17   0.159086
18   0.164746
19   0.165002
20   0.172849
21   0.358278

$$$$

