PCCDB-ID:  401
public computational chemistry database (PCCDB) project, http://pccdb.org

 13 13  0  0  1  0  0  0  0  0999 V2000
   -1.1984   -0.1812    0.1056 C   0  0  0  0  0  0  0  0  0  0  0  0
   -0.4189    1.1384    0.1018 C   0  0  2  0  0  0  0  0  0  0  0  0
    0.9691    0.5484   -0.0601 C   0  0  0  0  0  0  0  0  0  0  0  0
   -0.4382    2.0335    1.2548 N   0  0  0  0  0  0  0  0  0  0  0  0
    1.0144   -0.6703   -0.4449 N   0  0  0  0  0  0  0  0  0  0  0  0
    2.0464    1.3021    0.2001 O   0  0  0  0  0  0  0  0  0  0  0  0
   -0.3508   -1.0967   -0.6088 O   0  0  0  0  0  0  0  0  0  0  0  0
   -2.1636   -0.1546   -0.4056 H   0  0  0  0  0  0  0  0  0  0  0  0
   -1.3418   -0.5292    1.1432 H   0  0  0  0  0  0  0  0  0  0  0  0
   -0.6465    1.7430   -0.7870 H   0  0  0  0  0  0  0  0  0  0  0  0
   -0.4908    1.5029    2.1239 H   0  0  0  0  0  0  0  0  0  0  0  0
   -1.2367    2.6621    1.2307 H   0  0  0  0  0  0  0  0  0  0  0  0
    1.6920    2.0808    0.6803 H   0  0  0  0  0  0  0  0  0  0  0  0
  1  9  1  0  0  0  0
  2 10  1  6  0  0  0
  2  1  1  0  0  0  0
  2  4  1  0  0  0  0
  3  2  1  0  0  0  0
  3  6  1  0  0  0  0
  4 11  1  0  0  0  0
  5  3  2  0  0  0  0
  6 13  1  0  0  0  0
  7  5  1  0  0  0  0
  7  1  1  0  0  0  0
  8  1  1  0  0  0  0
 12  4  1  0  0  0  0
M  END
>  <HBA>
4

>  <HBD>
2

>  <TPSA>
64.35

>  <cid>
401

>  <dipole>
5.92

>  <excitation_energy_1>
5.011

>  <excitation_energy_2>
5.655

>  <excitation_energy_3>
6.013

>  <excitation_energy_4>
6.083

>  <homo_energy>
-6.068

>  <homo_lumo_gap>
6.416

>  <logP>
-0.596

>  <lumo_energy>
0.348

>  <melting_point>
94.22

>  <molecular_refractivity>
25.13

>  <oscillator_strength_1>
0.0206

>  <oscillator_strength_2>
0.0286

>  <oscillator_strength_3>
0.0141

>  <oscillator_strength_4>
0.0179

>  <open_babel_can_smiles>
N[C@@H]1CON=C1O

>  <mulliken_charges>
13
1   -0.017731
2   -0.1071
3   0.53409
4   -0.743683
5   -0.203994
6   -0.601534
7   -0.394103
8   0.156799
9   0.130252
10   0.177533
11   0.316575
12   0.323724
13   0.429172

>  <lowdin_charges>
13
1   -0.149455
2   -0.112378
3   0.07073
4   -0.540584
5   -0.071631
6   -0.343016
7   -0.214669
8   0.158321
9   0.133061
10   0.164808
11   0.26555
12   0.272467
13   0.366795

$$$$

