PCCDB-ID:  4093
public computational chemistry database (PCCDB) project, http://pccdb.org

 12 11  0  0  0  0  0  0  0  0999 V2000
    0.8507   -0.0414   -0.0265 C   0  0  0  0  0  0  0  0  0  0  0  0
    3.0634    0.3088    1.1057 C   0  0  0  0  0  0  0  0  0  0  0  0
    2.1893   -0.0948   -0.0507 C   0  0  0  0  0  0  0  0  0  0  0  0
    2.9262   -0.6730   -1.2299 C   0  0  0  0  0  0  0  0  0  0  0  0
    4.0005   -1.2159   -1.1255 O   0  0  0  0  0  0  0  0  0  0  0  0
    2.3253   -0.5718   -2.4462 O   0  0  0  0  0  0  0  0  0  0  0  0
    0.3155    0.3305    0.8427 H   0  0  0  0  0  0  0  0  0  0  0  0
    0.2319   -0.4066   -0.8430 H   0  0  0  0  0  0  0  0  0  0  0  0
    2.4651    0.6461    1.9564 H   0  0  0  0  0  0  0  0  0  0  0  0
    3.7509    1.1135    0.8183 H   0  0  0  0  0  0  0  0  0  0  0  0
    3.6861   -0.5371    1.4142 H   0  0  0  0  0  0  0  0  0  0  0  0
    1.5572    0.0186   -2.3776 H   0  0  0  0  0  0  0  0  0  0  0  0
  1  7  1  0  0  0  0
  2 11  1  0  0  0  0
  2  9  1  0  0  0  0
  3  1  2  0  0  0  0
  3  2  1  0  0  0  0
  4  5  2  0  0  0  0
  4  3  1  0  0  0  0
  6 12  1  0  0  0  0
  6  4  1  0  0  0  0
  8  1  1  0  0  0  0
 10  2  1  0  0  0  0
M  END
>  <HBA>
2

>  <HBD>
1

>  <TPSA>
37.3

>  <cid>
4093

>  <dipole>
4.16

>  <excitation_energy_1>
4.718

>  <excitation_energy_2>
6.072

>  <excitation_energy_3>
6.613

>  <excitation_energy_4>
6.792

>  <homo_energy>
-7.44

>  <homo_lumo_gap>
6.196

>  <logP>
0.647

>  <lumo_energy>
-1.244

>  <melting_point>
34.75

>  <molecular_refractivity>
22.64

>  <oscillator_strength_1>
0.0019

>  <oscillator_strength_2>
0.2257

>  <oscillator_strength_3>
0.0096

>  <oscillator_strength_4>
0.0325

>  <open_babel_can_smiles>
CC(=C)C(=O)O

>  <mulliken_charges>
12
1   -0.399765
2   -0.503692
3   0.122034
4   0.552457
5   -0.439465
6   -0.56875
7   0.162305
8   0.150283
9   0.152748
10   0.170889
11   0.193373
12   0.407584

>  <lowdin_charges>
12
1   -0.333665
2   -0.436573
3   -0.028306
4   0.187601
5   -0.23395
6   -0.354368
7   0.170974
8   0.161589
9   0.15886
10   0.168248
11   0.181032
12   0.358557

$$$$

