PCCDB-ID:  780
public computational chemistry database (PCCDB) project, http://pccdb.org

 20 20  0  0  0  0  0  0  0  0999 V2000
   -1.7529    0.0024    0.0395 C   0  0  0  0  0  0  0  0  0  0  0  0
   -1.0834    1.2111    0.2438 C   0  0  0  0  0  0  0  0  0  0  0  0
    0.3768   -1.1009   -0.2623 C   0  0  0  0  0  0  0  0  0  0  0  0
    2.5744    0.1469   -0.1065 C   0  0  0  0  0  0  0  0  0  0  0  0
    1.0596    0.0975   -0.0570 C   0  0  0  0  0  0  0  0  0  0  0  0
   -1.0208   -1.1578   -0.2166 C   0  0  0  0  0  0  0  0  0  0  0  0
    0.3049    1.2557    0.1928 C   0  0  0  0  0  0  0  0  0  0  0  0
    3.1404    0.7094   -1.4225 C   0  0  0  0  0  0  0  0  0  0  0  0
   -1.6031   -2.3782   -0.4265 O   0  0  0  0  0  0  0  0  0  0  0  0
    1.0152    2.4357    0.3850 O   0  0  0  0  0  0  0  0  0  0  0  0
    3.8171    0.0586   -2.1796 O   0  0  0  0  0  0  0  0  0  0  0  0
    2.8440    2.0013   -1.6827 O   0  0  0  0  0  0  0  0  0  0  0  0
   -2.8395   -0.0279    0.0810 H   0  0  0  0  0  0  0  0  0  0  0  0
   -1.6527    2.1169    0.4430 H   0  0  0  0  0  0  0  0  0  0  0  0
    0.9281   -2.0148   -0.4602 H   0  0  0  0  0  0  0  0  0  0  0  0
    2.9857   -0.8576    0.0031 H   0  0  0  0  0  0  0  0  0  0  0  0
    2.9532    0.7618    0.7205 H   0  0  0  0  0  0  0  0  0  0  0  0
   -2.5669   -2.2824   -0.3831 H   0  0  0  0  0  0  0  0  0  0  0  0
    0.3946    3.1718    0.5016 H   0  0  0  0  0  0  0  0  0  0  0  0
    2.2823    2.3679   -0.9682 H   0  0  0  0  0  0  0  0  0  0  0  0
  1 13  1  0  0  0  0
  1  2  2  0  0  0  0
  2 14  1  0  0  0  0
  3  6  2  0  0  0  0
  3  5  1  0  0  0  0
  4  5  1  0  0  0  0
  4 16  1  0  0  0  0
  4 17  1  0  0  0  0
  5  7  2  0  0  0  0
  6  1  1  0  0  0  0
  7  2  1  0  0  0  0
  7 10  1  0  0  0  0
  8  4  1  0  0  0  0
  9 18  1  0  0  0  0
  9  6  1  0  0  0  0
 10 19  1  0  0  0  0
 11  8  2  0  0  0  0
 12  8  1  0  0  0  0
 12 20  1  0  0  0  0
 15  3  1  0  0  0  0
M  END
>  <HBA>
4

>  <HBD>
3

>  <TPSA>
77.76

>  <cid>
780

>  <dipole>
7.18

>  <excitation_energy_1>
4.643

>  <excitation_energy_2>
4.853

>  <excitation_energy_3>
5.108

>  <excitation_energy_4>
5.348

>  <homo_energy>
-6.006

>  <homo_lumo_gap>
5.407

>  <logP>
0.725

>  <lumo_energy>
-0.599

>  <melting_point>
165.6

>  <molecular_refractivity>
42.03

>  <oscillator_strength_1>
0.069

>  <oscillator_strength_2>
0.0011

>  <oscillator_strength_3>
0.0003

>  <oscillator_strength_4>
0.0218

>  <open_babel_can_smiles>
OC(=O)Cc1cc(O)ccc1O

>  <mulliken_charges>
20
1   -0.202493
2   -0.179907
3   -0.22652
4   -0.468425
5   0.139691
6   0.363216
7   0.286981
8   0.593549
9   -0.643249
10   -0.682648
11   -0.441909
12   -0.589301
13   0.127998
14   0.129
15   0.15514
16   0.184303
17   0.184114
18   0.408913
19   0.42191
20   0.439635

>  <lowdin_charges>
20
1   -0.201093
2   -0.191824
3   -0.17476
4   -0.312009
5   -0.017457
6   0.095765
7   0.069993
8   0.197927
9   -0.37471
10   -0.39871
11   -0.247505
12   -0.372129
13   0.156758
14   0.159251
15   0.176063
16   0.177967
17   0.174811
18   0.35703
19   0.367585
20   0.357047

$$$$

