PCCDB-ID:  5851
public computational chemistry database (PCCDB) project, http://pccdb.org

 16 15  0  0  1  0  0  0  0  0999 V2000
    0.6414    0.1853    0.7780 C   0  0  2  0  0  0  0  0  0  0  0  0
    0.7107    1.6835    0.3985 C   0  0  2  0  0  0  0  0  0  0  0  0
    1.3316   -0.0733    2.1302 C   0  0  0  0  0  0  0  0  0  0  0  0
    2.1566    2.1034    0.0733 C   0  0  0  0  0  0  0  0  0  0  0  0
    1.1725   -0.6634   -0.2243 O   0  0  0  0  0  0  0  0  0  0  0  0
    0.1557    2.5307    1.3890 O   0  0  0  0  0  0  0  0  0  0  0  0
    1.2186    0.6852    3.0783 O   0  0  0  0  0  0  0  0  0  0  0  0
    2.0323   -1.1992    2.1801 O   0  0  0  0  0  0  0  0  0  0  0  0
    2.9176    1.3934   -0.5622 O   0  0  0  0  0  0  0  0  0  0  0  0
    2.4895    3.3081    0.5195 O   0  0  0  0  0  0  0  0  0  0  0  0
   -0.4157   -0.0758    0.9098 H   0  0  0  0  0  0  0  0  0  0  0  0
    0.1292    1.8207   -0.5214 H   0  0  0  0  0  0  0  0  0  0  0  0
    1.9485   -0.1833   -0.6002 H   0  0  0  0  0  0  0  0  0  0  0  0
    0.4010    2.1275    2.2558 H   0  0  0  0  0  0  0  0  0  0  0  0
    1.9864   -1.5799    1.2717 H   0  0  0  0  0  0  0  0  0  0  0  0
    1.7083    3.6268    1.0296 H   0  0  0  0  0  0  0  0  0  0  0  0
  1 11  1  1  0  0  0
  1  3  1  0  0  0  0
  2 12  1  6  0  0  0
  2  1  1  0  0  0  0
  2  6  1  0  0  0  0
  3  8  1  0  0  0  0
  3  7  2  0  0  0  0
  4  2  1  0  0  0  0
  4 10  1  0  0  0  0
  5  1  1  0  0  0  0
  6 14  1  0  0  0  0
  9  4  2  0  0  0  0
 10 16  1  0  0  0  0
 13  5  1  0  0  0  0
 15  8  1  0  0  0  0
M  END
>  <HBA>
6

>  <HBD>
4

>  <TPSA>
115.06

>  <cid>
5851

>  <dipole>
2.43

>  <excitation_energy_1>
5.48

>  <excitation_energy_2>
5.509

>  <excitation_energy_3>
6.232

>  <excitation_energy_4>
6.268

>  <homo_energy>
-7.823

>  <homo_lumo_gap>
7.026

>  <logP>
-2.123

>  <lumo_energy>
-0.797

>  <melting_point>
166.32

>  <molecular_refractivity>
27.21

>  <oscillator_strength_1>
0.0011

>  <oscillator_strength_2>
0.0

>  <oscillator_strength_3>
0.0009

>  <oscillator_strength_4>
0.006

>  <open_babel_can_smiles>
O[C@H]([C@H](C(=O)O)O)C(=O)O

>  <mulliken_charges>
16
1   0.002923
2   0.002756
3   0.608531
4   0.608362
5   -0.657852
6   -0.657819
7   -0.481541
8   -0.551188
9   -0.481453
10   -0.551229
11   0.201698
12   0.201701
13   0.438707
14   0.438709
15   0.438832
16   0.438861

>  <lowdin_charges>
16
1   -0.055392
2   -0.056802
3   0.17969
4   0.179927
5   -0.456679
6   -0.456275
7   -0.26725
8   -0.310945
9   -0.267635
10   -0.312572
11   0.179348
12   0.181027
13   0.360137
14   0.359705
15   0.371148
16   0.372568

$$$$

