PCCDB-ID:  6162
public computational chemistry database (PCCDB) project, http://pccdb.org

 24 24  0  0  1  0  0  0  0  0999 V2000
    1.0014    0.1301    0.4028 C   0  0  0  0  0  0  0  0  0  0  0  0
    6.3734    2.7582   -0.8726 C   0  0  0  0  0  0  0  0  0  0  0  0
    2.4957    0.4290    0.2394 C   0  0  0  0  0  0  0  0  0  0  0  0
    4.3485    1.2943   -1.3318 C   0  0  0  0  0  0  0  0  0  0  0  0
    4.9958    2.2957   -0.3599 C   0  0  2  0  0  0  0  0  0  0  0  0
    2.8372    1.1383   -1.0916 C   0  0  2  0  0  0  0  0  0  0  0  0
    4.0412    3.4533   -0.0827 C   0  0  0  0  0  0  0  0  0  0  0  0
    2.2036    2.5296   -1.1757 C   0  0  0  0  0  0  0  0  0  0  0  0
    2.8238    3.5716   -0.4561 N   0  0  0  0  0  0  0  0  0  0  0  0
    4.5269    4.4588    0.6801 O   0  0  0  0  0  0  0  0  0  0  0  0
    1.1864    2.7395   -1.8069 O   0  0  0  0  0  0  0  0  0  0  0  0
    0.8082   -0.3770    1.3545 H   0  0  0  0  0  0  0  0  0  0  0  0
    0.6398   -0.5177   -0.4042 H   0  0  0  0  0  0  0  0  0  0  0  0
    0.4039    1.0470    0.3792 H   0  0  0  0  0  0  0  0  0  0  0  0
    6.9919    1.8846   -1.1036 H   0  0  0  0  0  0  0  0  0  0  0  0
    6.9344    3.3541   -0.1414 H   0  0  0  0  0  0  0  0  0  0  0  0
    6.2729    3.3527   -1.7871 H   0  0  0  0  0  0  0  0  0  0  0  0
    3.0651   -0.5103    0.2795 H   0  0  0  0  0  0  0  0  0  0  0  0
    2.8390    1.0359    1.0878 H   0  0  0  0  0  0  0  0  0  0  0  0
    4.8575    0.3259   -1.2499 H   0  0  0  0  0  0  0  0  0  0  0  0
    4.5084    1.6485   -2.3594 H   0  0  0  0  0  0  0  0  0  0  0  0
    5.1426    1.8002    0.6129 H   0  0  0  0  0  0  0  0  0  0  0  0
    2.4010    0.5562   -1.9105 H   0  0  0  0  0  0  0  0  0  0  0  0
    5.4618    4.2958    0.8818 H   0  0  0  0  0  0  0  0  0  0  0  0
  1 12  1  0  0  0  0
  2  5  1  0  0  0  0
  2 16  1  0  0  0  0
  3 18  1  0  0  0  0
  3  1  1  0  0  0  0
  3 19  1  0  0  0  0
  4 20  1  0  0  0  0
  4  6  1  0  0  0  0
  4  5  1  0  0  0  0
  5  7  1  0  0  0  0
  5 22  1  1  0  0  0
  6 23  1  6  0  0  0
  6  3  1  0  0  0  0
  7 10  1  0  0  0  0
  8  6  1  0  0  0  0
  8  9  1  0  0  0  0
  9  7  2  0  0  0  0
 10 24  1  0  0  0  0
 11  8  2  0  0  0  0
 13  1  1  0  0  0  0
 14  1  1  0  0  0  0
 15  2  1  0  0  0  0
 17  2  1  0  0  0  0
 21  4  1  0  0  0  0
M  END
>  <HBA>
3

>  <HBD>
1

>  <TPSA>
46.17

>  <cid>
6162

>  <dipole>
6.85

>  <excitation_energy_1>
3.967

>  <excitation_energy_2>
4.871

>  <excitation_energy_3>
5.505

>  <excitation_energy_4>
6.108

>  <homo_energy>
-6.403

>  <homo_lumo_gap>
5.429

>  <logP>
1.024

>  <lumo_energy>
-0.974

>  <melting_point>
64.65

>  <molecular_refractivity>
45.57

>  <oscillator_strength_1>
0.0013

>  <oscillator_strength_2>
0.0005

>  <oscillator_strength_3>
0.0028

>  <oscillator_strength_4>
0.0996

>  <open_babel_can_smiles>
CC[C@@H]1C[C@@H](C)C(=NC1=O)O

>  <mulliken_charges>
24
1   -0.447894
2   -0.468563
3   -0.265429
4   -0.291339
5   -0.189357
6   -0.166342
7   0.519492
8   0.532973
9   -0.463074
10   -0.563669
11   -0.454503
12   0.14267
13   0.149357
14   0.173747
15   0.169917
16   0.137603
17   0.175918
18   0.134549
19   0.136724
20   0.145268
21   0.155817
22   0.168258
23   0.152939
24   0.414937

>  <lowdin_charges>
24
1   -0.446529
2   -0.446223
3   -0.272859
4   -0.274478
5   -0.162256
6   -0.161558
7   0.151379
8   0.156972
9   -0.18927
10   -0.329252
11   -0.235028
12   0.150872
13   0.152369
14   0.162885
15   0.16554
16   0.145616
17   0.164167
18   0.142097
19   0.14231
20   0.15141
21   0.152311
22   0.160622
23   0.162185
24   0.35672

$$$$

