PCCDB-ID:  4947
public computational chemistry database (PCCDB) project, http://pccdb.org

 27 27  0  0  0  0  0  0  0  0999 V2000
    8.6461    2.2813    1.2207 C   0  0  0  0  0  0  0  0  0  0  0  0
    7.6072    1.1900    0.9473 C   0  0  0  0  0  0  0  0  0  0  0  0
    6.3519    1.6993    0.2444 C   0  0  0  0  0  0  0  0  0  0  0  0
    3.1986    3.0730    3.6608 C   0  0  0  0  0  0  0  0  0  0  0  0
    4.4671    4.7437    2.4396 C   0  0  0  0  0  0  0  0  0  0  0  0
    4.1473    3.4014    2.6839 C   0  0  0  0  0  0  0  0  0  0  0  0
    2.5830    4.0899    4.3762 C   0  0  0  0  0  0  0  0  0  0  0  0
    3.8455    5.7607    3.1631 C   0  0  0  0  0  0  0  0  0  0  0  0
    2.8925    5.4387    4.1427 C   0  0  0  0  0  0  0  0  0  0  0  0
    4.7818    2.2835    1.9419 C   0  0  0  0  0  0  0  0  0  0  0  0
    1.6365    3.8912    5.3569 O   0  0  0  0  0  0  0  0  0  0  0  0
    4.1091    7.0874    2.9762 O   0  0  0  0  0  0  0  0  0  0  0  0
    2.2874    6.4291    4.8464 O   0  0  0  0  0  0  0  0  0  0  0  0
    4.5309    1.1067    2.1309 O   0  0  0  0  0  0  0  0  0  0  0  0
    5.6757    2.7173    1.0183 O   0  0  0  0  0  0  0  0  0  0  0  0
    9.5277    1.8674    1.7220 H   0  0  0  0  0  0  0  0  0  0  0  0
    8.2325    3.0669    1.8614 H   0  0  0  0  0  0  0  0  0  0  0  0
    8.9823    2.7527    0.2885 H   0  0  0  0  0  0  0  0  0  0  0  0
    7.3091    0.7002    1.8815 H   0  0  0  0  0  0  0  0  0  0  0  0
    8.0422    0.4070    0.3108 H   0  0  0  0  0  0  0  0  0  0  0  0
    5.6524    0.8826    0.0518 H   0  0  0  0  0  0  0  0  0  0  0  0
    6.6011    2.1980   -0.6973 H   0  0  0  0  0  0  0  0  0  0  0  0
    2.9614    2.0282    3.8381 H   0  0  0  0  0  0  0  0  0  0  0  0
    5.2022    4.9914    1.6803 H   0  0  0  0  0  0  0  0  0  0  0  0
    1.4713    2.9420    5.4591 H   0  0  0  0  0  0  0  0  0  0  0  0
    4.7756    7.1713    2.2770 H   0  0  0  0  0  0  0  0  0  0  0  0
    1.6687    6.0022    5.4646 H   0  0  0  0  0  0  0  0  0  0  0  0
  1 16  1  0  0  0  0
  1 17  1  0  0  0  0
  2  1  1  0  0  0  0
  2 19  1  0  0  0  0
  3  2  1  0  0  0  0
  3 15  1  0  0  0  0
  4 23  1  0  0  0  0
  4  7  2  0  0  0  0
  5  6  2  0  0  0  0
  5  8  1  0  0  0  0
  6  4  1  0  0  0  0
  7 11  1  0  0  0  0
  8  9  2  0  0  0  0
  9  7  1  0  0  0  0
  9 13  1  0  0  0  0
 10 14  2  0  0  0  0
 10  6  1  0  0  0  0
 11 25  1  0  0  0  0
 12  8  1  0  0  0  0
 13 27  1  0  0  0  0
 15 10  1  0  0  0  0
 18  1  1  0  0  0  0
 20  2  1  0  0  0  0
 21  3  1  0  0  0  0
 22  3  1  0  0  0  0
 24  5  1  0  0  0  0
 26 12  1  0  0  0  0
M  END
>  <HBA>
5

>  <HBD>
3

>  <TPSA>
86.99

>  <cid>
4947

>  <dipole>
1.11

>  <excitation_energy_1>
4.421

>  <excitation_energy_2>
4.554

>  <excitation_energy_3>
4.831

>  <excitation_energy_4>
4.988

>  <homo_energy>
-5.78

>  <homo_lumo_gap>
4.816

>  <logP>
1.37

>  <lumo_energy>
-0.963

>  <melting_point>
150.86

>  <molecular_refractivity>
53.4

>  <oscillator_strength_1>
0.0703

>  <oscillator_strength_2>
0.2175

>  <oscillator_strength_3>
0.001

>  <oscillator_strength_4>
0.0002

>  <open_babel_can_smiles>
CCCOC(=O)c1cc(O)c(c(c1)O)O

>  <mulliken_charges>
27
1   -0.443119
2   -0.27449
3   -0.043417
4   -0.235995
5   -0.246842
6   0.037988
7   0.309486
8   0.318535
9   0.295602
10   0.599735
11   -0.683143
12   -0.634091
13   -0.63425
14   -0.503311
15   -0.48716
16   0.147607
17   0.156897
18   0.139381
19   0.16499
20   0.13889
21   0.169997
22   0.14536
23   0.152482
24   0.144054
25   0.42264
26   0.411045
27   0.431129

>  <lowdin_charges>
27
1   -0.448963
2   -0.285772
3   -0.132638
4   -0.198258
5   -0.206741
6   -0.04724
7   0.063311
8   0.079885
9   0.065561
10   0.197447
11   -0.397153
12   -0.367594
13   -0.356939
14   -0.282244
15   -0.197262
16   0.153305
17   0.154614
18   0.145939
19   0.157785
20   0.15096
21   0.161765
22   0.148884
23   0.173804
24   0.169595
25   0.366996
26   0.361305
27   0.369649

$$$$

