PCCDB-ID:  6034
public computational chemistry database (PCCDB) project, http://pccdb.org

 32 32  0  0  0  0  0  0  0  0999 V2000
    2.1624   -2.1516   -0.2235 C   0  0  0  0  0  0  0  0  0  0  0  0
    9.7364   -0.0404    0.7174 C   0  0  0  0  0  0  0  0  0  0  0  0
    5.8789   -7.1476    2.6341 C   0  0  0  0  0  0  0  0  0  0  0  0
    3.6394   -1.8739   -0.4418 C   0  0  0  0  0  0  0  0  0  0  0  0
    8.5244   -3.0613    0.0652 C   0  0  0  0  0  0  0  0  0  0  0  0
    7.7910   -4.0503    0.7065 C   0  0  0  0  0  0  0  0  0  0  0  0
    6.4524   -1.9435   -0.5030 C   0  0  0  0  0  0  0  0  0  0  0  0
    9.3652   -0.2007   -0.7407 C   0  0  0  0  0  0  0  0  0  0  0  0
    7.8539   -1.9853   -0.5405 C   0  0  0  0  0  0  0  0  0  0  0  0
    6.3897   -4.0199    0.7793 C   0  0  0  0  0  0  0  0  0  0  0  0
    5.7141   -2.9355    0.1519 C   0  0  0  0  0  0  0  0  0  0  0  0
    5.6553   -5.0975    1.4909 C   0  0  0  0  0  0  0  0  0  0  0  0
    8.5295   -0.9989   -1.2639 N   0  0  0  0  0  0  0  0  0  0  0  0
    9.9976    0.6528   -1.5940 O   0  0  0  0  0  0  0  0  0  0  0  0
    4.4603   -5.1569    1.6966 O   0  0  0  0  0  0  0  0  0  0  0  0
    6.5072   -6.0748    1.9252 O   0  0  0  0  0  0  0  0  0  0  0  0
    4.3638   -2.9164    0.2133 O   0  0  0  0  0  0  0  0  0  0  0  0
    1.5589   -1.3762   -0.7080 H   0  0  0  0  0  0  0  0  0  0  0  0
    1.9276   -2.1639    0.8450 H   0  0  0  0  0  0  0  0  0  0  0  0
    1.8890   -3.1238   -0.6441 H   0  0  0  0  0  0  0  0  0  0  0  0
    9.1548   -0.7117    1.3500 H   0  0  0  0  0  0  0  0  0  0  0  0
    9.5539    0.9931    1.0386 H   0  0  0  0  0  0  0  0  0  0  0  0
   10.8013   -0.2551    0.8703 H   0  0  0  0  0  0  0  0  0  0  0  0
    6.6863   -7.8258    2.9145 H   0  0  0  0  0  0  0  0  0  0  0  0
    5.1519   -7.6607    1.9979 H   0  0  0  0  0  0  0  0  0  0  0  0
    5.3625   -6.7772    3.5244 H   0  0  0  0  0  0  0  0  0  0  0  0
    3.9241   -0.8997   -0.0194 H   0  0  0  0  0  0  0  0  0  0  0  0
    3.8857   -1.8644   -1.5127 H   0  0  0  0  0  0  0  0  0  0  0  0
    9.6063   -3.1258    0.0046 H   0  0  0  0  0  0  0  0  0  0  0  0
    8.3078   -4.8801    1.1732 H   0  0  0  0  0  0  0  0  0  0  0  0
    5.9593   -1.1206   -1.0035 H   0  0  0  0  0  0  0  0  0  0  0  0
   10.5787    1.2408   -1.0874 H   0  0  0  0  0  0  0  0  0  0  0  0
  1 19  1  0  0  0  0
  2 23  1  0  0  0  0
  2 22  1  0  0  0  0
  2 21  1  0  0  0  0
  3 24  1  0  0  0  0
  3 26  1  0  0  0  0
  4  1  1  0  0  0  0
  4 27  1  0  0  0  0
  4 17  1  0  0  0  0
  5  6  2  0  0  0  0
  6 10  1  0  0  0  0
  6 30  1  0  0  0  0
  7 11  1  0  0  0  0
  8  2  1  0  0  0  0
  9  7  2  0  0  0  0
  9  5  1  0  0  0  0
 10 12  1  0  0  0  0
 11 17  1  0  0  0  0
 11 10  2  0  0  0  0
 12 15  2  0  0  0  0
 12 16  1  0  0  0  0
 13  8  2  0  0  0  0
 13  9  1  0  0  0  0
 14 32  1  0  0  0  0
 14  8  1  0  0  0  0
 16  3  1  0  0  0  0
 18  1  1  0  0  0  0
 20  1  1  0  0  0  0
 25  3  1  0  0  0  0
 28  4  1  0  0  0  0
 29  5  1  0  0  0  0
 31  7  1  0  0  0  0
M  END
>  <HBA>
5

>  <HBD>
1

>  <TPSA>
64.63

>  <cid>
6034

>  <dipole>
4.67

>  <excitation_energy_1>
4.303

>  <excitation_energy_2>
4.634

>  <excitation_energy_3>
4.69

>  <excitation_energy_4>
5.008

>  <homo_energy>
-5.807

>  <homo_lumo_gap>
4.931

>  <logP>
1.903

>  <lumo_energy>
-0.876

>  <melting_point>
90.99

>  <molecular_refractivity>
63.33

>  <oscillator_strength_1>
0.2012

>  <oscillator_strength_2>
0.1799

>  <oscillator_strength_3>
0.0478

>  <oscillator_strength_4>
0.008

>  <open_babel_can_smiles>
CCOc1cc(ccc1C(=O)OC)/N=C(/O)\C

>  <mulliken_charges>
32
1   -0.453995
2   -0.554989
3   -0.208194
4   -0.034334
5   -0.168313
6   -0.182291
7   -0.242637
8   0.484337
9   0.252362
10   0.001178
11   0.347691
12   0.598531
13   -0.46503
14   -0.566496
15   -0.4844
16   -0.478479
17   -0.488376
18   0.143506
19   0.169488
20   0.170126
21   0.201688
22   0.173383
23   0.178656
24   0.155373
25   0.165777
26   0.164485
27   0.139486
28   0.145817
29   0.124415
30   0.159007
31   0.141943
32   0.410286

>  <lowdin_charges>
32
1   -0.445542
2   -0.481563
3   -0.281651
4   -0.121755
5   -0.212557
6   -0.127784
7   -0.237544
8   0.150036
9   0.069888
10   -0.089813
11   0.127648
12   0.193909
13   -0.166579
14   -0.356585
15   -0.260832
16   -0.206658
17   -0.170687
18   0.155828
19   0.16195
20   0.163626
21   0.187299
22   0.16841
23   0.170452
24   0.156293
25   0.158055
26   0.156314
27   0.137453
28   0.139141
29   0.156205
30   0.175603
31   0.171745
32   0.359693

$$$$

