PCCDB-ID:  1214
public computational chemistry database (PCCDB) project, http://pccdb.org

 20 20  0  0  1  0  0  0  0  0999 V2000
    0.3415    1.0683    0.3216 C   0  0  0  0  0  0  0  0  0  0  0  0
   -0.4276   -0.9798    0.2131 C   0  0  0  0  0  0  0  0  0  0  0  0
   -1.0635    0.4392    0.0674 C   0  0  2  0  0  0  0  0  0  0  0  0
   -1.7472    0.7573   -1.2625 C   0  0  0  0  0  0  0  0  0  0  0  0
    1.8702   -0.6456   -0.8569 C   0  0  0  0  0  0  0  0  0  0  0  0
    0.9973   -0.3495    0.3735 C   0  0  1  0  0  0  0  0  0  0  0  0
    1.7459   -0.7464    1.5726 N   0  0  0  0  0  0  0  0  0  0  0  0
   -2.9040    1.1107   -1.3061 O   0  0  0  0  0  0  0  0  0  0  0  0
   -1.0202    0.6275   -2.3847 O   0  0  0  0  0  0  0  0  0  0  0  0
    1.5553   -0.2983   -1.9840 O   0  0  0  0  0  0  0  0  0  0  0  0
    2.9746   -1.3345   -0.6047 O   0  0  0  0  0  0  0  0  0  0  0  0
    0.4095    1.5957    1.2777 H   0  0  0  0  0  0  0  0  0  0  0  0
    0.7189    1.7201   -0.4701 H   0  0  0  0  0  0  0  0  0  0  0  0
   -0.5449   -1.6440   -0.6467 H   0  0  0  0  0  0  0  0  0  0  0  0
   -0.7577   -1.5142    1.1094 H   0  0  0  0  0  0  0  0  0  0  0  0
   -1.7963    0.6686    0.8410 H   0  0  0  0  0  0  0  0  0  0  0  0
    1.1467   -1.1796    2.2703 H   0  0  0  0  0  0  0  0  0  0  0  0
    2.1933    0.0573    2.0105 H   0  0  0  0  0  0  0  0  0  0  0  0
   -0.0923    0.3262   -2.2247 H   0  0  0  0  0  0  0  0  0  0  0  0
    2.9505   -1.4799    0.3809 H   0  0  0  0  0  0  0  0  0  0  0  0
  1  6  1  0  0  0  0
  1 12  1  0  0  0  0
  2  6  1  0  0  0  0
  2 15  1  0  0  0  0
  3  2  1  0  0  0  0
  3  1  1  0  0  0  0
  3 16  1  1  0  0  0
  4  3  1  0  0  0  0
  5 11  1  0  0  0  0
  6  5  1  6  0  0  0
  6  7  1  0  0  0  0
  7 18  1  0  0  0  0
  7 17  1  0  0  0  0
  8  4  2  0  0  0  0
  9 19  1  0  0  0  0
  9  4  1  0  0  0  0
 10  5  2  0  0  0  0
 11 20  1  0  0  0  0
 13  1  1  0  0  0  0
 14  2  1  0  0  0  0
M  END
>  <HBA>
5

>  <HBD>
3

>  <TPSA>
100.62

>  <cid>
1214

>  <dipole>
8.04

>  <excitation_energy_1>
5.217

>  <excitation_energy_2>
5.552

>  <excitation_energy_3>
5.788

>  <excitation_energy_4>
5.987

>  <homo_energy>
-6.865

>  <homo_lumo_gap>
6.316

>  <logP>
-0.037

>  <lumo_energy>
-0.55

>  <melting_point>
215.6

>  <molecular_refractivity>
35.13

>  <oscillator_strength_1>
0.0003

>  <oscillator_strength_2>
0.0012

>  <oscillator_strength_3>
0.0078

>  <oscillator_strength_4>
0.0007

>  <open_babel_can_smiles>
OC(=O)[C@@H]1C[C@](C1)(N)C(=O)O

>  <mulliken_charges>
20
1   -0.30265
2   -0.305082
3   -0.199071
4   0.592988
5   0.62972
6   0.10269
7   -0.80756
8   -0.459326
9   -0.606242
10   -0.494459
11   -0.564105
12   0.153594
13   0.185139
14   0.189213
15   0.158329
16   0.169153
17   0.331612
18   0.331875
19   0.452669
20   0.441512

>  <lowdin_charges>
20
1   -0.289133
2   -0.275913
3   -0.162485
4   0.178934
5   0.186701
6   0.011833
7   -0.538965
8   -0.254244
9   -0.363557
10   -0.273231
11   -0.322177
12   0.158085
13   0.169963
14   0.170591
15   0.159666
16   0.170457
17   0.277161
18   0.275707
19   0.357204
20   0.363404

$$$$

