PCCDB-ID:  599
public computational chemistry database (PCCDB) project, http://pccdb.org

 17 16  0  0  1  0  0  0  0  0999 V2000
    1.2423    0.1104    1.1704 C   0  0  0  0  0  0  0  0  0  0  0  0
    0.6784    1.5242    1.0964 C   0  0  1  0  0  0  0  0  0  0  0  0
    2.7515    0.0847    1.3124 C   0  0  0  0  0  0  0  0  0  0  0  0
   -0.6990    1.5456    0.4028 C   0  0  0  0  0  0  0  0  0  0  0  0
    3.3235   -1.2281    1.8930 C   0  0  0  0  0  0  0  0  0  0  0  0
    0.6150    2.1838    2.3681 O   0  0  0  0  0  0  0  0  0  0  0  0
    3.4837    0.9929    0.9935 O   0  0  0  0  0  0  0  0  0  0  0  0
   -0.9746    0.8474   -0.5429 O   0  0  0  0  0  0  0  0  0  0  0  0
   -1.5497    2.4445    0.9253 O   0  0  0  0  0  0  0  0  0  0  0  0
    4.6569   -1.2901    1.7847 O   0  0  0  0  0  0  0  0  0  0  0  0
    2.6282   -2.0862    2.3917 O   0  0  0  0  0  0  0  0  0  0  0  0
    0.9821   -0.4144    0.2399 H   0  0  0  0  0  0  0  0  0  0  0  0
    0.7796   -0.4775    1.9722 H   0  0  0  0  0  0  0  0  0  0  0  0
    1.3536    2.1418    0.4933 H   0  0  0  0  0  0  0  0  0  0  0  0
    0.2889    1.5449    3.0242 H   0  0  0  0  0  0  0  0  0  0  0  0
   -1.0788    2.8623    1.6782 H   0  0  0  0  0  0  0  0  0  0  0  0
    4.9306   -2.1421    2.1756 H   0  0  0  0  0  0  0  0  0  0  0  0
  1  3  1  0  0  0  0
  1 13  1  0  0  0  0
  2 14  1  6  0  0  0
  2  1  1  0  0  0  0
  2  6  1  0  0  0  0
  3  5  1  0  0  0  0
  4  9  1  0  0  0  0
  4  2  1  0  0  0  0
  5 11  2  0  0  0  0
  6 15  1  0  0  0  0
  7  3  2  0  0  0  0
  8  4  2  0  0  0  0
  9 16  1  0  0  0  0
 10  5  1  0  0  0  0
 10 17  1  0  0  0  0
 12  1  1  0  0  0  0
M  END
>  <HBA>
6

>  <HBD>
3

>  <TPSA>
111.9

>  <cid>
599

>  <dipole>
3.79

>  <excitation_energy_1>
3.313

>  <excitation_energy_2>
4.192

>  <excitation_energy_3>
5.033

>  <excitation_energy_4>
5.529

>  <homo_energy>
-7.393

>  <homo_lumo_gap>
4.814

>  <logP>
-1.524

>  <lumo_energy>
-2.58

>  <melting_point>
168.43

>  <molecular_refractivity>
31.05

>  <oscillator_strength_1>
0.0001

>  <oscillator_strength_2>
0.0105

>  <oscillator_strength_3>
0.0

>  <oscillator_strength_4>
0.0004

>  <open_babel_can_smiles>
O[C@H](C(=O)O)CC(=O)C(=O)O

>  <mulliken_charges>
17
1   -0.401731
2   0.021737
3   0.410857
4   0.585441
5   0.527774
6   -0.63223
7   -0.402374
8   -0.450516
9   -0.571203
10   -0.532326
11   -0.442289
12   0.231502
13   0.186941
14   0.216107
15   0.403433
16   0.426924
17   0.421952

>  <lowdin_charges>
17
1   -0.323278
2   -0.041194
3   0.141236
4   0.166443
5   0.162988
6   -0.450743
7   -0.172334
8   -0.244622
9   -0.342692
10   -0.314567
11   -0.241908
12   0.207145
13   0.178916
14   0.187909
15   0.351799
16   0.363874
17   0.371027

$$$$

