PCCDB-ID:  6142
public computational chemistry database (PCCDB) project, http://pccdb.org

 21 21  0  0  0  0  0  0  0  0999 V2000
    0.8722    0.4660    0.0518 C   0  0  0  0  0  0  0  0  0  0  0  0
    4.5905    1.2948   -0.1854 C   0  0  0  0  0  0  0  0  0  0  0  0
    3.2032    1.4460   -0.1299 C   0  0  0  0  0  0  0  0  0  0  0  0
    5.1659    0.0288   -0.1760 C   0  0  0  0  0  0  0  0  0  0  0  0
    2.9572   -0.9510   -0.0172 C   0  0  0  0  0  0  0  0  0  0  0  0
    2.3742    0.3229   -0.0432 C   0  0  0  0  0  0  0  0  0  0  0  0
    4.3472   -1.1087   -0.0961 C   0  0  0  0  0  0  0  0  0  0  0  0
    4.4753   -3.5622   -0.5730 C   0  0  0  0  0  0  0  0  0  0  0  0
    3.4579   -3.8163   -1.2998 N   0  0  0  0  0  0  0  0  0  0  0  0
    4.9546   -2.3765   -0.0463 N   0  0  0  0  0  0  0  0  0  0  0  0
    5.3038   -4.5729   -0.1919 O   0  0  0  0  0  0  0  0  0  0  0  0
    0.5639    1.5111   -0.0489 H   0  0  0  0  0  0  0  0  0  0  0  0
    0.4975    0.0997    1.0159 H   0  0  0  0  0  0  0  0  0  0  0  0
    0.3641   -0.1113   -0.7299 H   0  0  0  0  0  0  0  0  0  0  0  0
    5.2290    2.1720   -0.2482 H   0  0  0  0  0  0  0  0  0  0  0  0
    2.7641    2.4400   -0.1477 H   0  0  0  0  0  0  0  0  0  0  0  0
    6.2449   -0.0879   -0.2415 H   0  0  0  0  0  0  0  0  0  0  0  0
    2.3252   -1.8253    0.1042 H   0  0  0  0  0  0  0  0  0  0  0  0
    2.9664   -2.9696   -1.5781 H   0  0  0  0  0  0  0  0  0  0  0  0
    5.9141   -2.4151    0.2699 H   0  0  0  0  0  0  0  0  0  0  0  0
    4.9541   -5.3616   -0.6424 H   0  0  0  0  0  0  0  0  0  0  0  0
  1 13  1  0  0  0  0
  2  4  2  0  0  0  0
  2  3  1  0  0  0  0
  3  6  2  0  0  0  0
  4  7  1  0  0  0  0
  5 18  1  0  0  0  0
  6  5  1  0  0  0  0
  6  1  1  0  0  0  0
  7 10  1  0  0  0  0
  7  5  2  0  0  0  0
  8 11  1  0  0  0  0
  8 10  1  0  0  0  0
  9  8  2  0  0  0  0
 10 20  1  0  0  0  0
 12  1  1  0  0  0  0
 14  1  1  0  0  0  0
 15  2  1  0  0  0  0
 16  3  1  0  0  0  0
 17  4  1  0  0  0  0
 19  9  1  0  0  0  0
 21 11  1  0  0  0  0
M  END
>  <HBA>
3

>  <HBD>
2

>  <TPSA>
55.12

>  <cid>
6142

>  <dipole>
1.87

>  <excitation_energy_1>
4.702

>  <excitation_energy_2>
5.065

>  <excitation_energy_3>
5.323

>  <excitation_energy_4>
5.758

>  <homo_energy>
-5.84

>  <homo_lumo_gap>
5.608

>  <logP>
2.259

>  <lumo_energy>
-0.231

>  <melting_point>
128.68

>  <molecular_refractivity>
44.01

>  <oscillator_strength_1>
0.0197

>  <oscillator_strength_2>
0.1977

>  <oscillator_strength_3>
0.0122

>  <oscillator_strength_4>
0.0089

>  <open_babel_can_smiles>
OC(=N)Nc1cccc(c1)C

>  <mulliken_charges>
21
1   -0.529514
2   -0.130271
3   -0.183517
4   -0.185604
5   -0.236082
6   0.16697
7   0.356894
8   0.639233
9   -0.652205
10   -0.711774
11   -0.605954
12   0.156436
13   0.167078
14   0.164089
15   0.132573
16   0.122743
17   0.125706
18   0.147161
19   0.291278
20   0.342508
21   0.422253

>  <lowdin_charges>
21
1   -0.442075
2   -0.145004
3   -0.182534
4   -0.189607
5   -0.20306
6   0.01286
7   0.05858
8   0.164923
9   -0.482669
10   -0.257293
11   -0.382655
12   0.156681
13   0.163301
14   0.163059
15   0.160628
16   0.155486
17   0.154616
18   0.166857
19   0.263022
20   0.295385
21   0.369499

$$$$

