PCCDB-ID:  6211
public computational chemistry database (PCCDB) project, http://pccdb.org

 13 13  0  0  0  0  0  0  0  0999 V2000
    1.4550   -0.2596   -0.0285 C   0  0  0  0  0  0  0  0  0  0  0  0
    0.8146    1.1109   -0.0039 C   0  0  0  0  0  0  0  0  0  0  0  0
    0.3794   -1.3235   -0.0070 C   0  0  0  0  0  0  0  0  0  0  0  0
   -1.3427    0.2405    0.0551 C   0  0  0  0  0  0  0  0  0  0  0  0
   -0.4340    1.3378    0.0329 N   0  0  0  0  0  0  0  0  0  0  0  0
   -0.8704   -1.1035    0.0296 N   0  0  0  0  0  0  0  0  0  0  0  0
    1.6530    2.1686   -0.0237 O   0  0  0  0  0  0  0  0  0  0  0  0
    0.7990   -2.6062   -0.0296 O   0  0  0  0  0  0  0  0  0  0  0  0
   -2.5311    0.4530    0.0957 O   0  0  0  0  0  0  0  0  0  0  0  0
    2.1225   -0.3797    0.8381 H   0  0  0  0  0  0  0  0  0  0  0  0
    2.0764   -0.3694   -0.9300 H   0  0  0  0  0  0  0  0  0  0  0  0
    2.5756    1.8668   -0.0508 H   0  0  0  0  0  0  0  0  0  0  0  0
    1.7691   -2.6431   -0.0555 H   0  0  0  0  0  0  0  0  0  0  0  0
  1  3  1  0  0  0  0
  1  2  1  0  0  0  0
  1 10  1  0  0  0  0
  2  5  2  0  0  0  0
  3  6  2  0  0  0  0
  4  9  2  0  0  0  0
  5  4  2  0  0  0  0
  6  4  1  0  0  0  0
  7  2  1  0  0  0  0
  8  3  1  0  0  0  0
 11  1  1  0  0  0  0
 12  7  1  0  0  0  0
 13  8  1  0  0  0  0
M  END
>  <HBA>
5

>  <HBD>
2

>  <TPSA>
75.27

>  <cid>
6211

>  <dipole>
9.62

>  <excitation_energy_1>
4.015

>  <excitation_energy_2>
4.234

>  <excitation_energy_3>
5.375

>  <excitation_energy_4>
5.543

>  <homo_energy>
-7.168

>  <homo_lumo_gap>
5.445

>  <logP>
-0.6

>  <lumo_energy>
-1.722

>  <melting_point>
126.21

>  <molecular_refractivity>
33.65

>  <oscillator_strength_1>
0.0

>  <oscillator_strength_2>
0.0

>  <oscillator_strength_3>
0.0013

>  <oscillator_strength_4>
0.0004

>  <open_babel_can_smiles>
OC1=N[C](=[N]=C(C1)O)=O

>  <mulliken_charges>
13
1   -0.513862
2   0.547626
3   0.547459
4   0.622877
5   -0.446256
6   -0.446273
7   -0.563418
8   -0.563331
9   -0.421693
10   0.204029
11   0.203615
12   0.414607
13   0.41462

>  <lowdin_charges>
13
1   -0.35494
2   0.146169
3   0.146502
4   0.175562
5   -0.177554
6   -0.177501
7   -0.324133
8   -0.323946
9   -0.198325
10   0.185046
11   0.184684
12   0.359953
13   0.358483

$$$$

