PCCDB-ID:  2237
public computational chemistry database (PCCDB) project, http://pccdb.org

 39 40  0  0  1  0  0  0  0  0999 V2000
    0.5955    0.5404   -0.1553 C   0  0  0  0  0  0  0  0  0  0  0  0
    2.5897   -0.5945   -1.0868 C   0  0  0  0  0  0  0  0  0  0  0  0
    5.5211    3.4404    2.5664 C   0  0  0  0  0  0  0  0  0  0  0  0
    3.3091    3.1230   -0.6810 C   0  0  0  0  0  0  0  0  0  0  0  0
    3.4283    5.6824    2.0029 C   0  0  0  0  0  0  0  0  0  0  0  0
    4.5970    5.2758    1.0945 C   0  0  0  0  0  0  0  0  0  0  0  0
    2.1755    4.8405    1.6984 C   0  0  0  0  0  0  0  0  0  0  0  0
    1.9171    1.0058    2.4529 C   0  0  0  0  0  0  0  0  0  0  0  0
    1.7298    2.5010    2.4147 C   0  0  0  0  0  0  0  0  0  0  0  0
    3.9414    1.3864    1.0360 C   0  0  0  0  0  0  0  0  0  0  0  0
    1.8777    0.1885   -0.0058 C   0  0  0  0  0  0  0  0  0  0  0  0
    4.9105    3.7633    1.1861 C   0  0  2  0  0  0  0  0  0  0  0  0
    2.7058    0.4681    1.2449 C   0  0  2  0  0  0  0  0  0  0  0  0
    2.4671    3.3529    1.6887 C   0  0  0  0  0  0  0  0  0  0  0  0
    3.6422    2.8960    0.8190 C   0  0  1  0  0  0  0  0  0  0  0  0
    0.0424    0.2790   -1.0544 H   0  0  0  0  0  0  0  0  0  0  0  0
    0.0536    1.1122    0.5910 H   0  0  0  0  0  0  0  0  0  0  0  0
    1.9176   -0.8329   -1.9168 H   0  0  0  0  0  0  0  0  0  0  0  0
    2.9932   -1.5373   -0.6923 H   0  0  0  0  0  0  0  0  0  0  0  0
    3.4416   -0.0371   -1.4966 H   0  0  0  0  0  0  0  0  0  0  0  0
    6.2404    4.2174    2.8515 H   0  0  0  0  0  0  0  0  0  0  0  0
    6.0623    2.4897    2.5703 H   0  0  0  0  0  0  0  0  0  0  0  0
    4.7581    3.3914    3.3514 H   0  0  0  0  0  0  0  0  0  0  0  0
    4.1757    2.8630   -1.3026 H   0  0  0  0  0  0  0  0  0  0  0  0
    3.0461    4.1601   -0.9041 H   0  0  0  0  0  0  0  0  0  0  0  0
    2.4664    2.4999   -0.9884 H   0  0  0  0  0  0  0  0  0  0  0  0
    3.2025    6.7489    1.8759 H   0  0  0  0  0  0  0  0  0  0  0  0
    3.7097    5.5464    3.0552 H   0  0  0  0  0  0  0  0  0  0  0  0
    5.4975    5.8439    1.3619 H   0  0  0  0  0  0  0  0  0  0  0  0
    4.3625    5.5508    0.0589 H   0  0  0  0  0  0  0  0  0  0  0  0
    1.7847    5.1449    0.7155 H   0  0  0  0  0  0  0  0  0  0  0  0
    1.3820    5.0576    2.4237 H   0  0  0  0  0  0  0  0  0  0  0  0
    0.9448    0.5042    2.5297 H   0  0  0  0  0  0  0  0  0  0  0  0
    2.4581    0.7325    3.3726 H   0  0  0  0  0  0  0  0  0  0  0  0
    0.9251    2.9037    3.0316 H   0  0  0  0  0  0  0  0  0  0  0  0
    4.5615    1.0228    0.2069 H   0  0  0  0  0  0  0  0  0  0  0  0
    4.5463    1.2631    1.9386 H   0  0  0  0  0  0  0  0  0  0  0  0
    5.6763    3.5383    0.4288 H   0  0  0  0  0  0  0  0  0  0  0  0
    3.1191   -0.5117    1.5335 H   0  0  0  0  0  0  0  0  0  0  0  0
  1 11  2  0  0  0  0
  1 17  1  0  0  0  0
  2 19  1  0  0  0  0
  2 11  1  0  0  0  0
  3 22  1  0  0  0  0
  3 21  1  0  0  0  0
  3 23  1  0  0  0  0
  5 28  1  0  0  0  0
  6 12  1  0  0  0  0
  6 29  1  0  0  0  0
  6  5  1  0  0  0  0
  7  5  1  0  0  0  0
  7 32  1  0  0  0  0
  8 33  1  0  0  0  0
  8 34  1  0  0  0  0
  9  8  1  0  0  0  0
  9 35  1  0  0  0  0
 10 13  1  0  0  0  0
 10 37  1  0  0  0  0
 11 13  1  0  0  0  0
 12 38  1  6  0  0  0
 12  3  1  0  0  0  0
 13 39  1  1  0  0  0
 13  8  1  0  0  0  0
 14  7  1  0  0  0  0
 14  9  2  0  0  0  0
 15  4  1  6  0  0  0
 15 10  1  0  0  0  0
 15 12  1  0  0  0  0
 15 14  1  0  0  0  0
 16  1  1  0  0  0  0
 18  2  1  0  0  0  0
 20  2  1  0  0  0  0
 24  4  1  0  0  0  0
 25  4  1  0  0  0  0
 26  4  1  0  0  0  0
 27  5  1  0  0  0  0
 30  6  1  0  0  0  0
 31  7  1  0  0  0  0
 36 10  1  0  0  0  0
M  END
>  <HBA>
0

>  <HBD>
0

>  <TPSA>
0.0

>  <cid>
2237

>  <dipole>
0.54

>  <excitation_energy_1>
5.366

>  <excitation_energy_2>
5.552

>  <excitation_energy_3>
5.817

>  <excitation_energy_4>
5.873

>  <homo_energy>
-5.962

>  <homo_lumo_gap>
6.686

>  <logP>
4.725

>  <lumo_energy>
0.724

>  <melting_point>
27.33

>  <molecular_refractivity>
68.78

>  <oscillator_strength_1>
0.0212

>  <oscillator_strength_2>
0.0088

>  <oscillator_strength_3>
0.0024

>  <oscillator_strength_4>
0.01

>  <open_babel_can_smiles>
CC(=C)[C@@H]1CC=C2[C@@](C1)(C)[C@H](C)CCC2

>  <mulliken_charges>
39
1   -0.403925
2   -0.514676
3   -0.46732
4   -0.47526
5   -0.260592
6   -0.276145
7   -0.336325
8   -0.310386
9   -0.206368
10   -0.303423
11   0.231128
12   -0.072055
13   -0.151241
14   0.199065
15   0.048267
16   0.127461
17   0.140417
18   0.151527
19   0.149249
20   0.157033
21   0.138049
22   0.145222
23   0.151595
24   0.131545
25   0.141917
26   0.165707
27   0.128695
28   0.136819
29   0.127906
30   0.132116
31   0.140852
32   0.134202
33   0.142339
34   0.14165
35   0.110078
36   0.127249
37   0.139674
38   0.113375
39   0.124579

>  <lowdin_charges>
39
1   -0.370515
2   -0.444485
3   -0.456184
4   -0.453902
5   -0.274459
6   -0.281453
7   -0.274197
8   -0.278055
9   -0.198339
10   -0.278377
11   0.006628
12   -0.125957
13   -0.123857
14   -0.016832
15   0.008734
16   0.152988
17   0.160549
18   0.156891
19   0.153083
20   0.156228
21   0.149196
22   0.148538
23   0.151847
24   0.143507
25   0.145641
26   0.163971
27   0.141246
28   0.140009
29   0.142475
30   0.139488
31   0.145204
32   0.147457
33   0.150794
34   0.150091
35   0.146373
36   0.143066
37   0.150674
38   0.136987
39   0.144946

$$$$

