PCCDB-ID:  6269
public computational chemistry database (PCCDB) project, http://pccdb.org

 20 20  0  0  0  0  0  0  0  0999 V2000
    0.9632   -0.1065   -0.0392 C   0  0  0  0  0  0  0  0  0  0  0  0
    3.1859   -1.1103   -0.7171 C   0  0  0  0  0  0  0  0  0  0  0  0
    3.1945    0.9501    0.5315 C   0  0  0  0  0  0  0  0  0  0  0  0
    4.5786   -1.0923   -0.7746 C   0  0  0  0  0  0  0  0  0  0  0  0
    4.5853    0.9844    0.4859 C   0  0  0  0  0  0  0  0  0  0  0  0
    2.4729   -0.0912   -0.0712 C   0  0  0  0  0  0  0  0  0  0  0  0
    5.2676   -0.0382   -0.1756 C   0  0  0  0  0  0  0  0  0  0  0  0
    7.3909    1.1519   -1.4210 N   0  0  0  0  0  0  0  0  0  0  0  0
    7.5490    0.5699    1.0264 O   0  0  0  0  0  0  0  0  0  0  0  0
    7.5045   -1.3265   -0.7008 O   0  0  0  0  0  0  0  0  0  0  0  0
    7.0568   -0.0126   -0.2254 S   0  0  0  0  0  0  0  0  0  0  0  0
    0.5743   -1.1281    0.0269 H   0  0  0  0  0  0  0  0  0  0  0  0
    0.5460    0.3414   -0.9510 H   0  0  0  0  0  0  0  0  0  0  0  0
    0.5739    0.4618    0.8113 H   0  0  0  0  0  0  0  0  0  0  0  0
    2.6453   -1.9345   -1.1762 H   0  0  0  0  0  0  0  0  0  0  0  0
    2.6591    1.7413    1.0507 H   0  0  0  0  0  0  0  0  0  0  0  0
    5.1301   -1.8899   -1.2606 H   0  0  0  0  0  0  0  0  0  0  0  0
    5.1370    1.7841    0.9690 H   0  0  0  0  0  0  0  0  0  0  0  0
    8.1515    1.7395   -1.0830 H   0  0  0  0  0  0  0  0  0  0  0  0
    7.6546    0.6904   -2.2901 H   0  0  0  0  0  0  0  0  0  0  0  0
  1 12  1  0  0  0  0
  1 14  1  0  0  0  0
  2  6  1  0  0  0  0
  3 16  1  0  0  0  0
  4  2  2  0  0  0  0
  4  7  1  0  0  0  0
  5  3  1  0  0  0  0
  5 18  1  0  0  0  0
  6  1  1  0  0  0  0
  6  3  2  0  0  0  0
  7  5  2  0  0  0  0
  8 19  1  0  0  0  0
  8 11  1  0  0  0  0
 10 11  2  0  0  0  0
 11  7  1  0  0  0  0
 11  9  2  0  0  0  0
 13  1  1  0  0  0  0
 15  2  1  0  0  0  0
 17  4  1  0  0  0  0
 20  8  1  0  0  0  0
M  END
>  <HBA>
3

>  <HBD>
1

>  <TPSA>
68.54

>  <cid>
6269

>  <dipole>
4.18

>  <excitation_energy_1>
5.164

>  <excitation_energy_2>
5.512

>  <excitation_energy_3>
6.177

>  <excitation_energy_4>
6.239

>  <homo_energy>
-6.983

>  <homo_lumo_gap>
6.055

>  <logP>
2.424

>  <lumo_energy>
-0.928

>  <melting_point>
96.55

>  <molecular_refractivity>
42.4

>  <oscillator_strength_1>
0.0036

>  <oscillator_strength_2>
0.1757

>  <oscillator_strength_3>
0.0022

>  <oscillator_strength_4>
0.0048

>  <open_babel_can_smiles>
Cc1ccc(cc1)S(=O)(=O)N

>  <mulliken_charges>
20
1   -0.531076
2   -0.17419
3   -0.177207
4   -0.141685
5   -0.126451
6   0.181637
7   -0.143212
8   -0.815641
9   -0.542898
10   -0.527317
11   1.164585
12   0.165278
13   0.173484
14   0.163326
15   0.136165
16   0.136606
17   0.178687
18   0.172324
19   0.356831
20   0.350754

>  <lowdin_charges>
20
1   -0.44276
2   -0.162747
3   -0.162195
4   -0.138719
5   -0.129132
6   0.018997
7   -0.187672
8   -0.696323
9   -0.593349
10   -0.593569
11   1.307085
12   0.16225
13   0.167559
14   0.162519
15   0.162724
16   0.163036
17   0.184068
18   0.181412
19   0.300601
20   0.296214

$$$$

