PCCDB-ID:  286
public computational chemistry database (PCCDB) project, http://pccdb.org

 11 10  0  0  0  0  0  0  0  0999 V2000
    0.7981    0.4700   -0.2766 C   0  0  0  0  0  0  0  0  0  0  0  0
   -0.2236    1.1214   -1.2241 C   0  0  0  0  0  0  0  0  0  0  0  0
    2.7414    1.4098   -1.2130 N   0  0  0  0  0  0  0  0  0  0  0  0
   -1.3983    0.8487   -1.1535 O   0  0  0  0  0  0  0  0  0  0  0  0
    0.2599    2.0364   -2.0766 O   0  0  0  0  0  0  0  0  0  0  0  0
    2.0830    0.1825   -0.8326 O   0  0  0  0  0  0  0  0  0  0  0  0
    0.4044   -0.5012    0.0258 H   0  0  0  0  0  0  0  0  0  0  0  0
    0.8977    1.0996    0.6222 H   0  0  0  0  0  0  0  0  0  0  0  0
    3.3806    1.0947   -1.9436 H   0  0  0  0  0  0  0  0  0  0  0  0
    3.3271    1.6656   -0.4114 H   0  0  0  0  0  0  0  0  0  0  0  0
    1.2334    2.1279   -1.9121 H   0  0  0  0  0  0  0  0  0  0  0  0
  1  7  1  0  0  0  0
  1  8  1  0  0  0  0
  2  4  2  0  0  0  0
  2  1  1  0  0  0  0
  3  6  1  0  0  0  0
  3 10  1  0  0  0  0
  5 11  1  0  0  0  0
  5  2  1  0  0  0  0
  6  1  1  0  0  0  0
  9  3  1  0  0  0  0
M  END
>  <HBA>
4

>  <HBD>
2

>  <TPSA>
72.55

>  <cid>
286

>  <dipole>
5.81

>  <excitation_energy_1>
5.452

>  <excitation_energy_2>
6.116

>  <excitation_energy_3>
6.478

>  <excitation_energy_4>
6.781

>  <homo_energy>
-6.876

>  <homo_lumo_gap>
7.244

>  <logP>
-0.338

>  <lumo_energy>
0.367

>  <melting_point>
100.9

>  <molecular_refractivity>
17.29

>  <oscillator_strength_1>
0.0019

>  <oscillator_strength_2>
0.0138

>  <oscillator_strength_3>
0.0036

>  <oscillator_strength_4>
0.003

>  <open_babel_can_smiles>
NOCC(=O)O

>  <mulliken_charges>
11
1   -0.132635
2   0.572834
3   -0.517529
4   -0.444891
5   -0.580084
6   -0.386295
7   0.19877
8   0.160595
9   0.351106
10   0.33568
11   0.442449

>  <lowdin_charges>
11
1   -0.176475
2   0.171559
3   -0.390783
4   -0.248679
5   -0.361306
6   -0.234094
7   0.183703
8   0.154048
9   0.281834
10   0.269878
11   0.350315

$$$$

