PCCDB-ID:  5425
public computational chemistry database (PCCDB) project, http://pccdb.org

 17 16  0  0  1  0  0  0  0  0999 V2000
    0.7158    0.6829   -0.5142 C   0  0  1  0  0  0  0  0  0  0  0  0
    0.1984    2.0855   -0.0033 C   0  0  1  0  0  0  0  0  0  0  0  0
    1.2268    0.7845   -1.9679 C   0  0  0  0  0  0  0  0  0  0  0  0
   -1.3026    2.2076   -0.2690 C   0  0  0  0  0  0  0  0  0  0  0  0
    1.7570    0.2248    0.3991 N   0  0  0  0  0  0  0  0  0  0  0  0
    0.4319    2.2247    1.3782 O   0  0  0  0  0  0  0  0  0  0  0  0
    2.3662    0.4857   -2.2511 O   0  0  0  0  0  0  0  0  0  0  0  0
    0.3573    1.2335   -2.8710 O   0  0  0  0  0  0  0  0  0  0  0  0
   -1.7830    2.0461   -1.3801 O   0  0  0  0  0  0  0  0  0  0  0  0
   -2.0400    2.4694    0.8004 O   0  0  0  0  0  0  0  0  0  0  0  0
   -0.1243   -0.0200   -0.4916 H   0  0  0  0  0  0  0  0  0  0  0  0
    0.7013    2.8910   -0.5595 H   0  0  0  0  0  0  0  0  0  0  0  0
    2.6591    0.3468   -0.0659 H   0  0  0  0  0  0  0  0  0  0  0  0
    1.6604   -0.7688    0.5891 H   0  0  0  0  0  0  0  0  0  0  0  0
    1.0960    1.5109    1.5732 H   0  0  0  0  0  0  0  0  0  0  0  0
   -0.5082    1.4889   -2.4527 H   0  0  0  0  0  0  0  0  0  0  0  0
   -1.4068    2.4985    1.5569 H   0  0  0  0  0  0  0  0  0  0  0  0
  1 11  1  1  0  0  0
  1  2  1  0  0  0  0
  1  5  1  0  0  0  0
  2 12  1  6  0  0  0
  2  6  1  0  0  0  0
  3  1  1  0  0  0  0
  4  2  1  0  0  0  0
  4 10  1  0  0  0  0
  5 14  1  0  0  0  0
  6 15  1  0  0  0  0
  7  3  2  0  0  0  0
  8 16  1  0  0  0  0
  8  3  1  0  0  0  0
  9  4  2  0  0  0  0
 10 17  1  0  0  0  0
 13  5  1  0  0  0  0
M  END
>  <HBA>
6

>  <HBD>
4

>  <TPSA>
120.85

>  <cid>
5425

>  <dipole>
4.09

>  <excitation_energy_1>
5.708

>  <excitation_energy_2>
5.776

>  <excitation_energy_3>
6.36

>  <excitation_energy_4>
6.633

>  <homo_energy>
-7.706

>  <homo_lumo_gap>
7.11

>  <logP>
-1.456

>  <lumo_energy>
-0.596

>  <melting_point>
201.95

>  <molecular_refractivity>
28.75

>  <oscillator_strength_1>
0.0014

>  <oscillator_strength_2>
0.0008

>  <oscillator_strength_3>
0.0145

>  <oscillator_strength_4>
0.005

>  <open_babel_can_smiles>
OC(=O)[C@H]([C@@H](C(=O)O)N)O

>  <mulliken_charges>
17
1   -0.132955
2   0.050437
3   0.600156
4   0.615813
5   -0.760984
6   -0.675946
7   -0.458185
8   -0.583088
9   -0.489563
10   -0.552999
11   0.183854
12   0.184611
13   0.348108
14   0.333839
15   0.436434
16   0.452011
17   0.448454

>  <lowdin_charges>
17
1   -0.126632
2   -0.057834
3   0.174526
4   0.189792
5   -0.52481
6   -0.47112
7   -0.254821
8   -0.343305
9   -0.272069
10   -0.310073
11   0.169639
12   0.166519
13   0.28336
14   0.277185
15   0.35719
16   0.36601
17   0.376447

$$$$

