PCCDB-ID:  597
public computational chemistry database (PCCDB) project, http://pccdb.org

 13 13  0  0  0  0  0  0  0  0999 V2000
   -1.3848   -0.0095   -0.0168 C   0  0  0  0  0  0  0  0  0  0  0  0
   -0.6919    1.1598    0.0138 C   0  0  0  0  0  0  0  0  0  0  0  0
   -0.6770   -1.2787   -0.0619 C   0  0  0  0  0  0  0  0  0  0  0  0
    1.3126    0.1222   -0.0340 C   0  0  0  0  0  0  0  0  0  0  0  0
   -1.0981   -2.4909   -0.0982 N   0  0  0  0  0  0  0  0  0  0  0  0
    0.6839    1.2608    0.0055 N   0  0  0  0  0  0  0  0  0  0  0  0
    0.7261   -1.0944   -0.0666 N   0  0  0  0  0  0  0  0  0  0  0  0
    2.6546    0.0801   -0.0461 O   0  0  0  0  0  0  0  0  0  0  0  0
   -2.4690   -0.0204   -0.0079 H   0  0  0  0  0  0  0  0  0  0  0  0
   -1.2160    2.1118    0.0474 H   0  0  0  0  0  0  0  0  0  0  0  0
   -2.1190   -2.5050   -0.0898 H   0  0  0  0  0  0  0  0  0  0  0  0
    1.2941   -1.9339   -0.0979 H   0  0  0  0  0  0  0  0  0  0  0  0
    2.9456    1.0097   -0.0202 H   0  0  0  0  0  0  0  0  0  0  0  0
  1  9  1  0  0  0  0
  1  2  2  0  0  0  0
  2 10  1  0  0  0  0
  3  1  1  0  0  0  0
  4  6  2  0  0  0  0
  5 11  1  0  0  0  0
  5  3  2  0  0  0  0
  6  2  1  0  0  0  0
  7  3  1  0  0  0  0
  7  4  1  0  0  0  0
  8  4  1  0  0  0  0
  8 13  1  0  0  0  0
 12  7  1  0  0  0  0
M  END
>  <HBA>
3

>  <HBD>
2

>  <TPSA>
71.77

>  <cid>
597

>  <dipole>
1.75

>  <excitation_energy_1>
4.374

>  <excitation_energy_2>
5.129

>  <excitation_energy_3>
5.331

>  <excitation_energy_4>
5.647

>  <homo_energy>
-5.804

>  <homo_lumo_gap>
5.042

>  <logP>
-0.067

>  <lumo_energy>
-0.762

>  <melting_point>
150.69

>  <molecular_refractivity>
29.26

>  <oscillator_strength_1>
0.0857

>  <oscillator_strength_2>
0.0

>  <oscillator_strength_3>
0.0025

>  <oscillator_strength_4>
0.0004

>  <open_babel_can_smiles>
Oc1nccc(=N)[nH]1

>  <mulliken_charges>
13
1   -0.193546
2   0.033505
3   0.491911
4   0.733018
5   -0.667927
6   -0.518541
7   -0.642382
8   -0.59768
9   0.138694
10   0.151421
11   0.283755
12   0.356247
13   0.431524

>  <lowdin_charges>
13
1   -0.24203
2   -0.064872
3   0.096802
4   0.186752
5   -0.449159
6   -0.255076
7   -0.200596
8   -0.34383
9   0.168082
10   0.164162
11   0.253958
12   0.310388
13   0.37542

$$$$

