PCCDB-ID:  1893
public computational chemistry database (PCCDB) project, http://pccdb.org

 17 18  0  0  0  0  0  0  0  0999 V2000
    2.1020    0.6846   -0.2775 C   0  0  0  0  0  0  0  0  0  0  0  0
    0.9499    1.4308   -0.1618 C   0  0  0  0  0  0  0  0  0  0  0  0
    2.0622   -0.7319   -0.2276 C   0  0  0  0  0  0  0  0  0  0  0  0
   -1.6057    1.1619    0.1573 C   0  0  0  0  0  0  0  0  0  0  0  0
   -0.2776    0.7511    0.0094 C   0  0  0  0  0  0  0  0  0  0  0  0
    0.8785   -1.4172   -0.0618 C   0  0  0  0  0  0  0  0  0  0  0  0
   -0.3446   -0.6917    0.0634 C   0  0  0  0  0  0  0  0  0  0  0  0
   -2.3176    0.0244    0.2796 N   0  0  0  0  0  0  0  0  0  0  0  0
   -1.6092   -1.1209    0.2301 N   0  0  0  0  0  0  0  0  0  0  0  0
    0.9231   -2.8801   -0.0191 N   0  0  0  0  0  0  0  0  0  0  0  0
    2.0241   -3.4263   -0.1428 O   0  0  0  0  0  0  0  0  0  0  0  0
   -0.1383   -3.4784    0.1377 O   0  0  0  0  0  0  0  0  0  0  0  0
    3.0609    1.1755   -0.4101 H   0  0  0  0  0  0  0  0  0  0  0  0
    0.9813    2.5160   -0.2008 H   0  0  0  0  0  0  0  0  0  0  0  0
    2.9736   -1.3101   -0.3191 H   0  0  0  0  0  0  0  0  0  0  0  0
   -2.0657    2.1388    0.1798 H   0  0  0  0  0  0  0  0  0  0  0  0
   -3.3179   -0.0523    0.4051 H   0  0  0  0  0  0  0  0  0  0  0  0
  1  3  1  0  0  0  0
  1  2  2  0  0  0  0
  2  5  1  0  0  0  0
  3  6  2  0  0  0  0
  4 16  1  0  0  0  0
  4  8  1  0  0  0  0
  5  7  1  0  0  0  0
  5  4  2  0  0  0  0
  6 10  1  0  0  0  0
  6  7  1  0  0  0  0
  7  9  2  0  0  0  0
  8 17  1  0  0  0  0
  9  8  1  0  0  0  0
 10 12  2  0  0  0  0
 11 10  2  0  0  0  0
 13  1  1  0  0  0  0
 14  2  1  0  0  0  0
 15  3  1  0  0  0  0
M  END
>  <HBA>
1

>  <HBD>
1

>  <TPSA>
74.5

>  <cid>
1893

>  <dipole>
7.23

>  <excitation_energy_1>
3.472

>  <excitation_energy_2>
3.519

>  <excitation_energy_3>
4.05

>  <excitation_energy_4>
4.286

>  <homo_energy>
-6.376

>  <homo_lumo_gap>
4.0

>  <logP>
1.994

>  <lumo_energy>
-2.376

>  <melting_point>
150.23

>  <molecular_refractivity>
44.92

>  <oscillator_strength_1>
0.1542

>  <oscillator_strength_2>
0.0

>  <oscillator_strength_3>
0.0003

>  <oscillator_strength_4>
0.0451

>  <open_babel_can_smiles>
O=N(=O)c1cccc2c1n[nH]c2

>  <mulliken_charges>
17
1   -0.146046
2   -0.168744
3   -0.182647
4   0.034058
5   0.032634
6   0.297044
7   0.288289
8   -0.371762
9   -0.368957
10   0.363324
11   -0.412034
12   -0.383336
13   0.146317
14   0.147026
15   0.185989
16   0.178477
17   0.360369

>  <lowdin_charges>
17
1   -0.166319
2   -0.123808
3   -0.129781
4   -0.144129
5   -0.048032
6   -0.003597
7   0.008379
8   -0.067629
9   -0.146765
10   0.307478
11   -0.265783
12   -0.227146
13   0.167444
14   0.165407
15   0.190625
16   0.181333
17   0.302322

$$$$

