PCCDB-ID:  5455
public computational chemistry database (PCCDB) project, http://pccdb.org

 24 23  0  0  0  0  0  0  0  0999 V2000
    0.5080    0.0323    4.2636 C   0  0  0  0  0  0  0  0  0  0  0  0
    1.4840    0.9870    2.1391 C   0  0  0  0  0  0  0  0  0  0  0  0
    3.9776   -3.6179    1.9878 C   0  0  0  0  0  0  0  0  0  0  0  0
    5.8659   -4.5777    0.7205 C   0  0  0  0  0  0  0  0  0  0  0  0
    2.7616   -0.5599    3.5896 C   0  0  0  0  0  0  0  0  0  0  0  0
    6.2717   -2.6577    2.1360 C   0  0  0  0  0  0  0  0  0  0  0  0
    1.6323    0.1347    3.3253 N   0  0  0  0  0  0  0  0  0  0  0  0
    5.3819   -3.4982    1.5855 N   0  0  0  0  0  0  0  0  0  0  0  0
    2.9802   -1.5227    4.9276 S   0  0  0  0  0  0  0  0  0  0  0  0
    7.9305   -2.8431    2.1468 S   0  0  0  0  0  0  0  0  0  0  0  0
    4.0374   -0.2977    2.2904 S   0  0  0  0  0  0  0  0  0  0  0  0
    5.8277   -1.1419    3.0097 S   0  0  0  0  0  0  0  0  0  0  0  0
    0.8084    0.3748    5.2583 H   0  0  0  0  0  0  0  0  0  0  0  0
    0.1790   -1.0073    4.3546 H   0  0  0  0  0  0  0  0  0  0  0  0
   -0.3133    0.6479    3.8939 H   0  0  0  0  0  0  0  0  0  0  0  0
    0.5122    1.4788    2.1808 H   0  0  0  0  0  0  0  0  0  0  0  0
    1.5345    0.3994    1.2152 H   0  0  0  0  0  0  0  0  0  0  0  0
    2.2614    1.7575    2.1073 H   0  0  0  0  0  0  0  0  0  0  0  0
    3.3085   -3.2292    1.2125 H   0  0  0  0  0  0  0  0  0  0  0  0
    3.7968   -3.0980    2.9276 H   0  0  0  0  0  0  0  0  0  0  0  0
    3.7593   -4.6800    2.1423 H   0  0  0  0  0  0  0  0  0  0  0  0
    6.1942   -5.4400    1.3134 H   0  0  0  0  0  0  0  0  0  0  0  0
    6.7089   -4.2269    0.1245 H   0  0  0  0  0  0  0  0  0  0  0  0
    5.0463   -4.8790    0.0622 H   0  0  0  0  0  0  0  0  0  0  0  0
  1 14  1  0  0  0  0
  1 13  1  0  0  0  0
  2 16  1  0  0  0  0
  2  7  1  0  0  0  0
  3 21  1  0  0  0  0
  3 20  1  0  0  0  0
  4 22  1  0  0  0  0
  4  8  1  0  0  0  0
  5  9  2  0  0  0  0
  6 10  2  0  0  0  0
  6 12  1  0  0  0  0
  7  5  1  0  0  0  0
  7  1  1  0  0  0  0
  8  3  1  0  0  0  0
  8  6  1  0  0  0  0
 11 12  1  0  0  0  0
 11  5  1  0  0  0  0
 15  1  1  0  0  0  0
 17  2  1  0  0  0  0
 18  2  1  0  0  0  0
 19  3  1  0  0  0  0
 23  4  1  0  0  0  0
 24  4  1  0  0  0  0
M  END
>  <HBA>
6

>  <HBD>
0

>  <TPSA>
121.26

>  <cid>
5455

>  <dipole>
7.54

>  <excitation_energy_1>
3.188

>  <excitation_energy_2>
3.54

>  <excitation_energy_3>
3.625

>  <excitation_energy_4>
3.856

>  <homo_energy>
-5.823

>  <homo_lumo_gap>
4.27

>  <logP>
2.061

>  <lumo_energy>
-1.554

>  <melting_point>
57.37

>  <molecular_refractivity>
67.51

>  <oscillator_strength_1>
0.0044

>  <oscillator_strength_2>
0.0

>  <oscillator_strength_3>
0.001

>  <oscillator_strength_4>
0.0085

>  <open_babel_can_smiles>
CN(C(=S)SSC(=S)N(C)C)C

>  <mulliken_charges>
24
1   -0.311908
2   -0.341665
3   -0.342204
4   -0.320064
5   -0.040075
6   -0.044289
7   -0.326008
8   -0.302722
9   -0.195645
10   -0.17215
11   0.011872
12   0.153517
13   0.200128
14   0.194764
15   0.154672
16   0.174674
17   0.192267
18   0.205959
19   0.173887
20   0.213732
21   0.170749
22   0.185171
23   0.203245
24   0.162095

>  <lowdin_charges>
24
1   -0.34711
2   -0.359824
3   -0.357435
4   -0.350875
5   -0.170346
6   -0.1718
7   -0.064017
8   -0.054063
9   -0.192876
10   -0.155085
11   0.027474
12   0.156261
13   0.17554
14   0.172411
15   0.157257
16   0.168234
17   0.168574
18   0.17696
19   0.161225
20   0.188916
21   0.160523
22   0.16734
23   0.183155
24   0.159561

$$$$

