PCCDB-ID:  3221
public computational chemistry database (PCCDB) project, http://pccdb.org

 34 35  0  0  0  0  0  0  0  0999 V2000
    2.0133   -0.6750   -1.8666 C   0  0  0  0  0  0  0  0  0  0  0  0
    8.5903    0.0362   -1.3109 C   0  0  0  0  0  0  0  0  0  0  0  0
    3.2784   -0.4334   -1.0652 C   0  0  0  0  0  0  0  0  0  0  0  0
    2.9018    2.9450    0.2240 C   0  0  0  0  0  0  0  0  0  0  0  0
    4.3340    4.7273   -0.6064 C   0  0  0  0  0  0  0  0  0  0  0  0
    2.2426    3.9801    1.1368 C   0  0  0  0  0  0  0  0  0  0  0  0
    3.6063    5.6977    0.3220 C   0  0  0  0  0  0  0  0  0  0  0  0
    6.6253    2.7961   -0.1663 C   0  0  0  0  0  0  0  0  0  0  0  0
    5.2564    2.4507   -0.4403 C   0  0  0  0  0  0  0  0  0  0  0  0
    5.0360    1.2208   -1.0355 C   0  0  0  0  0  0  0  0  0  0  0  0
    6.1638    0.3482   -1.3583 C   0  0  0  0  0  0  0  0  0  0  0  0
    7.6577    2.0464   -0.4275 N   0  0  0  0  0  0  0  0  0  0  0  0
    7.4188    0.8502   -0.9942 N   0  0  0  0  0  0  0  0  0  0  0  0
    4.2771    3.3701   -0.0458 N   0  0  0  0  0  0  0  0  0  0  0  0
    6.0823   -0.7424   -1.9314 O   0  0  0  0  0  0  0  0  0  0  0  0
    2.2707    5.2788    0.5588 O   0  0  0  0  0  0  0  0  0  0  0  0
    3.7938    0.8626   -1.4577 O   0  0  0  0  0  0  0  0  0  0  0  0
    1.5757   -1.6403   -1.5891 H   0  0  0  0  0  0  0  0  0  0  0  0
    2.2389   -0.6926   -2.9373 H   0  0  0  0  0  0  0  0  0  0  0  0
    1.2699    0.1078   -1.6819 H   0  0  0  0  0  0  0  0  0  0  0  0
    8.4736   -0.9625   -0.8834 H   0  0  0  0  0  0  0  0  0  0  0  0
    9.4570    0.5416   -0.8871 H   0  0  0  0  0  0  0  0  0  0  0  0
    8.7001   -0.0680   -2.3945 H   0  0  0  0  0  0  0  0  0  0  0  0
    4.0327   -1.1952   -1.2651 H   0  0  0  0  0  0  0  0  0  0  0  0
    3.0662   -0.4089    0.0138 H   0  0  0  0  0  0  0  0  0  0  0  0
    2.3152    2.8405   -0.6995 H   0  0  0  0  0  0  0  0  0  0  0  0
    2.9202    1.9745    0.7273 H   0  0  0  0  0  0  0  0  0  0  0  0
    5.3760    5.0361   -0.7266 H   0  0  0  0  0  0  0  0  0  0  0  0
    3.8604    4.7513   -1.6029 H   0  0  0  0  0  0  0  0  0  0  0  0
    2.7515    3.9900    2.1149 H   0  0  0  0  0  0  0  0  0  0  0  0
    1.1875    3.7338    1.2903 H   0  0  0  0  0  0  0  0  0  0  0  0
    3.5455    6.6910   -0.1331 H   0  0  0  0  0  0  0  0  0  0  0  0
    4.1551    5.7761    1.2754 H   0  0  0  0  0  0  0  0  0  0  0  0
    6.8512    3.7343    0.3309 H   0  0  0  0  0  0  0  0  0  0  0  0
  1 20  1  0  0  0  0
  1 18  1  0  0  0  0
  1  3  1  0  0  0  0
  2 13  1  0  0  0  0
  2 22  1  0  0  0  0
  2 21  1  0  0  0  0
  3 25  1  0  0  0  0
  4 27  1  0  0  0  0
  4  6  1  0  0  0  0
  5 14  1  0  0  0  0
  5  7  1  0  0  0  0
  6 31  1  0  0  0  0
  6 30  1  0  0  0  0
  7 16  1  0  0  0  0
  7 33  1  0  0  0  0
  8 34  1  0  0  0  0
  9  8  1  0  0  0  0
  9 14  1  0  0  0  0
 10  9  2  0  0  0  0
 11 10  1  0  0  0  0
 11 13  1  0  0  0  0
 12  8  2  0  0  0  0
 13 12  1  0  0  0  0
 14  4  1  0  0  0  0
 15 11  2  0  0  0  0
 16  6  1  0  0  0  0
 17  3  1  0  0  0  0
 17 10  1  0  0  0  0
 19  1  1  0  0  0  0
 23  2  1  0  0  0  0
 24  3  1  0  0  0  0
 26  4  1  0  0  0  0
 28  5  1  0  0  0  0
 29  5  1  0  0  0  0
 32  7  1  0  0  0  0
M  END
>  <HBA>
6

>  <HBD>
0

>  <TPSA>
56.59

>  <cid>
3221

>  <dipole>
1.93

>  <excitation_energy_1>
4.104

>  <excitation_energy_2>
4.395

>  <excitation_energy_3>
4.542

>  <excitation_energy_4>
5.089

>  <homo_energy>
-5.695

>  <homo_lumo_gap>
4.612

>  <logP>
0.081

>  <lumo_energy>
-1.083

>  <melting_point>
84.52

>  <molecular_refractivity>
66.78

>  <oscillator_strength_1>
0.0965

>  <oscillator_strength_2>
0.007

>  <oscillator_strength_3>
0.0862

>  <oscillator_strength_4>
0.2372

>  <open_babel_can_smiles>
CCOc1c(cnn(c1=O)C)N1CCOCC1

>  <mulliken_charges>
34
1   -0.458806
2   -0.299115
3   -0.04615
4   -0.128125
5   -0.152252
6   -0.037922
7   -0.028847
8   -0.009805
9   0.300358
10   0.25492
11   0.590564
12   -0.252845
13   -0.313358
14   -0.520946
15   -0.558125
16   -0.465716
17   -0.529841
18   0.148949
19   0.168777
20   0.152019
21   0.182285
22   0.178443
23   0.180665
24   0.1954
25   0.122583
26   0.157767
27   0.150894
28   0.153422
29   0.15055
30   0.128307
31   0.149531
32   0.150663
33   0.128468
34   0.157289

>  <lowdin_charges>
34
1   -0.446758
2   -0.34484
3   -0.126113
4   -0.209534
5   -0.204852
6   -0.136758
7   -0.137678
8   -0.145325
9   0.0182
10   0.03378
11   0.120678
12   -0.090117
13   0.004451
14   -0.137392
15   -0.331972
16   -0.271446
17   -0.207744
18   0.157673
19   0.160825
20   0.153252
21   0.169395
22   0.172164
23   0.165641
24   0.170169
25   0.12573
26   0.146391
27   0.158038
28   0.156964
29   0.139966
30   0.130872
31   0.15267
32   0.153856
33   0.131475
34   0.168336

$$$$

