PCCDB-ID:  2346
public computational chemistry database (PCCDB) project, http://pccdb.org

 17 17  0  0  0  0  0  0  0  0999 V2000
   -1.7708    0.1637    0.0433 C   0  0  0  0  0  0  0  0  0  0  0  0
   -0.9737    1.3094    0.0728 C   0  0  0  0  0  0  0  0  0  0  0  0
   -1.1737   -1.0985    0.0313 C   0  0  0  0  0  0  0  0  0  0  0  0
    0.4164    1.1927    0.0891 C   0  0  0  0  0  0  0  0  0  0  0  0
    0.2160   -1.2132    0.0496 C   0  0  0  0  0  0  0  0  0  0  0  0
    2.5329   -0.1968    0.0806 C   0  0  0  0  0  0  0  0  0  0  0  0
    2.9776   -0.4949   -2.4084 C   0  0  0  0  0  0  0  0  0  0  0  0
    1.0216   -0.0690    0.0775 C   0  0  0  0  0  0  0  0  0  0  0  0
    3.1017   -0.2726   -1.2424 N   0  0  0  0  0  0  0  0  0  0  0  0
    2.9336   -0.7658   -3.9780 S   0  0  0  0  0  0  0  0  0  0  0  0
   -2.8535    0.2536    0.0328 H   0  0  0  0  0  0  0  0  0  0  0  0
   -1.4334    2.2938    0.0855 H   0  0  0  0  0  0  0  0  0  0  0  0
   -1.7897   -1.9933    0.0121 H   0  0  0  0  0  0  0  0  0  0  0  0
    1.0359    2.0864    0.1110 H   0  0  0  0  0  0  0  0  0  0  0  0
    0.6788   -2.1975    0.0420 H   0  0  0  0  0  0  0  0  0  0  0  0
    2.8424   -1.0967    0.6260 H   0  0  0  0  0  0  0  0  0  0  0  0
    2.9912    0.6583    0.5887 H   0  0  0  0  0  0  0  0  0  0  0  0
  1  2  1  0  0  0  0
  2 12  1  0  0  0  0
  2  4  2  0  0  0  0
  3  1  2  0  0  0  0
  3  5  1  0  0  0  0
  4 14  1  0  0  0  0
  5  8  2  0  0  0  0
  6 17  1  0  0  0  0
  6 16  1  0  0  0  0
  7  9  2  0  0  0  0
  8  6  1  0  0  0  0
  8  4  1  0  0  0  0
  9  6  1  0  0  0  0
 10  7  2  0  0  0  0
 11  1  1  0  0  0  0
 13  3  1  0  0  0  0
 15  5  1  0  0  0  0
M  END
>  <HBA>
2

>  <HBD>
0

>  <TPSA>
44.45

>  <cid>
2346

>  <dipole>
3.88

>  <excitation_energy_1>
4.54

>  <excitation_energy_2>
5.017

>  <excitation_energy_3>
5.215

>  <excitation_energy_4>
5.353

>  <homo_energy>
-6.553

>  <homo_lumo_gap>
5.785

>  <logP>
2.289

>  <lumo_energy>
-0.767

>  <melting_point>
55.9

>  <molecular_refractivity>
45.38

>  <oscillator_strength_1>
0.0005

>  <oscillator_strength_2>
0.0472

>  <oscillator_strength_3>
0.0028

>  <oscillator_strength_4>
0.0074

>  <open_babel_can_smiles>
S=C=NCc1ccccc1

>  <mulliken_charges>
17
1   -0.124732
2   -0.127021
3   -0.126854
4   -0.168169
5   -0.167282
6   -0.236807
7   0.222608
8   0.149361
9   -0.341126
10   -0.131683
11   0.13767
12   0.138265
13   0.13879
14   0.135691
15   0.136678
16   0.182681
17   0.181931

>  <lowdin_charges>
17
1   -0.146089
2   -0.15017
3   -0.150683
4   -0.157409
5   -0.156293
6   -0.167942
7   -0.045685
8   -0.01753
9   -0.105928
10   -0.047327
11   0.159793
12   0.161716
13   0.162859
14   0.160816
15   0.160299
16   0.169902
17   0.169669

$$$$

