PCCDB-ID:  587
public computational chemistry database (PCCDB) project, http://pccdb.org

 23 22  0  0  0  0  0  0  0  0999 V2000
    1.2472   -0.3015    1.6845 C   0  0  0  0  0  0  0  0  0  0  0  0
    3.6566   -0.5835    1.2138 C   0  0  0  0  0  0  0  0  0  0  0  0
    3.8075   -2.1179    1.1187 C   0  0  0  0  0  0  0  0  0  0  0  0
    2.1781    0.1013   -0.5985 C   0  0  0  0  0  0  0  0  0  0  0  0
    3.0045   -0.4026   -1.4475 N   0  0  0  0  0  0  0  0  0  0  0  0
    1.0639    0.9020   -0.9238 N   0  0  0  0  0  0  0  0  0  0  0  0
    2.3575   -0.0830    0.7552 N   0  0  0  0  0  0  0  0  0  0  0  0
    3.9326   -2.8092    2.1064 O   0  0  0  0  0  0  0  0  0  0  0  0
    3.7826   -2.6181   -0.1185 O   0  0  0  0  0  0  0  0  0  0  0  0
   -1.0291    0.0437   -2.3773 O   0  0  0  0  0  0  0  0  0  0  0  0
   -0.3593    2.4383   -2.2188 O   0  0  0  0  0  0  0  0  0  0  0  0
    1.1720    0.6916   -3.5755 O   0  0  0  0  0  0  0  0  0  0  0  0
    0.2993    0.9806   -2.4162 P   0  0  0  0  0  0  0  0  0  0  0  0
    1.2647   -1.3315    2.0616 H   0  0  0  0  0  0  0  0  0  0  0  0
    0.2908   -0.1424    1.1848 H   0  0  0  0  0  0  0  0  0  0  0  0
    1.3215    0.3778    2.5426 H   0  0  0  0  0  0  0  0  0  0  0  0
    4.4364   -0.0982    0.6195 H   0  0  0  0  0  0  0  0  0  0  0  0
    3.7761   -0.3079    2.2638 H   0  0  0  0  0  0  0  0  0  0  0  0
    2.8539   -0.0606   -2.3960 H   0  0  0  0  0  0  0  0  0  0  0  0
    0.7143    1.5200   -0.2015 H   0  0  0  0  0  0  0  0  0  0  0  0
    3.6259   -1.8741   -0.7779 H   0  0  0  0  0  0  0  0  0  0  0  0
   -0.9059   -0.7214   -2.9650 H   0  0  0  0  0  0  0  0  0  0  0  0
   -1.1458    2.5575   -2.7768 H   0  0  0  0  0  0  0  0  0  0  0  0
  1 14  1  0  0  0  0
  1 16  1  0  0  0  0
  2 18  1  0  0  0  0
  3  2  1  0  0  0  0
  3  8  2  0  0  0  0
  4  7  1  0  0  0  0
  5  4  2  0  0  0  0
  6  4  1  0  0  0  0
  6 20  1  0  0  0  0
  7  2  1  0  0  0  0
  7  1  1  0  0  0  0
  9  3  1  0  0  0  0
 12 13  2  0  0  0  0
 13 10  1  0  0  0  0
 13 11  1  0  0  0  0
 13  6  1  0  0  0  0
 15  1  1  0  0  0  0
 17  2  1  0  0  0  0
 19  5  1  0  0  0  0
 21  9  1  0  0  0  0
 22 10  1  0  0  0  0
 23 11  1  0  0  0  0
M  END
>  <HBA>
8

>  <HBD>
4

>  <TPSA>
146.26

>  <cid>
587

>  <dipole>
7.73

>  <excitation_energy_1>
5.088

>  <excitation_energy_2>
5.353

>  <excitation_energy_3>
5.751

>  <excitation_energy_4>
5.848

>  <homo_energy>
-6.397

>  <homo_lumo_gap>
6.637

>  <logP>
-0.889

>  <lumo_energy>
0.239

>  <melting_point>
213.0

>  <molecular_refractivity>
43.39

>  <oscillator_strength_1>
0.008

>  <oscillator_strength_2>
0.0007

>  <oscillator_strength_3>
0.0359

>  <oscillator_strength_4>
0.0062

>  <open_babel_can_smiles>
OC(=O)CN(C(=N)NP(=O)(O)O)C

>  <mulliken_charges>
23
1   -0.337918
2   -0.251773
3   0.579986
4   0.695486
5   -0.739494
6   -0.719501
7   -0.43023
8   -0.461987
9   -0.586676
10   -0.64089
11   -0.639726
12   -0.542163
13   1.115832
14   0.194267
15   0.169002
16   0.168492
17   0.193303
18   0.174785
19   0.343728
20   0.367583
21   0.450552
22   0.448891
23   0.448451

>  <lowdin_charges>
23
1   -0.356947
2   -0.234295
3   0.173369
4   0.152043
5   -0.47184
6   -0.468709
7   -0.117529
8   -0.267271
9   -0.370499
10   -0.574624
11   -0.558171
12   -0.580406
13   1.098494
14   0.168109
15   0.163696
16   0.156249
17   0.179846
18   0.167852
19   0.285821
20   0.314284
21   0.358799
22   0.391738
23   0.389991

$$$$

