PCCDB-ID:  1 
 
 31 30  0  0  1  0  0  0  0  0999 V2000 
    4.5322   -3.4333   -2.9534 C   0  0  0  0  0  0  0  0  0  0  0  0 
    7.6658   -0.8281    1.9008 C   0  0  0  0  0  0  0  0  0  0  0  0 
    7.1317   -2.9727    2.9377 C   0  0  0  0  0  0  0  0  0  0  0  0 
    7.9545   -2.9319    0.6286 C   0  0  0  0  0  0  0  0  0  0  0  0 
    4.1132   -0.4153    0.2069 C   0  0  0  0  0  0  0  0  0  0  0  0 
    5.6431   -2.1618    1.1867 C   0  0  0  0  0  0  0  0  0  0  0  0 
    4.4940   -2.9881   -1.5089 C   0  0  0  0  0  0  0  0  0  0  0  0 
    5.3684   -1.2588   -0.0203 C   0  0  1  0  0  0  0  0  0  0  0  0 
    4.3759    0.6590    1.3449 C   0  0  0  0  0  0  0  0  0  0  0  0 
    7.1121   -2.2172    1.6397 N   0  0  0  0  0  0  0  0  0  0  0  0 
    3.7569   -3.4490   -0.6626 O   0  0  0  0  0  0  0  0  0  0  0  0 
    4.0444    1.8169    1.0816 O   0  0  0  0  0  0  0  0  0  0  0  0 
    4.9167    0.1989    2.4103 O   0  0  0  0  0  0  0  0  0  0  0  0 
    5.3886   -1.9959   -1.2925 O   0  0  0  0  0  0  0  0  0  0  0  0 
    4.0891   -4.4263   -3.0433 H   0  0  0  0  0  0  0  0  0  0  0  0 
    5.5536   -3.4293   -3.3431 H   0  0  0  0  0  0  0  0  0  0  0  0 
    3.9462   -2.7299   -3.5564 H   0  0  0  0  0  0  0  0  0  0  0  0 
    8.5290   -0.9284    2.5621 H   0  0  0  0  0  0  0  0  0  0  0  0 
    6.8535   -0.2240    2.3329 H   0  0  0  0  0  0  0  0  0  0  0  0 
    7.9880   -0.3931    0.9550 H   0  0  0  0  0  0  0  0  0  0  0  0 
    8.1669   -3.1139    3.2552 H   0  0  0  0  0  0  0  0  0  0  0  0 
    6.6476   -3.9403    2.7933 H   0  0  0  0  0  0  0  0  0  0  0  0 
    6.5836   -2.3893    3.6786 H   0  0  0  0  0  0  0  0  0  0  0  0 
    8.9978   -2.9090    0.9515 H   0  0  0  0  0  0  0  0  0  0  0  0 
    7.8468   -2.4345   -0.3356 H   0  0  0  0  0  0  0  0  0  0  0  0 
    7.6087   -3.9643    0.5451 H   0  0  0  0  0  0  0  0  0  0  0  0 
    3.2710   -1.0584    0.4849 H   0  0  0  0  0  0  0  0  0  0  0  0 
    3.8603    0.1128   -0.7152 H   0  0  0  0  0  0  0  0  0  0  0  0 
    5.3365   -3.1910    1.0076 H   0  0  0  0  0  0  0  0  0  0  0  0 
    5.1150   -1.6984    2.0272 H   0  0  0  0  0  0  0  0  0  0  0  0 
    6.1975   -0.5659   -0.1805 H   0  0  0  0  0  0  0  0  0  0  0  0 
  1  7  1  0  0  0  0 
  2 19  1  0  0  0  0 
  2 18  1  0  0  0  0 
  3 21  1  0  0  0  0 
  3 23  1  0  0  0  0 
  4 24  1  0  0  0  0 
  4 10  1  0  0  0  0 
  5 27  1  0  0  0  0 
  5  9  1  0  0  0  0 
  6 10  1  0  0  0  0 
  6 30  1  0  0  0  0 
  7 14  1  0  0  0  0 
  7 11  2  0  0  0  0 
  8 31  1  6  0  0  0 
  8  5  1  0  0  0  0 
  8  6  1  0  0  0  0 
  9 13  1  0  0  0  0 
 10  2  1  0  0  0  0 
 10  3  1  0  0  0  0 
 12  9  2  0  0  0  0 
 14  8  1  0  0  0  0 
 15  1  1  0  0  0  0 
 16  1  1  0  0  0  0 
 17  1  1  0  0  0  0 
 20  2  1  0  0  0  0 
 22  3  1  0  0  0  0 
 25  4  1  0  0  0  0 
 26  4  1  0  0  0  0 
 28  5  1  0  0  0  0 
 29  6  1  0  0  0  0 
M  RAD  1  13   2 
M  END 
>  <HBA> 
4 
 
>  <HBD> 
0 
 
>  <TPSA> 
66.43 
 
>  <cid> 
1 
 
>  <dipole> 
13.92 
 
>  <excitation_energy_1> 
3.749 
 
>  <excitation_energy_2> 
3.989 
 
>  <excitation_energy_3> 
4.144 
 
>  <excitation_energy_4> 
4.333 
 
>  <homo_energy> 
-4.528 
 
>  <homo_lumo_gap> 
4.512 
 
>  <logP> 
-1.236 
 
>  <lumo_energy> 
-0.016 
 
>  <melting_point> 
90.67 
 
>  <molecular_refractivity> 
48.87 
 
>  <oscillator_strength_1> 
0.0006 
 
>  <oscillator_strength_2> 
0.0042 
 
>  <oscillator_strength_3> 
0.0142 
 
>  <oscillator_strength_4> 
0.002 
 
>  <open_babel_can_smiles> 
[O]C(=O)C[C@@H](C[N](C)(C)C)OC(=O)C 
 
>  <mulliken_charges> 
31 
1   -0.522693 
2   -0.372027 
3   -0.324678 
4   -0.322011 
5   -0.38868 
6   -0.194723 
7   0.604202 
8   0.108074 
9   0.554417 
10   -0.358451 
11   -0.470316 
12   -0.542438 
13   -0.61912 
14   -0.488908 
15   0.182024 
16   0.17024 
17   0.196206 
18   0.171016 
19   0.294811 
20   0.187917 
21   0.184959 
22   0.196141 
23   0.236109 
24   0.186764 
25   0.219837 
26   0.192451 
27   0.164549 
28   0.152683 
29   0.191468 
30   0.252514 
31   0.157663 
 
>  <lowdin_charges> 
31 
1   -0.464757 
2   -0.379038 
3   -0.349974 
4   -0.354173 
5   -0.344264 
6   -0.234414 
7   0.202921 
8   -9.4e-05 
9   0.127389 
10   0.075931 
11   -0.270678 
12   -0.360198 
13   -0.47793 
14   -0.213454 
15   0.175127 
16   0.169792 
17   0.187473 
18   0.165488 
19   0.227793 
20   0.172758 
21   0.169066 
22   0.176358 
23   0.199144 
24   0.170118 
25   0.187374 
26   0.173943 
27   0.162766 
28   0.160274 
29   0.172576 
30   0.215295 
31   0.157389 
 
$$$$ 
 

