PCCDB-ID:  1646 
public computational chemistry database (PCCDB) project, http://pccdb.org 
 
 17 16  0  0  0  0  0  0  0  0999 V2000 
    1.0802   -0.1558   -0.0122 C   0  0  0  0  0  0  0  0  0  0  0  0 
    0.4895   -0.9953   -1.1526 C   0  0  0  0  0  0  0  0  0  0  0  0 
    2.6069   -0.0905   -0.1008 C   0  0  0  0  0  0  0  0  0  0  0  0 
    0.8450   -0.4239   -2.4562 N   0  0  0  0  0  0  0  0  0  0  0  0 
    4.8927    0.7908    0.8612 O   0  0  0  0  0  0  0  0  0  0  0  0 
    2.9868    2.4109    0.8165 O   0  0  0  0  0  0  0  0  0  0  0  0 
    2.9758    0.4858    2.4762 O   0  0  0  0  0  0  0  0  0  0  0  0 
    3.2816    1.0148    1.1523 S   0  0  0  0  0  0  0  0  0  0  0  0 
    0.7785   -0.5783    0.9521 H   0  0  0  0  0  0  0  0  0  0  0  0 
    0.6722    0.8624   -0.0590 H   0  0  0  0  0  0  0  0  0  0  0  0 
   -0.5968   -1.0907   -0.9821 H   0  0  0  0  0  0  0  0  0  0  0  0 
    0.9047   -2.0102   -1.1098 H   0  0  0  0  0  0  0  0  0  0  0  0 
    2.9293    0.2874   -1.0730 H   0  0  0  0  0  0  0  0  0  0  0  0 
    3.0699   -1.0664    0.0753 H   0  0  0  0  0  0  0  0  0  0  0  0 
    0.3239    0.4390   -2.6084 H   0  0  0  0  0  0  0  0  0  0  0  0 
    0.5692   -1.0582   -3.2031 H   0  0  0  0  0  0  0  0  0  0  0  0 
    5.2717    1.6824    0.7432 H   0  0  0  0  0  0  0  0  0  0  0  0 
  1  9  1  0  0  0  0 
  2 12  1  0  0  0  0 
  2 11  1  0  0  0  0 
  2  1  1  0  0  0  0 
  3  1  1  0  0  0  0 
  3 14  1  0  0  0  0 
  3  8  1  0  0  0  0 
  4  2  1  0  0  0  0 
  5  8  1  0  0  0  0 
  6  8  1  0  0  0  0 
  8  7  1  0  0  0  0 
 10  1  1  0  0  0  0 
 13  3  1  0  0  0  0 
 15  4  1  0  0  0  0 
 16  4  1  0  0  0  0 
 17  5  1  0  0  0  0 
M  RAD  2   6   2   7   2 
M  END 
>  <HBA> 
4 
 
>  <HBD> 
2 
 
>  <TPSA> 
88.77 
 
>  <cid> 
1646 
 
>  <dipole> 
4.31 
 
>  <excitation_energy_1> 
5.808 
 
>  <excitation_energy_2> 
6.467 
 
>  <excitation_energy_3> 
6.707 
 
>  <excitation_energy_4> 
6.864 
 
>  <homo_energy> 
-6.841 
 
>  <homo_lumo_gap> 
7.856 
 
>  <logP> 
1.004 
 
>  <lumo_energy> 
1.015 
 
>  <melting_point> 
110.66 
 
>  <molecular_refractivity> 
29.78 
 
>  <oscillator_strength_1> 
0.01 
 
>  <oscillator_strength_2> 
0.0018 
 
>  <oscillator_strength_3> 
0.0272 
 
>  <oscillator_strength_4> 
0.0356 
 
>  <open_babel_can_smiles> 
NCCCS([O])(O)[O] 
 
>  <mulliken_charges> 
17 
1   -0.287065 
2   -0.146446 
3   -0.453955 
4   -0.717813 
5   -0.650127 
6   -0.532757 
7   -0.493569 
8   1.188766 
9   0.174456 
10   0.167608 
11   0.132714 
12   0.146949 
13   0.224388 
14   0.200959 
15   0.30168 
16   0.305733 
17   0.438479 
 
>  <lowdin_charges> 
17 
1   -0.283222 
2   -0.198815 
3   -0.417152 
4   -0.561038 
5   -0.591434 
6   -0.594199 
7   -0.56631 
8   1.334109 
9   0.165395 
10   0.158056 
11   0.12784 
12   0.14423 
13   0.19724 
14   0.186451 
15   0.257251 
16   0.262022 
17   0.379575 
 
$$$$ 
 
