PCCDB-ID:  3651 
public computational chemistry database (PCCDB) project, http://pccdb.org 
 
 24 24  0  0  1  0  0  0  0  0999 V2000 
    0.8868    0.3500   -0.3338 C   0  0  0  0  0  0  0  0  0  0  0  0 
    2.6012   -1.8426    2.5867 C   0  0  0  0  0  0  0  0  0  0  0  0 
    1.1793   -2.9397    0.9997 C   0  0  0  0  0  0  0  0  0  0  0  0 
    1.9965   -2.5484    3.6264 C   0  0  0  0  0  0  0  0  0  0  0  0 
    0.5644   -3.6546    2.0244 C   0  0  0  0  0  0  0  0  0  0  0  0 
    2.8549   -1.2223    0.1422 C   0  0  0  0  0  0  0  0  0  0  0  0 
    2.3715    0.2510    0.0194 C   0  0  1  0  0  0  0  0  0  0  0  0 
    2.2069   -2.0192    1.2539 C   0  0  0  0  0  0  0  0  0  0  0  0 
    0.9719   -3.4581    3.3470 C   0  0  0  0  0  0  0  0  0  0  0  0 
    3.1416    1.0361   -0.9560 N   0  0  0  0  0  0  0  0  0  0  0  0 
    0.3391   -4.1846    4.3202 O   0  0  0  0  0  0  0  0  0  0  0  0 
    0.2667   -0.1686    0.4033 H   0  0  0  0  0  0  0  0  0  0  0  0 
    0.6907   -0.1035   -1.3156 H   0  0  0  0  0  0  0  0  0  0  0  0 
    0.5803    1.3992   -0.3811 H   0  0  0  0  0  0  0  0  0  0  0  0 
    3.4019   -1.1443    2.8214 H   0  0  0  0  0  0  0  0  0  0  0  0 
    0.8552   -3.1052   -0.0254 H   0  0  0  0  0  0  0  0  0  0  0  0 
    2.3239   -2.3950    4.6536 H   0  0  0  0  0  0  0  0  0  0  0  0 
   -0.2271   -4.3683    1.8180 H   0  0  0  0  0  0  0  0  0  0  0  0 
    3.9436   -1.2029    0.2950 H   0  0  0  0  0  0  0  0  0  0  0  0 
    2.6865   -1.7221   -0.8225 H   0  0  0  0  0  0  0  0  0  0  0  0 
    2.5245    0.7317    0.9960 H   0  0  0  0  0  0  0  0  0  0  0  0 
    3.0294    0.6232   -1.8833 H   0  0  0  0  0  0  0  0  0  0  0  0 
    4.1371    0.9704   -0.7425 H   0  0  0  0  0  0  0  0  0  0  0  0 
    0.7198   -3.9529    5.1814 H   0  0  0  0  0  0  0  0  0  0  0  0 
  1  7  1  0  0  0  0 
  1 12  1  0  0  0  0 
  2 15  1  0  0  0  0 
  2  4  2  0  0  0  0 
  3  8  2  0  0  0  0 
  3  5  1  0  0  0  0 
  4 17  1  0  0  0  0 
  5  9  2  0  0  0  0 
  6 19  1  0  0  0  0 
  6  8  1  0  0  0  0 
  7  6  1  0  0  0  0 
  7 21  1  1  0  0  0 
  8  2  1  0  0  0  0 
  9  4  1  0  0  0  0 
  9 11  1  0  0  0  0 
 10 23  1  0  0  0  0 
 10  7  1  0  0  0  0 
 11 24  1  0  0  0  0 
 13  1  1  0  0  0  0 
 14  1  1  0  0  0  0 
 16  3  1  0  0  0  0 
 18  5  1  0  0  0  0 
 20  6  1  0  0  0  0 
 22 10  1  0  0  0  0 
M  END 
>  <HBA> 
2 
 
>  <HBD> 
2 
 
>  <TPSA> 
46.25 
 
>  <cid> 
3651 
 
>  <dipole> 
1.64 
 
>  <excitation_energy_1> 
4.86 
 
>  <excitation_energy_2> 
5.051 
 
>  <excitation_energy_3> 
5.236 
 
>  <excitation_energy_4> 
5.571 
 
>  <homo_energy> 
-5.709 
 
>  <homo_lumo_gap> 
5.685 
 
>  <logP> 
1.982 
 
>  <lumo_energy> 
-0.024 
 
>  <melting_point> 
101.05 
 
>  <molecular_refractivity> 
45.75 
 
>  <oscillator_strength_1> 
0.0303 
 
>  <oscillator_strength_2> 
0.0012 
 
>  <oscillator_strength_3> 
0.0568 
 
>  <oscillator_strength_4> 
0.0975 
 
>  <open_babel_can_smiles> 
C[C@@H](Cc1ccc(cc1)O)N 
 
>  <mulliken_charges> 
24 
1   -0.441744 
2   -0.189512 
3   -0.191948 
4   -0.192398 
5   -0.157443 
6   -0.356427 
7   0.03192 
8   0.176593 
9   0.34745 
10   -0.702536 
11   -0.643987 
12   0.156336 
13   0.127393 
14   0.159272 
15   0.123639 
16   0.125228 
17   0.116986 
18   0.138502 
19   0.12989 
20   0.127421 
21   0.132509 
22   0.286741 
23   0.289841 
24   0.406271 
 
>  <lowdin_charges> 
24 
1   -0.449871 
2   -0.156099 
3   -0.154721 
4   -0.212686 
5   -0.185275 
6   -0.29041 
7   -0.06206 
8   -0.023748 
9   0.099052 
10   -0.545754 
11   -0.380461 
12   0.159473 
13   0.140433 
14   0.158074 
15   0.155218 
16   0.154989 
17   0.151289 
18   0.167214 
19   0.141701 
20   0.142002 
21   0.138026 
22   0.248555 
23   0.248085 
24   0.356971 
 
$$$$ 
 
