PCCDB-ID:  3830 
public computational chemistry database (PCCDB) project, http://pccdb.org 
 
 25 27  0  0  0  0  0  0  0  0999 V2000 
    0.4923    0.0892   -1.1479 C   0  0  0  0  0  0  0  0  0  0  0  0 
    1.8861   -0.2368   -1.0565 C   0  0  0  0  0  0  0  0  0  0  0  0 
   -0.0716   -0.3402    0.0133 C   0  0  0  0  0  0  0  0  0  0  0  0 
    3.2497   -1.4333    0.8470 C   0  0  0  0  0  0  0  0  0  0  0  0 
    3.1644   -7.0992    0.1099 C   0  0  0  0  0  0  0  0  0  0  0  0 
    5.2635   -3.8441   -1.8807 C   0  0  0  0  0  0  0  0  0  0  0  0 
    2.0674   -0.8362    0.1546 C   0  0  0  0  0  0  0  0  0  0  0  0 
    3.6477   -5.0653   -0.0912 C   0  0  0  0  0  0  0  0  0  0  0  0 
    3.8399   -3.6773   -0.0667 C   0  0  0  0  0  0  0  0  0  0  0  0 
    4.3178   -5.8344   -1.0730 C   0  0  0  0  0  0  0  0  0  0  0  0 
    3.2512   -2.8958    0.8665 N   0  0  0  0  0  0  0  0  0  0  0  0 
    2.8968   -5.9151    0.6743 N   0  0  0  0  0  0  0  0  0  0  0  0 
    4.0238   -7.1268   -0.9619 N   0  0  0  0  0  0  0  0  0  0  0  0 
    4.6641   -3.0917   -0.9913 N   0  0  0  0  0  0  0  0  0  0  0  0 
    5.1350   -5.1904   -1.9727 N   0  0  0  0  0  0  0  0  0  0  0  0 
    0.8712   -0.9048    0.8219 O   0  0  0  0  0  0  0  0  0  0  0  0 
   -0.0150    0.5775   -1.9683 H   0  0  0  0  0  0  0  0  0  0  0  0 
    2.6531   -0.0581   -1.7972 H   0  0  0  0  0  0  0  0  0  0  0  0 
   -1.0753   -0.3180    0.4094 H   0  0  0  0  0  0  0  0  0  0  0  0 
    3.2916   -1.0872    1.8860 H   0  0  0  0  0  0  0  0  0  0  0  0 
    4.1607   -1.1115    0.3418 H   0  0  0  0  0  0  0  0  0  0  0  0 
    2.7221   -8.0180    0.4788 H   0  0  0  0  0  0  0  0  0  0  0  0 
    5.9179   -3.3760   -2.6104 H   0  0  0  0  0  0  0  0  0  0  0  0 
    2.5786   -3.3702    1.4568 H   0  0  0  0  0  0  0  0  0  0  0  0 
    5.6258   -5.7173   -2.6866 H   0  0  0  0  0  0  0  0  0  0  0  0 
  1  2  1  0  0  0  0 
  1  3  2  0  0  0  0 
  2  7  2  0  0  0  0 
  3 19  1  0  0  0  0 
  3 16  1  0  0  0  0 
  4 11  1  0  0  0  0 
  4 20  1  0  0  0  0 
  5 22  1  0  0  0  0 
  5 12  2  0  0  0  0 
  6 14  2  0  0  0  0 
  7 16  1  0  0  0  0 
  7  4  1  0  0  0  0 
  8  9  2  0  0  0  0 
  8 12  1  0  0  0  0 
  9 11  1  0  0  0  0 
 10 13  2  0  0  0  0 
 10  8  1  0  0  0  0 
 11 24  1  0  0  0  0 
 13  5  1  0  0  0  0 
 14  9  1  0  0  0  0 
 15  6  1  0  0  0  0 
 15 10  1  0  0  0  0 
 17  1  1  0  0  0  0 
 18  2  1  0  0  0  0 
 21  4  1  0  0  0  0 
 23  6  1  0  0  0  0 
 25 15  1  0  0  0  0 
M  END 
>  <HBA> 
5 
 
>  <HBD> 
2 
 
>  <TPSA> 
79.63 
 
>  <cid> 
3830 
 
>  <dipole> 
4.69 
 
>  <excitation_energy_1> 
4.202 
 
>  <excitation_energy_2> 
4.406 
 
>  <excitation_energy_3> 
4.586 
 
>  <excitation_energy_4> 
4.688 
 
>  <homo_energy> 
-5.693 
 
>  <homo_lumo_gap> 
4.563 
 
>  <logP> 
1.631 
 
>  <lumo_energy> 
-1.129 
 
>  <melting_point> 
206.62 
 
>  <molecular_refractivity> 
57.74 
 
>  <oscillator_strength_1> 
0.1853 
 
>  <oscillator_strength_2> 
0.0058 
 
>  <oscillator_strength_3> 
0.0886 
 
>  <oscillator_strength_4> 
0.0005 
 
>  <open_babel_can_smiles> 
c1coc(c1)CNc1nc[nH]c2c1ncn2 
 
>  <mulliken_charges> 
25 
1   -0.181925 
2   -0.196091 
3   0.086283 
4   -0.231217 
5   0.163074 
6   0.234098 
7   0.34685 
8   0.209768 
9   0.522992 
10   0.487417 
11   -0.621158 
12   -0.53385 
13   -0.514808 
14   -0.526494 
15   -0.643628 
16   -0.439642 
17   0.143372 
18   0.14498 
19   0.157442 
20   0.172743 
21   0.201586 
22   0.133805 
23   0.171912 
24   0.359341 
25   0.353152 
 
>  <lowdin_charges> 
25 
1   -0.205143 
2   -0.208413 
3   -0.077129 
4   -0.195168 
5   -0.06706 
6   -0.022667 
7   0.049606 
8   -0.062642 
9   0.120316 
10   0.035639 
11   -0.237402 
12   -0.233457 
13   -0.242916 
14   -0.205669 
15   -0.151517 
16   -0.105029 
17   0.171251 
18   0.172417 
19   0.171532 
20   0.165251 
21   0.185866 
22   0.156179 
23   0.173065 
24   0.304048 
25   0.309042 
 
$$$$ 
 
