PCCDB-ID:  4649 
public computational chemistry database (PCCDB) project, http://pccdb.org 
 
 18 18  0  0  0  0  0  0  0  0999 V2000 
   -1.4750   -0.1533   -0.4334 C   0  0  0  0  0  0  0  0  0  0  0  0 
   -0.9009    1.1052   -0.4375 C   0  0  0  0  0  0  0  0  0  0  0  0 
    0.6371   -1.0823    0.2910 C   0  0  0  0  0  0  0  0  0  0  0  0 
   -0.7071   -1.2761   -0.0659 C   0  0  0  0  0  0  0  0  0  0  0  0 
    0.4406    1.3270   -0.0824 C   0  0  0  0  0  0  0  0  0  0  0  0 
    1.1925    0.1943    0.2827 C   0  0  0  0  0  0  0  0  0  0  0  0 
    0.9294    2.7428   -0.1277 C   0  0  0  0  0  0  0  0  0  0  0  0 
   -1.2786   -2.5371   -0.0055 N   0  0  0  0  0  0  0  0  0  0  0  0 
    2.5137    0.3754    0.6294 O   0  0  0  0  0  0  0  0  0  0  0  0 
    0.2161    3.6569   -0.4846 O   0  0  0  0  0  0  0  0  0  0  0  0 
    2.2042    2.9917    0.2483 O   0  0  0  0  0  0  0  0  0  0  0  0 
   -2.5180   -0.2820   -0.7101 H   0  0  0  0  0  0  0  0  0  0  0  0 
   -1.4811    1.9766   -0.7220 H   0  0  0  0  0  0  0  0  0  0  0  0 
    1.2493   -1.9352    0.5808 H   0  0  0  0  0  0  0  0  0  0  0  0 
   -2.1250   -2.6670   -0.5437 H   0  0  0  0  0  0  0  0  0  0  0  0 
   -0.6489   -3.3257   -0.0705 H   0  0  0  0  0  0  0  0  0  0  0  0 
    2.9061   -0.4641    0.9140 H   0  0  0  0  0  0  0  0  0  0  0  0 
    2.6507    2.1630    0.5058 H   0  0  0  0  0  0  0  0  0  0  0  0 
  1  4  1  0  0  0  0 
  2  1  2  0  0  0  0 
  2  5  1  0  0  0  0 
  3 14  1  0  0  0  0 
  4  8  1  0  0  0  0 
  4  3  2  0  0  0  0 
  5  6  2  0  0  0  0 
  6  3  1  0  0  0  0 
  6  9  1  0  0  0  0 
  7  5  1  0  0  0  0 
  7 11  1  0  0  0  0 
  9 17  1  0  0  0  0 
 10  7  2  0  0  0  0 
 11 18  1  0  0  0  0 
 12  1  1  0  0  0  0 
 13  2  1  0  0  0  0 
 15  8  1  0  0  0  0 
 16  8  1  0  0  0  0 
M  END 
>  <HBA> 
4 
 
>  <HBD> 
3 
 
>  <TPSA> 
83.55 
 
>  <cid> 
4649 
 
>  <dipole> 
8.3 
 
>  <excitation_energy_1> 
4.653 
 
>  <excitation_energy_2> 
4.851 
 
>  <excitation_energy_3> 
4.854 
 
>  <excitation_energy_4> 
4.964 
 
>  <homo_energy> 
-5.976 
 
>  <homo_lumo_gap> 
5.225 
 
>  <logP> 
1.254 
 
>  <lumo_energy> 
-0.751 
 
>  <melting_point> 
185.78 
 
>  <molecular_refractivity> 
39.83 
 
>  <oscillator_strength_1> 
0.1044 
 
>  <oscillator_strength_2> 
0.0002 
 
>  <oscillator_strength_3> 
0.0058 
 
>  <oscillator_strength_4> 
0.2318 
 
>  <open_babel_can_smiles> 
Nc1ccc(c(c1)O)C(=O)O 
 
>  <mulliken_charges> 
18 
1   -0.174593 
2   -0.184311 
3   -0.244084 
4   0.336377 
5   0.010996 
6   0.309995 
7   0.56806 
8   -0.793704 
9   -0.687616 
10   -0.472223 
11   -0.605571 
12   0.127264 
13   0.174592 
14   0.112254 
15   0.332681 
16   0.327811 
17   0.424738 
18   0.437334 
 
>  <lowdin_charges> 
18 
1   -0.212928 
2   -0.105245 
3   -0.258617 
4   0.08622 
5   -0.116996 
6   0.120616 
7   0.198443 
8   -0.472814 
9   -0.386926 
10   -0.269886 
11   -0.36947 
12   0.15763 
13   0.185353 
14   0.152782 
15   0.284007 
16   0.2816 
17   0.368345 
18   0.357884 
 
$$$$ 
 
