PCCDB-ID:  167 
public computational chemistry database (PCCDB) project, http://pccdb.org 
 
 16 17  0  0  0  0  0  0  0  0999 V2000 
    1.0789   -0.0753   -0.2599 C   0  0  0  0  0  0  0  0  0  0  0  0 
    0.3928   -1.2362    0.4616 C   0  0  0  0  0  0  0  0  0  0  0  0 
    4.5357   -1.2260    0.3587 C   0  0  0  0  0  0  0  0  0  0  0  0 
    4.3867   -3.5118    0.2113 C   0  0  0  0  0  0  0  0  0  0  0  0 
    3.0816   -1.1416    0.1826 C   0  0  0  0  0  0  0  0  0  0  0  0 
    2.3556   -2.4443    0.1953 C   0  0  0  0  0  0  0  0  0  0  0  0 
    5.1723   -2.3462    0.3750 N   0  0  0  0  0  0  0  0  0  0  0  0 
    2.5204    0.0018    0.0039 N   0  0  0  0  0  0  0  0  0  0  0  0 
    1.0800   -2.5224    0.3237 N   0  0  0  0  0  0  0  0  0  0  0  0 
    3.1071   -3.6267    0.1250 N   0  0  0  0  0  0  0  0  0  0  0  0 
    0.6226    0.8815    0.0136 H   0  0  0  0  0  0  0  0  0  0  0  0 
    0.9651   -0.1774   -1.3515 H   0  0  0  0  0  0  0  0  0  0  0  0 
   -0.6333   -1.3527    0.0968 H   0  0  0  0  0  0  0  0  0  0  0  0 
    0.3135   -1.0297    1.5415 H   0  0  0  0  0  0  0  0  0  0  0  0 
    5.0906   -0.2907    0.4499 H   0  0  0  0  0  0  0  0  0  0  0  0 
    4.9792   -4.4234    0.1600 H   0  0  0  0  0  0  0  0  0  0  0  0 
  1  8  1  0  0  0  0 
  1 11  1  0  0  0  0 
  1  2  1  0  0  0  0 
  2 14  1  0  0  0  0 
  3  7  1  0  0  0  0 
  3 15  1  0  0  0  0 
  4  7  2  0  0  0  0 
  5  6  1  0  0  0  0 
  5  3  2  0  0  0  0 
  6  9  2  0  0  0  0 
  8  5  1  0  0  0  0 
  9  2  1  0  0  0  0 
 10  6  1  0  0  0  0 
 10  4  1  0  0  0  0 
 12  1  1  0  0  0  0 
 13  2  1  0  0  0  0 
 16  4  1  0  0  0  0 
M  RAD  2   8   2  10   2 
M  END 
>  <HBA> 
4 
 
>  <HBD> 
0 
 
>  <TPSA> 
50.5 
 
>  <cid> 
167 
 
>  <dipole> 
2.4 
 
>  <excitation_energy_1> 
1.999 
 
>  <excitation_energy_2> 
3.102 
 
>  <excitation_energy_3> 
3.391 
 
>  <excitation_energy_4> 
4.172 
 
>  <homo_energy> 
-6.558 
 
>  <homo_lumo_gap> 
3.181 
 
>  <logP> 
-2.399 
 
>  <lumo_energy> 
-3.377 
 
>  <melting_point> 
133.73 
 
>  <molecular_refractivity> 
40.61 
 
>  <oscillator_strength_1> 
0.0001 
 
>  <oscillator_strength_2> 
0.0021 
 
>  <oscillator_strength_3> 
0.0576 
 
>  <oscillator_strength_4> 
0.0005 
 
>  <open_babel_can_smiles> 
C1CN=c2c([N]1)cnc[n]2 
 
>  <mulliken_charges> 
16 
1   -0.181496 
2   -0.177219 
3   0.085091 
4   0.158402 
5   0.272768 
6   0.412491 
7   -0.383365 
8   -0.436628 
9   -0.391651 
10   -0.389248 
11   0.16942 
12   0.173384 
13   0.171424 
14   0.168051 
15   0.177257 
16   0.171317 
 
>  <lowdin_charges> 
16 
1   -0.22055 
2   -0.216018 
3   -0.036176 
4   -0.025977 
5   -0.007333 
6   0.045829 
7   -0.154029 
8   -0.118581 
9   -0.123048 
10   -0.134453 
11   0.164474 
12   0.15957 
13   0.164692 
14   0.156338 
15   0.175375 
16   0.169886 
 
$$$$ 
 
