PCCDB-ID:  1088 
public computational chemistry database (PCCDB) project, http://pccdb.org 
 
 13 12  0  0  0  0  0  0  0  0999 V2000 
    1.0279   -0.2613   -0.0736 C   0  0  0  0  0  0  0  0  0  0  0  0 
    3.0435    0.3431    1.2196 C   0  0  0  0  0  0  0  0  0  0  0  0 
    4.5517    0.0449    1.2273 C   0  0  0  0  0  0  0  0  0  0  0  0 
    2.4613    0.0420   -0.0918 N   0  0  0  0  0  0  0  0  0  0  0  0 
    5.3049    0.4693    2.0692 O   0  0  0  0  0  0  0  0  0  0  0  0 
    4.9373   -0.7624    0.2242 O   0  0  0  0  0  0  0  0  0  0  0  0 
    0.6886   -0.4545   -1.0957 H   0  0  0  0  0  0  0  0  0  0  0  0 
    0.4089    0.5440    0.3534 H   0  0  0  0  0  0  0  0  0  0  0  0 
    0.8605   -1.1689    0.5156 H   0  0  0  0  0  0  0  0  0  0  0  0 
    2.8886    1.3718    1.5715 H   0  0  0  0  0  0  0  0  0  0  0  0 
    2.5839   -0.3209    1.9624 H   0  0  0  0  0  0  0  0  0  0  0  0 
    2.6302    0.8260   -0.7201 H   0  0  0  0  0  0  0  0  0  0  0  0 
    4.1151   -0.9230   -0.3029 H   0  0  0  0  0  0  0  0  0  0  0  0 
  1  8  1  0  0  0  0 
  1  9  1  0  0  0  0 
  2  3  1  0  0  0  0 
  2 10  1  0  0  0  0 
  2 11  1  0  0  0  0 
  3  5  2  0  0  0  0 
  4  1  1  0  0  0  0 
  4  2  1  0  0  0  0 
  6  3  1  0  0  0  0 
  7  1  1  0  0  0  0 
 12  4  1  0  0  0  0 
 13  6  1  0  0  0  0 
M  END 
>  <HBA> 
3 
 
>  <HBD> 
2 
 
>  <TPSA> 
49.33 
 
>  <cid> 
1088 
 
>  <dipole> 
5.4 
 
>  <excitation_energy_1> 
5.589 
 
>  <excitation_energy_2> 
5.972 
 
>  <excitation_energy_3> 
6.532 
 
>  <excitation_energy_4> 
6.708 
 
>  <homo_energy> 
-6.879 
 
>  <homo_lumo_gap> 
7.369 
 
>  <logP> 
-0.319 
 
>  <lumo_energy> 
0.49 
 
>  <melting_point> 
79.77 
 
>  <molecular_refractivity> 
21.11 
 
>  <oscillator_strength_1> 
0.0006 
 
>  <oscillator_strength_2> 
0.002 
 
>  <oscillator_strength_3> 
0.0103 
 
>  <oscillator_strength_4> 
0.0022 
 
>  <open_babel_can_smiles> 
CNCC(=O)O 
 
>  <mulliken_charges> 
13 
1   -0.305549 
2   -0.237964 
3   0.586558 
4   -0.593042 
5   -0.456519 
6   -0.57276 
7   0.163498 
8   0.144239 
9   0.16721 
10   0.173003 
11   0.186876 
12   0.321295 
13   0.423155 
 
>  <lowdin_charges> 
13 
1   -0.35875 
2   -0.24979 
3   0.177021 
4   -0.363828 
5   -0.253387 
6   -0.359322 
7   0.157983 
8   0.137711 
9   0.157213 
10   0.158844 
11   0.17565 
12   0.266683 
13   0.353973 
 
$$$$ 
 
