PCCDB-ID:  6263 
public computational chemistry database (PCCDB) project, http://pccdb.org 
 
 16 15  0  0  0  0  0  0  0  0999 V2000 
    2.6169    1.5442    0.1321 C   0  0  0  0  0  0  0  0  0  0  0  0 
    2.2241   -3.8731    0.1956 C   0  0  0  0  0  0  0  0  0  0  0  0 
    2.7224    0.1863   -0.5563 C   0  0  0  0  0  0  0  0  0  0  0  0 
    2.5231   -2.5608   -0.5241 C   0  0  0  0  0  0  0  0  0  0  0  0 
    2.8973   -1.1831    1.7864 O   0  0  0  0  0  0  0  0  0  0  0  0 
    2.0310   -1.1317    0.5426 S   0  0  0  0  0  0  0  0  0  0  0  0 
    3.0808    2.3206   -0.4855 H   0  0  0  0  0  0  0  0  0  0  0  0 
    3.1309    1.5168    1.0975 H   0  0  0  0  0  0  0  0  0  0  0  0 
    1.5725    1.8261    0.3061 H   0  0  0  0  0  0  0  0  0  0  0  0 
    2.5706   -4.7221   -0.4032 H   0  0  0  0  0  0  0  0  0  0  0  0 
    1.1502   -3.9974    0.3739 H   0  0  0  0  0  0  0  0  0  0  0  0 
    2.7376   -3.8992    1.1616 H   0  0  0  0  0  0  0  0  0  0  0  0 
    3.7676   -0.0752   -0.7576 H   0  0  0  0  0  0  0  0  0  0  0  0 
    2.1576    0.1527   -1.4958 H   0  0  0  0  0  0  0  0  0  0  0  0 
    1.9676   -2.4670   -1.4651 H   0  0  0  0  0  0  0  0  0  0  0  0 
    3.5947   -2.4578   -0.7295 H   0  0  0  0  0  0  0  0  0  0  0  0 
  1  9  1  0  0  0  0 
  1  8  1  0  0  0  0 
  2 11  1  0  0  0  0 
  2 12  1  0  0  0  0 
  3  1  1  0  0  0  0 
  3  6  1  0  0  0  0 
  4  2  1  0  0  0  0 
  4  6  1  0  0  0  0 
  6  5  2  0  0  0  0 
  7  1  1  0  0  0  0 
 10  2  1  0  0  0  0 
 13  3  1  0  0  0  0 
 14  3  1  0  0  0  0 
 15  4  1  0  0  0  0 
 16  4  1  0  0  0  0 
M  END 
>  <HBA> 
1 
 
>  <HBD> 
0 
 
>  <TPSA> 
36.28 
 
>  <cid> 
6263 
 
>  <dipole> 
3.75 
 
>  <excitation_energy_1> 
5.477 
 
>  <excitation_energy_2> 
5.487 
 
>  <excitation_energy_3> 
5.702 
 
>  <excitation_energy_4> 
6.173 
 
>  <homo_energy> 
-5.902 
 
>  <homo_lumo_gap> 
6.993 
 
>  <logP> 
1.641 
 
>  <lumo_energy> 
1.091 
 
>  <melting_point> 
-5.93 
 
>  <molecular_refractivity> 
29.62 
 
>  <oscillator_strength_1> 
0.0487 
 
>  <oscillator_strength_2> 
0.0166 
 
>  <oscillator_strength_3> 
0.0207 
 
>  <oscillator_strength_4> 
0.089 
 
>  <open_babel_can_smiles> 
CCS(=O)CC 
 
>  <mulliken_charges> 
16 
1   -0.460684 
2   -0.460536 
3   -0.443742 
4   -0.443448 
5   -0.641934 
6   0.756804 
7   0.157871 
8   0.188876 
9   0.159382 
10   0.157786 
11   0.159264 
12   0.188964 
13   0.178655 
14   0.162133 
15   0.161954 
16   0.178655 
 
>  <lowdin_charges> 
16 
1   -0.448145 
2   -0.447281 
3   -0.418923 
4   -0.418289 
5   -0.68315 
6   0.792725 
7   0.160641 
8   0.17161 
9   0.155604 
10   0.160213 
11   0.155047 
12   0.171648 
13   0.161836 
14   0.162614 
15   0.162503 
16   0.161347 
 
$$$$ 
 
