PCCDB-ID:  5443 
public computational chemistry database (PCCDB) project, http://pccdb.org 
 
 16 16  0  0  0  0  0  0  0  0999 V2000 
   -1.4446   -0.0847    0.0520 C   0  0  0  0  0  0  0  0  0  0  0  0 
   -0.7675   -1.2975    0.2030 C   0  0  0  0  0  0  0  0  0  0  0  0 
   -0.7080    1.0823   -0.1003 C   0  0  0  0  0  0  0  0  0  0  0  0 
    0.6210   -1.3316    0.1658 C   0  0  0  0  0  0  0  0  0  0  0  0 
    0.7012    1.0779   -0.1135 C   0  0  0  0  0  0  0  0  0  0  0  0 
    1.3800   -0.1621   -0.0114 C   0  0  0  0  0  0  0  0  0  0  0  0 
    1.4221    2.3809   -0.2652 C   0  0  0  0  0  0  0  0  0  0  0  0 
    2.5106    2.5239   -0.7842 O   0  0  0  0  0  0  0  0  0  0  0  0 
    0.7821    3.4795    0.2130 O   0  0  0  0  0  0  0  0  0  0  0  0 
    3.1436   -0.3897   -0.0404 S   0  0  0  0  0  0  0  0  0  0  0  0 
   -2.5295   -0.0504    0.0478 H   0  0  0  0  0  0  0  0  0  0  0  0 
   -1.3224   -2.2227    0.3308 H   0  0  0  0  0  0  0  0  0  0  0  0 
   -1.2385    2.0186   -0.2570 H   0  0  0  0  0  0  0  0  0  0  0  0 
    1.1392   -2.2819    0.2579 H   0  0  0  0  0  0  0  0  0  0  0  0 
    0.0208    3.2104    0.7523 H   0  0  0  0  0  0  0  0  0  0  0  0 
    3.4310    0.8396   -0.5220 H   0  0  0  0  0  0  0  0  0  0  0  0 
  1  2  2  0  0  0  0 
  2 12  1  0  0  0  0 
  3  1  1  0  0  0  0 
  4  2  1  0  0  0  0 
  4 14  1  0  0  0  0 
  5  3  2  0  0  0  0 
  5  6  1  0  0  0  0 
  6  4  2  0  0  0  0 
  7  5  1  0  0  0  0 
  7  9  1  0  0  0  0 
  8  7  2  0  0  0  0 
  9 15  1  0  0  0  0 
 10  6  1  0  0  0  0 
 11  1  1  0  0  0  0 
 13  3  1  0  0  0  0 
 16 10  1  0  0  0  0 
M  END 
>  <HBA> 
3 
 
>  <HBD> 
2 
 
>  <TPSA> 
76.1 
 
>  <cid> 
5443 
 
>  <dipole> 
4.51 
 
>  <excitation_energy_1> 
3.865 
 
>  <excitation_energy_2> 
4.76 
 
>  <excitation_energy_3> 
4.817 
 
>  <excitation_energy_4> 
5.248 
 
>  <homo_energy> 
-6.253 
 
>  <homo_lumo_gap> 
4.648 
 
>  <logP> 
1.673 
 
>  <lumo_energy> 
-1.605 
 
>  <melting_point> 
120.41 
 
>  <molecular_refractivity> 
40.65 
 
>  <oscillator_strength_1> 
0.0603 
 
>  <oscillator_strength_2> 
0.0226 
 
>  <oscillator_strength_3> 
0.0811 
 
>  <oscillator_strength_4> 
0.0036 
 
>  <open_babel_can_smiles> 
OC(=O)c1ccccc1S 
 
>  <mulliken_charges> 
16 
1   -0.138812 
2   -0.106564 
3   -0.187612 
4   -0.159801 
5   0.038173 
6   -0.098547 
7   0.552179 
8   -0.459373 
9   -0.56119 
10   -0.043955 
11   0.143922 
12   0.147011 
13   0.144234 
14   0.155617 
15   0.413869 
16   0.160849 
 
>  <lowdin_charges> 
16 
1   -0.1615 
2   -0.131596 
3   -0.158558 
4   -0.160517 
5   -0.077653 
6   -0.091002 
7   0.200717 
8   -0.249727 
9   -0.346534 
10   -0.016397 
11   0.163454 
12   0.167446 
13   0.162015 
14   0.17229 
15   0.361372 
16   0.166192 
 
$$$$ 
 
