PCCDB-ID:  778 
public computational chemistry database (PCCDB) project, http://pccdb.org 
 
 17 16  0  0  1  0  0  0  0  0999 V2000 
    1.5593   -0.0388   -0.8891 C   0  0  0  0  0  0  0  0  0  0  0  0 
    1.4588   -0.5018   -2.3476 C   0  0  0  0  0  0  0  0  0  0  0  0 
    2.8853   -0.3203   -0.1430 C   0  0  1  0  0  0  0  0  0  0  0  0 
    3.2409   -1.8199   -0.2941 C   0  0  0  0  0  0  0  0  0  0  0  0 
    3.9187    0.6492   -0.4820 N   0  0  0  0  0  0  0  0  0  0  0  0 
    2.4914   -2.7018    0.0530 O   0  0  0  0  0  0  0  0  0  0  0  0 
    4.4411   -2.0918   -0.8511 O   0  0  0  0  0  0  0  0  0  0  0  0 
    2.6431    0.2454   -3.5581 S   0  0  0  0  0  0  0  0  0  0  0  0 
    0.7645   -0.5639   -0.3467 H   0  0  0  0  0  0  0  0  0  0  0  0 
    1.3571    1.0353   -0.8125 H   0  0  0  0  0  0  0  0  0  0  0  0 
    0.4449   -0.3277   -2.7183 H   0  0  0  0  0  0  0  0  0  0  0  0 
    1.6424   -1.5781   -2.4221 H   0  0  0  0  0  0  0  0  0  0  0  0 
    2.6697   -0.1950    0.9251 H   0  0  0  0  0  0  0  0  0  0  0  0 
    4.1325    0.7062   -1.4733 H   0  0  0  0  0  0  0  0  0  0  0  0 
    4.7524    0.5966    0.0937 H   0  0  0  0  0  0  0  0  0  0  0  0 
    4.8578   -1.2357   -1.0678 H   0  0  0  0  0  0  0  0  0  0  0  0 
    2.2246    1.5239   -3.4288 H   0  0  0  0  0  0  0  0  0  0  0  0 
  1 10  1  0  0  0  0 
  1  9  1  0  0  0  0 
  1  3  1  0  0  0  0 
  2  1  1  0  0  0  0 
  3 13  1  1  0  0  0 
  4  3  1  0  0  0  0 
  4  6  2  0  0  0  0 
  5  3  1  0  0  0  0 
  5 15  1  0  0  0  0 
  7  4  1  0  0  0  0 
  8 17  1  0  0  0  0 
  8  2  1  0  0  0  0 
 11  2  1  0  0  0  0 
 12  2  1  0  0  0  0 
 14  5  1  0  0  0  0 
 16  7  1  0  0  0  0 
M  END 
>  <HBA> 
4 
 
>  <HBD> 
3 
 
>  <TPSA> 
102.12 
 
>  <cid> 
778 
 
>  <dipole> 
3.61 
 
>  <excitation_energy_1> 
5.206 
 
>  <excitation_energy_2> 
5.405 
 
>  <excitation_energy_3> 
5.579 
 
>  <excitation_energy_4> 
5.935 
 
>  <homo_energy> 
-6.539 
 
>  <homo_lumo_gap> 
6.713 
 
>  <logP> 
0.418 
 
>  <lumo_energy> 
0.174 
 
>  <melting_point> 
126.43 
 
>  <molecular_refractivity> 
33.75 
 
>  <oscillator_strength_1> 
0.001 
 
>  <oscillator_strength_2> 
0.0127 
 
>  <oscillator_strength_3> 
0.0131 
 
>  <oscillator_strength_4> 
0.0458 
 
>  <open_babel_can_smiles> 
N[C@H](C(=O)O)CCS 
 
>  <mulliken_charges> 
17 
1   -0.255293 
2   -0.433749 
3   -0.064763 
4   0.574299 
5   -0.757071 
6   -0.458732 
7   -0.56067 
8   -0.103936 
9   0.177444 
10   0.159521 
11   0.18875 
12   0.207398 
13   0.178392 
14   0.336982 
15   0.312222 
16   0.39186 
17   0.107348 
 
>  <lowdin_charges> 
17 
1   -0.276684 
2   -0.372794 
3   -0.102703 
4   0.171358 
5   -0.563753 
6   -0.257458 
7   -0.351061 
8   -0.088569 
9   0.172178 
10   0.156214 
11   0.168215 
12   0.178761 
13   0.170217 
14   0.266608 
15   0.265888 
16   0.346934 
17   0.11665 
 
$$$$ 
 
