PCCDB-ID:  484 
public computational chemistry database (PCCDB) project, http://pccdb.org 
 
 11 11  0  0  0  0  0  0  0  0999 V2000 
   -1.1100   -0.0515    0.1387 C   0  0  0  0  0  0  0  0  0  0  0  0 
    0.8937    0.6846   -0.0285 C   0  0  0  0  0  0  0  0  0  0  0  0 
   -0.3225   -1.1687   -0.0240 C   0  0  0  0  0  0  0  0  0  0  0  0 
   -0.5491   -2.5611   -0.1217 N   0  0  0  0  0  0  0  0  0  0  0  0 
   -0.3466    1.0956    0.1300 N   0  0  0  0  0  0  0  0  0  0  0  0 
    0.9663   -0.6750   -0.1300 N   0  0  0  0  0  0  0  0  0  0  0  0 
   -2.1851   -0.0120    0.2593 H   0  0  0  0  0  0  0  0  0  0  0  0 
    1.7696    1.3186   -0.0704 H   0  0  0  0  0  0  0  0  0  0  0  0 
   -1.3894   -2.7572   -0.6580 H   0  0  0  0  0  0  0  0  0  0  0  0 
   -0.6614   -2.9957    0.7927 H   0  0  0  0  0  0  0  0  0  0  0  0 
    1.7815   -1.2457   -0.3036 H   0  0  0  0  0  0  0  0  0  0  0  0 
  1  7  1  0  0  0  0 
  2  5  2  0  0  0  0 
  3  1  2  0  0  0  0 
  4  3  1  0  0  0  0 
  4 10  1  0  0  0  0 
  5  1  1  0  0  0  0 
  6  2  1  0  0  0  0 
  6  3  1  0  0  0  0 
  8  2  1  0  0  0  0 
  9  4  1  0  0  0  0 
 11  6  1  0  0  0  0 
M  END 
>  <HBA> 
2 
 
>  <HBD> 
2 
 
>  <TPSA> 
54.7 
 
>  <cid> 
484 
 
>  <dipole> 
3.23 
 
>  <excitation_energy_1> 
4.938 
 
>  <excitation_energy_2> 
5.576 
 
>  <excitation_energy_3> 
6.039 
 
>  <excitation_energy_4> 
6.088 
 
>  <homo_energy> 
-5.761 
 
>  <homo_lumo_gap> 
6.808 
 
>  <logP> 
0.573 
 
>  <lumo_energy> 
1.048 
 
>  <melting_point> 
115.25 
 
>  <molecular_refractivity> 
22.99 
 
>  <oscillator_strength_1> 
0.0026 
 
>  <oscillator_strength_2> 
0.0055 
 
>  <oscillator_strength_3> 
0.0199 
 
>  <oscillator_strength_4> 
0.1023 
 
>  <open_babel_can_smiles> 
Nc1cnc[nH]1 
 
>  <mulliken_charges> 
11 
1   -0.048223 
2   0.203089 
3   0.377245 
4   -0.801241 
5   -0.42979 
6   -0.557082 
7   0.124366 
8   0.150404 
9   0.325367 
10   0.323201 
11   0.332665 
 
>  <lowdin_charges> 
11 
1   -0.185097 
2   -0.098724 
3   0.01371 
4   -0.521552 
5   -0.188709 
6   -0.18613 
7   0.155107 
8   0.165269 
9   0.277222 
10   0.273134 
11   0.29577 
 
$$$$ 
 
