PCCDB-ID:  441 
public computational chemistry database (PCCDB) project, http://pccdb.org 
 
 15 14  0  0  1  0  0  0  0  0999 V2000 
    0.9481   -0.5217    0.4554 C   0  0  0  0  0  0  0  0  0  0  0  0 
    2.3461    0.8546   -1.1657 C   0  0  0  0  0  0  0  0  0  0  0  0 
    2.2226    0.2910    0.2532 C   0  0  1  0  0  0  0  0  0  0  0  0 
    3.6690    1.5638   -1.4784 C   0  0  0  0  0  0  0  0  0  0  0  0 
    2.2361    1.4353    1.1398 O   0  0  0  0  0  0  0  0  0  0  0  0 
    4.2308    1.4570   -2.5421 O   0  0  0  0  0  0  0  0  0  0  0  0 
    4.1616    2.3451   -0.4954 O   0  0  0  0  0  0  0  0  0  0  0  0 
    0.9300   -1.3909   -0.2111 H   0  0  0  0  0  0  0  0  0  0  0  0 
    0.0660    0.0947    0.2520 H   0  0  0  0  0  0  0  0  0  0  0  0 
    0.8793   -0.8903    1.4862 H   0  0  0  0  0  0  0  0  0  0  0  0 
    1.5273    1.5710   -1.3226 H   0  0  0  0  0  0  0  0  0  0  0  0 
    2.2297    0.0561   -1.9019 H   0  0  0  0  0  0  0  0  0  0  0  0 
    3.0996   -0.3377    0.4692 H   0  0  0  0  0  0  0  0  0  0  0  0 
    2.3407    1.1196    2.0512 H   0  0  0  0  0  0  0  0  0  0  0  0 
    3.5662    2.2834    0.2864 H   0  0  0  0  0  0  0  0  0  0  0  0 
  1 10  1  0  0  0  0 
  2  3  1  0  0  0  0 
  3  1  1  0  0  0  0 
  3 13  1  1  0  0  0 
  3  5  1  0  0  0  0 
  4  2  1  0  0  0  0 
  4  7  1  0  0  0  0 
  5 14  1  0  0  0  0 
  6  4  2  0  0  0  0 
  7 15  1  0  0  0  0 
  8  1  1  0  0  0  0 
  9  1  1  0  0  0  0 
 11  2  1  0  0  0  0 
 12  2  1  0  0  0  0 
M  END 
>  <HBA> 
3 
 
>  <HBD> 
2 
 
>  <TPSA> 
57.53 
 
>  <cid> 
441 
 
>  <dipole> 
5.95 
 
>  <excitation_energy_1> 
5.637 
 
>  <excitation_energy_2> 
6.175 
 
>  <excitation_energy_3> 
6.98 
 
>  <excitation_energy_4> 
7.127 
 
>  <homo_energy> 
-6.944 
 
>  <homo_lumo_gap> 
7.543 
 
>  <logP> 
-0.158 
 
>  <lumo_energy> 
0.599 
 
>  <melting_point> 
70.54 
 
>  <molecular_refractivity> 
24.28 
 
>  <oscillator_strength_1> 
0.0007 
 
>  <oscillator_strength_2> 
0.0069 
 
>  <oscillator_strength_3> 
0.0087 
 
>  <oscillator_strength_4> 
0.0283 
 
>  <open_babel_can_smiles> 
C[C@@H](CC(=O)O)O 
 
>  <mulliken_charges> 
15 
1   -0.453042 
2   -0.377597 
3   0.106019 
4   0.585472 
5   -0.638703 
6   -0.45403 
7   -0.587589 
8   0.159483 
9   0.165437 
10   0.144402 
11   0.182546 
12   0.18011 
13   0.144081 
14   0.409172 
15   0.43424 
 
>  <lowdin_charges> 
15 
1   -0.454105 
2   -0.325597 
3   -0.001088 
4   0.187098 
5   -0.463923 
6   -0.253124 
7   -0.370418 
8   0.162677 
9   0.16198 
10   0.151179 
11   0.175631 
12   0.178374 
13   0.138862 
14   0.354626 
15   0.357828 
 
$$$$ 
 
