PCCDB-ID:  1801 
public computational chemistry database (PCCDB) project, http://pccdb.org 
 
 20 21  0  0  0  0  0  0  0  0999 V2000 
    2.0976   -0.6905    0.0574 C   0  0  0  0  0  0  0  0  0  0  0  0 
    0.9086   -1.4087    0.0471 C   0  0  0  0  0  0  0  0  0  0  0  0 
    0.9192    1.4491   -0.0073 C   0  0  0  0  0  0  0  0  0  0  0  0 
   -2.3355   -0.0734   -0.0712 C   0  0  0  0  0  0  0  0  0  0  0  0 
    2.1161    0.7264    0.0359 C   0  0  0  0  0  0  0  0  0  0  0  0 
   -0.2963   -0.6964    0.0039 C   0  0  0  0  0  0  0  0  0  0  0  0 
   -0.2673    0.7204   -0.0223 C   0  0  0  0  0  0  0  0  0  0  0  0 
    3.4131    1.4718    0.0611 C   0  0  0  0  0  0  0  0  0  0  0  0 
    3.6306    2.5991    0.6400 N   0  0  0  0  0  0  0  0  0  0  0  0 
    4.4682    0.8309   -0.5762 N   0  0  0  0  0  0  0  0  0  0  0  0 
   -1.6058   -1.1579   -0.0262 N   0  0  0  0  0  0  0  0  0  0  0  0 
   -1.6005    1.0906   -0.0747 N   0  0  0  0  0  0  0  0  0  0  0  0 
    3.0449   -1.2169    0.1123 H   0  0  0  0  0  0  0  0  0  0  0  0 
    0.9013   -2.4938    0.0756 H   0  0  0  0  0  0  0  0  0  0  0  0 
    0.9317    2.5343   -0.0540 H   0  0  0  0  0  0  0  0  0  0  0  0 
   -3.4178   -0.0524   -0.1041 H   0  0  0  0  0  0  0  0  0  0  0  0 
    2.8120    2.8784    1.1835 H   0  0  0  0  0  0  0  0  0  0  0  0 
    4.2424    0.3341   -1.4288 H   0  0  0  0  0  0  0  0  0  0  0  0 
    5.2915    1.4181   -0.6502 H   0  0  0  0  0  0  0  0  0  0  0  0 
   -1.9674    2.0304   -0.1014 H   0  0  0  0  0  0  0  0  0  0  0  0 
  1 13  1  0  0  0  0 
  2  1  1  0  0  0  0 
  2 14  1  0  0  0  0 
  3  5  1  0  0  0  0 
  4 11  2  0  0  0  0 
  5  1  2  0  0  0  0 
  5  8  1  0  0  0  0 
  6  2  2  0  0  0  0 
  7  3  2  0  0  0  0 
  7  6  1  0  0  0  0 
  8  9  1  0  0  0  0 
  9 17  1  0  0  0  0 
 10  8  2  0  0  0  0 
 11  6  1  0  0  0  0 
 12  4  1  0  0  0  0 
 12  7  1  0  0  0  0 
 15  3  1  0  0  0  0 
 16  4  1  0  0  0  0 
 18 10  1  0  0  0  0 
 19 10  1  0  0  0  0 
 20 12  1  0  0  0  0 
M  RAD  1   9   2 
M  END 
>  <HBA> 
3 
 
>  <HBD> 
3 
 
>  <TPSA> 
78.55 
 
>  <cid> 
1801 
 
>  <dipole> 
3.4 
 
>  <excitation_energy_1> 
4.657 
 
>  <excitation_energy_2> 
4.732 
 
>  <excitation_energy_3> 
4.937 
 
>  <excitation_energy_4> 
5.175 
 
>  <homo_energy> 
-6.112 
 
>  <homo_lumo_gap> 
5.2 
 
>  <logP> 
1.647 
 
>  <lumo_energy> 
-0.912 
 
>  <melting_point> 
200.82 
 
>  <molecular_refractivity> 
47.36 
 
>  <oscillator_strength_1> 
0.1171 
 
>  <oscillator_strength_2> 
0.021 
 
>  <oscillator_strength_3> 
0.0311 
 
>  <oscillator_strength_4> 
0.0685 
 
>  <open_babel_can_smiles> 
[NH]C(=[NH2])c1ccc2c(c1)[nH]cn2 
 
>  <mulliken_charges> 
20 
1   -0.195479 
2   -0.173798 
3   -0.226606 
4   0.231873 
5   0.079928 
6   0.233393 
7   0.345487 
8   0.37264 
9   -0.625478 
10   -0.737043 
11   -0.49008 
12   -0.682959 
13   0.147845 
14   0.146363 
15   0.139721 
16   0.166007 
17   0.276252 
18   0.322344 
19   0.332811 
20   0.336779 
 
>  <lowdin_charges> 
20 
1   -0.172933 
2   -0.148997 
3   -0.180391 
4   -0.051769 
5   -0.036417 
6   0.013225 
7   0.017465 
8   0.090986 
9   -0.441512 
10   -0.477225 
11   -0.187056 
12   -0.202062 
13   0.168451 
14   0.168172 
15   0.161842 
16   0.168963 
17   0.249749 
18   0.277792 
19   0.284179 
20   0.297538 
 
$$$$ 
 
