PCCDB-ID:  2083 
public computational chemistry database (PCCDB) project, http://pccdb.org 
 
 38 38  0  0  1  0  0  0  0  0999 V2000 
    3.8798    2.1737    0.0740 C   0  0  0  0  0  0  0  0  0  0  0  0 
    4.1565   -0.0462    1.2036 C   0  0  0  0  0  0  0  0  0  0  0  0 
    1.9798    0.5220    0.0543 C   0  0  0  0  0  0  0  0  0  0  0  0 
    3.3256   -1.2418   -4.8181 C   0  0  0  0  0  0  0  0  0  0  0  0 
    3.0076   -0.6014   -6.0158 C   0  0  0  0  0  0  0  0  0  0  0  0 
    5.3138    0.0919   -4.6356 C   0  0  0  0  0  0  0  0  0  0  0  0 
    3.8090   -1.2053   -1.6650 C   0  0  0  0  0  0  0  0  0  0  0  0 
    5.9357    1.8147   -6.4088 C   0  0  0  0  0  0  0  0  0  0  0  0 
    4.4808   -0.9005   -4.1063 C   0  0  0  0  0  0  0  0  0  0  0  0 
    5.0244    0.7489   -5.8330 C   0  0  0  0  0  0  0  0  0  0  0  0 
    3.8528    0.3890   -6.5156 C   0  0  0  0  0  0  0  0  0  0  0  0 
    4.8124   -1.5895   -2.7809 C   0  0  1  0  0  0  0  0  0  0  0  0 
    3.5149    0.6813    0.0095 C   0  0  0  0  0  0  0  0  0  0  0  0 
    4.1028    0.1693   -1.2535 N   0  0  0  0  0  0  0  0  0  0  0  0 
    5.2896    3.0681   -6.6061 O   0  0  0  0  0  0  0  0  0  0  0  0 
    3.5908    1.0540   -7.6960 O   0  0  0  0  0  0  0  0  0  0  0  0 
    6.1206   -1.2973   -2.3263 O   0  0  0  0  0  0  0  0  0  0  0  0 
    3.5160    2.6240    1.0038 H   0  0  0  0  0  0  0  0  0  0  0  0 
    3.4308    2.7263   -0.7614 H   0  0  0  0  0  0  0  0  0  0  0  0 
    4.9657    2.3060    0.0243 H   0  0  0  0  0  0  0  0  0  0  0  0 
    3.8046    0.3892    2.1453 H   0  0  0  0  0  0  0  0  0  0  0  0 
    5.2472    0.0451    1.1662 H   0  0  0  0  0  0  0  0  0  0  0  0 
    3.9036   -1.1116    1.2230 H   0  0  0  0  0  0  0  0  0  0  0  0 
    1.5675    0.9588    0.9714 H   0  0  0  0  0  0  0  0  0  0  0  0 
    1.6831   -0.5325    0.0285 H   0  0  0  0  0  0  0  0  0  0  0  0 
    1.5091    1.0276   -0.7982 H   0  0  0  0  0  0  0  0  0  0  0  0 
    2.6628   -2.0193   -4.4435 H   0  0  0  0  0  0  0  0  0  0  0  0 
    2.1063   -0.8750   -6.5624 H   0  0  0  0  0  0  0  0  0  0  0  0 
    6.2259    0.3378   -4.1004 H   0  0  0  0  0  0  0  0  0  0  0  0 
    3.9841   -1.8685   -0.8127 H   0  0  0  0  0  0  0  0  0  0  0  0 
    2.7751   -1.3647   -2.0093 H   0  0  0  0  0  0  0  0  0  0  0  0 
    6.3756    1.4527   -7.3526 H   0  0  0  0  0  0  0  0  0  0  0  0 
    6.7609    2.0022   -5.7157 H   0  0  0  0  0  0  0  0  0  0  0  0 
    4.7564   -2.6760   -2.9306 H   0  0  0  0  0  0  0  0  0  0  0  0 
    3.8365    0.7956   -2.0136 H   0  0  0  0  0  0  0  0  0  0  0  0 
    4.5847    2.9033   -7.2536 H   0  0  0  0  0  0  0  0  0  0  0  0 
    2.7620    0.7209   -8.0731 H   0  0  0  0  0  0  0  0  0  0  0  0 
    5.9909   -0.5114   -1.7538 H   0  0  0  0  0  0  0  0  0  0  0  0 
  1 18  1  0  0  0  0 
  2 23  1  0  0  0  0 
  2 21  1  0  0  0  0 
  3 24  1  0  0  0  0 
  4 27  1  0  0  0  0 
  4  9  2  0  0  0  0 
  5  4  1  0  0  0  0 
  6  9  1  0  0  0  0 
  6 29  1  0  0  0  0 
  7 14  1  0  0  0  0 
  7 30  1  0  0  0  0 
  8 10  1  0  0  0  0 
  8 33  1  0  0  0  0 
  9 12  1  0  0  0  0 
 10  6  2  0  0  0  0 
 11  5  2  0  0  0  0 
 11 10  1  0  0  0  0 
 12 34  1  6  0  0  0 
 12 17  1  0  0  0  0 
 12  7  1  0  0  0  0 
 13  3  1  0  0  0  0 
 13  1  1  0  0  0  0 
 13  2  1  0  0  0  0 
 14 13  1  0  0  0  0 
 15  8  1  0  0  0  0 
 16 11  1  0  0  0  0 
 17 38  1  0  0  0  0 
 19  1  1  0  0  0  0 
 20  1  1  0  0  0  0 
 22  2  1  0  0  0  0 
 25  3  1  0  0  0  0 
 26  3  1  0  0  0  0 
 28  5  1  0  0  0  0 
 31  7  1  0  0  0  0 
 32  8  1  0  0  0  0 
 35 14  1  0  0  0  0 
 36 15  1  0  0  0  0 
 37 16  1  0  0  0  0 
M  END 
>  <HBA> 
4 
 
>  <HBD> 
4 
 
>  <TPSA> 
72.72 
 
>  <cid> 
2083 
 
>  <dipole> 
4.34 
 
>  <excitation_energy_1> 
4.948 
 
>  <excitation_energy_2> 
5.055 
 
>  <excitation_energy_3> 
5.361 
 
>  <excitation_energy_4> 
5.497 
 
>  <homo_energy> 
-5.97 
 
>  <homo_lumo_gap> 
5.821 
 
>  <logP> 
1.697 
 
>  <lumo_energy> 
-0.15 
 
>  <melting_point> 
125.08 
 
>  <molecular_refractivity> 
67.6 
 
>  <oscillator_strength_1> 
0.0271 
 
>  <oscillator_strength_2> 
0.0005 
 
>  <oscillator_strength_3> 
0.0021 
 
>  <oscillator_strength_4> 
0.0482 
 
>  <open_babel_can_smiles> 
OCc1cc(ccc1O)[C@H](CNC(C)(C)C)O 
 
>  <mulliken_charges> 
38 
1   -0.451774 
2   -0.440964 
3   -0.446844 
4   -0.194348 
5   -0.186329 
6   -0.260853 
7   -0.151126 
8   -0.107382 
9   0.134609 
10   0.136258 
11   0.293484 
12   0.072395 
13   0.217738 
14   -0.598934 
15   -0.628154 
16   -0.668242 
17   -0.643579 
18   0.144905 
19   0.139873 
20   0.154866 
21   0.142333 
22   0.152744 
23   0.143787 
24   0.14336 
25   0.144709 
26   0.137815 
27   0.124074 
28   0.117665 
29   0.14096 
30   0.153712 
31   0.127978 
32   0.135589 
33   0.150026 
34   0.138801 
35   0.307077 
36   0.408299 
37   0.412853 
38   0.402619 
 
>  <lowdin_charges> 
38 
1   -0.444639 
2   -0.443298 
3   -0.457294 
4   -0.162323 
5   -0.209813 
6   -0.159963 
7   -0.222393 
8   -0.130267 
9   -0.041746 
10   -0.04656 
11   0.093185 
12   -0.003854 
13   0.073049 
14   -0.361954 
15   -0.474894 
16   -0.393953 
17   -0.464757 
18   0.152871 
19   0.148478 
20   0.154104 
21   0.152086 
22   0.153318 
23   0.147281 
24   0.152527 
25   0.148462 
26   0.148228 
27   0.15573 
28   0.153016 
29   0.166929 
30   0.151467 
31   0.129162 
32   0.137388 
33   0.153065 
34   0.145018 
35   0.260719 
36   0.343629 
37   0.361092 
38   0.336902 
 
$$$$ 
 
