PCCDB-ID:  953 
public computational chemistry database (PCCDB) project, http://pccdb.org 
 
 22 21  0  0  1  0  0  0  0  0999 V2000 
    1.6757   -0.3494   -0.0486 C   0  0  0  0  0  0  0  0  0  0  0  0 
    1.1892    0.2489   -1.3624 C   0  0  0  0  0  0  0  0  0  0  0  0 
    3.1812   -0.1651    0.2246 C   0  0  1  0  0  0  0  0  0  0  0  0 
    3.5509    1.2944    0.5727 C   0  0  0  0  0  0  0  0  0  0  0  0 
    3.7303   -1.0438    1.2759 N   0  0  0  0  0  0  0  0  0  0  0  0 
    3.0013    2.2586    0.0878 O   0  0  0  0  0  0  0  0  0  0  0  0 
    4.5652    1.3967    1.4415 O   0  0  0  0  0  0  0  0  0  0  0  0 
    0.1687   -0.3584   -4.1645 O   0  0  0  0  0  0  0  0  0  0  0  0 
    1.7061    1.6057   -4.0502 O   0  0  0  0  0  0  0  0  0  0  0  0 
    2.7104   -0.6594   -4.8654 O   0  0  0  0  0  0  0  0  0  0  0  0 
    1.9348   -0.3979   -2.4281 O   0  0  0  0  0  0  0  0  0  0  0  0 
    1.7347   -0.0161   -3.9666 P   0  0  0  0  0  0  0  0  0  0  0  0 
    1.4623   -1.4255   -0.0554 H   0  0  0  0  0  0  0  0  0  0  0  0 
    1.0897    0.0979    0.7650 H   0  0  0  0  0  0  0  0  0  0  0  0 
    1.3719    1.3233   -1.3968 H   0  0  0  0  0  0  0  0  0  0  0  0 
    0.1233    0.0449   -1.5049 H   0  0  0  0  0  0  0  0  0  0  0  0 
    3.7255   -0.3981   -0.6984 H   0  0  0  0  0  0  0  0  0  0  0  0 
    3.0574   -1.1642    2.0323 H   0  0  0  0  0  0  0  0  0  0  0  0 
    3.9353   -1.9701    0.9091 H   0  0  0  0  0  0  0  0  0  0  0  0 
    4.7741    0.4617    1.6964 H   0  0  0  0  0  0  0  0  0  0  0  0 
   -0.1116   -0.2280   -5.0852 H   0  0  0  0  0  0  0  0  0  0  0  0 
    2.5821    1.9426   -4.3029 H   0  0  0  0  0  0  0  0  0  0  0  0 
  1  3  1  0  0  0  0 
  1 14  1  0  0  0  0 
  2  1  1  0  0  0  0 
  3 17  1  6  0  0  0 
  3  4  1  0  0  0  0 
  3  5  1  0  0  0  0 
  4  7  1  0  0  0  0 
  5 18  1  0  0  0  0 
  6  4  2  0  0  0  0 
  7 20  1  0  0  0  0 
  8 12  1  0  0  0  0 
  9 12  1  0  0  0  0 
 10 12  2  0  0  0  0 
 11  2  1  0  0  0  0 
 12 11  1  0  0  0  0 
 13  1  1  0  0  0  0 
 15  2  1  0  0  0  0 
 16  2  1  0  0  0  0 
 19  5  1  0  0  0  0 
 21  8  1  0  0  0  0 
 22  9  1  0  0  0  0 
M  END 
>  <HBA> 
7 
 
>  <HBD> 
4 
 
>  <TPSA> 
139.89 
 
>  <cid> 
953 
 
>  <dipole> 
3.58 
 
>  <excitation_energy_1> 
5.451 
 
>  <excitation_energy_2> 
6.23 
 
>  <excitation_energy_3> 
6.349 
 
>  <excitation_energy_4> 
6.702 
 
>  <homo_energy> 
-7.059 
 
>  <homo_lumo_gap> 
7.279 
 
>  <logP> 
-0.402 
 
>  <lumo_energy> 
0.22 
 
>  <melting_point> 
185.9 
 
>  <molecular_refractivity> 
37.89 
 
>  <oscillator_strength_1> 
0.0019 
 
>  <oscillator_strength_2> 
0.0088 
 
>  <oscillator_strength_3> 
0.0132 
 
>  <oscillator_strength_4> 
0.0266 
 
>  <open_babel_can_smiles> 
OC(=O)[C@H](CCOP(=O)(O)O)N 
 
>  <mulliken_charges> 
22 
1   -0.292587 
2   -0.057795 
3   -0.093427 
4   0.608995 
5   -0.772877 
6   -0.467091 
7   -0.576352 
8   -0.649649 
9   -0.656772 
10   -0.531657 
11   -0.519658 
12   1.151335 
13   0.151905 
14   0.154291 
15   0.207792 
16   0.165184 
17   0.206798 
18   0.321929 
19   0.330572 
20   0.434228 
21   0.442166 
22   0.442669 
 
>  <lowdin_charges> 
22 
1   -0.287639 
2   -0.120074 
3   -0.113846 
4   0.178736 
5   -0.541796 
6   -0.263555 
7   -0.350855 
8   -0.565601 
9   -0.577554 
10   -0.578946 
11   -0.39592 
12   1.120538 
13   0.151911 
14   0.160229 
15   0.173367 
16   0.15576 
17   0.180553 
18   0.268238 
19   0.27499 
20   0.359445 
21   0.385491 
22   0.386529 
 
$$$$ 
 
