PCCDB-ID:  912 
public computational chemistry database (PCCDB) project, http://pccdb.org 
 
 20 20  0  0  0  0  0  0  0  0999 V2000 
    0.9701   -2.6333    0.3956 C   0  0  0  0  0  0  0  0  0  0  0  0 
    4.5972   -1.5063    0.6362 C   0  0  0  0  0  0  0  0  0  0  0  0 
    3.0649   -1.4163    0.7262 C   0  0  0  0  0  0  0  0  0  0  0  0 
    6.3340   -2.4862    2.3676 C   0  0  0  0  0  0  0  0  0  0  0  0 
    5.4355   -4.3985    2.6933 C   0  0  0  0  0  0  0  0  0  0  0  0 
    5.2057   -2.5001    1.5785 C   0  0  0  0  0  0  0  0  0  0  0  0 
    2.4291   -2.6673    0.2867 N   0  0  0  0  0  0  0  0  0  0  0  0 
    6.4725   -3.6714    3.0567 N   0  0  0  0  0  0  0  0  0  0  0  0 
    4.6441   -3.7438    1.7957 N   0  0  0  0  0  0  0  0  0  0  0  0 
    0.5509   -3.5566   -0.0164 H   0  0  0  0  0  0  0  0  0  0  0  0 
    0.5053   -1.7768   -0.1235 H   0  0  0  0  0  0  0  0  0  0  0  0 
    0.6876   -2.5768    1.4526 H   0  0  0  0  0  0  0  0  0  0  0  0 
    5.0228   -0.5180    0.8437 H   0  0  0  0  0  0  0  0  0  0  0  0 
    4.8694   -1.7362   -0.4075 H   0  0  0  0  0  0  0  0  0  0  0  0 
    2.7117   -0.5464    0.1426 H   0  0  0  0  0  0  0  0  0  0  0  0 
    2.7692   -1.2421    1.7682 H   0  0  0  0  0  0  0  0  0  0  0  0 
    7.0566   -1.6871    2.4750 H   0  0  0  0  0  0  0  0  0  0  0  0 
    5.2101   -5.3962    3.0464 H   0  0  0  0  0  0  0  0  0  0  0  0 
    2.6813   -2.8267   -0.6892 H   0  0  0  0  0  0  0  0  0  0  0  0 
    3.7453   -4.0011    1.3944 H   0  0  0  0  0  0  0  0  0  0  0  0 
  1 12  1  0  0  0  0 
  2  3  1  0  0  0  0 
  2 13  1  0  0  0  0 
  2  6  1  0  0  0  0 
  3 16  1  0  0  0  0 
  4 17  1  0  0  0  0 
  4  8  1  0  0  0  0 
  5 18  1  0  0  0  0 
  5  8  2  0  0  0  0 
  6  9  1  0  0  0  0 
  6  4  2  0  0  0  0 
  7  1  1  0  0  0  0 
  7  3  1  0  0  0  0 
  9  5  1  0  0  0  0 
 10  1  1  0  0  0  0 
 11  1  1  0  0  0  0 
 14  2  1  0  0  0  0 
 15  3  1  0  0  0  0 
 19  7  1  0  0  0  0 
 20  9  1  0  0  0  0 
M  END 
>  <HBA> 
2 
 
>  <HBD> 
2 
 
>  <TPSA> 
40.71 
 
>  <cid> 
912 
 
>  <dipole> 
5.44 
 
>  <excitation_energy_1> 
5.016 
 
>  <excitation_energy_2> 
5.5 
 
>  <excitation_energy_3> 
5.604 
 
>  <excitation_energy_4> 
5.696 
 
>  <homo_energy> 
-5.559 
 
>  <homo_lumo_gap> 
6.757 
 
>  <logP> 
0.563 
 
>  <lumo_energy> 
1.197 
 
>  <melting_point> 
95.78 
 
>  <molecular_refractivity> 
35.97 
 
>  <oscillator_strength_1> 
0.0293 
 
>  <oscillator_strength_2> 
0.0096 
 
>  <oscillator_strength_3> 
0.0112 
 
>  <oscillator_strength_4> 
0.0196 
 
>  <open_babel_can_smiles> 
CNCCc1cnc[nH]1 
 
>  <mulliken_charges> 
20 
1   -0.3038 
2   -0.36109 
3   -0.128678 
4   -0.088169 
5   0.200257 
6   0.319715 
7   -0.561413 
8   -0.431487 
9   -0.595144 
10   0.154924 
11   0.132016 
12   0.161747 
13   0.159652 
14   0.146765 
15   0.123599 
16   0.156207 
17   0.120216 
18   0.143625 
19   0.302874 
20   0.348184 
 
>  <lowdin_charges> 
20 
1   -0.361111 
2   -0.275192 
3   -0.202618 
4   -0.18043 
5   -0.102333 
6   -0.020529 
7   -0.361211 
8   -0.194864 
9   -0.188169 
10   0.1546 
11   0.130245 
12   0.152428 
13   0.164429 
14   0.146683 
15   0.126946 
16   0.148765 
17   0.155415 
18   0.160437 
19   0.253271 
20   0.293237 
 
$$$$ 
 
