PCCDB-ID:  998 
public computational chemistry database (PCCDB) project, http://pccdb.org 
 
 17 17  0  0  0  0  0  0  0  0999 V2000 
   -1.6919   -0.0224    0.0240 C   0  0  0  0  0  0  0  0  0  0  0  0 
   -1.0442    1.2129   -0.0107 C   0  0  0  0  0  0  0  0  0  0  0  0 
   -0.9381   -1.1983    0.0197 C   0  0  0  0  0  0  0  0  0  0  0  0 
    0.3501    1.2714   -0.0513 C   0  0  0  0  0  0  0  0  0  0  0  0 
    0.4545   -1.1373   -0.0187 C   0  0  0  0  0  0  0  0  0  0  0  0 
    2.6318    0.1482   -0.0662 C   0  0  0  0  0  0  0  0  0  0  0  0 
    3.1866   -0.1275    1.3242 C   0  0  0  0  0  0  0  0  0  0  0  0 
    1.1152    0.0990   -0.0603 C   0  0  0  0  0  0  0  0  0  0  0  0 
    3.9467   -1.0302    1.5914 O   0  0  0  0  0  0  0  0  0  0  0  0 
   -2.7771   -0.0696    0.0524 H   0  0  0  0  0  0  0  0  0  0  0  0 
   -1.6228    2.1328   -0.0095 H   0  0  0  0  0  0  0  0  0  0  0  0 
   -1.4349   -2.1645    0.0456 H   0  0  0  0  0  0  0  0  0  0  0  0 
    0.8486    2.2377   -0.0866 H   0  0  0  0  0  0  0  0  0  0  0  0 
    1.0378   -2.0552   -0.0189 H   0  0  0  0  0  0  0  0  0  0  0  0 
    3.0629   -0.5872   -0.7527 H   0  0  0  0  0  0  0  0  0  0  0  0 
    2.9709    1.1476   -0.3721 H   0  0  0  0  0  0  0  0  0  0  0  0 
    2.8222    0.5689    2.1125 H   0  0  0  0  0  0  0  0  0  0  0  0 
  1 10  1  0  0  0  0 
  2 11  1  0  0  0  0 
  2  1  2  0  0  0  0 
  3  1  1  0  0  0  0 
  3 12  1  0  0  0  0 
  4  2  1  0  0  0  0 
  5  3  2  0  0  0  0 
  6  8  1  0  0  0  0 
  6  7  1  0  0  0  0 
  7  9  2  0  0  0  0 
  7 17  1  0  0  0  0 
  8  4  2  0  0  0  0 
  8  5  1  0  0  0  0 
 13  4  1  0  0  0  0 
 14  5  1  0  0  0  0 
 15  6  1  0  0  0  0 
 16  6  1  0  0  0  0 
M  END 
>  <HBA> 
1 
 
>  <HBD> 
0 
 
>  <TPSA> 
17.07 
 
>  <cid> 
998 
 
>  <dipole> 
2.71 
 
>  <excitation_energy_1> 
4.165 
 
>  <excitation_energy_2> 
5.1 
 
>  <excitation_energy_3> 
5.298 
 
>  <excitation_energy_4> 
5.58 
 
>  <homo_energy> 
-6.588 
 
>  <homo_lumo_gap> 
5.747 
 
>  <logP> 
1.428 
 
>  <lumo_energy> 
-0.841 
 
>  <melting_point> 
38.21 
 
>  <molecular_refractivity> 
36.41 
 
>  <oscillator_strength_1> 
0.0085 
 
>  <oscillator_strength_2> 
0.0085 
 
>  <oscillator_strength_3> 
0.0361 
 
>  <oscillator_strength_4> 
0.042 
 
>  <open_babel_can_smiles> 
O=CCc1ccccc1 
 
>  <mulliken_charges> 
17 
1   -0.128633 
2   -0.125833 
3   -0.12676 
4   -0.181482 
5   -0.170711 
6   -0.418164 
7   0.265447 
8   0.14547 
9   -0.380261 
10   0.13364 
11   0.133763 
12   0.135497 
13   0.126522 
14   0.14053 
15   0.175291 
16   0.16554 
17   0.110144 
 
>  <lowdin_charges> 
17 
1   -0.152601 
2   -0.152859 
3   -0.150697 
4   -0.168033 
5   -0.161187 
6   -0.306633 
7   0.055232 
8   -0.005593 
9   -0.213449 
10   0.15771 
11   0.160109 
12   0.160451 
13   0.155492 
14   0.162758 
15   0.171257 
16   0.167731 
17   0.120312 
 
$$$$ 
 
