PCCDB-ID:  868 
public computational chemistry database (PCCDB) project, http://pccdb.org 
 
 10  9  0  0  0  0  0  0  0  0999 V2000 
    1.0239    0.0778    0.0488 C   0  0  0  0  0  0  0  0  0  0  0  0 
    0.2239    1.0111    0.9216 C   0  0  0  0  0  0  0  0  0  0  0  0 
    2.5602    0.1932    0.0189 C   0  0  0  0  0  0  0  0  0  0  0  0 
    0.6927    1.8892    1.6246 O   0  0  0  0  0  0  0  0  0  0  0  0 
    3.2089   -0.5588   -0.6654 O   0  0  0  0  0  0  0  0  0  0  0  0 
    3.1219    1.1481    0.7706 O   0  0  0  0  0  0  0  0  0  0  0  0 
    0.6596    0.1781   -0.9836 H   0  0  0  0  0  0  0  0  0  0  0  0 
    0.7697   -0.9551    0.3249 H   0  0  0  0  0  0  0  0  0  0  0  0 
   -0.8729    0.8581    0.8964 H   0  0  0  0  0  0  0  0  0  0  0  0 
    2.4209    1.6467    1.2529 H   0  0  0  0  0  0  0  0  0  0  0  0 
  1  8  1  0  0  0  0 
  1  2  1  0  0  0  0 
  2  4  2  0  0  0  0 
  3  1  1  0  0  0  0 
  3  6  1  0  0  0  0 
  5  3  2  0  0  0  0 
  6 10  1  0  0  0  0 
  7  1  1  0  0  0  0 
  9  2  1  0  0  0  0 
M  END 
>  <HBA> 
3 
 
>  <HBD> 
1 
 
>  <TPSA> 
54.37 
 
>  <cid> 
868 
 
>  <dipole> 
4.52 
 
>  <excitation_energy_1> 
4.382 
 
>  <excitation_energy_2> 
4.998 
 
>  <excitation_energy_3> 
5.733 
 
>  <excitation_energy_4> 
5.865 
 
>  <homo_energy> 
-7.442 
 
>  <homo_lumo_gap> 
5.597 
 
>  <logP> 
-0.34 
 
>  <lumo_energy> 
-1.845 
 
>  <melting_point> 
84.31 
 
>  <molecular_refractivity> 
18.51 
 
>  <oscillator_strength_1> 
0.0002 
 
>  <oscillator_strength_2> 
0.0 
 
>  <oscillator_strength_3> 
0.0002 
 
>  <oscillator_strength_4> 
0.0044 
 
>  <open_babel_can_smiles> 
O=CCC(=O)O 
 
>  <mulliken_charges> 
10 
1   -0.479814 
2   0.26841 
3   0.605099 
4   -0.397931 
5   -0.444953 
6   -0.574077 
7   0.218987 
8   0.218504 
9   0.149812 
10   0.435964 
 
>  <lowdin_charges> 
10 
1   -0.358461 
2   0.075688 
3   0.193119 
4   -0.217399 
5   -0.246917 
6   -0.35127 
7   0.20175 
8   0.20129 
9   0.141501 
10   0.3607 
 
$$$$ 
 
