PCCDB-ID:  77 
public computational chemistry database (PCCDB) project, http://pccdb.org 
 
 24 23  0  0  1  0  0  0  0  0999 V2000 
    0.1853   -0.0118    1.8074 C   0  0  0  0  0  0  0  0  0  0  0  0 
   -0.8498    1.7955    0.3725 C   0  0  0  0  0  0  0  0  0  0  0  0 
    1.5786    1.5743   -1.5202 C   0  0  0  0  0  0  0  0  0  0  0  0 
    0.1548    0.6336    0.4113 C   0  0  0  0  0  0  0  0  0  0  0  0 
    3.0111    1.8302   -1.9646 C   0  0  0  0  0  0  0  0  0  0  0  0 
    2.2212    2.0901    0.8449 C   0  0  0  0  0  0  0  0  0  0  0  0 
    1.5855    1.0182   -0.0769 C   0  0  2  0  0  0  0  0  0  0  0  0 
    3.7366    0.9220   -2.3214 O   0  0  0  0  0  0  0  0  0  0  0  0 
    3.4729    3.0880   -1.8706 O   0  0  0  0  0  0  0  0  0  0  0  0 
    2.0119    3.2810    0.7174 O   0  0  0  0  0  0  0  0  0  0  0  0 
    3.0219    1.5958    1.7917 O   0  0  0  0  0  0  0  0  0  0  0  0 
    2.3821   -0.1722    0.0017 O   0  0  0  0  0  0  0  0  0  0  0  0 
   -0.8163   -0.3702    2.0678 H   0  0  0  0  0  0  0  0  0  0  0  0 
    0.4887    0.7047    2.5799 H   0  0  0  0  0  0  0  0  0  0  0  0 
    0.8655   -0.8673    1.8385 H   0  0  0  0  0  0  0  0  0  0  0  0 
   -1.8218    1.4475    0.7378 H   0  0  0  0  0  0  0  0  0  0  0  0 
   -1.0049    2.1835   -0.6395 H   0  0  0  0  0  0  0  0  0  0  0  0 
   -0.5288    2.6279    1.0066 H   0  0  0  0  0  0  0  0  0  0  0  0 
    1.1465    0.8220   -2.1859 H   0  0  0  0  0  0  0  0  0  0  0  0 
    0.9739    2.4806   -1.5628 H   0  0  0  0  0  0  0  0  0  0  0  0 
   -0.1696   -0.1360   -0.3027 H   0  0  0  0  0  0  0  0  0  0  0  0 
    2.8493    3.6295   -1.3489 H   0  0  0  0  0  0  0  0  0  0  0  0 
    3.1053    0.6357    1.5924 H   0  0  0  0  0  0  0  0  0  0  0  0 
    3.0268   -0.1610   -0.7363 H   0  0  0  0  0  0  0  0  0  0  0  0 
  1 15  1  0  0  0  0 
  1 13  1  0  0  0  0 
  1 14  1  0  0  0  0 
  2  4  1  0  0  0  0 
  2 16  1  0  0  0  0 
  2 18  1  0  0  0  0 
  3  7  1  0  0  0  0 
  4  1  1  0  0  0  0 
  5  9  1  0  0  0  0 
  5  3  1  0  0  0  0 
  6 11  1  0  0  0  0 
  7 12  1  1  0  0  0 
  7  4  1  0  0  0  0 
  7  6  1  0  0  0  0 
  8  5  2  0  0  0  0 
  9 22  1  0  0  0  0 
 10  6  2  0  0  0  0 
 17  2  1  0  0  0  0 
 19  3  1  0  0  0  0 
 20  3  1  0  0  0  0 
 21  4  1  0  0  0  0 
 23 11  1  0  0  0  0 
 24 12  1  0  0  0  0 
M  END 
>  <HBA> 
5 
 
>  <HBD> 
3 
 
>  <TPSA> 
94.83 
 
>  <cid> 
77 
 
>  <dipole> 
3.62 
 
>  <excitation_energy_1> 
5.353 
 
>  <excitation_energy_2> 
5.534 
 
>  <excitation_energy_3> 
6.11 
 
>  <excitation_energy_4> 
6.607 
 
>  <homo_energy> 
-7.486 
 
>  <homo_lumo_gap> 
6.876 
 
>  <logP> 
-0.067 
 
>  <lumo_energy> 
-0.61 
 
>  <melting_point> 
156.73 
 
>  <molecular_refractivity> 
40.51 
 
>  <oscillator_strength_1> 
0.0041 
 
>  <oscillator_strength_2> 
0.0018 
 
>  <oscillator_strength_3> 
0.0011 
 
>  <oscillator_strength_4> 
0.0015 
 
>  <open_babel_can_smiles> 
OC(=O)C[C@@](C(=O)O)(C(C)C)O 
 
>  <mulliken_charges> 
24 
1   -0.478146 
2   -0.464537 
3   -0.400779 
4   -0.079196 
5   0.580312 
6   0.609146 
7   0.212497 
8   -0.460094 
9   -0.55384 
10   -0.493378 
11   -0.566396 
12   -0.689418 
13   0.153724 
14   0.158761 
15   0.169874 
16   0.15342 
17   0.146186 
18   0.174346 
19   0.191664 
20   0.182092 
21   0.146188 
22   0.438294 
23   0.439693 
24   0.429588 
 
>  <lowdin_charges> 
24 
1   -0.455393 
2   -0.4516 
3   -0.326001 
4   -0.121867 
5   0.196252 
6   0.171527 
7   0.081844 
8   -0.265956 
9   -0.332957 
10   -0.274715 
11   -0.32073 
12   -0.4582 
13   0.156953 
14   0.155036 
15   0.161871 
16   0.157676 
17   0.149087 
18   0.164263 
19   0.183187 
20   0.176151 
21   0.152536 
22   0.372453 
23   0.368194 
24   0.360388 
 
$$$$ 
 
