PCCDB-ID:  3590 
public computational chemistry database (PCCDB) project, http://pccdb.org 
 
 29 28  0  0  1  0  0  0  0  0999 V2000 
    3.1695   -1.4825   -0.4899 C   0  0  0  0  0  0  0  0  0  0  0  0 
    1.1506    3.6513    3.7180 C   0  0  0  0  0  0  0  0  0  0  0  0 
    3.3398    3.8075    4.9618 C   0  0  0  0  0  0  0  0  0  0  0  0 
    2.5623    1.6864    1.7488 C   0  0  0  0  0  0  0  0  0  0  0  0 
    3.1501    0.3574    1.2578 C   0  0  0  0  0  0  0  0  0  0  0  0 
    3.0985    2.1006    3.1260 C   0  0  0  0  0  0  0  0  0  0  0  0 
    2.6190   -0.1023   -0.1184 C   0  0  1  0  0  0  0  0  0  0  0  0 
    2.6764    3.5016    3.6098 C   0  0  0  0  0  0  0  0  0  0  0  0 
    2.8885    0.8220   -1.2324 N   0  0  0  0  0  0  0  0  0  0  0  0 
    3.1824    4.4123    2.6156 O   0  0  0  0  0  0  0  0  0  0  0  0 
    2.9173   -2.2293    0.2714 H   0  0  0  0  0  0  0  0  0  0  0  0 
    4.2643   -1.4539   -0.5772 H   0  0  0  0  0  0  0  0  0  0  0  0 
    2.7638   -1.8083   -1.4524 H   0  0  0  0  0  0  0  0  0  0  0  0 
    0.7242    2.9203    4.4150 H   0  0  0  0  0  0  0  0  0  0  0  0 
    0.6734    3.5203    2.7428 H   0  0  0  0  0  0  0  0  0  0  0  0 
    0.8900    4.6513    4.0894 H   0  0  0  0  0  0  0  0  0  0  0  0 
    3.0100    3.1086    5.7394 H   0  0  0  0  0  0  0  0  0  0  0  0 
    3.0856    4.8214    5.2983 H   0  0  0  0  0  0  0  0  0  0  0  0 
    4.4293    3.7416    4.8742 H   0  0  0  0  0  0  0  0  0  0  0  0 
    1.4672    1.5980    1.7822 H   0  0  0  0  0  0  0  0  0  0  0  0 
    2.7923    2.4869    1.0362 H   0  0  0  0  0  0  0  0  0  0  0  0 
    2.9379   -0.4280    1.9989 H   0  0  0  0  0  0  0  0  0  0  0  0 
    4.2475    0.4373    1.2035 H   0  0  0  0  0  0  0  0  0  0  0  0 
    4.1964    2.0845    3.0987 H   0  0  0  0  0  0  0  0  0  0  0  0 
    2.7938    1.3649    3.8832 H   0  0  0  0  0  0  0  0  0  0  0  0 
    1.5238   -0.1808   -0.0473 H   0  0  0  0  0  0  0  0  0  0  0  0 
    3.8965    0.9682   -1.3091 H   0  0  0  0  0  0  0  0  0  0  0  0 
    2.4906    1.7379   -1.0294 H   0  0  0  0  0  0  0  0  0  0  0  0 
    2.9264    5.3082    2.8871 H   0  0  0  0  0  0  0  0  0  0  0  0 
  1  7  1  0  0  0  0 
  1 11  1  0  0  0  0 
  2 16  1  0  0  0  0 
  2 14  1  0  0  0  0 
  3 18  1  0  0  0  0 
  3 17  1  0  0  0  0 
  4 20  1  0  0  0  0 
  4  6  1  0  0  0  0 
  5  4  1  0  0  0  0 
  5 22  1  0  0  0  0 
  6  8  1  0  0  0  0 
  6 25  1  0  0  0  0 
  7 26  1  1  0  0  0 
  7  5  1  0  0  0  0 
  8  2  1  0  0  0  0 
  8  3  1  0  0  0  0 
  9 28  1  0  0  0  0 
  9  7  1  0  0  0  0 
 10 29  1  0  0  0  0 
 10  8  1  0  0  0  0 
 12  1  1  0  0  0  0 
 13  1  1  0  0  0  0 
 15  2  1  0  0  0  0 
 19  3  1  0  0  0  0 
 21  4  1  0  0  0  0 
 23  5  1  0  0  0  0 
 24  6  1  0  0  0  0 
 27  9  1  0  0  0  0 
M  END 
>  <HBA> 
2 
 
>  <HBD> 
2 
 
>  <TPSA> 
46.25 
 
>  <cid> 
3590 
 
>  <dipole> 
2.62 
 
>  <excitation_energy_1> 
5.739 
 
>  <excitation_energy_2> 
5.983 
 
>  <excitation_energy_3> 
6.255 
 
>  <excitation_energy_4> 
6.338 
 
>  <homo_energy> 
-6.109 
 
>  <homo_lumo_gap> 
7.818 
 
>  <logP> 
1.975 
 
>  <lumo_energy> 
1.709 
 
>  <melting_point> 
56.0 
 
>  <molecular_refractivity> 
44.48 
 
>  <oscillator_strength_1> 
0.0335 
 
>  <oscillator_strength_2> 
0.0099 
 
>  <oscillator_strength_3> 
0.0082 
 
>  <oscillator_strength_4> 
0.0034 
 
>  <open_babel_can_smiles> 
C[C@@H](CCCC(O)(C)C)N 
 
>  <mulliken_charges> 
29 
1   -0.435064 
2   -0.462061 
3   -0.453582 
4   -0.271976 
5   -0.252807 
6   -0.253444 
7   0.025114 
8   0.306061 
9   -0.71018 
10   -0.638437 
11   0.136891 
12   0.131455 
13   0.157728 
14   0.142221 
15   0.159393 
16   0.12863 
17   0.140876 
18   0.127747 
19   0.153866 
20   0.126133 
21   0.14684 
22   0.121503 
23   0.118615 
24   0.136755 
25   0.124952 
26   0.125484 
27   0.285671 
28   0.298533 
29   0.383083 
 
>  <lowdin_charges> 
29 
1   -0.445362 
2   -0.460595 
3   -0.454462 
4   -0.28162 
5   -0.290397 
6   -0.275773 
7   -0.060824 
8   0.124347 
9   -0.550159 
10   -0.465649 
11   0.148449 
12   0.14068 
13   0.157984 
14   0.153601 
15   0.156962 
16   0.143107 
17   0.15228 
18   0.142162 
19   0.153871 
20   0.134865 
21   0.147809 
22   0.139133 
23   0.132114 
24   0.145108 
25   0.142402 
26   0.132898 
27   0.246615 
28   0.252486 
29   0.337971 
 
$$$$ 
 
