PCCDB-ID:  5610 
public computational chemistry database (PCCDB) project, http://pccdb.org 
 
 21 21  0  0  0  0  0  0  0  0999 V2000 
   -0.7983    1.0652   -0.0822 C   0  0  0  0  0  0  0  0  0  0  0  0 
    1.3470   -0.0044   -0.0896 C   0  0  0  0  0  0  0  0  0  0  0  0 
   -1.4258   -0.1800   -0.0389 C   0  0  0  0  0  0  0  0  0  0  0  0 
    0.7390   -1.2560   -0.0457 C   0  0  0  0  0  0  0  0  0  0  0  0 
    1.2666    2.5373   -0.1126 C   0  0  0  0  0  0  0  0  0  0  0  0 
    1.5482    3.0714    1.3016 C   0  0  0  0  0  0  0  0  0  0  0  0 
    0.5966    1.1807   -0.1084 C   0  0  0  0  0  0  0  0  0  0  0  0 
   -0.6561   -1.3467   -0.0183 C   0  0  0  0  0  0  0  0  0  0  0  0 
    2.1325    4.4154    1.2328 N   0  0  0  0  0  0  0  0  0  0  0  0 
   -1.2087   -2.5995    0.0217 O   0  0  0  0  0  0  0  0  0  0  0  0 
   -1.4101    1.9645   -0.1021 H   0  0  0  0  0  0  0  0  0  0  0  0 
    2.4333    0.0525   -0.1163 H   0  0  0  0  0  0  0  0  0  0  0  0 
   -2.5128   -0.2440   -0.0256 H   0  0  0  0  0  0  0  0  0  0  0  0 
    1.3259   -2.1692   -0.0365 H   0  0  0  0  0  0  0  0  0  0  0  0 
    2.2161    2.4806   -0.6641 H   0  0  0  0  0  0  0  0  0  0  0  0 
    0.6459    3.2741   -0.6354 H   0  0  0  0  0  0  0  0  0  0  0  0 
    2.1657    2.3332    1.8454 H   0  0  0  0  0  0  0  0  0  0  0  0 
    0.6002    3.1453    1.8490 H   0  0  0  0  0  0  0  0  0  0  0  0 
    3.0625    4.3612    0.8175 H   0  0  0  0  0  0  0  0  0  0  0  0 
    2.2700    4.7791    2.1747 H   0  0  0  0  0  0  0  0  0  0  0  0 
   -2.1746   -2.5146    0.0355 H   0  0  0  0  0  0  0  0  0  0  0  0 
  1  3  2  0  0  0  0 
  2  4  1  0  0  0  0 
  3 13  1  0  0  0  0 
  3  8  1  0  0  0  0 
  4 14  1  0  0  0  0 
  4  8  2  0  0  0  0 
  5  7  1  0  0  0  0 
  5  6  1  0  0  0  0 
  6 17  1  0  0  0  0 
  6 18  1  0  0  0  0 
  7  2  2  0  0  0  0 
  7  1  1  0  0  0  0 
  8 10  1  0  0  0  0 
  9  6  1  0  0  0  0 
  9 20  1  0  0  0  0 
 10 21  1  0  0  0  0 
 11  1  1  0  0  0  0 
 12  2  1  0  0  0  0 
 15  5  1  0  0  0  0 
 16  5  1  0  0  0  0 
 19  9  1  0  0  0  0 
M  END 
>  <HBA> 
2 
 
>  <HBD> 
2 
 
>  <TPSA> 
46.25 
 
>  <cid> 
5610 
 
>  <dipole> 
0.86 
 
>  <excitation_energy_1> 
4.946 
 
>  <excitation_energy_2> 
5.097 
 
>  <excitation_energy_3> 
5.46 
 
>  <excitation_energy_4> 
5.628 
 
>  <homo_energy> 
-5.772 
 
>  <homo_lumo_gap> 
5.823 
 
>  <logP> 
1.594 
 
>  <lumo_energy> 
0.052 
 
>  <melting_point> 
101.71 
 
>  <molecular_refractivity> 
40.95 
 
>  <oscillator_strength_1> 
0.0327 
 
>  <oscillator_strength_2> 
0.0002 
 
>  <oscillator_strength_3> 
0.014 
 
>  <oscillator_strength_4> 
0.0396 
 
>  <open_babel_can_smiles> 
NCCc1ccc(cc1)O 
 
>  <mulliken_charges> 
21 
1   -0.189173 
2   -0.187629 
3   -0.193084 
4   -0.157574 
5   -0.341714 
6   -0.128472 
7   0.167489 
8   0.347452 
9   -0.71494 
10   -0.644785 
11   0.127302 
12   0.121945 
13   0.116259 
14   0.137294 
15   0.132357 
16   0.155125 
17   0.116833 
18   0.142272 
19   0.291194 
20   0.295917 
21   0.405931 
 
>  <lowdin_charges> 
21 
1   -0.156137 
2   -0.152914 
3   -0.211439 
4   -0.186384 
5   -0.276977 
6   -0.204948 
7   -0.021497 
8   0.098991 
9   -0.557665 
10   -0.379524 
11   0.157308 
12   0.152491 
13   0.150007 
14   0.166592 
15   0.143266 
16   0.157226 
17   0.12049 
18   0.143073 
19   0.24954 
20   0.25404 
21   0.354462 
 
$$$$ 
 
