PCCDB-ID:  5437 
public computational chemistry database (PCCDB) project, http://pccdb.org 
 
 10 10  0  0  0  0  0  0  0  0999 V2000 
   -0.3605    1.3276    0.1048 C   0  0  0  0  0  0  0  0  0  0  0  0 
    0.9668    0.5957    0.0043 C   0  0  0  0  0  0  0  0  0  0  0  0 
   -0.2475   -1.2740    0.1119 C   0  0  0  0  0  0  0  0  0  0  0  0 
    1.0228   -0.6817    0.0068 N   0  0  0  0  0  0  0  0  0  0  0  0 
    2.0957    1.3066   -0.0888 O   0  0  0  0  0  0  0  0  0  0  0  0 
   -0.4845   -2.4476    0.1386 O   0  0  0  0  0  0  0  0  0  0  0  0 
   -1.5960    0.0016    0.2113 S   0  0  0  0  0  0  0  0  0  0  0  0 
   -0.5164    1.9566   -0.7798 H   0  0  0  0  0  0  0  0  0  0  0  0 
   -0.3761    1.9686    0.9942 H   0  0  0  0  0  0  0  0  0  0  0  0 
    1.8955    2.2572   -0.0763 H   0  0  0  0  0  0  0  0  0  0  0  0 
  1  7  1  0  0  0  0 
  1  9  1  0  0  0  0 
  2  4  2  0  0  0  0 
  2  1  1  0  0  0  0 
  3  6  2  0  0  0  0 
  3  7  1  0  0  0  0 
  4  3  1  0  0  0  0 
  5 10  1  0  0  0  0 
  5  2  1  0  0  0  0 
  8  1  1  0  0  0  0 
M  END 
>  <HBA> 
4 
 
>  <HBD> 
1 
 
>  <TPSA> 
71.47 
 
>  <cid> 
5437 
 
>  <dipole> 
6.62 
 
>  <excitation_energy_1> 
4.512 
 
>  <excitation_energy_2> 
4.678 
 
>  <excitation_energy_3> 
5.112 
 
>  <excitation_energy_4> 
5.439 
 
>  <homo_energy> 
-7.127 
 
>  <homo_lumo_gap> 
5.622 
 
>  <logP> 
0.298 
 
>  <lumo_energy> 
-1.505 
 
>  <melting_point> 
87.27 
 
>  <molecular_refractivity> 
29.52 
 
>  <oscillator_strength_1> 
0.0006 
 
>  <oscillator_strength_2> 
0.0221 
 
>  <oscillator_strength_3> 
0.0 
 
>  <oscillator_strength_4> 
0.0002 
 
>  <open_babel_can_smiles> 
OC1=NC(=O)SC1 
 
>  <mulliken_charges> 
10 
1   -0.545061 
2   0.529877 
3   0.393921 
4   -0.406862 
5   -0.547033 
6   -0.413431 
7   0.135816 
8   0.213408 
9   0.213182 
10   0.426182 
 
>  <lowdin_charges> 
10 
1   -0.422972 
2   0.153162 
3   0.072165 
4   -0.171482 
5   -0.303603 
6   -0.195045 
7   0.12598 
8   0.186175 
9   0.18603 
10   0.369591 
 
$$$$ 
 
