PCCDB-ID:  113 
public computational chemistry database (PCCDB) project, http://pccdb.org 
 
 20 19  0  0  1  0  0  0  0  0999 V2000 
    1.1168    0.2903    0.4285 C   0  0  0  0  0  0  0  0  0  0  0  0 
    0.0668    1.4011    0.3302 C   0  0  1  0  0  0  0  0  0  0  0  0 
    0.4582    2.6248    1.1596 C   0  0  0  0  0  0  0  0  0  0  0  0 
    0.5977    2.4299    2.6762 C   0  0  0  0  0  0  0  0  0  0  0  0 
   -0.1352    1.7837   -1.0047 O   0  0  0  0  0  0  0  0  0  0  0  0 
    0.6118    3.7079    0.6401 O   0  0  0  0  0  0  0  0  0  0  0  0 
    1.1067    3.5088    3.2803 O   0  0  0  0  0  0  0  0  0  0  0  0 
    0.2625    1.4095    3.2384 O   0  0  0  0  0  0  0  0  0  0  0  0 
    3.8117   -1.0735    0.7078 O   0  0  0  0  0  0  0  0  0  0  0  0 
    3.0125   -0.8800   -1.6519 O   0  0  0  0  0  0  0  0  0  0  0  0 
    4.7867    0.8522   -0.8353 O   0  0  0  0  0  0  0  0  0  0  0  0 
    2.4003    0.8791    0.1307 O   0  0  0  0  0  0  0  0  0  0  0  0 
    3.6247    0.0306   -0.4546 P   0  0  0  0  0  0  0  0  0  0  0  0 
    0.8748   -0.4774   -0.3109 H   0  0  0  0  0  0  0  0  0  0  0  0 
    1.1424   -0.1445    1.4300 H   0  0  0  0  0  0  0  0  0  0  0  0 
   -0.8668    0.9946    0.7509 H   0  0  0  0  0  0  0  0  0  0  0  0 
    0.1657    2.7098   -1.0738 H   0  0  0  0  0  0  0  0  0  0  0  0 
    1.1568    3.3019    4.2336 H   0  0  0  0  0  0  0  0  0  0  0  0 
    4.6105   -1.6071    0.5637 H   0  0  0  0  0  0  0  0  0  0  0  0 
    3.1260   -0.4243   -2.5031 H   0  0  0  0  0  0  0  0  0  0  0  0 
  1 15  1  0  0  0  0 
  2  1  1  0  0  0  0 
  2 16  1  1  0  0  0 
  2  3  1  0  0  0  0 
  3  4  1  0  0  0  0 
  4  8  2  0  0  0  0 
  4  7  1  0  0  0  0 
  5  2  1  0  0  0  0 
  6  3  2  0  0  0  0 
  7 18  1  0  0  0  0 
 10 13  1  0  0  0  0 
 11 13  2  0  0  0  0 
 12  1  1  0  0  0  0 
 13 12  1  0  0  0  0 
 13  9  1  0  0  0  0 
 14  1  1  0  0  0  0 
 17  5  1  0  0  0  0 
 19  9  1  0  0  0  0 
 20 10  1  0  0  0  0 
M  END 
>  <HBA> 
8 
 
>  <HBD> 
4 
 
>  <TPSA> 
151.17 
 
>  <cid> 
113 
 
>  <dipole> 
2.71 
 
>  <excitation_energy_1> 
3.421 
 
>  <excitation_energy_2> 
4.252 
 
>  <excitation_energy_3> 
4.846 
 
>  <excitation_energy_4> 
4.971 
 
>  <homo_energy> 
-7.706 
 
>  <homo_lumo_gap> 
5.015 
 
>  <logP> 
-1.89 
 
>  <lumo_energy> 
-2.691 
 
>  <melting_point> 
171.66 
 
>  <molecular_refractivity> 
36.55 
 
>  <oscillator_strength_1> 
0.0001 
 
>  <oscillator_strength_2> 
0.018 
 
>  <oscillator_strength_3> 
0.0018 
 
>  <oscillator_strength_4> 
0.0 
 
>  <open_babel_can_smiles> 
O[C@H](C(=O)C(=O)O)COP(=O)(O)O 
 
>  <mulliken_charges> 
20 
1   -0.067505 
2   0.068502 
3   0.382791 
4   0.550221 
5   -0.633679 
6   -0.414277 
7   -0.531043 
8   -0.445522 
9   -0.648296 
10   -0.655487 
11   -0.52521 
12   -0.517297 
13   1.153648 
14   0.188763 
15   0.190394 
16   0.17428 
17   0.417722 
18   0.424587 
19   0.443755 
20   0.443653 
 
>  <lowdin_charges> 
20 
1   -0.131653 
2   -0.035224 
3   0.134035 
4   0.168003 
5   -0.447296 
6   -0.170964 
7   -0.304573 
8   -0.240186 
9   -0.561362 
10   -0.571426 
11   -0.570176 
12   -0.386781 
13   1.105323 
14   0.172882 
15   0.168411 
16   0.169919 
17   0.353124 
18   0.371513 
19   0.388283 
20   0.388147 
 
$$$$ 
 
