PCCDB-ID:  551 
public computational chemistry database (PCCDB) project, http://pccdb.org 
 
 20 19  0  0  0  0  0  0  0  0999 V2000 
    0.7253    0.5125   -0.0987 C   0  0  0  0  0  0  0  0  0  0  0  0 
   -0.3441   -0.1068    0.4237 C   0  0  0  0  0  0  0  0  0  0  0  0 
    1.2933    1.7785    0.3580 C   0  0  0  0  0  0  0  0  0  0  0  0 
   -0.8317   -1.4560    0.0018 C   0  0  0  0  0  0  0  0  0  0  0  0 
    1.5346    2.2088    1.6145 C   0  0  0  0  0  0  0  0  0  0  0  0 
   -0.6378   -2.5798    1.0478 C   0  0  0  0  0  0  0  0  0  0  0  0 
    1.4284    1.4229    2.8933 C   0  0  0  0  0  0  0  0  0  0  0  0 
    2.0492    3.4636    1.8795 O   0  0  0  0  0  0  0  0  0  0  0  0 
   -1.1181   -3.6738    0.8742 O   0  0  0  0  0  0  0  0  0  0  0  0 
    0.0929   -2.3061    2.1406 O   0  0  0  0  0  0  0  0  0  0  0  0 
    1.0223    0.2839    2.9884 O   0  0  0  0  0  0  0  0  0  0  0  0 
    1.8606    2.0811    3.9811 O   0  0  0  0  0  0  0  0  0  0  0  0 
    1.2131    0.0759   -0.9718 H   0  0  0  0  0  0  0  0  0  0  0  0 
   -0.8724    0.3642    1.2500 H   0  0  0  0  0  0  0  0  0  0  0  0 
    1.5978    2.4629   -0.4391 H   0  0  0  0  0  0  0  0  0  0  0  0 
   -0.3245   -1.7924   -0.9106 H   0  0  0  0  0  0  0  0  0  0  0  0 
   -1.9052   -1.4464   -0.2216 H   0  0  0  0  0  0  0  0  0  0  0  0 
    2.1525    3.9686    1.0573 H   0  0  0  0  0  0  0  0  0  0  0  0 
    0.4191   -1.3824    2.1759 H   0  0  0  0  0  0  0  0  0  0  0  0 
    2.1612    2.9717    3.7165 H   0  0  0  0  0  0  0  0  0  0  0  0 
  1  3  1  0  0  0  0 
  1  2  2  0  0  0  0 
  2 14  1  0  0  0  0 
  3  5  2  0  0  0  0 
  4  2  1  0  0  0  0 
  4  6  1  0  0  0  0 
  5  8  1  0  0  0  0 
  5  7  1  0  0  0  0 
  6 10  1  0  0  0  0 
  7 11  2  0  0  0  0 
  7 12  1  0  0  0  0 
  9  6  2  0  0  0  0 
 10 19  1  0  0  0  0 
 13  1  1  0  0  0  0 
 15  3  1  0  0  0  0 
 16  4  1  0  0  0  0 
 17  4  1  0  0  0  0 
 18  8  1  0  0  0  0 
 20 12  1  0  0  0  0 
M  END 
>  <HBA> 
5 
 
>  <HBD> 
3 
 
>  <TPSA> 
94.83 
 
>  <cid> 
551 
 
>  <dipole> 
9.48 
 
>  <excitation_energy_1> 
3.835 
 
>  <excitation_energy_2> 
4.416 
 
>  <excitation_energy_3> 
4.896 
 
>  <excitation_energy_4> 
5.13 
 
>  <homo_energy> 
-6.509 
 
>  <homo_lumo_gap> 
4.381 
 
>  <logP> 
0.544 
 
>  <lumo_energy> 
-2.128 
 
>  <melting_point> 
161.38 
 
>  <molecular_refractivity> 
39.93 
 
>  <oscillator_strength_1> 
0.1633 
 
>  <oscillator_strength_2> 
0.0088 
 
>  <oscillator_strength_3> 
0.0916 
 
>  <oscillator_strength_4> 
0.016 
 
>  <open_babel_can_smiles> 
OC(=O)C/C=C/C=C(\C(=O)O)/O 
 
>  <mulliken_charges> 
20 
1   -0.120096 
2   -0.1188 
3   -0.225191 
4   -0.415193 
5   0.313024 
6   0.5766 
7   0.591898 
8   -0.672799 
9   -0.45031 
10   -0.586044 
11   -0.474016 
12   -0.566761 
13   0.144172 
14   0.159633 
15   0.138206 
16   0.1844 
17   0.189852 
18   0.425352 
19   0.462748 
20   0.443325 
 
>  <lowdin_charges> 
20 
1   -0.167802 
2   -0.14605 
3   -0.176982 
4   -0.313419 
5   0.045881 
6   0.189267 
7   0.196459 
8   -0.398123 
9   -0.2543 
10   -0.348506 
11   -0.249075 
12   -0.327312 
13   0.162319 
14   0.165951 
15   0.161973 
16   0.176822 
17   0.179997 
18   0.368979 
19   0.363138 
20   0.370784 
 
$$$$ 
 
