PCCDB-ID:  525 
public computational chemistry database (PCCDB) project, http://pccdb.org 
 
 15 14  0  0  1  0  0  0  0  0999 V2000 
    0.9194    0.1353   -0.0157 C   0  0  0  0  0  0  0  0  0  0  0  0 
    0.1467    0.1975    1.3129 C   0  0  1  0  0  0  0  0  0  0  0  0 
    1.0238    1.5480   -0.5741 C   0  0  0  0  0  0  0  0  0  0  0  0 
    0.9342    1.0326    2.3461 C   0  0  0  0  0  0  0  0  0  0  0  0 
   -1.1742    0.7087    1.1746 O   0  0  0  0  0  0  0  0  0  0  0  0 
    0.0848    2.0719   -1.1400 O   0  0  0  0  0  0  0  0  0  0  0  0 
    2.1584    2.2257   -0.3346 O   0  0  0  0  0  0  0  0  0  0  0  0 
    2.1476    1.0544    2.3871 O   0  0  0  0  0  0  0  0  0  0  0  0 
    0.1607    1.7143    3.1921 O   0  0  0  0  0  0  0  0  0  0  0  0 
    0.3587   -0.4747   -0.7280 H   0  0  0  0  0  0  0  0  0  0  0  0 
    1.8956   -0.3220    0.1600 H   0  0  0  0  0  0  0  0  0  0  0  0 
    0.0508   -0.8164    1.7214 H   0  0  0  0  0  0  0  0  0  0  0  0 
   -1.1777    1.3247    0.4136 H   0  0  0  0  0  0  0  0  0  0  0  0 
    2.6890    1.7521    0.3354 H   0  0  0  0  0  0  0  0  0  0  0  0 
   -0.7605    1.6051    2.8653 H   0  0  0  0  0  0  0  0  0  0  0  0 
  1 11  1  0  0  0  0 
  1  2  1  0  0  0  0 
  2 12  1  1  0  0  0 
  2  4  1  0  0  0  0 
  3  7  1  0  0  0  0 
  3  1  1  0  0  0  0 
  4  8  2  0  0  0  0 
  4  9  1  0  0  0  0 
  5  2  1  0  0  0  0 
  6  3  2  0  0  0  0 
  7 14  1  0  0  0  0 
 10  1  1  0  0  0  0 
 13  5  1  0  0  0  0 
 15  9  1  0  0  0  0 
M  END 
>  <HBA> 
5 
 
>  <HBD> 
3 
 
>  <TPSA> 
94.83 
 
>  <cid> 
525 
 
>  <dipole> 
3.08 
 
>  <excitation_energy_1> 
5.383 
 
>  <excitation_energy_2> 
5.518 
 
>  <excitation_energy_3> 
6.257 
 
>  <excitation_energy_4> 
6.502 
 
>  <homo_energy> 
-7.695 
 
>  <homo_lumo_gap> 
6.966 
 
>  <logP> 
-1.093 
 
>  <lumo_energy> 
-0.729 
 
>  <melting_point> 
147.7 
 
>  <molecular_refractivity> 
26.05 
 
>  <oscillator_strength_1> 
0.0011 
 
>  <oscillator_strength_2> 
0.0007 
 
>  <oscillator_strength_3> 
0.0013 
 
>  <oscillator_strength_4> 
0.0024 
 
>  <open_babel_can_smiles> 
OC(=O)C[C@@H](C(=O)O)O 
 
>  <mulliken_charges> 
15 
1   -0.385361 
2   0.019383 
3   0.576082 
4   0.598259 
5   -0.65025 
6   -0.454952 
7   -0.551812 
8   -0.478412 
9   -0.556566 
10   0.199594 
11   0.182538 
12   0.19532 
13   0.429527 
14   0.438502 
15   0.438148 
 
>  <lowdin_charges> 
15 
1   -0.326031 
2   -0.036991 
3   0.193873 
4   0.169364 
5   -0.456998 
6   -0.263525 
7   -0.332608 
8   -0.26882 
9   -0.319507 
10   0.186738 
11   0.176692 
12   0.174622 
13   0.361278 
14   0.372051 
15   0.369863 
 
$$$$ 
 
