PCCDB-ID:  936 
public computational chemistry database (PCCDB) project, http://pccdb.org 
 
 15 15  0  0  0  0  0  0  0  0999 V2000 
   -0.7858    1.1709    0.0708 C   0  0  0  0  0  0  0  0  0  0  0  0 
   -1.4164   -0.0681   -0.0045 C   0  0  0  0  0  0  0  0  0  0  0  0 
    0.6092    1.2111    0.0387 C   0  0  0  0  0  0  0  0  0  0  0  0 
    0.7616   -1.0626   -0.1264 C   0  0  0  0  0  0  0  0  0  0  0  0 
   -0.6321   -1.2257   -0.0979 C   0  0  0  0  0  0  0  0  0  0  0  0 
   -1.2412   -2.5888   -0.1515 C   0  0  0  0  0  0  0  0  0  0  0  0 
   -0.8144   -3.6427    0.4161 N   0  0  0  0  0  0  0  0  0  0  0  0 
    1.3787    0.1191   -0.0623 N   0  0  0  0  0  0  0  0  0  0  0  0 
   -2.4000   -2.6848   -0.8679 O   0  0  0  0  0  0  0  0  0  0  0  0 
   -1.3604    2.0879    0.1586 H   0  0  0  0  0  0  0  0  0  0  0  0 
   -2.5003   -0.1420    0.0378 H   0  0  0  0  0  0  0  0  0  0  0  0 
    1.1351    2.1622    0.0975 H   0  0  0  0  0  0  0  0  0  0  0  0 
    1.4045   -1.9364   -0.2238 H   0  0  0  0  0  0  0  0  0  0  0  0 
    0.0066   -3.4286    0.9837 H   0  0  0  0  0  0  0  0  0  0  0  0 
   -2.4741   -1.9176   -1.4564 H   0  0  0  0  0  0  0  0  0  0  0  0 
  1 10  1  0  0  0  0 
  2 11  1  0  0  0  0 
  2  1  2  0  0  0  0 
  3  1  1  0  0  0  0 
  3 12  1  0  0  0  0 
  4  5  2  0  0  0  0 
  4  8  1  0  0  0  0 
  5  2  1  0  0  0  0 
  6  5  1  0  0  0  0 
  6  7  2  0  0  0  0 
  7 14  1  0  0  0  0 
  8  3  2  0  0  0  0 
  9  6  1  0  0  0  0 
 13  4  1  0  0  0  0 
 15  9  1  0  0  0  0 
M  END 
>  <HBA> 
3 
 
>  <HBD> 
1 
 
>  <TPSA> 
55.98 
 
>  <cid> 
936 
 
>  <dipole> 
4.16 
 
>  <excitation_energy_1> 
4.595 
 
>  <excitation_energy_2> 
4.826 
 
>  <excitation_energy_3> 
4.978 
 
>  <excitation_energy_4> 
5.107 
 
>  <homo_energy> 
-7.14 
 
>  <homo_lumo_gap> 
5.663 
 
>  <logP> 
0.881 
 
>  <lumo_energy> 
-1.478 
 
>  <melting_point> 
108.63 
 
>  <molecular_refractivity> 
32.33 
 
>  <oscillator_strength_1> 
0.0068 
 
>  <oscillator_strength_2> 
0.0017 
 
>  <oscillator_strength_3> 
0.028 
 
>  <oscillator_strength_4> 
0.0372 
 
>  <open_babel_can_smiles> 
OC(=N)c1cccnc1 
 
>  <mulliken_charges> 
15 
1   -0.139268 
2   -0.15496 
3   0.04649 
4   0.006503 
5   0.042973 
6   0.423131 
7   -0.571528 
8   -0.404202 
9   -0.574147 
10   0.150894 
11   0.160094 
12   0.154665 
13   0.159628 
14   0.292342 
15   0.407386 
 
>  <lowdin_charges> 
15 
1   -0.168641 
2   -0.135081 
3   -0.078103 
4   -0.085444 
5   -0.06727 
6   0.125324 
7   -0.378125 
8   -0.137698 
9   -0.362175 
10   0.17106 
11   0.167521 
12   0.163371 
13   0.16593 
14   0.262198 
15   0.357133 
 
$$$$ 
 
