PCCDB-ID:  1388 
public computational chemistry database (PCCDB) project, http://pccdb.org 
 
 28 29  0  0  0  0  0  0  0  0999 V2000 
    0.9388    0.0709    0.7362 C   0  0  0  0  0  0  0  0  0  0  0  0 
    6.3571   -0.0358    5.8510 C   0  0  0  0  0  0  0  0  0  0  0  0 
    6.5059   -1.0570    4.9118 C   0  0  0  0  0  0  0  0  0  0  0  0 
    5.4582    1.0016    5.5956 C   0  0  0  0  0  0  0  0  0  0  0  0 
    5.7665   -1.0405    3.7294 C   0  0  0  0  0  0  0  0  0  0  0  0 
    4.7203    1.0160    4.4137 C   0  0  0  0  0  0  0  0  0  0  0  0 
    3.8241    1.2065    1.5583 C   0  0  0  0  0  0  0  0  0  0  0  0 
    3.5537   -1.2575    1.6090 C   0  0  0  0  0  0  0  0  0  0  0  0 
    2.9904    1.3119    0.2996 C   0  0  0  0  0  0  0  0  0  0  0  0 
    3.0169   -1.0759    0.1751 C   0  0  0  0  0  0  0  0  0  0  0  0 
    4.8663    0.0023    3.4487 C   0  0  0  0  0  0  0  0  0  0  0  0 
    4.0874    0.0441    2.1821 C   0  0  0  0  0  0  0  0  0  0  0  0 
    2.1951    0.1215   -0.0049 N   0  0  0  0  0  0  0  0  0  0  0  0 
    0.3225    0.9341    0.4608 H   0  0  0  0  0  0  0  0  0  0  0  0 
    1.0501    0.0728    1.8353 H   0  0  0  0  0  0  0  0  0  0  0  0 
    0.3912   -0.8348    0.4515 H   0  0  0  0  0  0  0  0  0  0  0  0 
    6.9289   -0.0521    6.7750 H   0  0  0  0  0  0  0  0  0  0  0  0 
    7.2030   -1.8703    5.0971 H   0  0  0  0  0  0  0  0  0  0  0  0 
    5.3200    1.7954    6.3253 H   0  0  0  0  0  0  0  0  0  0  0  0 
    5.9117   -1.8391    3.0079 H   0  0  0  0  0  0  0  0  0  0  0  0 
    4.0000    1.8102    4.2395 H   0  0  0  0  0  0  0  0  0  0  0  0 
    4.2483    2.1340    1.9407 H   0  0  0  0  0  0  0  0  0  0  0  0 
    4.3346   -2.0284    1.6005 H   0  0  0  0  0  0  0  0  0  0  0  0 
    2.7679   -1.6476    2.2731 H   0  0  0  0  0  0  0  0  0  0  0  0 
    3.6521    1.5202   -0.5577 H   0  0  0  0  0  0  0  0  0  0  0  0 
    2.3145    2.1743    0.3684 H   0  0  0  0  0  0  0  0  0  0  0  0 
    2.4341   -1.9546   -0.1262 H   0  0  0  0  0  0  0  0  0  0  0  0 
    3.8646   -0.9974   -0.5185 H   0  0  0  0  0  0  0  0  0  0  0  0 
  1 15  1  0  0  0  0 
  2 17  1  0  0  0  0 
  3 18  1  0  0  0  0 
  3  2  2  0  0  0  0 
  4  2  1  0  0  0  0 
  4 19  1  0  0  0  0 
  5  3  1  0  0  0  0 
  6  4  2  0  0  0  0 
  7 22  1  0  0  0  0 
  7 12  2  0  0  0  0 
  8 12  1  0  0  0  0 
  8 24  1  0  0  0  0 
  9 26  1  0  0  0  0 
  9  7  1  0  0  0  0 
 10  8  1  0  0  0  0 
 11  5  2  0  0  0  0 
 11  6  1  0  0  0  0 
 12 11  1  0  0  0  0 
 13 10  1  0  0  0  0 
 13  9  1  0  0  0  0 
 13  1  1  0  0  0  0 
 14  1  1  0  0  0  0 
 16  1  1  0  0  0  0 
 20  5  1  0  0  0  0 
 21  6  1  0  0  0  0 
 23  8  1  0  0  0  0 
 25  9  1  0  0  0  0 
 27 10  1  0  0  0  0 
 28 10  1  0  0  0  0 
M  END 
>  <HBA> 
1 
 
>  <HBD> 
0 
 
>  <TPSA> 
3.24 
 
>  <cid> 
1388 
 
>  <dipole> 
0.57 
 
>  <excitation_energy_1> 
4.207 
 
>  <excitation_energy_2> 
4.842 
 
>  <excitation_energy_3> 
4.87 
 
>  <excitation_energy_4> 
4.959 
 
>  <homo_energy> 
-5.529 
 
>  <homo_lumo_gap> 
5.08 
 
>  <logP> 
2.343 
 
>  <lumo_energy> 
-0.449 
 
>  <melting_point> 
41.91 
 
>  <molecular_refractivity> 
60.46 
 
>  <oscillator_strength_1> 
0.0029 
 
>  <oscillator_strength_2> 
0.0037 
 
>  <oscillator_strength_3> 
0.0564 
 
>  <oscillator_strength_4> 
0.203 
 
>  <open_babel_can_smiles> 
CN1CCC(=CC1)c1ccccc1 
 
>  <mulliken_charges> 
28 
1   -0.303897 
2   -0.128285 
3   -0.132268 
4   -0.133112 
5   -0.18364 
6   -0.175487 
7   -0.185665 
8   -0.346719 
9   -0.175385 
10   -0.147688 
11   0.110598 
12   0.104363 
13   -0.36307 
14   0.147966 
15   0.130155 
16   0.146313 
17   0.127816 
18   0.128113 
19   0.12815 
20   0.126166 
21   0.128143 
22   0.125105 
23   0.144631 
24   0.153635 
25   0.152073 
26   0.142451 
27   0.136787 
28   0.142751 
 
>  <lowdin_charges> 
28 
1   -0.357116 
2   -0.159452 
3   -0.156313 
4   -0.157221 
5   -0.165571 
6   -0.16144 
7   -0.196092 
8   -0.295096 
9   -0.20466 
10   -0.205316 
11   -0.001009 
12   -0.019193 
13   -0.185087 
14   0.149687 
15   0.124035 
16   0.149408 
17   0.156941 
18   0.157257 
19   0.157654 
20   0.156224 
21   0.158621 
22   0.154943 
23   0.153143 
24   0.152889 
25   0.150347 
26   0.151376 
27   0.145776 
28   0.145262 
 
$$$$ 
 
