PCCDB-ID:  4173 
public computational chemistry database (PCCDB) project, http://pccdb.org 
 
 21 21  0  0  0  0  0  0  0  0999 V2000 
    1.0022    0.0483   -0.0096 C   0  0  0  0  0  0  0  0  0  0  0  0 
    2.9598    2.3996    0.0752 C   0  0  0  0  0  0  0  0  0  0  0  0 
    2.9159    3.0026    1.4737 C   0  0  0  0  0  0  0  0  0  0  0  0 
    4.4518   -0.9449    0.1312 C   0  0  0  0  0  0  0  0  0  0  0  0 
    2.4883   -0.0798    0.0526 C   0  0  0  0  0  0  0  0  0  0  0  0 
    4.6209    0.4254    0.1323 C   0  0  0  0  0  0  0  0  0  0  0  0 
    3.1322   -1.2478    0.0833 N   0  0  0  0  0  0  0  0  0  0  0  0 
    3.3459    0.9837    0.0743 N   0  0  0  0  0  0  0  0  0  0  0  0 
    5.8386    1.1468    0.1883 N   0  0  0  0  0  0  0  0  0  0  0  0 
    1.8824    2.3516    2.2026 O   0  0  0  0  0  0  0  0  0  0  0  0 
    6.8800    0.4847    0.1782 O   0  0  0  0  0  0  0  0  0  0  0  0 
    5.7995    2.3879    0.2507 O   0  0  0  0  0  0  0  0  0  0  0  0 
    0.5764   -0.9551    0.0439 H   0  0  0  0  0  0  0  0  0  0  0  0 
    0.6715    0.5124   -0.9477 H   0  0  0  0  0  0  0  0  0  0  0  0 
    0.6236    0.6518    0.8207 H   0  0  0  0  0  0  0  0  0  0  0  0 
    3.6691    2.9524   -0.5385 H   0  0  0  0  0  0  0  0  0  0  0  0 
    1.9692    2.4623   -0.3810 H   0  0  0  0  0  0  0  0  0  0  0  0 
    2.7195    4.0816    1.3706 H   0  0  0  0  0  0  0  0  0  0  0  0 
    3.8963    2.8811    1.9508 H   0  0  0  0  0  0  0  0  0  0  0  0 
    5.2281   -1.6956    0.1643 H   0  0  0  0  0  0  0  0  0  0  0  0 
    1.9735    2.5857    3.1379 H   0  0  0  0  0  0  0  0  0  0  0  0 
  1 13  1  0  0  0  0 
  1  5  1  0  0  0  0 
  1 15  1  0  0  0  0 
  2  3  1  0  0  0  0 
  3 19  1  0  0  0  0 
  3 10  1  0  0  0  0 
  4  6  2  0  0  0  0 
  4 20  1  0  0  0  0 
  5  8  1  0  0  0  0 
  5  7  2  0  0  0  0 
  6  9  1  0  0  0  0 
  7  4  1  0  0  0  0 
  8  2  1  0  0  0  0 
  8  6  1  0  0  0  0 
  9 12  2  0  0  0  0 
 10 21  1  0  0  0  0 
 11  9  2  0  0  0  0 
 14  1  1  0  0  0  0 
 16  2  1  0  0  0  0 
 17  2  1  0  0  0  0 
 18  3  1  0  0  0  0 
M  END 
>  <HBA> 
3 
 
>  <HBD> 
1 
 
>  <TPSA> 
83.87 
 
>  <cid> 
4173 
 
>  <dipole> 
4.6 
 
>  <excitation_energy_1> 
3.802 
 
>  <excitation_energy_2> 
4.136 
 
>  <excitation_energy_3> 
4.231 
 
>  <excitation_energy_4> 
4.664 
 
>  <homo_energy> 
-6.803 
 
>  <homo_lumo_gap> 
4.553 
 
>  <logP> 
0.615 
 
>  <lumo_energy> 
-2.25 
 
>  <melting_point> 
83.58 
 
>  <molecular_refractivity> 
43.25 
 
>  <oscillator_strength_1> 
0.001 
 
>  <oscillator_strength_2> 
0.2289 
 
>  <oscillator_strength_3> 
0.002 
 
>  <oscillator_strength_4> 
0.003 
 
>  <open_babel_can_smiles> 
OCCn1c(C)ncc1N(=O)=O 
 
>  <mulliken_charges> 
21 
1   -0.548745 
2   -0.168064 
3   -0.038109 
4   0.010013 
5   0.500743 
6   0.484631 
7   -0.468267 
8   -0.472807 
9   0.329744 
10   -0.616041 
11   -0.403051 
12   -0.43643 
13   0.194422 
14   0.169278 
15   0.206603 
16   0.200426 
17   0.174158 
18   0.138243 
19   0.16027 
20   0.177775 
21   0.405207 
 
>  <lowdin_charges> 
21 
1   -0.455684 
2   -0.204135 
3   -0.136531 
4   -0.102388 
5   0.088975 
6   -0.016427 
7   -0.185617 
8   0.000359 
9   0.307594 
10   -0.470031 
11   -0.253794 
12   -0.282977 
13   0.184448 
14   0.167048 
15   0.185152 
16   0.18372 
17   0.167064 
18   0.137502 
19   0.14752 
20   0.185879 
21   0.352324 
 
$$$$ 
 
