PCCDB-ID:  6343 
public computational chemistry database (PCCDB) project, http://pccdb.org 
 
  9  8  0  0  0  0  0  0  0  0999 V2000 
    1.0153   -0.0436   -0.0826 C   0  0  0  0  0  0  0  0  0  0  0  0 
    2.5410   -0.0004   -0.0726 C   0  0  0  0  0  0  0  0  0  0  0  0 
    3.2615    1.0421    1.2682 S   0  0  0  0  0  0  0  0  0  0  0  0 
    0.6601   -0.7139   -0.8756 H   0  0  0  0  0  0  0  0  0  0  0  0 
    0.5912    0.9494   -0.2701 H   0  0  0  0  0  0  0  0  0  0  0  0 
    0.6247   -0.4021    0.8747 H   0  0  0  0  0  0  0  0  0  0  0  0 
    2.9362    0.3372   -1.0356 H   0  0  0  0  0  0  0  0  0  0  0  0 
    2.9562   -0.9960    0.1143 H   0  0  0  0  0  0  0  0  0  0  0  0 
    2.7050    2.2095    0.8761 H   0  0  0  0  0  0  0  0  0  0  0  0 
  1  2  1  0  0  0  0 
  1  6  1  0  0  0  0 
  2  8  1  0  0  0  0 
  2  3  1  0  0  0  0 
  4  1  1  0  0  0  0 
  5  1  1  0  0  0  0 
  7  2  1  0  0  0  0 
  9  3  1  0  0  0  0 
M  END 
>  <HBA> 
1 
 
>  <HBD> 
1 
 
>  <TPSA> 
38.8 
 
>  <cid> 
6343 
 
>  <dipole> 
1.83 
 
>  <excitation_energy_1> 
5.263 
 
>  <excitation_energy_2> 
5.91 
 
>  <excitation_energy_3> 
6.421 
 
>  <excitation_energy_4> 
6.646 
 
>  <homo_energy> 
-6.392 
 
>  <homo_lumo_gap> 
7.159 
 
>  <logP> 
0.936 
 
>  <lumo_energy> 
0.767 
 
>  <melting_point> 
-3.65 
 
>  <molecular_refractivity> 
19.66 
 
>  <oscillator_strength_1> 
0.0148 
 
>  <oscillator_strength_2> 
0.0357 
 
>  <oscillator_strength_3> 
0.0292 
 
>  <oscillator_strength_4> 
0.0044 
 
>  <open_babel_can_smiles> 
CCS 
 
>  <mulliken_charges> 
9 
1   -0.43059 
2   -0.401674 
3   -0.085289 
4   0.150773 
5   0.150164 
6   0.167493 
7   0.177884 
8   0.180432 
9   0.090806 
 
>  <lowdin_charges> 
9 
1   -0.447208 
2   -0.366083 
3   -0.091611 
4   0.154928 
5   0.151318 
6   0.160827 
7   0.159224 
8   0.1676 
9   0.111006 
 
$$$$ 
 
