PCCDB-ID:  4096 
public computational chemistry database (PCCDB) project, http://pccdb.org 
 
 15 14  0  0  0  0  0  0  0  0999 V2000 
    0.9300   -0.2137   -0.7148 C   0  0  0  0  0  0  0  0  0  0  0  0 
    4.6388    1.0605   -3.7497 C   0  0  0  0  0  0  0  0  0  0  0  0 
    3.8226    2.4955   -0.4978 N   0  0  0  0  0  0  0  0  0  0  0  0 
    4.0678   -0.1197   -0.7592 O   0  0  0  0  0  0  0  0  0  0  0  0 
    1.6825    1.0088   -0.5809 O   0  0  0  0  0  0  0  0  0  0  0  0 
    3.2220    1.0528   -1.1020 P   0  0  1  0  0  0  0  0  0  0  0  0 
    2.9300    1.4095   -3.1600 S   0  0  0  0  0  0  0  0  0  0  0  0 
    0.7260   -0.4276   -1.7690 H   0  0  0  0  0  0  0  0  0  0  0  0 
   -0.0097   -0.0514   -0.1843 H   0  0  0  0  0  0  0  0  0  0  0  0 
    1.4769   -1.0482   -0.2681 H   0  0  0  0  0  0  0  0  0  0  0  0 
    4.5918    1.0434   -4.8407 H   0  0  0  0  0  0  0  0  0  0  0  0 
    4.9653    0.0900   -3.3738 H   0  0  0  0  0  0  0  0  0  0  0  0 
    5.3256    1.8426   -3.4211 H   0  0  0  0  0  0  0  0  0  0  0  0 
    4.1598    2.4292    0.4586 H   0  0  0  0  0  0  0  0  0  0  0  0 
    3.2542    3.3226   -0.6497 H   0  0  0  0  0  0  0  0  0  0  0  0 
  1  5  1  0  0  0  0 
  1 10  1  0  0  0  0 
  1  9  1  0  0  0  0 
  2 13  1  0  0  0  0 
  2 12  1  0  0  0  0 
  2  7  1  0  0  0  0 
  3 14  1  0  0  0  0 
  6  4  2  1  0  0  0 
  6  5  1  0  0  0  0 
  6  3  1  0  0  0  0 
  7  6  1  0  0  0  0 
  8  1  1  0  0  0  0 
 11  2  1  0  0  0  0 
 15  3  1  0  0  0  0 
M  END 
>  <HBA> 
4 
 
>  <HBD> 
1 
 
>  <TPSA> 
87.43 
 
>  <cid> 
4096 
 
>  <dipole> 
1.94 
 
>  <excitation_energy_1> 
5.449 
 
>  <excitation_energy_2> 
5.95 
 
>  <excitation_energy_3> 
6.579 
 
>  <excitation_energy_4> 
6.611 
 
>  <homo_energy> 
-6.746 
 
>  <homo_lumo_gap> 
7.181 
 
>  <logP> 
1.763 
 
>  <lumo_energy> 
0.435 
 
>  <melting_point> 
43.45 
 
>  <molecular_refractivity> 
31.77 
 
>  <oscillator_strength_1> 
0.0045 
 
>  <oscillator_strength_2> 
0.0143 
 
>  <oscillator_strength_3> 
0.0113 
 
>  <oscillator_strength_4> 
0.004 
 
>  <open_babel_can_smiles> 
CO[P@@](=O)(SC)N 
 
>  <mulliken_charges> 
15 
1   -0.222758 
2   -0.599524 
3   -0.815096 
4   -0.554281 
5   -0.52471 
6   0.982754 
7   -0.099891 
8   0.171394 
9   0.169678 
10   0.183268 
11   0.188904 
12   0.219781 
13   0.198774 
14   0.353039 
15   0.348667 
 
>  <lowdin_charges> 
15 
1   -0.271844 
2   -0.53373 
3   -0.690836 
4   -0.594369 
5   -0.411994 
6   0.932693 
7   -0.052451 
8   0.156829 
9   0.162152 
10   0.167544 
11   0.175571 
12   0.186128 
13   0.175454 
14   0.299266 
15   0.299586 
 
$$$$ 
 
