PCCDB-ID:  950 
public computational chemistry database (PCCDB) project, http://pccdb.org 
 
 21 21  0  0  0  0  0  0  0  0999 V2000 
    3.1751    0.7137   -1.2159 C   0  0  0  0  0  0  0  0  0  0  0  0 
    1.9381    0.6889    0.9244 C   0  0  0  0  0  0  0  0  0  0  0  0 
    4.5368   -3.5924    0.9457 C   0  0  0  0  0  0  0  0  0  0  0  0 
    3.3316   -3.7108    0.2518 C   0  0  0  0  0  0  0  0  0  0  0  0 
    5.0423   -2.3262    1.2493 C   0  0  0  0  0  0  0  0  0  0  0  0 
    2.6270   -2.5710   -0.1409 C   0  0  0  0  0  0  0  0  0  0  0  0 
    4.3459   -1.1801    0.8612 C   0  0  0  0  0  0  0  0  0  0  0  0 
    3.1425   -1.3201    0.1687 C   0  0  0  0  0  0  0  0  0  0  0  0 
    2.3324   -0.1218   -0.2851 N   0  0  0  0  0  0  0  0  0  0  0  0 
    1.2021   -0.4812   -0.9419 O   0  0  0  0  0  0  0  0  0  0  0  0 
    4.0960    1.0650   -0.7405 H   0  0  0  0  0  0  0  0  0  0  0  0 
    2.5463    1.5485   -1.5248 H   0  0  0  0  0  0  0  0  0  0  0  0 
    3.3953    0.0807   -2.0743 H   0  0  0  0  0  0  0  0  0  0  0  0 
    2.8059    1.0445    1.4884 H   0  0  0  0  0  0  0  0  0  0  0  0 
    1.3149    0.0374    1.5353 H   0  0  0  0  0  0  0  0  0  0  0  0 
    1.3436    1.5210    0.5479 H   0  0  0  0  0  0  0  0  0  0  0  0 
    5.0823   -4.4816    1.2497 H   0  0  0  0  0  0  0  0  0  0  0  0 
    2.9353   -4.6942    0.0134 H   0  0  0  0  0  0  0  0  0  0  0  0 
    5.9801   -2.2261    1.7889 H   0  0  0  0  0  0  0  0  0  0  0  0 
    1.6881   -2.5953   -0.6813 H   0  0  0  0  0  0  0  0  0  0  0  0 
    4.7487   -0.2006    1.1012 H   0  0  0  0  0  0  0  0  0  0  0  0 
  1 11  1  0  0  0  0 
  1  9  1  0  0  0  0 
  2 14  1  0  0  0  0 
  2 15  1  0  0  0  0 
  3  5  1  0  0  0  0 
  3 17  1  0  0  0  0 
  4  3  2  0  0  0  0 
  5 19  1  0  0  0  0 
  6  8  2  0  0  0  0 
  6  4  1  0  0  0  0 
  7 21  1  0  0  0  0 
  7  5  2  0  0  0  0 
  8  7  1  0  0  0  0 
  9  8  1  0  0  0  0 
  9  2  1  0  0  0  0 
 10  9  1  0  0  0  0 
 12  1  1  0  0  0  0 
 13  1  1  0  0  0  0 
 16  2  1  0  0  0  0 
 18  4  1  0  0  0  0 
 20  6  1  0  0  0  0 
M  RAD  1  10   2 
M  END 
>  <HBA> 
1 
 
>  <HBD> 
0 
 
>  <TPSA> 
29.43 
 
>  <cid> 
950 
 
>  <dipole> 
4.03 
 
>  <excitation_energy_1> 
4.194 
 
>  <excitation_energy_2> 
4.228 
 
>  <excitation_energy_3> 
4.409 
 
>  <excitation_energy_4> 
4.412 
 
>  <homo_energy> 
-5.138 
 
>  <homo_lumo_gap> 
4.814 
 
>  <logP> 
1.786 
 
>  <lumo_energy> 
-0.324 
 
>  <melting_point> 
6.5 
 
>  <molecular_refractivity> 
44.02 
 
>  <oscillator_strength_1> 
0.0009 
 
>  <oscillator_strength_2> 
0.0001 
 
>  <oscillator_strength_3> 
0.0006 
 
>  <oscillator_strength_4> 
0.0145 
 
>  <open_babel_can_smiles> 
C[N](c1ccccc1)([O])C 
 
>  <mulliken_charges> 
21 
1   -0.281679 
2   -0.281263 
3   -0.116003 
4   -0.143397 
5   -0.143684 
6   -0.14716 
7   -0.163754 
8   0.240591 
9   -0.150163 
10   -0.568221 
11   0.142133 
12   0.179582 
13   0.189868 
14   0.141965 
15   0.189644 
16   0.179696 
17   0.133834 
18   0.138907 
19   0.135074 
20   0.190762 
21   0.133267 
 
>  <lowdin_charges> 
21 
1   -0.360904 
2   -0.362447 
3   -0.154961 
4   -0.148845 
5   -0.1531 
6   -0.151511 
7   -0.175155 
8   0.024891 
9   0.209417 
10   -0.557952 
11   0.14733 
12   0.171416 
13   0.177612 
14   0.147686 
15   0.178426 
16   0.171506 
17   0.160956 
18   0.161654 
19   0.160038 
20   0.195491 
21   0.158453 
 
$$$$ 
 
