PCCDB-ID:  325 
public computational chemistry database (PCCDB) project, http://pccdb.org 
 
 25 25  0  0  0  0  0  0  0  0999 V2000 
    3.5228   -0.6602   -0.7399 C   0  0  0  0  0  0  0  0  0  0  0  0 
    1.6029   -0.9846    0.8907 C   0  0  0  0  0  0  0  0  0  0  0  0 
    2.8927    3.5874    1.3652 C   0  0  0  0  0  0  0  0  0  0  0  0 
    4.2563    2.0985    2.6685 C   0  0  0  0  0  0  0  0  0  0  0  0 
    2.4450    2.5062    0.6039 C   0  0  0  0  0  0  0  0  0  0  0  0 
    3.8022    1.0217    1.9112 C   0  0  0  0  0  0  0  0  0  0  0  0 
    4.3233    4.5706    3.2177 C   0  0  0  0  0  0  0  0  0  0  0  0 
    2.3827    0.0300    0.0329 C   0  0  0  0  0  0  0  0  0  0  0  0 
    3.8082    3.3999    2.4043 C   0  0  0  0  0  0  0  0  0  0  0  0 
    2.8875    1.2035    0.8618 C   0  0  0  0  0  0  0  0  0  0  0  0 
    4.5249    4.2632    4.5934 O   0  0  0  0  0  0  0  0  0  0  0  0 
    3.1293   -1.4669   -1.3699 H   0  0  0  0  0  0  0  0  0  0  0  0 
    4.2584   -1.1005   -0.0563 H   0  0  0  0  0  0  0  0  0  0  0  0 
    4.0508    0.0503   -1.3852 H   0  0  0  0  0  0  0  0  0  0  0  0 
    1.2082   -1.7958    0.2672 H   0  0  0  0  0  0  0  0  0  0  0  0 
    0.7605   -0.5059    1.4017 H   0  0  0  0  0  0  0  0  0  0  0  0 
    2.2453   -1.4352    1.6565 H   0  0  0  0  0  0  0  0  0  0  0  0 
    2.5216    4.5874    1.1484 H   0  0  0  0  0  0  0  0  0  0  0  0 
    4.9593    1.9387    3.4813 H   0  0  0  0  0  0  0  0  0  0  0  0 
    1.7300    2.6771   -0.1982 H   0  0  0  0  0  0  0  0  0  0  0  0 
    4.1668    0.0236    2.1426 H   0  0  0  0  0  0  0  0  0  0  0  0 
    3.6490    5.4335    3.0938 H   0  0  0  0  0  0  0  0  0  0  0  0 
    5.3101    4.8843    2.8560 H   0  0  0  0  0  0  0  0  0  0  0  0 
    1.6832    0.4374   -0.7101 H   0  0  0  0  0  0  0  0  0  0  0  0 
    3.6870    3.9092    4.9322 H   0  0  0  0  0  0  0  0  0  0  0  0 
  1 13  1  0  0  0  0 
  1  8  1  0  0  0  0 
  2 16  1  0  0  0  0 
  2 17  1  0  0  0  0 
  3  9  2  0  0  0  0 
  4 19  1  0  0  0  0 
  5 10  2  0  0  0  0 
  5  3  1  0  0  0  0 
  6 21  1  0  0  0  0 
  6  4  2  0  0  0  0 
  7 11  1  0  0  0  0 
  8 10  1  0  0  0  0 
  8  2  1  0  0  0  0 
  9  4  1  0  0  0  0 
  9  7  1  0  0  0  0 
 10  6  1  0  0  0  0 
 11 25  1  0  0  0  0 
 12  1  1  0  0  0  0 
 14  1  1  0  0  0  0 
 15  2  1  0  0  0  0 
 18  3  1  0  0  0  0 
 20  5  1  0  0  0  0 
 22  7  1  0  0  0  0 
 23  7  1  0  0  0  0 
 24  8  1  0  0  0  0 
M  END 
>  <HBA> 
1 
 
>  <HBD> 
1 
 
>  <TPSA> 
20.23 
 
>  <cid> 
325 
 
>  <dipole> 
1.78 
 
>  <excitation_energy_1> 
5.179 
 
>  <excitation_energy_2> 
5.665 
 
>  <excitation_energy_3> 
5.902 
 
>  <excitation_energy_4> 
6.171 
 
>  <homo_energy> 
-6.338 
 
>  <homo_lumo_gap> 
6.291 
 
>  <logP> 
2.302 
 
>  <lumo_energy> 
-0.046 
 
>  <melting_point> 
29.28 
 
>  <molecular_refractivity> 
47.15 
 
>  <oscillator_strength_1> 
0.0016 
 
>  <oscillator_strength_2> 
0.1391 
 
>  <oscillator_strength_3> 
0.0007 
 
>  <oscillator_strength_4> 
0.0505 
 
>  <open_babel_can_smiles> 
OCc1ccc(cc1)C(C)C 
 
>  <mulliken_charges> 
25 
1   -0.438579 
2   -0.438556 
3   -0.179008 
4   -0.174785 
5   -0.197913 
6   -0.186432 
7   -0.091207 
8   -0.160251 
9   0.101135 
10   0.189593 
11   -0.609759 
12   0.141339 
13   0.143991 
14   0.149806 
15   0.14144 
16   0.148592 
17   0.143778 
18   0.121695 
19   0.141037 
20   0.122651 
21   0.125258 
22   0.127543 
23   0.162659 
24   0.128197 
25   0.387776 
 
>  <lowdin_charges> 
25 
1   -0.445015 
2   -0.444528 
3   -0.166252 
4   -0.160607 
5   -0.168504 
6   -0.163335 
7   -0.131706 
8   -0.119616 
9   -0.038201 
10   -0.000756 
11   -0.463558 
12   0.149389 
13   0.149006 
14   0.154269 
15   0.149461 
16   0.153116 
17   0.148836 
18   0.153195 
19   0.163837 
20   0.154069 
21   0.153691 
22   0.132214 
23   0.156451 
24   0.142858 
25   0.341684 
 
$$$$ 
 
