PCCDB-ID:  5054 
public computational chemistry database (PCCDB) project, http://pccdb.org 
 
 14 14  0  0  0  0  0  0  0  0999 V2000 
   -0.7585    1.1606   -0.0176 C   0  0  0  0  0  0  0  0  0  0  0  0 
   -1.3988   -0.0775   -0.0281 C   0  0  0  0  0  0  0  0  0  0  0  0 
    0.6323    1.2519   -0.0333 C   0  0  0  0  0  0  0  0  0  0  0  0 
    0.7700   -1.1750   -0.0708 C   0  0  0  0  0  0  0  0  0  0  0  0 
   -0.6235   -1.2443   -0.0542 C   0  0  0  0  0  0  0  0  0  0  0  0 
    1.3914    0.0744   -0.0598 C   0  0  0  0  0  0  0  0  0  0  0  0 
   -1.1816   -2.4931   -0.0649 O   0  0  0  0  0  0  0  0  0  0  0  0 
    2.7590    0.0864   -0.0769 O   0  0  0  0  0  0  0  0  0  0  0  0 
   -1.3534    2.0697    0.0014 H   0  0  0  0  0  0  0  0  0  0  0  0 
   -2.4848   -0.1399   -0.0158 H   0  0  0  0  0  0  0  0  0  0  0  0 
    1.1242    2.2222   -0.0251 H   0  0  0  0  0  0  0  0  0  0  0  0 
    1.3635   -2.0818   -0.0932 H   0  0  0  0  0  0  0  0  0  0  0  0 
   -2.1470   -2.4032   -0.0585 H   0  0  0  0  0  0  0  0  0  0  0  0 
    3.0629    1.0072   -0.0667 H   0  0  0  0  0  0  0  0  0  0  0  0 
  1  9  1  0  0  0  0 
  2  1  1  0  0  0  0 
  2 10  1  0  0  0  0 
  3 11  1  0  0  0  0 
  3  1  2  0  0  0  0 
  4  6  2  0  0  0  0 
  4  5  1  0  0  0  0 
  5  2  2  0  0  0  0 
  6  3  1  0  0  0  0 
  7 13  1  0  0  0  0 
  7  5  1  0  0  0  0 
  8 14  1  0  0  0  0 
  8  6  1  0  0  0  0 
 12  4  1  0  0  0  0 
M  END 
>  <HBA> 
2 
 
>  <HBD> 
2 
 
>  <TPSA> 
40.46 
 
>  <cid> 
5054 
 
>  <dipole> 
2.33 
 
>  <excitation_energy_1> 
5.03 
 
>  <excitation_energy_2> 
5.132 
 
>  <excitation_energy_3> 
5.364 
 
>  <excitation_energy_4> 
5.62 
 
>  <homo_energy> 
-5.831 
 
>  <homo_lumo_gap> 
6.016 
 
>  <logP> 
1.098 
 
>  <lumo_energy> 
0.185 
 
>  <melting_point> 
84.26 
 
>  <molecular_refractivity> 
30.49 
 
>  <oscillator_strength_1> 
0.0228 
 
>  <oscillator_strength_2> 
0.0 
 
>  <oscillator_strength_3> 
0.0017 
 
>  <oscillator_strength_4> 
0.0042 
 
>  <open_babel_can_smiles> 
Oc1cccc(c1)O 
 
>  <mulliken_charges> 
14 
1   -0.136835 
2   -0.202434 
3   -0.202458 
4   -0.202698 
5   0.35364 
6   0.353551 
7   -0.643237 
8   -0.643157 
9   0.131804 
10   0.114365 
11   0.114334 
12   0.1485 
13   0.407315 
14   0.40731 
 
>  <lowdin_charges> 
14 
1   -0.135062 
2   -0.235647 
3   -0.238606 
4   -0.218955 
5   0.113096 
6   0.115709 
7   -0.374691 
8   -0.377196 
9   0.160016 
10   0.150563 
11   0.152522 
12   0.176948 
13   0.355332 
14   0.35597 
 
$$$$ 
 
