PCCDB-ID:  1183 
public computational chemistry database (PCCDB) project, http://pccdb.org 
 
 19 19  0  0  0  0  0  0  0  0999 V2000 
    2.1189   -1.3818   -1.1881 C   0  0  0  0  0  0  0  0  0  0  0  0 
    4.6014    1.5269   -4.4406 C   0  0  0  0  0  0  0  0  0  0  0  0 
    4.7687    0.1541   -4.3210 C   0  0  0  0  0  0  0  0  0  0  0  0 
    3.4577    1.5578   -2.3064 C   0  0  0  0  0  0  0  0  0  0  0  0 
    3.7694    3.7025   -3.5388 C   0  0  0  0  0  0  0  0  0  0  0  0 
    3.9479    2.2428   -3.4280 C   0  0  0  0  0  0  0  0  0  0  0  0 
    4.2910   -0.5260   -3.1922 C   0  0  0  0  0  0  0  0  0  0  0  0 
    3.6151    0.1828   -2.1748 C   0  0  0  0  0  0  0  0  0  0  0  0 
    4.1491    4.3811   -4.4761 O   0  0  0  0  0  0  0  0  0  0  0  0 
    4.4572   -1.8676   -3.0212 O   0  0  0  0  0  0  0  0  0  0  0  0 
    3.1800   -0.4340   -1.0304 O   0  0  0  0  0  0  0  0  0  0  0  0 
    1.8658   -1.7161   -0.1797 H   0  0  0  0  0  0  0  0  0  0  0  0 
    2.4313   -2.2395   -1.7912 H   0  0  0  0  0  0  0  0  0  0  0  0 
    1.2399   -0.9090   -1.6456 H   0  0  0  0  0  0  0  0  0  0  0  0 
    4.9728    2.0653   -5.3065 H   0  0  0  0  0  0  0  0  0  0  0  0 
    5.2849   -0.4074   -5.0983 H   0  0  0  0  0  0  0  0  0  0  0  0 
    2.9473    2.0919   -1.5088 H   0  0  0  0  0  0  0  0  0  0  0  0 
    3.2426    4.1703   -2.6769 H   0  0  0  0  0  0  0  0  0  0  0  0 
    4.9507   -2.2228   -3.7775 H   0  0  0  0  0  0  0  0  0  0  0  0 
  1 11  1  0  0  0  0 
  1 12  1  0  0  0  0 
  2  3  2  0  0  0  0 
  2  6  1  0  0  0  0 
  3  7  1  0  0  0  0 
  4  8  1  0  0  0  0 
  4 17  1  0  0  0  0 
  5  6  1  0  0  0  0 
  5 18  1  0  0  0  0 
  6  4  2  0  0  0  0 
  7 10  1  0  0  0  0 
  7  8  2  0  0  0  0 
  8 11  1  0  0  0  0 
  9  5  2  0  0  0  0 
 13  1  1  0  0  0  0 
 14  1  1  0  0  0  0 
 15  2  1  0  0  0  0 
 16  3  1  0  0  0  0 
 19 10  1  0  0  0  0 
M  END 
>  <HBA> 
3 
 
>  <HBD> 
1 
 
>  <TPSA> 
46.53 
 
>  <cid> 
1183 
 
>  <dipole> 
4.08 
 
>  <excitation_energy_1> 
3.771 
 
>  <excitation_energy_2> 
4.404 
 
>  <excitation_energy_3> 
4.77 
 
>  <excitation_energy_4> 
5.308 
 
>  <homo_energy> 
-6.299 
 
>  <homo_lumo_gap> 
4.838 
 
>  <logP> 
1.213 
 
>  <lumo_energy> 
-1.461 
 
>  <melting_point> 
84.17 
 
>  <molecular_refractivity> 
40.34 
 
>  <oscillator_strength_1> 
0.0002 
 
>  <oscillator_strength_2> 
0.0958 
 
>  <oscillator_strength_3> 
0.1235 
 
>  <oscillator_strength_4> 
0.0014 
 
>  <open_babel_can_smiles> 
COc1cc(C=O)ccc1O 
 
>  <mulliken_charges> 
19 
1   -0.21684 
2   -0.162541 
3   -0.19863 
4   -0.235399 
5   0.190625 
6   0.093449 
7   0.325515 
8   0.3347 
9   -0.417035 
10   -0.629255 
11   -0.519649 
12   0.164451 
13   0.168877 
14   0.142505 
15   0.164249 
16   0.131265 
17   0.147584 
18   0.100339 
19   0.415789 
 
>  <lowdin_charges> 
19 
1   -0.275829 
2   -0.124597 
3   -0.206433 
4   -0.155274 
5   0.044143 
6   -0.069003 
7   0.095603 
8   0.065511 
9   -0.238106 
10   -0.36187 
11   -0.220007 
12   0.158962 
13   0.153209 
14   0.141279 
15   0.178571 
16   0.159833 
17   0.172664 
18   0.116979 
19   0.364365 
 
$$$$ 
 
