PCCDB-ID:  1326 
public computational chemistry database (PCCDB) project, http://pccdb.org 
 
 24 25  0  0  0  0  0  0  0  0999 V2000 
    0.8759   -0.0451    0.0185 C   0  0  0  0  0  0  0  0  0  0  0  0 
    1.5883   -3.0980    0.1980 C   0  0  0  0  0  0  0  0  0  0  0  0 
    6.3836   -3.8656   -0.0521 C   0  0  0  0  0  0  0  0  0  0  0  0 
    3.1483    1.0070   -0.2095 C   0  0  0  0  0  0  0  0  0  0  0  0 
    4.4658   -0.6534   -0.1687 C   0  0  0  0  0  0  0  0  0  0  0  0 
    3.1930   -1.1836   -0.0482 C   0  0  0  0  0  0  0  0  0  0  0  0 
    5.6359   -1.5036   -0.1808 C   0  0  0  0  0  0  0  0  0  0  0  0 
    4.0151   -3.4305    0.0651 C   0  0  0  0  0  0  0  0  0  0  0  0 
    4.4164    0.7214   -0.2685 N   0  0  0  0  0  0  0  0  0  0  0  0 
    2.3293   -0.1127   -0.0745 N   0  0  0  0  0  0  0  0  0  0  0  0 
    2.9290   -2.5309    0.0683 N   0  0  0  0  0  0  0  0  0  0  0  0 
    5.2897   -2.8876   -0.0555 N   0  0  0  0  0  0  0  0  0  0  0  0 
    6.7970   -1.1490   -0.2819 O   0  0  0  0  0  0  0  0  0  0  0  0 
    3.8359   -4.6370    0.1651 O   0  0  0  0  0  0  0  0  0  0  0  0 
    0.5891    1.0049   -0.0670 H   0  0  0  0  0  0  0  0  0  0  0  0 
    0.5171   -0.4223    0.9796 H   0  0  0  0  0  0  0  0  0  0  0  0 
    0.3968   -0.5988   -0.7926 H   0  0  0  0  0  0  0  0  0  0  0  0 
    1.0856   -2.7154    1.0911 H   0  0  0  0  0  0  0  0  0  0  0  0 
    1.7150   -4.1752    0.2912 H   0  0  0  0  0  0  0  0  0  0  0  0 
    0.9829   -2.8839   -0.6882 H   0  0  0  0  0  0  0  0  0  0  0  0 
    7.3113   -3.3068   -0.1565 H   0  0  0  0  0  0  0  0  0  0  0  0 
    6.2614   -4.5672   -0.8806 H   0  0  0  0  0  0  0  0  0  0  0  0 
    6.3783   -4.4306    0.8832 H   0  0  0  0  0  0  0  0  0  0  0  0 
    2.7139    1.9974   -0.2559 H   0  0  0  0  0  0  0  0  0  0  0  0 
  1 16  1  0  0  0  0 
  2 19  1  0  0  0  0 
  2 18  1  0  0  0  0 
  3 23  1  0  0  0  0 
  4 10  1  0  0  0  0 
  5  6  2  0  0  0  0 
  6 11  1  0  0  0  0 
  7  5  1  0  0  0  0 
  7 12  1  0  0  0  0 
  8 11  1  0  0  0  0 
  8 14  2  0  0  0  0 
  9  4  2  0  0  0  0 
  9  5  1  0  0  0  0 
 10  6  1  0  0  0  0 
 10  1  1  0  0  0  0 
 11  2  1  0  0  0  0 
 12  3  1  0  0  0  0 
 12  8  1  0  0  0  0 
 13  7  2  0  0  0  0 
 15  1  1  0  0  0  0 
 17  1  1  0  0  0  0 
 20  2  1  0  0  0  0 
 21  3  1  0  0  0  0 
 22  3  1  0  0  0  0 
 24  4  1  0  0  0  0 
M  END 
>  <HBA> 
6 
 
>  <HBD> 
0 
 
>  <TPSA> 
61.82 
 
>  <cid> 
1326 
 
>  <dipole> 
7.44 
 
>  <excitation_energy_1> 
4.937 
 
>  <excitation_energy_2> 
4.962 
 
>  <excitation_energy_3> 
5.022 
 
>  <excitation_energy_4> 
5.307 
 
>  <homo_energy> 
-5.959 
 
>  <homo_lumo_gap> 
5.559 
 
>  <logP> 
-1.029 
 
>  <lumo_energy> 
-0.4 
 
>  <melting_point> 
143.54 
 
>  <molecular_refractivity> 
52.04 
 
>  <oscillator_strength_1> 
0.0017 
 
>  <oscillator_strength_2> 
0.1117 
 
>  <oscillator_strength_3> 
0.0001 
 
>  <oscillator_strength_4> 
0.1864 
 
>  <open_babel_can_smiles> 
O=c1n(C)c2n(C)cnc2c(=O)n1C 
 
>  <mulliken_charges> 
24 
1   -0.332127 
2   -0.34611 
3   -0.315198 
4   0.201565 
5   0.104524 
6   0.597752 
7   0.608677 
8   0.789825 
9   -0.468484 
10   -0.484865 
11   -0.599152 
12   -0.566419 
13   -0.495671 
14   -0.528654 
15   0.185912 
16   0.185362 
17   0.185219 
18   0.16604 
19   0.228892 
20   0.166746 
21   0.203582 
22   0.174835 
23   0.174587 
24   0.163162 
 
>  <lowdin_charges> 
24 
1   -0.345407 
2   -0.354896 
3   -0.351206 
4   -0.090797 
5   -0.073553 
6   0.066484 
7   0.166899 
8   0.187595 
9   -0.138511 
10   -0.029398 
11   -0.072137 
12   -0.091576 
13   -0.269054 
14   -0.31077 
15   0.174326 
16   0.166477 
17   0.168106 
18   0.157267 
19   0.197882 
20   0.157074 
21   0.184667 
22   0.165381 
23   0.164663 
24   0.170484 
 
$$$$ 
 
