PCCDB-ID:  263 
public computational chemistry database (PCCDB) project, http://pccdb.org 
 
 15 14  0  0  0  0  0  0  0  0999 V2000 
    1.0967   -0.0789    0.1066 C   0  0  0  0  0  0  0  0  0  0  0  0 
    2.6226   -0.0861   -0.0318 C   0  0  0  0  0  0  0  0  0  0  0  0 
    3.1206    0.6945   -1.2549 C   0  0  0  0  0  0  0  0  0  0  0  0 
    4.6426    0.6773   -1.4036 C   0  0  0  0  0  0  0  0  0  0  0  0 
    5.1043    1.4503   -2.5067 O   0  0  0  0  0  0  0  0  0  0  0  0 
    0.7737   -0.6427    0.9891 H   0  0  0  0  0  0  0  0  0  0  0  0 
    0.6170   -0.5293   -0.7710 H   0  0  0  0  0  0  0  0  0  0  0  0 
    0.7130    0.9438    0.2051 H   0  0  0  0  0  0  0  0  0  0  0  0 
    2.9788   -1.1245   -0.0914 H   0  0  0  0  0  0  0  0  0  0  0  0 
    3.0740    0.3379    0.8763 H   0  0  0  0  0  0  0  0  0  0  0  0 
    2.7878    1.7396   -1.1991 H   0  0  0  0  0  0  0  0  0  0  0  0 
    2.6665    0.2719   -2.1655 H   0  0  0  0  0  0  0  0  0  0  0  0 
    5.0031   -0.3634   -1.4710 H   0  0  0  0  0  0  0  0  0  0  0  0 
    5.1133    1.1234   -0.5205 H   0  0  0  0  0  0  0  0  0  0  0  0 
    4.7258    1.0615   -3.3106 H   0  0  0  0  0  0  0  0  0  0  0  0 
  1  8  1  0  0  0  0 
  1  6  1  0  0  0  0 
  2  1  1  0  0  0  0 
  2 10  1  0  0  0  0 
  3 11  1  0  0  0  0 
  3  2  1  0  0  0  0 
  4  3  1  0  0  0  0 
  4 14  1  0  0  0  0 
  5  4  1  0  0  0  0 
  7  1  1  0  0  0  0 
  9  2  1  0  0  0  0 
 12  3  1  0  0  0  0 
 13  4  1  0  0  0  0 
 15  5  1  0  0  0  0 
M  END 
>  <HBA> 
1 
 
>  <HBD> 
1 
 
>  <TPSA> 
20.23 
 
>  <cid> 
263 
 
>  <dipole> 
1.72 
 
>  <excitation_energy_1> 
6.45 
 
>  <excitation_energy_2> 
7.24 
 
>  <excitation_energy_3> 
7.381 
 
>  <excitation_energy_4> 
7.606 
 
>  <homo_energy> 
-7.075 
 
>  <homo_lumo_gap> 
9.176 
 
>  <logP> 
0.779 
 
>  <lumo_energy> 
2.101 
 
>  <melting_point> 
-6.62 
 
>  <molecular_refractivity> 
22.5 
 
>  <oscillator_strength_1> 
0.0089 
 
>  <oscillator_strength_2> 
0.0165 
 
>  <oscillator_strength_3> 
0.0193 
 
>  <oscillator_strength_4> 
0.0205 
 
>  <open_babel_can_smiles> 
CCCCO 
 
>  <mulliken_charges> 
15 
1   -0.440003 
2   -0.254651 
3   -0.270524 
4   -0.025904 
5   -0.615785 
6   0.143895 
7   0.142003 
8   0.144838 
9   0.132277 
10   0.135605 
11   0.144749 
12   0.118135 
13   0.116088 
14   0.144576 
15   0.384701 
 
>  <lowdin_charges> 
15 
1   -0.44355 
2   -0.271928 
3   -0.293143 
4   -0.134916 
5   -0.469101 
6   0.150946 
7   0.147334 
8   0.147326 
9   0.138373 
10   0.141883 
11   0.145816 
12   0.133445 
13   0.121438 
14   0.146032 
15   0.340043 
 
$$$$ 
 
