PCCDB-ID:  1570 
public computational chemistry database (PCCDB) project, http://pccdb.org 
 
 13 13  0  0  0  0  0  0  0  0999 V2000 
   -1.3983   -0.1150    0.0257 C   0  0  0  0  0  0  0  0  0  0  0  0 
   -0.6915   -1.3360    0.0857 C   0  0  0  0  0  0  0  0  0  0  0  0 
   -0.7182    1.0791   -0.0649 C   0  0  0  0  0  0  0  0  0  0  0  0 
    0.6804   -1.2973    0.0512 C   0  0  0  0  0  0  0  0  0  0  0  0 
    0.7025    1.1374   -0.1021 C   0  0  0  0  0  0  0  0  0  0  0  0 
    1.3163   -0.1067   -0.0387 N   0  0  0  0  0  0  0  0  0  0  0  0 
    2.6867   -0.1594   -0.0666 O   0  0  0  0  0  0  0  0  0  0  0  0 
    1.6753    2.5224   -0.2132 S   0  0  0  0  0  0  0  0  0  0  0  0 
   -2.4840   -0.1170    0.0506 H   0  0  0  0  0  0  0  0  0  0  0  0 
   -1.1978   -2.2908    0.1583 H   0  0  0  0  0  0  0  0  0  0  0  0 
   -1.2431    2.0259   -0.1117 H   0  0  0  0  0  0  0  0  0  0  0  0 
    1.3313   -2.1613    0.0903 H   0  0  0  0  0  0  0  0  0  0  0  0 
    2.9153    0.8215   -0.1394 H   0  0  0  0  0  0  0  0  0  0  0  0 
  1  9  1  0  0  0  0 
  1  2  1  0  0  0  0 
  2 10  1  0  0  0  0 
  3  1  2  0  0  0  0 
  4  2  2  0  0  0  0 
  4 12  1  0  0  0  0 
  5  3  1  0  0  0  0 
  5  6  1  0  0  0  0 
  6  4  1  0  0  0  0 
  7  6  1  0  0  0  0 
  8  5  2  0  0  0  0 
 11  3  1  0  0  0  0 
 13  7  1  0  0  0  0 
M  END 
>  <HBA> 
3 
 
>  <HBD> 
1 
 
>  <TPSA> 
57.25 
 
>  <cid> 
1570 
 
>  <dipole> 
4.97 
 
>  <excitation_energy_1> 
3.48 
 
>  <excitation_energy_2> 
3.547 
 
>  <excitation_energy_3> 
4.198 
 
>  <excitation_energy_4> 
4.457 
 
>  <homo_energy> 
-5.747 
 
>  <homo_lumo_gap> 
4.133 
 
>  <logP> 
1.455 
 
>  <lumo_energy> 
-1.614 
 
>  <melting_point> 
103.24 
 
>  <molecular_refractivity> 
32.81 
 
>  <oscillator_strength_1> 
0.0392 
 
>  <oscillator_strength_2> 
0.0 
 
>  <oscillator_strength_3> 
0.0001 
 
>  <oscillator_strength_4> 
0.2807 
 
>  <open_babel_can_smiles> 
S=c1ccccn1O 
 
>  <mulliken_charges> 
13 
1   -0.071184 
2   -0.201974 
3   -0.200675 
4   0.123183 
5   0.161562 
6   -0.154362 
7   -0.494268 
8   -0.274007 
9   0.159436 
10   0.161859 
11   0.177911 
12   0.200813 
13   0.411706 
 
>  <lowdin_charges> 
13 
1   -0.121105 
2   -0.185486 
3   -0.1611 
4   -0.077758 
5   -0.074373 
6   0.143762 
7   -0.348941 
8   -0.250982 
9   0.171366 
10   0.178188 
11   0.186881 
12   0.193363 
13   0.346185 
 
$$$$ 
 
