PCCDB-ID:  98 
public computational chemistry database (PCCDB) project, http://pccdb.org 
 
 11 10  0  0  0  0  0  0  0  0999 V2000 
    1.5155   -0.4344   -0.1320 C   0  0  0  0  0  0  0  0  0  0  0  0 
    0.6551   -1.6670   -0.2934 C   0  0  0  0  0  0  0  0  0  0  0  0 
    0.8344   -2.7302    0.8120 C   0  0  0  0  0  0  0  0  0  0  0  0 
   -0.1268   -1.8303   -1.2028 O   0  0  0  0  0  0  0  0  0  0  0  0 
   -0.1675   -3.6206    0.8226 O   0  0  0  0  0  0  0  0  0  0  0  0 
    1.7952   -2.7614    1.5486 O   0  0  0  0  0  0  0  0  0  0  0  0 
    0.6965    0.6870    1.0854 S   0  0  0  0  0  0  0  0  0  0  0  0 
    1.6447    0.0649   -1.0932 H   0  0  0  0  0  0  0  0  0  0  0  0 
    2.4820   -0.6833    0.3092 H   0  0  0  0  0  0  0  0  0  0  0  0 
    0.0391   -4.2625    1.5287 H   0  0  0  0  0  0  0  0  0  0  0  0 
   -0.3776    0.9653    0.3146 H   0  0  0  0  0  0  0  0  0  0  0  0 
  1  9  1  0  0  0  0 
  1  7  1  0  0  0  0 
  2  1  1  0  0  0  0 
  2  3  1  0  0  0  0 
  3  5  1  0  0  0  0 
  3  6  2  0  0  0  0 
  4  2  2  0  0  0  0 
  5 10  1  0  0  0  0 
  8  1  1  0  0  0  0 
 11  7  1  0  0  0  0 
M  END 
>  <HBA> 
4 
 
>  <HBD> 
2 
 
>  <TPSA> 
93.17 
 
>  <cid> 
98 
 
>  <dipole> 
0.36 
 
>  <excitation_energy_1> 
3.169 
 
>  <excitation_energy_2> 
3.857 
 
>  <excitation_energy_3> 
5.057 
 
>  <excitation_energy_4> 
5.535 
 
>  <homo_energy> 
-6.934 
 
>  <homo_lumo_gap> 
4.555 
 
>  <logP> 
-0.43 
 
>  <lumo_energy> 
-2.378 
 
>  <melting_point> 
94.24 
 
>  <molecular_refractivity> 
26.44 
 
>  <oscillator_strength_1> 
0.0081 
 
>  <oscillator_strength_2> 
0.0213 
 
>  <oscillator_strength_3> 
0.0016 
 
>  <oscillator_strength_4> 
0.0063 
 
>  <open_babel_can_smiles> 
OC(=O)C(=O)CS 
 
>  <mulliken_charges> 
11 
1   -0.501232 
2   0.409798 
3   0.534086 
4   -0.39929 
5   -0.534825 
6   -0.444932 
7   -0.034368 
8   0.209953 
9   0.226636 
10   0.419524 
11   0.114651 
 
>  <lowdin_charges> 
11 
1   -0.39622 
2   0.125066 
3   0.165359 
4   -0.180785 
5   -0.316784 
6   -0.241533 
7   -0.032624 
8   0.183012 
9   0.198162 
10   0.3705 
11   0.125848 
 
$$$$ 
 
