PCCDB-ID:  2903 
public computational chemistry database (PCCDB) project, http://pccdb.org 
 
 26 26  0  0  0  0  0  0  0  0999 V2000 
   -1.5810    0.0020    0.7259 C   0  0  0  0  0  0  0  0  0  0  0  0 
   -1.4085    1.3141   -0.0537 C   0  0  0  0  0  0  0  0  0  0  0  0 
   -1.3901   -1.3127   -0.0449 C   0  0  0  0  0  0  0  0  0  0  0  0 
   -0.0156    1.6101   -0.6491 C   0  0  0  0  0  0  0  0  0  0  0  0 
    0.0073   -1.5932   -0.6375 C   0  0  0  0  0  0  0  0  0  0  0  0 
    1.1890    1.3338    0.2825 C   0  0  0  0  0  0  0  0  0  0  0  0 
    1.2091   -1.3033    0.2917 C   0  0  0  0  0  0  0  0  0  0  0  0 
    1.9676    0.0162    0.0471 C   0  0  0  0  0  0  0  0  0  0  0  0 
    3.2113   -0.0477    0.8398 N   0  0  0  0  0  0  0  0  0  0  0  0 
   -2.5968   -0.0032    1.1448 H   0  0  0  0  0  0  0  0  0  0  0  0 
   -0.9127    0.0093    1.5966 H   0  0  0  0  0  0  0  0  0  0  0  0 
   -1.6655    2.1348    0.6315 H   0  0  0  0  0  0  0  0  0  0  0  0 
   -2.1523    1.3566   -0.8621 H   0  0  0  0  0  0  0  0  0  0  0  0 
   -2.1332   -1.3710   -0.8531 H   0  0  0  0  0  0  0  0  0  0  0  0 
   -1.6362   -2.1319    0.6459 H   0  0  0  0  0  0  0  0  0  0  0  0 
   -0.0065    2.6697   -0.9353 H   0  0  0  0  0  0  0  0  0  0  0  0 
    0.1207    1.0609   -1.5882 H   0  0  0  0  0  0  0  0  0  0  0  0 
    0.1362   -1.0485   -1.5800 H   0  0  0  0  0  0  0  0  0  0  0  0 
    0.0300   -2.6542   -0.9175 H   0  0  0  0  0  0  0  0  0  0  0  0 
    0.8785    1.3867    1.3369 H   0  0  0  0  0  0  0  0  0  0  0  0 
    1.9198    2.1444    0.1533 H   0  0  0  0  0  0  0  0  0  0  0  0 
    1.9580   -2.0938    0.1729 H   0  0  0  0  0  0  0  0  0  0  0  0 
    0.8936   -1.3523    1.3453 H   0  0  0  0  0  0  0  0  0  0  0  0 
    2.2808    0.0128   -1.0084 H   0  0  0  0  0  0  0  0  0  0  0  0 
    2.9714   -0.0509    1.8327 H   0  0  0  0  0  0  0  0  0  0  0  0 
    3.7505    0.8062    0.6941 H   0  0  0  0  0  0  0  0  0  0  0  0 
  1 10  1  0  0  0  0 
  1 11  1  0  0  0  0 
  2 12  1  0  0  0  0 
  2  1  1  0  0  0  0 
  3 15  1  0  0  0  0 
  3  1  1  0  0  0  0 
  4  2  1  0  0  0  0 
  4  6  1  0  0  0  0 
  5  3  1  0  0  0  0 
  5  7  1  0  0  0  0 
  6 20  1  0  0  0  0 
  7 23  1  0  0  0  0 
  8  6  1  0  0  0  0 
  8  7  1  0  0  0  0 
  8  9  1  0  0  0  0 
  9 25  1  0  0  0  0 
 13  2  1  0  0  0  0 
 14  3  1  0  0  0  0 
 16  4  1  0  0  0  0 
 17  4  1  0  0  0  0 
 18  5  1  0  0  0  0 
 19  5  1  0  0  0  0 
 21  6  1  0  0  0  0 
 22  7  1  0  0  0  0 
 24  8  1  0  0  0  0 
 26  9  1  0  0  0  0 
M  END 
>  <HBA> 
1 
 
>  <HBD> 
1 
 
>  <TPSA> 
26.02 
 
>  <cid> 
2903 
 
>  <dipole> 
1.33 
 
>  <excitation_energy_1> 
5.574 
 
>  <excitation_energy_2> 
6.094 
 
>  <excitation_energy_3> 
6.208 
 
>  <excitation_energy_4> 
6.371 
 
>  <homo_energy> 
-6.163 
 
>  <homo_lumo_gap> 
8.264 
 
>  <logP> 
2.758 
 
>  <lumo_energy> 
2.101 
 
>  <melting_point> 
48.94 
 
>  <molecular_refractivity> 
41.16 
 
>  <oscillator_strength_1> 
0.0275 
 
>  <oscillator_strength_2> 
0.0031 
 
>  <oscillator_strength_3> 
0.0006 
 
>  <oscillator_strength_4> 
0.0061 
 
>  <open_babel_can_smiles> 
NC1CCCCCCC1 
 
>  <mulliken_charges> 
26 
1   -0.257292 
2   -0.2569 
3   -0.257336 
4   -0.266224 
5   -0.266923 
6   -0.261566 
7   -0.255223 
8   0.013676 
9   -0.712569 
10   0.12844 
11   0.130309 
12   0.12838 
13   0.127005 
14   0.126169 
15   0.129031 
16   0.130434 
17   0.136815 
18   0.134942 
19   0.132717 
20   0.122732 
21   0.119011 
22   0.152568 
23   0.120793 
24   0.125864 
25   0.285985 
26   0.289163 
 
>  <lowdin_charges> 
26 
1   -0.282809 
2   -0.278942 
3   -0.279551 
4   -0.283969 
5   -0.282397 
6   -0.296603 
7   -0.283923 
8   -0.065922 
9   -0.549031 
10   0.143529 
11   0.13766 
12   0.140979 
13   0.14054 
14   0.140133 
15   0.14133 
16   0.142491 
17   0.140789 
18   0.140001 
19   0.143835 
20   0.134583 
21   0.138937 
22   0.156712 
23   0.134077 
24   0.132629 
25   0.246116 
26   0.248804 
 
$$$$ 
 
