PCCDB-ID:  63 
public computational chemistry database (PCCDB) project, http://pccdb.org 
 
 21 20  0  0  1  0  0  0  0  0999 V2000 
    0.8070    0.2596    0.5203 C   0  0  0  0  0  0  0  0  0  0  0  0 
    2.3051   -1.0797   -1.0655 C   0  0  0  0  0  0  0  0  0  0  0  0 
    1.4788   -1.0876    0.2417 C   0  0  1  0  0  0  0  0  0  0  0  0 
    1.4884   -0.8679   -2.3638 C   0  0  1  0  0  0  0  0  0  0  0  0 
    2.4532   -0.8214   -3.5641 C   0  0  0  0  0  0  0  0  0  0  0  0 
    2.2784   -1.4647    1.4167 N   0  0  0  0  0  0  0  0  0  0  0  0 
    0.4754   -1.9071   -2.4991 N   0  0  0  0  0  0  0  0  0  0  0  0 
    2.5758   -1.7231   -4.3560 O   0  0  0  0  0  0  0  0  0  0  0  0 
    3.2169    0.2994   -3.6797 O   0  0  0  0  0  0  0  0  0  0  0  0 
    0.0827    0.5211   -0.2582 H   0  0  0  0  0  0  0  0  0  0  0  0 
    1.5501    1.0679    0.5809 H   0  0  0  0  0  0  0  0  0  0  0  0 
    0.2797    0.2171    1.4774 H   0  0  0  0  0  0  0  0  0  0  0  0 
    2.8322   -2.0407   -1.1558 H   0  0  0  0  0  0  0  0  0  0  0  0 
    3.0878   -0.3092   -0.9895 H   0  0  0  0  0  0  0  0  0  0  0  0 
    0.6957   -1.8447    0.1303 H   0  0  0  0  0  0  0  0  0  0  0  0 
    0.9724    0.1005   -2.3042 H   0  0  0  0  0  0  0  0  0  0  0  0 
    3.0596   -0.8161    1.5248 H   0  0  0  0  0  0  0  0  0  0  0  0 
    2.6947   -2.3845    1.2734 H   0  0  0  0  0  0  0  0  0  0  0  0 
    0.9476   -2.7680   -2.7792 H   0  0  0  0  0  0  0  0  0  0  0  0 
   -0.1343   -1.6806   -3.2840 H   0  0  0  0  0  0  0  0  0  0  0  0 
    2.9847    0.9311   -2.9786 H   0  0  0  0  0  0  0  0  0  0  0  0 
  1 11  1  0  0  0  0 
  1 12  1  0  0  0  0 
  2 14  1  0  0  0  0 
  2  3  1  0  0  0  0 
  3 15  1  6  0  0  0 
  3  1  1  0  0  0  0 
  3  6  1  0  0  0  0 
  4 16  1  1  0  0  0 
  4  2  1  0  0  0  0 
  5  4  1  0  0  0  0 
  6 17  1  0  0  0  0 
  7  4  1  0  0  0  0 
  8  5  2  0  0  0  0 
  9  5  1  0  0  0  0 
  9 21  1  0  0  0  0 
 10  1  1  0  0  0  0 
 13  2  1  0  0  0  0 
 18  6  1  0  0  0  0 
 19  7  1  0  0  0  0 
 20  7  1  0  0  0  0 
M  END 
>  <HBA> 
4 
 
>  <HBD> 
3 
 
>  <TPSA> 
89.34 
 
>  <cid> 
63 
 
>  <dipole> 
2.25 
 
>  <excitation_energy_1> 
5.398 
 
>  <excitation_energy_2> 
5.469 
 
>  <excitation_energy_3> 
5.79 
 
>  <excitation_energy_4> 
6.013 
 
>  <homo_energy> 
-6.351 
 
>  <homo_lumo_gap> 
6.474 
 
>  <logP> 
0.536 
 
>  <lumo_energy> 
0.122 
 
>  <melting_point> 
159.76 
 
>  <molecular_refractivity> 
33.34 
 
>  <oscillator_strength_1> 
0.0275 
 
>  <oscillator_strength_2> 
0.0039 
 
>  <oscillator_strength_3> 
0.0244 
 
>  <oscillator_strength_4> 
0.0062 
 
>  <open_babel_can_smiles> 
C[C@@H](C[C@@H](C(=O)O)N)N 
 
>  <mulliken_charges> 
21 
1   -0.449914 
2   -0.267952 
3   0.035287 
4   -0.112952 
5   0.583313 
6   -0.705212 
7   -0.692048 
8   -0.445133 
9   -0.564821 
10   0.147814 
11   0.123559 
12   0.169707 
13   0.140575 
14   0.114523 
15   0.167058 
16   0.143148 
17   0.285733 
18   0.294854 
19   0.312991 
20   0.307951 
21   0.411518 
 
>  <lowdin_charges> 
21 
1   -0.451533 
2   -0.297273 
3   -0.064958 
4   -0.116466 
5   0.176116 
6   -0.546834 
7   -0.530565 
8   -0.244058 
9   -0.356842 
10   0.151859 
11   0.138617 
12   0.165234 
13   0.147845 
14   0.134459 
15   0.157443 
16   0.14749 
17   0.248713 
18   0.253178 
19   0.264975 
20   0.263354 
21   0.359246 
 
$$$$ 
 
