PCCDB-ID:  4113 
public computational chemistry database (PCCDB) project, http://pccdb.org 
 
  8  7  0  0  0  0  0  0  0  0999 V2000 
    1.0156   -0.0430   -0.0933 C   0  0  0  0  0  0  0  0  0  0  0  0 
    2.8356    1.2258    0.5786 N   0  0  0  0  0  0  0  0  0  0  0  0 
    2.3945   -0.1050    0.2308 O   0  0  0  0  0  0  0  0  0  0  0  0 
    0.7301   -1.0683   -0.3496 H   0  0  0  0  0  0  0  0  0  0  0  0 
    0.8284    0.6162   -0.9517 H   0  0  0  0  0  0  0  0  0  0  0  0 
    0.4128    0.3047    0.7566 H   0  0  0  0  0  0  0  0  0  0  0  0 
    3.6295    1.3769   -0.0487 H   0  0  0  0  0  0  0  0  0  0  0  0 
    3.2506    1.0967    1.5046 H   0  0  0  0  0  0  0  0  0  0  0  0 
  1  3  1  0  0  0  0 
  1  6  1  0  0  0  0 
  2  8  1  0  0  0  0 
  3  2  1  0  0  0  0 
  4  1  1  0  0  0  0 
  5  1  1  0  0  0  0 
  7  2  1  0  0  0  0 
M  END 
>  <HBA> 
2 
 
>  <HBD> 
1 
 
>  <TPSA> 
35.25 
 
>  <cid> 
4113 
 
>  <dipole> 
0.57 
 
>  <excitation_energy_1> 
6.511 
 
>  <excitation_energy_2> 
6.65 
 
>  <excitation_energy_3> 
7.137 
 
>  <excitation_energy_4> 
7.151 
 
>  <homo_energy> 
-6.89 
 
>  <homo_lumo_gap> 
9.132 
 
>  <logP> 
0.207 
 
>  <lumo_energy> 
2.242 
 
>  <melting_point> 
24.4 
 
>  <molecular_refractivity> 
10.71 
 
>  <oscillator_strength_1> 
0.0313 
 
>  <oscillator_strength_2> 
0.0094 
 
>  <oscillator_strength_3> 
0.0407 
 
>  <oscillator_strength_4> 
0.0024 
 
>  <open_babel_can_smiles> 
CON 
 
>  <mulliken_charges> 
8 
1   -0.158708 
2   -0.48015 
3   -0.409449 
4   0.147804 
5   0.13605 
6   0.135954 
7   0.31425 
8   0.314249 
 
>  <lowdin_charges> 
8 
1   -0.27985 
2   -0.404853 
3   -0.253842 
4   0.149137 
5   0.136949 
6   0.137474 
7   0.257862 
8   0.257123 
 
$$$$ 
 
