PCCDB-ID:  790 
public computational chemistry database (PCCDB) project, http://pccdb.org 
 
 14 15  0  0  0  0  0  0  0  0999 V2000 
   -2.3091   -0.0453    0.0015 C   0  0  0  0  0  0  0  0  0  0  0  0 
    1.9873    0.6559    0.0003 C   0  0  0  0  0  0  0  0  0  0  0  0 
   -0.2946   -0.7081    0.0026 C   0  0  0  0  0  0  0  0  0  0  0  0 
   -0.2212    0.6911    0.0009 C   0  0  0  0  0  0  0  0  0  0  0  0 
    0.9372   -1.3811    0.0029 C   0  0  0  0  0  0  0  0  0  0  0  0 
   -1.6062   -1.1517    0.0026 N   0  0  0  0  0  0  0  0  0  0  0  0 
   -1.5376    1.0997    0.0006 N   0  0  0  0  0  0  0  0  0  0  0  0 
    0.8938    1.4262   -0.0001 N   0  0  0  0  0  0  0  0  0  0  0  0 
    2.0699   -0.6877    0.0020 N   0  0  0  0  0  0  0  0  0  0  0  0 
    1.0253   -2.7220    0.0041 O   0  0  0  0  0  0  0  0  0  0  0  0 
   -3.3902    0.0045    0.0014 H   0  0  0  0  0  0  0  0  0  0  0  0 
    2.9392    1.1814   -0.0016 H   0  0  0  0  0  0  0  0  0  0  0  0 
   -1.8612    2.0568   -0.0016 H   0  0  0  0  0  0  0  0  0  0  0  0 
    0.1179   -3.0767    0.0029 H   0  0  0  0  0  0  0  0  0  0  0  0 
  1  6  2  0  0  0  0 
  2  9  1  0  0  0  0 
  3  6  1  0  0  0  0 
  3  5  1  0  0  0  0 
  4  3  2  0  0  0  0 
  5 10  1  0  0  0  0 
  7  4  1  0  0  0  0 
  7  1  1  0  0  0  0 
  8  2  2  0  0  0  0 
  8  4  1  0  0  0  0 
  9  5  2  0  0  0  0 
 11  1  1  0  0  0  0 
 12  2  1  0  0  0  0 
 13  7  1  0  0  0  0 
 14 10  1  0  0  0  0 
M  END 
>  <HBA> 
3 
 
>  <HBD> 
2 
 
>  <TPSA> 
74.43 
 
>  <cid> 
790 
 
>  <dipole> 
4.6 
 
>  <excitation_energy_1> 
4.878 
 
>  <excitation_energy_2> 
5.326 
 
>  <excitation_energy_3> 
5.453 
 
>  <excitation_energy_4> 
5.575 
 
>  <homo_energy> 
-6.637 
 
>  <homo_lumo_gap> 
5.725 
 
>  <logP> 
-0.354 
 
>  <lumo_energy> 
-0.912 
 
>  <melting_point> 
208.65 
 
>  <molecular_refractivity> 
34.51 
 
>  <oscillator_strength_1> 
0.0007 
 
>  <oscillator_strength_2> 
0.1956 
 
>  <oscillator_strength_3> 
0.0005 
 
>  <oscillator_strength_4> 
0.0016 
 
>  <open_babel_can_smiles> 
Oc1ncnc2c1nc[nH]2 
 
>  <mulliken_charges> 
14 
1   0.240176 
2   0.15962 
3   0.168245 
4   0.531098 
5   0.497783 
6   -0.519061 
7   -0.653155 
8   -0.485137 
9   -0.460816 
10   -0.591269 
11   0.174887 
12   0.156834 
13   0.348305 
14   0.432489 
 
>  <lowdin_charges> 
14 
1   -0.046988 
2   -0.029139 
3   -0.072698 
4   0.066929 
5   0.150821 
6   -0.19435 
7   -0.188117 
8   -0.19027 
9   -0.184153 
10   -0.327848 
11   0.173927 
12   0.16383 
13   0.305632 
14   0.372423 
 
$$$$ 
 
