PCCDB-ID:  2598 
public computational chemistry database (PCCDB) project, http://pccdb.org 
 
 26 27  0  0  0  0  0  0  0  0999 V2000 
    1.9300    1.3954    0.0211 C   0  0  0  0  0  0  0  0  0  0  0  0 
    2.8534    0.3577    0.1620 C   0  0  0  0  0  0  0  0  0  0  0  0 
   -4.7082    0.7180   -0.3999 C   0  0  0  0  0  0  0  0  0  0  0  0 
   -5.9173    0.0358    0.2399 C   0  0  0  0  0  0  0  0  0  0  0  0 
   -1.8539    1.7361   -0.2551 C   0  0  0  0  0  0  0  0  0  0  0  0 
    1.2218   -1.2418    0.1701 C   0  0  0  0  0  0  0  0  0  0  0  0 
    0.5777    1.0740   -0.0450 C   0  0  0  0  0  0  0  0  0  0  0  0 
    0.2124   -0.2790    0.0316 C   0  0  0  0  0  0  0  0  0  0  0  0 
   -2.2359    0.4255   -0.1538 C   0  0  0  0  0  0  0  0  0  0  0  0 
   -0.4636    2.1508   -0.2036 C   0  0  0  0  0  0  0  0  0  0  0  0 
   -1.2065   -0.6762   -0.0350 C   0  0  0  0  0  0  0  0  0  0  0  0 
    2.5211   -0.9409    0.2364 N   0  0  0  0  0  0  0  0  0  0  0  0 
   -3.5041   -0.0541   -0.1354 N   0  0  0  0  0  0  0  0  0  0  0  0 
   -5.8576    0.0436    1.6531 O   0  0  0  0  0  0  0  0  0  0  0  0 
   -0.1187    3.3288   -0.2867 O   0  0  0  0  0  0  0  0  0  0  0  0 
   -1.5793   -1.8448   -0.0053 O   0  0  0  0  0  0  0  0  0  0  0  0 
    2.2374    2.4338   -0.0383 H   0  0  0  0  0  0  0  0  0  0  0  0 
    3.9181    0.5770    0.2175 H   0  0  0  0  0  0  0  0  0  0  0  0 
   -4.5922    1.7111    0.0444 H   0  0  0  0  0  0  0  0  0  0  0  0 
   -4.8671    0.8476   -1.4823 H   0  0  0  0  0  0  0  0  0  0  0  0 
   -6.0162   -0.9897   -0.1585 H   0  0  0  0  0  0  0  0  0  0  0  0 
   -6.8254    0.5800   -0.0355 H   0  0  0  0  0  0  0  0  0  0  0  0 
   -2.5764    2.5360   -0.3751 H   0  0  0  0  0  0  0  0  0  0  0  0 
    0.9532   -2.2936    0.2294 H   0  0  0  0  0  0  0  0  0  0  0  0 
   -3.5480   -1.0668   -0.2224 H   0  0  0  0  0  0  0  0  0  0  0  0 
   -5.0100   -0.3557    1.9083 H   0  0  0  0  0  0  0  0  0  0  0  0 
  1  2  1  0  0  0  0 
  2 18  1  0  0  0  0 
  2 12  2  0  0  0  0 
  3 13  1  0  0  0  0 
  3 19  1  0  0  0  0 
  3  4  1  0  0  0  0 
  4 14  1  0  0  0  0 
  5 10  1  0  0  0  0 
  5  9  2  0  0  0  0 
  6 24  1  0  0  0  0 
  6 12  1  0  0  0  0 
  7  1  2  0  0  0  0 
  7  8  1  0  0  0  0 
  8  6  2  0  0  0  0 
  9 13  1  0  0  0  0 
  9 11  1  0  0  0  0 
 10  7  1  0  0  0  0 
 11 16  2  0  0  0  0 
 11  8  1  0  0  0  0 
 14 26  1  0  0  0  0 
 15 10  2  0  0  0  0 
 17  1  1  0  0  0  0 
 20  3  1  0  0  0  0 
 21  4  1  0  0  0  0 
 22  4  1  0  0  0  0 
 23  5  1  0  0  0  0 
 25 13  1  0  0  0  0 
M  END 
>  <HBA> 
5 
 
>  <HBD> 
2 
 
>  <TPSA> 
79.29 
 
>  <cid> 
2598 
 
>  <dipole> 
2.35 
 
>  <excitation_energy_1> 
2.697 
 
>  <excitation_energy_2> 
2.769 
 
>  <excitation_energy_3> 
3.158 
 
>  <excitation_energy_4> 
3.642 
 
>  <homo_energy> 
-6.498 
 
>  <homo_lumo_gap> 
3.328 
 
>  <logP> 
0.317 
 
>  <lumo_energy> 
-3.17 
 
>  <melting_point> 
169.87 
 
>  <molecular_refractivity> 
55.62 
 
>  <oscillator_strength_1> 
0.0009 
 
>  <oscillator_strength_2> 
0.042 
 
>  <oscillator_strength_3> 
0.0001 
 
>  <oscillator_strength_4> 
0.0001 
 
>  <open_babel_can_smiles> 
OCCNC1=CC(=O)c2c(C1=O)cncc2 
 
>  <mulliken_charges> 
26 
1   -0.190723 
2   0.053509 
3   -0.132573 
4   -0.047474 
5   -0.292088 
6   0.017189 
7   0.074533 
8   0.023591 
9   0.363254 
10   0.415958 
11   0.349574 
12   -0.409465 
13   -0.677993 
14   -0.60529 
15   -0.493615 
16   -0.48805 
17   0.17625 
18   0.15881 
19   0.179668 
20   0.157324 
21   0.127974 
22   0.163715 
23   0.150345 
24   0.177716 
25   0.350113 
26   0.397747 
 
>  <lowdin_charges> 
26 
1   -0.149242 
2   -0.065004 
3   -0.209327 
4   -0.13655 
5   -0.254997 
6   -0.057997 
7   -0.000541 
8   -0.064819 
9   0.042572 
10   0.139694 
11   0.155893 
12   -0.136736 
13   -0.249787 
14   -0.459321 
15   -0.250377 
16   -0.237823 
17   0.185167 
18   0.163774 
19   0.164456 
20   0.149258 
21   0.128196 
22   0.159476 
23   0.175871 
24   0.174479 
25   0.289951 
26   0.343734 
 
$$$$ 
 
