PCCDB-ID:  4909 
public computational chemistry database (PCCDB) project, http://pccdb.org 
 
 30 31  0  0  1  0  0  0  0  0999 V2000 
    0.8681   -0.9685    0.6095 C   0  0  0  0  0  0  0  0  0  0  0  0 
    2.0746   -0.1518    0.1368 C   0  0  0  0  0  0  0  0  0  0  0  0 
    6.5047    1.3969   -2.1277 C   0  0  0  0  0  0  0  0  0  0  0  0 
    5.5603    1.9928   -1.2957 C   0  0  0  0  0  0  0  0  0  0  0  0 
    6.3313    0.0673   -2.5243 C   0  0  0  0  0  0  0  0  0  0  0  0 
    4.4456    1.2684   -0.8584 C   0  0  0  0  0  0  0  0  0  0  0  0 
    5.2230   -0.6535   -2.0902 C   0  0  0  0  0  0  0  0  0  0  0  0 
    2.2832   -3.6284   -1.4220 C   0  0  0  0  0  0  0  0  0  0  0  0 
    4.2592   -0.0665   -1.2485 C   0  0  0  0  0  0  0  0  0  0  0  0 
    2.2747   -1.3758   -2.0543 C   0  0  0  0  0  0  0  0  0  0  0  0 
    3.5484   -2.1801   -0.0892 C   0  0  0  0  0  0  0  0  0  0  0  0 
    3.0507   -0.9207   -0.8105 C   0  0  2  0  0  0  0  0  0  0  0  0 
    1.9137   -2.5551   -2.3251 N   0  0  0  0  0  0  0  0  0  0  0  0 
    3.2066   -3.3709   -0.3332 N   0  0  0  0  0  0  0  0  0  0  0  0 
    1.8934   -0.3761   -2.8994 O   0  0  0  0  0  0  0  0  0  0  0  0 
    4.3915   -1.9543    0.9586 O   0  0  0  0  0  0  0  0  0  0  0  0 
    0.2304   -0.3515    1.2511 H   0  0  0  0  0  0  0  0  0  0  0  0 
    1.1780   -1.8450    1.1876 H   0  0  0  0  0  0  0  0  0  0  0  0 
    0.2609   -1.3138   -0.2334 H   0  0  0  0  0  0  0  0  0  0  0  0 
    2.6385    0.1948    1.0111 H   0  0  0  0  0  0  0  0  0  0  0  0 
    1.7198    0.7460   -0.3830 H   0  0  0  0  0  0  0  0  0  0  0  0 
    7.3701    1.9600   -2.4654 H   0  0  0  0  0  0  0  0  0  0  0  0 
    5.6838    3.0248   -0.9791 H   0  0  0  0  0  0  0  0  0  0  0  0 
    7.0612   -0.4089   -3.1729 H   0  0  0  0  0  0  0  0  0  0  0  0 
    3.7275    1.7587   -0.2100 H   0  0  0  0  0  0  0  0  0  0  0  0 
    5.0961   -1.6867   -2.4031 H   0  0  0  0  0  0  0  0  0  0  0  0 
    2.7152   -4.4326   -2.0317 H   0  0  0  0  0  0  0  0  0  0  0  0 
    1.3607   -4.0455   -0.9938 H   0  0  0  0  0  0  0  0  0  0  0  0 
    2.4109    0.4203   -2.6933 H   0  0  0  0  0  0  0  0  0  0  0  0 
    4.7310   -1.0460    0.8943 H   0  0  0  0  0  0  0  0  0  0  0  0 
  1 18  1  0  0  0  0 
  1 17  1  0  0  0  0 
  2  1  1  0  0  0  0 
  2 20  1  0  0  0  0 
  3  4  1  0  0  0  0 
  4 23  1  0  0  0  0 
  4  6  2  0  0  0  0 
  5  3  2  0  0  0  0 
  5  7  1  0  0  0  0 
  6 25  1  0  0  0  0 
  7  9  2  0  0  0  0 
  8 28  1  0  0  0  0 
  8 14  1  0  0  0  0 
  9  6  1  0  0  0  0 
  9 12  1  0  0  0  0 
 10 12  1  0  0  0  0 
 11 16  1  0  0  0  0 
 12 11  1  0  0  0  0 
 12  2  1  1  0  0  0 
 13 10  2  0  0  0  0 
 13  8  1  0  0  0  0 
 14 11  2  0  0  0  0 
 15 29  1  0  0  0  0 
 15 10  1  0  0  0  0 
 19  1  1  0  0  0  0 
 21  2  1  0  0  0  0 
 22  3  1  0  0  0  0 
 24  5  1  0  0  0  0 
 26  7  1  0  0  0  0 
 27  8  1  0  0  0  0 
 30 16  1  0  0  0  0 
M  END 
>  <HBA> 
4 
 
>  <HBD> 
2 
 
>  <TPSA> 
58.2 
 
>  <cid> 
4909 
 
>  <dipole> 
5.27 
 
>  <excitation_energy_1> 
4.843 
 
>  <excitation_energy_2> 
4.866 
 
>  <excitation_energy_3> 
5.108 
 
>  <excitation_energy_4> 
5.298 
 
>  <homo_energy> 
-6.346 
 
>  <homo_lumo_gap> 
5.467 
 
>  <logP> 
1.196 
 
>  <lumo_energy> 
-0.879 
 
>  <melting_point> 
130.49 
 
>  <molecular_refractivity> 
67.05 
 
>  <oscillator_strength_1> 
0.0736 
 
>  <oscillator_strength_2> 
0.0037 
 
>  <oscillator_strength_3> 
0.0001 
 
>  <oscillator_strength_4> 
0.0009 
 
>  <open_babel_can_smiles> 
CC[C@]1(c2ccccc2)C(=NCN=C1O)O 
 
>  <mulliken_charges> 
30 
1   -0.46959 
2   -0.267189 
3   -0.123173 
4   -0.127852 
5   -0.129936 
6   -0.200775 
7   -0.153452 
8   -0.051567 
9   0.035021 
10   0.528853 
11   0.527809 
12   -0.162184 
13   -0.442131 
14   -0.442401 
15   -0.600274 
16   -0.600384 
17   0.151624 
18   0.174104 
19   0.173552 
20   0.143974 
21   0.144388 
22   0.14291 
23   0.142084 
24   0.147066 
25   0.143376 
26   0.161596 
27   0.167123 
28   0.165434 
29   0.410958 
30   0.411035 
 
>  <lowdin_charges> 
30 
1   -0.454549 
2   -0.273071 
3   -0.148713 
4   -0.150511 
5   -0.145896 
6   -0.186557 
7   -0.151797 
8   -0.144767 
9   -0.044777 
10   0.117776 
11   0.117362 
12   -0.056339 
13   -0.197874 
14   -0.196669 
15   -0.362782 
16   -0.361551 
17   0.158627 
18   0.163653 
19   0.163724 
20   0.147629 
21   0.147527 
22   0.165122 
23   0.162355 
24   0.16754 
25   0.16602 
26   0.170949 
27   0.158746 
28   0.156158 
29   0.357264 
30   0.355402 
 
$$$$ 
 
