PCCDB-ID:  3610 
public computational chemistry database (PCCDB) project, http://pccdb.org 
 
 32 32  0  0  0  0  0  0  0  0999 V2000 
    5.5306   -4.3585    3.9697 C   0  0  0  0  0  0  0  0  0  0  0  0 
    6.6811   -3.5538    3.3531 C   0  0  0  0  0  0  0  0  0  0  0  0 
    6.3938   -3.0189    1.9388 C   0  0  0  0  0  0  0  0  0  0  0  0 
    5.2157   -2.0342    1.8147 C   0  0  0  0  0  0  0  0  0  0  0  0 
    5.3419   -0.7301    2.6205 C   0  0  0  0  0  0  0  0  0  0  0  0 
    6.4859    0.2136    2.1799 C   0  0  0  0  0  0  0  0  0  0  0  0 
    7.0931    0.3018   -0.2959 C   0  0  0  0  0  0  0  0  0  0  0  0 
    6.9600    0.8105   -1.5903 C   0  0  0  0  0  0  0  0  0  0  0  0 
    5.2656    2.3313   -0.7744 C   0  0  0  0  0  0  0  0  0  0  0  0 
    6.3372    0.7706    0.7804 C   0  0  0  0  0  0  0  0  0  0  0  0 
    6.0383    1.8314   -1.8262 C   0  0  0  0  0  0  0  0  0  0  0  0 
    5.4177    1.8037    0.5073 C   0  0  0  0  0  0  0  0  0  0  0  0 
    5.8438    2.3896   -3.0612 O   0  0  0  0  0  0  0  0  0  0  0  0 
    4.6812    2.2759    1.5635 O   0  0  0  0  0  0  0  0  0  0  0  0 
    5.8178   -4.7749    4.9422 H   0  0  0  0  0  0  0  0  0  0  0  0 
    5.2433   -5.1954    3.3208 H   0  0  0  0  0  0  0  0  0  0  0  0 
    4.6388   -3.7415    4.1279 H   0  0  0  0  0  0  0  0  0  0  0  0 
    7.5747   -4.1911    3.3042 H   0  0  0  0  0  0  0  0  0  0  0  0 
    6.9441   -2.7236    4.0222 H   0  0  0  0  0  0  0  0  0  0  0  0 
    6.1980   -3.8736    1.2751 H   0  0  0  0  0  0  0  0  0  0  0  0 
    7.3075   -2.5469    1.5519 H   0  0  0  0  0  0  0  0  0  0  0  0 
    4.2896   -2.5405    2.1181 H   0  0  0  0  0  0  0  0  0  0  0  0 
    5.0850   -1.7839    0.7536 H   0  0  0  0  0  0  0  0  0  0  0  0 
    5.4815   -0.9624    3.6851 H   0  0  0  0  0  0  0  0  0  0  0  0 
    4.3969   -0.1784    2.5527 H   0  0  0  0  0  0  0  0  0  0  0  0 
    7.4485   -0.3076    2.2521 H   0  0  0  0  0  0  0  0  0  0  0  0 
    6.5295    1.0441    2.8949 H   0  0  0  0  0  0  0  0  0  0  0  0 
    7.8201   -0.4871   -0.1167 H   0  0  0  0  0  0  0  0  0  0  0  0 
    7.5689    0.4189   -2.4025 H   0  0  0  0  0  0  0  0  0  0  0  0 
    4.5555    3.1302   -0.9740 H   0  0  0  0  0  0  0  0  0  0  0  0 
    6.4371    1.9558   -3.6937 H   0  0  0  0  0  0  0  0  0  0  0  0 
    4.1026    2.9875    1.2482 H   0  0  0  0  0  0  0  0  0  0  0  0 
  1 17  1  0  0  0  0 
  1 15  1  0  0  0  0 
  2  1  1  0  0  0  0 
  2 19  1  0  0  0  0 
  3  2  1  0  0  0  0 
  4  3  1  0  0  0  0 
  4 22  1  0  0  0  0 
  4  5  1  0  0  0  0 
  5 24  1  0  0  0  0 
  6 26  1  0  0  0  0 
  6  5  1  0  0  0  0 
  6 27  1  0  0  0  0 
  7 28  1  0  0  0  0 
  7 10  2  0  0  0  0 
  8  7  1  0  0  0  0 
  9 12  2  0  0  0  0 
 10  6  1  0  0  0  0 
 11  8  2  0  0  0  0 
 11  9  1  0  0  0  0 
 12 10  1  0  0  0  0 
 12 14  1  0  0  0  0 
 13 11  1  0  0  0  0 
 16  1  1  0  0  0  0 
 18  2  1  0  0  0  0 
 20  3  1  0  0  0  0 
 21  3  1  0  0  0  0 
 23  4  1  0  0  0  0 
 25  5  1  0  0  0  0 
 29  8  1  0  0  0  0 
 30  9  1  0  0  0  0 
 31 13  1  0  0  0  0 
 32 14  1  0  0  0  0 
M  END 
>  <HBA> 
2 
 
>  <HBD> 
2 
 
>  <TPSA> 
40.46 
 
>  <cid> 
3610 
 
>  <dipole> 
1.14 
 
>  <excitation_energy_1> 
4.879 
 
>  <excitation_energy_2> 
4.925 
 
>  <excitation_energy_3> 
5.079 
 
>  <excitation_energy_4> 
5.493 
 
>  <homo_energy> 
-5.595 
 
>  <homo_lumo_gap> 
5.834 
 
>  <logP> 
3.221 
 
>  <lumo_energy> 
0.239 
 
>  <melting_point> 
85.78 
 
>  <molecular_refractivity> 
59.49 
 
>  <oscillator_strength_1> 
0.0434 
 
>  <oscillator_strength_2> 
0.0046 
 
>  <oscillator_strength_3> 
0.0008 
 
>  <oscillator_strength_4> 
0.0148 
 
>  <open_babel_can_smiles> 
CCCCCCc1ccc(cc1O)O 
 
>  <mulliken_charges> 
32 
1   -0.443348 
2   -0.250183 
3   -0.254344 
4   -0.26113 
5   -0.261182 
6   -0.339199 
7   -0.207798 
8   -0.197851 
9   -0.234871 
10   0.142895 
11   0.349773 
12   0.299562 
13   -0.648236 
14   -0.647606 
15   0.140044 
16   0.139574 
17   0.147187 
18   0.128088 
19   0.134067 
20   0.12473 
21   0.125628 
22   0.129217 
23   0.137732 
24   0.128898 
25   0.148939 
26   0.135357 
27   0.150888 
28   0.127785 
29   0.11297 
30   0.125529 
31   0.407654 
32   0.40923 
 
>  <lowdin_charges> 
32 
1   -0.448136 
2   -0.277646 
3   -0.280609 
4   -0.282324 
5   -0.276345 
6   -0.273163 
7   -0.147067 
8   -0.240316 
9   -0.244694 
10   -0.049844 
11   0.110107 
12   0.104996 
13   -0.383566 
14   -0.379464 
15   0.148489 
16   0.146097 
17   0.147843 
18   0.140951 
19   0.139971 
20   0.139978 
21   0.136787 
22   0.141039 
23   0.144761 
24   0.137665 
25   0.150611 
26   0.144914 
27   0.157387 
28   0.157264 
29   0.153193 
30   0.162076 
31   0.359528 
32   0.359518 
 
$$$$ 
 
