PCCDB-ID:  3893 
public computational chemistry database (PCCDB) project, http://pccdb.org 
 
 38 37  0  0  0  0  0  0  0  0999 V2000 
    2.9159    2.3344   -3.3886 C   0  0  0  0  0  0  0  0  0  0  0  0 
    3.6494    1.7988   -2.1543 C   0  0  0  0  0  0  0  0  0  0  0  0 
    3.2348    2.5105   -0.8585 C   0  0  0  0  0  0  0  0  0  0  0  0 
    3.8831    1.9593    0.4233 C   0  0  0  0  0  0  0  0  0  0  0  0 
    5.3993    2.1878    0.5213 C   0  0  0  0  0  0  0  0  0  0  0  0 
    6.0492    1.6289    1.7992 C   0  0  0  0  0  0  0  0  0  0  0  0 
    5.6287    2.3290    3.0995 C   0  0  0  0  0  0  0  0  0  0  0  0 
    6.3609    1.7928    4.3369 C   0  0  0  0  0  0  0  0  0  0  0  0 
    5.9487    2.4916    5.6387 C   0  0  0  0  0  0  0  0  0  0  0  0 
    6.6815    1.9448    6.8707 C   0  0  0  0  0  0  0  0  0  0  0  0 
    6.2695    2.6215    8.1826 C   0  0  0  0  0  0  0  0  0  0  0  0 
    6.7728    4.0563    8.3137 C   0  0  0  0  0  0  0  0  0  0  0  0 
    7.5739    4.5788    7.5805 O   0  0  0  0  0  0  0  0  0  0  0  0 
    6.2711    4.7524    9.3735 O   0  0  0  0  0  0  0  0  0  0  0  0 
    3.2285    1.8114   -4.2997 H   0  0  0  0  0  0  0  0  0  0  0  0 
    3.1141    3.4036   -3.5342 H   0  0  0  0  0  0  0  0  0  0  0  0 
    1.8301    2.2116   -3.2893 H   0  0  0  0  0  0  0  0  0  0  0  0 
    4.7317    1.8981   -2.3088 H   0  0  0  0  0  0  0  0  0  0  0  0 
    3.4533    0.7216   -2.0508 H   0  0  0  0  0  0  0  0  0  0  0  0 
    2.1420    2.4403   -0.7576 H   0  0  0  0  0  0  0  0  0  0  0  0 
    3.4606    3.5841   -0.9460 H   0  0  0  0  0  0  0  0  0  0  0  0 
    3.6748    0.8810    0.4991 H   0  0  0  0  0  0  0  0  0  0  0  0 
    3.3890    2.4245    1.2863 H   0  0  0  0  0  0  0  0  0  0  0  0 
    5.6067    3.2664    0.4520 H   0  0  0  0  0  0  0  0  0  0  0  0 
    5.8932    1.7281   -0.3446 H   0  0  0  0  0  0  0  0  0  0  0  0 
    7.1413    1.7048    1.6992 H   0  0  0  0  0  0  0  0  0  0  0  0 
    5.8273    0.5537    1.8769 H   0  0  0  0  0  0  0  0  0  0  0  0 
    4.5459    2.2216    3.2519 H   0  0  0  0  0  0  0  0  0  0  0  0 
    5.8188    3.4086    3.0058 H   0  0  0  0  0  0  0  0  0  0  0  0 
    7.4456    1.9059    4.1944 H   0  0  0  0  0  0  0  0  0  0  0  0 
    6.1765    0.7116    4.4280 H   0  0  0  0  0  0  0  0  0  0  0  0 
    4.8628    2.3798    5.7819 H   0  0  0  0  0  0  0  0  0  0  0  0 
    6.1464    3.5671    5.5530 H   0  0  0  0  0  0  0  0  0  0  0  0 
    7.7627    2.0693    6.7391 H   0  0  0  0  0  0  0  0  0  0  0  0 
    6.4918    0.8673    6.9627 H   0  0  0  0  0  0  0  0  0  0  0  0 
    6.6646    2.0617    9.0435 H   0  0  0  0  0  0  0  0  0  0  0  0 
    5.1748    2.6147    8.2921 H   0  0  0  0  0  0  0  0  0  0  0  0 
    5.6406    4.1994    9.8640 H   0  0  0  0  0  0  0  0  0  0  0  0 
  1 17  1  0  0  0  0 
  1  2  1  0  0  0  0 
  2 19  1  0  0  0  0 
  2  3  1  0  0  0  0 
  3 20  1  0  0  0  0 
  3  4  1  0  0  0  0 
  4 22  1  0  0  0  0 
  4  5  1  0  0  0  0 
  4 23  1  0  0  0  0 
  5  6  1  0  0  0  0 
  6 27  1  0  0  0  0 
  6  7  1  0  0  0  0 
  7 28  1  0  0  0  0 
  7  8  1  0  0  0  0 
  8 31  1  0  0  0  0 
  8  9  1  0  0  0  0 
  9 32  1  0  0  0  0 
  9 10  1  0  0  0  0 
 10 35  1  0  0  0  0 
 10 11  1  0  0  0  0 
 11 37  1  0  0  0  0 
 11 12  1  0  0  0  0 
 11 36  1  0  0  0  0 
 12 14  1  0  0  0  0 
 13 12  2  0  0  0  0 
 14 38  1  0  0  0  0 
 15  1  1  0  0  0  0 
 16  1  1  0  0  0  0 
 18  2  1  0  0  0  0 
 21  3  1  0  0  0  0 
 24  5  1  0  0  0  0 
 25  5  1  0  0  0  0 
 26  6  1  0  0  0  0 
 29  7  1  0  0  0  0 
 30  8  1  0  0  0  0 
 33  9  1  0  0  0  0 
 34 10  1  0  0  0  0 
M  END 
>  <HBA> 
2 
 
>  <HBD> 
1 
 
>  <TPSA> 
37.3 
 
>  <cid> 
3893 
 
>  <dipole> 
3.95 
 
>  <excitation_energy_1> 
5.719 
 
>  <excitation_energy_2> 
6.396 
 
>  <excitation_energy_3> 
7.266 
 
>  <excitation_energy_4> 
7.355 
 
>  <homo_energy> 
-7.374 
 
>  <homo_lumo_gap> 
7.663 
 
>  <logP> 
3.992 
 
>  <lumo_energy> 
0.288 
 
>  <melting_point> 
46.61 
 
>  <molecular_refractivity> 
61.57 
 
>  <oscillator_strength_1> 
0.0005 
 
>  <oscillator_strength_2> 
0.0142 
 
>  <oscillator_strength_3> 
0.0149 
 
>  <oscillator_strength_4> 
0.0008 
 
>  <open_babel_can_smiles> 
CCCCCCCCCCCC(=O)O 
 
>  <mulliken_charges> 
38 
1   -0.441299 
2   -0.248155 
3   -0.247373 
4   -0.256556 
5   -0.256332 
6   -0.255076 
7   -0.255254 
8   -0.254579 
9   -0.261358 
10   -0.247688 
11   -0.405535 
12   0.609189 
13   -0.438391 
14   -0.567037 
15   0.140682 
16   0.14143 
17   0.140295 
18   0.135785 
19   0.128136 
20   0.125007 
21   0.126183 
22   0.123652 
23   0.131571 
24   0.126421 
25   0.131947 
26   0.127945 
27   0.124586 
28   0.130333 
29   0.131205 
30   0.134251 
31   0.123835 
32   0.119278 
33   0.158651 
34   0.16057 
35   0.130207 
36   0.17181 
37   0.153673 
38   0.407991 
 
>  <lowdin_charges> 
38 
1   -0.440901 
2   -0.270907 
3   -0.271334 
4   -0.27684 
5   -0.276525 
6   -0.270904 
7   -0.272583 
8   -0.268786 
9   -0.274775 
10   -0.266875 
11   -0.322935 
12   0.196904 
13   -0.238744 
14   -0.361539 
15   0.148876 
16   0.144672 
17   0.143547 
18   0.138157 
19   0.135817 
20   0.136963 
21   0.135515 
22   0.134154 
23   0.141864 
24   0.135616 
25   0.142257 
26   0.138464 
27   0.134635 
28   0.135858 
29   0.137747 
30   0.139049 
31   0.133579 
32   0.131078 
33   0.151139 
34   0.15559 
35   0.141858 
36   0.168385 
37   0.153325 
38   0.358597 
 
$$$$ 
 
