PCCDB-ID:  31 
public computational chemistry database (PCCDB) project, http://pccdb.org 
 
 26 25  0  0  1  0  0  0  0  0999 V2000 
    2.2434   -2.0063    0.3457 C   0  0  0  0  0  0  0  0  0  0  0  0 
    3.8942    0.5036    0.6041 C   0  0  0  0  0  0  0  0  0  0  0  0 
    0.2067   -0.7113    1.0881 C   0  0  0  0  0  0  0  0  0  0  0  0 
    2.4289    0.4743    1.0517 C   0  0  2  0  0  0  0  0  0  0  0  0 
    1.5734   -0.6281    0.3801 C   0  0  1  0  0  0  0  0  0  0  0  0 
   -0.6560   -1.4312    0.2030 O   0  0  0  0  0  0  0  0  0  0  0  0 
    1.7989    1.7395    0.7874 O   0  0  0  0  0  0  0  0  0  0  0  0 
    1.3488   -0.1493   -0.9563 O   0  0  0  0  0  0  0  0  0  0  0  0 
    5.9004    2.6519   -0.4526 O   0  0  0  0  0  0  0  0  0  0  0  0 
    3.7486    3.5693    0.3708 O   0  0  0  0  0  0  0  0  0  0  0  0 
    5.8676    3.5945    1.9695 O   0  0  0  0  0  0  0  0  0  0  0  0 
    4.6196    1.4269    1.4312 O   0  0  0  0  0  0  0  0  0  0  0  0 
    5.0847    2.9009    0.9305 P   0  0  0  0  0  0  0  0  0  0  0  0 
    2.5851   -2.3094    1.3428 H   0  0  0  0  0  0  0  0  0  0  0  0 
    3.0977   -2.0064   -0.3358 H   0  0  0  0  0  0  0  0  0  0  0  0 
    1.5255   -2.7524   -0.0084 H   0  0  0  0  0  0  0  0  0  0  0  0 
    3.9740    0.7638   -0.4569 H   0  0  0  0  0  0  0  0  0  0  0  0 
    4.3629   -0.4713    0.7565 H   0  0  0  0  0  0  0  0  0  0  0  0 
   -0.1718    0.3014    1.2709 H   0  0  0  0  0  0  0  0  0  0  0  0 
    0.3111   -1.2309    2.0509 H   0  0  0  0  0  0  0  0  0  0  0  0 
    2.4134    0.3433    2.1394 H   0  0  0  0  0  0  0  0  0  0  0  0 
   -1.5737   -1.2821    0.4733 H   0  0  0  0  0  0  0  0  0  0  0  0 
    1.4659    1.6424   -0.1303 H   0  0  0  0  0  0  0  0  0  0  0  0 
    0.5074   -0.5562   -1.2365 H   0  0  0  0  0  0  0  0  0  0  0  0 
    6.8486    2.7691   -0.2778 H   0  0  0  0  0  0  0  0  0  0  0  0 
    2.9479    3.0578    0.6551 H   0  0  0  0  0  0  0  0  0  0  0  0 
  1  5  1  0  0  0  0 
  1 14  1  0  0  0  0 
  2 18  1  0  0  0  0 
  2  4  1  0  0  0  0 
  2 12  1  0  0  0  0 
  3 19  1  0  0  0  0 
  3 20  1  0  0  0  0 
  4 21  1  1  0  0  0 
  5  8  1  6  0  0  0 
  5  4  1  0  0  0  0 
  5  3  1  0  0  0  0 
  6 22  1  0  0  0  0 
  6  3  1  0  0  0  0 
  7  4  1  0  0  0  0 
  9 25  1  0  0  0  0 
  9 13  1  0  0  0  0 
 10 26  1  0  0  0  0 
 10 13  1  0  0  0  0 
 13 12  1  0  0  0  0 
 13 11  2  0  0  0  0 
 15  1  1  0  0  0  0 
 16  1  1  0  0  0  0 
 17  2  1  0  0  0  0 
 23  7  1  0  0  0  0 
 24  8  1  0  0  0  0 
M  END 
>  <HBA> 
7 
 
>  <HBD> 
5 
 
>  <TPSA> 
137.26 
 
>  <cid> 
31 
 
>  <dipole> 
7.99 
 
>  <excitation_energy_1> 
6.573 
 
>  <excitation_energy_2> 
6.793 
 
>  <excitation_energy_3> 
6.853 
 
>  <excitation_energy_4> 
6.884 
 
>  <homo_energy> 
-7.423 
 
>  <homo_lumo_gap> 
8.294 
 
>  <logP> 
-1.8 
 
>  <lumo_energy> 
0.871 
 
>  <melting_point> 
120.71 
 
>  <molecular_refractivity> 
41.74 
 
>  <oscillator_strength_1> 
0.0062 
 
>  <oscillator_strength_2> 
0.0036 
 
>  <oscillator_strength_3> 
0.0184 
 
>  <oscillator_strength_4> 
0.003 
 
>  <open_babel_can_smiles> 
OC[C@]([C@@H](COP(=O)(O)O)O)(O)C 
 
>  <mulliken_charges> 
26 
1   -0.479496 
2   -0.078355 
3   -0.065956 
4   0.117398 
5   0.271628 
6   -0.637415 
7   -0.662097 
8   -0.674526 
9   -0.657646 
10   -0.681685 
11   -0.534189 
12   -0.532861 
13   1.158318 
14   0.149668 
15   0.168497 
16   0.174755 
17   0.183093 
18   0.164363 
19   0.156404 
20   0.141681 
21   0.162575 
22   0.412516 
23   0.42388 
24   0.421705 
25   0.436905 
26   0.460841 
 
>  <lowdin_charges> 
26 
1   -0.459748 
2   -0.14141 
3   -0.154803 
4   -0.017658 
5   0.097217 
6   -0.469175 
7   -0.452699 
8   -0.465851 
9   -0.573912 
10   -0.581825 
11   -0.578022 
12   -0.400748 
13   1.113778 
14   0.155351 
15   0.163761 
16   0.169563 
17   0.164498 
18   0.161207 
19   0.147621 
20   0.14214 
21   0.157919 
22   0.357834 
23   0.352366 
24   0.354922 
25   0.382267 
26   0.375406 
 
$$$$ 
 
