PCCDB-ID:  1962 
public computational chemistry database (PCCDB) project, http://pccdb.org 
 
 24 25  0  0  1  0  0  0  0  0999 V2000 
    0.6966   -0.9071   -0.9251 C   0  0  0  0  0  0  0  0  0  0  0  0 
    0.0392   -2.0355   -0.4540 C   0  0  0  0  0  0  0  0  0  0  0  0 
   -5.2773   -4.8502    0.5814 C   0  0  0  0  0  0  0  0  0  0  0  0 
   -0.0476    0.0904   -1.5638 C   0  0  0  0  0  0  0  0  0  0  0  0 
   -4.9572   -4.5018    2.0576 C   0  0  0  0  0  0  0  0  0  0  0  0 
   -2.0033   -1.0793   -1.2911 C   0  0  0  0  0  0  0  0  0  0  0  0 
   -3.3627   -3.3993   -0.3095 C   0  0  0  0  0  0  0  0  0  0  0  0 
   -3.7506   -4.7254    0.3297 C   0  0  1  0  0  0  0  0  0  0  0  0 
   -1.3460   -2.1314   -0.6377 C   0  0  0  0  0  0  0  0  0  0  0  0 
   -1.3676    0.0095   -1.7444 N   0  0  0  0  0  0  0  0  0  0  0  0 
   -3.5314   -4.8125    1.7923 N   0  0  0  0  0  0  0  0  0  0  0  0 
   -1.9484   -3.2566   -0.1595 O   0  0  0  0  0  0  0  0  0  0  0  0 
    1.7702   -0.7985   -0.8006 H   0  0  0  0  0  0  0  0  0  0  0  0 
    0.5628   -2.8424    0.0500 H   0  0  0  0  0  0  0  0  0  0  0  0 
   -5.9276   -4.1608    0.0347 H   0  0  0  0  0  0  0  0  0  0  0  0 
   -5.6433   -5.8707    0.4493 H   0  0  0  0  0  0  0  0  0  0  0  0 
    0.4376    0.9871   -1.9443 H   0  0  0  0  0  0  0  0  0  0  0  0 
   -5.4153   -5.1294    2.8309 H   0  0  0  0  0  0  0  0  0  0  0  0 
   -5.1683   -3.4489    2.2974 H   0  0  0  0  0  0  0  0  0  0  0  0 
   -3.0764   -1.1065   -1.4593 H   0  0  0  0  0  0  0  0  0  0  0  0 
   -3.8759   -2.5606    0.1843 H   0  0  0  0  0  0  0  0  0  0  0  0 
   -3.6363   -3.3907   -1.3749 H   0  0  0  0  0  0  0  0  0  0  0  0 
   -3.2698   -5.5403   -0.2265 H   0  0  0  0  0  0  0  0  0  0  0  0 
   -2.8451   -4.1554    2.1597 H   0  0  0  0  0  0  0  0  0  0  0  0 
  1 13  1  0  0  0  0 
  1  2  2  0  0  0  0 
  2 14  1  0  0  0  0 
  3  5  1  0  0  0  0 
  4  1  1  0  0  0  0 
  5 19  1  0  0  0  0 
  5 18  1  0  0  0  0 
  6  9  2  0  0  0  0 
  7 12  1  0  0  0  0 
  7 21  1  0  0  0  0 
  7  8  1  0  0  0  0 
  8 23  1  6  0  0  0 
  8  3  1  0  0  0  0 
  8 11  1  0  0  0  0 
  9  2  1  0  0  0  0 
  9 12  1  0  0  0  0 
 10  4  2  0  0  0  0 
 10  6  1  0  0  0  0 
 11  5  1  0  0  0  0 
 11 24  1  0  0  0  0 
 15  3  1  0  0  0  0 
 16  3  1  0  0  0  0 
 17  4  1  0  0  0  0 
 20  6  1  0  0  0  0 
 22  7  1  0  0  0  0 
M  END 
>  <HBA> 
3 
 
>  <HBD> 
1 
 
>  <TPSA> 
34.15 
 
>  <cid> 
1962 
 
>  <dipole> 
0.95 
 
>  <excitation_energy_1> 
4.813 
 
>  <excitation_energy_2> 
4.91 
 
>  <excitation_energy_3> 
4.989 
 
>  <excitation_energy_4> 
5.465 
 
>  <homo_energy> 
-6.144 
 
>  <homo_lumo_gap> 
5.551 
 
>  <logP> 
1.151 
 
>  <lumo_energy> 
-0.593 
 
>  <melting_point> 
71.69 
 
>  <molecular_refractivity> 
49.75 
 
>  <oscillator_strength_1> 
0.0027 
 
>  <oscillator_strength_2> 
0.0101 
 
>  <oscillator_strength_3> 
0.0658 
 
>  <oscillator_strength_4> 
0.0002 
 
>  <open_babel_can_smiles> 
C1C[C@H](N1)COc1cccnc1 
 
>  <mulliken_charges> 
24 
1   -0.139859 
2   -0.148017 
3   -0.32058 
4   0.028497 
5   -0.124692 
6   -0.022821 
7   -0.052994 
8   0.029426 
9   0.369239 
10   -0.413335 
11   -0.554654 
12   -0.52773 
13   0.138648 
14   0.151438 
15   0.143133 
16   0.159915 
17   0.139209 
18   0.145192 
19   0.127658 
20   0.143196 
21   0.139745 
22   0.146058 
23   0.142641 
24   0.300689 
 
>  <lowdin_charges> 
24 
1   -0.163167 
2   -0.157083 
3   -0.292267 
4   -0.110879 
5   -0.198319 
6   -0.145836 
7   -0.141554 
8   -0.06608 
9   0.082512 
10   -0.139442 
11   -0.375374 
12   -0.202476 
13   0.163309 
14   0.172504 
15   0.148854 
16   0.158696 
17   0.156688 
18   0.144299 
19   0.127411 
20   0.15715 
21   0.140205 
22   0.143189 
23   0.144359 
24   0.253301 
 
$$$$ 
 
