PCCDB-ID:  1094 
public computational chemistry database (PCCDB) project, http://pccdb.org 
 
 22 22  0  0  1  0  0  0  0  0999 V2000 
   -0.3498   -1.3534   -0.0862 C   0  0  0  0  0  0  0  0  0  0  0  0 
   -1.0174    1.0451    0.1013 C   0  0  0  0  0  0  0  0  0  0  0  0 
   -1.3205   -0.4311   -0.0004 C   0  0  0  0  0  0  0  0  0  0  0  0 
    1.1272   -1.0342   -0.1011 C   0  0  1  0  0  0  0  0  0  0  0  0 
    0.4268    1.3923   -0.2780 C   0  0  1  0  0  0  0  0  0  0  0  0 
    1.4108    0.4034    0.3605 C   0  0  1  0  0  0  0  0  0  0  0  0 
   -2.7751   -0.7870   -0.0698 C   0  0  0  0  0  0  0  0  0  0  0  0 
    1.8600   -1.9630    0.6855 O   0  0  0  0  0  0  0  0  0  0  0  0 
    0.6681    1.3050   -1.6802 O   0  0  0  0  0  0  0  0  0  0  0  0 
    1.2652    0.4017    1.7872 O   0  0  0  0  0  0  0  0  0  0  0  0 
   -3.6210   -0.0114   -0.4541 O   0  0  0  0  0  0  0  0  0  0  0  0 
   -3.1286   -2.0427    0.3130 O   0  0  0  0  0  0  0  0  0  0  0  0 
   -0.5751   -2.4129   -0.2039 H   0  0  0  0  0  0  0  0  0  0  0  0 
   -1.2034    1.3793    1.1309 H   0  0  0  0  0  0  0  0  0  0  0  0 
   -1.7257    1.6010   -0.5250 H   0  0  0  0  0  0  0  0  0  0  0  0 
    1.4919   -1.1412   -1.1290 H   0  0  0  0  0  0  0  0  0  0  0  0 
    0.6548    2.4086    0.0861 H   0  0  0  0  0  0  0  0  0  0  0  0 
    2.4387    0.6641    0.0794 H   0  0  0  0  0  0  0  0  0  0  0  0 
    1.7701   -1.6390    1.6000 H   0  0  0  0  0  0  0  0  0  0  0  0 
   -0.0158    1.8185   -2.1371 H   0  0  0  0  0  0  0  0  0  0  0  0 
    1.7891    1.1306    2.1506 H   0  0  0  0  0  0  0  0  0  0  0  0 
   -2.3669   -2.4814    0.7264 H   0  0  0  0  0  0  0  0  0  0  0  0 
  1  3  2  0  0  0  0 
  2 14  1  0  0  0  0 
  3  2  1  0  0  0  0 
  4 16  1  6  0  0  0 
  4  1  1  0  0  0  0 
  4  6  1  0  0  0  0 
  4  8  1  0  0  0  0 
  5 17  1  1  0  0  0 
  5  2  1  0  0  0  0 
  5  6  1  0  0  0  0 
  6 18  1  6  0  0  0 
  6 10  1  0  0  0  0 
  7  3  1  0  0  0  0 
  7 12  1  0  0  0  0 
  8 19  1  0  0  0  0 
  9  5  1  0  0  0  0 
 10 21  1  0  0  0  0 
 11  7  2  0  0  0  0 
 12 22  1  0  0  0  0 
 13  1  1  0  0  0  0 
 15  2  1  0  0  0  0 
 20  9  1  0  0  0  0 
M  END 
>  <HBA> 
5 
 
>  <HBD> 
4 
 
>  <TPSA> 
97.99 
 
>  <cid> 
1094 
 
>  <dipole> 
4.32 
 
>  <excitation_energy_1> 
4.68 
 
>  <excitation_energy_2> 
5.382 
 
>  <excitation_energy_3> 
5.771 
 
>  <excitation_energy_4> 
5.893 
 
>  <homo_energy> 
-7.17 
 
>  <homo_lumo_gap> 
5.984 
 
>  <logP> 
-1.516 
 
>  <lumo_energy> 
-1.186 
 
>  <melting_point> 
141.57 
 
>  <molecular_refractivity> 
38.43 
 
>  <oscillator_strength_1> 
0.0001 
 
>  <oscillator_strength_2> 
0.0771 
 
>  <oscillator_strength_3> 
0.0034 
 
>  <oscillator_strength_4> 
0.1451 
 
>  <open_babel_can_smiles> 
O[C@H]1CC(=C[C@@H]([C@@H]1O)O)C(=O)O 
 
>  <mulliken_charges> 
22 
1   -0.205296 
2   -0.347497 
3   0.090742 
4   0.118345 
5   0.11047 
6   0.068727 
7   0.551931 
8   -0.63985 
9   -0.627877 
10   -0.643598 
11   -0.451977 
12   -0.57075 
13   0.140666 
14   0.169525 
15   0.172799 
16   0.1782 
17   0.112615 
18   0.14691 
19   0.40535 
20   0.400918 
21   0.408198 
22   0.411452 
 
>  <lowdin_charges> 
22 
1   -0.165504 
2   -0.291392 
3   -0.054954 
4   -0.009672 
5   -0.01366 
6   -0.024043 
7   0.195484 
8   -0.45475 
9   -0.464402 
10   -0.465372 
11   -0.246253 
12   -0.356534 
13   0.159504 
14   0.167774 
15   0.17033 
16   0.168286 
17   0.126375 
18   0.146877 
19   0.344222 
20   0.351632 
21   0.356583 
22   0.359467 
 
$$$$ 
 
