PCCDB-ID:  4573 
public computational chemistry database (PCCDB) project, http://pccdb.org 
 
 27 27  0  0  1  0  0  0  0  0999 V2000 
   -2.6656    2.0529    3.1930 C   0  0  0  0  0  0  0  0  0  0  0  0 
   -2.5035    0.6683    3.1370 C   0  0  0  0  0  0  0  0  0  0  0  0 
   -2.0450    2.8606    2.2368 C   0  0  0  0  0  0  0  0  0  0  0  0 
   -1.7262    0.0959    2.1282 C   0  0  0  0  0  0  0  0  0  0  0  0 
   -1.2610    2.2879    1.2360 C   0  0  0  0  0  0  0  0  0  0  0  0 
   -0.2080    0.2783    0.1189 C   0  0  0  0  0  0  0  0  0  0  0  0 
    0.4419    0.4555   -2.1506 C   0  0  0  0  0  0  0  0  0  0  0  0 
   -1.0934    0.8986    1.1737 C   0  0  0  0  0  0  0  0  0  0  0  0 
    0.1295    1.2616   -3.4084 C   0  0  1  0  0  0  0  0  0  0  0  0 
    1.0781    0.8839   -4.5630 C   0  0  0  0  0  0  0  0  0  0  0  0 
   -1.2626    1.1771   -3.8790 N   0  0  0  0  0  0  0  0  0  0  0  0 
    2.2265    0.5449   -4.3951 O   0  0  0  0  0  0  0  0  0  0  0  0 
    0.5116    0.9976   -5.7734 O   0  0  0  0  0  0  0  0  0  0  0  0 
   -0.4098    0.9349   -1.1255 O   0  0  0  0  0  0  0  0  0  0  0  0 
   -3.2741    2.5005    3.9742 H   0  0  0  0  0  0  0  0  0  0  0  0 
   -2.9886    0.0314    3.8719 H   0  0  0  0  0  0  0  0  0  0  0  0 
   -2.1704    3.9397    2.2722 H   0  0  0  0  0  0  0  0  0  0  0  0 
   -1.6109   -0.9850    2.0833 H   0  0  0  0  0  0  0  0  0  0  0  0 
   -0.7816    2.9133    0.4892 H   0  0  0  0  0  0  0  0  0  0  0  0 
   -0.4248   -0.7983    0.0233 H   0  0  0  0  0  0  0  0  0  0  0  0 
    0.8538    0.3647    0.4090 H   0  0  0  0  0  0  0  0  0  0  0  0 
    1.5019    0.5710   -1.8864 H   0  0  0  0  0  0  0  0  0  0  0  0 
    0.2625   -0.6188   -2.3346 H   0  0  0  0  0  0  0  0  0  0  0  0 
    0.3240    2.3188   -3.1841 H   0  0  0  0  0  0  0  0  0  0  0  0 
   -1.5931    0.2138   -3.8084 H   0  0  0  0  0  0  0  0  0  0  0  0 
   -1.8655    1.7253   -3.2697 H   0  0  0  0  0  0  0  0  0  0  0  0 
   -0.4288    1.2505   -5.5940 H   0  0  0  0  0  0  0  0  0  0  0  0 
  1 15  1  0  0  0  0 
  2  1  1  0  0  0  0 
  2 16  1  0  0  0  0 
  3 17  1  0  0  0  0 
  3  1  2  0  0  0  0 
  4  2  2  0  0  0  0 
  5  3  1  0  0  0  0 
  6 21  1  0  0  0  0 
  6  8  1  0  0  0  0 
  7 22  1  0  0  0  0 
  7 14  1  0  0  0  0 
  8  5  2  0  0  0  0 
  8  4  1  0  0  0  0 
  9 24  1  1  0  0  0 
  9  7  1  0  0  0  0 
 10 12  2  0  0  0  0 
 10  9  1  0  0  0  0 
 11 25  1  0  0  0  0 
 11  9  1  0  0  0  0 
 11 26  1  0  0  0  0 
 13 27  1  0  0  0  0 
 13 10  1  0  0  0  0 
 14  6  1  0  0  0  0 
 18  4  1  0  0  0  0 
 19  5  1  0  0  0  0 
 20  6  1  0  0  0  0 
 23  7  1  0  0  0  0 
M  END 
>  <HBA> 
4 
 
>  <HBD> 
2 
 
>  <TPSA> 
72.55 
 
>  <cid> 
4573 
 
>  <dipole> 
4.73 
 
>  <excitation_energy_1> 
5.295 
 
>  <excitation_energy_2> 
5.494 
 
>  <excitation_energy_3> 
5.847 
 
>  <excitation_energy_4> 
5.97 
 
>  <homo_energy> 
-6.746 
 
>  <homo_lumo_gap> 
6.512 
 
>  <logP> 
1.315 
 
>  <lumo_energy> 
-0.234 
 
>  <melting_point> 
127.62 
 
>  <molecular_refractivity> 
51.39 
 
>  <oscillator_strength_1> 
0.0002 
 
>  <oscillator_strength_2> 
0.0013 
 
>  <oscillator_strength_3> 
0.0372 
 
>  <oscillator_strength_4> 
0.0004 
 
>  <open_babel_can_smiles> 
N[C@H](C(=O)O)COCc1ccccc1 
 
>  <mulliken_charges> 
27 
1   -0.127282 
2   -0.128536 
3   -0.132171 
4   -0.182291 
5   -0.161824 
6   -0.081912 
7   -0.00511 
8   0.132407 
9   -0.120653 
10   0.614136 
11   -0.759679 
12   -0.465949 
13   -0.58034 
14   -0.493869 
15   0.131256 
16   0.131672 
17   0.131596 
18   0.125126 
19   0.136119 
20   0.130607 
21   0.144228 
22   0.161453 
23   0.12333 
24   0.188558 
25   0.319476 
26   0.336833 
27   0.432821 
 
>  <lowdin_charges> 
27 
1   -0.157368 
2   -0.155935 
3   -0.151684 
4   -0.163279 
5   -0.157577 
6   -0.119702 
7   -0.137199 
8   -0.014697 
9   -0.113455 
10   0.172656 
11   -0.541705 
12   -0.254491 
13   -0.349279 
14   -0.278275 
15   0.159565 
16   0.160035 
17   0.1564 
18   0.153254 
19   0.163416 
20   0.132865 
21   0.139167 
22   0.151402 
23   0.127989 
24   0.171913 
25   0.265651 
26   0.280417 
27   0.359918 
 
$$$$ 
 
