PCCDB-ID:  5778 
public computational chemistry database (PCCDB) project, http://pccdb.org 
 
 17 18  0  0  0  0  0  0  0  0999 V2000 
    4.1425    0.5447   -1.0033 C   0  0  0  0  0  0  0  0  0  0  0  0 
    3.4675    4.0031    1.5124 C   0  0  0  0  0  0  0  0  0  0  0  0 
    3.7784    0.5595    4.1570 C   0  0  0  0  0  0  0  0  0  0  0  0 
    3.7468    1.9159    1.8477 C   0  0  0  0  0  0  0  0  0  0  0  0 
    3.5678    2.4955    3.1239 C   0  0  0  0  0  0  0  0  0  0  0  0 
    3.9493    0.5226    1.8493 C   0  0  0  0  0  0  0  0  0  0  0  0 
    3.6785    2.8890    0.8594 N   0  0  0  0  0  0  0  0  0  0  0  0 
    3.3896    3.8377    2.8784 N   0  0  0  0  0  0  0  0  0  0  0  0 
    3.5743    1.8741    4.3014 N   0  0  0  0  0  0  0  0  0  0  0  0 
    3.9606   -0.1288    3.0226 N   0  0  0  0  0  0  0  0  0  0  0  0 
    4.2052   -0.5433    0.4666 S   0  0  0  0  0  0  0  0  0  0  0  0 
    4.2937   -0.1291   -1.8512 H   0  0  0  0  0  0  0  0  0  0  0  0 
    4.9332    1.2947   -0.9826 H   0  0  0  0  0  0  0  0  0  0  0  0 
    3.1763    1.0409   -1.0949 H   0  0  0  0  0  0  0  0  0  0  0  0 
    3.3580    4.9782    1.0553 H   0  0  0  0  0  0  0  0  0  0  0  0 
    3.7999   -0.0269    5.0725 H   0  0  0  0  0  0  0  0  0  0  0  0 
    3.2340    4.5486    3.5792 H   0  0  0  0  0  0  0  0  0  0  0  0 
  1 13  1  0  0  0  0 
  1 11  1  0  0  0  0 
  2  8  1  0  0  0  0 
  3  9  2  0  0  0  0 
  3 16  1  0  0  0  0 
  4  6  1  0  0  0  0 
  4  5  2  0  0  0  0 
  5  9  1  0  0  0  0 
  6 10  2  0  0  0  0 
  7  2  2  0  0  0  0 
  7  4  1  0  0  0  0 
  8  5  1  0  0  0  0 
  8 17  1  0  0  0  0 
 10  3  1  0  0  0  0 
 11  6  1  0  0  0  0 
 12  1  1  0  0  0  0 
 14  1  1  0  0  0  0 
 15  2  1  0  0  0  0 
M  END 
>  <HBA> 
4 
 
>  <HBD> 
1 
 
>  <TPSA> 
79.76 
 
>  <cid> 
5778 
 
>  <dipole> 
4.5 
 
>  <excitation_energy_1> 
4.456 
 
>  <excitation_energy_2> 
4.478 
 
>  <excitation_energy_3> 
4.918 
 
>  <excitation_energy_4> 
5.288 
 
>  <homo_energy> 
-6.068 
 
>  <homo_lumo_gap> 
4.92 
 
>  <logP> 
1.075 
 
>  <lumo_energy> 
-1.148 
 
>  <melting_point> 
155.26 
 
>  <molecular_refractivity> 
43.4 
 
>  <oscillator_strength_1> 
0.2775 
 
>  <oscillator_strength_2> 
0.0019 
 
>  <oscillator_strength_3> 
0.0107 
 
>  <oscillator_strength_4> 
0.0037 
 
>  <open_babel_can_smiles> 
CSc1ncnc2c1nc[nH]2 
 
>  <mulliken_charges> 
17 
1   -0.593988 
2   0.237533 
3   0.160898 
4   0.227479 
5   0.521608 
6   0.077891 
7   -0.507088 
8   -0.643458 
9   -0.482785 
10   -0.443534 
11   0.181108 
12   0.181061 
13   0.203826 
14   0.203656 
15   0.173126 
16   0.154967 
17   0.347699 
 
>  <lowdin_charges> 
17 
1   -0.548327 
2   -0.048926 
3   -0.03558 
4   -0.040504 
5   0.069825 
6   -0.04546 
7   -0.184206 
8   -0.194302 
9   -0.185299 
10   -0.181804 
11   0.214654 
12   0.176308 
13   0.17906 
14   0.178284 
15   0.174921 
16   0.163947 
17   0.307408 
 
$$$$ 
 
