PCCDB-ID:  470 
public computational chemistry database (PCCDB) project, http://pccdb.org 
 
 18 17  0  0  1  0  0  0  0  0999 V2000 
    0.9073   -0.1025    0.1919 C   0  0  0  0  0  0  0  0  0  0  0  0 
    0.0501    0.1986    1.4258 C   0  0  0  0  0  0  0  0  0  0  0  0 
    2.4381   -0.1399    0.4468 C   0  0  1  0  0  0  0  0  0  0  0  0 
    2.9740   -1.5605    0.7640 C   0  0  0  0  0  0  0  0  0  0  0  0 
    0.1262   -0.8878    2.4263 N   0  0  0  0  0  0  0  0  0  0  0  0 
    3.1331    0.4754   -0.6839 N   0  0  0  0  0  0  0  0  0  0  0  0 
    3.8608   -2.0646    0.1075 O   0  0  0  0  0  0  0  0  0  0  0  0 
    2.4300   -2.1904    1.8111 O   0  0  0  0  0  0  0  0  0  0  0  0 
    0.7343    0.6978   -0.5359 H   0  0  0  0  0  0  0  0  0  0  0  0 
    0.5685   -1.0363   -0.2792 H   0  0  0  0  0  0  0  0  0  0  0  0 
   -0.9854    0.4003    1.1143 H   0  0  0  0  0  0  0  0  0  0  0  0 
    0.4239    1.1109    1.9042 H   0  0  0  0  0  0  0  0  0  0  0  0 
    2.6487    0.4800    1.3315 H   0  0  0  0  0  0  0  0  0  0  0  0 
   -0.4883   -1.6564    2.1584 H   0  0  0  0  0  0  0  0  0  0  0  0 
   -0.1915   -0.5672    3.3388 H   0  0  0  0  0  0  0  0  0  0  0  0 
    2.9933   -0.1262   -1.4980 H   0  0  0  0  0  0  0  0  0  0  0  0 
    4.1359    0.3997   -0.5097 H   0  0  0  0  0  0  0  0  0  0  0  0 
    1.6697   -1.6582    2.1969 H   0  0  0  0  0  0  0  0  0  0  0  0 
  1  3  1  0  0  0  0 
  1  2  1  0  0  0  0 
  2 12  1  0  0  0  0 
  2  5  1  0  0  0  0 
  3  4  1  0  0  0  0 
  3 13  1  1  0  0  0 
  4  8  1  0  0  0  0 
  5 15  1  0  0  0  0 
  6 17  1  0  0  0  0 
  6  3  1  0  0  0  0 
  7  4  2  0  0  0  0 
  8 18  1  0  0  0  0 
  9  1  1  0  0  0  0 
 10  1  1  0  0  0  0 
 11  2  1  0  0  0  0 
 14  5  1  0  0  0  0 
 16  6  1  0  0  0  0 
M  END 
>  <HBA> 
4 
 
>  <HBD> 
3 
 
>  <TPSA> 
89.34 
 
>  <cid> 
470 
 
>  <dipole> 
5.96 
 
>  <excitation_energy_1> 
5.587 
 
>  <excitation_energy_2> 
5.759 
 
>  <excitation_energy_3> 
6.023 
 
>  <excitation_energy_4> 
6.126 
 
>  <homo_energy> 
-6.436 
 
>  <homo_lumo_gap> 
7.282 
 
>  <logP> 
0.148 
 
>  <lumo_energy> 
0.846 
 
>  <melting_point> 
160.42 
 
>  <molecular_refractivity> 
28.53 
 
>  <oscillator_strength_1> 
0.001 
 
>  <oscillator_strength_2> 
0.0002 
 
>  <oscillator_strength_3> 
0.0049 
 
>  <oscillator_strength_4> 
0.0051 
 
>  <open_babel_can_smiles> 
N[C@H](C(=O)O)CCN 
 
>  <mulliken_charges> 
18 
1   -0.2816 
2   -0.149404 
3   -0.088187 
4   0.561319 
5   -0.765435 
6   -0.699061 
7   -0.471584 
8   -0.607008 
9   0.173989 
10   0.146785 
11   0.143856 
12   0.161138 
13   0.152089 
14   0.329003 
15   0.327976 
16   0.300375 
17   0.308994 
18   0.456756 
 
>  <lowdin_charges> 
18 
1   -0.291439 
2   -0.205194 
3   -0.114069 
4   0.162262 
5   -0.533025 
6   -0.534303 
7   -0.274956 
8   -0.382719 
9   0.169269 
10   0.148004 
11   0.137726 
12   0.152208 
13   0.152251 
14   0.272466 
15   0.272795 
16   0.257668 
17   0.260041 
18   0.351014 
 
$$$$ 
 
