PCCDB-ID:  6341 
public computational chemistry database (PCCDB) project, http://pccdb.org 
 
 10  9  0  0  0  0  0  0  0  0999 V2000 
    0.9418    0.0018   -0.0775 C   0  0  0  0  0  0  0  0  0  0  0  0 
    2.4688   -0.0194   -0.0698 C   0  0  0  0  0  0  0  0  0  0  0  0 
    2.9694   -1.1138   -0.9114 N   0  0  0  0  0  0  0  0  0  0  0  0 
    0.5575    0.8469    0.5049 H   0  0  0  0  0  0  0  0  0  0  0  0 
    0.5331   -0.9174    0.3621 H   0  0  0  0  0  0  0  0  0  0  0  0 
    0.5670    0.0796   -1.1030 H   0  0  0  0  0  0  0  0  0  0  0  0 
    2.8259   -0.0589    0.9761 H   0  0  0  0  0  0  0  0  0  0  0  0 
    2.8472    0.9200   -0.4921 H   0  0  0  0  0  0  0  0  0  0  0  0 
    2.6976   -2.0068   -0.5001 H   0  0  0  0  0  0  0  0  0  0  0  0 
    3.9885   -1.1081   -0.9148 H   0  0  0  0  0  0  0  0  0  0  0  0 
  1  2  1  0  0  0  0 
  1  5  1  0  0  0  0 
  1  4  1  0  0  0  0 
  2  7  1  0  0  0  0 
  3  9  1  0  0  0  0 
  3  2  1  0  0  0  0 
  6  1  1  0  0  0  0 
  8  2  1  0  0  0  0 
 10  3  1  0  0  0  0 
M  END 
>  <HBA> 
1 
 
>  <HBD> 
1 
 
>  <TPSA> 
26.02 
 
>  <cid> 
6341 
 
>  <dipole> 
1.4 
 
>  <excitation_energy_1> 
5.631 
 
>  <excitation_energy_2> 
6.59 
 
>  <excitation_energy_3> 
6.653 
 
>  <excitation_energy_4> 
7.028 
 
>  <homo_energy> 
-6.229 
 
>  <homo_lumo_gap> 
8.498 
 
>  <logP> 
0.665 
 
>  <lumo_energy> 
2.269 
 
>  <melting_point> 
30.34 
 
>  <molecular_refractivity> 
14.44 
 
>  <oscillator_strength_1> 
0.0108 
 
>  <oscillator_strength_2> 
0.0178 
 
>  <oscillator_strength_3> 
0.0254 
 
>  <oscillator_strength_4> 
0.0649 
 
>  <open_babel_can_smiles> 
CCN 
 
>  <mulliken_charges> 
10 
1   -0.43369 
2   -0.127675 
3   -0.708652 
4   0.139739 
5   0.135724 
6   0.159822 
7   0.111492 
8   0.140434 
9   0.289359 
10   0.293448 
 
>  <lowdin_charges> 
10 
1   -0.448576 
2   -0.199394 
3   -0.558066 
4   0.15072 
5   0.14402 
6   0.155766 
7   0.113794 
8   0.141458 
9   0.24979 
10   0.250489 
 
$$$$ 
 
