PCCDB-ID:  581 
public computational chemistry database (PCCDB) project, http://pccdb.org 
 
 19 18  0  0  1  0  0  0  0  0999 V2000 
    5.1935   -2.2790   -1.8836 C   0  0  0  0  0  0  0  0  0  0  0  0 
    0.8106   -2.3401   -2.5446 C   0  0  0  0  0  0  0  0  0  0  0  0 
    4.2932   -3.2670   -2.5911 C   0  0  0  0  0  0  0  0  0  0  0  0 
    2.1969   -2.3983   -1.8685 C   0  0  1  0  0  0  0  0  0  0  0  0 
    2.1768   -2.7459   -0.3600 C   0  0  0  0  0  0  0  0  0  0  0  0 
    3.0242   -3.3522   -2.5942 N   0  0  0  0  0  0  0  0  0  0  0  0 
    4.9432   -4.1921   -3.3514 O   0  0  0  0  0  0  0  0  0  0  0  0 
    2.8831   -2.1515    0.4250 O   0  0  0  0  0  0  0  0  0  0  0  0 
    1.3899   -3.7536    0.0409 O   0  0  0  0  0  0  0  0  0  0  0  0 
    0.0015   -3.9840   -2.7701 S   0  0  0  0  0  0  0  0  0  0  0  0 
    5.9628   -2.8192   -1.3177 H   0  0  0  0  0  0  0  0  0  0  0  0 
    4.6485   -1.6577   -1.1736 H   0  0  0  0  0  0  0  0  0  0  0  0 
    5.7040   -1.6427   -2.6181 H   0  0  0  0  0  0  0  0  0  0  0  0 
    0.9188   -1.8745   -3.5275 H   0  0  0  0  0  0  0  0  0  0  0  0 
    0.1160   -1.7339   -1.9555 H   0  0  0  0  0  0  0  0  0  0  0  0 
    2.5977   -1.3770   -1.9073 H   0  0  0  0  0  0  0  0  0  0  0  0 
    5.9004   -4.0732   -3.2521 H   0  0  0  0  0  0  0  0  0  0  0  0 
    0.8759   -4.1164   -0.7193 H   0  0  0  0  0  0  0  0  0  0  0  0 
    1.1025   -4.5537   -3.3111 H   0  0  0  0  0  0  0  0  0  0  0  0 
  1 11  1  0  0  0  0 
  1 12  1  0  0  0  0 
  2 15  1  0  0  0  0 
  2  4  1  0  0  0  0 
  3  1  1  0  0  0  0 
  4 16  1  6  0  0  0 
  4  5  1  0  0  0  0 
  5  9  1  0  0  0  0 
  5  8  2  0  0  0  0 
  6  3  2  0  0  0  0 
  6  4  1  0  0  0  0 
  7 17  1  0  0  0  0 
  7  3  1  0  0  0  0 
 10  2  1  0  0  0  0 
 13  1  1  0  0  0  0 
 14  2  1  0  0  0  0 
 18  9  1  0  0  0  0 
 19 10  1  0  0  0  0 
M  END 
>  <HBA> 
5 
 
>  <HBD> 
3 
 
>  <TPSA> 
105.2 
 
>  <cid> 
581 
 
>  <dipole> 
4.33 
 
>  <excitation_energy_1> 
5.324 
 
>  <excitation_energy_2> 
5.672 
 
>  <excitation_energy_3> 
5.707 
 
>  <excitation_energy_4> 
5.833 
 
>  <homo_energy> 
-6.806 
 
>  <homo_lumo_gap> 
6.547 
 
>  <logP> 
-0.104 
 
>  <lumo_energy> 
-0.259 
 
>  <melting_point> 
120.09 
 
>  <molecular_refractivity> 
38.85 
 
>  <oscillator_strength_1> 
0.0284 
 
>  <oscillator_strength_2> 
0.0019 
 
>  <oscillator_strength_3> 
0.0059 
 
>  <oscillator_strength_4> 
0.0107 
 
>  <open_babel_can_smiles> 
SC[C@@H](C(=O)O)/N=C(/O)\C 
 
>  <mulliken_charges> 
19 
1   -0.571566 
2   -0.427522 
3   0.509014 
4   -0.097179 
5   0.608834 
6   -0.436257 
7   -0.56945 
8   -0.460025 
9   -0.569219 
10   -0.127479 
11   0.178724 
12   0.222292 
13   0.177224 
14   0.196174 
15   0.191528 
16   0.162655 
17   0.412687 
18   0.433449 
19   0.166118 
 
>  <lowdin_charges> 
19 
1   -0.49213 
2   -0.38097 
3   0.147414 
4   -0.101688 
5   0.185394 
6   -0.224225 
7   -0.353187 
8   -0.261409 
9   -0.34828 
10   -0.07504 
11   0.175394 
12   0.194436 
13   0.172986 
14   0.172591 
15   0.176188 
16   0.157549 
17   0.357798 
18   0.346466 
19   0.150713 
 
$$$$ 
 
