PCCDB-ID:  4771 
public computational chemistry database (PCCDB) project, http://pccdb.org 
 
 26 26  0  0  0  0  0  0  0  0999 V2000 
    0.5892    0.6233    0.2738 C   0  0  0  0  0  0  0  0  0  0  0  0 
    2.8325    1.3300    1.1755 C   0  0  0  0  0  0  0  0  0  0  0  0 
    1.1412   -2.3795    4.6253 C   0  0  0  0  0  0  0  0  0  0  0  0 
    0.2816   -2.5243    3.5351 C   0  0  0  0  0  0  0  0  0  0  0  0 
    2.4123   -1.8372    4.4292 C   0  0  0  0  0  0  0  0  0  0  0  0 
    0.6910   -2.1244    2.2623 C   0  0  0  0  0  0  0  0  0  0  0  0 
    2.8156   -1.4391    3.1539 C   0  0  0  0  0  0  0  0  0  0  0  0 
    2.4055   -1.1349    0.6674 C   0  0  0  0  0  0  0  0  0  0  0  0 
    1.9609   -1.5679    2.0489 C   0  0  0  0  0  0  0  0  0  0  0  0 
    2.1038    0.3382    0.2576 C   0  0  0  0  0  0  0  0  0  0  0  0 
    2.6866    0.4929   -1.0942 N   0  0  0  0  0  0  0  0  0  0  0  0 
    0.1575    0.5095    1.2742 H   0  0  0  0  0  0  0  0  0  0  0  0 
    0.0555   -0.0579   -0.4021 H   0  0  0  0  0  0  0  0  0  0  0  0 
    0.3929    1.6491   -0.0628 H   0  0  0  0  0  0  0  0  0  0  0  0 
    2.4885    1.2437    2.2105 H   0  0  0  0  0  0  0  0  0  0  0  0 
    2.6476    2.3612    0.8473 H   0  0  0  0  0  0  0  0  0  0  0  0 
    3.9134    1.1572    1.1451 H   0  0  0  0  0  0  0  0  0  0  0  0 
    0.8262   -2.6932    5.6170 H   0  0  0  0  0  0  0  0  0  0  0  0 
   -0.7068   -2.9551    3.6734 H   0  0  0  0  0  0  0  0  0  0  0  0 
    3.0947   -1.7296    5.2686 H   0  0  0  0  0  0  0  0  0  0  0  0 
    0.0178   -2.2537    1.4178 H   0  0  0  0  0  0  0  0  0  0  0  0 
    3.8127   -1.0300    3.0092 H   0  0  0  0  0  0  0  0  0  0  0  0 
    1.9326   -1.7880   -0.0799 H   0  0  0  0  0  0  0  0  0  0  0  0 
    3.4869   -1.2767    0.5616 H   0  0  0  0  0  0  0  0  0  0  0  0 
    2.5273    1.4487   -1.4159 H   0  0  0  0  0  0  0  0  0  0  0  0 
    2.1786   -0.1039   -1.7491 H   0  0  0  0  0  0  0  0  0  0  0  0 
  1 12  1  0  0  0  0 
  2 15  1  0  0  0  0 
  3 18  1  0  0  0  0 
  4 19  1  0  0  0  0 
  4  3  2  0  0  0  0 
  5  3  1  0  0  0  0 
  5 20  1  0  0  0  0 
  6  4  1  0  0  0  0 
  7  5  2  0  0  0  0 
  8  9  1  0  0  0  0 
  9  6  2  0  0  0  0 
  9  7  1  0  0  0  0 
 10  1  1  0  0  0  0 
 10  8  1  0  0  0  0 
 10  2  1  0  0  0  0 
 11 10  1  0  0  0  0 
 13  1  1  0  0  0  0 
 14  1  1  0  0  0  0 
 16  2  1  0  0  0  0 
 17  2  1  0  0  0  0 
 21  6  1  0  0  0  0 
 22  7  1  0  0  0  0 
 23  8  1  0  0  0  0 
 24  8  1  0  0  0  0 
 25 11  1  0  0  0  0 
 26 11  1  0  0  0  0 
M  END 
>  <HBA> 
1 
 
>  <HBD> 
1 
 
>  <TPSA> 
26.02 
 
>  <cid> 
4771 
 
>  <dipole> 
1.25 
 
>  <excitation_energy_1> 
5.272 
 
>  <excitation_energy_2> 
5.574 
 
>  <excitation_energy_3> 
5.722 
 
>  <excitation_energy_4> 
5.803 
 
>  <homo_energy> 
-6.253 
 
>  <homo_lumo_gap> 
6.329 
 
>  <logP> 
2.667 
 
>  <lumo_energy> 
0.076 
 
>  <melting_point> 
70.43 
 
>  <molecular_refractivity> 
48.57 
 
>  <oscillator_strength_1> 
0.0002 
 
>  <oscillator_strength_2> 
0.0253 
 
>  <oscillator_strength_3> 
0.0303 
 
>  <oscillator_strength_4> 
0.002 
 
>  <open_babel_can_smiles> 
CC(Cc1ccccc1)(N)C 
 
>  <mulliken_charges> 
26 
1   -0.450438 
2   -0.445164 
3   -0.131689 
4   -0.129234 
5   -0.129285 
6   -0.183276 
7   -0.184005 
8   -0.344762 
9   0.174738 
10   0.189955 
11   -0.709975 
12   0.154909 
13   0.127434 
14   0.131928 
15   0.154084 
16   0.130746 
17   0.1522 
18   0.127047 
19   0.127204 
20   0.127855 
21   0.122402 
22   0.127535 
23   0.128059 
24   0.15686 
25   0.288174 
26   0.286697 
 
>  <lowdin_charges> 
26 
1   -0.462021 
2   -0.444297 
3   -0.161063 
4   -0.155944 
5   -0.158083 
6   -0.169394 
7   -0.165128 
8   -0.277136 
9   -0.001836 
10   0.068837 
11   -0.549262 
12   0.15586 
13   0.142563 
14   0.14382 
15   0.155544 
16   0.143662 
17   0.152841 
18   0.156064 
19   0.155646 
20   0.157502 
21   0.154429 
22   0.155347 
23   0.14595 
24   0.1576 
25   0.249059 
26   0.249442 
 
$$$$ 
 
