PCCDB-ID:  4360 
public computational chemistry database (PCCDB) project, http://pccdb.org 
 
 26 25  0  0  1  0  0  0  0  0999 V2000 
    1.0382   -0.1412    0.1662 C   0  0  0  0  0  0  0  0  0  0  0  0 
    0.5909   -0.7095    1.5181 C   0  0  0  0  0  0  0  0  0  0  0  0 
    2.5445    0.1476    0.1192 C   0  0  0  0  0  0  0  0  0  0  0  0 
   -0.9118   -1.0133    1.5914 C   0  0  0  0  0  0  0  0  0  0  0  0 
   -2.6064    0.2658    0.6095 C   0  0  0  0  0  0  0  0  0  0  0  0 
    3.0508    0.7259   -1.2141 C   0  0  1  0  0  0  0  0  0  0  0  0 
    2.8887   -0.2844   -2.3752 C   0  0  0  0  0  0  0  0  0  0  0  0 
    2.4812    2.0219   -1.6355 N   0  0  0  0  0  0  0  0  0  0  0  0 
   -1.7073    0.2038    1.4962 N   0  0  0  0  0  0  0  0  0  0  0  0 
   -3.4026    1.3455    0.4527 O   0  0  0  0  0  0  0  0  0  0  0  0 
    3.0103   -1.4795   -2.2345 O   0  0  0  0  0  0  0  0  0  0  0  0 
    2.6427    0.2940   -3.5605 O   0  0  0  0  0  0  0  0  0  0  0  0 
    0.4623    0.7749   -0.0284 H   0  0  0  0  0  0  0  0  0  0  0  0 
    0.7846   -0.8541   -0.6298 H   0  0  0  0  0  0  0  0  0  0  0  0 
    0.8436   -0.0030    2.3200 H   0  0  0  0  0  0  0  0  0  0  0  0 
    1.1406   -1.6377    1.7248 H   0  0  0  0  0  0  0  0  0  0  0  0 
    3.0946   -0.7821    0.3017 H   0  0  0  0  0  0  0  0  0  0  0  0 
    2.8145    0.8454    0.9241 H   0  0  0  0  0  0  0  0  0  0  0  0 
   -1.1268   -1.4802    2.5618 H   0  0  0  0  0  0  0  0  0  0  0  0 
   -1.1798   -1.7496    0.8130 H   0  0  0  0  0  0  0  0  0  0  0  0 
   -2.8588   -0.5097   -0.1217 H   0  0  0  0  0  0  0  0  0  0  0  0 
    4.1352    0.8784   -1.1280 H   0  0  0  0  0  0  0  0  0  0  0  0 
    1.4934    2.0740   -1.3915 H   0  0  0  0  0  0  0  0  0  0  0  0 
    2.9440    2.7961   -1.1658 H   0  0  0  0  0  0  0  0  0  0  0  0 
   -3.1337    1.9814    1.1425 H   0  0  0  0  0  0  0  0  0  0  0  0 
    2.5680    1.2608   -3.3563 H   0  0  0  0  0  0  0  0  0  0  0  0 
  1  2  1  0  0  0  0 
  2  4  1  0  0  0  0 
  2 16  1  0  0  0  0 
  2 15  1  0  0  0  0 
  3  1  1  0  0  0  0 
  3 17  1  0  0  0  0 
  3 18  1  0  0  0  0 
  4 19  1  0  0  0  0 
  5  9  2  0  0  0  0 
  6 22  1  1  0  0  0 
  6  3  1  0  0  0  0 
  7 11  2  0  0  0  0 
  7  6  1  0  0  0  0 
  8 23  1  0  0  0  0 
  8  6  1  0  0  0  0 
  8 24  1  0  0  0  0 
  9  4  1  0  0  0  0 
 10  5  1  0  0  0  0 
 10 25  1  0  0  0  0 
 12 26  1  0  0  0  0 
 12  7  1  0  0  0  0 
 13  1  1  0  0  0  0 
 14  1  1  0  0  0  0 
 20  4  1  0  0  0  0 
 21  5  1  0  0  0  0 
M  END 
>  <HBA> 
5 
 
>  <HBD> 
3 
 
>  <TPSA> 
92.42 
 
>  <cid> 
4360 
 
>  <dipole> 
4.74 
 
>  <excitation_energy_1> 
5.411 
 
>  <excitation_energy_2> 
6.049 
 
>  <excitation_energy_3> 
6.131 
 
>  <excitation_energy_4> 
6.348 
 
>  <homo_energy> 
-6.827 
 
>  <homo_lumo_gap> 
7.246 
 
>  <logP> 
1.042 
 
>  <lumo_energy> 
0.419 
 
>  <melting_point> 
152.75 
 
>  <molecular_refractivity> 
43.63 
 
>  <oscillator_strength_1> 
0.0028 
 
>  <oscillator_strength_2> 
0.0017 
 
>  <oscillator_strength_3> 
0.0115 
 
>  <oscillator_strength_4> 
0.0003 
 
>  <open_babel_can_smiles> 
O/C=N/CCCC[C@@H](C(=O)O)N 
 
>  <mulliken_charges> 
26 
1   -0.27707 
2   -0.254611 
3   -0.256391 
4   -0.151821 
5   0.279034 
6   -0.098256 
7   0.613407 
8   -0.774324 
9   -0.404489 
10   -0.558799 
11   -0.471572 
12   -0.581845 
13   0.125173 
14   0.156948 
15   0.140813 
16   0.139718 
17   0.168541 
18   0.126788 
19   0.14874 
20   0.123522 
21   0.143293 
22   0.174624 
23   0.327474 
24   0.323378 
25   0.405388 
26   0.43234 
 
>  <lowdin_charges> 
26 
1   -0.286725 
2   -0.277565 
3   -0.283901 
4   -0.195057 
5   0.007885 
6   -0.108196 
7   0.169952 
8   -0.548124 
9   -0.233033 
10   -0.361562 
11   -0.260355 
12   -0.353087 
13   0.134489 
14   0.153003 
15   0.146692 
16   0.147948 
17   0.165268 
18   0.141587 
19   0.14969 
20   0.127906 
21   0.142024 
22   0.166386 
23   0.265763 
24   0.273054 
25   0.357871 
26   0.358087 
 
$$$$ 
 
