PCCDB-ID:  3862 
public computational chemistry database (PCCDB) project, http://pccdb.org 
 
 24 24  0  0  1  0  0  0  0  0999 V2000 
    0.0554    1.1895   -1.3826 C   0  0  0  0  0  0  0  0  0  0  0  0 
   -0.3786   -0.1002   -1.3311 C   0  0  0  0  0  0  0  0  0  0  0  0 
   -1.7303   -1.9082   -0.3426 C   0  0  0  0  0  0  0  0  0  0  0  0 
   -1.5344    0.3175    0.7043 C   0  0  0  0  0  0  0  0  0  0  0  0 
   -3.1426   -1.9761   -0.9685 C   0  0  1  0  0  0  0  0  0  0  0  0 
   -0.2904    2.1785   -0.3700 C   0  0  0  0  0  0  0  0  0  0  0  0 
   -1.1328    1.6197    0.7111 C   0  0  0  0  0  0  0  0  0  0  0  0 
   -4.1858   -1.3999    0.0250 C   0  0  0  0  0  0  0  0  0  0  0  0 
   -3.1309   -1.4340   -2.3145 N   0  0  0  0  0  0  0  0  0  0  0  0 
   -1.1707   -0.5588   -0.3112 N   0  0  0  0  0  0  0  0  0  0  0  0 
    0.0727    3.3553   -0.3894 O   0  0  0  0  0  0  0  0  0  0  0  0 
   -1.4611    2.4968    1.6951 O   0  0  0  0  0  0  0  0  0  0  0  0 
   -4.2068   -1.7161    1.1918 O   0  0  0  0  0  0  0  0  0  0  0  0 
   -5.0857   -0.5429   -0.4920 O   0  0  0  0  0  0  0  0  0  0  0  0 
    0.6927    1.5127   -2.1982 H   0  0  0  0  0  0  0  0  0  0  0  0 
   -0.1258   -0.8355   -2.0874 H   0  0  0  0  0  0  0  0  0  0  0  0 
   -1.0591   -2.5356   -0.9325 H   0  0  0  0  0  0  0  0  0  0  0  0 
   -1.7764   -2.3007    0.6755 H   0  0  0  0  0  0  0  0  0  0  0  0 
   -2.1554   -0.1088    1.4855 H   0  0  0  0  0  0  0  0  0  0  0  0 
   -3.3880   -3.0435   -1.0425 H   0  0  0  0  0  0  0  0  0  0  0  0 
   -2.8975   -0.4497   -2.3895 H   0  0  0  0  0  0  0  0  0  0  0  0 
   -3.9083   -1.6968   -2.9079 H   0  0  0  0  0  0  0  0  0  0  0  0 
   -2.0176    2.0507    2.3540 H   0  0  0  0  0  0  0  0  0  0  0  0 
   -4.8590   -0.4081   -1.4318 H   0  0  0  0  0  0  0  0  0  0  0  0 
  1  2  2  0  0  0  0 
  1  6  1  0  0  0  0 
  2 10  1  0  0  0  0 
  3 10  1  0  0  0  0 
  3 18  1  0  0  0  0 
  4  7  2  0  0  0  0 
  4 19  1  0  0  0  0 
  5 20  1  6  0  0  0 
  5  3  1  0  0  0  0 
  5  8  1  0  0  0  0 
  6  7  1  0  0  0  0 
  7 12  1  0  0  0  0 
  8 13  2  0  0  0  0 
  9  5  1  0  0  0  0 
 10  4  1  0  0  0  0 
 11  6  2  0  0  0  0 
 12 23  1  0  0  0  0 
 14  8  1  0  0  0  0 
 15  1  1  0  0  0  0 
 16  2  1  0  0  0  0 
 17  3  1  0  0  0  0 
 21  9  1  0  0  0  0 
 22  9  1  0  0  0  0 
 24 14  1  0  0  0  0 
M  END 
>  <HBA> 
6 
 
>  <HBD> 
3 
 
>  <TPSA> 
105.55 
 
>  <cid> 
3862 
 
>  <dipole> 
7.6 
 
>  <excitation_energy_1> 
3.996 
 
>  <excitation_energy_2> 
4.157 
 
>  <excitation_energy_3> 
4.418 
 
>  <excitation_energy_4> 
4.683 
 
>  <homo_energy> 
-5.543 
 
>  <homo_lumo_gap> 
4.882 
 
>  <logP> 
-0.334 
 
>  <lumo_energy> 
-0.661 
 
>  <melting_point> 
211.98 
 
>  <molecular_refractivity> 
48.08 
 
>  <oscillator_strength_1> 
0.0 
 
>  <oscillator_strength_2> 
0.0144 
 
>  <oscillator_strength_3> 
0.0279 
 
>  <oscillator_strength_4> 
0.1164 
 
>  <open_babel_can_smiles> 
OC(=O)[C@H](Cn1ccc(=O)c(c1)O)N 
 
>  <mulliken_charges> 
24 
1   -0.2567 
2   0.058914 
3   -0.163875 
4   -0.039449 
5   -0.070657 
6   0.436469 
7   0.246981 
8   0.591444 
9   -0.758325 
10   -0.423725 
11   -0.527904 
12   -0.6096 
13   -0.459491 
14   -0.552331 
15   0.147412 
16   0.167697 
17   0.177807 
18   0.198186 
19   0.17872 
20   0.190717 
21   0.337025 
22   0.328095 
23   0.407572 
24   0.395017 
 
>  <lowdin_charges> 
24 
1   -0.233093 
2   -0.108524 
3   -0.190916 
4   -0.187634 
5   -0.113056 
6   0.104962 
7   0.055301 
8   0.167439 
9   -0.553813 
10   -0.017355 
11   -0.296947 
12   -0.347559 
13   -0.255032 
14   -0.334643 
15   0.176565 
16   0.172217 
17   0.170537 
18   0.176298 
19   0.177138 
20   0.17782 
21   0.275518 
22   0.27604 
23   0.360963 
24   0.347775 
 
$$$$ 
 
