PCCDB-ID:  6205 
public computational chemistry database (PCCDB) project, http://pccdb.org 
 
 23 22  0  0  1  0  0  0  0  0999 V2000 
    5.2075   -0.1826    2.7014 C   0  0  0  0  0  0  0  0  0  0  0  0 
    5.7569   -0.7793    1.4058 C   0  0  0  0  0  0  0  0  0  0  0  0 
    5.4359   -2.3767   -1.6227 C   0  0  0  0  0  0  0  0  0  0  0  0 
    5.7308   -0.8858   -1.4295 C   0  0  0  0  0  0  0  0  0  0  0  0 
    6.1297   -3.0165   -2.8500 C   0  0  1  0  0  0  0  0  0  0  0  0 
    7.6462   -3.0280   -2.6497 C   0  0  0  0  0  0  0  0  0  0  0  0 
    5.5918   -4.3618   -3.0503 N   0  0  0  0  0  0  0  0  0  0  0  0 
    8.2571   -3.9059   -2.0782 O   0  0  0  0  0  0  0  0  0  0  0  0 
    8.2560   -1.9325   -3.1665 O   0  0  0  0  0  0  0  0  0  0  0  0 
    4.8222   -0.1134   -0.0325 S   0  0  0  0  0  0  0  0  0  0  0  0 
    5.7623   -0.5751    3.5611 H   0  0  0  0  0  0  0  0  0  0  0  0 
    4.1506   -0.4350    2.8373 H   0  0  0  0  0  0  0  0  0  0  0  0 
    5.2999    0.9085    2.7059 H   0  0  0  0  0  0  0  0  0  0  0  0 
    5.6712   -1.8708    1.4260 H   0  0  0  0  0  0  0  0  0  0  0  0 
    6.8159   -0.5242    1.2837 H   0  0  0  0  0  0  0  0  0  0  0  0 
    4.3607   -2.5278   -1.7577 H   0  0  0  0  0  0  0  0  0  0  0  0 
    5.7289   -2.9432   -0.7292 H   0  0  0  0  0  0  0  0  0  0  0  0 
    5.4162   -0.3209   -2.3142 H   0  0  0  0  0  0  0  0  0  0  0  0 
    6.8009   -0.6941   -1.2984 H   0  0  0  0  0  0  0  0  0  0  0  0 
    5.9036   -2.4153   -3.7376 H   0  0  0  0  0  0  0  0  0  0  0  0 
    5.9594   -4.9636   -2.3122 H   0  0  0  0  0  0  0  0  0  0  0  0 
    5.9584   -4.7488   -3.9196 H   0  0  0  0  0  0  0  0  0  0  0  0 
    9.2070   -2.0256   -2.9630 H   0  0  0  0  0  0  0  0  0  0  0  0 
  1 13  1  0  0  0  0 
  1 12  1  0  0  0  0 
  1 11  1  0  0  0  0 
  2 14  1  0  0  0  0 
  2  1  1  0  0  0  0 
  3  4  1  0  0  0  0 
  3 17  1  0  0  0  0 
  4 19  1  0  0  0  0 
  4 10  1  0  0  0  0 
  5 20  1  6  0  0  0 
  5  6  1  0  0  0  0 
  5  3  1  0  0  0  0 
  6  8  2  0  0  0  0 
  7  5  1  0  0  0  0 
  7 21  1  0  0  0  0 
  9 23  1  0  0  0  0 
  9  6  1  0  0  0  0 
 10  2  1  0  0  0  0 
 15  2  1  0  0  0  0 
 16  3  1  0  0  0  0 
 18  4  1  0  0  0  0 
 22  7  1  0  0  0  0 
M  END 
>  <HBA> 
4 
 
>  <HBD> 
2 
 
>  <TPSA> 
88.62 
 
>  <cid> 
6205 
 
>  <dipole> 
2.08 
 
>  <excitation_energy_1> 
4.885 
 
>  <excitation_energy_2> 
5.136 
 
>  <excitation_energy_3> 
5.231 
 
>  <excitation_energy_4> 
5.504 
 
>  <homo_energy> 
-5.913 
 
>  <homo_lumo_gap> 
5.853 
 
>  <logP> 
1.242 
 
>  <lumo_energy> 
-0.06 
 
>  <melting_point> 
113.81 
 
>  <molecular_refractivity> 
43.03 
 
>  <oscillator_strength_1> 
0.0087 
 
>  <oscillator_strength_2> 
0.0001 
 
>  <oscillator_strength_3> 
0.0073 
 
>  <oscillator_strength_4> 
0.0066 
 
>  <open_babel_can_smiles> 
CCSCC[C@@H](C(=O)O)N 
 
>  <mulliken_charges> 
23 
1   -0.453864 
2   -0.394643 
3   -0.255336 
4   -0.430336 
5   -0.059562 
6   0.554838 
7   -0.694992 
8   -0.468233 
9   -0.562569 
10   0.085818 
11   0.153233 
12   0.165209 
13   0.164836 
14   0.170979 
15   0.164447 
16   0.180793 
17   0.1488 
18   0.17613 
19   0.172769 
20   0.159173 
21   0.311203 
22   0.302877 
23   0.408429 
 
>  <lowdin_charges> 
23 
1   -0.441768 
2   -0.365117 
3   -0.277529 
4   -0.37936 
5   -0.093709 
6   0.175225 
7   -0.53301 
8   -0.272849 
9   -0.355058 
10   0.084359 
11   0.157171 
12   0.157881 
13   0.157041 
14   0.151286 
15   0.15073 
16   0.167666 
17   0.149788 
18   0.169173 
19   0.155966 
20   0.15898 
21   0.264206 
22   0.259864 
23   0.359065 
 
$$$$ 
 
