PCCDB-ID:  6009 
public computational chemistry database (PCCDB) project, http://pccdb.org 
 
 34 35  0  0  0  0  0  0  0  0999 V2000 
    1.0089    0.6143   -1.0933 C   0  0  0  0  0  0  0  0  0  0  0  0 
    2.3964   -3.0806    0.1693 C   0  0  0  0  0  0  0  0  0  0  0  0 
    1.6462   -1.8208    2.1089 C   0  0  0  0  0  0  0  0  0  0  0  0 
    3.2338    2.6298   -0.6446 C   0  0  0  0  0  0  0  0  0  0  0  0 
    8.4810    1.6678   -1.0404 C   0  0  0  0  0  0  0  0  0  0  0  0 
    8.1766    1.2024    0.2408 C   0  0  0  0  0  0  0  0  0  0  0  0 
    7.4592    1.8001   -1.9813 C   0  0  0  0  0  0  0  0  0  0  0  0 
    6.8656    0.8895    0.5942 C   0  0  0  0  0  0  0  0  0  0  0  0 
    6.1451    1.4699   -1.6510 C   0  0  0  0  0  0  0  0  0  0  0  0 
    2.3590    0.3374   -0.5204 C   0  0  0  0  0  0  0  0  0  0  0  0 
    5.8439    1.0215   -0.3573 C   0  0  0  0  0  0  0  0  0  0  0  0 
    2.7282   -0.6987    0.2800 C   0  0  0  0  0  0  0  0  0  0  0  0 
    4.1360   -0.5189    0.6432 C   0  0  0  0  0  0  0  0  0  0  0  0 
    1.9049   -1.7878    0.6647 N   0  0  0  0  0  0  0  0  0  0  0  0 
    3.4426    1.1807   -0.7770 N   0  0  0  0  0  0  0  0  0  0  0  0 
    4.5143    0.6951    0.0141 N   0  0  0  0  0  0  0  0  0  0  0  0 
    4.8832   -1.2284    1.3075 O   0  0  0  0  0  0  0  0  0  0  0  0 
    0.3727   -0.2511   -0.8937 H   0  0  0  0  0  0  0  0  0  0  0  0 
    1.0591    0.7841   -2.1750 H   0  0  0  0  0  0  0  0  0  0  0  0 
    0.5399    1.4963   -0.6387 H   0  0  0  0  0  0  0  0  0  0  0  0 
    1.6465   -3.8500    0.3865 H   0  0  0  0  0  0  0  0  0  0  0  0 
    3.3531   -3.3796    0.6231 H   0  0  0  0  0  0  0  0  0  0  0  0 
    2.5246   -3.0261   -0.9161 H   0  0  0  0  0  0  0  0  0  0  0  0 
    0.9022   -2.5980    2.3184 H   0  0  0  0  0  0  0  0  0  0  0  0 
    1.2329   -0.8581    2.4254 H   0  0  0  0  0  0  0  0  0  0  0  0 
    2.5493   -2.0287    2.7040 H   0  0  0  0  0  0  0  0  0  0  0  0 
    2.4409    2.9278   -1.3336 H   0  0  0  0  0  0  0  0  0  0  0  0 
    4.1513    3.1483   -0.9270 H   0  0  0  0  0  0  0  0  0  0  0  0 
    2.9602    2.9108    0.3816 H   0  0  0  0  0  0  0  0  0  0  0  0 
    9.5040    1.9220   -1.3030 H   0  0  0  0  0  0  0  0  0  0  0  0 
    8.9645    1.0911    0.9808 H   0  0  0  0  0  0  0  0  0  0  0  0 
    7.6831    2.1503   -2.9856 H   0  0  0  0  0  0  0  0  0  0  0  0 
    6.6259    0.5264    1.5852 H   0  0  0  0  0  0  0  0  0  0  0  0 
    5.3549    1.5369   -2.3911 H   0  0  0  0  0  0  0  0  0  0  0  0 
  1 18  1  0  0  0  0 
  1 20  1  0  0  0  0 
  1 10  1  0  0  0  0 
  2 21  1  0  0  0  0 
  2 22  1  0  0  0  0 
  2 14  1  0  0  0  0 
  3 24  1  0  0  0  0 
  3 25  1  0  0  0  0 
  3 26  1  0  0  0  0 
  4 29  1  0  0  0  0 
  5  6  2  0  0  0  0 
  6  8  1  0  0  0  0 
  6 31  1  0  0  0  0 
  7  9  2  0  0  0  0 
  7  5  1  0  0  0  0 
  8 33  1  0  0  0  0 
  9 11  1  0  0  0  0 
 10 12  2  0  0  0  0 
 11 16  1  0  0  0  0 
 11  8  2  0  0  0  0 
 12 13  1  0  0  0  0 
 12 14  1  0  0  0  0 
 13 17  2  0  0  0  0 
 14  3  1  0  0  0  0 
 15  4  1  0  0  0  0 
 15 10  1  0  0  0  0 
 15 16  1  0  0  0  0 
 16 13  1  0  0  0  0 
 19  1  1  0  0  0  0 
 23  2  1  0  0  0  0 
 27  4  1  0  0  0  0 
 28  4  1  0  0  0  0 
 30  5  1  0  0  0  0 
 32  7  1  0  0  0  0 
 34  9  1  0  0  0  0 
M  END 
>  <HBA> 
4 
 
>  <HBD> 
0 
 
>  <TPSA> 
30.17 
 
>  <cid> 
6009 
 
>  <dipole> 
4.05 
 
>  <excitation_energy_1> 
3.973 
 
>  <excitation_energy_2> 
4.508 
 
>  <excitation_energy_3> 
4.777 
 
>  <excitation_energy_4> 
4.936 
 
>  <homo_energy> 
-5.576 
 
>  <homo_lumo_gap> 
5.04 
 
>  <logP> 
1.55 
 
>  <lumo_energy> 
-0.536 
 
>  <melting_point> 
91.53 
 
>  <molecular_refractivity> 
70.46 
 
>  <oscillator_strength_1> 
0.0025 
 
>  <oscillator_strength_2> 
0.1856 
 
>  <oscillator_strength_3> 
0.0117 
 
>  <oscillator_strength_4> 
0.0102 
 
>  <open_babel_can_smiles> 
CN(c1c(C)n(n(c1=O)c1ccccc1)C)C 
 
>  <mulliken_charges> 
34 
1   -0.535866 
2   -0.306933 
3   -0.303539 
4   -0.315934 
5   -0.123717 
6   -0.146074 
7   -0.143146 
8   -0.141959 
9   -0.162589 
10   0.363364 
11   0.287124 
12   0.074796 
13   0.601918 
14   -0.476651 
15   -0.343661 
16   -0.439217 
17   -0.544495 
18   0.196878 
19   0.170535 
20   0.167425 
21   0.14226 
22   0.164203 
23   0.148258 
24   0.14373 
25   0.144849 
26   0.158797 
27   0.170971 
28   0.182972 
29   0.164098 
30   0.127652 
31   0.133812 
32   0.129624 
33   0.166343 
34   0.144176 
 
>  <lowdin_charges> 
34 
1   -0.446219 
2   -0.354341 
3   -0.35473 
4   -0.354787 
5   -0.16566 
6   -0.150504 
7   -0.151866 
8   -0.160788 
9   -0.188412 
10   0.049956 
11   0.048954 
12   -0.059111 
13   0.138142 
14   -0.163455 
15   -0.045093 
16   -0.036184 
17   -0.313733 
18   0.184927 
19   0.165474 
20   0.165667 
21   0.147903 
22   0.146402 
23   0.148912 
24   0.148256 
25   0.148943 
26   0.144057 
27   0.165842 
28   0.170537 
29   0.14977 
30   0.156735 
31   0.161083 
32   0.157115 
33   0.179661 
34   0.166546 
 
$$$$ 
 
