PCCDB-ID:  1056 
public computational chemistry database (PCCDB) project, http://pccdb.org 
 
 12 12  0  0  0  0  0  0  0  0999 V2000 
   -0.3148    1.3350   -0.2492 C   0  0  0  0  0  0  0  0  0  0  0  0 
   -1.3371    0.4524   -0.0659 C   0  0  0  0  0  0  0  0  0  0  0  0 
    1.0068    0.8428    0.0990 C   0  0  0  0  0  0  0  0  0  0  0  0 
    0.2980   -1.3153   -0.2524 C   0  0  0  0  0  0  0  0  0  0  0  0 
   -1.0727   -0.8809    0.0518 N   0  0  0  0  0  0  0  0  0  0  0  0 
    1.3273   -0.3991    0.2292 N   0  0  0  0  0  0  0  0  0  0  0  0 
   -0.5011    2.3927   -0.3889 H   0  0  0  0  0  0  0  0  0  0  0  0 
   -2.3797    0.7501    0.0244 H   0  0  0  0  0  0  0  0  0  0  0  0 
    1.7641    1.5793    0.3808 H   0  0  0  0  0  0  0  0  0  0  0  0 
    0.3922   -1.4060   -1.3485 H   0  0  0  0  0  0  0  0  0  0  0  0 
    0.4465   -2.3072    0.1826 H   0  0  0  0  0  0  0  0  0  0  0  0 
   -1.6505   -1.4410    0.6650 H   0  0  0  0  0  0  0  0  0  0  0  0 
  1  2  1  0  0  0  0 
  1  3  1  0  0  0  0 
  2  8  1  0  0  0  0 
  2  5  1  0  0  0  0 
  3  6  1  0  0  0  0 
  3  9  1  0  0  0  0 
  4  5  1  0  0  0  0 
  4 11  1  0  0  0  0 
  4  6  1  0  0  0  0 
  5 12  1  0  0  0  0 
  7  1  1  0  0  0  0 
 10  4  1  0  0  0  0 
M  RAD  4   1   2   2   2   3   2   6   2 
M  END 
>  <HBA> 
2 
 
>  <HBD> 
1 
 
>  <TPSA> 
24.39 
 
>  <cid> 
1056 
 
>  <dipole> 
2.91 
 
>  <excitation_energy_1> 
3.962 
 
>  <excitation_energy_2> 
4.675 
 
>  <excitation_energy_3> 
4.95 
 
>  <excitation_energy_4> 
5.504 
 
>  <homo_energy> 
-5.391 
 
>  <homo_lumo_gap> 
4.863 
 
>  <logP> 
-0.104 
 
>  <lumo_energy> 
-0.528 
 
>  <melting_point> 
52.18 
 
>  <molecular_refractivity> 
32.48 
 
>  <oscillator_strength_1> 
0.0395 
 
>  <oscillator_strength_2> 
0.0005 
 
>  <oscillator_strength_3> 
0.0602 
 
>  <oscillator_strength_4> 
0.0176 
 
>  <open_babel_can_smiles> 
[CH]1[CH][CH]NC[N]1 
 
>  <mulliken_charges> 
12 
1   -0.212434 
2   0.091909 
3   0.054164 
4   -0.007503 
5   -0.56685 
6   -0.394494 
7   0.125645 
8   0.149694 
9   0.135823 
10   0.149256 
11   0.147272 
12   0.327519 
 
>  <lowdin_charges> 
12 
1   -0.281485 
2   -0.061306 
3   -0.07681 
4   -0.129661 
5   -0.27382 
6   -0.218458 
7   0.161851 
8   0.159585 
9   0.153657 
10   0.133655 
11   0.149464 
12   0.283328 
 
$$$$ 
 
