PCCDB-ID:  2332 
public computational chemistry database (PCCDB) project, http://pccdb.org 
 
 17 17  0  0  0  0  0  0  0  0999 V2000 
   -1.4216   -0.0496    0.0643 C   0  0  0  0  0  0  0  0  0  0  0  0 
   -0.7697    1.1823   -0.0161 C   0  0  0  0  0  0  0  0  0  0  0  0 
   -0.6739   -1.2293    0.0846 C   0  0  0  0  0  0  0  0  0  0  0  0 
    0.6230    1.2363   -0.0728 C   0  0  0  0  0  0  0  0  0  0  0  0 
    0.7172   -1.1764    0.0212 C   0  0  0  0  0  0  0  0  0  0  0  0 
    1.3818    0.0560   -0.0608 C   0  0  0  0  0  0  0  0  0  0  0  0 
    2.8757    0.0941   -0.1430 C   0  0  0  0  0  0  0  0  0  0  0  0 
    3.6232   -0.7631   -0.7405 N   0  0  0  0  0  0  0  0  0  0  0  0 
    3.4651    1.2036    0.4518 N   0  0  0  0  0  0  0  0  0  0  0  0 
   -2.5064   -0.0907    0.1124 H   0  0  0  0  0  0  0  0  0  0  0  0 
   -1.3463    2.1031   -0.0396 H   0  0  0  0  0  0  0  0  0  0  0  0 
   -1.1745   -2.1911    0.1568 H   0  0  0  0  0  0  0  0  0  0  0  0 
    1.1309    2.1926   -0.1538 H   0  0  0  0  0  0  0  0  0  0  0  0 
    1.2986   -2.0938    0.0575 H   0  0  0  0  0  0  0  0  0  0  0  0 
    3.0494   -1.4449   -1.2397 H   0  0  0  0  0  0  0  0  0  0  0  0 
    3.0491    1.5183    1.3196 H   0  0  0  0  0  0  0  0  0  0  0  0 
    4.4760    1.1317    0.4885 H   0  0  0  0  0  0  0  0  0  0  0  0 
  1  3  1  0  0  0  0 
  1 10  1  0  0  0  0 
  2  1  2  0  0  0  0 
  3 12  1  0  0  0  0 
  4  6  2  0  0  0  0 
  4  2  1  0  0  0  0 
  5 14  1  0  0  0  0 
  5  3  2  0  0  0  0 
  6  5  1  0  0  0  0 
  7  6  1  0  0  0  0 
  7  9  2  0  0  0  0 
  8  7  1  0  0  0  0 
  9 17  1  0  0  0  0 
  9 16  1  0  0  0  0 
 11  2  1  0  0  0  0 
 13  4  1  0  0  0  0 
 15  8  1  0  0  0  0 
M  RAD  1   8   2 
M  END 
>  <HBA> 
2 
 
>  <HBD> 
2 
 
>  <TPSA> 
49.87 
 
>  <cid> 
2332 
 
>  <dipole> 
2.81 
 
>  <excitation_energy_1> 
4.985 
 
>  <excitation_energy_2> 
4.995 
 
>  <excitation_energy_3> 
5.081 
 
>  <excitation_energy_4> 
5.414 
 
>  <homo_energy> 
-6.329 
 
>  <homo_lumo_gap> 
5.562 
 
>  <logP> 
1.771 
 
>  <lumo_energy> 
-0.767 
 
>  <melting_point> 
92.7 
 
>  <molecular_refractivity> 
37.71 
 
>  <oscillator_strength_1> 
0.0805 
 
>  <oscillator_strength_2> 
0.0045 
 
>  <oscillator_strength_3> 
0.0023 
 
>  <oscillator_strength_4> 
0.0144 
 
>  <open_babel_can_smiles> 
[NH]C(=[NH2])c1ccccc1 
 
>  <mulliken_charges> 
17 
1   -0.123542 
2   -0.131023 
3   -0.133255 
4   -0.176463 
5   -0.179776 
6   0.098529 
7   0.369558 
8   -0.620755 
9   -0.735849 
10   0.135339 
11   0.13575 
12   0.136215 
13   0.149631 
14   0.140573 
15   0.279897 
16   0.321745 
17   0.333426 
 
>  <lowdin_charges> 
17 
1   -0.147126 
2   -0.154006 
3   -0.153419 
4   -0.158194 
5   -0.155714 
6   -0.033396 
7   0.092073 
8   -0.436845 
9   -0.477032 
10   0.15842 
11   0.160889 
12   0.16085 
13   0.167608 
14   0.16311 
15   0.253287 
16   0.277363 
17   0.282133 
 
$$$$ 
 
