PCCDB-ID:  6054 
public computational chemistry database (PCCDB) project, http://pccdb.org 
 
 19 19  0  0  0  0  0  0  0  0999 V2000 
   -1.5162   -0.0350   -0.0310 C   0  0  0  0  0  0  0  0  0  0  0  0 
   -0.8469    1.1872   -0.1048 C   0  0  0  0  0  0  0  0  0  0  0  0 
   -0.7801   -1.2202    0.0328 C   0  0  0  0  0  0  0  0  0  0  0  0 
    0.5494    1.2228   -0.1150 C   0  0  0  0  0  0  0  0  0  0  0  0 
    0.6143   -1.1810    0.0199 C   0  0  0  0  0  0  0  0  0  0  0  0 
    2.8124    0.0810   -0.1276 C   0  0  0  0  0  0  0  0  0  0  0  0 
    3.3262    0.1098   -1.5809 C   0  0  0  0  0  0  0  0  0  0  0  0 
    1.3019    0.0392   -0.0522 C   0  0  0  0  0  0  0  0  0  0  0  0 
    2.8922    1.2542   -2.2987 O   0  0  0  0  0  0  0  0  0  0  0  0 
   -2.6023   -0.0645   -0.0178 H   0  0  0  0  0  0  0  0  0  0  0  0 
   -1.4103    2.1158   -0.1480 H   0  0  0  0  0  0  0  0  0  0  0  0 
   -1.2926   -2.1766    0.0968 H   0  0  0  0  0  0  0  0  0  0  0  0 
    1.0661    2.1788   -0.1584 H   0  0  0  0  0  0  0  0  0  0  0  0 
    1.1797   -2.1091    0.0719 H   0  0  0  0  0  0  0  0  0  0  0  0 
    3.1912    0.9724    0.3864 H   0  0  0  0  0  0  0  0  0  0  0  0 
    3.2412   -0.7951    0.3759 H   0  0  0  0  0  0  0  0  0  0  0  0 
    3.0294   -0.8192   -2.0946 H   0  0  0  0  0  0  0  0  0  0  0  0 
    4.4202    0.1541   -1.5829 H   0  0  0  0  0  0  0  0  0  0  0  0 
    1.9220    1.2207   -2.3284 H   0  0  0  0  0  0  0  0  0  0  0  0 
  1 10  1  0  0  0  0 
  1  3  2  0  0  0  0 
  2  1  1  0  0  0  0 
  3 12  1  0  0  0  0 
  4  2  2  0  0  0  0 
  4  8  1  0  0  0  0 
  5  3  1  0  0  0  0 
  5 14  1  0  0  0  0 
  6  8  1  0  0  0  0 
  6 16  1  0  0  0  0 
  6 15  1  0  0  0  0 
  7  6  1  0  0  0  0 
  8  5  2  0  0  0  0 
  9  7  1  0  0  0  0 
 11  2  1  0  0  0  0 
 13  4  1  0  0  0  0 
 17  7  1  0  0  0  0 
 18  7  1  0  0  0  0 
 19  9  1  0  0  0  0 
M  END 
>  <HBA> 
1 
 
>  <HBD> 
1 
 
>  <TPSA> 
20.23 
 
>  <cid> 
6054 
 
>  <dipole> 
1.69 
 
>  <excitation_energy_1> 
5.277 
 
>  <excitation_energy_2> 
5.807 
 
>  <excitation_energy_3> 
6.101 
 
>  <excitation_energy_4> 
6.229 
 
>  <homo_energy> 
-6.612 
 
>  <homo_lumo_gap> 
6.463 
 
>  <logP> 
1.221 
 
>  <lumo_energy> 
-0.15 
 
>  <melting_point> 
25.1 
 
>  <molecular_refractivity> 
37.38 
 
>  <oscillator_strength_1> 
0.0014 
 
>  <oscillator_strength_2> 
0.0543 
 
>  <oscillator_strength_3> 
0.0044 
 
>  <oscillator_strength_4> 
0.0466 
 
>  <open_babel_can_smiles> 
OCCc1ccccc1 
 
>  <mulliken_charges> 
19 
1   -0.131202 
2   -0.126301 
3   -0.126306 
4   -0.205153 
5   -0.180053 
6   -0.35415 
7   -0.025656 
8   0.148179 
9   -0.61763 
10   0.131024 
11   0.132565 
12   0.131302 
13   0.139765 
14   0.125114 
15   0.154692 
16   0.139637 
17   0.123339 
18   0.146944 
19   0.39389 
 
>  <lowdin_charges> 
19 
1   -0.157235 
2   -0.155724 
3   -0.153384 
4   -0.180171 
5   -0.168077 
6   -0.294739 
7   -0.128797 
8   -0.008078 
9   -0.466161 
10   0.156325 
11   0.159127 
12   0.158388 
13   0.160681 
14   0.155445 
15   0.156954 
16   0.153617 
17   0.126549 
18   0.145604 
19   0.339674 
 
$$$$ 
 
