PCCDB-ID:  5666 
public computational chemistry database (PCCDB) project, http://pccdb.org 
 
 36 37  0  0  1  0  0  0  0  0999 V2000 
    0.9854   -0.5610   -2.4139 C   0  0  0  0  0  0  0  0  0  0  0  0 
    2.2698   -1.3616   -2.2841 C   0  0  0  0  0  0  0  0  0  0  0  0 
    6.2483   -2.6922   -1.6181 C   0  0  0  0  0  0  0  0  0  0  0  0 
    7.1902   -1.7697   -1.1859 C   0  0  0  0  0  0  0  0  0  0  0  0 
    4.9257   -2.2888   -1.8511 C   0  0  0  0  0  0  0  0  0  0  0  0 
    6.8210   -0.4324   -0.9839 C   0  0  0  0  0  0  0  0  0  0  0  0 
    5.4154    4.7554    2.1198 C   0  0  0  0  0  0  0  0  0  0  0  0 
    6.5282    4.7799    1.0765 C   0  0  0  0  0  0  0  0  0  0  0  0 
    4.0415    3.4937    0.6089 C   0  0  0  0  0  0  0  0  0  0  0  0 
    5.9478    2.2427   -0.5506 C   0  0  0  0  0  0  0  0  0  0  0  0 
    5.1441    3.5452   -0.4546 C   0  0  2  0  0  0  0  0  0  0  0  0 
    4.5458   -0.9627   -1.6520 C   0  0  0  0  0  0  0  0  0  0  0  0 
    5.5104   -0.0199   -1.2130 C   0  0  0  0  0  0  0  0  0  0  0  0 
    4.6558    3.5185    1.9379 N   0  0  0  0  0  0  0  0  0  0  0  0 
    3.2883   -0.4681   -1.8447 O   0  0  0  0  0  0  0  0  0  0  0  0 
    6.0100    4.6650   -0.2489 O   0  0  0  0  0  0  0  0  0  0  0  0 
    5.0538    1.2565   -1.0571 O   0  0  0  0  0  0  0  0  0  0  0  0 
    0.1690   -1.2090   -2.7510 H   0  0  0  0  0  0  0  0  0  0  0  0 
    1.1090    0.2498   -3.1384 H   0  0  0  0  0  0  0  0  0  0  0  0 
    0.7064   -0.1222   -1.4507 H   0  0  0  0  0  0  0  0  0  0  0  0 
    2.5525   -1.8072   -3.2492 H   0  0  0  0  0  0  0  0  0  0  0  0 
    2.1500   -2.1803   -1.5593 H   0  0  0  0  0  0  0  0  0  0  0  0 
    6.5246   -3.7303   -1.7789 H   0  0  0  0  0  0  0  0  0  0  0  0 
    8.2168   -2.0729   -1.0016 H   0  0  0  0  0  0  0  0  0  0  0  0 
    4.1975   -3.0180   -2.1871 H   0  0  0  0  0  0  0  0  0  0  0  0 
    7.5631    0.2834   -0.6490 H   0  0  0  0  0  0  0  0  0  0  0  0 
    4.7934    5.6636    2.0007 H   0  0  0  0  0  0  0  0  0  0  0  0 
    5.8534    4.7726    3.1249 H   0  0  0  0  0  0  0  0  0  0  0  0 
    7.2445    3.9723    1.2893 H   0  0  0  0  0  0  0  0  0  0  0  0 
    7.0668    5.7323    1.0993 H   0  0  0  0  0  0  0  0  0  0  0  0 
    3.4683    2.5697    0.4847 H   0  0  0  0  0  0  0  0  0  0  0  0 
    3.3614    4.3497    0.4396 H   0  0  0  0  0  0  0  0  0  0  0  0 
    6.3294    1.9371    0.4307 H   0  0  0  0  0  0  0  0  0  0  0  0 
    6.7927    2.3925   -1.2363 H   0  0  0  0  0  0  0  0  0  0  0  0 
    4.6853    3.7191   -1.4335 H   0  0  0  0  0  0  0  0  0  0  0  0 
    3.9399    3.4300    2.6548 H   0  0  0  0  0  0  0  0  0  0  0  0 
  1  2  1  0  0  0  0 
  1 20  1  0  0  0  0 
  2 15  1  0  0  0  0 
  2 22  1  0  0  0  0 
  3  4  2  0  0  0  0 
  4 24  1  0  0  0  0 
  4  6  1  0  0  0  0 
  5 12  2  0  0  0  0 
  5  3  1  0  0  0  0 
  6 26  1  0  0  0  0 
  7 28  1  0  0  0  0 
  8 30  1  0  0  0  0 
  8 29  1  0  0  0  0 
  8  7  1  0  0  0  0 
  9 14  1  0  0  0  0 
 10 11  1  0  0  0  0 
 10 33  1  0  0  0  0 
 11 35  1  6  0  0  0 
 11 16  1  0  0  0  0 
 11  9  1  0  0  0  0 
 12 13  1  0  0  0  0 
 13 17  1  0  0  0  0 
 13  6  2  0  0  0  0 
 14  7  1  0  0  0  0 
 14 36  1  0  0  0  0 
 15 12  1  0  0  0  0 
 16  8  1  0  0  0  0 
 17 10  1  0  0  0  0 
 18  1  1  0  0  0  0 
 19  1  1  0  0  0  0 
 21  2  1  0  0  0  0 
 23  3  1  0  0  0  0 
 25  5  1  0  0  0  0 
 27  7  1  0  0  0  0 
 31  9  1  0  0  0  0 
 32  9  1  0  0  0  0 
 34 10  1  0  0  0  0 
M  END 
>  <HBA> 
4 
 
>  <HBD> 
1 
 
>  <TPSA> 
39.72 
 
>  <cid> 
5666 
 
>  <dipole> 
1.85 
 
>  <excitation_energy_1> 
4.949 
 
>  <excitation_energy_2> 
5.087 
 
>  <excitation_energy_3> 
5.193 
 
>  <excitation_energy_4> 
5.337 
 
>  <homo_energy> 
-5.333 
 
>  <homo_lumo_gap> 
5.807 
 
>  <logP> 
1.781 
 
>  <lumo_energy> 
0.473 
 
>  <melting_point> 
52.02 
 
>  <molecular_refractivity> 
69.15 
 
>  <oscillator_strength_1> 
0.0574 
 
>  <oscillator_strength_2> 
0.0012 
 
>  <oscillator_strength_3> 
0.0009 
 
>  <oscillator_strength_4> 
0.0013 
 
>  <open_babel_can_smiles> 
CCOc1ccccc1OC[C@H]1CNCCO1 
 
>  <mulliken_charges> 
36 
1   -0.455547 
2   -0.02679 
3   -0.139763 
4   -0.14065 
5   -0.204544 
6   -0.200609 
7   -0.145185 
8   -0.02495 
9   -0.15676 
10   -0.049003 
11   0.120772 
12   0.334509 
13   0.340239 
14   -0.558881 
15   -0.513186 
16   -0.492382 
17   -0.527505 
18   0.145735 
19   0.164147 
20   0.161386 
21   0.1391 
22   0.138173 
23   0.122246 
24   0.122861 
25   0.131087 
26   0.135367 
27   0.121062 
28   0.138851 
29   0.131381 
30   0.144064 
31   0.168861 
32   0.120482 
33   0.156902 
34   0.146202 
35   0.149824 
36   0.302502 
 
>  <lowdin_charges> 
36 
1   -0.448622 
2   -0.123355 
3   -0.168515 
4   -0.168156 
5   -0.212226 
6   -0.209703 
7   -0.21905 
8   -0.136381 
9   -0.221678 
10   -0.145575 
11   -0.010138 
12   0.079505 
13   0.081596 
14   -0.369069 
15   -0.19585 
16   -0.275255 
17   -0.193561 
18   0.156536 
19   0.160822 
20   0.15883 
21   0.13683 
22   0.137153 
23   0.154239 
24   0.154754 
25   0.162944 
26   0.164792 
27   0.122498 
28   0.148813 
29   0.132653 
30   0.15058 
31   0.163233 
32   0.124854 
33   0.147564 
34   0.144969 
35   0.154749 
36   0.259219 
 
$$$$ 
 
