PCCDB-ID:  742 
public computational chemistry database (PCCDB) project, http://pccdb.org 
 
 18 17  0  0  1  0  0  0  0  0999 V2000 
    1.3163    0.1604   -0.0572 C   0  0  0  0  0  0  0  0  0  0  0  0 
    0.6917    0.2690   -1.4673 C   0  0  0  0  0  0  0  0  0  0  0  0 
    3.3850    0.0024    1.3640 C   0  0  0  0  0  0  0  0  0  0  0  0 
    2.8465    0.3803   -0.0095 C   0  0  1  0  0  0  0  0  0  0  0  0 
    1.0514    1.5488   -2.2276 C   0  0  0  0  0  0  0  0  0  0  0  0 
    3.5243   -0.3150   -1.1097 N   0  0  0  0  0  0  0  0  0  0  0  0 
    4.2762   -0.8003    1.5326 O   0  0  0  0  0  0  0  0  0  0  0  0 
    0.2734    2.4593   -2.3932 O   0  0  0  0  0  0  0  0  0  0  0  0 
    2.3098    1.5982   -2.7087 O   0  0  0  0  0  0  0  0  0  0  0  0 
    1.0769   -0.8344    0.3431 H   0  0  0  0  0  0  0  0  0  0  0  0 
    0.8432    0.8885    0.6115 H   0  0  0  0  0  0  0  0  0  0  0  0 
   -0.3963    0.2434   -1.3720 H   0  0  0  0  0  0  0  0  0  0  0  0 
    0.9949   -0.5963   -2.0683 H   0  0  0  0  0  0  0  0  0  0  0  0 
    2.9022    0.5173    2.2237 H   0  0  0  0  0  0  0  0  0  0  0  0 
    3.0365    1.4565   -0.1395 H   0  0  0  0  0  0  0  0  0  0  0  0 
    3.3418   -1.3171   -1.0452 H   0  0  0  0  0  0  0  0  0  0  0  0 
    4.5334   -0.2227   -0.9914 H   0  0  0  0  0  0  0  0  0  0  0  0 
    2.8168    0.7973   -2.4039 H   0  0  0  0  0  0  0  0  0  0  0  0 
  1  4  1  0  0  0  0 
  1 10  1  0  0  0  0 
  1 11  1  0  0  0  0 
  2 12  1  0  0  0  0 
  2  1  1  0  0  0  0 
  3  7  2  0  0  0  0 
  3 14  1  0  0  0  0 
  4 15  1  6  0  0  0 
  4  3  1  0  0  0  0 
  5  2  1  0  0  0  0 
  6 16  1  0  0  0  0 
  6 17  1  0  0  0  0 
  6  4  1  0  0  0  0 
  8  5  2  0  0  0  0 
  9 18  1  0  0  0  0 
  9  5  1  0  0  0  0 
 13  2  1  0  0  0  0 
M  END 
>  <HBA> 
4 
 
>  <HBD> 
2 
 
>  <TPSA> 
80.39 
 
>  <cid> 
742 
 
>  <dipole> 
4.18 
 
>  <excitation_energy_1> 
4.239 
 
>  <excitation_energy_2> 
5.018 
 
>  <excitation_energy_3> 
5.584 
 
>  <excitation_energy_4> 
5.703 
 
>  <homo_energy> 
-6.931 
 
>  <homo_lumo_gap> 
5.584 
 
>  <logP> 
0.078 
 
>  <lumo_energy> 
-1.347 
 
>  <melting_point> 
137.23 
 
>  <molecular_refractivity> 
30.83 
 
>  <oscillator_strength_1> 
0.0003 
 
>  <oscillator_strength_2> 
0.0034 
 
>  <oscillator_strength_3> 
0.0006 
 
>  <oscillator_strength_4> 
0.0001 
 
>  <open_babel_can_smiles> 
O=C[C@H](CCC(=O)O)N 
 
>  <mulliken_charges> 
18 
1   -0.291915 
2   -0.364097 
3   0.248037 
4   -0.069109 
5   0.580438 
6   -0.752432 
7   -0.38426 
8   -0.452983 
9   -0.596819 
10   0.155709 
11   0.172599 
12   0.179936 
13   0.160157 
14   0.118963 
15   0.188177 
16   0.324684 
17   0.336051 
18   0.446864 
 
>  <lowdin_charges> 
18 
1   -0.275972 
2   -0.314896 
3   0.039996 
4   -0.113459 
5   0.186963 
6   -0.518589 
7   -0.213554 
8   -0.256549 
9   -0.381157 
10   0.152537 
11   0.1651 
12   0.173278 
13   0.160403 
14   0.128867 
15   0.168546 
16   0.269477 
17   0.275835 
18   0.353177 
 
$$$$ 
 
