PCCDB-ID:  5270 
public computational chemistry database (PCCDB) project, http://pccdb.org 
 
 26 28  0  0  1  0  0  0  0  0999 V2000 
   -0.6829    1.6009    0.2536 C   0  0  0  0  0  0  0  0  0  0  0  0 
   -0.5437    0.3679   -0.6778 C   0  0  0  0  0  0  0  0  0  0  0  0 
    0.6455    1.6166    1.0422 C   0  0  0  0  0  0  0  0  0  0  0  0 
    4.3527   -2.2524   -1.9687 C   0  0  0  0  0  0  0  0  0  0  0  0 
    2.0134    1.4114   -2.0596 C   0  0  0  0  0  0  0  0  0  0  0  0 
    0.8683   -0.1808   -0.3766 C   0  0  1  0  0  0  0  0  0  0  0  0 
    3.6662    0.2254   -2.6615 C   0  0  0  0  0  0  0  0  0  0  0  0 
    4.8274   -0.3629   -3.2048 C   0  0  2  0  0  0  0  0  0  0  0  0 
    2.9391   -0.5673   -1.7688 C   0  0  0  0  0  0  0  0  0  0  0  0 
    5.6103    0.2794   -4.1113 N   0  0  0  0  0  0  0  0  0  0  0  0 
    5.1578   -1.6120   -2.8331 N   0  0  0  0  0  0  0  0  0  0  0  0 
    3.2304   -1.8174   -1.3885 N   0  0  0  0  0  0  0  0  0  0  0  0 
    3.0719    1.4647   -2.8310 N   0  0  0  0  0  0  0  0  0  0  0  0 
    1.8585    0.2088   -1.3877 N   0  0  0  0  0  0  0  0  0  0  0  0 
    1.1973    0.3040    0.9076 O   0  0  0  0  0  0  0  0  0  0  0  0 
   -1.5371    1.4842    0.9261 H   0  0  0  0  0  0  0  0  0  0  0  0 
   -0.8320    2.5312   -0.3037 H   0  0  0  0  0  0  0  0  0  0  0  0 
   -0.6781    0.6027   -1.7365 H   0  0  0  0  0  0  0  0  0  0  0  0 
   -1.2795   -0.3978   -0.4189 H   0  0  0  0  0  0  0  0  0  0  0  0 
    0.5234    1.8059    2.1115 H   0  0  0  0  0  0  0  0  0  0  0  0 
    1.3441    2.3643    0.6390 H   0  0  0  0  0  0  0  0  0  0  0  0 
    4.6632   -3.2617   -1.7064 H   0  0  0  0  0  0  0  0  0  0  0  0 
    1.2983    2.2155   -1.9464 H   0  0  0  0  0  0  0  0  0  0  0  0 
    0.9260   -1.2686   -0.3309 H   0  0  0  0  0  0  0  0  0  0  0  0 
    5.4855    1.2726   -4.2400 H   0  0  0  0  0  0  0  0  0  0  0  0 
    6.5152   -0.1220   -4.3102 H   0  0  0  0  0  0  0  0  0  0  0  0 
  1 16  1  0  0  0  0 
  1  3  1  0  0  0  0 
  2 19  1  0  0  0  0 
  2  6  1  0  0  0  0 
  2  1  1  0  0  0  0 
  3 20  1  0  0  0  0 
  4 22  1  0  0  0  0 
  4 12  1  0  0  0  0 
  5 23  1  0  0  0  0 
  5 14  1  0  0  0  0 
  6 24  1  1  0  0  0 
  6 15  1  0  0  0  0 
  7  9  2  0  0  0  0 
  8 10  1  6  0  0  0 
  8 11  1  0  0  0  0 
  8  7  1  0  0  0  0 
  9 12  1  0  0  0  0 
  9 14  1  0  0  0  0 
 11  4  2  0  0  0  0 
 13  7  1  0  0  0  0 
 13  5  2  0  0  0  0 
 14  6  1  0  0  0  0 
 15  3  1  0  0  0  0 
 17  1  1  0  0  0  0 
 18  2  1  0  0  0  0 
 21  3  1  0  0  0  0 
 25 10  1  0  0  0  0 
 26 10  1  0  0  0  0 
M  RAD  2   8   2  12   2 
M  END 
>  <HBA> 
6 
 
>  <HBD> 
1 
 
>  <TPSA> 
78.85 
 
>  <cid> 
5270 
 
>  <dipole> 
3.63 
 
>  <excitation_energy_1> 
4.919 
 
>  <excitation_energy_2> 
4.98 
 
>  <excitation_energy_3> 
5.235 
 
>  <excitation_energy_4> 
5.431 
 
>  <homo_energy> 
-5.87 
 
>  <homo_lumo_gap> 
5.415 
 
>  <logP> 
1.299 
 
>  <lumo_energy> 
-0.454 
 
>  <melting_point> 
159.13 
 
>  <molecular_refractivity> 
54.38 
 
>  <oscillator_strength_1> 
0.1819 
 
>  <oscillator_strength_2> 
0.0506 
 
>  <oscillator_strength_3> 
0.0416 
 
>  <oscillator_strength_4> 
0.0107 
 
>  <open_babel_can_smiles> 
N[C]1N=C[N]c2c1ncn2[C@@H]1CCCO1 
 
>  <mulliken_charges> 
26 
1   -0.315892 
2   -0.315572 
3   -0.034077 
4   0.164346 
5   0.216927 
6   0.228115 
7   0.185682 
8   0.486721 
9   0.529172 
10   -0.775531 
11   -0.509367 
12   -0.505092 
13   -0.52813 
14   -0.505724 
15   -0.455244 
16   0.161575 
17   0.150914 
18   0.164882 
19   0.169773 
20   0.158131 
21   0.140697 
22   0.144239 
23   0.161172 
24   0.186977 
25   0.352381 
26   0.342925 
 
>  <lowdin_charges> 
26 
1   -0.301363 
2   -0.298596 
3   -0.137846 
4   -0.033407 
5   -0.070706 
6   0.056559 
7   -0.063976 
8   0.120268 
9   0.062971 
10   -0.440803 
11   -0.221696 
12   -0.203951 
13   -0.190706 
14   -0.038646 
15   -0.254204 
16   0.158617 
17   0.152478 
18   0.15907 
19   0.166011 
20   0.154548 
21   0.135939 
22   0.156499 
23   0.169782 
24   0.173346 
25   0.296207 
26   0.293607 
 
$$$$ 
 
