PCCDB-ID:  3671 
public computational chemistry database (PCCDB) project, http://pccdb.org 
 
 35 36  0  0  0  0  0  0  0  0999 V2000 
    1.2379   -0.3736   -0.2746 C   0  0  0  0  0  0  0  0  0  0  0  0 
    2.9370    0.5518    1.3732 C   0  0  0  0  0  0  0  0  0  0  0  0 
    1.9324    6.3687    0.2978 C   0  0  0  0  0  0  0  0  0  0  0  0 
    4.4127    5.8596    0.1455 C   0  0  0  0  0  0  0  0  0  0  0  0 
    5.0479    3.6901   -4.1955 C   0  0  0  0  0  0  0  0  0  0  0  0 
    4.9975    2.3556   -4.6735 C   0  0  0  0  0  0  0  0  0  0  0  0 
    4.4560    4.0339   -3.0005 C   0  0  0  0  0  0  0  0  0  0  0  0 
    4.3570    1.4019   -3.9301 C   0  0  0  0  0  0  0  0  0  0  0  0 
    1.9728    0.8836    0.2146 C   0  0  0  0  0  0  0  0  0  0  0  0 
    3.0014    5.4799   -0.3517 C   0  0  0  0  0  0  0  0  0  0  0  0 
    3.7820    3.0506   -2.2331 C   0  0  0  0  0  0  0  0  0  0  0  0 
    3.0828    2.9589   -1.0043 C   0  0  0  0  0  0  0  0  0  0  0  0 
    2.7203    1.5766   -0.8996 C   0  0  0  0  0  0  0  0  0  0  0  0 
    2.7413    3.9998   -0.0280 C   0  0  0  0  0  0  0  0  0  0  0  0 
    3.1308    0.8667   -1.9502 N   0  0  0  0  0  0  0  0  0  0  0  0 
    3.7779    1.7562   -2.7489 N   0  0  0  0  0  0  0  0  0  0  0  0 
    2.2528    3.7077    1.0632 O   0  0  0  0  0  0  0  0  0  0  0  0 
    0.6682   -0.8140    0.5516 H   0  0  0  0  0  0  0  0  0  0  0  0 
    1.9396   -1.1263   -0.6474 H   0  0  0  0  0  0  0  0  0  0  0  0 
    0.5397   -0.1407   -1.0857 H   0  0  0  0  0  0  0  0  0  0  0  0 
    2.3863    0.0787    2.1947 H   0  0  0  0  0  0  0  0  0  0  0  0 
    3.4071    1.4602    1.7585 H   0  0  0  0  0  0  0  0  0  0  0  0 
    3.7187   -0.1421    1.0420 H   0  0  0  0  0  0  0  0  0  0  0  0 
    1.9138    6.2150    1.3798 H   0  0  0  0  0  0  0  0  0  0  0  0 
    0.9341    6.1355   -0.0882 H   0  0  0  0  0  0  0  0  0  0  0  0 
    2.1403    7.4251    0.0934 H   0  0  0  0  0  0  0  0  0  0  0  0 
    4.6295    6.9108   -0.0768 H   0  0  0  0  0  0  0  0  0  0  0  0 
    5.1955    5.2462   -0.3153 H   0  0  0  0  0  0  0  0  0  0  0  0 
    4.4754    5.7204    1.2304 H   0  0  0  0  0  0  0  0  0  0  0  0 
    5.5627    4.4489   -4.7767 H   0  0  0  0  0  0  0  0  0  0  0  0 
    5.4609    2.0785   -5.6133 H   0  0  0  0  0  0  0  0  0  0  0  0 
    4.5107    5.0520   -2.6392 H   0  0  0  0  0  0  0  0  0  0  0  0 
    4.2611    0.3557   -4.1909 H   0  0  0  0  0  0  0  0  0  0  0  0 
    1.2435    1.6010    0.6031 H   0  0  0  0  0  0  0  0  0  0  0  0 
    2.9549    5.6222   -1.4377 H   0  0  0  0  0  0  0  0  0  0  0  0 
  1  9  1  0  0  0  0 
  1 18  1  0  0  0  0 
  2 22  1  0  0  0  0 
  2 21  1  0  0  0  0 
  3 24  1  0  0  0  0 
  4 29  1  0  0  0  0 
  5  7  2  0  0  0  0 
  6  5  1  0  0  0  0 
  6  8  2  0  0  0  0 
  7 32  1  0  0  0  0 
  7 11  1  0  0  0  0 
  8 16  1  0  0  0  0 
  9 34  1  0  0  0  0 
  9  2  1  0  0  0  0 
 10 14  1  0  0  0  0 
 10  4  1  0  0  0  0 
 10  3  1  0  0  0  0 
 11 12  2  0  0  0  0 
 12 13  1  0  0  0  0 
 12 14  1  0  0  0  0 
 13  9  1  0  0  0  0 
 14 17  2  0  0  0  0 
 15 13  2  0  0  0  0 
 16 11  1  0  0  0  0 
 16 15  1  0  0  0  0 
 19  1  1  0  0  0  0 
 20  1  1  0  0  0  0 
 23  2  1  0  0  0  0 
 25  3  1  0  0  0  0 
 26  3  1  0  0  0  0 
 27  4  1  0  0  0  0 
 28  4  1  0  0  0  0 
 30  5  1  0  0  0  0 
 31  6  1  0  0  0  0 
 33  8  1  0  0  0  0 
 35 10  1  0  0  0  0 
M  END 
>  <HBA> 
3 
 
>  <HBD> 
0 
 
>  <TPSA> 
34.37 
 
>  <cid> 
3671 
 
>  <dipole> 
4.7 
 
>  <excitation_energy_1> 
3.827 
 
>  <excitation_energy_2> 
3.982 
 
>  <excitation_energy_3> 
4.51 
 
>  <excitation_energy_4> 
4.639 
 
>  <homo_energy> 
-5.94 
 
>  <homo_lumo_gap> 
4.555 
 
>  <logP> 
3.296 
 
>  <lumo_energy> 
-1.385 
 
>  <melting_point> 
94.46 
 
>  <molecular_refractivity> 
69.58 
 
>  <oscillator_strength_1> 
0.0013 
 
>  <oscillator_strength_2> 
0.1116 
 
>  <oscillator_strength_3> 
0.088 
 
>  <oscillator_strength_4> 
0.014 
 
>  <open_babel_can_smiles> 
CC(C(=O)c1c(nn2c1cccc2)C(C)C)C 
 
>  <mulliken_charges> 
35 
1   -0.441118 
2   -0.444972 
3   -0.439195 
4   -0.453431 
5   -0.109573 
6   -0.190154 
7   -0.209205 
8   0.102751 
9   -0.127746 
10   -0.167877 
11   0.40234 
12   -0.137047 
13   0.330318 
14   0.402372 
15   -0.387649 
16   -0.367048 
17   -0.505009 
18   0.135977 
19   0.155676 
20   0.142984 
21   0.141064 
22   0.167489 
23   0.140112 
24   0.170552 
25   0.14663 
26   0.133116 
27   0.147653 
28   0.147663 
29   0.165714 
30   0.149308 
31   0.153546 
32   0.163319 
33   0.188456 
34   0.164443 
35   0.128541 
 
>  <lowdin_charges> 
35 
1   -0.444072 
2   -0.440881 
3   -0.435895 
4   -0.441024 
5   -0.144071 
6   -0.184091 
7   -0.172804 
8   -0.079675 
9   -0.12642 
10   -0.149404 
11   0.043921 
12   -0.140957 
13   0.056371 
14   0.155656 
15   -0.171924 
16   0.104577 
17   -0.271733 
18   0.148237 
19   0.155493 
20   0.150907 
21   0.150159 
22   0.161904 
23   0.146605 
24   0.161261 
25   0.15186 
26   0.14452 
27   0.150541 
28   0.150734 
29   0.158761 
30   0.170047 
31   0.174016 
32   0.175864 
33   0.185462 
34   0.166796 
35   0.13926 
 
$$$$ 
 
