PCCDB-ID:  273 
public computational chemistry database (PCCDB) project, http://pccdb.org 
 
 21 20  0  0  0  0  0  0  0  0999 V2000 
    1.4366   -0.3495   -0.9713 C   0  0  0  0  0  0  0  0  0  0  0  0 
    1.0234   -1.4745   -1.9316 C   0  0  0  0  0  0  0  0  0  0  0  0 
    2.8542   -0.4887   -0.3880 C   0  0  0  0  0  0  0  0  0  0  0  0 
   -0.3828   -1.3047   -2.5182 C   0  0  0  0  0  0  0  0  0  0  0  0 
    3.9967   -0.4219   -1.4091 C   0  0  0  0  0  0  0  0  0  0  0  0 
   -1.4153   -1.3731   -1.4755 N   0  0  0  0  0  0  0  0  0  0  0  0 
    4.0167    0.8729   -2.1048 N   0  0  0  0  0  0  0  0  0  0  0  0 
    0.7307   -0.3201   -0.1308 H   0  0  0  0  0  0  0  0  0  0  0  0 
    1.3448    0.6233   -1.4776 H   0  0  0  0  0  0  0  0  0  0  0  0 
    1.0685   -2.4376   -1.4064 H   0  0  0  0  0  0  0  0  0  0  0  0 
    1.7337   -1.5329   -2.7682 H   0  0  0  0  0  0  0  0  0  0  0  0 
    2.9278   -1.4427    0.1531 H   0  0  0  0  0  0  0  0  0  0  0  0 
    3.0111    0.3101    0.3474 H   0  0  0  0  0  0  0  0  0  0  0  0 
   -0.5736   -2.1263   -3.2194 H   0  0  0  0  0  0  0  0  0  0  0  0 
   -0.4122   -0.3716   -3.1134 H   0  0  0  0  0  0  0  0  0  0  0  0 
    3.9405   -1.2910   -2.0894 H   0  0  0  0  0  0  0  0  0  0  0  0 
    4.9467   -0.5170   -0.8691 H   0  0  0  0  0  0  0  0  0  0  0  0 
   -1.3987   -0.5217   -0.9167 H   0  0  0  0  0  0  0  0  0  0  0  0 
   -2.3367   -1.3998   -1.9090 H   0  0  0  0  0  0  0  0  0  0  0  0 
    3.2350    0.9241   -2.7564 H   0  0  0  0  0  0  0  0  0  0  0  0 
    4.8562    0.9378   -2.6785 H   0  0  0  0  0  0  0  0  0  0  0  0 
  1  3  1  0  0  0  0 
  1  8  1  0  0  0  0 
  2 10  1  0  0  0  0 
  2  1  1  0  0  0  0 
  3 12  1  0  0  0  0 
  3 13  1  0  0  0  0 
  4  2  1  0  0  0  0 
  4  6  1  0  0  0  0 
  5 17  1  0  0  0  0 
  5  3  1  0  0  0  0 
  6 18  1  0  0  0  0 
  7  5  1  0  0  0  0 
  9  1  1  0  0  0  0 
 11  2  1  0  0  0  0 
 14  4  1  0  0  0  0 
 15  4  1  0  0  0  0 
 16  5  1  0  0  0  0 
 19  6  1  0  0  0  0 
 20  7  1  0  0  0  0 
 21  7  1  0  0  0  0 
M  END 
>  <HBA> 
2 
 
>  <HBD> 
2 
 
>  <TPSA> 
52.04 
 
>  <cid> 
273 
 
>  <dipole> 
1.68 
 
>  <excitation_energy_1> 
5.577 
 
>  <excitation_energy_2> 
5.625 
 
>  <excitation_energy_3> 
6.172 
 
>  <excitation_energy_4> 
6.207 
 
>  <homo_energy> 
-6.223 
 
>  <homo_lumo_gap> 
8.052 
 
>  <logP> 
1.475 
 
>  <lumo_energy> 
1.829 
 
>  <melting_point> 
82.6 
 
>  <molecular_refractivity> 
31.56 
 
>  <oscillator_strength_1> 
0.0119 
 
>  <oscillator_strength_2> 
0.0086 
 
>  <oscillator_strength_3> 
0.0274 
 
>  <oscillator_strength_4> 
0.0035 
 
>  <open_babel_can_smiles> 
NCCCCCN 
 
>  <mulliken_charges> 
21 
1   -0.276919 
2   -0.241002 
3   -0.240259 
4   -0.13951 
5   -0.143719 
6   -0.716056 
7   -0.716993 
8   0.136427 
9   0.128912 
10   0.142967 
11   0.122441 
12   0.126212 
13   0.141049 
14   0.135939 
15   0.10667 
16   0.115486 
17   0.137218 
18   0.296842 
19   0.295312 
20   0.294398 
21   0.294584 
 
>  <lowdin_charges> 
21 
1   -0.284402 
2   -0.283428 
3   -0.279465 
4   -0.205287 
5   -0.208322 
6   -0.560306 
7   -0.563368 
8   0.145019 
9   0.136227 
10   0.147235 
11   0.137981 
12   0.141041 
13   0.149623 
14   0.143284 
15   0.113389 
16   0.116842 
17   0.143348 
18   0.251367 
19   0.25392 
20   0.250828 
21   0.254473 
 
$$$$ 
 
