PCCDB-ID:  355 
public computational chemistry database (PCCDB) project, http://pccdb.org 
 
 18 18  0  0  0  0  0  0  0  0999 V2000 
   -0.8136    0.7259    0.4428 C   0  0  0  0  0  0  0  0  0  0  0  0 
    1.0406   -0.4748   -0.5663 C   0  0  0  0  0  0  0  0  0  0  0  0 
   -1.5280   -0.4619    0.5220 C   0  0  0  0  0  0  0  0  0  0  0  0 
    0.3333   -1.6592   -0.4900 C   0  0  0  0  0  0  0  0  0  0  0  0 
    0.4856    0.7403   -0.1038 C   0  0  0  0  0  0  0  0  0  0  0  0 
   -0.9611   -1.6567    0.0573 C   0  0  0  0  0  0  0  0  0  0  0  0 
    1.3073    1.9464   -0.2245 C   0  0  0  0  0  0  0  0  0  0  0  0 
    0.8096    3.3480    0.2461 C   0  0  0  0  0  0  0  0  0  0  0  0 
   -1.6121   -2.8450    0.1092 O   0  0  0  0  0  0  0  0  0  0  0  0 
    2.4439    1.9389   -0.7033 O   0  0  0  0  0  0  0  0  0  0  0  0 
   -0.2639    3.5929    0.7465 O   0  0  0  0  0  0  0  0  0  0  0  0 
    1.7426    4.2764    0.0232 O   0  0  0  0  0  0  0  0  0  0  0  0 
   -1.2515    1.6485    0.8003 H   0  0  0  0  0  0  0  0  0  0  0  0 
    2.0410   -0.4590   -0.9854 H   0  0  0  0  0  0  0  0  0  0  0  0 
   -2.5305   -0.4654    0.9452 H   0  0  0  0  0  0  0  0  0  0  0  0 
    0.7516   -2.5957   -0.8439 H   0  0  0  0  0  0  0  0  0  0  0  0 
   -2.4908   -2.7168    0.5016 H   0  0  0  0  0  0  0  0  0  0  0  0 
    2.4979    3.7917   -0.3866 H   0  0  0  0  0  0  0  0  0  0  0  0 
  1  3  1  0  0  0  0 
  1 13  1  0  0  0  0 
  2  4  2  0  0  0  0 
  2  5  1  0  0  0  0 
  3 15  1  0  0  0  0 
  4  6  1  0  0  0  0 
  5  1  2  0  0  0  0 
  6  9  1  0  0  0  0 
  6  3  2  0  0  0  0 
  7  5  1  0  0  0  0 
  7  8  1  0  0  0  0 
  8 11  2  0  0  0  0 
  9 17  1  0  0  0  0 
 10  7  2  0  0  0  0 
 12  8  1  0  0  0  0 
 14  2  1  0  0  0  0 
 16  4  1  0  0  0  0 
 18 12  1  0  0  0  0 
M  END 
>  <HBA> 
4 
 
>  <HBD> 
2 
 
>  <TPSA> 
74.6 
 
>  <cid> 
355 
 
>  <dipole> 
4.14 
 
>  <excitation_energy_1> 
3.136 
 
>  <excitation_energy_2> 
3.964 
 
>  <excitation_energy_3> 
4.123 
 
>  <excitation_energy_4> 
4.937 
 
>  <homo_energy> 
-6.814 
 
>  <homo_lumo_gap> 
4.256 
 
>  <logP> 
0.659 
 
>  <lumo_energy> 
-2.558 
 
>  <melting_point> 
156.34 
 
>  <molecular_refractivity> 
40.43 
 
>  <oscillator_strength_1> 
0.0 
 
>  <oscillator_strength_2> 
0.3162 
 
>  <oscillator_strength_3> 
0.0076 
 
>  <oscillator_strength_4> 
0.0 
 
>  <open_babel_can_smiles> 
Oc1ccc(cc1)C(=O)C(=O)O 
 
>  <mulliken_charges> 
18 
1   -0.169004 
2   -0.152327 
3   -0.206164 
4   -0.161586 
5   0.065214 
6   0.372446 
7   0.303448 
8   0.57311 
9   -0.622476 
10   -0.504617 
11   -0.451172 
12   -0.566835 
13   0.201907 
14   0.171871 
15   0.136471 
16   0.156072 
17   0.417773 
18   0.435869 
 
>  <lowdin_charges> 
18 
1   -0.11777 
2   -0.106357 
3   -0.212427 
4   -0.182523 
5   -0.068276 
6   0.127145 
7   0.120597 
8   0.162622 
9   -0.349912 
10   -0.256653 
11   -0.233381 
12   -0.328705 
13   0.194277 
14   0.17975 
15   0.160737 
16   0.17543 
17   0.364421 
18   0.371025 
 
$$$$ 
 
