PCCDB-ID:  1669 
public computational chemistry database (PCCDB) project, http://pccdb.org 
 
 25 25  0  0  0  0  0  0  0  0999 V2000 
    1.7287   -2.1661    0.3550 C   0  0  0  0  0  0  0  0  0  0  0  0 
    4.1390   -2.5294   -4.0107 C   0  0  0  0  0  0  0  0  0  0  0  0 
    3.8235   -3.6117   -3.1870 C   0  0  0  0  0  0  0  0  0  0  0  0 
    4.4694   -0.0401   -4.3962 C   0  0  0  0  0  0  0  0  0  0  0  0 
    5.9333    0.3926   -4.2075 C   0  0  0  0  0  0  0  0  0  0  0  0 
    3.6943   -1.0275   -2.1953 C   0  0  0  0  0  0  0  0  0  0  0  0 
    4.0865   -1.2185   -3.5280 C   0  0  0  0  0  0  0  0  0  0  0  0 
    3.4495   -3.4094   -1.8584 C   0  0  0  0  0  0  0  0  0  0  0  0 
    3.3749   -2.0945   -1.3586 C   0  0  0  0  0  0  0  0  0  0  0  0 
    6.2233    1.5763   -5.0245 N   0  0  0  0  0  0  0  0  0  0  0  0 
    3.1520   -4.4395   -1.0030 O   0  0  0  0  0  0  0  0  0  0  0  0 
    3.0597   -1.8339   -0.0467 O   0  0  0  0  0  0  0  0  0  0  0  0 
    1.6384   -1.8396    1.3937 H   0  0  0  0  0  0  0  0  0  0  0  0 
    1.5449   -3.2430    0.2921 H   0  0  0  0  0  0  0  0  0  0  0  0 
    0.9911   -1.6305   -0.2579 H   0  0  0  0  0  0  0  0  0  0  0  0 
    4.4284   -2.7149   -5.0424 H   0  0  0  0  0  0  0  0  0  0  0  0 
    3.8745   -4.6274   -3.5775 H   0  0  0  0  0  0  0  0  0  0  0  0 
    4.3081   -0.2934   -5.4535 H   0  0  0  0  0  0  0  0  0  0  0  0 
    3.8315    0.8251   -4.1808 H   0  0  0  0  0  0  0  0  0  0  0  0 
    6.5894   -0.4733   -4.4108 H   0  0  0  0  0  0  0  0  0  0  0  0 
    6.0917    0.6633   -3.1565 H   0  0  0  0  0  0  0  0  0  0  0  0 
    3.6310   -0.0273   -1.7745 H   0  0  0  0  0  0  0  0  0  0  0  0 
    6.1890    1.3248   -6.0123 H   0  0  0  0  0  0  0  0  0  0  0  0 
    7.1772    1.8891   -4.8500 H   0  0  0  0  0  0  0  0  0  0  0  0 
    3.2516   -5.2757   -1.4838 H   0  0  0  0  0  0  0  0  0  0  0  0 
  1 13  1  0  0  0  0 
  2  7  2  0  0  0  0 
  2  3  1  0  0  0  0 
  3  8  2  0  0  0  0 
  4  5  1  0  0  0  0 
  4 19  1  0  0  0  0 
  4  7  1  0  0  0  0 
  5 21  1  0  0  0  0 
  6 22  1  0  0  0  0 
  6  9  2  0  0  0  0 
  7  6  1  0  0  0  0 
  8  9  1  0  0  0  0 
  8 11  1  0  0  0  0 
  9 12  1  0  0  0  0 
 10 24  1  0  0  0  0 
 10  5  1  0  0  0  0 
 12  1  1  0  0  0  0 
 14  1  1  0  0  0  0 
 15  1  1  0  0  0  0 
 16  2  1  0  0  0  0 
 17  3  1  0  0  0  0 
 18  4  1  0  0  0  0 
 20  5  1  0  0  0  0 
 23 10  1  0  0  0  0 
 25 11  1  0  0  0  0 
M  END 
>  <HBA> 
3 
 
>  <HBD> 
2 
 
>  <TPSA> 
55.48 
 
>  <cid> 
1669 
 
>  <dipole> 
2.75 
 
>  <excitation_energy_1> 
4.901 
 
>  <excitation_energy_2> 
4.954 
 
>  <excitation_energy_3> 
5.424 
 
>  <excitation_energy_4> 
5.528 
 
>  <homo_energy> 
-5.685 
 
>  <homo_lumo_gap> 
5.829 
 
>  <logP> 
1.602 
 
>  <lumo_energy> 
0.144 
 
>  <melting_point> 
107.82 
 
>  <molecular_refractivity> 
47.44 
 
>  <oscillator_strength_1> 
0.044 
 
>  <oscillator_strength_2> 
0.001 
 
>  <oscillator_strength_3> 
0.0119 
 
>  <oscillator_strength_4> 
0.0227 
 
>  <open_babel_can_smiles> 
NCCc1ccc(c(c1)OC)O 
 
>  <mulliken_charges> 
25 
1   -0.212944 
2   -0.188636 
3   -0.199068 
4   -0.34087 
5   -0.129875 
6   -0.23645 
7   0.165873 
8   0.311256 
9   0.333057 
10   -0.714833 
11   -0.643535 
12   -0.521269 
13   0.157373 
14   0.167159 
15   0.137895 
16   0.119424 
17   0.116759 
18   0.130379 
19   0.157554 
20   0.116283 
21   0.146122 
22   0.133356 
23   0.29063 
24   0.296246 
25   0.408114 
 
>  <lowdin_charges> 
25 
1   -0.273915 
2   -0.168214 
3   -0.208725 
4   -0.274446 
5   -0.202905 
6   -0.177458 
7   -0.014159 
8   0.073196 
9   0.069725 
10   -0.556026 
11   -0.37793 
12   -0.224854 
13   0.154177 
14   0.14988 
15   0.139439 
16   0.153211 
17   0.151368 
18   0.141117 
19   0.15767 
20   0.119447 
21   0.143551 
22   0.164792 
23   0.248668 
24   0.25368 
25   0.358712 
 
$$$$ 
 
