PCCDB-ID:  1468 
public computational chemistry database (PCCDB) project, http://pccdb.org 
 
 28 30  0  0  1  0  0  0  0  0999 V2000 
    1.1212    0.4220    0.2088 C   0  0  0  0  0  0  0  0  0  0  0  0 
    1.0029   -0.8456   -0.1854 C   0  0  0  0  0  0  0  0  0  0  0  0 
   -1.2603   -1.1668    3.9662 C   0  0  0  0  0  0  0  0  0  0  0  0 
   -0.6744    2.7567    2.1862 C   0  0  0  0  0  0  0  0  0  0  0  0 
   -0.2214    1.1184    0.2978 C   0  0  1  0  0  0  0  0  0  0  0  0 
   -0.4321   -1.2497   -0.3905 C   0  0  1  0  0  0  0  0  0  0  0  0 
   -1.1045    1.4875    3.8239 C   0  0  0  0  0  0  0  0  0  0  0  0 
   -1.2026    0.1140   -0.3767 C   0  0  2  0  0  0  0  0  0  0  0  0 
   -1.4360    0.8632    5.0444 C   0  0  2  0  0  0  0  0  0  0  0  0 
   -0.8666    0.6350    2.7391 C   0  0  0  0  0  0  0  0  0  0  0  0 
   -1.6587    1.5718    6.1811 N   0  0  0  0  0  0  0  0  0  0  0  0 
   -1.5110   -0.4788    5.0913 N   0  0  0  0  0  0  0  0  0  0  0  0 
   -0.9344   -0.7059    2.7550 N   0  0  0  0  0  0  0  0  0  0  0  0 
   -0.9810    2.8157    3.4597 N   0  0  0  0  0  0  0  0  0  0  0  0 
   -0.5859    1.4745    1.6770 N   0  0  0  0  0  0  0  0  0  0  0  0 
   -0.5868   -1.9229   -1.6498 O   0  0  0  0  0  0  0  0  0  0  0  0 
   -1.4516    0.5447   -1.6988 O   0  0  0  0  0  0  0  0  0  0  0  0 
    2.0478    0.9243    0.4704 H   0  0  0  0  0  0  0  0  0  0  0  0 
    1.8168   -1.5519   -0.3164 H   0  0  0  0  0  0  0  0  0  0  0  0 
   -1.3382   -2.2485    4.0576 H   0  0  0  0  0  0  0  0  0  0  0  0 
   -0.4989    3.6142    1.5482 H   0  0  0  0  0  0  0  0  0  0  0  0 
   -0.2463    2.0575   -0.2641 H   0  0  0  0  0  0  0  0  0  0  0  0 
   -0.7673   -1.8908    0.4327 H   0  0  0  0  0  0  0  0  0  0  0  0 
   -2.1439    0.0525    0.1842 H   0  0  0  0  0  0  0  0  0  0  0  0 
   -1.7923    2.5697    6.1114 H   0  0  0  0  0  0  0  0  0  0  0  0 
   -2.0642    1.0824    6.9654 H   0  0  0  0  0  0  0  0  0  0  0  0 
   -1.3782   -2.4810   -1.5926 H   0  0  0  0  0  0  0  0  0  0  0  0 
   -1.2101   -0.2148   -2.2650 H   0  0  0  0  0  0  0  0  0  0  0  0 
  1  5  1  0  0  0  0 
  1 18  1  0  0  0  0 
  2  1  2  0  0  0  0 
  3 20  1  0  0  0  0 
  3 12  2  0  0  0  0 
  4 14  2  0  0  0  0 
  5 22  1  6  0  0  0 
  5 15  1  0  0  0  0 
  6  8  1  0  0  0  0 
  6  2  1  0  0  0  0 
  6 23  1  1  0  0  0 
  7  9  1  0  0  0  0 
  8 24  1  1  0  0  0 
  8  5  1  0  0  0  0 
  9 12  1  0  0  0  0 
  9 11  1  1  0  0  0 
 10 13  1  0  0  0  0 
 10  7  2  0  0  0  0 
 11 26  1  0  0  0  0 
 13  3  1  0  0  0  0 
 14  7  1  0  0  0  0 
 15  4  1  0  0  0  0 
 15 10  1  0  0  0  0 
 16 27  1  0  0  0  0 
 16  6  1  0  0  0  0 
 17  8  1  0  0  0  0 
 19  2  1  0  0  0  0 
 21  4  1  0  0  0  0 
 25 11  1  0  0  0  0 
 28 17  1  0  0  0  0 
M  RAD  2   9   2  13   2 
M  END 
>  <HBA> 
7 
 
>  <HBD> 
3 
 
>  <TPSA> 
110.08 
 
>  <cid> 
1468 
 
>  <dipole> 
0.53 
 
>  <excitation_energy_1> 
4.83 
 
>  <excitation_energy_2> 
4.987 
 
>  <excitation_energy_3> 
5.027 
 
>  <excitation_energy_4> 
5.206 
 
>  <homo_energy> 
-5.924 
 
>  <homo_lumo_gap> 
5.412 
 
>  <logP> 
-0.178 
 
>  <lumo_energy> 
-0.512 
 
>  <melting_point> 
214.44 
 
>  <molecular_refractivity> 
59.95 
 
>  <oscillator_strength_1> 
0.1071 
 
>  <oscillator_strength_2> 
0.0065 
 
>  <oscillator_strength_3> 
0.0918 
 
>  <oscillator_strength_4> 
0.0528 
 
>  <open_babel_can_smiles> 
O[C@H]1C=C[C@@H]([C@H]1O)n1cnc2c1[N]C=N[C]2N 
 
>  <mulliken_charges> 
28 
1   -0.090564 
2   -0.089044 
3   0.16284 
4   0.217247 
5   -0.052072 
6   0.045596 
7   0.187478 
8   0.114939 
9   0.4878 
10   0.527507 
11   -0.775517 
12   -0.509945 
13   -0.515494 
14   -0.531105 
15   -0.489647 
16   -0.635294 
17   -0.653998 
18   0.144299 
19   0.149351 
20   0.140948 
21   0.165217 
22   0.173723 
23   0.175599 
24   0.136695 
25   0.354642 
26   0.343515 
27   0.405516 
28   0.409769 
 
>  <lowdin_charges> 
28 
1   -0.163934 
2   -0.14888 
3   -0.036185 
4   -0.067771 
5   -0.059444 
6   -0.030271 
7   -0.059732 
8   -0.017411 
9   0.118644 
10   0.056385 
11   -0.439456 
12   -0.221276 
13   -0.210939 
14   -0.194315 
15   -0.021468 
16   -0.454139 
17   -0.469385 
18   0.164104 
19   0.1684 
20   0.153197 
21   0.172122 
22   0.168001 
23   0.161497 
24   0.140036 
25   0.297692 
26   0.295478 
27   0.353486 
28   0.345565 
 
$$$$ 
 
