PCCDB-ID:  6097 
public computational chemistry database (PCCDB) project, http://pccdb.org 
 
 18 19  0  0  1  0  0  0  0  0999 V2000 
    2.1747   -0.6348   -0.0679 C   0  0  0  0  0  0  0  0  0  0  0  0 
    2.1031    0.7569    0.0323 C   0  0  0  0  0  0  0  0  0  0  0  0 
    1.0020   -1.4059   -0.0969 C   0  0  0  0  0  0  0  0  0  0  0  0 
    0.8703    1.4222    0.0941 C   0  0  0  0  0  0  0  0  0  0  0  0 
   -0.2166   -0.7492   -0.0445 C   0  0  0  0  0  0  0  0  0  0  0  0 
   -0.2881    0.6568    0.0464 C   0  0  0  0  0  0  0  0  0  0  0  0 
   -1.6412   -1.2436   -0.0007 C   0  0  1  0  0  0  0  0  0  0  0  0 
   -2.3680    0.1079   -0.0186 C   0  0  0  0  0  0  0  0  0  0  0  0 
   -1.6253    1.1524    0.0499 N   0  0  0  0  0  0  0  0  0  0  0  0 
   -2.1116   -2.1364   -1.0061 O   0  0  0  0  0  0  0  0  0  0  0  0 
   -3.7036    0.1496   -0.1107 O   0  0  0  0  0  0  0  0  0  0  0  0 
    3.1432   -1.1239   -0.1188 H   0  0  0  0  0  0  0  0  0  0  0  0 
    3.0214    1.3376    0.0608 H   0  0  0  0  0  0  0  0  0  0  0  0 
    1.0520   -2.4899   -0.1650 H   0  0  0  0  0  0  0  0  0  0  0  0 
    0.8115    2.5034    0.1700 H   0  0  0  0  0  0  0  0  0  0  0  0 
   -1.8579   -1.7516    0.9489 H   0  0  0  0  0  0  0  0  0  0  0  0 
   -1.7739   -1.8141   -1.8589 H   0  0  0  0  0  0  0  0  0  0  0  0 
   -4.0022   -0.7515   -0.3325 H   0  0  0  0  0  0  0  0  0  0  0  0 
  1  2  1  0  0  0  0 
  2 13  1  0  0  0  0 
  2  4  2  0  0  0  0 
  3  1  2  0  0  0  0 
  3  5  1  0  0  0  0 
  4 15  1  0  0  0  0 
  5  7  1  0  0  0  0 
  5  6  2  0  0  0  0 
  6  9  1  0  0  0  0 
  6  4  1  0  0  0  0 
  7 16  1  1  0  0  0 
  8  7  1  0  0  0  0 
  8  9  2  0  0  0  0 
 10  7  1  0  0  0  0 
 11  8  1  0  0  0  0 
 12  1  1  0  0  0  0 
 14  3  1  0  0  0  0 
 17 10  1  0  0  0  0 
 18 11  1  0  0  0  0 
M  END 
>  <HBA> 
3 
 
>  <HBD> 
2 
 
>  <TPSA> 
49.33 
 
>  <cid> 
6097 
 
>  <dipole> 
2.7 
 
>  <excitation_energy_1> 
4.122 
 
>  <excitation_energy_2> 
4.731 
 
>  <excitation_energy_3> 
4.96 
 
>  <excitation_energy_4> 
5.458 
 
>  <homo_energy> 
-6.011 
 
>  <homo_lumo_gap> 
4.969 
 
>  <logP> 
0.81 
 
>  <lumo_energy> 
-1.042 
 
>  <melting_point> 
105.29 
 
>  <molecular_refractivity> 
42.9 
 
>  <oscillator_strength_1> 
0.0373 
 
>  <oscillator_strength_2> 
0.0009 
 
>  <oscillator_strength_3> 
0.0111 
 
>  <oscillator_strength_4> 
0.0302 
 
>  <open_babel_can_smiles> 
OC1=Nc2c([C@@H]1O)cccc2 
 
>  <mulliken_charges> 
18 
1   -0.138388 
2   -0.13226 
3   -0.202656 
4   -0.189685 
5   0.076572 
6   0.260017 
7   -0.034789 
8   0.501449 
9   -0.497352 
10   -0.616267 
11   -0.58831 
12   0.130263 
13   0.133383 
14   0.137305 
15   0.144476 
16   0.187601 
17   0.403908 
18   0.424736 
 
>  <lowdin_charges> 
18 
1   -0.169882 
2   -0.145271 
3   -0.149518 
4   -0.166954 
5   -0.0682 
6   0.04335 
7   -0.034479 
8   0.10939 
9   -0.184975 
10   -0.446788 
11   -0.32752 
12   0.158686 
13   0.160523 
14   0.159559 
15   0.166986 
16   0.173524 
17   0.353352 
18   0.368218 
 
$$$$ 
 
