PCCDB-ID:  344 
public computational chemistry database (PCCDB) project, http://pccdb.org 
 
 19 19  0  0  1  0  0  0  0  0999 V2000 
    0.7372    1.2889   -0.2013 C   0  0  0  0  0  0  0  0  0  0  0  0 
    1.3914    0.0200    0.3637 C   0  0  2  0  0  0  0  0  0  0  0  0 
   -0.7605    1.3155    0.0803 C   0  0  0  0  0  0  0  0  0  0  0  0 
    0.7394   -1.2537   -0.2136 C   0  0  2  0  0  0  0  0  0  0  0  0 
   -1.5058   -0.0127   -0.2257 C   0  0  0  0  0  0  0  0  0  0  0  0 
   -0.7694   -1.3166    0.1165 C   0  0  2  0  0  0  0  0  0  0  0  0 
    1.2159   -0.0327    1.7912 O   0  0  0  0  0  0  0  0  0  0  0  0 
   -1.3563    2.2919    0.4746 O   0  0  0  0  0  0  0  0  0  0  0  0 
    1.3818   -2.4237    0.2376 O   0  0  0  0  0  0  0  0  0  0  0  0 
   -2.6112    0.0131   -0.7184 O   0  0  0  0  0  0  0  0  0  0  0  0 
   -0.9557   -1.6277    1.4994 O   0  0  0  0  0  0  0  0  0  0  0  0 
    0.8805    1.3194   -1.2924 H   0  0  0  0  0  0  0  0  0  0  0  0 
    1.1883    2.2000    0.2078 H   0  0  0  0  0  0  0  0  0  0  0  0 
    2.4618   -0.0034    0.1222 H   0  0  0  0  0  0  0  0  0  0  0  0 
    0.8685   -1.2181   -1.3034 H   0  0  0  0  0  0  0  0  0  0  0  0 
   -1.2443   -2.1281   -0.4404 H   0  0  0  0  0  0  0  0  0  0  0  0 
    1.6394    0.7419    2.1928 H   0  0  0  0  0  0  0  0  0  0  0  0 
    0.9706   -2.6335    1.0956 H   0  0  0  0  0  0  0  0  0  0  0  0 
   -0.4389   -0.9733    2.0099 H   0  0  0  0  0  0  0  0  0  0  0  0 
  1  3  1  0  0  0  0 
  1 13  1  0  0  0  0 
  1  2  1  0  0  0  0 
  2 14  1  6  0  0  0 
  2  7  1  0  0  0  0 
  3  8  2  0  0  0  0 
  4 15  1  6  0  0  0 
  4  6  1  0  0  0  0 
  4  9  1  0  0  0  0 
  4  2  1  0  0  0  0 
  5  3  1  0  0  0  0 
  5  6  1  0  0  0  0 
  6 16  1  6  0  0  0 
  6 11  1  0  0  0  0 
  7 17  1  0  0  0  0 
  9 18  1  0  0  0  0 
 10  5  2  0  0  0  0 
 11 19  1  0  0  0  0 
 12  1  1  0  0  0  0 
M  END 
>  <HBA> 
5 
 
>  <HBD> 
3 
 
>  <TPSA> 
94.83 
 
>  <cid> 
344 
 
>  <dipole> 
4.7 
 
>  <excitation_energy_1> 
2.61 
 
>  <excitation_energy_2> 
3.954 
 
>  <excitation_energy_3> 
4.496 
 
>  <excitation_energy_4> 
5.058 
 
>  <homo_energy> 
-6.631 
 
>  <homo_lumo_gap> 
4.125 
 
>  <logP> 
-2.389 
 
>  <lumo_energy> 
-2.506 
 
>  <melting_point> 
94.65 
 
>  <molecular_refractivity> 
32.73 
 
>  <oscillator_strength_1> 
0.0001 
 
>  <oscillator_strength_2> 
0.0005 
 
>  <oscillator_strength_3> 
0.0032 
 
>  <oscillator_strength_4> 
0.0013 
 
>  <open_babel_can_smiles> 
O[C@@H]1CC(=O)C(=O)[C@@H]([C@@H]1O)O 
 
>  <mulliken_charges> 
19 
1   -0.392871 
2   0.098999 
3   0.395739 
4   0.105741 
5   0.390413 
6   0.026258 
7   -0.646929 
8   -0.399531 
9   -0.624783 
10   -0.399537 
11   -0.637893 
12   0.182116 
13   0.173038 
14   0.154928 
15   0.14731 
16   0.177652 
17   0.413749 
18   0.408698 
19   0.426902 
 
>  <lowdin_charges> 
19 
1   -0.326684 
2   -0.016869 
3   0.13181 
4   -0.032128 
5   0.111984 
6   -0.042522 
7   -0.467102 
8   -0.176675 
9   -0.442465 
10   -0.162842 
11   -0.453544 
12   0.17621 
13   0.169498 
14   0.149712 
15   0.151578 
16   0.171772 
17   0.359179 
18   0.349688 
19   0.349402 
 
$$$$ 
 
