PCCDB-ID:  668 
public computational chemistry database (PCCDB) project, http://pccdb.org 
 
 17 16  0  0  0  0  0  0  0  0999 V2000 
   -0.7733   -2.5030   -0.3973 C   0  0  0  0  0  0  0  0  0  0  0  0 
    1.4679   -1.1820   -0.3000 C   0  0  0  0  0  0  0  0  0  0  0  0 
   -0.0514   -1.1785   -0.2360 C   0  0  0  0  0  0  0  0  0  0  0  0 
   -2.1236   -2.4170   -0.0486 O   0  0  0  0  0  0  0  0  0  0  0  0 
   -0.7077   -0.1603   -0.0619 O   0  0  0  0  0  0  0  0  0  0  0  0 
    0.8701    2.0462    0.4268 O   0  0  0  0  0  0  0  0  0  0  0  0 
    2.4603    0.5505    1.7700 O   0  0  0  0  0  0  0  0  0  0  0  0 
    3.4272    2.1508   -0.0414 O   0  0  0  0  0  0  0  0  0  0  0  0 
    2.0157    0.0649   -0.6811 O   0  0  0  0  0  0  0  0  0  0  0  0 
    2.2805    1.3130    0.3410 P   0  0  0  0  0  0  0  0  0  0  0  0 
   -0.2782   -3.2717    0.2145 H   0  0  0  0  0  0  0  0  0  0  0  0 
   -0.6316   -2.8095   -1.4519 H   0  0  0  0  0  0  0  0  0  0  0  0 
    1.8032   -1.9206   -1.0366 H   0  0  0  0  0  0  0  0  0  0  0  0 
    1.8390   -1.4991    0.6853 H   0  0  0  0  0  0  0  0  0  0  0  0 
   -2.3518   -1.4691   -0.0628 H   0  0  0  0  0  0  0  0  0  0  0  0 
    0.1335    1.4178    0.2392 H   0  0  0  0  0  0  0  0  0  0  0  0 
    3.3087    0.8164    2.1620 H   0  0  0  0  0  0  0  0  0  0  0  0 
  1  3  1  0  0  0  0 
  1  4  1  0  0  0  0 
  1 11  1  0  0  0  0 
  2  3  1  0  0  0  0 
  2 14  1  0  0  0  0 
  3  5  2  0  0  0  0 
  7 17  1  0  0  0  0 
  8 10  2  0  0  0  0 
  9  2  1  0  0  0  0 
  9 10  1  0  0  0  0 
 10  6  1  0  0  0  0 
 10  7  1  0  0  0  0 
 12  1  1  0  0  0  0 
 13  2  1  0  0  0  0 
 15  4  1  0  0  0  0 
 16  6  1  0  0  0  0 
M  END 
>  <HBA> 
6 
 
>  <HBD> 
3 
 
>  <TPSA> 
113.87 
 
>  <cid> 
668 
 
>  <dipole> 
4.94 
 
>  <excitation_energy_1> 
4.586 
 
>  <excitation_energy_2> 
5.356 
 
>  <excitation_energy_3> 
5.566 
 
>  <excitation_energy_4> 
5.8 
 
>  <homo_energy> 
-7.913 
 
>  <homo_lumo_gap> 
5.948 
 
>  <logP> 
-1.343 
 
>  <lumo_energy> 
-1.965 
 
>  <melting_point> 
95.17 
 
>  <molecular_refractivity> 
29.97 
 
>  <oscillator_strength_1> 
0.0019 
 
>  <oscillator_strength_2> 
0.0272 
 
>  <oscillator_strength_3> 
0.0004 
 
>  <oscillator_strength_4> 
0.0018 
 
>  <open_babel_can_smiles> 
OCC(=O)COP(=O)(O)O 
 
>  <mulliken_charges> 
17 
1   -0.082533 
2   -0.124694 
3   0.424737 
4   -0.607914 
5   -0.474352 
6   -0.65169 
7   -0.67586 
8   -0.524768 
9   -0.521385 
10   1.170258 
11   0.173554 
12   0.169135 
13   0.190797 
14   0.208341 
15   0.415306 
16   0.465487 
17   0.445581 
 
>  <lowdin_charges> 
17 
1   -0.158673 
2   -0.155884 
3   0.159756 
4   -0.444094 
5   -0.236681 
6   -0.564046 
7   -0.587101 
8   -0.56549 
9   -0.384246 
10   1.128062 
11   0.16708 
12   0.15961 
13   0.178009 
14   0.185139 
15   0.351485 
16   0.377315 
17   0.389758 
 
$$$$ 
 
