PCCDB-ID:  4696 
public computational chemistry database (PCCDB) project, http://pccdb.org 
 
 17 18  0  0  1  0  0  0  0  0999 V2000 
    0.6010   -1.5138   -0.1444 C   0  0  0  0  0  0  0  0  0  0  0  0 
    2.0315   -1.0354   -0.1285 C   0  0  0  0  0  0  0  0  0  0  0  0 
   -1.2859    1.4732    0.0086 C   0  0  0  0  0  0  0  0  0  0  0  0 
   -0.1014    0.8358   -0.0553 C   0  0  0  0  0  0  0  0  0  0  0  0 
   -0.3674   -0.5929   -0.0688 C   0  0  0  0  0  0  0  0  0  0  0  0 
   -2.3522    0.4500    0.0467 C   0  0  0  0  0  0  0  0  0  0  0  0 
    1.3304    1.2808   -0.2152 C   0  0  2  0  0  0  0  0  0  0  0  0 
   -3.5471    0.5486    0.1107 O   0  0  0  0  0  0  0  0  0  0  0  0 
    1.6190    1.5861   -1.5612 O   0  0  0  0  0  0  0  0  0  0  0  0 
    2.1876    0.3018    0.3415 O   0  0  0  0  0  0  0  0  0  0  0  0 
   -1.7185   -0.8114   -0.0192 O   0  0  0  0  0  0  0  0  0  0  0  0 
    0.3926   -2.5767   -0.2123 H   0  0  0  0  0  0  0  0  0  0  0  0 
    2.4866   -1.1432   -1.1276 H   0  0  0  0  0  0  0  0  0  0  0  0 
    2.6272   -1.6496    0.5550 H   0  0  0  0  0  0  0  0  0  0  0  0 
   -1.4993    2.5333    0.0192 H   0  0  0  0  0  0  0  0  0  0  0  0 
    1.5507    2.1898    0.3469 H   0  0  0  0  0  0  0  0  0  0  0  0 
    1.1801    0.9354   -2.1333 H   0  0  0  0  0  0  0  0  0  0  0  0 
  1  2  1  0  0  0  0 
  1  5  2  0  0  0  0 
  2 10  1  0  0  0  0 
  2 14  1  0  0  0  0 
  3 15  1  0  0  0  0 
  3  6  1  0  0  0  0 
  4  3  2  0  0  0  0 
  5  4  1  0  0  0  0 
  5 11  1  0  0  0  0 
  6  8  2  0  0  0  0 
  7  4  1  0  0  0  0 
  7 10  1  0  0  0  0 
  7 16  1  1  0  0  0 
  9  7  1  0  0  0  0 
 11  6  1  0  0  0  0 
 12  1  1  0  0  0  0 
 13  2  1  0  0  0  0 
 17  9  1  0  0  0  0 
M  END 
>  <HBA> 
4 
 
>  <HBD> 
1 
 
>  <TPSA> 
55.76 
 
>  <cid> 
4696 
 
>  <dipole> 
3.18 
 
>  <excitation_energy_1> 
4.172 
 
>  <excitation_energy_2> 
4.492 
 
>  <excitation_energy_3> 
4.847 
 
>  <excitation_energy_4> 
5.305 
 
>  <homo_energy> 
-6.898 
 
>  <homo_lumo_gap> 
4.553 
 
>  <logP> 
-0.298 
 
>  <lumo_energy> 
-2.346 
 
>  <melting_point> 
66.46 
 
>  <molecular_refractivity> 
34.12 
 
>  <oscillator_strength_1> 
0.0001 
 
>  <oscillator_strength_2> 
0.3612 
 
>  <oscillator_strength_3> 
0.0128 
 
>  <oscillator_strength_4> 
0.0177 
 
>  <open_babel_can_smiles> 
O=C1OC2=CCO[C@H](C2=C1)O 
 
>  <mulliken_charges> 
17 
1   -0.241227 
2   -0.07797 
3   -0.257279 
4   0.085353 
5   0.397869 
6   0.593046 
7   0.26231 
8   -0.448535 
9   -0.589253 
10   -0.461413 
11   -0.513266 
12   0.1695 
13   0.157748 
14   0.179092 
15   0.174788 
16   0.171182 
17   0.398055 
 
>  <lowdin_charges> 
17 
1   -0.190417 
2   -0.126212 
3   -0.19263 
4   -0.021866 
5   0.079829 
6   0.198899 
7   0.09865 
8   -0.207419 
9   -0.432136 
10   -0.251819 
11   -0.158013 
12   0.181212 
13   0.146961 
14   0.171073 
15   0.1864 
16   0.167278 
17   0.35021 
 
$$$$ 
 
