PCCDB-ID:  3106 
public computational chemistry database (PCCDB) project, http://pccdb.org 
 
 40 40  0  0  0  0  0  0  0  0999 V2000 
   -0.4846    1.7448   -0.7239 C   0  0  0  0  0  0  0  0  0  0  0  0 
    4.9470   -1.1624   -1.9532 C   0  0  0  0  0  0  0  0  0  0  0  0 
    0.9387    1.5373   -0.1956 C   0  0  0  0  0  0  0  0  0  0  0  0 
    4.3167    0.2325   -2.0271 C   0  0  0  0  0  0  0  0  0  0  0  0 
    6.1574    5.8410   -0.0222 C   0  0  0  0  0  0  0  0  0  0  0  0 
    7.0404    6.8312   -0.4651 C   0  0  0  0  0  0  0  0  0  0  0  0 
    4.0162    4.5011   -0.2420 C   0  0  0  0  0  0  0  0  0  0  0  0 
    1.9949    2.1964   -1.0919 C   0  0  0  0  0  0  0  0  0  0  0  0 
    3.9609    0.7771   -0.6287 C   0  0  0  0  0  0  0  0  0  0  0  0 
    4.2369    3.1826   -1.0147 C   0  0  0  0  0  0  0  0  0  0  0  0 
    4.6505    6.3735   -1.8246 C   0  0  0  0  0  0  0  0  0  0  0  0 
    4.9545    5.5994   -0.6941 C   0  0  0  0  0  0  0  0  0  0  0  0 
    6.7257    7.5878   -1.5870 C   0  0  0  0  0  0  0  0  0  0  0  0 
    5.5217    7.3602   -2.2746 C   0  0  0  0  0  0  0  0  0  0  0  0 
    3.3548    2.1089   -0.5543 N   0  0  0  0  0  0  0  0  0  0  0  0 
    7.5168    8.5908   -2.1105 O   0  0  0  0  0  0  0  0  0  0  0  0 
    5.2047    8.1045   -3.3742 O   0  0  0  0  0  0  0  0  0  0  0  0 
   -1.2233    1.2600   -0.0760 H   0  0  0  0  0  0  0  0  0  0  0  0 
   -0.6025    1.3272   -1.7316 H   0  0  0  0  0  0  0  0  0  0  0  0 
   -0.7383    2.8109   -0.7771 H   0  0  0  0  0  0  0  0  0  0  0  0 
    5.2074   -1.5382   -2.9490 H   0  0  0  0  0  0  0  0  0  0  0  0 
    4.2606   -1.8852   -1.4944 H   0  0  0  0  0  0  0  0  0  0  0  0 
    5.8645   -1.1527   -1.3513 H   0  0  0  0  0  0  0  0  0  0  0  0 
    1.1354    0.4611   -0.1059 H   0  0  0  0  0  0  0  0  0  0  0  0 
    1.0355    1.9549    0.8143 H   0  0  0  0  0  0  0  0  0  0  0  0 
    3.4174    0.1926   -2.6554 H   0  0  0  0  0  0  0  0  0  0  0  0 
    5.0105    0.9226   -2.5252 H   0  0  0  0  0  0  0  0  0  0  0  0 
    6.4099    5.2586    0.8601 H   0  0  0  0  0  0  0  0  0  0  0  0 
    7.9715    7.0167    0.0679 H   0  0  0  0  0  0  0  0  0  0  0  0 
    4.1557    4.2943    0.8250 H   0  0  0  0  0  0  0  0  0  0  0  0 
    2.9772    4.8305   -0.3653 H   0  0  0  0  0  0  0  0  0  0  0  0 
    1.7435    3.2595   -1.1826 H   0  0  0  0  0  0  0  0  0  0  0  0 
    1.9188    1.7832   -2.1164 H   0  0  0  0  0  0  0  0  0  0  0  0 
    4.8744    0.7997   -0.0179 H   0  0  0  0  0  0  0  0  0  0  0  0 
    3.2873    0.0673   -0.1321 H   0  0  0  0  0  0  0  0  0  0  0  0 
    5.2733    2.8653   -0.8505 H   0  0  0  0  0  0  0  0  0  0  0  0 
    4.1435    3.3774   -2.0991 H   0  0  0  0  0  0  0  0  0  0  0  0 
    3.7240    6.2217   -2.3718 H   0  0  0  0  0  0  0  0  0  0  0  0 
    8.3146    8.6883   -1.5699 H   0  0  0  0  0  0  0  0  0  0  0  0 
    5.9321    8.7342   -3.5162 H   0  0  0  0  0  0  0  0  0  0  0  0 
  1  3  1  0  0  0  0 
  1 18  1  0  0  0  0 
  2 22  1  0  0  0  0 
  2 23  1  0  0  0  0 
  3 24  1  0  0  0  0 
  3 25  1  0  0  0  0 
  4  2  1  0  0  0  0 
  4  9  1  0  0  0  0 
  5 28  1  0  0  0  0 
  6  5  1  0  0  0  0 
  6 29  1  0  0  0  0 
  7 30  1  0  0  0  0 
  8 15  1  0  0  0  0 
  8  3  1  0  0  0  0 
  9 15  1  0  0  0  0 
  9 35  1  0  0  0  0 
  9 34  1  0  0  0  0 
 10 36  1  0  0  0  0 
 10 15  1  0  0  0  0 
 10  7  1  0  0  0  0 
 11 12  1  0  0  0  0 
 12  7  1  0  0  0  0 
 12  5  2  0  0  0  0 
 13  6  2  0  0  0  0 
 14 11  2  0  0  0  0 
 14 13  1  0  0  0  0 
 16 13  1  0  0  0  0 
 16 39  1  0  0  0  0 
 17 14  1  0  0  0  0 
 19  1  1  0  0  0  0 
 20  1  1  0  0  0  0 
 21  2  1  0  0  0  0 
 26  4  1  0  0  0  0 
 27  4  1  0  0  0  0 
 31  7  1  0  0  0  0 
 32  8  1  0  0  0  0 
 33  8  1  0  0  0  0 
 37 10  1  0  0  0  0 
 38 11  1  0  0  0  0 
 40 17  1  0  0  0  0 
M  END 
>  <HBA> 
3 
 
>  <HBD> 
2 
 
>  <TPSA> 
43.7 
 
>  <cid> 
3106 
 
>  <dipole> 
2.22 
 
>  <excitation_energy_1> 
4.585 
 
>  <excitation_energy_2> 
4.699 
 
>  <excitation_energy_3> 
4.878 
 
>  <excitation_energy_4> 
4.924 
 
>  <homo_energy> 
-5.293 
 
>  <homo_lumo_gap> 
5.529 
 
>  <logP> 
2.762 
 
>  <lumo_energy> 
0.237 
 
>  <melting_point> 
87.09 
 
>  <molecular_refractivity> 
72.0 
 
>  <oscillator_strength_1> 
0.0004 
 
>  <oscillator_strength_2> 
0.0447 
 
>  <oscillator_strength_3> 
0.0011 
 
>  <oscillator_strength_4> 
0.0256 
 
>  <open_babel_can_smiles> 
CCCN(CCc1ccc(c(c1)O)O)CCC 
 
>  <mulliken_charges> 
40 
1   -0.447814 
2   -0.444109 
3   -0.252508 
4   -0.264405 
5   -0.198318 
6   -0.190414 
7   -0.349283 
8   -0.117123 
9   -0.134802 
10   -0.120624 
11   -0.229646 
12   0.165628 
13   0.293973 
14   0.32789 
15   -0.387167 
16   -0.680811 
17   -0.655499 
18   0.144484 
19   0.142003 
20   0.142115 
21   0.14447 
22   0.141567 
23   0.141352 
24   0.133727 
25   0.14261 
26   0.13702 
27   0.138437 
28   0.121026 
29   0.118123 
30   0.146082 
31   0.144211 
32   0.133669 
33   0.113338 
34   0.132276 
35   0.135445 
36   0.136618 
37   0.122418 
38   0.131804 
39   0.415921 
40   0.426314 
 
>  <lowdin_charges> 
40 
1   -0.44422 
2   -0.44458 
3   -0.276214 
4   -0.294811 
5   -0.182457 
6   -0.203432 
7   -0.275277 
8   -0.197897 
9   -0.207846 
10   -0.195073 
11   -0.192528 
12   -0.006204 
13   0.051963 
14   0.080808 
15   -0.189673 
16   -0.404583 
17   -0.38071 
18   0.152364 
19   0.145609 
20   0.144779 
21   0.150627 
22   0.14726 
23   0.14606 
24   0.137768 
25   0.145361 
26   0.141667 
27   0.143892 
28   0.155692 
29   0.153464 
30   0.150399 
31   0.146973 
32   0.14119 
33   0.116728 
34   0.139697 
35   0.142496 
36   0.144048 
37   0.122429 
38   0.164666 
39   0.364859 
40   0.364707 
 
$$$$ 
 
