PCCDB-ID:  3692 
public computational chemistry database (PCCDB) project, http://pccdb.org 
 
 21 21  0  0  0  0  0  0  0  0999 V2000 
    1.8184   -0.0933   -0.2472 C   0  0  0  0  0  0  0  0  0  0  0  0 
    0.7353    0.9535    0.0716 C   0  0  0  0  0  0  0  0  0  0  0  0 
    3.7342    0.3208   -1.9922 C   0  0  0  0  0  0  0  0  0  0  0  0 
    5.0386    1.5487   -0.8303 C   0  0  0  0  0  0  0  0  0  0  0  0 
    3.1100    0.4506   -0.7722 C   0  0  0  0  0  0  0  0  0  0  0  0 
    0.5837    0.9630    2.8754 C   0  0  0  0  0  0  0  0  0  0  0  0 
    0.1907   -0.2287    2.6475 N   0  0  0  0  0  0  0  0  0  0  0  0 
    0.7486    1.5966    4.0983 N   0  0  0  0  0  0  0  0  0  0  0  0 
    4.9310    1.0029   -2.0221 N   0  0  0  0  0  0  0  0  0  0  0  0 
    3.9724    1.2427   -0.0320 N   0  0  0  0  0  0  0  0  0  0  0  0 
    1.0989    2.0317    1.5181 S   0  0  0  0  0  0  0  0  0  0  0  0 
    1.4060   -0.7606   -1.0147 H   0  0  0  0  0  0  0  0  0  0  0  0 
    1.9692   -0.7109    0.6459 H   0  0  0  0  0  0  0  0  0  0  0  0 
   -0.2140    0.4603    0.2897 H   0  0  0  0  0  0  0  0  0  0  0  0 
    0.6004    1.6479   -0.7632 H   0  0  0  0  0  0  0  0  0  0  0  0 
    3.3858   -0.2391   -2.8509 H   0  0  0  0  0  0  0  0  0  0  0  0 
    5.8574    2.1681   -0.4882 H   0  0  0  0  0  0  0  0  0  0  0  0 
   -0.0836   -0.7093    3.5094 H   0  0  0  0  0  0  0  0  0  0  0  0 
    0.2692    1.1647    4.8796 H   0  0  0  0  0  0  0  0  0  0  0  0 
    0.6827    2.6076    4.1029 H   0  0  0  0  0  0  0  0  0  0  0  0 
    3.7912    1.5775    0.9046 H   0  0  0  0  0  0  0  0  0  0  0  0 
  1  2  1  0  0  0  0 
  1 13  1  0  0  0  0 
  2 14  1  0  0  0  0 
  2 11  1  0  0  0  0 
  3  5  2  0  0  0  0 
  4 17  1  0  0  0  0 
  4 10  1  0  0  0  0 
  5  1  1  0  0  0  0 
  5 10  1  0  0  0  0 
  6  8  2  0  0  0  0 
  7  6  1  0  0  0  0 
  7 18  1  0  0  0  0 
  8 20  1  0  0  0  0 
  8 19  1  0  0  0  0 
  9  3  1  0  0  0  0 
  9  4  2  0  0  0  0 
 10 21  1  0  0  0  0 
 11  6  1  0  0  0  0 
 12  1  1  0  0  0  0 
 15  2  1  0  0  0  0 
 16  3  1  0  0  0  0 
M  RAD  1   7   2 
M  END 
>  <HBA> 
4 
 
>  <HBD> 
3 
 
>  <TPSA> 
103.85 
 
>  <cid> 
3692 
 
>  <dipole> 
6.4 
 
>  <excitation_energy_1> 
4.932 
 
>  <excitation_energy_2> 
5.132 
 
>  <excitation_energy_3> 
5.368 
 
>  <excitation_energy_4> 
5.531 
 
>  <homo_energy> 
-5.682 
 
>  <homo_lumo_gap> 
6.074 
 
>  <logP> 
1.379 
 
>  <lumo_energy> 
0.392 
 
>  <melting_point> 
163.12 
 
>  <molecular_refractivity> 
47.06 
 
>  <oscillator_strength_1> 
0.0019 
 
>  <oscillator_strength_2> 
0.0153 
 
>  <oscillator_strength_3> 
0.0138 
 
>  <oscillator_strength_4> 
0.0043 
 
>  <open_babel_can_smiles> 
[NH]C(=[NH2])SCCc1cnc[nH]1 
 
>  <mulliken_charges> 
21 
1   -0.348109 
2   -0.408811 
3   -0.084868 
4   0.203296 
5   0.32112 
6   0.282328 
7   -0.60122 
8   -0.727592 
9   -0.427344 
10   -0.60135 
11   0.081562 
12   0.161923 
13   0.188259 
14   0.207294 
15   0.182916 
16   0.124502 
17   0.148037 
18   0.279695 
19   0.328868 
20   0.343053 
21   0.346441 
 
>  <lowdin_charges> 
21 
1   -0.277907 
2   -0.363482 
3   -0.178471 
4   -0.101257 
5   -0.018248 
6   -0.008536 
7   -0.444879 
8   -0.485617 
9   -0.189739 
10   -0.181475 
11   0.112284 
12   0.167647 
13   0.171309 
14   0.183302 
15   0.173117 
16   0.157506 
17   0.164159 
18   0.25483 
19   0.282983 
20   0.288609 
21   0.293865 
 
$$$$ 
 
