PCCDB-ID:  5146 
public computational chemistry database (PCCDB) project, http://pccdb.org 
 
 17 17  0  0  0  0  0  0  0  0999 V2000 
   -1.4582   -0.2034   -0.1578 C   0  0  0  0  0  0  0  0  0  0  0  0 
   -0.6280   -1.3182   -0.0607 C   0  0  0  0  0  0  0  0  0  0  0  0 
   -0.8973    1.0767   -0.1267 C   0  0  0  0  0  0  0  0  0  0  0  0 
    0.7531   -1.1531    0.0671 C   0  0  0  0  0  0  0  0  0  0  0  0 
    1.1073    2.6509    0.0078 C   0  0  0  0  0  0  0  0  0  0  0  0 
    0.4794    1.2712   -0.0071 C   0  0  0  0  0  0  0  0  0  0  0  0 
    1.2947    0.1312    0.0921 C   0  0  0  0  0  0  0  0  0  0  0  0 
    1.8749    2.9167    1.1754 O   0  0  0  0  0  0  0  0  0  0  0  0 
    2.6508    0.3533    0.2119 O   0  0  0  0  0  0  0  0  0  0  0  0 
   -2.5329   -0.3259   -0.2541 H   0  0  0  0  0  0  0  0  0  0  0  0 
   -1.0473   -2.3203   -0.0802 H   0  0  0  0  0  0  0  0  0  0  0  0 
   -1.5425    1.9497   -0.1957 H   0  0  0  0  0  0  0  0  0  0  0  0 
    1.4070   -2.0202    0.1467 H   0  0  0  0  0  0  0  0  0  0  0  0 
    0.3203    3.4107   -0.0189 H   0  0  0  0  0  0  0  0  0  0  0  0 
    1.7205    2.7839   -0.8990 H   0  0  0  0  0  0  0  0  0  0  0  0 
    2.5911    2.2606    1.1780 H   0  0  0  0  0  0  0  0  0  0  0  0 
    3.1094   -0.4980    0.2843 H   0  0  0  0  0  0  0  0  0  0  0  0 
  1  3  2  0  0  0  0 
  1  2  1  0  0  0  0 
  2  4  2  0  0  0  0 
  3  6  1  0  0  0  0 
  4  7  1  0  0  0  0 
  4 13  1  0  0  0  0 
  5  8  1  0  0  0  0 
  6  5  1  0  0  0  0 
  6  7  2  0  0  0  0 
  7  9  1  0  0  0  0 
  8 16  1  0  0  0  0 
  9 17  1  0  0  0  0 
 10  1  1  0  0  0  0 
 11  2  1  0  0  0  0 
 12  3  1  0  0  0  0 
 14  5  1  0  0  0  0 
 15  5  1  0  0  0  0 
M  END 
>  <HBA> 
2 
 
>  <HBD> 
2 
 
>  <TPSA> 
40.46 
 
>  <cid> 
5146 
 
>  <dipole> 
3.07 
 
>  <excitation_energy_1> 
5.074 
 
>  <excitation_energy_2> 
5.227 
 
>  <excitation_energy_3> 
5.758 
 
>  <excitation_energy_4> 
5.888 
 
>  <homo_energy> 
-6.161 
 
>  <homo_lumo_gap> 
6.027 
 
>  <logP> 
0.884 
 
>  <lumo_energy> 
-0.133 
 
>  <melting_point> 
66.74 
 
>  <molecular_refractivity> 
34.59 
 
>  <oscillator_strength_1> 
0.0314 
 
>  <oscillator_strength_2> 
0.0005 
 
>  <oscillator_strength_3> 
0.0182 
 
>  <oscillator_strength_4> 
0.0022 
 
>  <open_babel_can_smiles> 
OCc1ccccc1O 
 
>  <mulliken_charges> 
17 
1   -0.127185 
2   -0.137147 
3   -0.193663 
4   -0.184224 
5   -0.104142 
6   0.12723 
7   0.296208 
8   -0.626013 
9   -0.666343 
10   0.128903 
11   0.132554 
12   0.130186 
13   0.118924 
14   0.146773 
15   0.135045 
16   0.409125 
17   0.413767 
 
>  <lowdin_charges> 
17 
1   -0.172049 
2   -0.145788 
3   -0.151017 
4   -0.211423 
5   -0.129481 
6   -0.047097 
7   0.099312 
8   -0.472858 
9   -0.393365 
10   0.157072 
11   0.15922 
12   0.159506 
13   0.154324 
14   0.151825 
15   0.136724 
16   0.343882 
17   0.361213 
 
$$$$ 
 
