PCCDB-ID:  6206 
public computational chemistry database (PCCDB) project, http://pccdb.org 
 
 21 21  0  0  1  0  0  0  0  0999 V2000 
    1.7695   -0.8290   -1.3713 C   0  0  0  0  0  0  0  0  0  0  0  0 
    0.7616   -5.1392    1.3161 C   0  0  0  0  0  0  0  0  0  0  0  0 
    0.4756   -6.3251    2.0325 C   0  0  0  0  0  0  0  0  0  0  0  0 
    2.2821   -3.1253    1.9423 C   0  0  0  0  0  0  0  0  0  0  0  0 
    2.6161   -0.5236   -0.1667 C   0  0  1  0  0  0  0  0  0  0  0  0 
    1.6286   -4.4017    2.0990 C   0  0  0  0  0  0  0  0  0  0  0  0 
    1.1882   -6.2243    3.1994 C   0  0  0  0  0  0  0  0  0  0  0  0 
    2.0881   -2.4300    0.8742 N   0  0  0  0  0  0  0  0  0  0  0  0 
    2.7915   -1.2363    0.8923 N   0  0  0  0  0  0  0  0  0  0  0  0 
    1.2878   -7.1213    4.3031 N   0  0  0  0  0  0  0  0  0  0  0  0 
    3.2915    0.6482   -0.1771 O   0  0  0  0  0  0  0  0  0  0  0  0 
    0.6311   -8.1647    4.2081 O   0  0  0  0  0  0  0  0  0  0  0  0 
    2.0045   -6.7995    5.2503 O   0  0  0  0  0  0  0  0  0  0  0  0 
    1.8909   -5.0722    3.2609 O   0  0  0  0  0  0  0  0  0  0  0  0 
    1.2770   -1.7923   -1.2478 H   0  0  0  0  0  0  0  0  0  0  0  0 
    2.3922   -0.8545   -2.2746 H   0  0  0  0  0  0  0  0  0  0  0  0 
    1.0095   -0.0491   -1.5076 H   0  0  0  0  0  0  0  0  0  0  0  0 
    0.3888   -4.8433    0.3468 H   0  0  0  0  0  0  0  0  0  0  0  0 
   -0.1607   -7.1498    1.7503 H   0  0  0  0  0  0  0  0  0  0  0  0 
    2.9341   -2.7816    2.7481 H   0  0  0  0  0  0  0  0  0  0  0  0 
    3.1033    1.1192   -1.0037 H   0  0  0  0  0  0  0  0  0  0  0  0 
  1 15  1  0  0  0  0 
  1  5  1  0  0  0  0 
  2  3  1  0  0  0  0 
  2  6  2  0  0  0  0 
  3  7  2  0  0  0  0 
  4  6  1  0  0  0  0 
  4 20  1  0  0  0  0 
  5 11  1  6  0  0  0 
  5  9  1  0  0  0  0 
  6 14  1  0  0  0  0 
  7 14  1  0  0  0  0 
  7 10  1  0  0  0  0 
  8  9  1  0  0  0  0 
  8  4  1  0  0  0  0 
 10 13  2  0  0  0  0 
 12 10  2  0  0  0  0 
 16  1  1  0  0  0  0 
 17  1  1  0  0  0  0 
 18  2  1  0  0  0  0 
 19  3  1  0  0  0  0 
 21 11  1  0  0  0  0 
M  RAD  4   4   2   5   2   8   2   9   2 
M  END 
>  <HBA> 
4 
 
>  <HBD> 
1 
 
>  <TPSA> 
100.42 
 
>  <cid> 
6206 
 
>  <dipole> 
8.43 
 
>  <excitation_energy_1> 
3.199 
 
>  <excitation_energy_2> 
3.42 
 
>  <excitation_energy_3> 
3.683 
 
>  <excitation_energy_4> 
4.199 
 
>  <homo_energy> 
-6.34 
 
>  <homo_lumo_gap> 
3.644 
 
>  <logP> 
1.572 
 
>  <lumo_energy> 
-2.697 
 
>  <melting_point> 
111.28 
 
>  <molecular_refractivity> 
48.8 
 
>  <oscillator_strength_1> 
0.0002 
 
>  <oscillator_strength_2> 
0.7014 
 
>  <oscillator_strength_3> 
0.0 
 
>  <oscillator_strength_4> 
0.0002 
 
>  <open_babel_can_smiles> 
C[C]([N][N][CH]c1ccc(o1)N(=O)=O)O 
 
>  <mulliken_charges> 
21 
1   -0.555475 
2   -0.191247 
3   -0.144556 
4   0.020359 
5   0.531295 
6   0.368 
7   0.535944 
8   -0.28574 
9   -0.314242 
10   0.328315 
11   -0.56051 
12   -0.406269 
13   -0.390119 
14   -0.453105 
15   0.214628 
16   0.176744 
17   0.176505 
18   0.171329 
19   0.189462 
20   0.170976 
21   0.417704 
 
>  <lowdin_charges> 
21 
1   -0.483461 
2   -0.178542 
3   -0.152299 
4   -0.100674 
5   0.144156 
6   0.091151 
7   0.069538 
8   -0.098838 
9   -0.148838 
10   0.30292 
11   -0.336678 
12   -0.258248 
13   -0.238661 
14   -0.060194 
15   0.190729 
16   0.172248 
17   0.172448 
18   0.185369 
19   0.19616 
20   0.168013 
21   0.3637 
 
$$$$ 
 
