PCCDB-ID:  421 
public computational chemistry database (PCCDB) project, http://pccdb.org 
 
 28 27  0  0  1  0  0  0  0  0999 V2000 
    1.6492   -0.1669   -1.0103 C   0  0  0  0  0  0  0  0  0  0  0  0 
    0.5447   -0.8747   -1.8134 C   0  0  0  0  0  0  0  0  0  0  0  0 
    3.0900   -0.4163   -1.5201 C   0  0  0  0  0  0  0  0  0  0  0  0 
    0.4094   -0.4139   -3.2809 C   0  0  0  0  0  0  0  0  0  0  0  0 
    4.0349    1.9540   -1.6567 C   0  0  0  0  0  0  0  0  0  0  0  0 
    4.4630    3.1662   -2.4893 C   0  0  0  0  0  0  0  0  0  0  0  0 
    3.6592    0.6857   -2.4382 C   0  0  1  0  0  0  0  0  0  0  0  0 
   -0.7743   -1.0874   -3.9635 C   0  0  0  0  0  0  0  0  0  0  0  0 
   -1.8414   -0.5629   -4.1543 O   0  0  0  0  0  0  0  0  0  0  0  0 
   -0.5821   -2.3905   -4.3229 O   0  0  0  0  0  0  0  0  0  0  0  0 
    3.1524    3.8629   -3.5903 S   0  0  0  0  0  0  0  0  0  0  0  0 
    5.0672    0.0491   -3.4713 S   0  0  0  0  0  0  0  0  0  0  0  0 
    1.5741   -0.5186    0.0258 H   0  0  0  0  0  0  0  0  0  0  0  0 
    1.4353    0.9093   -0.9763 H   0  0  0  0  0  0  0  0  0  0  0  0 
   -0.4171   -0.7079   -1.3131 H   0  0  0  0  0  0  0  0  0  0  0  0 
    0.7224   -1.9595   -1.7848 H   0  0  0  0  0  0  0  0  0  0  0  0 
    3.1247   -1.3756   -2.0496 H   0  0  0  0  0  0  0  0  0  0  0  0 
    3.7690   -0.5228   -0.6628 H   0  0  0  0  0  0  0  0  0  0  0  0 
    1.3307   -0.6316   -3.8383 H   0  0  0  0  0  0  0  0  0  0  0  0 
    0.2367    0.6650   -3.3245 H   0  0  0  0  0  0  0  0  0  0  0  0 
    3.1756    2.2428   -1.0378 H   0  0  0  0  0  0  0  0  0  0  0  0 
    4.8535    1.7123   -0.9618 H   0  0  0  0  0  0  0  0  0  0  0  0 
    5.3418    2.9394   -3.0968 H   0  0  0  0  0  0  0  0  0  0  0  0 
    4.7283    3.9907   -1.8208 H   0  0  0  0  0  0  0  0  0  0  0  0 
    2.9137    0.9518   -3.1959 H   0  0  0  0  0  0  0  0  0  0  0  0 
    0.3305   -2.6588   -4.1276 H   0  0  0  0  0  0  0  0  0  0  0  0 
    3.3473    3.0268   -4.6322 H   0  0  0  0  0  0  0  0  0  0  0  0 
    5.8687   -0.3047   -2.4412 H   0  0  0  0  0  0  0  0  0  0  0  0 
  1 14  1  0  0  0  0 
  1 13  1  0  0  0  0 
  2 16  1  0  0  0  0 
  2 15  1  0  0  0  0 
  2  1  1  0  0  0  0 
  3  1  1  0  0  0  0 
  3 18  1  0  0  0  0 
  4  2  1  0  0  0  0 
  5 21  1  0  0  0  0 
  5 22  1  0  0  0  0 
  6 24  1  0  0  0  0 
  6  5  1  0  0  0  0 
  7 25  1  6  0  0  0 
  7  5  1  0  0  0  0 
  7  3  1  0  0  0  0 
  8  4  1  0  0  0  0 
  9  8  2  0  0  0  0 
 10 26  1  0  0  0  0 
 10  8  1  0  0  0  0 
 11  6  1  0  0  0  0 
 12 28  1  0  0  0  0 
 12  7  1  0  0  0  0 
 17  3  1  0  0  0  0 
 19  4  1  0  0  0  0 
 20  4  1  0  0  0  0 
 23  6  1  0  0  0  0 
 27 11  1  0  0  0  0 
M  END 
>  <HBA> 
4 
 
>  <HBD> 
3 
 
>  <TPSA> 
114.9 
 
>  <cid> 
421 
 
>  <dipole> 
5.87 
 
>  <excitation_energy_1> 
5.23 
 
>  <excitation_energy_2> 
5.331 
 
>  <excitation_energy_3> 
5.622 
 
>  <excitation_energy_4> 
5.668 
 
>  <homo_energy> 
-6.631 
 
>  <homo_lumo_gap> 
6.797 
 
>  <logP> 
2.25 
 
>  <lumo_energy> 
0.166 
 
>  <melting_point> 
89.79 
 
>  <molecular_refractivity> 
58.2 
 
>  <oscillator_strength_1> 
0.0312 
 
>  <oscillator_strength_2> 
0.003 
 
>  <oscillator_strength_3> 
0.001 
 
>  <oscillator_strength_4> 
0.0024 
 
>  <open_babel_can_smiles> 
SCC[C@H](CCCCC(=O)O)S 
 
>  <mulliken_charges> 
28 
1   -0.271985 
2   -0.271059 
3   -0.260408 
4   -0.383107 
5   -0.237912 
6   -0.425353 
7   -0.258672 
8   0.587231 
9   -0.432626 
10   -0.562848 
11   -0.086674 
12   -0.099507 
13   0.147783 
14   0.153485 
15   0.165395 
16   0.132593 
17   0.151662 
18   0.140068 
19   0.152047 
20   0.186216 
21   0.161576 
22   0.141797 
23   0.204043 
24   0.182507 
25   0.178325 
26   0.408385 
27   0.100615 
28   0.096421 
 
>  <lowdin_charges> 
28 
1   -0.27749 
2   -0.268676 
3   -0.285796 
4   -0.31995 
5   -0.285721 
6   -0.375961 
7   -0.22179 
8   0.196907 
9   -0.235957 
10   -0.362473 
11   -0.091487 
12   -0.099213 
13   0.152291 
14   0.147976 
15   0.158742 
16   0.136124 
17   0.151787 
18   0.147982 
19   0.153032 
20   0.173224 
21   0.156662 
22   0.148797 
23   0.175511 
24   0.171682 
25   0.165171 
26   0.35623 
27   0.117188 
28   0.11521 
 
$$$$ 
 
