PCCDB-ID:  802 
public computational chemistry database (PCCDB) project, http://pccdb.org 
 
 22 23  0  0  0  0  0  0  0  0999 V2000 
    2.4727   -0.0468   -0.1325 C   0  0  0  0  0  0  0  0  0  0  0  0 
    2.2536    1.3441   -0.0488 C   0  0  0  0  0  0  0  0  0  0  0  0 
    1.4131   -0.9436   -0.1017 C   0  0  0  0  0  0  0  0  0  0  0  0 
    0.9716    1.8676    0.0667 C   0  0  0  0  0  0  0  0  0  0  0  0 
   -1.5059   -2.5312    0.0039 C   0  0  0  0  0  0  0  0  0  0  0  0 
   -2.1117   -0.0355    0.1835 C   0  0  0  0  0  0  0  0  0  0  0  0 
   -1.2021   -1.0629    0.0694 C   0  0  0  0  0  0  0  0  0  0  0  0 
    0.1038   -0.4441    0.0124 C   0  0  0  0  0  0  0  0  0  0  0  0 
   -0.0929    0.9603    0.0944 C   0  0  0  0  0  0  0  0  0  0  0  0 
   -1.1737   -3.3391    1.2710 C   0  0  0  0  0  0  0  0  0  0  0  0 
   -1.4542    1.1767    0.1978 N   0  0  0  0  0  0  0  0  0  0  0  0 
   -0.9721   -4.5278    1.2585 O   0  0  0  0  0  0  0  0  0  0  0  0 
   -1.1707   -2.6384    2.4287 O   0  0  0  0  0  0  0  0  0  0  0  0 
    3.4892   -0.4196   -0.2201 H   0  0  0  0  0  0  0  0  0  0  0  0 
    3.1038    2.0198   -0.0743 H   0  0  0  0  0  0  0  0  0  0  0  0 
    1.5935   -2.0137   -0.1612 H   0  0  0  0  0  0  0  0  0  0  0  0 
    0.8043    2.9395    0.1310 H   0  0  0  0  0  0  0  0  0  0  0  0 
   -0.9787   -3.0204   -0.8214 H   0  0  0  0  0  0  0  0  0  0  0  0 
   -2.5771   -2.6856   -0.1829 H   0  0  0  0  0  0  0  0  0  0  0  0 
   -3.1918   -0.0761    0.2336 H   0  0  0  0  0  0  0  0  0  0  0  0 
   -1.8992    2.0783    0.2721 H   0  0  0  0  0  0  0  0  0  0  0  0 
   -1.2976   -1.6942    2.2146 H   0  0  0  0  0  0  0  0  0  0  0  0 
  1  3  2  0  0  0  0 
  1  2  1  0  0  0  0 
  2  4  2  0  0  0  0 
  3  8  1  0  0  0  0 
  4  9  1  0  0  0  0 
  4 17  1  0  0  0  0 
  5  7  1  0  0  0  0 
  5 10  1  0  0  0  0 
  6 11  1  0  0  0  0 
  6 20  1  0  0  0  0 
  7  6  2  0  0  0  0 
  8  7  1  0  0  0  0 
  8  9  2  0  0  0  0 
  9 11  1  0  0  0  0 
 10 13  1  0  0  0  0 
 11 21  1  0  0  0  0 
 12 10  2  0  0  0  0 
 14  1  1  0  0  0  0 
 15  2  1  0  0  0  0 
 16  3  1  0  0  0  0 
 18  5  1  0  0  0  0 
 19  5  1  0  0  0  0 
 22 13  1  0  0  0  0 
M  END 
>  <HBA> 
2 
 
>  <HBD> 
2 
 
>  <TPSA> 
53.09 
 
>  <cid> 
802 
 
>  <dipole> 
6.49 
 
>  <excitation_energy_1> 
4.69 
 
>  <excitation_energy_2> 
4.88 
 
>  <excitation_energy_3> 
4.946 
 
>  <excitation_energy_4> 
5.251 
 
>  <homo_energy> 
-5.889 
 
>  <homo_lumo_gap> 
5.284 
 
>  <logP> 
1.795 
 
>  <lumo_energy> 
-0.604 
 
>  <melting_point> 
176.26 
 
>  <molecular_refractivity> 
49.84 
 
>  <oscillator_strength_1> 
0.0706 
 
>  <oscillator_strength_2> 
0.0432 
 
>  <oscillator_strength_3> 
0.003 
 
>  <oscillator_strength_4> 
0.0033 
 
>  <open_babel_can_smiles> 
OC(=O)Cc1c[nH]c2c1cccc2 
 
>  <mulliken_charges> 
22 
1   -0.139462 
2   -0.14806 
3   -0.203744 
4   -0.1612 
5   -0.451202 
6   0.004696 
7   -0.015307 
8   0.099046 
9   0.312627 
10   0.594336 
11   -0.683601 
12   -0.449847 
13   -0.566321 
14   0.130582 
15   0.130436 
16   0.142291 
17   0.127319 
18   0.189658 
19   0.183322 
20   0.159805 
21   0.333235 
22   0.411392 
 
>  <lowdin_charges> 
22 
1   -0.167782 
2   -0.158371 
3   -0.156432 
4   -0.182667 
5   -0.308288 
6   -0.134172 
7   -0.087855 
8   -0.039259 
9   0.032624 
10   0.183248 
11   -0.196274 
12   -0.246705 
13   -0.352768 
14   0.158792 
15   0.160215 
16   0.16216 
17   0.156587 
18   0.181494 
19   0.177331 
20   0.167328 
21   0.294813 
22   0.35598 
 
$$$$ 
 
