PCCDB-ID:  5269 
public computational chemistry database (PCCDB) project, http://pccdb.org 
 
 25 27  0  0  0  0  0  0  0  0999 V2000 
    2.4399    0.5570   -0.0612 C   0  0  0  0  0  0  0  0  0  0  0  0 
    2.0727   -0.7648   -0.4036 C   0  0  0  0  0  0  0  0  0  0  0  0 
    1.4687    1.4639    0.2972 C   0  0  0  0  0  0  0  0  0  0  0  0 
    0.7507   -1.1534   -0.3875 C   0  0  0  0  0  0  0  0  0  0  0  0 
   -0.9079    2.0236    0.7129 C   0  0  0  0  0  0  0  0  0  0  0  0 
   -2.1736   -1.9853   -0.3665 C   0  0  0  0  0  0  0  0  0  0  0  0 
   -2.2278    1.6532    0.7536 C   0  0  0  0  0  0  0  0  0  0  0  0 
   -3.5951   -1.8732   -0.9350 C   0  0  0  0  0  0  0  0  0  0  0  0 
    0.0982    1.0959    0.3291 C   0  0  0  0  0  0  0  0  0  0  0  0 
   -0.2808   -0.2424   -0.0273 C   0  0  0  0  0  0  0  0  0  0  0  0 
   -1.6630   -0.6124    0.0038 C   0  0  0  0  0  0  0  0  0  0  0  0 
   -2.5877    0.3334    0.4001 C   0  0  0  0  0  0  0  0  0  0  0  0 
   -4.5102   -1.0599   -0.0458 C   0  0  0  0  0  0  0  0  0  0  0  0 
   -5.6725   -1.2897    0.1619 O   0  0  0  0  0  0  0  0  0  0  0  0 
   -3.9429    0.0509    0.5321 O   0  0  0  0  0  0  0  0  0  0  0  0 
    3.4855    0.8509   -0.0798 H   0  0  0  0  0  0  0  0  0  0  0  0 
    2.8411   -1.4814   -0.6812 H   0  0  0  0  0  0  0  0  0  0  0  0 
    1.7379    2.4824    0.5670 H   0  0  0  0  0  0  0  0  0  0  0  0 
    0.4975   -2.1763   -0.6463 H   0  0  0  0  0  0  0  0  0  0  0  0 
   -0.6155    3.0354    0.9811 H   0  0  0  0  0  0  0  0  0  0  0  0 
   -1.5309   -2.4612   -1.1124 H   0  0  0  0  0  0  0  0  0  0  0  0 
   -2.1726   -2.6461    0.5129 H   0  0  0  0  0  0  0  0  0  0  0  0 
   -3.0118    2.3411    1.0524 H   0  0  0  0  0  0  0  0  0  0  0  0 
   -4.0632   -2.8476   -1.0887 H   0  0  0  0  0  0  0  0  0  0  0  0 
   -3.5582   -1.3651   -1.9092 H   0  0  0  0  0  0  0  0  0  0  0  0 
  1  3  2  0  0  0  0 
  2  4  2  0  0  0  0 
  2  1  1  0  0  0  0 
  3  9  1  0  0  0  0 
  3 18  1  0  0  0  0 
  4 10  1  0  0  0  0 
  5  7  1  0  0  0  0 
  5 20  1  0  0  0  0 
  6 11  1  0  0  0  0 
  6 22  1  0  0  0  0 
  7 23  1  0  0  0  0 
  8  6  1  0  0  0  0 
  8 13  1  0  0  0  0 
  9  5  2  0  0  0  0 
 10 11  2  0  0  0  0 
 10  9  1  0  0  0  0 
 11 12  1  0  0  0  0 
 12 15  1  0  0  0  0 
 12  7  2  0  0  0  0 
 13 14  2  0  0  0  0 
 13 15  1  0  0  0  0 
 16  1  1  0  0  0  0 
 17  2  1  0  0  0  0 
 19  4  1  0  0  0  0 
 21  6  1  0  0  0  0 
 24  8  1  0  0  0  0 
 25  8  1  0  0  0  0 
M  END 
>  <HBA> 
2 
 
>  <HBD> 
0 
 
>  <TPSA> 
26.3 
 
>  <cid> 
5269 
 
>  <dipole> 
4.08 
 
>  <excitation_energy_1> 
4.124 
 
>  <excitation_energy_2> 
4.345 
 
>  <excitation_energy_3> 
5.047 
 
>  <excitation_energy_4> 
5.249 
 
>  <homo_energy> 
-5.94 
 
>  <homo_lumo_gap> 
4.629 
 
>  <logP> 
2.691 
 
>  <lumo_energy> 
-1.312 
 
>  <melting_point> 
101.9 
 
>  <molecular_refractivity> 
58.3 
 
>  <oscillator_strength_1> 
0.0472 
 
>  <oscillator_strength_2> 
0.0066 
 
>  <oscillator_strength_3> 
0.2022 
 
>  <oscillator_strength_4> 
0.0002 
 
>  <open_babel_can_smiles> 
O=C1CCc2c(O1)ccc1c2cccc1 
 
>  <mulliken_charges> 
25 
1   -0.133765 
2   -0.133157 
3   -0.196965 
4   -0.200426 
5   -0.201145 
6   -0.349025 
7   -0.170395 
8   -0.378456 
9   0.150229 
10   0.063602 
11   0.071134 
12   0.288205 
13   0.601594 
14   -0.43703 
15   -0.503873 
16   0.133329 
17   0.13293 
18   0.133658 
19   0.130032 
20   0.138711 
21   0.164405 
22   0.173648 
23   0.153828 
24   0.182701 
25   0.186232 
 
>  <lowdin_charges> 
25 
1   -0.159287 
2   -0.153155 
3   -0.150319 
4   -0.165679 
5   -0.145639 
6   -0.273439 
7   -0.169924 
8   -0.304289 
9   -0.004659 
10   0.000242 
11   -0.047082 
12   0.09041 
13   0.200715 
14   -0.220817 
15   -0.149632 
16   0.159185 
17   0.161221 
18   0.158426 
19   0.157435 
20   0.162123 
21   0.16371 
22   0.162305 
23   0.175874 
24   0.176683 
25   0.175592 
 
$$$$ 
 
