PCCDB-ID:  1894 
public computational chemistry database (PCCDB) project, http://pccdb.org 
 
 22 23  0  0  0  0  0  0  0  0999 V2000 
    2.0863    0.6400    0.1882 C   0  0  0  0  0  0  0  0  0  0  0  0 
    0.9554    1.4259    0.1593 C   0  0  0  0  0  0  0  0  0  0  0  0 
    1.9963   -0.7734    0.1057 C   0  0  0  0  0  0  0  0  0  0  0  0 
   -1.6190    1.2505   -0.0151 C   0  0  0  0  0  0  0  0  0  0  0  0 
   -0.3034    0.7915    0.0438 C   0  0  0  0  0  0  0  0  0  0  0  0 
    0.7831   -1.4167   -0.0078 C   0  0  0  0  0  0  0  0  0  0  0  0 
   -0.4186   -0.6469   -0.0435 C   0  0  0  0  0  0  0  0  0  0  0  0 
   -3.8234    0.1201   -0.2085 C   0  0  0  0  0  0  0  0  0  0  0  0 
   -4.4222    1.2348   -0.0425 N   0  0  0  0  0  0  0  0  0  0  0  0 
   -4.2935   -1.1280   -0.5009 N   0  0  0  0  0  0  0  0  0  0  0  0 
   -1.6991   -1.0252   -0.1455 N   0  0  0  0  0  0  0  0  0  0  0  0 
   -2.3879    0.1453   -0.1255 N   0  0  0  0  0  0  0  0  0  0  0  0 
    0.7699   -2.8763   -0.0880 N   0  0  0  0  0  0  0  0  0  0  0  0 
    1.8536   -3.4667   -0.0534 O   0  0  0  0  0  0  0  0  0  0  0  0 
   -0.3233   -3.4321   -0.1845 O   0  0  0  0  0  0  0  0  0  0  0  0 
    3.0673    1.0957    0.2763 H   0  0  0  0  0  0  0  0  0  0  0  0 
    1.0248    2.5080    0.2229 H   0  0  0  0  0  0  0  0  0  0  0  0 
    2.8920   -1.3823    0.1311 H   0  0  0  0  0  0  0  0  0  0  0  0 
   -2.0638    2.2323    0.0139 H   0  0  0  0  0  0  0  0  0  0  0  0 
   -5.4322    1.1322   -0.1459 H   0  0  0  0  0  0  0  0  0  0  0  0 
   -5.2640   -1.3211   -0.3054 H   0  0  0  0  0  0  0  0  0  0  0  0 
   -3.6317   -1.8925   -0.4156 H   0  0  0  0  0  0  0  0  0  0  0  0 
  1 16  1  0  0  0  0 
  2  1  2  0  0  0  0 
  2 17  1  0  0  0  0 
  3 18  1  0  0  0  0 
  3  1  1  0  0  0  0 
  4 19  1  0  0  0  0 
  4  5  2  0  0  0  0 
  5  2  1  0  0  0  0 
  6  3  2  0  0  0  0 
  7  6  1  0  0  0  0 
  7  5  1  0  0  0  0 
  8 12  1  0  0  0  0 
  8  9  1  0  0  0  0 
 10 22  1  0  0  0  0 
 10 21  1  0  0  0  0 
 10  8  2  0  0  0  0 
 11 12  1  0  0  0  0 
 11  7  2  0  0  0  0 
 12  4  1  0  0  0  0 
 13 14  2  0  0  0  0 
 13  6  1  0  0  0  0 
 15 13  2  0  0  0  0 
 20  9  1  0  0  0  0 
M  RAD  1   9   2 
M  END 
>  <HBA> 
4 
 
>  <HBD> 
2 
 
>  <TPSA> 
113.51 
 
>  <cid> 
1894 
 
>  <dipole> 
4.25 
 
>  <excitation_energy_1> 
3.328 
 
>  <excitation_energy_2> 
3.532 
 
>  <excitation_energy_3> 
3.878 
 
>  <excitation_energy_4> 
4.052 
 
>  <homo_energy> 
-6.406 
 
>  <homo_lumo_gap> 
3.85 
 
>  <logP> 
2.009 
 
>  <lumo_energy> 
-2.555 
 
>  <melting_point> 
191.67 
 
>  <molecular_refractivity> 
56.12 
 
>  <oscillator_strength_1> 
0.1135 
 
>  <oscillator_strength_2> 
0.0002 
 
>  <oscillator_strength_3> 
0.1129 
 
>  <oscillator_strength_4> 
0.0019 
 
>  <open_babel_can_smiles> 
O=N(=O)c1cccc2c1nn(c2)C(=[NH2])[NH] 
 
>  <mulliken_charges> 
22 
1   -0.146771 
2   -0.168536 
3   -0.182953 
4   0.068409 
5   -0.000853 
6   0.308959 
7   0.322794 
8   0.661563 
9   -0.637088 
10   -0.773101 
11   -0.44484 
12   -0.283047 
13   0.362585 
14   -0.409811 
15   -0.393863 
16   0.148282 
17   0.153458 
18   0.187016 
19   0.210726 
20   0.290648 
21   0.3395 
22   0.386923 
 
>  <lowdin_charges> 
22 
1   -0.166709 
2   -0.118078 
3   -0.124884 
4   -0.108827 
5   -0.047482 
6   -0.007674 
7   0.017371 
8   0.143133 
9   -0.439208 
10   -0.470077 
11   -0.163445 
12   0.082404 
13   0.308302 
14   -0.262991 
15   -0.236915 
16   0.168269 
17   0.168684 
18   0.191255 
19   0.201037 
20   0.261724 
21   0.29125 
22   0.31286 
 
$$$$ 
 
