PCCDB-ID:  1127 
public computational chemistry database (PCCDB) project, http://pccdb.org 
 
 13 13  0  0  0  0  0  0  0  0999 V2000 
   -0.7332   -0.9607   -0.2495 C   0  0  0  0  0  0  0  0  0  0  0  0 
    0.7191   -1.0335    0.2387 C   0  0  0  0  0  0  0  0  0  0  0  0 
   -1.3266    0.3331    0.3218 C   0  0  0  0  0  0  0  0  0  0  0  0 
    1.3524    0.3339   -0.0494 C   0  0  0  0  0  0  0  0  0  0  0  0 
    0.0290    1.5966    0.2588 S   0  0  0  0  0  0  0  0  0  0  0  0 
   -1.3184   -1.8338    0.0635 H   0  0  0  0  0  0  0  0  0  0  0  0 
   -0.7526   -0.9238   -1.3459 H   0  0  0  0  0  0  0  0  0  0  0  0 
    1.2794   -1.8372   -0.2542 H   0  0  0  0  0  0  0  0  0  0  0  0 
    0.7372   -1.2306    1.3178 H   0  0  0  0  0  0  0  0  0  0  0  0 
   -1.6430    0.1989    1.3610 H   0  0  0  0  0  0  0  0  0  0  0  0 
   -2.1811    0.6952   -0.2558 H   0  0  0  0  0  0  0  0  0  0  0  0 
    1.6806    0.4077   -1.0909 H   0  0  0  0  0  0  0  0  0  0  0  0 
    2.2070    0.5458    0.5982 H   0  0  0  0  0  0  0  0  0  0  0  0 
  1  6  1  0  0  0  0 
  1  2  1  0  0  0  0 
  1  3  1  0  0  0  0 
  2  9  1  0  0  0  0 
  3 10  1  0  0  0  0 
  4  2  1  0  0  0  0 
  4  5  1  0  0  0  0 
  4 13  1  0  0  0  0 
  5  3  1  0  0  0  0 
  7  1  1  0  0  0  0 
  8  2  1  0  0  0  0 
 11  3  1  0  0  0  0 
 12  4  1  0  0  0  0 
M  END 
>  <HBA> 
1 
 
>  <HBD> 
0 
 
>  <TPSA> 
25.3 
 
>  <cid> 
1127 
 
>  <dipole> 
2.21 
 
>  <excitation_energy_1> 
4.952 
 
>  <excitation_energy_2> 
5.182 
 
>  <excitation_energy_3> 
5.809 
 
>  <excitation_energy_4> 
5.894 
 
>  <homo_energy> 
-5.753 
 
>  <homo_lumo_gap> 
6.784 
 
>  <logP> 
1.513 
 
>  <lumo_energy> 
1.031 
 
>  <melting_point> 
6.31 
 
>  <molecular_refractivity> 
26.82 
 
>  <oscillator_strength_1> 
0.0 
 
>  <oscillator_strength_2> 
0.0053 
 
>  <oscillator_strength_3> 
0.0125 
 
>  <oscillator_strength_4> 
0.0209 
 
>  <open_babel_can_smiles> 
C1CCCS1 
 
>  <mulliken_charges> 
13 
1   -0.265512 
2   -0.265005 
3   -0.405317 
4   -0.405896 
5   0.056698 
6   0.146907 
7   0.150883 
8   0.147069 
9   0.150648 
10   0.170831 
11   0.173782 
12   0.171094 
13   0.173817 
 
>  <lowdin_charges> 
13 
1   -0.278078 
2   -0.27877 
3   -0.370055 
4   -0.370025 
5   0.057289 
6   0.152808 
7   0.147363 
8   0.153421 
9   0.147592 
10   0.154116 
11   0.165157 
12   0.154338 
13   0.164844 
 
$$$$ 
 
