PCCDB-ID:  2054 
public computational chemistry database (PCCDB) project, http://pccdb.org 
 
 22 22  0  0  0  0  0  0  0  0999 V2000 
   -0.5872    0.0099    1.0971 C   0  0  0  0  0  0  0  0  0  0  0  0 
    0.2738    1.0722    1.3460 C   0  0  0  0  0  0  0  0  0  0  0  0 
   -1.3947   -1.8513   -0.2487 C   0  0  0  0  0  0  0  0  0  0  0  0 
    0.5736   -0.4345   -0.9816 C   0  0  0  0  0  0  0  0  0  0  0  0 
   -0.7322   -2.8677   -2.4071 C   0  0  0  0  0  0  0  0  0  0  0  0 
   -0.4582   -0.7668   -0.0706 C   0  0  0  0  0  0  0  0  0  0  0  0 
   -1.5437   -2.7772   -1.2407 C   0  0  0  0  0  0  0  0  0  0  0  0 
    1.2874    1.3919    0.4410 C   0  0  0  0  0  0  0  0  0  0  0  0 
    1.4351    0.6222   -0.7399 C   0  0  0  0  0  0  0  0  0  0  0  0 
   -2.6545   -3.7859   -1.0926 C   0  0  0  0  0  0  0  0  0  0  0  0 
   -0.1197   -3.0140   -3.3900 N   0  0  0  0  0  0  0  0  0  0  0  0 
    2.1612    2.4106    0.6199 O   0  0  0  0  0  0  0  0  0  0  0  0 
    2.4428    0.9858   -1.5782 O   0  0  0  0  0  0  0  0  0  0  0  0 
   -3.4052   -3.7964   -0.1450 O   0  0  0  0  0  0  0  0  0  0  0  0 
   -2.7815   -4.6989   -2.0810 O   0  0  0  0  0  0  0  0  0  0  0  0 
   -1.3705   -0.2243    1.8116 H   0  0  0  0  0  0  0  0  0  0  0  0 
    0.1630    1.6649    2.2516 H   0  0  0  0  0  0  0  0  0  0  0  0 
   -2.1284   -1.9700    0.5466 H   0  0  0  0  0  0  0  0  0  0  0  0 
    0.7051   -1.0079   -1.8932 H   0  0  0  0  0  0  0  0  0  0  0  0 
    1.9593    2.8608    1.4558 H   0  0  0  0  0  0  0  0  0  0  0  0 
    2.4462    0.3899   -2.3443 H   0  0  0  0  0  0  0  0  0  0  0  0 
   -2.1105   -4.5655   -2.7748 H   0  0  0  0  0  0  0  0  0  0  0  0 
  1  2  1  0  0  0  0 
  1 16  1  0  0  0  0 
  2 17  1  0  0  0  0 
  3  6  1  0  0  0  0 
  3 18  1  0  0  0  0 
  4  9  2  0  0  0  0 
  4  6  1  0  0  0  0 
  5  7  1  0  0  0  0 
  6  1  2  0  0  0  0 
  7 10  1  0  0  0  0 
  7  3  2  0  0  0  0 
  8 12  1  0  0  0  0 
  8  2  2  0  0  0  0 
  9  8  1  0  0  0  0 
 10 14  2  0  0  0  0 
 11  5  3  0  0  0  0 
 12 20  1  0  0  0  0 
 13  9  1  0  0  0  0 
 15 10  1  0  0  0  0 
 19  4  1  0  0  0  0 
 21 13  1  0  0  0  0 
 22 15  1  0  0  0  0 
M  END 
>  <HBA> 
5 
 
>  <HBD> 
3 
 
>  <TPSA> 
101.55 
 
>  <cid> 
2054 
 
>  <dipole> 
5.36 
 
>  <excitation_energy_1> 
3.516 
 
>  <excitation_energy_2> 
3.975 
 
>  <excitation_energy_3> 
4.127 
 
>  <excitation_energy_4> 
4.958 
 
>  <homo_energy> 
-6.305 
 
>  <homo_lumo_gap> 
3.709 
 
>  <logP> 
1.089 
 
>  <lumo_energy> 
-2.596 
 
>  <melting_point> 
221.94 
 
>  <molecular_refractivity> 
51.71 
 
>  <oscillator_strength_1> 
0.3775 
 
>  <oscillator_strength_2> 
0.2699 
 
>  <oscillator_strength_3> 
0.0001 
 
>  <oscillator_strength_4> 
0.0238 
 
>  <open_babel_can_smiles> 
N#C/C(=C\c1ccc(c(c1)O)O)/C(=O)O 
 
>  <mulliken_charges> 
22 
1   -0.186514 
2   -0.199945 
3   -0.198062 
4   -0.259789 
5   0.234002 
6   0.179105 
7   0.04572 
8   0.3358 
9   0.333389 
10   0.606038 
11   -0.526821 
12   -0.608332 
13   -0.627295 
14   -0.454646 
15   -0.583363 
16   0.153451 
17   0.138239 
18   0.192524 
19   0.162384 
20   0.418132 
21   0.420236 
22   0.425747 
 
>  <lowdin_charges> 
22 
1   -0.140519 
2   -0.20586 
3   -0.061601 
4   -0.19586 
5   -0.02739 
6   -0.024852 
7   -0.118222 
8   0.103461 
9   0.084396 
10   0.202254 
11   -0.136759 
12   -0.339091 
13   -0.357757 
14   -0.247296 
15   -0.343527 
16   0.170905 
17   0.163826 
18   0.192918 
19   0.178643 
20   0.366038 
21   0.36765 
22   0.368642 
 
$$$$ 
 
