PCCDB-ID:  1310 
public computational chemistry database (PCCDB) project, http://pccdb.org 
 
 23 23  0  0  1  0  0  0  0  0999 V2000 
   -0.5980   -0.9263   -0.3442 C   0  0  0  0  0  0  0  0  0  0  0  0 
    0.8383   -0.9520    0.1989 C   0  0  0  0  0  0  0  0  0  0  0  0 
    0.0448    1.3850    0.0143 C   0  0  0  0  0  0  0  0  0  0  0  0 
   -1.1576    0.4241    0.1690 C   0  0  2  0  0  0  0  0  0  0  0  0 
   -1.7545    0.2585    1.5800 C   0  0  0  0  0  0  0  0  0  0  0  0 
    2.2027    0.8736    1.2871 C   0  0  0  0  0  0  0  0  0  0  0  0 
    1.3487    0.5167    0.0543 C   0  0  1  0  0  0  0  0  0  0  0  0 
    2.2211    0.6428   -1.1334 N   0  0  0  0  0  0  0  0  0  0  0  0 
   -2.8984   -0.1174    1.7067 O   0  0  0  0  0  0  0  0  0  0  0  0 
   -0.9895    0.4927    2.6585 O   0  0  0  0  0  0  0  0  0  0  0  0 
    1.7080    1.0688    2.3852 O   0  0  0  0  0  0  0  0  0  0  0  0 
    3.5101    0.9206    1.0706 O   0  0  0  0  0  0  0  0  0  0  0  0 
   -1.1973   -1.7807   -0.0177 H   0  0  0  0  0  0  0  0  0  0  0  0 
   -0.5972   -0.9242   -1.4423 H   0  0  0  0  0  0  0  0  0  0  0  0 
    1.5027   -1.6575   -0.3119 H   0  0  0  0  0  0  0  0  0  0  0  0 
    0.8235   -1.2323    1.2568 H   0  0  0  0  0  0  0  0  0  0  0  0 
    0.0558    2.1767    0.7684 H   0  0  0  0  0  0  0  0  0  0  0  0 
   -0.0176    1.8775   -0.9625 H   0  0  0  0  0  0  0  0  0  0  0  0 
   -2.0031    0.7470   -0.4431 H   0  0  0  0  0  0  0  0  0  0  0  0 
    2.1407    1.5685   -1.5517 H   0  0  0  0  0  0  0  0  0  0  0  0 
    1.9751   -0.0338   -1.8520 H   0  0  0  0  0  0  0  0  0  0  0  0 
   -0.0578    0.7615    2.4691 H   0  0  0  0  0  0  0  0  0  0  0  0 
    3.6014    0.7322    0.0966 H   0  0  0  0  0  0  0  0  0  0  0  0 
  1 13  1  0  0  0  0 
  1  4  1  0  0  0  0 
  1  2  1  0  0  0  0 
  2 16  1  0  0  0  0 
  3  7  1  0  0  0  0 
  3  4  1  0  0  0  0 
  3 17  1  0  0  0  0 
  4 19  1  6  0  0  0 
  4  5  1  0  0  0  0 
  5  9  2  0  0  0  0 
  5 10  1  0  0  0  0 
  6 11  2  0  0  0  0 
  7  2  1  0  0  0  0 
  7  6  1  1  0  0  0 
  8  7  1  0  0  0  0 
 12  6  1  0  0  0  0 
 14  1  1  0  0  0  0 
 15  2  1  0  0  0  0 
 18  3  1  0  0  0  0 
 20  8  1  0  0  0  0 
 21  8  1  0  0  0  0 
 22 10  1  0  0  0  0 
 23 12  1  0  0  0  0 
M  END 
>  <HBA> 
5 
 
>  <HBD> 
3 
 
>  <TPSA> 
100.62 
 
>  <cid> 
1310 
 
>  <dipole> 
8.01 
 
>  <excitation_energy_1> 
5.466 
 
>  <excitation_energy_2> 
5.682 
 
>  <excitation_energy_3> 
5.769 
 
>  <excitation_energy_4> 
6.047 
 
>  <homo_energy> 
-6.857 
 
>  <homo_lumo_gap> 
6.501 
 
>  <logP> 
0.353 
 
>  <lumo_energy> 
-0.356 
 
>  <melting_point> 
214.94 
 
>  <molecular_refractivity> 
39.94 
 
>  <oscillator_strength_1> 
0.0006 
 
>  <oscillator_strength_2> 
0.0021 
 
>  <oscillator_strength_3> 
0.0095 
 
>  <oscillator_strength_4> 
0.0005 
 
>  <open_babel_can_smiles> 
OC(=O)[C@@H]1CC[C@](C1)(N)C(=O)O 
 
>  <mulliken_charges> 
23 
1   -0.280058 
2   -0.317139 
3   -0.337143 
4   -0.18797 
5   0.576738 
6   0.620066 
7   0.122882 
8   -0.799053 
9   -0.463828 
10   -0.602515 
11   -0.489068 
12   -0.563492 
13   0.182027 
14   0.139898 
15   0.157264 
16   0.187665 
17   0.183308 
18   0.147933 
19   0.170429 
20   0.326925 
21   0.330039 
22   0.454075 
23   0.441019 
 
>  <lowdin_charges> 
23 
1   -0.270294 
2   -0.28588 
3   -0.300394 
4   -0.166061 
5   0.178341 
6   0.186245 
7   0.016874 
8   -0.540146 
9   -0.261889 
10   -0.360769 
11   -0.271684 
12   -0.324139 
13   0.170135 
14   0.141895 
15   0.15779 
16   0.167792 
17   0.168376 
18   0.155077 
19   0.173437 
20   0.269723 
21   0.275733 
22   0.356711 
23   0.363128 
 
$$$$ 
 
