PCCDB-ID:  5424 
public computational chemistry database (PCCDB) project, http://pccdb.org 
 
 16 16  0  0  0  0  0  0  0  0999 V2000 
    0.9169    1.1244   -0.1021 C   0  0  0  0  0  0  0  0  0  0  0  0 
   -0.4157    1.3600   -0.0788 C   0  0  0  0  0  0  0  0  0  0  0  0 
    1.4364   -0.2650   -0.0367 C   0  0  0  0  0  0  0  0  0  0  0  0 
   -1.3792    0.2310   -0.1067 C   0  0  0  0  0  0  0  0  0  0  0  0 
    0.4744   -1.3904   -0.0265 C   0  0  0  0  0  0  0  0  0  0  0  0 
   -0.8602   -1.1555   -0.0752 C   0  0  0  0  0  0  0  0  0  0  0  0 
    1.8562    2.1106   -0.1327 O   0  0  0  0  0  0  0  0  0  0  0  0 
   -0.9603    2.6090   -0.0830 O   0  0  0  0  0  0  0  0  0  0  0  0 
    2.6386   -0.5169   -0.0107 O   0  0  0  0  0  0  0  0  0  0  0  0 
   -2.5952    0.4043   -0.1354 O   0  0  0  0  0  0  0  0  0  0  0  0 
    1.0218   -2.6189    0.0249 O   0  0  0  0  0  0  0  0  0  0  0  0 
   -1.7954   -2.1231   -0.0916 O   0  0  0  0  0  0  0  0  0  0  0  0 
    1.5154    2.8473   -0.6688 H   0  0  0  0  0  0  0  0  0  0  0  0 
   -0.3909    3.1983    0.4413 H   0  0  0  0  0  0  0  0  0  0  0  0 
    1.9912   -2.4657    0.0359 H   0  0  0  0  0  0  0  0  0  0  0  0 
   -2.6536   -1.6473   -0.1164 H   0  0  0  0  0  0  0  0  0  0  0  0 
  1  2  2  0  0  0  0 
  1  3  1  0  0  0  0 
  3  5  1  0  0  0  0 
  3  9  2  0  0  0  0 
  4  2  1  0  0  0  0 
  4  6  1  0  0  0  0 
  5 11  1  0  0  0  0 
  6  5  2  0  0  0  0 
  7  1  1  0  0  0  0 
  8  2  1  0  0  0  0 
  8 14  1  0  0  0  0 
 10  4  2  0  0  0  0 
 11 15  1  0  0  0  0 
 12  6  1  0  0  0  0 
 13  7  1  0  0  0  0 
 16 12  1  0  0  0  0 
M  END 
>  <HBA> 
6 
 
>  <HBD> 
4 
 
>  <TPSA> 
115.06 
 
>  <cid> 
5424 
 
>  <dipole> 
3.46 
 
>  <excitation_energy_1> 
1.943 
 
>  <excitation_energy_2> 
3.218 
 
>  <excitation_energy_3> 
3.376 
 
>  <excitation_energy_4> 
3.845 
 
>  <homo_energy> 
-6.109 
 
>  <homo_lumo_gap> 
2.702 
 
>  <logP> 
-0.207 
 
>  <lumo_energy> 
-3.407 
 
>  <melting_point> 
117.21 
 
>  <molecular_refractivity> 
34.58 
 
>  <oscillator_strength_1> 
0.0054 
 
>  <oscillator_strength_2> 
0.0013 
 
>  <oscillator_strength_3> 
0.0001 
 
>  <oscillator_strength_4> 
0.1884 
 
>  <open_babel_can_smiles> 
OC1=C(O)C(=O)C(=C(C1=O)O)O 
 
>  <mulliken_charges> 
16 
1   0.236078 
2   0.234826 
3   0.396392 
4   0.396441 
5   0.255152 
6   0.255474 
7   -0.618215 
8   -0.618975 
9   -0.487941 
10   -0.48813 
11   -0.62235 
12   -0.622234 
13   0.414379 
14   0.414414 
15   0.427317 
16   0.427371 
 
>  <lowdin_charges> 
16 
1   0.029641 
2   0.029941 
3   0.126972 
4   0.126399 
5   0.032944 
6   0.032814 
7   -0.353633 
8   -0.355927 
9   -0.226062 
10   -0.226111 
11   -0.340245 
12   -0.341634 
13   0.365836 
14   0.366301 
15   0.365384 
16   0.367379 
 
$$$$ 
 
