PCCDB-ID:  96 
public computational chemistry database (PCCDB) project, http://pccdb.org 
 
 13 12  0  0  0  0  0  0  0  0999 V2000 
    2.5025   -0.7555   -0.9555 C   0  0  0  0  0  0  0  0  0  0  0  0 
    2.5697    1.3652    0.5246 C   0  0  0  0  0  0  0  0  0  0  0  0 
    1.7660    0.4124   -0.3483 C   0  0  0  0  0  0  0  0  0  0  0  0 
    2.0998    2.8309    0.6013 C   0  0  0  0  0  0  0  0  0  0  0  0 
    0.5662    0.5769   -0.5334 O   0  0  0  0  0  0  0  0  0  0  0  0 
    2.8784    3.7162    0.8574 O   0  0  0  0  0  0  0  0  0  0  0  0 
    0.7907    3.0473    0.4239 O   0  0  0  0  0  0  0  0  0  0  0  0 
    3.2018   -0.3874   -1.7177 H   0  0  0  0  0  0  0  0  0  0  0  0 
    1.7955   -1.4475   -1.4165 H   0  0  0  0  0  0  0  0  0  0  0  0 
    3.1026   -1.2742   -0.1984 H   0  0  0  0  0  0  0  0  0  0  0  0 
    3.6282    1.3650    0.2531 H   0  0  0  0  0  0  0  0  0  0  0  0 
    2.5198    0.9640    1.5494 H   0  0  0  0  0  0  0  0  0  0  0  0 
    0.3635    2.2049    0.1323 H   0  0  0  0  0  0  0  0  0  0  0  0 
  1  3  1  0  0  0  0 
  1 10  1  0  0  0  0 
  2  4  1  0  0  0  0 
  2 12  1  0  0  0  0 
  3  2  1  0  0  0  0 
  4  6  2  0  0  0  0 
  5  3  2  0  0  0  0 
  7  4  1  0  0  0  0 
  8  1  1  0  0  0  0 
  9  1  1  0  0  0  0 
 11  2  1  0  0  0  0 
 13  7  1  0  0  0  0 
M  END 
>  <HBA> 
3 
 
>  <HBD> 
1 
 
>  <TPSA> 
54.37 
 
>  <cid> 
96 
 
>  <dipole> 
5.23 
 
>  <excitation_energy_1> 
4.557 
 
>  <excitation_energy_2> 
5.209 
 
>  <excitation_energy_3> 
5.692 
 
>  <excitation_energy_4> 
6.113 
 
>  <homo_energy> 
-7.298 
 
>  <homo_lumo_gap> 
5.826 
 
>  <logP> 
0.05 
 
>  <lumo_energy> 
-1.472 
 
>  <melting_point> 
73.31 
 
>  <molecular_refractivity> 
23.31 
 
>  <oscillator_strength_1> 
0.0017 
 
>  <oscillator_strength_2> 
0.0185 
 
>  <oscillator_strength_3> 
0.0009 
 
>  <oscillator_strength_4> 
0.0004 
 
>  <open_babel_can_smiles> 
CC(=O)CC(=O)O 
 
>  <mulliken_charges> 
13 
1   -0.531229 
2   -0.485874 
3   0.470608 
4   0.603959 
5   -0.4571 
6   -0.446397 
7   -0.575457 
8   0.192354 
9   0.194454 
10   0.181733 
11   0.198026 
12   0.217543 
13   0.437379 
 
>  <lowdin_charges> 
13 
1   -0.469351 
2   -0.353383 
3   0.181351 
4   0.194667 
5   -0.242411 
6   -0.248434 
7   -0.355429 
8   0.185483 
9   0.182114 
10   0.178174 
11   0.184638 
12   0.201175 
13   0.361406 
 
$$$$ 
 
