PCCDB-ID:  1853 
public computational chemistry database (PCCDB) project, http://pccdb.org 
 
 24 26  0  0  0  0  0  0  0  0999 V2000 
    2.9017   -1.5388   -0.0001 C   0  0  0  0  0  0  0  0  0  0  0  0 
    3.5705   -0.3026   -0.0002 C   0  0  0  0  0  0  0  0  0  0  0  0 
   -2.8816   -1.4993    0.0001 C   0  0  0  0  0  0  0  0  0  0  0  0 
   -3.5242   -0.2467    0.0002 C   0  0  0  0  0  0  0  0  0  0  0  0 
    1.5200   -1.5851   -0.0001 C   0  0  0  0  0  0  0  0  0  0  0  0 
   -1.5000   -1.5721   -0.0000 C   0  0  0  0  0  0  0  0  0  0  0  0 
    2.8375    0.8691   -0.0005 C   0  0  0  0  0  0  0  0  0  0  0  0 
   -2.7748    0.9140    0.0001 C   0  0  0  0  0  0  0  0  0  0  0  0 
    0.7442   -0.4034   -0.0007 C   0  0  0  0  0  0  0  0  0  0  0  0 
   -0.7083   -0.4022   -0.0004 C   0  0  0  0  0  0  0  0  0  0  0  0 
    1.4252    0.8468   -0.0007 C   0  0  0  0  0  0  0  0  0  0  0  0 
   -1.3628    0.8611   -0.0000 C   0  0  0  0  0  0  0  0  0  0  0  0 
    0.6073    2.0518   -0.0004 C   0  0  0  0  0  0  0  0  0  0  0  0 
   -0.6861    2.0604    0.0001 N   0  0  0  0  0  0  0  0  0  0  0  0 
    1.1866    3.2819   -0.0007 O   0  0  0  0  0  0  0  0  0  0  0  0 
    3.4729   -2.4630   -0.0002 H   0  0  0  0  0  0  0  0  0  0  0  0 
    4.6559   -0.2671   -0.0005 H   0  0  0  0  0  0  0  0  0  0  0  0 
   -3.4704   -2.4123    0.0001 H   0  0  0  0  0  0  0  0  0  0  0  0 
   -4.6095   -0.1944    0.0003 H   0  0  0  0  0  0  0  0  0  0  0  0 
    1.0262   -2.5505    0.0004 H   0  0  0  0  0  0  0  0  0  0  0  0 
   -1.0261   -2.5487    0.0002 H   0  0  0  0  0  0  0  0  0  0  0  0 
    3.3833    1.8105   -0.0006 H   0  0  0  0  0  0  0  0  0  0  0  0 
   -3.2388    1.8951   -0.0002 H   0  0  0  0  0  0  0  0  0  0  0  0 
    2.1506    3.1969   -0.0009 H   0  0  0  0  0  0  0  0  0  0  0  0 
  2  1  1  0  0  0  0 
  3  4  2  0  0  0  0 
  4 19  1  0  0  0  0 
  5  1  2  0  0  0  0 
  5 20  1  0  0  0  0 
  6  3  1  0  0  0  0 
  6 21  1  0  0  0  0 
  7  2  2  0  0  0  0 
  8  4  1  0  0  0  0 
  9 10  1  0  0  0  0 
  9  5  1  0  0  0  0 
 10  6  2  0  0  0  0 
 10 12  1  0  0  0  0 
 11  9  2  0  0  0  0 
 11  7  1  0  0  0  0 
 11 13  1  0  0  0  0 
 12 14  1  0  0  0  0 
 12  8  2  0  0  0  0 
 13 14  2  0  0  0  0 
 15 13  1  0  0  0  0 
 16  1  1  0  0  0  0 
 17  2  1  0  0  0  0 
 18  3  1  0  0  0  0 
 22  7  1  0  0  0  0 
 23  8  1  0  0  0  0 
 24 15  1  0  0  0  0 
M  END 
>  <HBA> 
1 
 
>  <HBD> 
1 
 
>  <TPSA> 
32.86 
 
>  <cid> 
1853 
 
>  <dipole> 
3.8 
 
>  <excitation_energy_1> 
3.934 
 
>  <excitation_energy_2> 
4.024 
 
>  <excitation_energy_3> 
4.474 
 
>  <excitation_energy_4> 
4.615 
 
>  <homo_energy> 
-5.889 
 
>  <homo_lumo_gap> 
4.596 
 
>  <logP> 
2.681 
 
>  <lumo_energy> 
-1.293 
 
>  <melting_point> 
175.71 
 
>  <molecular_refractivity> 
62.07 
 
>  <oscillator_strength_1> 
0.0098 
 
>  <oscillator_strength_2> 
0.0787 
 
>  <oscillator_strength_3> 
0.1029 
 
>  <oscillator_strength_4> 
0.0007 
 
>  <open_babel_can_smiles> 
Oc1nc2ccccc2c2c1cccc2 
 
>  <mulliken_charges> 
24 
1   -0.132527 
2   -0.125257 
3   -0.13827 
4   -0.131529 
5   -0.178781 
6   -0.196461 
7   -0.228635 
8   -0.154653 
9   0.089232 
10   0.091011 
11   0.094078 
12   0.232017 
13   0.432947 
14   -0.551525 
15   -0.598061 
16   0.140164 
17   0.138988 
18   0.129438 
19   0.132104 
20   0.142907 
21   0.130796 
22   0.120252 
23   0.144502 
24   0.417265 
 
>  <lowdin_charges> 
24 
1   -0.144079 
2   -0.151984 
3   -0.163305 
4   -0.148373 
5   -0.152369 
6   -0.157326 
7   -0.160698 
8   -0.156348 
9   0.016887 
10   -0.029845 
11   -0.048481 
12   0.046326 
13   0.131907 
14   -0.16624 
15   -0.349563 
16   0.163856 
17   0.161331 
18   0.158778 
19   0.157888 
20   0.16331 
21   0.156044 
22   0.15078 
23   0.169574 
24   0.35193 
 
$$$$ 
 
