PCCDB-ID:  179 
public computational chemistry database (PCCDB) project, http://pccdb.org 
 
 14 13  0  0  1  0  0  0  0  0999 V2000 
    1.2198   -0.6941    0.0786 C   0  0  0  0  0  0  0  0  0  0  0  0 
    3.7849    1.6280   -1.6668 C   0  0  0  0  0  0  0  0  0  0  0  0 
    2.5516    0.0494    0.0077 C   0  0  1  0  0  0  0  0  0  0  0  0 
    2.9584    0.3768   -1.4451 C   0  0  0  0  0  0  0  0  0  0  0  0 
    2.5917    1.1964    0.8548 O   0  0  0  0  0  0  0  0  0  0  0  0 
    2.6487   -0.3691   -2.3553 O   0  0  0  0  0  0  0  0  0  0  0  0 
    1.2387   -1.5731   -0.5697 H   0  0  0  0  0  0  0  0  0  0  0  0 
    0.3990   -0.0504   -0.2648 H   0  0  0  0  0  0  0  0  0  0  0  0 
    1.0138   -1.0021    1.1078 H   0  0  0  0  0  0  0  0  0  0  0  0 
    4.6337    1.6635   -0.9751 H   0  0  0  0  0  0  0  0  0  0  0  0 
    3.1858    2.5225   -1.4583 H   0  0  0  0  0  0  0  0  0  0  0  0 
    4.1307    1.6551   -2.7019 H   0  0  0  0  0  0  0  0  0  0  0  0 
    3.3498   -0.6020    0.3926 H   0  0  0  0  0  0  0  0  0  0  0  0 
    1.7811    1.7060    0.6953 H   0  0  0  0  0  0  0  0  0  0  0  0 
  1  9  1  0  0  0  0 
  2 11  1  0  0  0  0 
  2  4  1  0  0  0  0 
  2 10  1  0  0  0  0 
  3  1  1  0  0  0  0 
  3 13  1  1  0  0  0 
  3  5  1  0  0  0  0 
  4  3  1  0  0  0  0 
  6  4  2  0  0  0  0 
  7  1  1  0  0  0  0 
  8  1  1  0  0  0  0 
 12  2  1  0  0  0  0 
 14  5  1  0  0  0  0 
M  END 
>  <HBA> 
2 
 
>  <HBD> 
1 
 
>  <TPSA> 
37.3 
 
>  <cid> 
179 
 
>  <dipole> 
1.76 
 
>  <excitation_energy_1> 
4.155 
 
>  <excitation_energy_2> 
5.901 
 
>  <excitation_energy_3> 
6.493 
 
>  <excitation_energy_4> 
6.566 
 
>  <homo_energy> 
-6.468 
 
>  <homo_lumo_gap> 
5.943 
 
>  <logP> 
-0.044 
 
>  <lumo_energy> 
-0.525 
 
>  <melting_point> 
14.77 
 
>  <molecular_refractivity> 
22.7 
 
>  <oscillator_strength_1> 
0.0001 
 
>  <oscillator_strength_2> 
0.0033 
 
>  <oscillator_strength_3> 
0.0184 
 
>  <oscillator_strength_4> 
0.0208 
 
>  <open_babel_can_smiles> 
CC(=O)[C@@H](O)C 
 
>  <mulliken_charges> 
14 
1   -0.464104 
2   -0.513864 
3   0.055409 
4   0.421785 
5   -0.617434 
6   -0.43757 
7   0.180494 
8   0.13888 
9   0.158605 
10   0.178694 
11   0.16571 
12   0.174242 
13   0.169899 
14   0.389253 
 
>  <lowdin_charges> 
14 
1   -0.455713 
2   -0.472789 
3   -0.034639 
4   0.14863 
5   -0.457316 
6   -0.235012 
7   0.174523 
8   0.148732 
9   0.158264 
10   0.176753 
11   0.17168 
12   0.16907 
13   0.165331 
14   0.342486 
 
$$$$ 
 
