PCCDB-ID:  5843 
public computational chemistry database (PCCDB) project, http://pccdb.org 
 
 26 27  0  0  0  0  0  0  0  0999 V2000 
   -4.0252    1.7039    0.5828 C   0  0  0  0  0  0  0  0  0  0  0  0 
   -3.3519    1.7037   -0.7974 C   0  0  0  0  0  0  0  0  0  0  0  0 
   -2.9924    1.6836    1.7193 C   0  0  0  0  0  0  0  0  0  0  0  0 
   -2.3851    0.5189   -0.9707 C   0  0  0  0  0  0  0  0  0  0  0  0 
   -2.0249    0.4941    1.5958 C   0  0  0  0  0  0  0  0  0  0  0  0 
   -0.1548    1.2626    0.0319 C   0  0  0  0  0  0  0  0  0  0  0  0 
   -0.7815   -1.1100    0.1022 C   0  0  0  0  0  0  0  0  0  0  0  0 
    1.4246   -0.4362   -0.1707 C   0  0  0  0  0  0  0  0  0  0  0  0 
   -1.3466    0.3149    0.1901 C   0  0  0  0  0  0  0  0  0  0  0  0 
    1.0638    0.9325   -0.1266 N   0  0  0  0  0  0  0  0  0  0  0  0 
    0.4346   -1.4451   -0.0560 N   0  0  0  0  0  0  0  0  0  0  0  0 
   -0.4054    2.5924    0.0597 O   0  0  0  0  0  0  0  0  0  0  0  0 
   -1.6703   -2.1269    0.2092 O   0  0  0  0  0  0  0  0  0  0  0  0 
    2.5857   -0.7483   -0.3077 O   0  0  0  0  0  0  0  0  0  0  0  0 
   -4.6683    0.8155    0.6675 H   0  0  0  0  0  0  0  0  0  0  0  0 
   -4.6845    2.5737    0.6829 H   0  0  0  0  0  0  0  0  0  0  0  0 
   -2.8355    2.6590   -0.9709 H   0  0  0  0  0  0  0  0  0  0  0  0 
   -4.1096    1.6475   -1.5878 H   0  0  0  0  0  0  0  0  0  0  0  0 
   -3.4990    1.6161    2.6892 H   0  0  0  0  0  0  0  0  0  0  0  0 
   -2.4413    2.6345    1.7533 H   0  0  0  0  0  0  0  0  0  0  0  0 
   -1.8434    0.5965   -1.9198 H   0  0  0  0  0  0  0  0  0  0  0  0 
   -2.9938   -0.3909   -1.0509 H   0  0  0  0  0  0  0  0  0  0  0  0 
   -2.5963   -0.4161    1.8195 H   0  0  0  0  0  0  0  0  0  0  0  0 
   -1.2422    0.5481    2.3605 H   0  0  0  0  0  0  0  0  0  0  0  0 
   -1.3493    2.7575    0.1909 H   0  0  0  0  0  0  0  0  0  0  0  0 
   -2.5695   -1.7842    0.3268 H   0  0  0  0  0  0  0  0  0  0  0  0 
  1 15  1  0  0  0  0 
  1 16  1  0  0  0  0 
  1  3  1  0  0  0  0 
  2  1  1  0  0  0  0 
  3 20  1  0  0  0  0 
  3 19  1  0  0  0  0 
  4  2  1  0  0  0  0 
  4  9  1  0  0  0  0 
  5  3  1  0  0  0  0 
  5 23  1  0  0  0  0 
  5 24  1  0  0  0  0 
  6 12  1  0  0  0  0 
  6  9  1  0  0  0  0 
  7  9  1  0  0  0  0 
  7 13  1  0  0  0  0 
  8 10  2  0  0  0  0 
  8 11  1  0  0  0  0 
  9  5  1  0  0  0  0 
 10  6  2  0  0  0  0 
 11  7  2  0  0  0  0 
 12 25  1  0  0  0  0 
 13 26  1  0  0  0  0 
 14  8  2  0  0  0  0 
 17  2  1  0  0  0  0 
 18  2  1  0  0  0  0 
 21  4  1  0  0  0  0 
 22  4  1  0  0  0  0 
M  END 
>  <HBA> 
5 
 
>  <HBD> 
2 
 
>  <TPSA> 
75.27 
 
>  <cid> 
5843 
 
>  <dipole> 
10.84 
 
>  <excitation_energy_1> 
3.98 
 
>  <excitation_energy_2> 
4.14 
 
>  <excitation_energy_3> 
5.215 
 
>  <excitation_energy_4> 
5.55 
 
>  <homo_energy> 
-6.844 
 
>  <homo_lumo_gap> 
5.363 
 
>  <logP> 
0.961 
 
>  <lumo_energy> 
-1.48 
 
>  <melting_point> 
164.15 
 
>  <molecular_refractivity> 
55.31 
 
>  <oscillator_strength_1> 
0.0 
 
>  <oscillator_strength_2> 
0.0 
 
>  <oscillator_strength_3> 
0.0002 
 
>  <oscillator_strength_4> 
0.0241 
 
>  <open_babel_can_smiles> 
O=[C]1=[N]=C(C2(C(=N1)O)CCCCC2)O 
 
>  <mulliken_charges> 
26 
1   -0.262435 
2   -0.302233 
3   -0.301018 
4   -0.287371 
5   -0.285756 
6   0.513675 
7   0.533658 
8   0.619301 
9   -0.122869 
10   -0.459655 
11   -0.466034 
12   -0.57838 
13   -0.573843 
14   -0.431955 
15   0.137469 
16   0.156455 
17   0.148695 
18   0.164071 
19   0.164034 
20   0.148556 
21   0.183602 
22   0.14185 
23   0.142367 
24   0.183263 
25   0.421908 
26   0.412646 
 
>  <lowdin_charges> 
26 
1   -0.281591 
2   -0.289288 
3   -0.288205 
4   -0.278183 
5   -0.278278 
6   0.147139 
7   0.145115 
8   0.169913 
9   -0.060654 
10   -0.183863 
11   -0.180216 
12   -0.332919 
13   -0.329574 
14   -0.209074 
15   0.143408 
16   0.157637 
17   0.143865 
18   0.163486 
19   0.162554 
20   0.143968 
21   0.169984 
22   0.147392 
23   0.147578 
24   0.170564 
25   0.346948 
26   0.352295 
 
$$$$ 
 
