PCCDB-ID:  795 
public computational chemistry database (PCCDB) project, http://pccdb.org 
 
  9  9  0  0  0  0  0  0  0  0999 V2000 
   -1.1345   -0.0050   -0.0001 C   0  0  0  0  0  0  0  0  0  0  0  0 
   -0.3624   -1.1395    0.0003 C   0  0  0  0  0  0  0  0  0  0  0  0 
    0.8924    0.6813   -0.0010 C   0  0  0  0  0  0  0  0  0  0  0  0 
   -0.3454    1.1254   -0.0010 N   0  0  0  0  0  0  0  0  0  0  0  0 
    0.9413   -0.6851   -0.0008 N   0  0  0  0  0  0  0  0  0  0  0  0 
   -2.2138    0.0651    0.0001 H   0  0  0  0  0  0  0  0  0  0  0  0 
   -0.6035   -2.1918    0.0006 H   0  0  0  0  0  0  0  0  0  0  0  0 
    1.7858    1.2915   -0.0019 H   0  0  0  0  0  0  0  0  0  0  0  0 
    1.7730   -1.2573    0.0023 H   0  0  0  0  0  0  0  0  0  0  0  0 
  1  6  1  0  0  0  0 
  1  2  2  0  0  0  0 
  2  7  1  0  0  0  0 
  3  4  2  0  0  0  0 
  3  5  1  0  0  0  0 
  4  1  1  0  0  0  0 
  5  2  1  0  0  0  0 
  5  9  1  0  0  0  0 
  8  3  1  0  0  0  0 
M  END 
>  <HBA> 
1 
 
>  <HBD> 
1 
 
>  <TPSA> 
28.68 
 
>  <cid> 
795 
 
>  <dipole> 
3.72 
 
>  <excitation_energy_1> 
5.364 
 
>  <excitation_energy_2> 
6.244 
 
>  <excitation_energy_3> 
6.263 
 
>  <excitation_energy_4> 
6.505 
 
>  <homo_energy> 
-6.125 
 
>  <homo_lumo_gap> 
7.031 
 
>  <logP> 
0.41 
 
>  <lumo_energy> 
0.906 
 
>  <melting_point> 
65.09 
 
>  <molecular_refractivity> 
18.59 
 
>  <oscillator_strength_1> 
0.0004 
 
>  <oscillator_strength_2> 
0.0264 
 
>  <oscillator_strength_3> 
0.1493 
 
>  <oscillator_strength_4> 
0.0023 
 
>  <open_babel_can_smiles> 
c1ncc[nH]1 
 
>  <mulliken_charges> 
9 
1   -0.030448 
2   0.01785 
3   0.206152 
4   -0.422297 
5   -0.546709 
6   0.135084 
7   0.151849 
8   0.154119 
9   0.334399 
 
>  <lowdin_charges> 
9 
1   -0.152536 
2   -0.169753 
3   -0.095863 
4   -0.187712 
5   -0.182737 
6   0.159694 
7   0.167892 
8   0.166914 
9   0.2941 
 
$$$$ 
 
