PCCDB-ID:  5929 
public computational chemistry database (PCCDB) project, http://pccdb.org 
 
 25 25  0  0  1  0  0  0  0  0999 V2000 
    0.6961    0.1654    0.3626 C   0  0  0  0  0  0  0  0  0  0  0  0 
    1.3735   -5.0303   -0.4560 C   0  0  0  0  0  0  0  0  0  0  0  0 
    0.6809   -4.1927   -1.3308 C   0  0  0  0  0  0  0  0  0  0  0  0 
    2.4714   -4.5315    0.2487 C   0  0  0  0  0  0  0  0  0  0  0  0 
    1.0841   -2.8663   -1.4977 C   0  0  0  0  0  0  0  0  0  0  0  0 
    2.8696   -3.2059    0.0777 C   0  0  0  0  0  0  0  0  0  0  0  0 
    2.6179   -0.9099   -0.9587 C   0  0  0  0  0  0  0  0  0  0  0  0 
    2.2153    0.0112    0.2149 C   0  0  1  0  0  0  0  0  0  0  0  0 
    2.1810   -2.3505   -0.7954 C   0  0  0  0  0  0  0  0  0  0  0  0 
    2.6599    2.1759    1.1806 N   0  0  0  0  0  0  0  0  0  0  0  0 
    2.9441    1.2836    0.0308 N   0  0  0  0  0  0  0  0  0  0  0  0 
    0.2207   -0.7910    0.6035 H   0  0  0  0  0  0  0  0  0  0  0  0 
    0.2558    0.5334   -0.5746 H   0  0  0  0  0  0  0  0  0  0  0  0 
    0.4651    0.8867    1.1506 H   0  0  0  0  0  0  0  0  0  0  0  0 
    1.0643   -6.0642   -0.3272 H   0  0  0  0  0  0  0  0  0  0  0  0 
   -0.1723   -4.5713   -1.8879 H   0  0  0  0  0  0  0  0  0  0  0  0 
    3.0228   -5.1778    0.9269 H   0  0  0  0  0  0  0  0  0  0  0  0 
    0.5411   -2.2212   -2.1850 H   0  0  0  0  0  0  0  0  0  0  0  0 
    3.7322   -2.8284    0.6232 H   0  0  0  0  0  0  0  0  0  0  0  0 
    3.7085   -0.8554   -1.0571 H   0  0  0  0  0  0  0  0  0  0  0  0 
    2.1958   -0.5008   -1.8874 H   0  0  0  0  0  0  0  0  0  0  0  0 
    2.6165   -0.4336    1.1382 H   0  0  0  0  0  0  0  0  0  0  0  0 
    3.2533    2.9894    0.9973 H   0  0  0  0  0  0  0  0  0  0  0  0 
    3.1430    1.7169    1.9586 H   0  0  0  0  0  0  0  0  0  0  0  0 
    2.4823    1.7615   -0.7482 H   0  0  0  0  0  0  0  0  0  0  0  0 
  1 12  1  0  0  0  0 
  1 14  1  0  0  0  0 
  2 15  1  0  0  0  0 
  2  4  2  0  0  0  0 
  3  2  1  0  0  0  0 
  4 17  1  0  0  0  0 
  5  3  2  0  0  0  0 
  5  9  1  0  0  0  0 
  6  4  1  0  0  0  0 
  6 19  1  0  0  0  0 
  7  9  1  0  0  0  0 
  7  8  1  0  0  0  0 
  8  1  1  0  0  0  0 
  8 22  1  1  0  0  0 
  9  6  2  0  0  0  0 
 10 24  1  0  0  0  0 
 11  8  1  0  0  0  0 
 11 10  1  0  0  0  0 
 13  1  1  0  0  0  0 
 16  3  1  0  0  0  0 
 18  5  1  0  0  0  0 
 20  7  1  0  0  0  0 
 21  7  1  0  0  0  0 
 23 10  1  0  0  0  0 
 25 11  1  0  0  0  0 
M  END 
>  <HBA> 
2 
 
>  <HBD> 
2 
 
>  <TPSA> 
38.05 
 
>  <cid> 
5929 
 
>  <dipole> 
0.46 
 
>  <excitation_energy_1> 
4.626 
 
>  <excitation_energy_2> 
4.792 
 
>  <excitation_energy_3> 
4.81 
 
>  <excitation_energy_4> 
5.208 
 
>  <homo_energy> 
-5.276 
 
>  <homo_lumo_gap> 
5.336 
 
>  <logP> 
2.172 
 
>  <lumo_energy> 
0.06 
 
>  <melting_point> 
87.25 
 
>  <molecular_refractivity> 
46.53 
 
>  <oscillator_strength_1> 
0.0003 
 
>  <oscillator_strength_2> 
0.0003 
 
>  <oscillator_strength_3> 
0.001 
 
>  <oscillator_strength_4> 
0.008 
 
>  <open_babel_can_smiles> 
NN[C@H](Cc1ccccc1)C 
 
>  <mulliken_charges> 
25 
1   -0.452089 
2   -0.131496 
3   -0.127918 
4   -0.128328 
5   -0.18356 
6   -0.181675 
7   -0.351993 
8   0.037188 
9   0.175164 
10   -0.592825 
11   -0.467054 
12   0.151866 
13   0.12509 
14   0.174259 
15   0.12715 
16   0.127704 
17   0.127562 
18   0.122759 
19   0.123987 
20   0.158545 
21   0.131262 
22   0.126759 
23   0.305087 
24   0.303448 
25   0.299108 
 
>  <lowdin_charges> 
25 
1   -0.466531 
2   -0.160574 
3   -0.156213 
4   -0.156798 
5   -0.169888 
6   -0.167402 
7   -0.276419 
8   -0.066657 
9   0.000142 
10   -0.4971 
11   -0.322741 
12   0.156555 
13   0.140628 
14   0.165799 
15   0.155414 
16   0.157288 
17   0.157945 
18   0.155437 
19   0.154836 
20   0.157745 
21   0.144263 
22   0.135582 
23   0.255687 
24   0.253077 
25   0.249925 
 
$$$$ 
 
