PCCDB-ID:  1136 
public computational chemistry database (PCCDB) project, http://pccdb.org 
 
 18 18  0  0  0  0  0  0  0  0999 V2000 
    1.1377    0.9150   -0.0730 C   0  0  0  0  0  0  0  0  0  0  0  0 
    2.5733   -1.9646   -0.1685 C   0  0  0  0  0  0  0  0  0  0  0  0 
    2.3247   -2.6066    1.2107 C   0  0  0  0  0  0  0  0  0  0  0  0 
    4.7194    1.3148    0.1127 C   0  0  0  0  0  0  0  0  0  0  0  0 
    2.6151    0.6334   -0.0088 C   0  0  0  0  0  0  0  0  0  0  0  0 
    3.2118   -0.6052   -0.0788 C   0  0  0  0  0  0  0  0  0  0  0  0 
    3.4831    1.7081    0.0951 N   0  0  0  0  0  0  0  0  0  0  0  0 
    1.4597   -1.8317    2.0246 O   0  0  0  0  0  0  0  0  0  0  0  0 
    4.9505   -0.4115    0.0016 S   0  0  0  0  0  0  0  0  0  0  0  0 
    0.5464    0.0529    0.2438 H   0  0  0  0  0  0  0  0  0  0  0  0 
    0.8333    1.1922   -1.0906 H   0  0  0  0  0  0  0  0  0  0  0  0 
    0.8956    1.7605    0.5780 H   0  0  0  0  0  0  0  0  0  0  0  0 
    1.6118   -1.8730   -0.6856 H   0  0  0  0  0  0  0  0  0  0  0  0 
    3.1940   -2.6412   -0.7693 H   0  0  0  0  0  0  0  0  0  0  0  0 
    3.2874   -2.7918    1.7138 H   0  0  0  0  0  0  0  0  0  0  0  0 
    1.8275   -3.5727    1.0780 H   0  0  0  0  0  0  0  0  0  0  0  0 
    5.5689    1.9839    0.1907 H   0  0  0  0  0  0  0  0  0  0  0  0 
    1.9044   -0.9829    2.1834 H   0  0  0  0  0  0  0  0  0  0  0  0 
  1  5  1  0  0  0  0 
  1 10  1  0  0  0  0 
  1 12  1  0  0  0  0 
  2  6  1  0  0  0  0 
  2  3  1  0  0  0  0 
  3 15  1  0  0  0  0 
  3  8  1  0  0  0  0 
  4 17  1  0  0  0  0 
  5  7  1  0  0  0  0 
  6  5  2  0  0  0  0 
  6  9  1  0  0  0  0 
  7  4  2  0  0  0  0 
  8 18  1  0  0  0  0 
  9  4  1  0  0  0  0 
 11  1  1  0  0  0  0 
 13  2  1  0  0  0  0 
 14  2  1  0  0  0  0 
 16  3  1  0  0  0  0 
M  END 
>  <HBA> 
3 
 
>  <HBD> 
1 
 
>  <TPSA> 
61.36 
 
>  <cid> 
1136 
 
>  <dipole> 
1.57 
 
>  <excitation_energy_1> 
5.171 
 
>  <excitation_energy_2> 
5.284 
 
>  <excitation_energy_3> 
5.373 
 
>  <excitation_energy_4> 
5.819 
 
>  <homo_energy> 
-6.465 
 
>  <homo_lumo_gap> 
5.725 
 
>  <logP> 
0.986 
 
>  <lumo_energy> 
-0.74 
 
>  <melting_point> 
44.68 
 
>  <molecular_refractivity> 
38.01 
 
>  <oscillator_strength_1> 
0.1148 
 
>  <oscillator_strength_2> 
0.0021 
 
>  <oscillator_strength_3> 
0.0103 
 
>  <oscillator_strength_4> 
0.0052 
 
>  <open_babel_can_smiles> 
Cc1ncsc1CCO 
 
>  <mulliken_charges> 
18 
1   -0.519435 
2   -0.332291 
3   -0.028598 
4   -0.126018 
5   0.265011 
6   -0.184125 
7   -0.382081 
8   -0.609792 
9   0.217347 
10   0.170615 
11   0.168376 
12   0.173716 
13   0.170502 
14   0.154262 
15   0.130975 
16   0.152141 
17   0.181639 
18   0.397757 
 
>  <lowdin_charges> 
18 
1   -0.449925 
2   -0.291443 
3   -0.132038 
4   -0.237017 
5   -0.000787 
6   -0.191036 
7   -0.157292 
8   -0.462873 
9   0.281837 
10   0.166127 
11   0.16486 
12   0.171343 
13   0.165917 
14   0.16322 
15   0.130576 
16   0.150516 
17   0.183311 
18   0.344706 
 
$$$$ 
 
