PCCDB-ID:  308 
public computational chemistry database (PCCDB) project, http://pccdb.org 
 
 20 20  0  0  0  0  0  0  0  0999 V2000 
   -1.6136   -0.0628   -0.0800 C   0  0  0  0  0  0  0  0  0  0  0  0 
   -0.9719    1.1537    0.1729 C   0  0  0  0  0  0  0  0  0  0  0  0 
   -0.8512   -1.2192   -0.2453 C   0  0  0  0  0  0  0  0  0  0  0  0 
    3.4843    1.1102    0.3619 C   0  0  0  0  0  0  0  0  0  0  0  0 
    0.4156    1.2141    0.2592 C   0  0  0  0  0  0  0  0  0  0  0  0 
    0.5389   -1.1567   -0.1598 C   0  0  0  0  0  0  0  0  0  0  0  0 
    2.6694    0.0618    0.1656 C   0  0  0  0  0  0  0  0  0  0  0  0 
    4.9809    1.0041    0.4086 C   0  0  0  0  0  0  0  0  0  0  0  0 
    1.2008    0.0579    0.0914 C   0  0  0  0  0  0  0  0  0  0  0  0 
    5.6112    1.8256   -0.5762 O   0  0  0  0  0  0  0  0  0  0  0  0 
   -2.6973   -0.1062   -0.1457 H   0  0  0  0  0  0  0  0  0  0  0  0 
   -1.5578    2.0594    0.3060 H   0  0  0  0  0  0  0  0  0  0  0  0 
   -1.3375   -2.1709   -0.4424 H   0  0  0  0  0  0  0  0  0  0  0  0 
    3.0885    2.1188    0.4750 H   0  0  0  0  0  0  0  0  0  0  0  0 
    0.8939    2.1681    0.4607 H   0  0  0  0  0  0  0  0  0  0  0  0 
    1.1275   -2.0621   -0.2904 H   0  0  0  0  0  0  0  0  0  0  0  0 
    3.1309   -0.9201    0.0455 H   0  0  0  0  0  0  0  0  0  0  0  0 
    5.2900   -0.0496    0.3135 H   0  0  0  0  0  0  0  0  0  0  0  0 
    5.3669    1.3720    1.3669 H   0  0  0  0  0  0  0  0  0  0  0  0 
    5.2305    1.5763   -1.4334 H   0  0  0  0  0  0  0  0  0  0  0  0 
  1  2  2  0  0  0  0 
  2  5  1  0  0  0  0 
  2 12  1  0  0  0  0 
  3  6  2  0  0  0  0 
  3  1  1  0  0  0  0 
  4  8  1  0  0  0  0 
  4 14  1  0  0  0  0 
  5 15  1  0  0  0  0 
  6  9  1  0  0  0  0 
  7  4  2  0  0  0  0 
  8 19  1  0  0  0  0 
  9  7  1  0  0  0  0 
  9  5  2  0  0  0  0 
 10  8  1  0  0  0  0 
 11  1  1  0  0  0  0 
 13  3  1  0  0  0  0 
 16  6  1  0  0  0  0 
 17  7  1  0  0  0  0 
 18  8  1  0  0  0  0 
 20 10  1  0  0  0  0 
M  END 
>  <HBA> 
1 
 
>  <HBD> 
1 
 
>  <TPSA> 
20.23 
 
>  <cid> 
308 
 
>  <dipole> 
1.89 
 
>  <excitation_energy_1> 
4.689 
 
>  <excitation_energy_2> 
4.816 
 
>  <excitation_energy_3> 
5.54 
 
>  <excitation_energy_4> 
5.679 
 
>  <homo_energy> 
-6.076 
 
>  <homo_lumo_gap> 
5.07 
 
>  <logP> 
1.692 
 
>  <lumo_energy> 
-1.007 
 
>  <melting_point> 
44.79 
 
>  <molecular_refractivity> 
42.5 
 
>  <oscillator_strength_1> 
0.3685 
 
>  <oscillator_strength_2> 
0.1451 
 
>  <oscillator_strength_3> 
0.004 
 
>  <oscillator_strength_4> 
0.1736 
 
>  <open_babel_can_smiles> 
OC/C=C/c1ccccc1 
 
>  <mulliken_charges> 
20 
1   -0.128716 
2   -0.129792 
3   -0.129002 
4   -0.139879 
5   -0.18164 
6   -0.195954 
7   -0.174588 
8   -0.070452 
9   0.176812 
10   -0.610352 
11   0.13156 
12   0.132163 
13   0.131717 
14   0.137707 
15   0.131014 
16   0.128596 
17   0.123983 
18   0.127013 
19   0.154237 
20   0.385572 
 
>  <lowdin_charges> 
20 
1   -0.152963 
2   -0.153921 
3   -0.155073 
4   -0.182807 
5   -0.154577 
6   -0.160324 
7   -0.159677 
8   -0.128229 
9   -0.003141 
10   -0.467125 
11   0.156827 
12   0.15926 
13   0.158871 
14   0.154856 
15   0.158236 
16   0.156673 
17   0.151467 
18   0.128344 
19   0.153088 
20   0.340213 
 
$$$$ 
 
