PCCDB-ID:  3169 
public computational chemistry database (PCCDB) project, http://pccdb.org 
 
 37 38  0  0  1  0  0  0  0  0999 V2000 
   -1.4805    0.2028   -0.7945 C   0  0  0  0  0  0  0  0  0  0  0  0 
   -0.6198   -0.7591   -1.3196 C   0  0  0  0  0  0  0  0  0  0  0  0 
   -0.9325    1.2603   -0.0643 C   0  0  0  0  0  0  0  0  0  0  0  0 
    0.7605   -0.6667   -1.1369 C   0  0  0  0  0  0  0  0  0  0  0  0 
    0.4403    1.3528    0.1397 C   0  0  0  0  0  0  0  0  0  0  0  0 
    4.2563   -0.4206   -1.8643 C   0  0  0  0  0  0  0  0  0  0  0  0 
    4.0387    1.9647   -1.6214 C   0  0  0  0  0  0  0  0  0  0  0  0 
    3.6144   -0.5985   -0.4821 C   0  0  0  0  0  0  0  0  0  0  0  0 
    3.3881    1.7786   -0.2428 C   0  0  0  0  0  0  0  0  0  0  0  0 
    5.7138    1.0656   -3.1496 C   0  0  0  0  0  0  0  0  0  0  0  0 
    7.9911    1.3266   -2.0428 C   0  0  0  0  0  0  0  0  0  0  0  0 
    1.3251    0.3931   -0.3991 C   0  0  0  0  0  0  0  0  0  0  0  0 
    6.9404    1.9756   -2.9535 C   0  0  1  0  0  0  0  0  0  0  0  0 
    4.9603    0.8638   -1.9129 N   0  0  0  0  0  0  0  0  0  0  0  0 
    2.7046    0.4887   -0.1387 N   0  0  0  0  0  0  0  0  0  0  0  0 
    8.6657    0.2656   -2.7262 O   0  0  0  0  0  0  0  0  0  0  0  0 
    7.5186    2.3014   -4.2181 O   0  0  0  0  0  0  0  0  0  0  0  0 
   -2.5535    0.1304   -0.9462 H   0  0  0  0  0  0  0  0  0  0  0  0 
   -1.0189   -1.5901   -1.8963 H   0  0  0  0  0  0  0  0  0  0  0  0 
   -1.5824    2.0164    0.3696 H   0  0  0  0  0  0  0  0  0  0  0  0 
    1.3964   -1.4177   -1.5920 H   0  0  0  0  0  0  0  0  0  0  0  0 
    0.8296    2.1577    0.7550 H   0  0  0  0  0  0  0  0  0  0  0  0 
    3.4797   -0.4974   -2.6505 H   0  0  0  0  0  0  0  0  0  0  0  0 
    4.9820   -1.2243   -2.0364 H   0  0  0  0  0  0  0  0  0  0  0  0 
    4.5914    2.9109   -1.6313 H   0  0  0  0  0  0  0  0  0  0  0  0 
    3.2445    2.0421   -2.3909 H   0  0  0  0  0  0  0  0  0  0  0  0 
    4.4206   -0.6062    0.2646 H   0  0  0  0  0  0  0  0  0  0  0  0 
    3.0950   -1.5561   -0.4079 H   0  0  0  0  0  0  0  0  0  0  0  0 
    2.6880    2.5941   -0.0590 H   0  0  0  0  0  0  0  0  0  0  0  0 
    4.1694    1.8255    0.5282 H   0  0  0  0  0  0  0  0  0  0  0  0 
    6.0827    0.0876   -3.4847 H   0  0  0  0  0  0  0  0  0  0  0  0 
    5.0901    1.4782   -3.9625 H   0  0  0  0  0  0  0  0  0  0  0  0 
    7.4967    0.8829   -1.1743 H   0  0  0  0  0  0  0  0  0  0  0  0 
    8.7096    2.0801   -1.6922 H   0  0  0  0  0  0  0  0  0  0  0  0 
    6.6302    2.9320   -2.5185 H   0  0  0  0  0  0  0  0  0  0  0  0 
    9.3487    0.6811   -3.2743 H   0  0  0  0  0  0  0  0  0  0  0  0 
    7.7266    1.4495   -4.6371 H   0  0  0  0  0  0  0  0  0  0  0  0 
  1  3  2  0  0  0  0 
  2  4  2  0  0  0  0 
  2  1  1  0  0  0  0 
  3  5  1  0  0  0  0 
  3 20  1  0  0  0  0 
  4 12  1  0  0  0  0 
  5 22  1  0  0  0  0 
  6  8  1  0  0  0  0 
  7  9  1  0  0  0  0 
  8 28  1  0  0  0  0 
  8 15  1  0  0  0  0 
  8 27  1  0  0  0  0 
  9 15  1  0  0  0  0 
  9 29  1  0  0  0  0 
  9 30  1  0  0  0  0 
 10 13  1  0  0  0  0 
 10 14  1  0  0  0  0 
 11 34  1  0  0  0  0 
 11 33  1  0  0  0  0 
 12 15  1  0  0  0  0 
 12  5  2  0  0  0  0 
 13 35  1  1  0  0  0 
 13 11  1  0  0  0  0 
 14  6  1  0  0  0  0 
 14  7  1  0  0  0  0 
 16 11  1  0  0  0  0 
 17 13  1  0  0  0  0 
 18  1  1  0  0  0  0 
 19  2  1  0  0  0  0 
 21  4  1  0  0  0  0 
 23  6  1  0  0  0  0 
 24  6  1  0  0  0  0 
 25  7  1  0  0  0  0 
 26  7  1  0  0  0  0 
 31 10  1  0  0  0  0 
 32 10  1  0  0  0  0 
 36 16  1  0  0  0  0 
 37 17  1  0  0  0  0 
M  END 
>  <HBA> 
4 
 
>  <HBD> 
2 
 
>  <TPSA> 
46.94 
 
>  <cid> 
3169 
 
>  <dipole> 
1.08 
 
>  <excitation_energy_1> 
4.351 
 
>  <excitation_energy_2> 
4.576 
 
>  <excitation_energy_3> 
4.668 
 
>  <excitation_energy_4> 
4.88 
 
>  <homo_energy> 
-5.056 
 
>  <homo_lumo_gap> 
5.257 
 
>  <logP> 
0.165 
 
>  <lumo_energy> 
0.201 
 
>  <melting_point> 
71.79 
 
>  <molecular_refractivity> 
74.64 
 
>  <oscillator_strength_1> 
0.0225 
 
>  <oscillator_strength_2> 
0.0462 
 
>  <oscillator_strength_3> 
0.0108 
 
>  <oscillator_strength_4> 
0.1414 
 
>  <open_babel_can_smiles> 
OC[C@H](CN1CCN(CC1)c1ccccc1)O 
 
>  <mulliken_charges> 
37 
1   -0.136554 
2   -0.137808 
3   -0.134512 
4   -0.190313 
5   -0.179174 
6   -0.128547 
7   -0.12872 
8   -0.153829 
9   -0.155341 
10   -0.150717 
11   -0.058946 
12   0.334599 
13   0.126562 
14   -0.404811 
15   -0.481258 
16   -0.625085 
17   -0.633926 
18   0.120331 
19   0.123529 
20   0.123744 
21   0.121975 
22   0.126082 
23   0.124124 
24   0.145903 
25   0.14153 
26   0.126116 
27   0.151241 
28   0.155775 
29   0.154073 
30   0.146923 
31   0.142634 
32   0.131733 
33   0.162175 
34   0.130189 
35   0.134775 
36   0.391805 
37   0.38372 
 
>  <lowdin_charges> 
37 
1   -0.184499 
2   -0.148621 
3   -0.150126 
4   -0.2114 
5   -0.197027 
6   -0.214607 
7   -0.214158 
8   -0.20601 
9   -0.202094 
10   -0.223303 
11   -0.158543 
12   0.057899 
13   -0.025607 
14   -0.192676 
15   -0.133429 
16   -0.473329 
17   -0.462374 
18   0.152701 
19   0.15558 
20   0.156362 
21   0.156109 
22   0.156434 
23   0.123753 
24   0.151527 
25   0.147583 
26   0.125435 
27   0.150465 
28   0.158065 
29   0.159359 
30   0.146387 
31   0.148939 
32   0.133357 
33   0.157231 
34   0.136683 
35   0.144215 
36   0.343834 
37   0.335886 
 
$$$$ 
 
