PCCDB-ID:  5944 
public computational chemistry database (PCCDB) project, http://pccdb.org 
 
 26 28  0  0  1  0  0  0  0  0999 V2000 
    0.5955    1.5225    1.3064 C   0  0  0  0  0  0  0  0  0  0  0  0 
    3.5602   -1.2257    1.5417 C   0  0  0  0  0  0  0  0  0  0  0  0 
    2.4746    2.4055   -0.5188 C   0  0  0  0  0  0  0  0  0  0  0  0 
    3.4366    2.6165    0.6974 C   0  0  0  0  0  0  0  0  0  0  0  0 
    2.3379    0.8619   -0.5066 C   0  0  2  0  0  0  0  0  0  0  0  0 
    3.8907    1.1694    1.0010 C   0  0  1  0  0  0  0  0  0  0  0  0 
    0.9092   -0.8337    1.2724 C   0  0  0  0  0  0  0  0  0  0  0  0 
    2.1751    0.0602    3.0371 C   0  0  0  0  0  0  0  0  0  0  0  0 
    1.6259    0.4325    0.8304 C   0  0  2  0  0  0  0  0  0  0  0  0 
    2.9081    0.2120    1.7257 C   0  0  2  0  0  0  0  0  0  0  0  0 
    0.2430   -1.6624    0.7307 O   0  0  0  0  0  0  0  0  0  0  0  0 
    2.3128    0.4538    4.1546 O   0  0  0  0  0  0  0  0  0  0  0  0 
    3.7324    0.5356   -0.3059 O   0  0  0  0  0  0  0  0  0  0  0  0 
    1.1181   -0.8390    2.6826 O   0  0  0  0  0  0  0  0  0  0  0  0 
   -0.0962    1.7177    0.4811 H   0  0  0  0  0  0  0  0  0  0  0  0 
    1.0550    2.4638    1.6034 H   0  0  0  0  0  0  0  0  0  0  0  0 
   -0.0038    1.1781    2.1506 H   0  0  0  0  0  0  0  0  0  0  0  0 
    4.6445   -1.1200    1.4674 H   0  0  0  0  0  0  0  0  0  0  0  0 
    3.2195   -1.7244    0.6326 H   0  0  0  0  0  0  0  0  0  0  0  0 
    3.3448   -1.8818    2.3886 H   0  0  0  0  0  0  0  0  0  0  0  0 
    2.9763    2.6810   -1.4497 H   0  0  0  0  0  0  0  0  0  0  0  0 
    1.5465    2.9739   -0.4591 H   0  0  0  0  0  0  0  0  0  0  0  0 
    2.9720    3.1125    1.5534 H   0  0  0  0  0  0  0  0  0  0  0  0 
    4.3080    3.2119    0.4115 H   0  0  0  0  0  0  0  0  0  0  0  0 
    1.9823    0.3972   -1.4264 H   0  0  0  0  0  0  0  0  0  0  0  0 
    4.9283    1.0728    1.3194 H   0  0  0  0  0  0  0  0  0  0  0  0 
  1 16  1  0  0  0  0 
  1 17  1  0  0  0  0 
  2 20  1  0  0  0  0 
  3  5  1  0  0  0  0 
  3 22  1  0  0  0  0 
  3  4  1  0  0  0  0 
  4  6  1  0  0  0  0 
  4 23  1  0  0  0  0 
  5 25  1  6  0  0  0 
  5 13  1  0  0  0  0 
  5  9  1  0  0  0  0 
  6 26  1  1  0  0  0 
  6 10  1  0  0  0  0 
  7 14  1  0  0  0  0 
  8 12  2  0  0  0  0 
  9  7  1  0  0  0  0 
  9  1  1  1  0  0  0 
  9 10  1  0  0  0  0 
 10  2  1  6  0  0  0 
 10  8  1  0  0  0  0 
 11  7  2  0  0  0  0 
 13  6  1  0  0  0  0 
 14  8  1  0  0  0  0 
 15  1  1  0  0  0  0 
 18  2  1  0  0  0  0 
 19  2  1  0  0  0  0 
 21  3  1  0  0  0  0 
 24  4  1  0  0  0  0 
M  END 
>  <HBA> 
4 
 
>  <HBD> 
0 
 
>  <TPSA> 
52.6 
 
>  <cid> 
5944 
 
>  <dipole> 
4.37 
 
>  <excitation_energy_1> 
5.326 
 
>  <excitation_energy_2> 
5.375 
 
>  <excitation_energy_3> 
5.799 
 
>  <excitation_energy_4> 
6.425 
 
>  <homo_energy> 
-7.565 
 
>  <homo_lumo_gap> 
6.748 
 
>  <logP> 
0.644 
 
>  <lumo_energy> 
-0.816 
 
>  <melting_point> 
100.77 
 
>  <molecular_refractivity> 
45.89 
 
>  <oscillator_strength_1> 
0.0022 
 
>  <oscillator_strength_2> 
0.0011 
 
>  <oscillator_strength_3> 
0.0013 
 
>  <oscillator_strength_4> 
0.0051 
 
>  <open_babel_can_smiles> 
O=C1OC(=O)[C@]2([C@@]1(C)[C@@H]1CC[C@H]2O1)C 
 
>  <mulliken_charges> 
26 
1   -0.501896 
2   -0.470158 
3   -0.270984 
4   -0.302702 
5   0.077477 
6   0.047242 
7   0.60287 
8   0.592461 
9   -0.032686 
10   0.013032 
11   -0.415866 
12   -0.414185 
13   -0.476807 
14   -0.49046 
15   0.177654 
16   0.174768 
17   0.192981 
18   0.170911 
19   0.18761 
20   0.177327 
21   0.164149 
22   0.150671 
23   0.161628 
24   0.162498 
25   0.163756 
26   0.158708 
 
>  <lowdin_charges> 
26 
1   -0.454065 
2   -0.439022 
3   -0.291693 
4   -0.298588 
5   -0.002262 
6   0.004791 
7   0.220731 
8   0.215956 
9   -0.042046 
10   -0.039633 
11   -0.187711 
12   -0.183235 
13   -0.269626 
14   -0.210423 
15   0.169564 
16   0.166155 
17   0.175045 
18   0.165373 
19   0.173425 
20   0.16498 
21   0.161741 
22   0.154853 
23   0.156225 
24   0.163028 
25   0.166479 
26   0.159957 
 
$$$$ 
 
