PCCDB-ID:  2181 
public computational chemistry database (PCCDB) project, http://pccdb.org 
 
 26 27  0  0  1  0  0  0  0  0999 V2000 
    0.9439    1.2484   -0.0681 C   0  0  0  0  0  0  0  0  0  0  0  0 
    1.5261   -0.1630    0.0988 C   0  0  0  0  0  0  0  0  0  0  0  0 
   -5.1869    0.2282    0.1893 C   0  0  0  0  0  0  0  0  0  0  0  0 
   -3.9076    0.2426   -0.3618 C   0  0  0  0  0  0  0  0  0  0  0  0 
   -0.4746    1.3284    0.5189 C   0  0  0  0  0  0  0  0  0  0  0  0 
   -5.3110    0.1981    1.5784 C   0  0  0  0  0  0  0  0  0  0  0  0 
    0.5633   -1.2121   -0.4816 C   0  0  0  0  0  0  0  0  0  0  0  0 
   -3.0434    0.2054    1.8588 C   0  0  0  0  0  0  0  0  0  0  0  0 
   -2.7913    0.2343    0.4799 C   0  0  0  0  0  0  0  0  0  0  0  0 
   -1.3797    0.2264   -0.0805 C   0  0  2  0  0  0  0  0  0  0  0  0 
   -4.2625    0.1848    2.4101 N   0  0  0  0  0  0  0  0  0  0  0  0 
   -0.8078   -1.1295    0.0362 N   0  0  0  0  0  0  0  0  0  0  0  0 
    0.9072    1.5003   -1.1386 H   0  0  0  0  0  0  0  0  0  0  0  0 
    1.5931    1.9944    0.4063 H   0  0  0  0  0  0  0  0  0  0  0  0 
    1.6860   -0.3699    1.1676 H   0  0  0  0  0  0  0  0  0  0  0  0 
    2.5069   -0.2383   -0.3892 H   0  0  0  0  0  0  0  0  0  0  0  0 
   -6.0706    0.2377   -0.4422 H   0  0  0  0  0  0  0  0  0  0  0  0 
   -3.7712    0.2578   -1.4408 H   0  0  0  0  0  0  0  0  0  0  0  0 
   -0.9173    2.3155    0.3323 H   0  0  0  0  0  0  0  0  0  0  0  0 
   -0.4208    1.2074    1.6098 H   0  0  0  0  0  0  0  0  0  0  0  0 
   -6.2942    0.1838    2.0463 H   0  0  0  0  0  0  0  0  0  0  0  0 
    0.9329   -2.2279   -0.2992 H   0  0  0  0  0  0  0  0  0  0  0  0 
    0.5091   -1.0878   -1.5732 H   0  0  0  0  0  0  0  0  0  0  0  0 
   -2.2152    0.1994    2.5669 H   0  0  0  0  0  0  0  0  0  0  0  0 
   -1.4538    0.4229   -1.1610 H   0  0  0  0  0  0  0  0  0  0  0  0 
   -0.8175   -1.4087    1.0175 H   0  0  0  0  0  0  0  0  0  0  0  0 
  1  2  1  0  0  0  0 
  1 14  1  0  0  0  0 
  1  5  1  0  0  0  0 
  2 15  1  0  0  0  0 
  3  6  1  0  0  0  0 
  4  3  2  0  0  0  0 
  4  9  1  0  0  0  0 
  5 20  1  0  0  0  0 
  6 21  1  0  0  0  0 
  6 11  2  0  0  0  0 
  7 22  1  0  0  0  0 
  7 12  1  0  0  0  0 
  7  2  1  0  0  0  0 
  8 11  1  0  0  0  0 
  8 24  1  0  0  0  0 
  9  8  2  0  0  0  0 
 10 25  1  6  0  0  0 
 10 12  1  0  0  0  0 
 10  9  1  0  0  0  0 
 10  5  1  0  0  0  0 
 12 26  1  0  0  0  0 
 13  1  1  0  0  0  0 
 16  2  1  0  0  0  0 
 17  3  1  0  0  0  0 
 18  4  1  0  0  0  0 
 19  5  1  0  0  0  0 
 23  7  1  0  0  0  0 
M  END 
>  <HBA> 
2 
 
>  <HBD> 
1 
 
>  <TPSA> 
24.92 
 
>  <cid> 
2181 
 
>  <dipole> 
2.11 
 
>  <excitation_energy_1> 
4.513 
 
>  <excitation_energy_2> 
4.783 
 
>  <excitation_energy_3> 
4.857 
 
>  <excitation_energy_4> 
5.128 
 
>  <homo_energy> 
-5.891 
 
>  <homo_lumo_gap> 
5.353 
 
>  <logP> 
2.225 
 
>  <lumo_energy> 
-0.539 
 
>  <melting_point> 
69.76 
 
>  <molecular_refractivity> 
53.03 
 
>  <oscillator_strength_1> 
0.0042 
 
>  <oscillator_strength_2> 
0.0004 
 
>  <oscillator_strength_3> 
0.0039 
 
>  <oscillator_strength_4> 
0.0 
 
>  <open_babel_can_smiles> 
C1CC[C@@H](NC1)c1cccnc1 
 
>  <mulliken_charges> 
26 
1   -0.263208 
2   -0.262389 
3   -0.138648 
4   -0.150426 
5   -0.26458 
6   0.037987 
7   -0.141634 
8   -0.014275 
9   0.173035 
10   -0.070511 
11   -0.413127 
12   -0.53417 
13   0.129957 
14   0.136764 
15   0.125819 
16   0.131727 
17   0.136605 
18   0.140863 
19   0.13783 
20   0.131607 
21   0.140381 
22   0.140821 
23   0.137537 
24   0.133298 
25   0.128851 
26   0.289885 
 
>  <lowdin_charges> 
26 
1   -0.279263 
2   -0.292423 
3   -0.175451 
4   -0.129282 
5   -0.290804 
6   -0.090749 
7   -0.206483 
8   -0.103481 
9   -0.017197 
10   -0.062079 
11   -0.148914 
12   -0.356098 
13   0.136795 
14   0.147686 
15   0.13486 
16   0.145435 
17   0.16442 
18   0.159829 
19   0.148179 
20   0.137456 
21   0.15564 
22   0.146572 
23   0.137185 
24   0.151919 
25   0.138242 
26   0.248006 
 
$$$$ 
 
