PCCDB-ID:  701 
public computational chemistry database (PCCDB) project, http://pccdb.org 
 
 22 21  0  0  1  0  0  0  0  0999 V2000 
    2.8062   -3.2209    0.8276 C   0  0  0  0  0  0  0  0  0  0  0  0 
    6.3459    0.2865   -1.5582 C   0  0  0  0  0  0  0  0  0  0  0  0 
    4.6285    1.3596    1.8278 C   0  0  0  0  0  0  0  0  0  0  0  0 
    3.5749   -2.9778   -0.4620 C   0  0  0  0  0  0  0  0  0  0  0  0 
    5.6943    0.0736   -0.1814 C   0  0  1  0  0  0  0  0  0  0  0  0 
    5.4114    1.4118    0.5300 C   0  0  0  0  0  0  0  0  0  0  0  0 
    4.4243   -0.7527   -0.3367 C   0  0  0  0  0  0  0  0  0  0  0  0 
    5.8337    2.4562    0.0773 O   0  0  0  0  0  0  0  0  0  0  0  0 
    3.3245   -0.2904   -0.5611 O   0  0  0  0  0  0  0  0  0  0  0  0 
    4.6893   -2.0734   -0.2476 O   0  0  0  0  0  0  0  0  0  0  0  0 
    2.0185   -3.9632    0.6554 H   0  0  0  0  0  0  0  0  0  0  0  0 
    2.3348   -2.2974    1.1755 H   0  0  0  0  0  0  0  0  0  0  0  0 
    3.4695   -3.5997    1.6120 H   0  0  0  0  0  0  0  0  0  0  0  0 
    7.2378    0.9084   -1.4539 H   0  0  0  0  0  0  0  0  0  0  0  0 
    5.6553    0.8026   -2.2312 H   0  0  0  0  0  0  0  0  0  0  0  0 
    6.6260   -0.6734   -2.0021 H   0  0  0  0  0  0  0  0  0  0  0  0 
    4.9641    0.5343    2.4675 H   0  0  0  0  0  0  0  0  0  0  0  0 
    3.5706    1.1875    1.5995 H   0  0  0  0  0  0  0  0  0  0  0  0 
    4.7337    2.3095    2.3555 H   0  0  0  0  0  0  0  0  0  0  0  0 
    2.9286   -2.5603   -1.2375 H   0  0  0  0  0  0  0  0  0  0  0  0 
    4.0414   -3.8946   -0.8304 H   0  0  0  0  0  0  0  0  0  0  0  0 
    6.3810   -0.4950    0.4608 H   0  0  0  0  0  0  0  0  0  0  0  0 
  1 12  1  0  0  0  0 
  1 13  1  0  0  0  0 
  2 14  1  0  0  0  0 
  2  5  1  0  0  0  0 
  3 19  1  0  0  0  0 
  3 17  1  0  0  0  0 
  4 10  1  0  0  0  0 
  4  1  1  0  0  0  0 
  5 22  1  1  0  0  0 
  5  6  1  0  0  0  0 
  6  3  1  0  0  0  0 
  7 10  1  0  0  0  0 
  7  5  1  0  0  0  0 
  8  6  2  0  0  0  0 
  9  7  2  0  0  0  0 
 11  1  1  0  0  0  0 
 15  2  1  0  0  0  0 
 16  2  1  0  0  0  0 
 18  3  1  0  0  0  0 
 20  4  1  0  0  0  0 
 21  4  1  0  0  0  0 
M  END 
>  <HBA> 
3 
 
>  <HBD> 
0 
 
>  <TPSA> 
43.37 
 
>  <cid> 
701 
 
>  <dipole> 
3.76 
 
>  <excitation_energy_1> 
4.403 
 
>  <excitation_energy_2> 
5.648 
 
>  <excitation_energy_3> 
5.756 
 
>  <excitation_energy_4> 
6.212 
 
>  <homo_energy> 
-6.795 
 
>  <homo_lumo_gap> 
6.289 
 
>  <logP> 
0.775 
 
>  <lumo_energy> 
-0.506 
 
>  <melting_point> 
6.61 
 
>  <molecular_refractivity> 
37.25 
 
>  <oscillator_strength_1> 
0.0002 
 
>  <oscillator_strength_2> 
0.002 
 
>  <oscillator_strength_3> 
0.0114 
 
>  <oscillator_strength_4> 
0.0057 
 
>  <open_babel_can_smiles> 
CCOC(=O)[C@H](C(=O)C)C 
 
>  <mulliken_charges> 
22 
1   -0.462602 
2   -0.446183 
3   -0.543689 
4   -0.048024 
5   -0.260148 
6   0.477764 
7   0.624179 
8   -0.432312 
9   -0.482864 
10   -0.460272 
11   0.15457 
12   0.17488 
13   0.158347 
14   0.175713 
15   0.173448 
16   0.15253 
17   0.159174 
18   0.202886 
19   0.180024 
20   0.174232 
21   0.156794 
22   0.171552 
 
>  <lowdin_charges> 
22 
1   -0.456308 
2   -0.434231 
3   -0.47946 
4   -0.130053 
5   -0.181296 
6   0.175642 
7   0.199029 
8   -0.222564 
9   -0.270991 
10   -0.192757 
11   0.161802 
12   0.165024 
13   0.157683 
14   0.169336 
15   0.166753 
16   0.155949 
17   0.164066 
18   0.18688 
19   0.174577 
20   0.161915 
21   0.154933 
22   0.174073 
 
$$$$ 
 
