PCCDB-ID:  602 
public computational chemistry database (PCCDB) project, http://pccdb.org 
 
 13 12  0  0  1  0  0  0  0  0999 V2000 
    1.1174   -0.0080    0.0319 C   0  0  0  0  0  0  0  0  0  0  0  0 
    2.6518    0.0906   -0.0485 C   0  0  1  0  0  0  0  0  0  0  0  0 
    3.1542   -0.5886   -1.3387 C   0  0  0  0  0  0  0  0  0  0  0  0 
    3.0628    1.4831    0.0599 N   0  0  0  0  0  0  0  0  0  0  0  0 
    3.6046    0.0143   -2.2808 O   0  0  0  0  0  0  0  0  0  0  0  0 
    3.0427   -1.9449   -1.3846 O   0  0  0  0  0  0  0  0  0  0  0  0 
    0.7656   -1.0456    0.0117 H   0  0  0  0  0  0  0  0  0  0  0  0 
    0.6580    0.5156   -0.8144 H   0  0  0  0  0  0  0  0  0  0  0  0 
    0.7732    0.4635    0.9559 H   0  0  0  0  0  0  0  0  0  0  0  0 
    3.0821   -0.4522    0.8063 H   0  0  0  0  0  0  0  0  0  0  0  0 
    2.7818    1.9625   -0.7964 H   0  0  0  0  0  0  0  0  0  0  0  0 
    4.0813    1.5308    0.0564 H   0  0  0  0  0  0  0  0  0  0  0  0 
    2.6804   -2.2768   -0.5461 H   0  0  0  0  0  0  0  0  0  0  0  0 
  1  9  1  0  0  0  0 
  2  1  1  0  0  0  0 
  2  4  1  0  0  0  0 
  2 10  1  1  0  0  0 
  3  2  1  0  0  0  0 
  5  3  2  0  0  0  0 
  6  3  1  0  0  0  0 
  6 13  1  0  0  0  0 
  7  1  1  0  0  0  0 
  8  1  1  0  0  0  0 
 11  4  1  0  0  0  0 
 12  4  1  0  0  0  0 
M  END 
>  <HBA> 
3 
 
>  <HBD> 
2 
 
>  <TPSA> 
63.32 
 
>  <cid> 
602 
 
>  <dipole> 
3.04 
 
>  <excitation_energy_1> 
5.543 
 
>  <excitation_energy_2> 
5.892 
 
>  <excitation_energy_3> 
6.046 
 
>  <excitation_energy_4> 
6.503 
 
>  <homo_energy> 
-6.833 
 
>  <homo_lumo_gap> 
6.977 
 
>  <logP> 
0.118 
 
>  <lumo_energy> 
0.144 
 
>  <melting_point> 
106.84 
 
>  <molecular_refractivity> 
21.01 
 
>  <oscillator_strength_1> 
0.0028 
 
>  <oscillator_strength_2> 
0.0014 
 
>  <oscillator_strength_3> 
0.001 
 
>  <oscillator_strength_4> 
0.025 
 
>  <open_babel_can_smiles> 
C[C@@H](C(=O)O)N 
 
>  <mulliken_charges> 
13 
1   -0.440352 
2   -0.103739 
3   0.580327 
4   -0.6854 
5   -0.442574 
6   -0.563957 
7   0.136842 
8   0.164595 
9   0.180115 
10   0.146681 
11   0.309451 
12   0.30691 
13   0.411102 
 
>  <lowdin_charges> 
13 
1   -0.443638 
2   -0.11203 
3   0.176634 
4   -0.527577 
5   -0.243217 
6   -0.358418 
7   0.146144 
8   0.161242 
9   0.170132 
10   0.150078 
11   0.262844 
12   0.259615 
13   0.358191 
 
$$$$ 
 
