PCCDB-ID:  502 
public computational chemistry database (PCCDB) project, http://pccdb.org 
 
 22 21  0  0  0  0  0  0  0  0999 V2000 
    1.4387   -0.2296    0.9419 C   0  0  0  0  0  0  0  0  0  0  0  0 
    0.6781   -1.2037    0.0279 C   0  0  0  0  0  0  0  0  0  0  0  0 
    0.6834    0.2081    2.2041 C   0  0  0  0  0  0  0  0  0  0  0  0 
   -0.6377   -0.6543   -0.5485 C   0  0  0  0  0  0  0  0  0  0  0  0 
    0.0524    0.5131   -2.6284 C   0  0  0  0  0  0  0  0  0  0  0  0 
    0.2295   -0.9521    2.9803 N   0  0  0  0  0  0  0  0  0  0  0  0 
    0.2901   -0.4647   -3.4195 N   0  0  0  0  0  0  0  0  0  0  0  0 
   -0.5066    0.5398   -1.3728 N   0  0  0  0  0  0  0  0  0  0  0  0 
    0.3400    1.7819   -3.0345 O   0  0  0  0  0  0  0  0  0  0  0  0 
    1.7238    0.6693    0.3786 H   0  0  0  0  0  0  0  0  0  0  0  0 
    2.3848   -0.7023    1.2431 H   0  0  0  0  0  0  0  0  0  0  0  0 
    0.4403   -2.1150    0.5878 H   0  0  0  0  0  0  0  0  0  0  0  0 
    1.3341   -1.4912   -0.8031 H   0  0  0  0  0  0  0  0  0  0  0  0 
   -0.2105    0.7824    1.9262 H   0  0  0  0  0  0  0  0  0  0  0  0 
    1.3288    0.9030    2.7712 H   0  0  0  0  0  0  0  0  0  0  0  0 
   -1.3376   -0.4190    0.2592 H   0  0  0  0  0  0  0  0  0  0  0  0 
   -1.1260   -1.4288   -1.1523 H   0  0  0  0  0  0  0  0  0  0  0  0 
    1.0394   -1.4619    3.3331 H   0  0  0  0  0  0  0  0  0  0  0  0 
   -0.2859   -0.6407    3.8018 H   0  0  0  0  0  0  0  0  0  0  0  0 
    0.0303   -1.3619   -3.0137 H   0  0  0  0  0  0  0  0  0  0  0  0 
   -0.4268    1.4293   -0.8997 H   0  0  0  0  0  0  0  0  0  0  0  0 
    0.6822    1.6768   -3.9395 H   0  0  0  0  0  0  0  0  0  0  0  0 
  1 11  1  0  0  0  0 
  1  3  1  0  0  0  0 
  2 12  1  0  0  0  0 
  2  1  1  0  0  0  0 
  3 15  1  0  0  0  0 
  3  6  1  0  0  0  0 
  4  2  1  0  0  0  0 
  4 16  1  0  0  0  0 
  5  8  1  0  0  0  0 
  6 18  1  0  0  0  0 
  6 19  1  0  0  0  0 
  7 20  1  0  0  0  0 
  7  5  2  0  0  0  0 
  8 21  1  0  0  0  0 
  8  4  1  0  0  0  0 
  9  5  1  0  0  0  0 
 10  1  1  0  0  0  0 
 13  2  1  0  0  0  0 
 14  3  1  0  0  0  0 
 17  4  1  0  0  0  0 
 22  9  1  0  0  0  0 
M  END 
>  <HBA> 
4 
 
>  <HBD> 
3 
 
>  <TPSA> 
81.14 
 
>  <cid> 
502 
 
>  <dipole> 
3.77 
 
>  <excitation_energy_1> 
5.47 
 
>  <excitation_energy_2> 
5.634 
 
>  <excitation_energy_3> 
5.925 
 
>  <excitation_energy_4> 
5.958 
 
>  <homo_energy> 
-6.033 
 
>  <homo_lumo_gap> 
7.592 
 
>  <logP> 
1.185 
 
>  <lumo_energy> 
1.559 
 
>  <melting_point> 
141.5 
 
>  <molecular_refractivity> 
34.95 
 
>  <oscillator_strength_1> 
0.0016 
 
>  <oscillator_strength_2> 
0.0077 
 
>  <oscillator_strength_3> 
0.0104 
 
>  <oscillator_strength_4> 
0.0033 
 
>  <open_babel_can_smiles> 
NCCCCNC(=N)O 
 
>  <mulliken_charges> 
22 
1   -0.271682 
2   -0.245467 
3   -0.137026 
4   -0.162915 
5   0.641033 
6   -0.714269 
7   -0.667986 
8   -0.585559 
9   -0.612068 
10   0.136787 
11   0.132602 
12   0.154847 
13   0.142111 
14   0.130693 
15   0.118771 
16   0.163138 
17   0.151392 
18   0.294421 
19   0.299156 
20   0.281484 
21   0.332322 
22   0.418215 
 
>  <lowdin_charges> 
22 
1   -0.286345 
2   -0.293355 
3   -0.210411 
4   -0.203347 
5   0.16364 
6   -0.561505 
7   -0.502343 
8   -0.301167 
9   -0.388198 
10   0.145487 
11   0.14327 
12   0.157496 
13   0.149138 
14   0.135514 
15   0.123653 
16   0.158292 
17   0.151769 
18   0.25365 
19   0.257116 
20   0.256381 
21   0.285958 
22   0.365308 
 
$$$$ 
 
