PCCDB-ID:  908 
public computational chemistry database (PCCDB) project, http://pccdb.org 
 
 13 12  0  0  0  0  0  0  0  0999 V2000 
    0.9881    0.6019   -0.6861 C   0  0  0  0  0  0  0  0  0  0  0  0 
    2.6983    1.4581   -2.2732 C   0  0  0  0  0  0  0  0  0  0  0  0 
   -0.2125    1.5623   -0.6023 C   0  0  0  0  0  0  0  0  0  0  0  0 
    2.0440    1.4030   -3.3621 N   0  0  0  0  0  0  0  0  0  0  0  0 
    2.2553    1.2723   -0.9563 N   0  0  0  0  0  0  0  0  0  0  0  0 
   -1.3499    1.1644   -0.5879 O   0  0  0  0  0  0  0  0  0  0  0  0 
    0.1101    2.8647   -0.5100 O   0  0  0  0  0  0  0  0  0  0  0  0 
    0.7566   -0.1634   -1.4362 H   0  0  0  0  0  0  0  0  0  0  0  0 
    1.0569    0.0930    0.2802 H   0  0  0  0  0  0  0  0  0  0  0  0 
    3.7581    1.7221   -2.3160 H   0  0  0  0  0  0  0  0  0  0  0  0 
    1.0575    1.1619   -3.2252 H   0  0  0  0  0  0  0  0  0  0  0  0 
    2.9995    1.0735   -0.2986 H   0  0  0  0  0  0  0  0  0  0  0  0 
    1.0870    2.9239   -0.5651 H   0  0  0  0  0  0  0  0  0  0  0  0 
  1  3  1  0  0  0  0 
  1  9  1  0  0  0  0 
  2  5  1  0  0  0  0 
  3  6  2  0  0  0  0 
  3  7  1  0  0  0  0 
  4 11  1  0  0  0  0 
  4  2  2  0  0  0  0 
  5  1  1  0  0  0  0 
  5 12  1  0  0  0  0 
  8  1  1  0  0  0  0 
 10  2  1  0  0  0  0 
 13  7  1  0  0  0  0 
M  END 
>  <HBA> 
4 
 
>  <HBD> 
2 
 
>  <TPSA> 
75.68 
 
>  <cid> 
908 
 
>  <dipole> 
5.25 
 
>  <excitation_energy_1> 
5.513 
 
>  <excitation_energy_2> 
5.907 
 
>  <excitation_energy_3> 
6.172 
 
>  <excitation_energy_4> 
6.421 
 
>  <homo_energy> 
-7.121 
 
>  <homo_lumo_gap> 
7.091 
 
>  <logP> 
-0.242 
 
>  <lumo_energy> 
-0.03 
 
>  <melting_point> 
124.7 
 
>  <molecular_refractivity> 
24.7 
 
>  <oscillator_strength_1> 
0.0014 
 
>  <oscillator_strength_2> 
0.0052 
 
>  <oscillator_strength_3> 
0.0164 
 
>  <oscillator_strength_4> 
0.0035 
 
>  <open_babel_can_smiles> 
OC(=O)CNC=N 
 
>  <mulliken_charges> 
13 
1   -0.266337 
2   0.197355 
3   0.593499 
4   -0.542138 
5   -0.591817 
6   -0.441439 
7   -0.559428 
8   0.197662 
9   0.198219 
10   0.155009 
11   0.292249 
12   0.33812 
13   0.429047 
 
>  <lowdin_charges> 
13 
1   -0.248659 
2   -0.036668 
3   0.172823 
4   -0.391609 
5   -0.32676 
6   -0.241184 
7   -0.342748 
8   0.175639 
9   0.184321 
10   0.154203 
11   0.253348 
12   0.28789 
13   0.359405 
 
$$$$ 
 
