PCCDB-ID:  1292 
public computational chemistry database (PCCDB) project, http://pccdb.org 
 
 19 19  0  0  1  0  0  0  0  0999 V2000 
   -1.8356   -0.2807    0.0873 C   0  0  0  0  0  0  0  0  0  0  0  0 
   -1.1808    0.6747    0.8681 C   0  0  0  0  0  0  0  0  0  0  0  0 
   -1.1118   -1.0297   -0.8409 C   0  0  0  0  0  0  0  0  0  0  0  0 
    0.1886    0.8863    0.7150 C   0  0  0  0  0  0  0  0  0  0  0  0 
    0.2610   -0.8250   -0.9891 C   0  0  0  0  0  0  0  0  0  0  0  0 
    0.9188    0.1410   -0.2178 C   0  0  0  0  0  0  0  0  0  0  0  0 
    2.4152    0.3621   -0.3592 C   0  0  1  0  0  0  0  0  0  0  0  0 
    3.1894   -0.5463    0.6221 C   0  0  0  0  0  0  0  0  0  0  0  0 
    2.9055    0.0759   -1.6718 O   0  0  0  0  0  0  0  0  0  0  0  0 
    3.1492   -0.3776    1.8146 O   0  0  0  0  0  0  0  0  0  0  0  0 
    3.8845   -1.5376    0.0400 O   0  0  0  0  0  0  0  0  0  0  0  0 
   -2.9043   -0.4391    0.2022 H   0  0  0  0  0  0  0  0  0  0  0  0 
   -1.7375    1.2595    1.5951 H   0  0  0  0  0  0  0  0  0  0  0  0 
   -1.6120   -1.7809   -1.4461 H   0  0  0  0  0  0  0  0  0  0  0  0 
    0.6974    1.6263    1.3267 H   0  0  0  0  0  0  0  0  0  0  0  0 
    0.8232   -1.4216   -1.7024 H   0  0  0  0  0  0  0  0  0  0  0  0 
    2.6619    1.3936   -0.0764 H   0  0  0  0  0  0  0  0  0  0  0  0 
    2.2562    0.3929   -2.3192 H   0  0  0  0  0  0  0  0  0  0  0  0 
    3.7906   -1.4232   -0.9285 H   0  0  0  0  0  0  0  0  0  0  0  0 
  1 12  1  0  0  0  0 
  1  2  2  0  0  0  0 
  2 13  1  0  0  0  0 
  3  1  1  0  0  0  0 
  4  2  1  0  0  0  0 
  4 15  1  0  0  0  0 
  5  3  2  0  0  0  0 
  5  6  1  0  0  0  0 
  6  4  2  0  0  0  0 
  7  6  1  0  0  0  0 
  7 17  1  1  0  0  0 
  7  8  1  0  0  0  0 
  8 10  2  0  0  0  0 
  9  7  1  0  0  0  0 
 11  8  1  0  0  0  0 
 14  3  1  0  0  0  0 
 16  5  1  0  0  0  0 
 18  9  1  0  0  0  0 
 19 11  1  0  0  0  0 
M  END 
>  <HBA> 
3 
 
>  <HBD> 
2 
 
>  <TPSA> 
57.53 
 
>  <cid> 
1292 
 
>  <dipole> 
4.94 
 
>  <excitation_energy_1> 
5.222 
 
>  <excitation_energy_2> 
5.43 
 
>  <excitation_energy_3> 
5.819 
 
>  <excitation_energy_4> 
5.98 
 
>  <homo_energy> 
-6.895 
 
>  <homo_lumo_gap> 
6.259 
 
>  <logP> 
0.805 
 
>  <lumo_energy> 
-0.637 
 
>  <melting_point> 
102.26 
 
>  <molecular_refractivity> 
39.15 
 
>  <oscillator_strength_1> 
0.0057 
 
>  <oscillator_strength_2> 
0.0492 
 
>  <oscillator_strength_3> 
0.0252 
 
>  <oscillator_strength_4> 
0.0148 
 
>  <open_babel_can_smiles> 
O[C@@H](c1ccccc1)C(=O)O 
 
>  <mulliken_charges> 
19 
1   -0.124604 
2   -0.130572 
3   -0.126477 
4   -0.160909 
5   -0.187344 
6   0.116353 
7   -0.026792 
8   0.60543 
9   -0.658766 
10   -0.450126 
11   -0.569768 
12   0.137446 
13   0.140015 
14   0.137277 
15   0.146065 
16   0.132193 
17   0.170702 
18   0.411623 
19   0.438253 
 
>  <lowdin_charges> 
19 
1   -0.149103 
2   -0.148563 
3   -0.150998 
4   -0.151928 
5   -0.174141 
6   -0.027819 
7   -0.03451 
8   0.180213 
9   -0.462994 
10   -0.240751 
11   -0.339613 
12   0.159943 
13   0.164201 
14   0.162523 
15   0.167733 
16   0.159463 
17   0.161869 
18   0.359529 
19   0.364945 
 
$$$$ 
 
