PCCDB-ID:  58 
public computational chemistry database (PCCDB) project, http://pccdb.org 
 
 13 12  0  0  0  0  0  0  0  0999 V2000 
    1.0606    0.1841    0.5264 C   0  0  0  0  0  0  0  0  0  0  0  0 
    2.3665    0.3851   -0.2379 C   0  0  0  0  0  0  0  0  0  0  0  0 
    2.3214   -0.1733   -1.6426 C   0  0  0  0  0  0  0  0  0  0  0  0 
    3.6223    0.0167   -2.4588 C   0  0  0  0  0  0  0  0  0  0  0  0 
    1.3662   -0.7325   -2.1334 O   0  0  0  0  0  0  0  0  0  0  0  0 
    3.5283   -0.4986   -3.6947 O   0  0  0  0  0  0  0  0  0  0  0  0 
    4.6075    0.5697   -2.0203 O   0  0  0  0  0  0  0  0  0  0  0  0 
    1.1434    0.5940    1.5378 H   0  0  0  0  0  0  0  0  0  0  0  0 
    0.8083   -0.8779    0.6027 H   0  0  0  0  0  0  0  0  0  0  0  0 
    0.2277    0.6811    0.0196 H   0  0  0  0  0  0  0  0  0  0  0  0 
    3.2186   -0.0793    0.2782 H   0  0  0  0  0  0  0  0  0  0  0  0 
    2.6400    1.4471   -0.3097 H   0  0  0  0  0  0  0  0  0  0  0  0 
    4.3873   -0.3320   -4.1278 H   0  0  0  0  0  0  0  0  0  0  0  0 
  1  9  1  0  0  0  0 
  1  8  1  0  0  0  0 
  2 11  1  0  0  0  0 
  2  1  1  0  0  0  0 
  3  2  1  0  0  0  0 
  4  7  2  0  0  0  0 
  4  3  1  0  0  0  0 
  5  3  2  0  0  0  0 
  6  4  1  0  0  0  0 
 10  1  1  0  0  0  0 
 12  2  1  0  0  0  0 
 13  6  1  0  0  0  0 
M  END 
>  <HBA> 
3 
 
>  <HBD> 
1 
 
>  <TPSA> 
54.37 
 
>  <cid> 
58 
 
>  <dipole> 
1.15 
 
>  <excitation_energy_1> 
3.276 
 
>  <excitation_energy_2> 
5.079 
 
>  <excitation_energy_3> 
6.266 
 
>  <excitation_energy_4> 
6.459 
 
>  <homo_energy> 
-7.053 
 
>  <homo_lumo_gap> 
4.925 
 
>  <logP> 
0.05 
 
>  <lumo_energy> 
-2.128 
 
>  <melting_point> 
73.31 
 
>  <molecular_refractivity> 
23.31 
 
>  <oscillator_strength_1> 
0.0 
 
>  <oscillator_strength_2> 
0.0 
 
>  <oscillator_strength_3> 
0.0313 
 
>  <oscillator_strength_4> 
0.0044 
 
>  <open_babel_can_smiles> 
CCC(=O)C(=O)O 
 
>  <mulliken_charges> 
13 
1   -0.44049 
2   -0.34737 
3   0.401289 
4   0.524129 
5   -0.409158 
6   -0.537752 
7   -0.446917 
8   0.148912 
9   0.16354 
10   0.162976 
11   0.182066 
12   0.182208 
13   0.416566 
 
>  <lowdin_charges> 
13 
1   -0.43926 
2   -0.30139 
3   0.136332 
4   0.160264 
5   -0.181652 
6   -0.320698 
7   -0.246436 
8   0.154618 
9   0.158836 
10   0.160831 
11   0.176758 
12   0.174697 
13   0.3671 
 
$$$$ 
 
