PCCDB-ID:  4387 
public computational chemistry database (PCCDB) project, http://pccdb.org 
 
 35 34  0  0  1  0  0  0  0  0999 V2000 
    2.5917    2.9571    0.7303 C   0  0  0  0  0  0  0  0  0  0  0  0 
    3.2986    2.6011   -0.5805 C   0  0  0  0  0  0  0  0  0  0  0  0 
    8.8625   -0.3968   -2.8541 C   0  0  0  0  0  0  0  0  0  0  0  0 
    9.9685   -1.4570   -2.7307 C   0  0  0  0  0  0  0  0  0  0  0  0 
    4.2892    1.4464   -0.4165 C   0  0  0  0  0  0  0  0  0  0  0  0 
    7.4945   -0.9348   -3.3090 C   0  0  0  0  0  0  0  0  0  0  0  0 
    9.6226   -2.6716   -1.8354 C   0  0  1  0  0  0  0  0  0  0  0  0 
   10.9244   -3.4710   -1.6378 C   0  0  0  0  0  0  0  0  0  0  0  0 
    5.9494    0.1798   -1.7553 C   0  0  0  0  0  0  0  0  0  0  0  0 
    9.1229   -2.2578   -0.5144 N   0  0  0  0  0  0  0  0  0  0  0  0 
    6.4545   -0.4947   -0.7769 N   0  0  0  0  0  0  0  0  0  0  0  0 
    4.9592    1.1577   -1.6784 N   0  0  0  0  0  0  0  0  0  0  0  0 
    6.3844   -0.0179   -3.0601 N   0  0  0  0  0  0  0  0  0  0  0  0 
   11.3832   -4.2164   -2.4721 O   0  0  0  0  0  0  0  0  0  0  0  0 
   11.5284   -3.2147   -0.4637 O   0  0  0  0  0  0  0  0  0  0  0  0 
    1.8848    3.7802    0.5837 H   0  0  0  0  0  0  0  0  0  0  0  0 
    3.3110    3.2684    1.4970 H   0  0  0  0  0  0  0  0  0  0  0  0 
    2.0305    2.1026    1.1267 H   0  0  0  0  0  0  0  0  0  0  0  0 
    3.8359    3.4742   -0.9711 H   0  0  0  0  0  0  0  0  0  0  0  0 
    2.5496    2.3289   -1.3385 H   0  0  0  0  0  0  0  0  0  0  0  0 
    9.2008    0.3787   -3.5551 H   0  0  0  0  0  0  0  0  0  0  0  0 
    8.7289    0.0997   -1.8881 H   0  0  0  0  0  0  0  0  0  0  0  0 
   10.8642   -0.9686   -2.3261 H   0  0  0  0  0  0  0  0  0  0  0  0 
   10.2468   -1.8549   -3.7136 H   0  0  0  0  0  0  0  0  0  0  0  0 
    3.7637    0.5610   -0.0179 H   0  0  0  0  0  0  0  0  0  0  0  0 
    5.0547    1.7227    0.3192 H   0  0  0  0  0  0  0  0  0  0  0  0 
    7.2508   -1.8594   -2.7817 H   0  0  0  0  0  0  0  0  0  0  0  0 
    7.5021   -1.1652   -4.3807 H   0  0  0  0  0  0  0  0  0  0  0  0 
    8.9316   -3.3312   -2.3782 H   0  0  0  0  0  0  0  0  0  0  0  0 
    8.3761   -1.5578   -0.5890 H   0  0  0  0  0  0  0  0  0  0  0  0 
    8.6927   -3.0608   -0.0555 H   0  0  0  0  0  0  0  0  0  0  0  0 
    5.9355   -0.3399    0.0858 H   0  0  0  0  0  0  0  0  0  0  0  0 
    4.3427    1.1661   -2.4840 H   0  0  0  0  0  0  0  0  0  0  0  0 
    6.3983    0.8306   -3.6143 H   0  0  0  0  0  0  0  0  0  0  0  0 
   10.9055   -2.5977    0.0025 H   0  0  0  0  0  0  0  0  0  0  0  0 
  1 18  1  0  0  0  0 
  1 17  1  0  0  0  0 
  2  5  1  0  0  0  0 
  2  1  1  0  0  0  0 
  3  4  1  0  0  0  0 
  3 22  1  0  0  0  0 
  4 23  1  0  0  0  0 
  4  7  1  0  0  0  0 
  5 25  1  0  0  0  0 
  5 26  1  0  0  0  0 
  6 13  1  0  0  0  0 
  6  3  1  0  0  0  0 
  6 27  1  0  0  0  0 
  7 29  1  6  0  0  0 
  7  8  1  0  0  0  0 
  7 10  1  0  0  0  0 
  8 15  1  0  0  0  0 
  9 12  1  0  0  0  0 
  9 11  2  0  0  0  0 
 10 31  1  0  0  0  0 
 11 32  1  0  0  0  0 
 12  5  1  0  0  0  0 
 13  9  1  0  0  0  0 
 14  8  2  0  0  0  0 
 15 35  1  0  0  0  0 
 16  1  1  0  0  0  0 
 19  2  1  0  0  0  0 
 20  2  1  0  0  0  0 
 21  3  1  0  0  0  0 
 24  4  1  0  0  0  0 
 28  6  1  0  0  0  0 
 30 10  1  0  0  0  0 
 33 12  1  0  0  0  0 
 34 13  1  0  0  0  0 
M  END 
>  <HBA> 
6 
 
>  <HBD> 
4 
 
>  <TPSA> 
113.73 
 
>  <cid> 
4387 
 
>  <dipole> 
9.55 
 
>  <excitation_energy_1> 
5.551 
 
>  <excitation_energy_2> 
5.59 
 
>  <excitation_energy_3> 
5.796 
 
>  <excitation_energy_4> 
6.032 
 
>  <homo_energy> 
-6.376 
 
>  <homo_lumo_gap> 
7.304 
 
>  <logP> 
1.284 
 
>  <lumo_energy> 
0.928 
 
>  <melting_point> 
202.14 
 
>  <molecular_refractivity> 
59.05 
 
>  <oscillator_strength_1> 
0.0013 
 
>  <oscillator_strength_2> 
0.0023 
 
>  <oscillator_strength_3> 
0.0063 
 
>  <oscillator_strength_4> 
0.0191 
 
>  <open_babel_can_smiles> 
CCCNC(=N)NCCC[C@@H](C(=O)O)N 
 
>  <mulliken_charges> 
35 
1   -0.447748 
2   -0.27717 
3   -0.287992 
4   -0.266123 
5   -0.116758 
6   -0.131663 
7   -0.070567 
8   0.5923 
9   0.669881 
10   -0.821915 
11   -0.697348 
12   -0.634422 
13   -0.616761 
14   -0.474725 
15   -0.584702 
16   0.154783 
17   0.151168 
18   0.149701 
19   0.154016 
20   0.135746 
21   0.129928 
22   0.169419 
23   0.149112 
24   0.160459 
25   0.139057 
26   0.15858 
27   0.175351 
28   0.144275 
29   0.147924 
30   0.383087 
31   0.311152 
32   0.288331 
33   0.319574 
34   0.316857 
35   0.427193 
 
>  <lowdin_charges> 
35 
1   -0.445687 
2   -0.277995 
3   -0.298493 
4   -0.276717 
5   -0.20175 
6   -0.200287 
7   -0.110573 
8   0.176142 
9   0.136585 
10   -0.569001 
11   -0.498366 
12   -0.320751 
13   -0.30413 
14   -0.265325 
15   -0.366184 
16   0.157677 
17   0.152607 
18   0.151614 
19   0.15161 
20   0.141891 
21   0.144655 
22   0.158545 
23   0.154378 
24   0.158547 
25   0.132638 
26   0.152216 
27   0.162671 
28   0.146545 
29   0.146433 
30   0.279944 
31   0.264817 
32   0.256093 
33   0.277175 
34   0.274518 
35   0.357958 
 
$$$$ 
 
