PCCDB-ID:  5 
public computational chemistry database (PCCDB) project, http://pccdb.org 
 
 18 17  0  0  0  0  0  0  0  0999 V2000 
   -1.0662   -1.2812    0.3603 C   0  0  0  0  0  0  0  0  0  0  0  0 
    1.4271   -1.8811   -0.0791 C   0  0  0  0  0  0  0  0  0  0  0  0 
    0.2944   -0.8668   -0.1980 C   0  0  0  0  0  0  0  0  0  0  0  0 
   -2.1760   -0.3971    0.0610 N   0  0  0  0  0  0  0  0  0  0  0  0 
    0.4527    0.2234   -0.7259 O   0  0  0  0  0  0  0  0  0  0  0  0 
    2.9186    0.5668   -1.9866 O   0  0  0  0  0  0  0  0  0  0  0  0 
    4.7953   -0.9870   -1.6721 O   0  0  0  0  0  0  0  0  0  0  0  0 
    2.6329   -1.9537   -2.7880 O   0  0  0  0  0  0  0  0  0  0  0  0 
    2.7065   -1.3027   -0.2782 O   0  0  0  0  0  0  0  0  0  0  0  0 
    3.1950   -0.9937   -1.8099 P   0  0  0  0  0  0  0  0  0  0  0  0 
   -0.9552   -1.3726    1.4517 H   0  0  0  0  0  0  0  0  0  0  0  0 
   -1.2961   -2.2966    0.0081 H   0  0  0  0  0  0  0  0  0  0  0  0 
    1.2410   -2.6837   -0.8074 H   0  0  0  0  0  0  0  0  0  0  0  0 
    1.4255   -2.3260    0.9221 H   0  0  0  0  0  0  0  0  0  0  0  0 
   -1.9306    0.5523    0.3380 H   0  0  0  0  0  0  0  0  0  0  0  0 
   -2.3121   -0.3540   -0.9479 H   0  0  0  0  0  0  0  0  0  0  0  0 
    2.0354    0.7601   -1.5950 H   0  0  0  0  0  0  0  0  0  0  0  0 
    5.1582   -1.8007   -2.0588 H   0  0  0  0  0  0  0  0  0  0  0  0 
  1 11  1  0  0  0  0 
  2 14  1  0  0  0  0 
  3  2  1  0  0  0  0 
  3  1  1  0  0  0  0 
  4 15  1  0  0  0  0 
  4  1  1  0  0  0  0 
  5  3  2  0  0  0  0 
  6 10  1  0  0  0  0 
  6 17  1  0  0  0  0 
  8 10  2  0  0  0  0 
  9  2  1  0  0  0  0 
 10  7  1  0  0  0  0 
 10  9  1  0  0  0  0 
 12  1  1  0  0  0  0 
 13  2  1  0  0  0  0 
 16  4  1  0  0  0  0 
 18  7  1  0  0  0  0 
M  END 
>  <HBA> 
6 
 
>  <HBD> 
3 
 
>  <TPSA> 
119.66 
 
>  <cid> 
5 
 
>  <dipole> 
3.46 
 
>  <excitation_energy_1> 
4.245 
 
>  <excitation_energy_2> 
5.121 
 
>  <excitation_energy_3> 
5.732 
 
>  <excitation_energy_4> 
5.876 
 
>  <homo_energy> 
-7.029 
 
>  <homo_lumo_gap> 
5.567 
 
>  <logP> 
-0.676 
 
>  <lumo_energy> 
-1.461 
 
>  <melting_point> 
130.8 
 
>  <molecular_refractivity> 
31.51 
 
>  <oscillator_strength_1> 
0.0001 
 
>  <oscillator_strength_2> 
0.0001 
 
>  <oscillator_strength_3> 
0.0018 
 
>  <oscillator_strength_4> 
0.0098 
 
>  <open_babel_can_smiles> 
NCC(=O)COP(=O)(O)O 
 
>  <mulliken_charges> 
18 
1   -0.245504 
2   -0.126751 
3   0.439452 
4   -0.683042 
5   -0.462317 
6   -0.642377 
7   -0.613135 
8   -0.563443 
9   -0.519854 
10   1.130502 
11   0.183548 
12   0.180534 
13   0.207595 
14   0.182627 
15   0.314094 
16   0.311711 
17   0.462776 
18   0.443585 
 
>  <lowdin_charges> 
18 
1   -0.237996 
2   -0.161494 
3   0.15065 
4   -0.526728 
5   -0.238137 
6   -0.559023 
7   -0.548562 
8   -0.598981 
9   -0.388809 
10   1.118539 
11   0.17026 
12   0.16897 
13   0.186922 
14   0.17241 
15   0.26471 
16   0.262639 
17   0.376887 
18   0.387741 
 
$$$$ 
 
