PCCDB-ID:  1923 
public computational chemistry database (PCCDB) project, http://pccdb.org 
 
 18 19  0  0  0  0  0  0  0  0999 V2000 
    2.4108    0.7180    0.0126 C   0  0  0  0  0  0  0  0  0  0  0  0 
   -2.4199    0.6409   -0.0424 C   0  0  0  0  0  0  0  0  0  0  0  0 
    1.2298    1.4229    0.0158 C   0  0  0  0  0  0  0  0  0  0  0  0 
   -1.2632    1.3826   -0.0134 C   0  0  0  0  0  0  0  0  0  0  0  0 
    2.4121   -0.6953   -0.0194 C   0  0  0  0  0  0  0  0  0  0  0  0 
   -2.3186   -0.7720   -0.0722 C   0  0  0  0  0  0  0  0  0  0  0  0 
   -0.0061    0.7247   -0.0135 C   0  0  0  0  0  0  0  0  0  0  0  0 
    1.2259   -1.4049   -0.0477 C   0  0  0  0  0  0  0  0  0  0  0  0 
   -0.0263   -0.7066   -0.0460 C   0  0  0  0  0  0  0  0  0  0  0  0 
   -1.1776   -1.4312   -0.0745 N   0  0  0  0  0  0  0  0  0  0  0  0 
    1.1735   -2.7624   -0.0781 O   0  0  0  0  0  0  0  0  0  0  0  0 
    3.3617    1.2432    0.0347 H   0  0  0  0  0  0  0  0  0  0  0  0 
   -3.3967    1.1156   -0.0429 H   0  0  0  0  0  0  0  0  0  0  0  0 
    1.2264    2.5093    0.0410 H   0  0  0  0  0  0  0  0  0  0  0  0 
   -1.2927    2.4696    0.0114 H   0  0  0  0  0  0  0  0  0  0  0  0 
    3.3590   -1.2324   -0.0216 H   0  0  0  0  0  0  0  0  0  0  0  0 
   -3.2247   -1.3771   -0.0941 H   0  0  0  0  0  0  0  0  0  0  0  0 
    2.0818   -3.1039   -0.0745 H   0  0  0  0  0  0  0  0  0  0  0  0 
  1  3  1  0  0  0  0 
  1 12  1  0  0  0  0 
  2  4  2  0  0  0  0 
  3 14  1  0  0  0  0 
  4 15  1  0  0  0  0 
  5  1  2  0  0  0  0 
  6  2  1  0  0  0  0 
  7  4  1  0  0  0  0 
  7  3  2  0  0  0  0 
  8  9  2  0  0  0  0 
  8  5  1  0  0  0  0 
  9  7  1  0  0  0  0 
 10  6  2  0  0  0  0 
 10  9  1  0  0  0  0 
 11 18  1  0  0  0  0 
 11  8  1  0  0  0  0 
 13  2  1  0  0  0  0 
 16  5  1  0  0  0  0 
 17  6  1  0  0  0  0 
M  END 
>  <HBA> 
2 
 
>  <HBD> 
1 
 
>  <TPSA> 
33.12 
 
>  <cid> 
1923 
 
>  <dipole> 
2.21 
 
>  <excitation_energy_1> 
3.939 
 
>  <excitation_energy_2> 
4.281 
 
>  <excitation_energy_3> 
4.383 
 
>  <excitation_energy_4> 
5.034 
 
>  <homo_energy> 
-5.725 
 
>  <homo_lumo_gap> 
4.52 
 
>  <logP> 
1.94 
 
>  <lumo_energy> 
-1.205 
 
>  <melting_point> 
104.13 
 
>  <molecular_refractivity> 
43.77 
 
>  <oscillator_strength_1> 
0.0487 
 
>  <oscillator_strength_2> 
0.002 
 
>  <oscillator_strength_3> 
0.0041 
 
>  <oscillator_strength_4> 
0.0 
 
>  <open_babel_can_smiles> 
Oc1cccc2c1nccc2 
 
>  <mulliken_charges> 
18 
1   -0.133048 
2   -0.149677 
3   -0.202124 
4   -0.155015 
5   -0.210381 
6   0.042255 
7   0.16327 
8   0.340041 
9   0.194328 
10   -0.478822 
11   -0.615 
12   0.133344 
13   0.136893 
14   0.127509 
15   0.140477 
16   0.119176 
17   0.139751 
18   0.407023 
 
>  <lowdin_charges> 
18 
1   -0.144286 
2   -0.178686 
3   -0.180735 
4   -0.126556 
5   -0.222597 
6   -0.087753 
7   -0.008272 
8   0.105874 
9   0.017733 
10   -0.133817 
11   -0.349374 
12   0.160805 
13   0.163872 
14   0.155817 
15   0.16007 
16   0.154805 
17   0.156259 
18   0.35684 
 
$$$$ 
 
