PCCDB-ID:  1335 
public computational chemistry database (PCCDB) project, http://pccdb.org 
 
 20 20  0  0  1  0  0  0  0  0999 V2000 
   -0.7670   -1.0476   -0.4152 C   0  0  0  0  0  0  0  0  0  0  0  0 
   -0.0659    1.9526   -1.6076 C   0  0  0  0  0  0  0  0  0  0  0  0 
    0.0440    1.1769   -0.2845 C   0  0  2  0  0  0  0  0  0  0  0  0 
    0.6598   -1.1645    0.1562 C   0  0  2  0  0  0  0  0  0  0  0  0 
    1.2693    0.2301   -0.1747 C   0  0  1  0  0  0  0  0  0  0  0  0 
   -1.1810    0.3364   -0.1395 N   0  0  0  0  0  0  0  0  0  0  0  0 
   -1.2738    2.6906   -1.6170 O   0  0  0  0  0  0  0  0  0  0  0  0 
    1.4312   -2.2335   -0.3459 O   0  0  0  0  0  0  0  0  0  0  0  0 
    1.9631    0.1529   -1.4308 O   0  0  0  0  0  0  0  0  0  0  0  0 
   -1.4728   -1.7630    0.0156 H   0  0  0  0  0  0  0  0  0  0  0  0 
   -0.7403   -1.2169   -1.5000 H   0  0  0  0  0  0  0  0  0  0  0  0 
   -0.0110    1.2571   -2.4575 H   0  0  0  0  0  0  0  0  0  0  0  0 
    0.7593    2.6633   -1.7094 H   0  0  0  0  0  0  0  0  0  0  0  0 
    0.0525    1.9163    0.5234 H   0  0  0  0  0  0  0  0  0  0  0  0 
    0.6094   -1.3006    1.2429 H   0  0  0  0  0  0  0  0  0  0  0  0 
    1.9657    0.5647    0.6027 H   0  0  0  0  0  0  0  0  0  0  0  0 
   -1.5195    0.3957    0.8181 H   0  0  0  0  0  0  0  0  0  0  0  0 
   -1.9469    2.0369   -1.3484 H   0  0  0  0  0  0  0  0  0  0  0  0 
    1.6427   -1.9760   -1.2613 H   0  0  0  0  0  0  0  0  0  0  0  0 
    2.8836   -0.0789   -1.2363 H   0  0  0  0  0  0  0  0  0  0  0  0 
  1  6  1  0  0  0  0 
  1 10  1  0  0  0  0 
  1  4  1  0  0  0  0 
  2  3  1  0  0  0  0 
  3  5  1  0  0  0  0 
  3  6  1  0  0  0  0 
  3 14  1  1  0  0  0 
  4 15  1  1  0  0  0 
  5  4  1  0  0  0  0 
  5 16  1  1  0  0  0 
  6 17  1  0  0  0  0 
  7  2  1  0  0  0  0 
  7 18  1  0  0  0  0 
  8  4  1  0  0  0  0 
  9 20  1  0  0  0  0 
  9  5  1  0  0  0  0 
 11  1  1  0  0  0  0 
 12  2  1  0  0  0  0 
 13  2  1  0  0  0  0 
 19  8  1  0  0  0  0 
M  END 
>  <HBA> 
4 
 
>  <HBD> 
4 
 
>  <TPSA> 
72.72 
 
>  <cid> 
1335 
 
>  <dipole> 
2.7 
 
>  <excitation_energy_1> 
5.383 
 
>  <excitation_energy_2> 
5.641 
 
>  <excitation_energy_3> 
6.099 
 
>  <excitation_energy_4> 
6.32 
 
>  <homo_energy> 
-6.338 
 
>  <homo_lumo_gap> 
7.423 
 
>  <logP> 
-1.999 
 
>  <lumo_energy> 
1.086 
 
>  <melting_point> 
79.71 
 
>  <molecular_refractivity> 
34.24 
 
>  <oscillator_strength_1> 
0.0042 
 
>  <oscillator_strength_2> 
0.0103 
 
>  <oscillator_strength_3> 
0.005 
 
>  <oscillator_strength_4> 
0.002 
 
>  <open_babel_can_smiles> 
OC[C@H]1NC[C@H]([C@H]1O)O 
 
>  <mulliken_charges> 
20 
1   -0.177399 
2   0.009358 
3   -0.043376 
4   0.125182 
5   0.081004 
6   -0.572493 
7   -0.633161 
8   -0.631483 
9   -0.635877 
10   0.153844 
11   0.152233 
12   0.130605 
13   0.140281 
14   0.139916 
15   0.131742 
16   0.132869 
17   0.305668 
18   0.397521 
19   0.389594 
20   0.403972 
 
>  <lowdin_charges> 
20 
1   -0.228577 
2   -0.140444 
3   -0.101195 
4   -0.038577 
5   -0.038444 
6   -0.362499 
7   -0.475942 
8   -0.452243 
9   -0.457528 
10   0.156269 
11   0.144829 
12   0.133752 
13   0.148276 
14   0.149478 
15   0.140264 
16   0.140484 
17   0.256864 
18   0.338632 
19   0.335872 
20   0.350727 
 
$$$$ 
 
