PCCDB-ID:  364 
public computational chemistry database (PCCDB) project, http://pccdb.org 
 
 15 14  0  0  1  0  0  0  0  0999 V2000 
    1.1727    0.0066   -0.0876 C   0  0  0  0  0  0  0  0  0  0  0  0 
    0.6048    1.1952    0.7015 C   0  0  1  0  0  0  0  0  0  0  0  0 
    1.0502    2.5684    0.1557 C   0  0  0  0  0  0  0  0  0  0  0  0 
    0.6408    0.0187   -1.4675 N   0  0  0  0  0  0  0  0  0  0  0  0 
   -0.8695    1.0891    0.7507 N   0  0  0  0  0  0  0  0  0  0  0  0 
    1.3248    3.4966    0.8827 O   0  0  0  0  0  0  0  0  0  0  0  0 
    1.0260    2.6934   -1.1855 O   0  0  0  0  0  0  0  0  0  0  0  0 
    0.9305   -0.9193    0.4510 H   0  0  0  0  0  0  0  0  0  0  0  0 
    2.2634    0.0934   -0.1461 H   0  0  0  0  0  0  0  0  0  0  0  0 
    0.9757    1.1360    1.7277 H   0  0  0  0  0  0  0  0  0  0  0  0 
   -0.3193   -0.3225   -1.4623 H   0  0  0  0  0  0  0  0  0  0  0  0 
    1.1742   -0.6045   -2.0692 H   0  0  0  0  0  0  0  0  0  0  0  0 
   -1.2642    1.4744   -0.1077 H   0  0  0  0  0  0  0  0  0  0  0  0 
   -1.2182    1.6892    1.4966 H   0  0  0  0  0  0  0  0  0  0  0  0 
    0.8475    1.7947   -1.5866 H   0  0  0  0  0  0  0  0  0  0  0  0 
  1  8  1  0  0  0  0 
  1  2  1  0  0  0  0 
  2  5  1  0  0  0  0 
  2 10  1  1  0  0  0 
  3  2  1  0  0  0  0 
  3  6  2  0  0  0  0 
  4 11  1  0  0  0  0 
  4  1  1  0  0  0  0 
  5 14  1  0  0  0  0 
  7  3  1  0  0  0  0 
  9  1  1  0  0  0  0 
 12  4  1  0  0  0  0 
 13  5  1  0  0  0  0 
 15  7  1  0  0  0  0 
M  END 
>  <HBA> 
4 
 
>  <HBD> 
3 
 
>  <TPSA> 
89.34 
 
>  <cid> 
364 
 
>  <dipole> 
5.26 
 
>  <excitation_energy_1> 
5.297 
 
>  <excitation_energy_2> 
5.596 
 
>  <excitation_energy_3> 
6.326 
 
>  <excitation_energy_4> 
6.332 
 
>  <homo_energy> 
-6.381 
 
>  <homo_lumo_gap> 
6.977 
 
>  <logP> 
-0.242 
 
>  <lumo_energy> 
0.596 
 
>  <melting_point> 
161.09 
 
>  <molecular_refractivity> 
23.72 
 
>  <oscillator_strength_1> 
0.0104 
 
>  <oscillator_strength_2> 
0.0088 
 
>  <oscillator_strength_3> 
0.0025 
 
>  <oscillator_strength_4> 
0.0076 
 
>  <open_babel_can_smiles> 
N[C@H](C(=O)O)CN 
 
>  <mulliken_charges> 
15 
1   -0.148057 
2   -0.077222 
3   0.572709 
4   -0.774864 
5   -0.722248 
6   -0.464927 
7   -0.599337 
8   0.156727 
9   0.162519 
10   0.167982 
11   0.331395 
12   0.329274 
13   0.302853 
14   0.321903 
15   0.441293 
 
>  <lowdin_charges> 
15 
1   -0.211706 
2   -0.109229 
3   0.167874 
4   -0.544552 
5   -0.547016 
6   -0.264373 
7   -0.383863 
8   0.148212 
9   0.152689 
10   0.165859 
11   0.271455 
12   0.275424 
13   0.256854 
14   0.271833 
15   0.350538 
 
$$$$ 
 
