PCCDB-ID:  529 
public computational chemistry database (PCCDB) project, http://pccdb.org 
 
 14 13  0  0  0  0  0  0  0  0999 V2000 
    0.9120    0.0639   -0.0669 C   0  0  0  0  0  0  0  0  0  0  0  0 
    0.3533    0.0708   -1.4899 C   0  0  0  0  0  0  0  0  0  0  0  0 
   -0.8261   -0.0767   -1.6865 O   0  0  0  0  0  0  0  0  0  0  0  0 
    1.2475    0.2466   -2.4752 O   0  0  0  0  0  0  0  0  0  0  0  0 
    2.5904    1.1583    2.1465 O   0  0  0  0  0  0  0  0  0  0  0  0 
    2.8016   -1.3276    1.8885 O   0  0  0  0  0  0  0  0  0  0  0  0 
    4.7136    0.1495    0.9025 O   0  0  0  0  0  0  0  0  0  0  0  0 
    2.3467    0.2106   -0.1169 O   0  0  0  0  0  0  0  0  0  0  0  0 
    3.2733    0.0582    1.1919 P   0  0  0  0  0  0  0  0  0  0  0  0 
    0.6425   -0.8815    0.4122 H   0  0  0  0  0  0  0  0  0  0  0  0 
    0.4681    0.8898    0.4960 H   0  0  0  0  0  0  0  0  0  0  0  0 
    2.1358    0.3415   -2.0794 H   0  0  0  0  0  0  0  0  0  0  0  0 
    3.0505    1.2524    2.9974 H   0  0  0  0  0  0  0  0  0  0  0  0 
    3.4637   -2.0207    1.7262 H   0  0  0  0  0  0  0  0  0  0  0  0 
  1 10  1  0  0  0  0 
  1 11  1  0  0  0  0 
  2  1  1  0  0  0  0 
  3  2  2  0  0  0  0 
  4 12  1  0  0  0  0 
  4  2  1  0  0  0  0 
  5 13  1  0  0  0  0 
  7  9  2  0  0  0  0 
  8  1  1  0  0  0  0 
  8  9  1  0  0  0  0 
  9  6  1  0  0  0  0 
  9  5  1  0  0  0  0 
 14  6  1  0  0  0  0 
M  END 
>  <HBA> 
6 
 
>  <HBD> 
3 
 
>  <TPSA> 
113.87 
 
>  <cid> 
529 
 
>  <dipole> 
4.59 
 
>  <excitation_energy_1> 
5.804 
 
>  <excitation_energy_2> 
6.383 
 
>  <excitation_energy_3> 
6.943 
 
>  <excitation_energy_4> 
7.167 
 
>  <homo_energy> 
-7.676 
 
>  <homo_lumo_gap> 
7.698 
 
>  <logP> 
-0.82 
 
>  <lumo_energy> 
0.022 
 
>  <melting_point> 
132.98 
 
>  <molecular_refractivity> 
25.57 
 
>  <oscillator_strength_1> 
0.0003 
 
>  <oscillator_strength_2> 
0.0073 
 
>  <oscillator_strength_3> 
0.0232 
 
>  <oscillator_strength_4> 
0.0207 
 
>  <open_babel_can_smiles> 
OC(=O)COP(=O)(O)O 
 
>  <mulliken_charges> 
14 
1   -0.143126 
2   0.576626 
3   -0.438745 
4   -0.561232 
5   -0.643048 
6   -0.654819 
7   -0.516819 
8   -0.546181 
9   1.164815 
10   0.208148 
11   0.213466 
12   0.443693 
13   0.449732 
14   0.44749 
 
>  <lowdin_charges> 
14 
1   -0.159554 
2   0.17898 
3   -0.235184 
4   -0.333958 
5   -0.553989 
6   -0.57255 
7   -0.562479 
8   -0.401126 
9   1.112183 
10   0.184702 
11   0.187749 
12   0.371449 
13   0.392311 
14   0.391466 
 
$$$$ 
 
