PCCDB-ID:  1141 
public computational chemistry database (PCCDB) project, http://pccdb.org 
 
 19 19  0  0  1  0  0  0  0  0999 V2000 
    0.8754    0.0652   -0.1374 C   0  0  0  0  0  0  0  0  0  0  0  0 
    4.5670    1.1747    0.2149 C   0  0  0  0  0  0  0  0  0  0  0  0 
    3.1116    1.2061    0.0336 C   0  0  0  0  0  0  0  0  0  0  0  0 
    5.2581    0.0208    0.1952 C   0  0  0  0  0  0  0  0  0  0  0  0 
    2.3687    0.0812    0.0143 C   0  0  0  0  0  0  0  0  0  0  0  0 
    4.5502   -1.2762   -0.1036 C   0  0  1  0  0  0  0  0  0  0  0  0 
    3.0542   -1.2464    0.2837 C   0  0  1  0  0  0  0  0  0  0  0  0 
    4.7228   -1.6220   -1.4869 O   0  0  0  0  0  0  0  0  0  0  0  0 
    2.8694   -1.5979    1.6649 O   0  0  0  0  0  0  0  0  0  0  0  0 
    0.4581    1.0761   -0.1872 H   0  0  0  0  0  0  0  0  0  0  0  0 
    0.4143   -0.4625    0.7075 H   0  0  0  0  0  0  0  0  0  0  0  0 
    0.5747   -0.4743   -1.0464 H   0  0  0  0  0  0  0  0  0  0  0  0 
    5.0810    2.1234    0.3552 H   0  0  0  0  0  0  0  0  0  0  0  0 
    2.6337    2.1779   -0.0764 H   0  0  0  0  0  0  0  0  0  0  0  0 
    6.3402    0.0058    0.2961 H   0  0  0  0  0  0  0  0  0  0  0  0 
    4.9951   -2.1071    0.4535 H   0  0  0  0  0  0  0  0  0  0  0  0 
    2.5704   -2.0526   -0.2777 H   0  0  0  0  0  0  0  0  0  0  0  0 
    4.5469   -0.8160   -1.9991 H   0  0  0  0  0  0  0  0  0  0  0  0 
    3.1937   -0.8462    2.1882 H   0  0  0  0  0  0  0  0  0  0  0  0 
  1  5  1  0  0  0  0 
  1 11  1  0  0  0  0 
  2 13  1  0  0  0  0 
  3  2  1  0  0  0  0 
  4  2  2  0  0  0  0 
  4 15  1  0  0  0  0 
  5  3  2  0  0  0  0 
  5  7  1  0  0  0  0 
  6  4  1  0  0  0  0 
  6  7  1  0  0  0  0 
  6 16  1  1  0  0  0 
  7 17  1  6  0  0  0 
  7  9  1  0  0  0  0 
  8  6  1  0  0  0  0 
  9 19  1  0  0  0  0 
 10  1  1  0  0  0  0 
 12  1  1  0  0  0  0 
 14  3  1  0  0  0  0 
 18  8  1  0  0  0  0 
M  END 
>  <HBA> 
2 
 
>  <HBD> 
2 
 
>  <TPSA> 
40.46 
 
>  <cid> 
1141 
 
>  <dipole> 
2.75 
 
>  <excitation_energy_1> 
4.417 
 
>  <excitation_energy_2> 
4.75 
 
>  <excitation_energy_3> 
5.488 
 
>  <excitation_energy_4> 
5.834 
 
>  <homo_energy> 
-6.09 
 
>  <homo_lumo_gap> 
4.98 
 
>  <logP> 
0.224 
 
>  <lumo_energy> 
-1.11 
 
>  <melting_point> 
55.59 
 
>  <molecular_refractivity> 
35.02 
 
>  <oscillator_strength_1> 
0.1058 
 
>  <oscillator_strength_2> 
0.0492 
 
>  <oscillator_strength_3> 
0.0027 
 
>  <oscillator_strength_4> 
0.0182 
 
>  <open_babel_can_smiles> 
O[C@H]1C(=CC=C[C@@H]1O)C 
 
>  <mulliken_charges> 
19 
1   -0.518104 
2   -0.119457 
3   -0.192571 
4   -0.172677 
5   0.137294 
6   0.079747 
7   0.046511 
8   -0.618539 
9   -0.618941 
10   0.153426 
11   0.175553 
12   0.159793 
13   0.133957 
14   0.126654 
15   0.139988 
16   0.152891 
17   0.151718 
18   0.39059 
19   0.392167 
 
>  <lowdin_charges> 
19 
1   -0.440711 
2   -0.16683 
3   -0.196507 
4   -0.191848 
5   -0.017602 
6   -0.017559 
7   -0.018404 
8   -0.458018 
9   -0.457571 
10   0.15567 
11   0.168734 
12   0.160378 
13   0.159209 
14   0.155338 
15   0.159599 
16   0.158831 
17   0.158284 
18   0.343723 
19   0.345284 
 
$$$$ 
 
