PCCDB-ID:  1122 
public computational chemistry database (PCCDB) project, http://pccdb.org 
 
 11 10  0  0  1  0  0  0  0  0999 V2000 
    0.6053   -0.1743    0.3712 C   0  0  0  0  0  0  0  0  0  0  0  0 
    0.4039   -0.5815   -1.0828 C   0  0  1  0  0  0  0  0  0  0  0  0 
    1.1576   -1.9065   -1.3415 C   0  0  0  0  0  0  0  0  0  0  0  0 
   -0.3563    0.0424    1.0779 O   0  0  0  0  0  0  0  0  0  0  0  0 
   -0.9693   -0.7081   -1.3679 O   0  0  0  0  0  0  0  0  0  0  0  0 
    2.3503   -1.9980   -1.1881 O   0  0  0  0  0  0  0  0  0  0  0  0 
    0.3601   -2.9084   -1.7219 O   0  0  0  0  0  0  0  0  0  0  0  0 
    1.6458   -0.1010    0.7285 H   0  0  0  0  0  0  0  0  0  0  0  0 
    0.8773    0.1799   -1.7211 H   0  0  0  0  0  0  0  0  0  0  0  0 
   -1.4322   -0.4592   -0.5386 H   0  0  0  0  0  0  0  0  0  0  0  0 
   -0.5487   -2.5349   -1.7667 H   0  0  0  0  0  0  0  0  0  0  0  0 
  1  8  1  0  0  0  0 
  1  4  2  0  0  0  0 
  2  9  1  6  0  0  0 
  2  1  1  0  0  0  0 
  3  6  2  0  0  0  0 
  3  2  1  0  0  0  0 
  5  2  1  0  0  0  0 
  5 10  1  0  0  0  0 
  7  3  1  0  0  0  0 
 11  7  1  0  0  0  0 
M  END 
>  <HBA> 
4 
 
>  <HBD> 
2 
 
>  <TPSA> 
74.6 
 
>  <cid> 
1122 
 
>  <dipole> 
2.4 
 
>  <excitation_energy_1> 
4.508 
 
>  <excitation_energy_2> 
4.994 
 
>  <excitation_energy_3> 
5.86 
 
>  <excitation_energy_4> 
6.249 
 
>  <homo_energy> 
-7.666 
 
>  <homo_lumo_gap> 
5.821 
 
>  <logP> 
-1.369 
 
>  <lumo_energy> 
-1.845 
 
>  <melting_point> 
102.93 
 
>  <molecular_refractivity> 
19.67 
 
>  <oscillator_strength_1> 
0.0034 
 
>  <oscillator_strength_2> 
0.0192 
 
>  <oscillator_strength_3> 
0.0031 
 
>  <oscillator_strength_4> 
0.0053 
 
>  <open_babel_can_smiles> 
O=C[C@@H](C(=O)O)O 
 
>  <mulliken_charges> 
11 
1   0.239571 
2   -0.031516 
3   0.586226 
4   -0.385476 
5   -0.651488 
6   -0.443853 
7   -0.55948 
8   0.174729 
9   0.206508 
10   0.425066 
11   0.439712 
 
>  <lowdin_charges> 
11 
1   0.059129 
2   -0.080041 
3   0.171412 
4   -0.206824 
5   -0.449525 
6   -0.240601 
7   -0.32717 
8   0.159386 
9   0.186729 
10   0.358012 
11   0.369492 
 
$$$$ 
 
