PCCDB-ID:  3007 
public computational chemistry database (PCCDB) project, http://pccdb.org 
 
 23 23  0  0  1  0  0  0  0  0999 V2000 
    0.5730    0.4278   -0.4503 C   0  0  0  0  0  0  0  0  0  0  0  0 
    0.5876   -4.2917    1.9392 C   0  0  0  0  0  0  0  0  0  0  0  0 
    0.4362   -4.1250    0.5620 C   0  0  0  0  0  0  0  0  0  0  0  0 
    1.4102   -3.4159    2.6509 C   0  0  0  0  0  0  0  0  0  0  0  0 
    1.1006   -3.0883   -0.0959 C   0  0  0  0  0  0  0  0  0  0  0  0 
    2.0729   -2.3830    1.9880 C   0  0  0  0  0  0  0  0  0  0  0  0 
    2.6320   -1.0577   -0.0955 C   0  0  0  0  0  0  0  0  0  0  0  0 
    1.9884    0.3418    0.1235 C   0  0  1  0  0  0  0  0  0  0  0  0 
    1.9276   -2.1998    0.6046 C   0  0  0  0  0  0  0  0  0  0  0  0 
    2.7896    1.4420   -0.4307 N   0  0  0  0  0  0  0  0  0  0  0  0 
   -0.0818   -0.3315   -0.0126 H   0  0  0  0  0  0  0  0  0  0  0  0 
    0.5859    0.2724   -1.5382 H   0  0  0  0  0  0  0  0  0  0  0  0 
    0.1490    1.4175   -0.2569 H   0  0  0  0  0  0  0  0  0  0  0  0 
    0.0734   -5.0994    2.4532 H   0  0  0  0  0  0  0  0  0  0  0  0 
   -0.1970   -4.8042   -0.0032 H   0  0  0  0  0  0  0  0  0  0  0  0 
    1.5397   -3.5398    3.7231 H   0  0  0  0  0  0  0  0  0  0  0  0 
    0.9805   -2.9687   -1.1704 H   0  0  0  0  0  0  0  0  0  0  0  0 
    2.7190   -1.7117    2.5504 H   0  0  0  0  0  0  0  0  0  0  0  0 
    3.6722   -1.0041    0.2558 H   0  0  0  0  0  0  0  0  0  0  0  0 
    2.6766   -1.2513   -1.1766 H   0  0  0  0  0  0  0  0  0  0  0  0 
    1.9306    0.5140    1.2074 H   0  0  0  0  0  0  0  0  0  0  0  0 
    2.8788    1.3185   -1.4404 H   0  0  0  0  0  0  0  0  0  0  0  0 
    3.7393    1.3986   -0.0607 H   0  0  0  0  0  0  0  0  0  0  0  0 
  1 13  1  0  0  0  0 
  1 11  1  0  0  0  0 
  1  8  1  0  0  0  0 
  2 14  1  0  0  0  0 
  2  4  2  0  0  0  0 
  3  2  1  0  0  0  0 
  4 16  1  0  0  0  0 
  5  3  2  0  0  0  0 
  5  9  1  0  0  0  0 
  6 18  1  0  0  0  0 
  6  4  1  0  0  0  0 
  7  8  1  0  0  0  0 
  7 19  1  0  0  0  0 
  7  9  1  0  0  0  0 
  8 21  1  1  0  0  0 
  9  6  2  0  0  0  0 
 10 23  1  0  0  0  0 
 10  8  1  0  0  0  0 
 12  1  1  0  0  0  0 
 15  3  1  0  0  0  0 
 17  5  1  0  0  0  0 
 20  7  1  0  0  0  0 
 22 10  1  0  0  0  0 
M  END 
>  <HBA> 
1 
 
>  <HBD> 
1 
 
>  <TPSA> 
26.02 
 
>  <cid> 
3007 
 
>  <dipole> 
1.22 
 
>  <excitation_energy_1> 
5.189 
 
>  <excitation_energy_2> 
5.365 
 
>  <excitation_energy_3> 
5.65 
 
>  <excitation_energy_4> 
5.768 
 
>  <homo_energy> 
-6.095 
 
>  <homo_lumo_gap> 
6.12 
 
>  <logP> 
2.277 
 
>  <lumo_energy> 
0.024 
 
>  <melting_point> 
60.07 
 
>  <molecular_refractivity> 
43.73 
 
>  <oscillator_strength_1> 
0.009 
 
>  <oscillator_strength_2> 
0.0633 
 
>  <oscillator_strength_3> 
0.0758 
 
>  <oscillator_strength_4> 
0.0108 
 
>  <open_babel_can_smiles> 
C[C@@H](Cc1ccccc1)N 
 
>  <mulliken_charges> 
23 
1   -0.4417 
2   -0.132044 
3   -0.127451 
4   -0.127613 
5   -0.185069 
6   -0.182252 
7   -0.355938 
8   0.030155 
9   0.177943 
10   -0.701955 
11   0.156683 
12   0.127788 
13   0.160109 
14   0.127658 
15   0.127956 
16   0.128135 
17   0.122415 
18   0.121542 
19   0.132663 
20   0.128275 
21   0.134972 
22   0.28712 
23   0.290612 
 
>  <lowdin_charges> 
23 
1   -0.4489 
2   -0.162758 
3   -0.157127 
4   -0.152836 
5   -0.167039 
6   -0.169618 
7   -0.29081 
8   -0.059354 
9   -0.001872 
10   -0.544316 
11   0.159456 
12   0.139136 
13   0.159325 
14   0.157867 
15   0.15821 
16   0.154973 
17   0.151977 
18   0.154593 
19   0.144286 
20   0.140768 
21   0.137408 
22   0.247346 
23   0.249284 
 
$$$$ 
 
