PCCDB-ID:  2095 
public computational chemistry database (PCCDB) project, http://pccdb.org 
 
 31 32  0  0  1  0  0  0  0  0999 V2000 
    1.3371    1.3041   -0.7285 C   0  0  0  0  0  0  0  0  0  0  0  0 
    1.9294   -0.9860    0.0125 C   0  0  0  0  0  0  0  0  0  0  0  0 
    4.5674    4.9594    2.7119 C   0  0  0  0  0  0  0  0  0  0  0  0 
    4.1776    3.5698    3.2381 C   0  0  2  0  0  0  0  0  0  0  0  0 
    4.0851    1.1956    2.9044 C   0  0  1  0  0  0  0  0  0  0  0  0 
    5.3182    2.8347    4.0689 C   0  0  1  0  0  0  0  0  0  0  0  0 
    5.4725    1.3820    3.5008 C   0  0  1  0  0  0  0  0  0  0  0  0 
    3.9403    2.5086    2.1751 C   0  0  1  0  0  0  0  0  0  0  0  0 
    2.7846    0.9187    1.2173 C   0  0  0  0  0  0  0  0  0  0  0  0 
    3.6281    0.2205    1.9135 N   0  0  0  0  0  0  0  0  0  0  0  0 
    1.9047    0.4403    0.2974 N   0  0  0  0  0  0  0  0  0  0  0  0 
    5.6519    4.9265    1.7996 O   0  0  0  0  0  0  0  0  0  0  0  0 
    6.5321    3.5873    4.0214 O   0  0  0  0  0  0  0  0  0  0  0  0 
    5.8543    0.5296    4.5700 O   0  0  0  0  0  0  0  0  0  0  0  0 
    2.7096    2.2914    1.4452 O   0  0  0  0  0  0  0  0  0  0  0  0 
    1.9186    1.2619   -1.6626 H   0  0  0  0  0  0  0  0  0  0  0  0 
    1.3150    2.3332   -0.3742 H   0  0  0  0  0  0  0  0  0  0  0  0 
    0.3136    0.9797   -0.9470 H   0  0  0  0  0  0  0  0  0  0  0  0 
    2.6453   -1.2321   -0.7862 H   0  0  0  0  0  0  0  0  0  0  0  0 
    0.9303   -1.3046   -0.3041 H   0  0  0  0  0  0  0  0  0  0  0  0 
    2.2210   -1.5234    0.9149 H   0  0  0  0  0  0  0  0  0  0  0  0 
    4.7795    5.6247    3.5626 H   0  0  0  0  0  0  0  0  0  0  0  0 
    3.7161    5.3820    2.1668 H   0  0  0  0  0  0  0  0  0  0  0  0 
    3.2949    3.6758    3.8808 H   0  0  0  0  0  0  0  0  0  0  0  0 
    3.3911    1.1752    3.7655 H   0  0  0  0  0  0  0  0  0  0  0  0 
    5.0014    2.7320    5.1150 H   0  0  0  0  0  0  0  0  0  0  0  0 
    6.2390    1.3856    2.7103 H   0  0  0  0  0  0  0  0  0  0  0  0 
    4.7354    2.6109    1.4232 H   0  0  0  0  0  0  0  0  0  0  0  0 
    6.4099    4.6084    2.3216 H   0  0  0  0  0  0  0  0  0  0  0  0 
    7.1915    3.1045    4.5447 H   0  0  0  0  0  0  0  0  0  0  0  0 
    5.8815   -0.3759    4.2227 H   0  0  0  0  0  0  0  0  0  0  0  0 
  1 17  1  0  0  0  0 
  1 11  1  0  0  0  0 
  2 11  1  0  0  0  0 
  2 21  1  0  0  0  0 
  3  4  1  0  0  0  0 
  3 22  1  0  0  0  0 
  4 24  1  1  0  0  0 
  4  6  1  0  0  0  0 
  5  7  1  0  0  0  0 
  5 25  1  1  0  0  0 
  6 26  1  1  0  0  0 
  7 27  1  6  0  0  0 
  7  6  1  0  0  0  0 
  7 14  1  0  0  0  0 
  8 28  1  6  0  0  0 
  8  5  1  0  0  0  0 
  8  4  1  0  0  0  0 
  9 15  1  0  0  0  0 
  9 10  2  0  0  0  0 
 10  5  1  0  0  0  0 
 11  9  1  0  0  0  0 
 12 29  1  0  0  0  0 
 12  3  1  0  0  0  0 
 13  6  1  0  0  0  0 
 13 30  1  0  0  0  0 
 15  8  1  0  0  0  0 
 16  1  1  0  0  0  0 
 18  1  1  0  0  0  0 
 19  2  1  0  0  0  0 
 20  2  1  0  0  0  0 
 23  3  1  0  0  0  0 
 31 14  1  0  0  0  0 
M  END 
>  <HBA> 
6 
 
>  <HBD> 
3 
 
>  <TPSA> 
85.52 
 
>  <cid> 
2095 
 
>  <dipole> 
1.66 
 
>  <excitation_energy_1> 
5.385 
 
>  <excitation_energy_2> 
5.488 
 
>  <excitation_energy_3> 
5.639 
 
>  <excitation_energy_4> 
5.833 
 
>  <homo_energy> 
-5.78 
 
>  <homo_lumo_gap> 
7.042 
 
>  <logP> 
-2.549 
 
>  <lumo_energy> 
1.263 
 
>  <melting_point> 
84.01 
 
>  <molecular_refractivity> 
55.63 
 
>  <oscillator_strength_1> 
0.0085 
 
>  <oscillator_strength_2> 
0.017 
 
>  <oscillator_strength_3> 
0.0107 
 
>  <oscillator_strength_4> 
0.0218 
 
>  <open_babel_can_smiles> 
OC[C@@H]1[C@H](O)[C@H]([C@H]2[C@H]1OC(=N2)N(C)C)O 
 
>  <mulliken_charges> 
31 
1   -0.319677 
2   -0.307746 
3   -0.03034 
4   -0.167194 
5   -0.015636 
6   0.112443 
7   0.110776 
8   0.138401 
9   0.768445 
10   -0.544242 
11   -0.479967 
12   -0.637252 
13   -0.650779 
14   -0.651314 
15   -0.542785 
16   0.151412 
17   0.197998 
18   0.155426 
19   0.151433 
20   0.149764 
21   0.19633 
22   0.129667 
23   0.147343 
24   0.140947 
25   0.132733 
26   0.149251 
27   0.126196 
28   0.156569 
29   0.414561 
30   0.411761 
31   0.405476 
 
>  <lowdin_charges> 
31 
1   -0.348524 
2   -0.346664 
3   -0.137329 
4   -0.16266 
5   -0.097706 
6   -0.00481 
7   -0.035825 
8   -0.012871 
9   0.173429 
10   -0.305374 
11   -0.102013 
12   -0.478719 
13   -0.461057 
14   -0.4632 
15   -0.233388 
16   0.143578 
17   0.177223 
18   0.15161 
19   0.145769 
20   0.150585 
21   0.180462 
22   0.134564 
23   0.151174 
24   0.155878 
25   0.137513 
26   0.145347 
27   0.135153 
28   0.149987 
29   0.34451 
30   0.359756 
31   0.353601 
 
$$$$ 
 
