PCCDB-ID:  4674 
public computational chemistry database (PCCDB) project, http://pccdb.org 
 
 24 23  0  0  0  0  0  0  0  0999 V2000 
    1.4548    0.4603   -0.5582 C   0  0  0  0  0  0  0  0  0  0  0  0 
    0.2517    1.1343    0.1262 C   0  0  0  0  0  0  0  0  0  0  0  0 
    2.8804    0.9815   -0.2436 C   0  0  0  0  0  0  0  0  0  0  0  0 
    0.0033    0.5897    1.4909 N   0  0  0  0  0  0  0  0  0  0  0  0 
    3.7689    0.2107   -1.0805 O   0  0  0  0  0  0  0  0  0  0  0  0 
    4.5217    3.2122   -0.2170 O   0  0  0  0  0  0  0  0  0  0  0  0 
    3.4063    2.5483   -2.3777 O   0  0  0  0  0  0  0  0  0  0  0  0 
    1.9303    3.6478   -0.5361 O   0  0  0  0  0  0  0  0  0  0  0  0 
    2.3417   -0.0504    2.3071 O   0  0  0  0  0  0  0  0  0  0  0  0 
    4.6925   -0.1946    1.4140 O   0  0  0  0  0  0  0  0  0  0  0  0 
    3.8210    2.1312    2.1565 O   0  0  0  0  0  0  0  0  0  0  0  0 
    3.0919    2.7664   -0.8116 P   0  0  0  0  0  0  0  0  0  0  0  0 
    3.4092    0.8195    1.5591 P   0  0  0  0  0  0  0  0  0  0  0  0 
    1.3346    0.5777   -1.6410 H   0  0  0  0  0  0  0  0  0  0  0  0 
    1.4494   -0.6204   -0.3676 H   0  0  0  0  0  0  0  0  0  0  0  0 
   -0.6335    0.9899   -0.5043 H   0  0  0  0  0  0  0  0  0  0  0  0 
    0.4245    2.2094    0.2062 H   0  0  0  0  0  0  0  0  0  0  0  0 
   -0.5373   -0.2739    1.4428 H   0  0  0  0  0  0  0  0  0  0  0  0 
   -0.5387    1.2487    2.0479 H   0  0  0  0  0  0  0  0  0  0  0  0 
    4.4998   -0.1187   -0.5248 H   0  0  0  0  0  0  0  0  0  0  0  0 
    4.4576    3.1698    0.7703 H   0  0  0  0  0  0  0  0  0  0  0  0 
    3.9149    1.7170   -2.4711 H   0  0  0  0  0  0  0  0  0  0  0  0 
    1.3352    0.2417    2.0865 H   0  0  0  0  0  0  0  0  0  0  0  0 
    5.4580    0.1899    1.8749 H   0  0  0  0  0  0  0  0  0  0  0  0 
  1 15  1  0  0  0  0 
  1  3  1  0  0  0  0 
  1  2  1  0  0  0  0 
  2 17  1  0  0  0  0 
  2  4  1  0  0  0  0 
  3 13  1  0  0  0  0 
  4 19  1  0  0  0  0 
  5 20  1  0  0  0  0 
  5  3  1  0  0  0  0 
  6 21  1  0  0  0  0 
  7 12  1  0  0  0  0 
 10 13  1  0  0  0  0 
 10 24  1  0  0  0  0 
 12  8  2  0  0  0  0 
 12  3  1  0  0  0  0 
 12  6  1  0  0  0  0 
 13 11  2  0  0  0  0 
 13  9  1  0  0  0  0 
 14  1  1  0  0  0  0 
 16  2  1  0  0  0  0 
 18  4  1  0  0  0  0 
 22  7  1  0  0  0  0 
 23  9  1  0  0  0  0 
M  END 
>  <HBA> 
8 
 
>  <HBD> 
6 
 
>  <TPSA> 
180.93 
 
>  <cid> 
4674 
 
>  <dipole> 
5.97 
 
>  <excitation_energy_1> 
6.162 
 
>  <excitation_energy_2> 
6.245 
 
>  <excitation_energy_3> 
6.793 
 
>  <excitation_energy_4> 
6.819 
 
>  <homo_energy> 
-7.252 
 
>  <homo_lumo_gap> 
7.649 
 
>  <logP> 
-0.963 
 
>  <lumo_energy> 
0.397 
 
>  <melting_point> 
231.98 
 
>  <molecular_refractivity> 
42.42 
 
>  <oscillator_strength_1> 
0.003 
 
>  <oscillator_strength_2> 
0.0035 
 
>  <oscillator_strength_3> 
0.0 
 
>  <oscillator_strength_4> 
0.0046 
 
>  <open_babel_can_smiles> 
NCCC(P(=O)(O)O)(P(=O)(O)O)O 
 
>  <mulliken_charges> 
24 
1   -0.293903 
2   -0.189257 
3   -0.159766 
4   -0.794376 
5   -0.666202 
6   -0.671257 
7   -0.651193 
8   -0.548187 
9   -0.65672 
10   -0.674333 
11   -0.600607 
12   1.104715 
13   1.071268 
14   0.181949 
15   0.164935 
16   0.159785 
17   0.239574 
18   0.342174 
19   0.351931 
20   0.437823 
21   0.465858 
22   0.444739 
23   0.493558 
24   0.447491 
 
>  <lowdin_charges> 
24 
1   -0.286122 
2   -0.220744 
3   -0.214433 
4   -0.511615 
5   -0.461474 
6   -0.579121 
7   -0.564861 
8   -0.587904 
9   -0.597488 
10   -0.580678 
11   -0.61282 
12   1.041687 
13   1.039175 
14   0.172737 
15   0.158176 
16   0.153519 
17   0.191431 
18   0.279704 
19   0.288096 
20   0.361665 
21   0.382373 
22   0.378892 
23   0.380309 
24   0.389497 
 
$$$$ 
 
