PCCDB-ID:  4114 
public computational chemistry database (PCCDB) project, http://pccdb.org 
 
 24 26  0  0  0  0  0  0  0  0999 V2000 
    1.4927    0.2368   -1.2207 C   0  0  0  0  0  0  0  0  0  0  0  0 
    2.5755    5.3674   -0.1673 C   0  0  0  0  0  0  0  0  0  0  0  0 
    1.2455    5.4280   -0.4019 C   0  0  0  0  0  0  0  0  0  0  0  0 
    6.5331    2.2344    0.6233 C   0  0  0  0  0  0  0  0  0  0  0  0 
    6.4153    0.8859    0.6242 C   0  0  0  0  0  0  0  0  0  0  0  0 
    4.6373    4.0165    0.2318 C   0  0  0  0  0  0  0  0  0  0  0  0 
    3.2615    4.1070   -0.0244 C   0  0  0  0  0  0  0  0  0  0  0  0 
    5.2078    2.7522    0.3684 C   0  0  0  0  0  0  0  0  0  0  0  0 
    0.4375    4.2214   -0.5225 C   0  0  0  0  0  0  0  0  0  0  0  0 
    4.3893    1.6093    0.2324 C   0  0  0  0  0  0  0  0  0  0  0  0 
    2.4687    2.9339   -0.1407 C   0  0  0  0  0  0  0  0  0  0  0  0 
    3.0173    1.6462   -0.0250 C   0  0  0  0  0  0  0  0  0  0  0  0 
   -0.7493    4.1685   -0.7427 O   0  0  0  0  0  0  0  0  0  0  0  0 
    2.3171    0.4826   -0.0702 O   0  0  0  0  0  0  0  0  0  0  0  0 
    5.1244    0.4723    0.3866 O   0  0  0  0  0  0  0  0  0  0  0  0 
    1.1205    3.0138   -0.3624 O   0  0  0  0  0  0  0  0  0  0  0  0 
    1.2055   -0.8139   -1.1497 H   0  0  0  0  0  0  0  0  0  0  0  0 
    2.0618    0.3970   -2.1446 H   0  0  0  0  0  0  0  0  0  0  0  0 
    0.6032    0.8699   -1.2187 H   0  0  0  0  0  0  0  0  0  0  0  0 
    3.1600    6.2806   -0.0799 H   0  0  0  0  0  0  0  0  0  0  0  0 
    0.7126    6.3648   -0.5148 H   0  0  0  0  0  0  0  0  0  0  0  0 
    7.4397    2.8006    0.7843 H   0  0  0  0  0  0  0  0  0  0  0  0 
    7.1261    0.0869    0.7725 H   0  0  0  0  0  0  0  0  0  0  0  0 
    5.2303    4.9219    0.3210 H   0  0  0  0  0  0  0  0  0  0  0  0 
  1 19  1  0  0  0  0 
  1 17  1  0  0  0  0 
  1 14  1  0  0  0  0 
  2 20  1  0  0  0  0 
  2  7  1  0  0  0  0 
  3  2  2  0  0  0  0 
  4  5  2  0  0  0  0 
  4 22  1  0  0  0  0 
  5 23  1  0  0  0  0 
  6 24  1  0  0  0  0 
  6  8  1  0  0  0  0 
  7  6  2  0  0  0  0 
  8  4  1  0  0  0  0 
  9  3  1  0  0  0  0 
  9 16  1  0  0  0  0 
 10  8  2  0  0  0  0 
 10 15  1  0  0  0  0 
 11 12  2  0  0  0  0 
 11  7  1  0  0  0  0 
 12 10  1  0  0  0  0 
 13  9  2  0  0  0  0 
 14 12  1  0  0  0  0 
 15  5  1  0  0  0  0 
 16 11  1  0  0  0  0 
 18  1  1  0  0  0  0 
 21  3  1  0  0  0  0 
M  END 
>  <HBA> 
4 
 
>  <HBD> 
0 
 
>  <TPSA> 
52.58 
 
>  <cid> 
4114 
 
>  <dipole> 
5.04 
 
>  <excitation_energy_1> 
3.574 
 
>  <excitation_energy_2> 
4.169 
 
>  <excitation_energy_3> 
4.517 
 
>  <excitation_energy_4> 
4.935 
 
>  <homo_energy> 
-5.976 
 
>  <homo_lumo_gap> 
4.191 
 
>  <logP> 
2.548 
 
>  <lumo_energy> 
-1.785 
 
>  <melting_point> 
133.0 
 
>  <molecular_refractivity> 
58.75 
 
>  <oscillator_strength_1> 
0.0218 
 
>  <oscillator_strength_2> 
0.2321 
 
>  <oscillator_strength_3> 
0.0018 
 
>  <oscillator_strength_4> 
0.1852 
 
>  <open_babel_can_smiles> 
COc1c2oc(=O)ccc2cc2c1occ2 
 
>  <mulliken_charges> 
24 
1   -0.224833 
2   -0.122536 
3   -0.223178 
4   -0.219698 
5   0.087697 
6   -0.29141 
7   0.137448 
8   0.146766 
9   0.599408 
10   0.279076 
11   0.263139 
12   0.266871 
13   -0.467208 
14   -0.52217 
15   -0.468465 
16   -0.527597 
17   0.167562 
18   0.14716 
19   0.190367 
20   0.154946 
21   0.163947 
22   0.153604 
23   0.168122 
24   0.140983 
 
>  <lowdin_charges> 
24 
1   -0.273557 
2   -0.105244 
3   -0.204977 
4   -0.208748 
5   -0.049185 
6   -0.165042 
7   -0.039552 
8   -0.02875 
9   0.192376 
10   0.076377 
11   0.080063 
12   0.061098 
13   -0.240081 
14   -0.202465 
15   -0.098648 
16   -0.136506 
17   0.160016 
18   0.145244 
19   0.16367 
20   0.170438 
21   0.182513 
22   0.176512 
23   0.178568 
24   0.165879 
 
$$$$ 
 
