PCCDB-ID:  279 
public computational chemistry database (PCCDB) project, http://pccdb.org 
 
 20 19  0  0  1  0  0  0  0  0999 V2000 
    1.2767    0.0473    0.0829 C   0  0  0  0  0  0  0  0  0  0  0  0 
    0.4374   -0.4401   -1.1136 C   0  0  1  0  0  0  0  0  0  0  0  0 
    2.7873    0.1456   -0.1868 C   0  0  0  0  0  0  0  0  0  0  0  0 
    0.6088   -1.9599   -1.3703 C   0  0  0  0  0  0  0  0  0  0  0  0 
   -1.9325    0.1108   -1.8213 C   0  0  0  0  0  0  0  0  0  0  0  0 
   -3.1416    0.4903   -1.7146 N   0  0  0  0  0  0  0  0  0  0  0  0 
   -0.9713   -0.1172   -0.8679 N   0  0  0  0  0  0  0  0  0  0  0  0 
    3.3453    1.2118   -0.2926 O   0  0  0  0  0  0  0  0  0  0  0  0 
    3.4523   -1.0153   -0.2879 O   0  0  0  0  0  0  0  0  0  0  0  0 
    1.3269   -2.6704   -0.6904 O   0  0  0  0  0  0  0  0  0  0  0  0 
   -0.0935   -2.4725   -2.3783 O   0  0  0  0  0  0  0  0  0  0  0  0 
   -1.4355   -0.1540   -3.0771 O   0  0  0  0  0  0  0  0  0  0  0  0 
    1.0957   -0.6116    0.9413 H   0  0  0  0  0  0  0  0  0  0  0  0 
    0.9508    1.0580    0.3348 H   0  0  0  0  0  0  0  0  0  0  0  0 
    0.7465    0.0939   -2.0192 H   0  0  0  0  0  0  0  0  0  0  0  0 
   -3.4111    0.7023   -0.7552 H   0  0  0  0  0  0  0  0  0  0  0  0 
   -1.2828   -0.1240    0.0926 H   0  0  0  0  0  0  0  0  0  0  0  0 
    2.8193   -1.7685   -0.2435 H   0  0  0  0  0  0  0  0  0  0  0  0 
   -0.6126   -1.7724   -2.8349 H   0  0  0  0  0  0  0  0  0  0  0  0 
   -2.1602    0.0692   -3.6902 H   0  0  0  0  0  0  0  0  0  0  0  0 
  1 14  1  0  0  0  0 
  1 13  1  0  0  0  0 
  2 15  1  6  0  0  0 
  2  7  1  0  0  0  0 
  2  1  1  0  0  0  0 
  3  1  1  0  0  0  0 
  4  2  1  0  0  0  0 
  4 10  2  0  0  0  0 
  5  6  2  0  0  0  0 
  5  7  1  0  0  0  0 
  6 16  1  0  0  0  0 
  7 17  1  0  0  0  0 
  8  3  2  0  0  0  0 
  9 18  1  0  0  0  0 
  9  3  1  0  0  0  0 
 11  4  1  0  0  0  0 
 12  5  1  0  0  0  0 
 19 11  1  0  0  0  0 
 20 12  1  0  0  0  0 
M  END 
>  <HBA> 
7 
 
>  <HBD> 
4 
 
>  <TPSA> 
129.72 
 
>  <cid> 
279 
 
>  <dipole> 
5.06 
 
>  <excitation_energy_1> 
5.099 
 
>  <excitation_energy_2> 
5.471 
 
>  <excitation_energy_3> 
5.723 
 
>  <excitation_energy_4> 
5.769 
 
>  <homo_energy> 
-7.116 
 
>  <homo_lumo_gap> 
6.248 
 
>  <logP> 
-0.326 
 
>  <lumo_energy> 
-0.868 
 
>  <melting_point> 
241.57 
 
>  <molecular_refractivity> 
35.79 
 
>  <oscillator_strength_1> 
0.0121 
 
>  <oscillator_strength_2> 
0.0034 
 
>  <oscillator_strength_3> 
0.0014 
 
>  <oscillator_strength_4> 
0.0071 
 
>  <open_babel_can_smiles> 
OC(=O)C[C@@H](C(=O)O)NC(=N)O 
 
>  <mulliken_charges> 
20 
1   -0.407685 
2   -0.073543 
3   0.582954 
4   0.631621 
5   0.672742 
6   -0.638604 
7   -0.629004 
8   -0.443059 
9   -0.579909 
10   -0.477627 
11   -0.566937 
12   -0.629224 
13   0.177837 
14   0.191374 
15   0.213665 
16   0.291228 
17   0.342607 
18   0.447434 
19   0.451964 
20   0.442167 
 
>  <lowdin_charges> 
20 
1   -0.322271 
2   -0.089947 
3   0.18741 
4   0.196762 
5   0.160727 
6   -0.458764 
7   -0.291141 
8   -0.248291 
9   -0.357388 
10   -0.265103 
11   -0.328078 
12   -0.389816 
13   0.169672 
14   0.180834 
15   0.18382 
16   0.265144 
17   0.293525 
18   0.363709 
19   0.367023 
20   0.382176 
 
$$$$ 
 
