PCCDB-ID:  5528 
public computational chemistry database (PCCDB) project, http://pccdb.org 
 
 26 27  0  0  1  0  0  0  0  0999 V2000 
    1.0125    0.0335   -0.1174 C   0  0  0  0  0  0  0  0  0  0  0  0 
    2.9288    1.1911    2.2510 C   0  0  0  0  0  0  0  0  0  0  0  0 
    4.6099   -1.3768   -0.0921 C   0  0  0  0  0  0  0  0  0  0  0  0 
    3.1760   -1.3042   -0.7019 C   0  0  0  0  0  0  0  0  0  0  0  0 
    4.7044    1.1109   -0.1660 C   0  0  0  0  0  0  0  0  0  0  0  0 
    2.9532   -1.2495    2.2503 C   0  0  0  0  0  0  0  0  0  0  0  0 
    4.6818   -0.1027    0.7836 C   0  0  1  0  0  0  0  0  0  0  0  0 
    3.2598    1.1268   -0.6999 C   0  0  0  0  0  0  0  0  0  0  0  0 
    2.5263   -0.0455   -0.0274 C   0  0  1  0  0  0  0  0  0  0  0  0 
    3.2252   -0.0403    1.3703 C   0  0  2  0  0  0  0  0  0  0  0  0 
    2.1180   -2.1089    2.0703 O   0  0  0  0  0  0  0  0  0  0  0  0 
    2.7985    1.9049   -1.5045 O   0  0  0  0  0  0  0  0  0  0  0  0 
    0.7013    0.0770   -1.1665 H   0  0  0  0  0  0  0  0  0  0  0  0 
    0.6305    0.9396    0.3662 H   0  0  0  0  0  0  0  0  0  0  0  0 
    0.5517   -0.8379    0.3552 H   0  0  0  0  0  0  0  0  0  0  0  0 
    3.5495    1.1854    3.1550 H   0  0  0  0  0  0  0  0  0  0  0  0 
    1.8796    1.1993    2.5659 H   0  0  0  0  0  0  0  0  0  0  0  0 
    3.1183    2.1306    1.7240 H   0  0  0  0  0  0  0  0  0  0  0  0 
    5.3964   -1.3889   -0.8538 H   0  0  0  0  0  0  0  0  0  0  0  0 
    4.7352   -2.2810    0.5139 H   0  0  0  0  0  0  0  0  0  0  0  0 
    2.5862   -2.1880   -0.4493 H   0  0  0  0  0  0  0  0  0  0  0  0 
    3.1819   -1.2090   -1.7928 H   0  0  0  0  0  0  0  0  0  0  0  0 
    5.4237    1.0110   -0.9866 H   0  0  0  0  0  0  0  0  0  0  0  0 
    4.9241    2.0576    0.3399 H   0  0  0  0  0  0  0  0  0  0  0  0 
    3.6053   -1.2860    3.1560 H   0  0  0  0  0  0  0  0  0  0  0  0 
    5.4826   -0.1074    1.5295 H   0  0  0  0  0  0  0  0  0  0  0  0 
  1 15  1  0  0  0  0 
  1 14  1  0  0  0  0 
  2 17  1  0  0  0  0 
  2 16  1  0  0  0  0 
  3 20  1  0  0  0  0 
  3  7  1  0  0  0  0 
  4 21  1  0  0  0  0 
  4  3  1  0  0  0  0 
  4  9  1  0  0  0  0 
  5 24  1  0  0  0  0 
  5  7  1  0  0  0  0 
  6 25  1  0  0  0  0 
  7 10  1  0  0  0  0 
  7 26  1  1  0  0  0 
  8  5  1  0  0  0  0 
  8  9  1  0  0  0  0 
  9  1  1  1  0  0  0 
  9 10  1  0  0  0  0 
 10  6  1  1  0  0  0 
 10  2  1  0  0  0  0 
 11  6  2  0  0  0  0 
 12  8  2  0  0  0  0 
 13  1  1  0  0  0  0 
 18  2  1  0  0  0  0 
 19  3  1  0  0  0  0 
 22  4  1  0  0  0  0 
 23  5  1  0  0  0  0 
M  END 
>  <HBA> 
2 
 
>  <HBD> 
0 
 
>  <TPSA> 
34.14 
 
>  <cid> 
5528 
 
>  <dipole> 
3.03 
 
>  <excitation_energy_1> 
4.11 
 
>  <excitation_energy_2> 
4.224 
 
>  <excitation_energy_3> 
4.851 
 
>  <excitation_energy_4> 
5.774 
 
>  <homo_energy> 
-6.427 
 
>  <homo_lumo_gap> 
5.508 
 
>  <logP> 
1.581 
 
>  <lumo_energy> 
-0.92 
 
>  <melting_point> 
106.43 
 
>  <molecular_refractivity> 
45.84 
 
>  <oscillator_strength_1> 
0.0 
 
>  <oscillator_strength_2> 
0.0004 
 
>  <oscillator_strength_3> 
0.0001 
 
>  <oscillator_strength_4> 
0.0089 
 
>  <open_babel_can_smiles> 
O=C[C@@]1(C)[C@H]2CC[C@]1(C)C(=O)C2 
 
>  <mulliken_charges> 
26 
1   -0.481241 
2   -0.487805 
3   -0.288938 
4   -0.303369 
5   -0.356375 
6   0.251227 
7   -0.130176 
8   0.443918 
9   0.026203 
10   -0.00583 
11   -0.390167 
12   -0.456875 
13   0.160784 
14   0.146448 
15   0.168404 
16   0.153949 
17   0.170899 
18   0.169772 
19   0.14497 
20   0.152404 
21   0.180228 
22   0.153374 
23   0.171798 
24   0.173884 
25   0.104442 
26   0.128072 
 
>  <lowdin_charges> 
26 
1   -0.44361 
2   -0.443709 
3   -0.28828 
4   -0.280657 
5   -0.315599 
6   0.059258 
7   -0.132649 
8   0.152652 
9   -0.021487 
10   -0.036324 
11   -0.214303 
12   -0.225337 
13   0.161627 
14   0.154093 
15   0.164866 
16   0.15656 
17   0.162175 
18   0.164105 
19   0.150466 
20   0.152091 
21   0.168419 
22   0.151017 
23   0.170338 
24   0.170163 
25   0.117522 
26   0.146606 
 
$$$$ 
 
