PCCDB-ID:  1182 
public computational chemistry database (PCCDB) project, http://pccdb.org 
 
 19 18  0  0  1  0  0  0  0  0999 V2000 
    0.9259    0.4049   -0.1205 C   0  0  0  0  0  0  0  0  0  0  0  0 
    2.9788    0.8513    1.3012 C   0  0  0  0  0  0  0  0  0  0  0  0 
    2.4208    0.1212    0.0686 C   0  0  0  0  0  0  0  0  0  0  0  0 
    2.7002   -1.4052    0.1139 C   0  0  1  0  0  0  0  0  0  0  0  0 
    4.2182   -1.6534   -0.0758 C   0  0  0  0  0  0  0  0  0  0  0  0 
    2.0753   -2.0354    1.2709 N   0  0  0  0  0  0  0  0  0  0  0  0 
    4.8413   -1.2084   -1.0092 O   0  0  0  0  0  0  0  0  0  0  0  0 
    4.8180   -2.4137    0.8705 O   0  0  0  0  0  0  0  0  0  0  0  0 
    0.7438    1.4839   -0.1842 H   0  0  0  0  0  0  0  0  0  0  0  0 
    0.3413    0.0062    0.7149 H   0  0  0  0  0  0  0  0  0  0  0  0 
    0.5483   -0.0532   -1.0425 H   0  0  0  0  0  0  0  0  0  0  0  0 
    2.8633    1.9343    1.1841 H   0  0  0  0  0  0  0  0  0  0  0  0 
    4.0466    0.6505    1.4492 H   0  0  0  0  0  0  0  0  0  0  0  0 
    2.4418    0.5730    2.2175 H   0  0  0  0  0  0  0  0  0  0  0  0 
    2.9647    0.4837   -0.8108 H   0  0  0  0  0  0  0  0  0  0  0  0 
    2.2330   -1.8443   -0.7765 H   0  0  0  0  0  0  0  0  0  0  0  0 
    2.3784   -1.6924    2.1755 H   0  0  0  0  0  0  0  0  0  0  0  0 
    2.0243   -3.0471    1.2460 H   0  0  0  0  0  0  0  0  0  0  0  0 
    4.1259   -2.6654    1.5109 H   0  0  0  0  0  0  0  0  0  0  0  0 
  1  3  1  0  0  0  0 
  1 10  1  0  0  0  0 
  2 13  1  0  0  0  0 
  2 14  1  0  0  0  0 
  3  4  1  0  0  0  0 
  3  2  1  0  0  0  0 
  4 16  1  6  0  0  0 
  4  6  1  0  0  0  0 
  5  4  1  0  0  0  0 
  5  8  1  0  0  0  0 
  6 17  1  0  0  0  0 
  7  5  2  0  0  0  0 
  8 19  1  0  0  0  0 
  9  1  1  0  0  0  0 
 11  1  1  0  0  0  0 
 12  2  1  0  0  0  0 
 15  3  1  0  0  0  0 
 18  6  1  0  0  0  0 
M  END 
>  <HBA> 
3 
 
>  <HBD> 
2 
 
>  <TPSA> 
63.32 
 
>  <cid> 
1182 
 
>  <dipole> 
3.98 
 
>  <excitation_energy_1> 
5.27 
 
>  <excitation_energy_2> 
5.426 
 
>  <excitation_energy_3> 
6.545 
 
>  <excitation_energy_4> 
6.685 
 
>  <homo_energy> 
-6.555 
 
>  <homo_lumo_gap> 
6.89 
 
>  <logP> 
0.755 
 
>  <lumo_energy> 
0.335 
 
>  <melting_point> 
105.51 
 
>  <molecular_refractivity> 
30.63 
 
>  <oscillator_strength_1> 
0.0047 
 
>  <oscillator_strength_2> 
0.0072 
 
>  <oscillator_strength_3> 
0.0098 
 
>  <oscillator_strength_4> 
0.0058 
 
>  <open_babel_can_smiles> 
N[C@H](C(=O)O)C(C)C 
 
>  <mulliken_charges> 
19 
1   -0.445591 
2   -0.474412 
3   -0.069386 
4   -0.064669 
5   0.578244 
6   -0.755318 
7   -0.454411 
8   -0.566827 
9   0.142935 
10   0.158595 
11   0.140869 
12   0.15744 
13   0.157871 
14   0.137165 
15   0.165675 
16   0.172644 
17   0.317258 
18   0.319121 
19   0.382798 
 
>  <lowdin_charges> 
19 
1   -0.444273 
2   -0.450251 
3   -0.121098 
4   -0.108629 
5   0.169779 
6   -0.551857 
7   -0.250948 
8   -0.357213 
9   0.148714 
10   0.155888 
11   0.149222 
12   0.157276 
13   0.153174 
14   0.142901 
15   0.161851 
16   0.170249 
17   0.265537 
18   0.267416 
19   0.342261 
 
$$$$ 
 
