PCCDB-ID:  1533 
public computational chemistry database (PCCDB) project, http://pccdb.org 
 
 16 16  0  0  0  0  0  0  0  0999 V2000 
    1.0577    0.0313    0.0358 C   0  0  0  0  0  0  0  0  0  0  0  0 
    3.3146    1.1903   -0.0568 C   0  0  0  0  0  0  0  0  0  0  0  0 
    4.6705    1.1220   -0.1428 C   0  0  0  0  0  0  0  0  0  0  0  0 
    3.2185   -1.2298   -0.1530 C   0  0  0  0  0  0  0  0  0  0  0  0 
    2.5604   -0.0369   -0.0613 C   0  0  0  0  0  0  0  0  0  0  0  0 
    4.6678   -1.3281   -0.2486 C   0  0  0  0  0  0  0  0  0  0  0  0 
    5.4265   -2.3682   -0.3431 N   0  0  0  0  0  0  0  0  0  0  0  0 
    5.3094   -0.0773   -0.2331 N   0  0  0  0  0  0  0  0  0  0  0  0 
    0.6379    0.6112   -0.7961 H   0  0  0  0  0  0  0  0  0  0  0  0 
    0.7484    0.5333    0.9616 H   0  0  0  0  0  0  0  0  0  0  0  0 
    0.6050   -0.9642    0.0206 H   0  0  0  0  0  0  0  0  0  0  0  0 
    2.8176    2.1507    0.0159 H   0  0  0  0  0  0  0  0  0  0  0  0 
    5.3106    1.9980   -0.1447 H   0  0  0  0  0  0  0  0  0  0  0  0 
    2.6644   -2.1647   -0.1572 H   0  0  0  0  0  0  0  0  0  0  0  0 
    4.8547   -3.2140   -0.3447 H   0  0  0  0  0  0  0  0  0  0  0  0 
    6.3186   -0.1251   -0.2984 H   0  0  0  0  0  0  0  0  0  0  0  0 
  1 10  1  0  0  0  0 
  2 12  1  0  0  0  0 
  3  2  2  0  0  0  0 
  4  5  2  0  0  0  0 
  5  2  1  0  0  0  0 
  5  1  1  0  0  0  0 
  6  8  1  0  0  0  0 
  6  4  1  0  0  0  0 
  7  6  2  0  0  0  0 
  8  3  1  0  0  0  0 
  9  1  1  0  0  0  0 
 11  1  1  0  0  0  0 
 13  3  1  0  0  0  0 
 14  4  1  0  0  0  0 
 15  7  1  0  0  0  0 
 16  8  1  0  0  0  0 
M  END 
>  <HBA> 
2 
 
>  <HBD> 
1 
 
>  <TPSA> 
38.91 
 
>  <cid> 
1533 
 
>  <dipole> 
3.01 
 
>  <excitation_energy_1> 
3.784 
 
>  <excitation_energy_2> 
4.499 
 
>  <excitation_energy_3> 
4.976 
 
>  <excitation_energy_4> 
5.104 
 
>  <homo_energy> 
-5.064 
 
>  <homo_lumo_gap> 
4.425 
 
>  <logP> 
1.553 
 
>  <lumo_energy> 
-0.639 
 
>  <melting_point> 
72.81 
 
>  <molecular_refractivity> 
33.61 
 
>  <oscillator_strength_1> 
0.0561 
 
>  <oscillator_strength_2> 
0.0045 
 
>  <oscillator_strength_3> 
0.0002 
 
>  <oscillator_strength_4> 
0.0011 
 
>  <open_babel_can_smiles> 
Cc1cc[nH]c(=N)c1 
 
>  <mulliken_charges> 
16 
1   -0.529423 
2   -0.236088 
3   0.110016 
4   -0.265013 
5   0.208703 
6   0.500341 
7   -0.686881 
8   -0.620172 
9   0.165894 
10   0.165912 
11   0.160985 
12   0.129008 
13   0.160694 
14   0.124286 
15   0.273578 
16   0.338159 
 
>  <lowdin_charges> 
16 
1   -0.440236 
2   -0.239516 
3   -0.071882 
4   -0.224813 
5   0.031359 
6   0.087898 
7   -0.482396 
8   -0.185362 
9   0.164302 
10   0.163661 
11   0.159598 
12   0.163812 
13   0.169234 
14   0.159505 
15   0.249961 
16   0.294875 
 
$$$$ 
 
