PCCDB-ID:  379 
public computational chemistry database (PCCDB) project, http://pccdb.org 
 
 26 25  0  0  0  0  0  0  0  0999 V2000 
    0.3895   -0.4956   -0.8087 C   0  0  0  0  0  0  0  0  0  0  0  0 
    1.9000   -0.4762   -1.0668 C   0  0  0  0  0  0  0  0  0  0  0  0 
    2.4710   -1.8676   -1.3738 C   0  0  0  0  0  0  0  0  0  0  0  0 
    4.0011   -1.9141   -1.5348 C   0  0  0  0  0  0  0  0  0  0  0  0 
    4.5871   -1.0955   -2.6988 C   0  0  0  0  0  0  0  0  0  0  0  0 
    4.1437   -1.5696   -4.0898 C   0  0  0  0  0  0  0  0  0  0  0  0 
    4.7720   -0.7598   -5.2427 C   0  0  0  0  0  0  0  0  0  0  0  0 
    6.2949   -0.8128   -5.2849 C   0  0  0  0  0  0  0  0  0  0  0  0 
    7.0171    0.1492   -5.2226 O   0  0  0  0  0  0  0  0  0  0  0  0 
    6.8369   -2.0603   -5.4041 O   0  0  0  0  0  0  0  0  0  0  0  0 
    0.0063    0.5090   -0.5975 H   0  0  0  0  0  0  0  0  0  0  0  0 
    0.1423   -1.1341    0.0483 H   0  0  0  0  0  0  0  0  0  0  0  0 
   -0.1563   -0.8843   -1.6775 H   0  0  0  0  0  0  0  0  0  0  0  0 
    2.4167   -0.0612   -0.1895 H   0  0  0  0  0  0  0  0  0  0  0  0 
    2.1142    0.2099   -1.8972 H   0  0  0  0  0  0  0  0  0  0  0  0 
    1.9828   -2.2701   -2.2732 H   0  0  0  0  0  0  0  0  0  0  0  0 
    2.1925   -2.5492   -0.5576 H   0  0  0  0  0  0  0  0  0  0  0  0 
    4.3127   -2.9624   -1.6495 H   0  0  0  0  0  0  0  0  0  0  0  0 
    4.4625   -1.5640   -0.6011 H   0  0  0  0  0  0  0  0  0  0  0  0 
    5.6825   -1.1437   -2.6367 H   0  0  0  0  0  0  0  0  0  0  0  0 
    4.3288   -0.0343   -2.5846 H   0  0  0  0  0  0  0  0  0  0  0  0 
    3.0538   -1.4986   -4.1868 H   0  0  0  0  0  0  0  0  0  0  0  0 
    4.3791   -2.6402   -4.2007 H   0  0  0  0  0  0  0  0  0  0  0  0 
    4.4981    0.2953   -5.1616 H   0  0  0  0  0  0  0  0  0  0  0  0 
    4.3858   -1.1254   -6.2050 H   0  0  0  0  0  0  0  0  0  0  0  0 
    6.1309   -2.7260   -5.4489 H   0  0  0  0  0  0  0  0  0  0  0  0 
  1 11  1  0  0  0  0 
  1 12  1  0  0  0  0 
  2  1  1  0  0  0  0 
  2 14  1  0  0  0  0 
  3  2  1  0  0  0  0 
  3 17  1  0  0  0  0 
  4  3  1  0  0  0  0 
  4 19  1  0  0  0  0 
  5 20  1  0  0  0  0 
  5 21  1  0  0  0  0 
  5  4  1  0  0  0  0 
  6  5  1  0  0  0  0 
  7 24  1  0  0  0  0 
  7  6  1  0  0  0  0 
  8  7  1  0  0  0  0 
  8  9  2  0  0  0  0 
 10  8  1  0  0  0  0 
 13  1  1  0  0  0  0 
 15  2  1  0  0  0  0 
 16  3  1  0  0  0  0 
 18  4  1  0  0  0  0 
 22  6  1  0  0  0  0 
 23  6  1  0  0  0  0 
 25  7  1  0  0  0  0 
 26 10  1  0  0  0  0 
M  END 
>  <HBA> 
2 
 
>  <HBD> 
1 
 
>  <TPSA> 
37.3 
 
>  <cid> 
379 
 
>  <dipole> 
4.4 
 
>  <excitation_energy_1> 
5.584 
 
>  <excitation_energy_2> 
6.427 
 
>  <excitation_energy_3> 
7.233 
 
>  <excitation_energy_4> 
7.291 
 
>  <homo_energy> 
-7.214 
 
>  <homo_lumo_gap> 
7.502 
 
>  <logP> 
2.432 
 
>  <lumo_energy> 
0.288 
 
>  <melting_point> 
49.27 
 
>  <molecular_refractivity> 
42.34 
 
>  <oscillator_strength_1> 
0.002 
 
>  <oscillator_strength_2> 
0.0116 
 
>  <oscillator_strength_3> 
0.0004 
 
>  <oscillator_strength_4> 
0.0007 
 
>  <open_babel_can_smiles> 
CCCCCCCC(=O)O 
 
>  <mulliken_charges> 
26 
1   -0.442011 
2   -0.249176 
3   -0.251438 
4   -0.261768 
5   -0.261675 
6   -0.277861 
7   -0.380041 
8   0.591292 
9   -0.437077 
10   -0.566198 
11   0.144249 
12   0.143149 
13   0.140252 
14   0.133531 
15   0.133133 
16   0.127067 
17   0.131553 
18   0.127451 
19   0.136156 
20   0.152399 
21   0.14585 
22   0.154257 
23   0.118786 
24   0.179072 
25   0.160547 
26   0.408503 
 
>  <lowdin_charges> 
26 
1   -0.444844 
2   -0.276205 
3   -0.280278 
4   -0.275164 
5   -0.278132 
6   -0.273136 
7   -0.317129 
8   0.195444 
9   -0.237897 
10   -0.366695 
11   0.150012 
12   0.147605 
13   0.14652 
14   0.141254 
15   0.139595 
16   0.136381 
17   0.143637 
18   0.138964 
19   0.14545 
20   0.149905 
21   0.145206 
22   0.15015 
23   0.129362 
24   0.171415 
25   0.162184 
26   0.356394 
 
$$$$ 
 
