PCCDB-ID:  2155 
public computational chemistry database (PCCDB) project, http://pccdb.org 
 
 10 10  0  0  0  0  0  0  0  0999 V2000 
   -1.1541   -0.0426   -0.0777 C   0  0  0  0  0  0  0  0  0  0  0  0 
   -0.5043   -1.2149   -0.0004 C   0  0  0  0  0  0  0  0  0  0  0  0 
    1.0572    0.8079   -0.0281 C   0  0  0  0  0  0  0  0  0  0  0  0 
    2.0602    1.5955   -0.0225 N   0  0  0  0  0  0  0  0  0  0  0  0 
   -0.3113    1.0653   -0.0940 N   0  0  0  0  0  0  0  0  0  0  0  0 
    1.2467   -0.9792    0.0582 S   0  0  0  0  0  0  0  0  0  0  0  0 
   -2.2240    0.1130   -0.1265 H   0  0  0  0  0  0  0  0  0  0  0  0 
   -0.9364   -2.2040    0.0267 H   0  0  0  0  0  0  0  0  0  0  0  0 
    1.7745    2.5761   -0.0772 H   0  0  0  0  0  0  0  0  0  0  0  0 
   -0.6522    2.0144   -0.1475 H   0  0  0  0  0  0  0  0  0  0  0  0 
  1  2  2  0  0  0  0 
  2  8  1  0  0  0  0 
  2  6  1  0  0  0  0 
  3  4  2  0  0  0  0 
  3  6  1  0  0  0  0 
  5  1  1  0  0  0  0 
  5  3  1  0  0  0  0 
  7  1  1  0  0  0  0 
  9  4  1  0  0  0  0 
 10  5  1  0  0  0  0 
M  END 
>  <HBA> 
3 
 
>  <HBD> 
1 
 
>  <TPSA> 
67.15 
 
>  <cid> 
2155 
 
>  <dipole> 
4.51 
 
>  <excitation_energy_1> 
4.27 
 
>  <excitation_energy_2> 
4.561 
 
>  <excitation_energy_3> 
4.97 
 
>  <excitation_energy_4> 
5.079 
 
>  <homo_energy> 
-5.298 
 
>  <homo_lumo_gap> 
5.638 
 
>  <logP> 
1.306 
 
>  <lumo_energy> 
0.34 
 
>  <melting_point> 
67.21 
 
>  <molecular_refractivity> 
26.52 
 
>  <oscillator_strength_1> 
0.0007 
 
>  <oscillator_strength_2> 
0.0002 
 
>  <oscillator_strength_3> 
0.1024 
 
>  <oscillator_strength_4> 
0.0014 
 
>  <open_babel_can_smiles> 
N=c1scc[nH]1 
 
>  <mulliken_charges> 
10 
1   0.110548 
2   -0.377238 
3   0.301358 
4   -0.62921 
5   -0.591379 
6   0.234349 
7   0.167157 
8   0.178628 
9   0.273482 
10   0.332306 
 
>  <lowdin_charges> 
10 
1   -0.116579 
2   -0.340257 
3   -0.012373 
4   -0.44419 
5   -0.245797 
6   0.253807 
7   0.173122 
8   0.188532 
9   0.252171 
10   0.291563 
 
$$$$ 
 
