PCCDB-ID:  1102 
public computational chemistry database (PCCDB) project, http://pccdb.org 
 
 29 28  0  0  0  0  0  0  0  0999 V2000 
    1.5261    2.5530   -3.7927 C   0  0  0  0  0  0  0  0  0  0  0  0 
    0.3550    2.7917   -2.8247 C   0  0  0  0  0  0  0  0  0  0  0  0 
   -2.2367    1.4718    1.1727 C   0  0  0  0  0  0  0  0  0  0  0  0 
    1.3526    1.3505   -4.7380 C   0  0  0  0  0  0  0  0  0  0  0  0 
   -1.9576    2.7500    1.9668 C   0  0  0  0  0  0  0  0  0  0  0  0 
    0.1899    1.7156   -1.7474 C   0  0  0  0  0  0  0  0  0  0  0  0 
   -1.1027    1.0680    0.2260 C   0  0  0  0  0  0  0  0  0  0  0  0 
    2.4236    1.1494   -5.7200 N   0  0  0  0  0  0  0  0  0  0  0  0 
   -3.0749    3.0350    2.8804 N   0  0  0  0  0  0  0  0  0  0  0  0 
   -0.8704    2.0766   -0.8080 N   0  0  0  0  0  0  0  0  0  0  0  0 
    2.4578    2.4290   -3.2196 H   0  0  0  0  0  0  0  0  0  0  0  0 
    1.6644    3.4550   -4.4065 H   0  0  0  0  0  0  0  0  0  0  0  0 
   -0.5790    2.8723   -3.4027 H   0  0  0  0  0  0  0  0  0  0  0  0 
    0.4861    3.7554   -2.3176 H   0  0  0  0  0  0  0  0  0  0  0  0 
   -3.1642    1.5993    0.5908 H   0  0  0  0  0  0  0  0  0  0  0  0 
   -2.4307    0.6540    1.8771 H   0  0  0  0  0  0  0  0  0  0  0  0 
    0.4100    1.4593   -5.2921 H   0  0  0  0  0  0  0  0  0  0  0  0 
    1.2615    0.4226   -4.1606 H   0  0  0  0  0  0  0  0  0  0  0  0 
   -1.7229    3.5668    1.2660 H   0  0  0  0  0  0  0  0  0  0  0  0 
   -1.0604    2.5970    2.5813 H   0  0  0  0  0  0  0  0  0  0  0  0 
    1.1255    1.6289   -1.1767 H   0  0  0  0  0  0  0  0  0  0  0  0 
    0.0198    0.7253   -2.2132 H   0  0  0  0  0  0  0  0  0  0  0  0 
   -1.3209    0.0683   -0.1993 H   0  0  0  0  0  0  0  0  0  0  0  0 
   -0.1707    0.9590    0.7987 H   0  0  0  0  0  0  0  0  0  0  0  0 
    2.5376    1.9970   -6.2761 H   0  0  0  0  0  0  0  0  0  0  0  0 
    3.3106    1.0185   -5.2338 H   0  0  0  0  0  0  0  0  0  0  0  0 
   -3.8984    3.2885    2.3342 H   0  0  0  0  0  0  0  0  0  0  0  0 
   -2.8545    3.8582    3.4396 H   0  0  0  0  0  0  0  0  0  0  0  0 
   -1.7374    2.2096   -1.3303 H   0  0  0  0  0  0  0  0  0  0  0  0 
  1 11  1  0  0  0  0 
  1  2  1  0  0  0  0 
  2 14  1  0  0  0  0 
  2  6  1  0  0  0  0 
  3 16  1  0  0  0  0 
  3  5  1  0  0  0  0 
  4 18  1  0  0  0  0 
  4  1  1  0  0  0  0 
  5 20  1  0  0  0  0 
  5  9  1  0  0  0  0 
  6 21  1  0  0  0  0 
  6 10  1  0  0  0  0 
  7 24  1  0  0  0  0 
  7  3  1  0  0  0  0 
  8 26  1  0  0  0  0 
  8  4  1  0  0  0  0 
  9 28  1  0  0  0  0 
 10  7  1  0  0  0  0 
 12  1  1  0  0  0  0 
 13  2  1  0  0  0  0 
 15  3  1  0  0  0  0 
 17  4  1  0  0  0  0 
 19  5  1  0  0  0  0 
 22  6  1  0  0  0  0 
 23  7  1  0  0  0  0 
 25  8  1  0  0  0  0 
 27  9  1  0  0  0  0 
 29 10  1  0  0  0  0 
M  END 
>  <HBA> 
3 
 
>  <HBD> 
3 
 
>  <TPSA> 
64.07 
 
>  <cid> 
1102 
 
>  <dipole> 
1.76 
 
>  <excitation_energy_1> 
5.315 
 
>  <excitation_energy_2> 
5.503 
 
>  <excitation_energy_3> 
5.562 
 
>  <excitation_energy_4> 
5.603 
 
>  <homo_energy> 
-5.796 
 
>  <homo_lumo_gap> 
7.973 
 
>  <logP> 
1.455 
 
>  <lumo_energy> 
2.177 
 
>  <melting_point> 
108.45 
 
>  <molecular_refractivity> 
43.98 
 
>  <oscillator_strength_1> 
0.0032 
 
>  <oscillator_strength_2> 
0.0185 
 
>  <oscillator_strength_3> 
0.0266 
 
>  <oscillator_strength_4> 
0.007 
 
>  <open_babel_can_smiles> 
NCCCNCCCCN 
 
>  <mulliken_charges> 
29 
1   -0.266694 
2   -0.2699 
3   -0.263487 
4   -0.142698 
5   -0.13017 
6   -0.108361 
7   -0.117358 
8   -0.704645 
9   -0.718909 
10   -0.556083 
11   0.123525 
12   0.124052 
13   0.123129 
14   0.147198 
15   0.116505 
16   0.14933 
17   0.138075 
18   0.145556 
19   0.135198 
20   0.132985 
21   0.135258 
22   0.113504 
23   0.110321 
24   0.136115 
25   0.290003 
26   0.290802 
27   0.287806 
28   0.293197 
29   0.285744 
 
>  <lowdin_charges> 
29 
1   -0.295133 
2   -0.280422 
3   -0.283214 
4   -0.212313 
5   -0.209416 
6   -0.202448 
7   -0.199772 
8   -0.551595 
9   -0.561936 
10   -0.365237 
11   0.135738 
12   0.1391 
13   0.13561 
14   0.151003 
15   0.132336 
16   0.154137 
17   0.140251 
18   0.142866 
19   0.129358 
20   0.139622 
21   0.139106 
22   0.115709 
23   0.11678 
24   0.139594 
25   0.249955 
26   0.250784 
27   0.249271 
28   0.252983 
29   0.247284 
 
$$$$ 
 
