PCCDB-ID:  557 
public computational chemistry database (PCCDB) project, http://pccdb.org 
 
 20 20  0  0  1  0  0  0  0  0999 V2000 
    1.0385   -0.1820   -0.0347 C   0  0  0  0  0  0  0  0  0  0  0  0 
    3.0680   -1.6467   -1.8364 C   0  0  0  0  0  0  0  0  0  0  0  0 
    2.6113   -0.3958   -2.6390 C   0  0  0  0  0  0  0  0  0  0  0  0 
    3.2502   -1.1269   -0.3750 C   0  0  0  0  0  0  0  0  0  0  0  0 
    2.7239    0.7315   -1.5948 C   0  0  1  0  0  0  0  0  0  0  0  0 
    1.9151    2.0004   -1.8253 C   0  0  0  0  0  0  0  0  0  0  0  0 
    2.4641    0.1209   -0.2685 N   0  0  0  0  0  0  0  0  0  0  0  0 
    1.4297    2.3287   -2.8784 O   0  0  0  0  0  0  0  0  0  0  0  0 
    1.8324    2.7853   -0.7211 O   0  0  0  0  0  0  0  0  0  0  0  0 
    0.9448   -0.6474    0.9511 H   0  0  0  0  0  0  0  0  0  0  0  0 
    0.5907   -0.8598   -0.7785 H   0  0  0  0  0  0  0  0  0  0  0  0 
    0.4568    0.7434   -0.0241 H   0  0  0  0  0  0  0  0  0  0  0  0 
    4.0015   -2.0686   -2.2212 H   0  0  0  0  0  0  0  0  0  0  0  0 
    2.3164   -2.4407   -1.8844 H   0  0  0  0  0  0  0  0  0  0  0  0 
    1.5811   -0.4879   -2.9945 H   0  0  0  0  0  0  0  0  0  0  0  0 
    3.2333   -0.1958   -3.5150 H   0  0  0  0  0  0  0  0  0  0  0  0 
    4.3030   -0.8833   -0.1877 H   0  0  0  0  0  0  0  0  0  0  0  0 
    2.9330   -1.8421    0.3888 H   0  0  0  0  0  0  0  0  0  0  0  0 
    3.7749    1.0623   -1.5630 H   0  0  0  0  0  0  0  0  0  0  0  0 
    2.2507    2.2923    0.0147 H   0  0  0  0  0  0  0  0  0  0  0  0 
  1 12  1  0  0  0  0 
  1 10  1  0  0  0  0 
  2  4  1  0  0  0  0 
  3  2  1  0  0  0  0 
  3  5  1  0  0  0  0 
  4  7  1  0  0  0  0 
  4 17  1  0  0  0  0 
  4 18  1  0  0  0  0 
  5 19  1  1  0  0  0 
  5  7  1  0  0  0  0 
  6  5  1  0  0  0  0 
  6  9  1  0  0  0  0 
  7  1  1  0  0  0  0 
  8  6  2  0  0  0  0 
  9 20  1  0  0  0  0 
 11  1  1  0  0  0  0 
 13  2  1  0  0  0  0 
 14  2  1  0  0  0  0 
 15  3  1  0  0  0  0 
 16  3  1  0  0  0  0 
M  END 
>  <HBA> 
3 
 
>  <HBD> 
1 
 
>  <TPSA> 
40.54 
 
>  <cid> 
557 
 
>  <dipole> 
4.42 
 
>  <excitation_energy_1> 
5.448 
 
>  <excitation_energy_2> 
5.586 
 
>  <excitation_energy_3> 
5.941 
 
>  <excitation_energy_4> 
6.255 
 
>  <homo_energy> 
-6.645 
 
>  <homo_lumo_gap> 
6.841 
 
>  <logP> 
0.103 
 
>  <lumo_energy> 
0.196 
 
>  <melting_point> 
75.81 
 
>  <molecular_refractivity> 
37.42 
 
>  <oscillator_strength_1> 
0.0078 
 
>  <oscillator_strength_2> 
0.0001 
 
>  <oscillator_strength_3> 
0.0084 
 
>  <oscillator_strength_4> 
0.0045 
 
>  <open_babel_can_smiles> 
CN1CCC[C@H]1C(=O)O 
 
>  <mulliken_charges> 
20 
1   -0.329976 
2   -0.300854 
3   -0.27448 
4   -0.1405 
5   -0.089718 
6   0.591404 
7   -0.42126 
8   -0.445952 
9   -0.577735 
10   0.161339 
11   0.143841 
12   0.170617 
13   0.147933 
14   0.150574 
15   0.164674 
16   0.157821 
17   0.150283 
18   0.148287 
19   0.170527 
20   0.423176 
 
>  <lowdin_charges> 
20 
1   -0.373037 
2   -0.302052 
3   -0.289646 
4   -0.208516 
5   -0.110805 
6   0.184836 
7   -0.204745 
8   -0.235498 
9   -0.358716 
10   0.156925 
11   0.137771 
12   0.159816 
13   0.153246 
14   0.151403 
15   0.15754 
16   0.160728 
17   0.145467 
18   0.152555 
19   0.160832 
20   0.361897 
 
$$$$ 
 
