PCCDB-ID:  109 
public computational chemistry database (PCCDB) project, http://pccdb.org 
 
 16 15  0  0  1  0  0  0  0  0999 V2000 
    0.3404    0.3846   -0.3080 C   0  0  0  0  0  0  0  0  0  0  0  0 
    0.4888    1.3569    0.8891 C   0  0  1  0  0  0  0  0  0  0  0  0 
   -0.0216    2.7618    0.4752 C   0  0  0  0  0  0  0  0  0  0  0  0 
   -0.2166    0.8143    2.0425 N   0  0  0  0  0  0  0  0  0  0  0  0 
   -1.0207    3.2407    0.9629 O   0  0  0  0  0  0  0  0  0  0  0  0 
    0.6710    3.3885   -0.4834 O   0  0  0  0  0  0  0  0  0  0  0  0 
    1.0920    0.2188   -2.8661 O   0  0  0  0  0  0  0  0  0  0  0  0 
    2.5515    1.6157   -1.2398 O   0  0  0  0  0  0  0  0  0  0  0  0 
    1.8549    0.2839   -1.3852 S   0  0  3  0  0  0  0  0  0  0  0  0 
   -0.5086    0.6354   -0.9529 H   0  0  0  0  0  0  0  0  0  0  0  0 
    0.1909   -0.6279    0.0783 H   0  0  0  0  0  0  0  0  0  0  0  0 
    1.5525    1.4386    1.1435 H   0  0  0  0  0  0  0  0  0  0  0  0 
   -1.1974    1.0869    1.9602 H   0  0  0  0  0  0  0  0  0  0  0  0 
    0.1095    1.2963    2.8793 H   0  0  0  0  0  0  0  0  0  0  0  0 
    1.4711    2.8597   -0.7455 H   0  0  0  0  0  0  0  0  0  0  0  0 
    0.6412    1.0719   -3.0378 H   0  0  0  0  0  0  0  0  0  0  0  0 
  1 11  1  0  0  0  0 
  1  2  1  0  0  0  0 
  2 12  1  1  0  0  0 
  2  4  1  0  0  0  0 
  3  2  1  0  0  0  0 
  3  5  2  0  0  0  0 
  4 14  1  0  0  0  0 
  6  3  1  0  0  0  0 
  7  9  1  0  0  0  0 
  9  8  1  0  0  0  0 
  9  1  1  0  0  0  0 
 10  1  1  0  0  0  0 
 13  4  1  0  0  0  0 
 15  6  1  0  0  0  0 
 16  7  1  0  0  0  0 
M  RAD  1   8   2 
M  END 
>  <HBA> 
5 
 
>  <HBD> 
3 
 
>  <TPSA> 
119.83 
 
>  <cid> 
109 
 
>  <dipole> 
2.64 
 
>  <excitation_energy_1> 
5.277 
 
>  <excitation_energy_2> 
5.606 
 
>  <excitation_energy_3> 
5.64 
 
>  <excitation_energy_4> 
6.038 
 
>  <homo_energy> 
-7.08 
 
>  <homo_lumo_gap> 
6.253 
 
>  <logP> 
0.186 
 
>  <lumo_energy> 
-0.827 
 
>  <melting_point> 
177.49 
 
>  <molecular_refractivity> 
30.86 
 
>  <oscillator_strength_1> 
0.0026 
 
>  <oscillator_strength_2> 
0.0156 
 
>  <oscillator_strength_3> 
0.0036 
 
>  <oscillator_strength_4> 
0.0065 
 
>  <open_babel_can_smiles> 
O[S](C[C@@H](C(=O)O)N)[O] 
 
>  <mulliken_charges> 
16 
1   -0.513507 
2   -0.111239 
3   0.571041 
4   -0.698143 
5   -0.453212 
6   -0.594943 
7   -0.648035 
8   -0.616781 
9   0.948423 
10   0.201585 
11   0.226293 
12   0.182102 
13   0.318518 
14   0.314616 
15   0.452032 
16   0.421249 
 
>  <lowdin_charges> 
16 
1   -0.438771 
2   -0.115002 
3   0.166454 
4   -0.531791 
5   -0.257718 
6   -0.36487 
7   -0.585187 
8   -0.634511 
9   0.966774 
10   0.179385 
11   0.196317 
12   0.165841 
13   0.26582 
14   0.267636 
15   0.359543 
16   0.360079 
 
$$$$ 
 
