PCCDB-ID:  914 
public computational chemistry database (PCCDB) project, http://pccdb.org 
 
 30 31  0  0  1  0  0  0  0  0999 V2000 
    4.5704   -0.9042    1.4126 C   0  0  0  0  0  0  0  0  0  0  0  0 
   -1.7211    1.6518   -0.4755 C   0  0  0  0  0  0  0  0  0  0  0  0 
   -3.0315    1.1970   -0.2221 C   0  0  0  0  0  0  0  0  0  0  0  0 
   -0.6523    0.7659   -0.5286 C   0  0  0  0  0  0  0  0  0  0  0  0 
   -3.2987   -0.1520   -0.0184 C   0  0  0  0  0  0  0  0  0  0  0  0 
    1.4397   -1.8270   -0.5265 C   0  0  0  0  0  0  0  0  0  0  0  0 
   -0.8735   -2.8456   -0.0750 C   0  0  0  0  0  0  0  0  0  0  0  0 
   -0.0463   -1.7782   -0.3227 C   0  0  0  0  0  0  0  0  0  0  0  0 
   -0.8886   -0.6052   -0.3262 C   0  0  0  0  0  0  0  0  0  0  0  0 
   -2.2193   -1.0397   -0.0735 C   0  0  0  0  0  0  0  0  0  0  0  0 
    2.2713   -1.4117    0.7118 C   0  0  1  0  0  0  0  0  0  0  0  0 
    1.9576   -2.3715    1.8643 C   0  0  0  0  0  0  0  0  0  0  0  0 
    3.6897   -1.4250    0.3676 N   0  0  0  0  0  0  0  0  0  0  0  0 
   -2.1766   -2.4107    0.0803 N   0  0  0  0  0  0  0  0  0  0  0  0 
    2.2653   -3.5464    1.8705 O   0  0  0  0  0  0  0  0  0  0  0  0 
    1.3166   -1.7795    2.8962 O   0  0  0  0  0  0  0  0  0  0  0  0 
    5.6066   -0.9613    1.0643 H   0  0  0  0  0  0  0  0  0  0  0  0 
    4.5059   -1.4340    2.3795 H   0  0  0  0  0  0  0  0  0  0  0  0 
    4.3345    0.1510    1.5908 H   0  0  0  0  0  0  0  0  0  0  0  0 
   -1.5480    2.7131   -0.6309 H   0  0  0  0  0  0  0  0  0  0  0  0 
   -3.8478    1.9133   -0.1858 H   0  0  0  0  0  0  0  0  0  0  0  0 
    0.3528    1.1292   -0.7282 H   0  0  0  0  0  0  0  0  0  0  0  0 
   -4.3096   -0.5024    0.1742 H   0  0  0  0  0  0  0  0  0  0  0  0 
    1.7471   -1.1670   -1.3458 H   0  0  0  0  0  0  0  0  0  0  0  0 
    1.7434   -2.8441   -0.8042 H   0  0  0  0  0  0  0  0  0  0  0  0 
   -0.6304   -3.8968    0.0045 H   0  0  0  0  0  0  0  0  0  0  0  0 
    1.9972   -0.3975    1.0189 H   0  0  0  0  0  0  0  0  0  0  0  0 
    3.9515   -2.3882    0.1585 H   0  0  0  0  0  0  0  0  0  0  0  0 
   -2.9733   -3.0064    0.2411 H   0  0  0  0  0  0  0  0  0  0  0  0 
    1.1608   -2.4792    3.5602 H   0  0  0  0  0  0  0  0  0  0  0  0 
  1 19  1  0  0  0  0 
  1 18  1  0  0  0  0 
  2  3  1  0  0  0  0 
  3 21  1  0  0  0  0 
  3  5  2  0  0  0  0 
  4  2  2  0  0  0  0 
  4  9  1  0  0  0  0 
  5 23  1  0  0  0  0 
  6  8  1  0  0  0  0 
  6 11  1  0  0  0  0 
  7 26  1  0  0  0  0 
  7 14  1  0  0  0  0 
  8  7  2  0  0  0  0 
  9  8  1  0  0  0  0 
  9 10  2  0  0  0  0 
 10  5  1  0  0  0  0 
 10 14  1  0  0  0  0 
 11 27  1  1  0  0  0 
 11 12  1  0  0  0  0 
 12 15  2  0  0  0  0 
 12 16  1  0  0  0  0 
 13 11  1  0  0  0  0 
 13  1  1  0  0  0  0 
 14 29  1  0  0  0  0 
 16 30  1  0  0  0  0 
 17  1  1  0  0  0  0 
 20  2  1  0  0  0  0 
 22  4  1  0  0  0  0 
 24  6  1  0  0  0  0 
 25  6  1  0  0  0  0 
 28 13  1  0  0  0  0 
M  END 
>  <HBA> 
3 
 
>  <HBD> 
3 
 
>  <TPSA> 
65.12 
 
>  <cid> 
914 
 
>  <dipole> 
2.2 
 
>  <excitation_energy_1> 
4.59 
 
>  <excitation_energy_2> 
4.655 
 
>  <excitation_energy_3> 
4.761 
 
>  <excitation_energy_4> 
4.835 
 
>  <homo_energy> 
-5.393 
 
>  <homo_lumo_gap> 
5.241 
 
>  <logP> 
1.774 
 
>  <lumo_energy> 
-0.152 
 
>  <melting_point> 
202.11 
 
>  <molecular_refractivity> 
62.26 
 
>  <oscillator_strength_1> 
0.062 
 
>  <oscillator_strength_2> 
0.0027 
 
>  <oscillator_strength_3> 
0.0019 
 
>  <oscillator_strength_4> 
0.0287 
 
>  <open_babel_can_smiles> 
CN[C@H](C(=O)O)Cc1c[nH]c2c1cccc2 
 
>  <mulliken_charges> 
30 
1   -0.309685 
2   -0.139958 
3   -0.150926 
4   -0.210827 
5   -0.162731 
6   -0.359854 
7   -0.002239 
8   0.064251 
9   0.081937 
10   0.314057 
11   -0.032361 
12   0.575133 
13   -0.531736 
14   -0.691435 
15   -0.484814 
16   -0.558181 
17   0.154494 
18   0.132713 
19   0.155127 
20   0.120415 
21   0.122362 
22   0.126404 
23   0.120073 
24   0.16409 
25   0.151709 
26   0.157096 
27   0.159619 
28   0.305961 
29   0.326479 
30   0.402824 
 
>  <lowdin_charges> 
30 
1   -0.359709 
2   -0.173512 
3   -0.165118 
4   -0.163282 
5   -0.187107 
6   -0.266455 
7   -0.131514 
8   -0.067328 
9   -0.03414 
10   0.033797 
11   -0.088146 
12   0.179561 
13   -0.344135 
14   -0.20365 
15   -0.283108 
16   -0.347258 
17   0.153257 
18   0.126672 
19   0.149328 
20   0.153001 
21   0.156364 
22   0.155529 
23   0.154123 
24   0.163883 
25   0.156308 
26   0.166658 
27   0.158035 
28   0.257923 
29   0.291929 
30   0.358095 
 
$$$$ 
 
