PCCDB-ID:  1727 
public computational chemistry database (PCCDB) project, http://pccdb.org 
 
 13 13  0  0  0  0  0  0  0  0999 V2000 
   -0.8071    1.1363   -0.0013 C   0  0  0  0  0  0  0  0  0  0  0  0 
    1.3843    0.0386   -0.0076 C   0  0  0  0  0  0  0  0  0  0  0  0 
   -1.3838   -0.0869    0.0692 C   0  0  0  0  0  0  0  0  0  0  0  0 
    0.7532   -1.1545    0.0632 C   0  0  0  0  0  0  0  0  0  0  0  0 
    0.6499    1.3053   -0.0454 C   0  0  0  0  0  0  0  0  0  0  0  0 
    1.3032    2.4223   -0.1109 N   0  0  0  0  0  0  0  0  0  0  0  0 
   -0.6259   -1.2351    0.1020 N   0  0  0  0  0  0  0  0  0  0  0  0 
   -1.4417    2.0176   -0.0249 H   0  0  0  0  0  0  0  0  0  0  0  0 
    2.4671    0.0834   -0.0369 H   0  0  0  0  0  0  0  0  0  0  0  0 
   -2.4584   -0.2325    0.1033 H   0  0  0  0  0  0  0  0  0  0  0  0 
    1.2779   -2.1032    0.0919 H   0  0  0  0  0  0  0  0  0  0  0  0 
    0.6439    3.2084   -0.1287 H   0  0  0  0  0  0  0  0  0  0  0  0 
   -1.0766   -2.1348    0.1550 H   0  0  0  0  0  0  0  0  0  0  0  0 
  1  3  2  0  0  0  0 
  2  4  2  0  0  0  0 
  3  7  1  0  0  0  0 
  3 10  1  0  0  0  0 
  4 11  1  0  0  0  0 
  4  7  1  0  0  0  0 
  5  2  1  0  0  0  0 
  5  1  1  0  0  0  0 
  6  5  2  0  0  0  0 
  7 13  1  0  0  0  0 
  8  1  1  0  0  0  0 
  9  2  1  0  0  0  0 
 12  6  1  0  0  0  0 
M  END 
>  <HBA> 
2 
 
>  <HBD> 
1 
 
>  <TPSA> 
38.91 
 
>  <cid> 
1727 
 
>  <dipole> 
5.55 
 
>  <excitation_energy_1> 
4.171 
 
>  <excitation_energy_2> 
4.212 
 
>  <excitation_energy_3> 
5.082 
 
>  <excitation_energy_4> 
5.105 
 
>  <homo_energy> 
-5.167 
 
>  <homo_lumo_gap> 
5.121 
 
>  <logP> 
1.245 
 
>  <lumo_energy> 
-0.046 
 
>  <melting_point> 
67.98 
 
>  <molecular_refractivity> 
28.64 
 
>  <oscillator_strength_1> 
0.0004 
 
>  <oscillator_strength_2> 
0.0171 
 
>  <oscillator_strength_3> 
0.0039 
 
>  <oscillator_strength_4> 
0.2775 
 
>  <open_babel_can_smiles> 
N=c1cc[nH]cc1 
 
>  <mulliken_charges> 
13 
1   -0.207127 
2   -0.165547 
3   0.078823 
4   0.06889 
5   0.307953 
6   -0.67178 
7   -0.600177 
8   0.131135 
9   0.146032 
10   0.157818 
11   0.157533 
12   0.258936 
13   0.337512 
 
>  <lowdin_charges> 
13 
1   -0.22362 
2   -0.187404 
3   -0.091675 
4   -0.100303 
5   0.046953 
6   -0.441852 
7   -0.202364 
8   0.164099 
9   0.173534 
10   0.164445 
11   0.166876 
12   0.236612 
13   0.294701 
 
$$$$ 
 
