PCCDB-ID:  949 
public computational chemistry database (PCCDB) project, http://pccdb.org 
 
 20 20  0  0  0  0  0  0  0  0999 V2000 
    2.1956    1.8296   -0.5396 C   0  0  0  0  0  0  0  0  0  0  0  0 
    1.3956   -0.4963   -0.1638 C   0  0  0  0  0  0  0  0  0  0  0  0 
    4.8096    0.2575    3.5537 C   0  0  0  0  0  0  0  0  0  0  0  0 
    4.0080   -0.8125    3.1551 C   0  0  0  0  0  0  0  0  0  0  0  0 
    4.7808    1.4273    2.7940 C   0  0  0  0  0  0  0  0  0  0  0  0 
    3.1975   -0.7250    2.0258 C   0  0  0  0  0  0  0  0  0  0  0  0 
    3.9765    1.5323    1.6618 C   0  0  0  0  0  0  0  0  0  0  0  0 
    3.1701    0.4504    1.2408 C   0  0  0  0  0  0  0  0  0  0  0  0 
    2.3852    0.5355    0.0922 N   0  0  0  0  0  0  0  0  0  0  0  0 
    1.5627    1.7066   -1.4211 H   0  0  0  0  0  0  0  0  0  0  0  0 
    3.1520    2.2456   -0.8779 H   0  0  0  0  0  0  0  0  0  0  0  0 
    1.7205    2.5693    0.1259 H   0  0  0  0  0  0  0  0  0  0  0  0 
    0.8815   -0.2731   -1.1011 H   0  0  0  0  0  0  0  0  0  0  0  0 
    0.6391   -0.5760    0.6344 H   0  0  0  0  0  0  0  0  0  0  0  0 
    1.8717   -1.4776   -0.2763 H   0  0  0  0  0  0  0  0  0  0  0  0 
    5.4358    0.1840    4.4380 H   0  0  0  0  0  0  0  0  0  0  0  0 
    4.0038   -1.7342    3.7322 H   0  0  0  0  0  0  0  0  0  0  0  0 
    5.3891    2.2805    3.0848 H   0  0  0  0  0  0  0  0  0  0  0  0 
    2.5861   -1.5781    1.7571 H   0  0  0  0  0  0  0  0  0  0  0  0 
    3.9800    2.4619    1.1052 H   0  0  0  0  0  0  0  0  0  0  0  0 
  1  9  1  0  0  0  0 
  1 12  1  0  0  0  0 
  2  9  1  0  0  0  0 
  2 14  1  0  0  0  0 
  3 16  1  0  0  0  0 
  4  3  1  0  0  0  0 
  4 17  1  0  0  0  0 
  5 18  1  0  0  0  0 
  5  3  2  0  0  0  0 
  6  4  2  0  0  0  0 
  7  5  1  0  0  0  0 
  8  7  2  0  0  0  0 
  8  6  1  0  0  0  0 
  9  8  1  0  0  0  0 
 10  1  1  0  0  0  0 
 11  1  1  0  0  0  0 
 13  2  1  0  0  0  0 
 15  2  1  0  0  0  0 
 19  6  1  0  0  0  0 
 20  7  1  0  0  0  0 
M  END 
>  <HBA> 
1 
 
>  <HBD> 
0 
 
>  <TPSA> 
3.24 
 
>  <cid> 
949 
 
>  <dipole> 
1.86 
 
>  <excitation_energy_1> 
4.5 
 
>  <excitation_energy_2> 
4.537 
 
>  <excitation_energy_3> 
5.068 
 
>  <excitation_energy_4> 
5.069 
 
>  <homo_energy> 
-5.015 
 
>  <homo_lumo_gap> 
5.38 
 
>  <logP> 
1.753 
 
>  <lumo_energy> 
0.365 
 
>  <melting_point> 
12.66 
 
>  <molecular_refractivity> 
40.65 
 
>  <oscillator_strength_1> 
0.0464 
 
>  <oscillator_strength_2> 
0.0242 
 
>  <oscillator_strength_3> 
0.0007 
 
>  <oscillator_strength_4> 
0.029 
 
>  <open_babel_can_smiles> 
CN(c1ccccc1)C 
 
>  <mulliken_charges> 
20 
1   -0.309379 
2   -0.309413 
3   -0.136968 
4   -0.136742 
5   -0.136701 
6   -0.194397 
7   -0.19428 
8   0.36193 
9   -0.46982 
10   0.152011 
11   0.16248 
12   0.148815 
13   0.151972 
14   0.148798 
15   0.162482 
16   0.117333 
17   0.121153 
18   0.121121 
19   0.119825 
20   0.11978 
 
>  <lowdin_charges> 
20 
1   -0.351727 
2   -0.350283 
3   -0.190383 
4   -0.148005 
5   -0.14853 
6   -0.211975 
7   -0.211604 
8   0.060024 
9   -0.122682 
10   0.156061 
11   0.152775 
12   0.141184 
13   0.155842 
14   0.140339 
15   0.152152 
16   0.153263 
17   0.153894 
18   0.154451 
19   0.157919 
20   0.157286 
 
$$$$ 
 
