PCCDB-ID:  700 
public computational chemistry database (PCCDB) project, http://pccdb.org 
 
 11 10  0  0  0  0  0  0  0  0999 V2000 
    1.0667   -0.0764    0.0618 C   0  0  0  0  0  0  0  0  0  0  0  0 
    0.5345    0.9207   -0.9692 C   0  0  0  0  0  0  0  0  0  0  0  0 
    2.5314   -0.0866    0.0462 N   0  0  0  0  0  0  0  0  0  0  0  0 
   -0.8852    0.9987   -0.9658 O   0  0  0  0  0  0  0  0  0  0  0  0 
    0.6008   -1.0648   -0.1260 H   0  0  0  0  0  0  0  0  0  0  0  0 
    0.7316    0.2440    1.0546 H   0  0  0  0  0  0  0  0  0  0  0  0 
    0.9208    0.6661   -1.9717 H   0  0  0  0  0  0  0  0  0  0  0  0 
    0.8990    1.9223   -0.7265 H   0  0  0  0  0  0  0  0  0  0  0  0 
    2.8675   -0.5347   -0.8052 H   0  0  0  0  0  0  0  0  0  0  0  0 
    2.8853   -0.6467    0.8188 H   0  0  0  0  0  0  0  0  0  0  0  0 
   -1.2268    0.1356   -1.2471 H   0  0  0  0  0  0  0  0  0  0  0  0 
  1  6  1  0  0  0  0 
  2  4  1  0  0  0  0 
  2  8  1  0  0  0  0 
  2  1  1  0  0  0  0 
  3  1  1  0  0  0  0 
  3 10  1  0  0  0  0 
  5  1  1  0  0  0  0 
  7  2  1  0  0  0  0 
  9  3  1  0  0  0  0 
 11  4  1  0  0  0  0 
M  END 
>  <HBA> 
2 
 
>  <HBD> 
2 
 
>  <TPSA> 
46.25 
 
>  <cid> 
700 
 
>  <dipole> 
2.83 
 
>  <excitation_energy_1> 
5.67 
 
>  <excitation_energy_2> 
6.138 
 
>  <excitation_energy_3> 
6.58 
 
>  <excitation_energy_4> 
6.692 
 
>  <homo_energy> 
-6.436 
 
>  <homo_lumo_gap> 
8.425 
 
>  <logP> 
-0.362 
 
>  <lumo_energy> 
1.989 
 
>  <melting_point> 
48.96 
 
>  <molecular_refractivity> 
15.6 
 
>  <oscillator_strength_1> 
0.0088 
 
>  <oscillator_strength_2> 
0.034 
 
>  <oscillator_strength_3> 
0.0106 
 
>  <oscillator_strength_4> 
0.0164 
 
>  <open_babel_can_smiles> 
NCCO 
 
>  <mulliken_charges> 
11 
1   -0.15634 
2   -0.021924 
3   -0.717182 
4   -0.612982 
5   0.099105 
6   0.154626 
7   0.111025 
8   0.162963 
9   0.293975 
10   0.301316 
11   0.385418 
 
>  <lowdin_charges> 
11 
1   -0.221665 
2   -0.137253 
3   -0.559269 
4   -0.466319 
5   0.108866 
6   0.149541 
7   0.120064 
8   0.154628 
9   0.252969 
10   0.25963 
11   0.338807 
 
$$$$ 
 
