PCCDB-ID:  5613 
public computational chemistry database (PCCDB) project, http://pccdb.org 
 
 21 21  0  0  0  0  0  0  0  0999 V2000 
   -0.7884    0.7164   -0.3169 C   0  0  0  0  0  0  0  0  0  0  0  0 
    1.1706   -0.6497   -0.0378 C   0  0  0  0  0  0  0  0  0  0  0  0 
   -1.5897   -0.4238   -0.2984 C   0  0  0  0  0  0  0  0  0  0  0  0 
    0.3847   -1.7964   -0.0174 C   0  0  0  0  0  0  0  0  0  0  0  0 
    1.4719    1.8594   -0.1813 C   0  0  0  0  0  0  0  0  0  0  0  0 
    2.7231    3.5052    1.2408 C   0  0  0  0  0  0  0  0  0  0  0  0 
    0.4864    2.8722    1.9055 C   0  0  0  0  0  0  0  0  0  0  0  0 
    0.6021    0.6247   -0.1858 C   0  0  0  0  0  0  0  0  0  0  0  0 
    1.7315    2.4153    1.2642 C   0  0  0  0  0  0  0  0  0  0  0  0 
   -1.0049   -1.6851   -0.1457 C   0  0  0  0  0  0  0  0  0  0  0  0 
    3.5232    4.3429    1.1830 N   0  0  0  0  0  0  0  0  0  0  0  0 
   -0.5087    3.2234    2.3866 N   0  0  0  0  0  0  0  0  0  0  0  0 
   -1.7310   -2.8402   -0.1209 O   0  0  0  0  0  0  0  0  0  0  0  0 
   -1.2574    1.6896   -0.4349 H   0  0  0  0  0  0  0  0  0  0  0  0 
    2.2505   -0.7498    0.0534 H   0  0  0  0  0  0  0  0  0  0  0  0 
   -2.6690   -0.3316   -0.4033 H   0  0  0  0  0  0  0  0  0  0  0  0 
    0.8259   -2.7818    0.0921 H   0  0  0  0  0  0  0  0  0  0  0  0 
    1.0266    2.6629   -0.7761 H   0  0  0  0  0  0  0  0  0  0  0  0 
    2.4548    1.6425   -0.6123 H   0  0  0  0  0  0  0  0  0  0  0  0 
    2.1419    1.6010    1.8764 H   0  0  0  0  0  0  0  0  0  0  0  0 
   -2.6729   -2.6268   -0.2105 H   0  0  0  0  0  0  0  0  0  0  0  0 
  1  3  2  0  0  0  0 
  1  8  1  0  0  0  0 
  2  4  1  0  0  0  0 
  2 15  1  0  0  0  0 
  3 10  1  0  0  0  0 
  4 17  1  0  0  0  0 
  5  9  1  0  0  0  0 
  6  9  1  0  0  0  0 
  7 12  3  0  0  0  0 
  8  5  1  0  0  0  0 
  8  2  2  0  0  0  0 
  9 20  1  0  0  0  0 
  9  7  1  0  0  0  0 
 10 13  1  0  0  0  0 
 10  4  2  0  0  0  0 
 11  6  3  0  0  0  0 
 14  1  1  0  0  0  0 
 16  3  1  0  0  0  0 
 18  5  1  0  0  0  0 
 19  5  1  0  0  0  0 
 21 13  1  0  0  0  0 
M  END 
>  <HBA> 
3 
 
>  <HBD> 
1 
 
>  <TPSA> 
67.81 
 
>  <cid> 
5613 
 
>  <dipole> 
4.45 
 
>  <excitation_energy_1> 
4.958 
 
>  <excitation_energy_2> 
5.347 
 
>  <excitation_energy_3> 
5.417 
 
>  <excitation_energy_4> 
5.514 
 
>  <homo_energy> 
-6.422 
 
>  <homo_lumo_gap> 
5.837 
 
>  <logP> 
1.598 
 
>  <lumo_energy> 
-0.585 
 
>  <melting_point> 
113.94 
 
>  <molecular_refractivity> 
47.35 
 
>  <oscillator_strength_1> 
0.0249 
 
>  <oscillator_strength_2> 
0.0407 
 
>  <oscillator_strength_3> 
0.0119 
 
>  <oscillator_strength_4> 
0.0944 
 
>  <open_babel_can_smiles> 
N#CC(Cc1ccc(cc1)O)C#N 
 
>  <mulliken_charges> 
21 
1   -0.174786 
2   -0.190346 
3   -0.192456 
4   -0.154743 
5   -0.361873 
6   0.37193 
7   0.384005 
8   0.158194 
9   -0.228501 
10   0.35443 
11   -0.449322 
12   -0.452482 
13   -0.636575 
14   0.146959 
15   0.130768 
16   0.130481 
17   0.148425 
18   0.18371 
19   0.181938 
20   0.238449 
21   0.411794 
 
>  <lowdin_charges> 
21 
1   -0.143807 
2   -0.15094 
3   -0.204355 
4   -0.180093 
5   -0.252487 
6   -0.011379 
7   -0.006754 
8   -0.041528 
9   -0.118576 
10   0.107113 
11   -0.093649 
12   -0.095561 
13   -0.368674 
14   0.16618 
15   0.155764 
16   0.15732 
17   0.171375 
18   0.172175 
19   0.170165 
20   0.208308 
21   0.359403 
 
$$$$ 
 
