PCCDB-ID:  1629 
public computational chemistry database (PCCDB) project, http://pccdb.org 
 
 22 22  0  0  0  0  0  0  0  0999 V2000 
   -1.3496   -0.4205    0.0413 C   0  0  0  0  0  0  0  0  0  0  0  0 
   -0.1197   -1.0619    0.1024 C   0  0  0  0  0  0  0  0  0  0  0  0 
   -1.3793    0.9738    0.1231 C   0  0  0  0  0  0  0  0  0  0  0  0 
    2.3829   -1.0577    0.3397 C   0  0  0  0  0  0  0  0  0  0  0  0 
    1.0706   -0.3257    0.2237 C   0  0  0  0  0  0  0  0  0  0  0  0 
    0.9271    1.0740    0.2524 C   0  0  0  0  0  0  0  0  0  0  0  0 
    2.0789    2.0509    0.3218 C   0  0  0  0  0  0  0  0  0  0  0  0 
   -0.2669    1.6953    0.2274 N   0  0  0  0  0  0  0  0  0  0  0  0 
    3.2555    1.7509    0.1800 O   0  0  0  0  0  0  0  0  0  0  0  0 
    1.7039    3.3064    0.5448 O   0  0  0  0  0  0  0  0  0  0  0  0 
    2.1401   -2.1147   -2.1639 O   0  0  0  0  0  0  0  0  0  0  0  0 
    3.3962    0.0405   -1.9518 O   0  0  0  0  0  0  0  0  0  0  0  0 
    4.4949   -2.2072   -1.0569 O   0  0  0  0  0  0  0  0  0  0  0  0 
    3.2690   -1.3918   -1.2387 P   0  0  0  0  0  0  0  0  0  0  0  0 
   -2.2720   -0.9846   -0.0534 H   0  0  0  0  0  0  0  0  0  0  0  0 
   -0.0650   -2.1457    0.0589 H   0  0  0  0  0  0  0  0  0  0  0  0 
   -2.3174    1.5230    0.1047 H   0  0  0  0  0  0  0  0  0  0  0  0 
    2.2224   -2.0389    0.7982 H   0  0  0  0  0  0  0  0  0  0  0  0 
    3.0916   -0.5110    0.9662 H   0  0  0  0  0  0  0  0  0  0  0  0 
    0.7148    3.2916    0.5545 H   0  0  0  0  0  0  0  0  0  0  0  0 
    2.5375   -2.8999   -2.5766 H   0  0  0  0  0  0  0  0  0  0  0  0 
    3.5966    0.7421   -1.2884 H   0  0  0  0  0  0  0  0  0  0  0  0 
  1  2  2  0  0  0  0 
  1  3  1  0  0  0  0 
  2  5  1  0  0  0  0 
  3  8  2  0  0  0  0 
  4 18  1  0  0  0  0 
  4 19  1  0  0  0  0 
  5  6  2  0  0  0  0 
  5  4  1  0  0  0  0 
  6  7  1  0  0  0  0 
  7 10  1  0  0  0  0 
  8  6  1  0  0  0  0 
  9  7  2  0  0  0  0 
 10 20  1  0  0  0  0 
 11 14  1  0  0  0  0 
 12 22  1  0  0  0  0 
 12 14  1  0  0  0  0 
 14 13  2  0  0  0  0 
 14  4  1  0  0  0  0 
 15  1  1  0  0  0  0 
 16  2  1  0  0  0  0 
 17  3  1  0  0  0  0 
 21 11  1  0  0  0  0 
M  END 
>  <HBA> 
6 
 
>  <HBD> 
3 
 
>  <TPSA> 
117.53 
 
>  <cid> 
1629 
 
>  <dipole> 
7.37 
 
>  <excitation_energy_1> 
4.367 
 
>  <excitation_energy_2> 
4.58 
 
>  <excitation_energy_3> 
4.837 
 
>  <excitation_energy_4> 
4.998 
 
>  <homo_energy> 
-7.478 
 
>  <homo_lumo_gap> 
5.165 
 
>  <logP> 
0.458 
 
>  <lumo_energy> 
-2.313 
 
>  <melting_point> 
201.32 
 
>  <molecular_refractivity> 
47.15 
 
>  <oscillator_strength_1> 
0.004 
 
>  <oscillator_strength_2> 
0.0433 
 
>  <oscillator_strength_3> 
0.0017 
 
>  <oscillator_strength_4> 
0.013 
 
>  <open_babel_can_smiles> 
OC(=O)c1ncccc1CP(=O)(O)O 
 
>  <mulliken_charges> 
22 
1   -0.139368 
2   -0.122684 
3   0.053757 
4   -0.609652 
5   0.150417 
6   0.212349 
7   0.618473 
8   -0.547931 
9   -0.512961 
10   -0.56423 
11   -0.660234 
12   -0.66731 
13   -0.541794 
14   1.075843 
15   0.161205 
16   0.165294 
17   0.164711 
18   0.196082 
19   0.226945 
20   0.437081 
21   0.439497 
22   0.46451 
 
>  <lowdin_charges> 
22 
1   -0.149751 
2   -0.111902 
3   -0.080332 
4   -0.464093 
5   0.017632 
6   -0.006511 
7   0.199718 
8   -0.153991 
9   -0.277855 
10   -0.315753 
11   -0.580309 
12   -0.578914 
13   -0.589596 
14   1.051338 
15   0.176661 
16   0.173857 
17   0.169081 
18   0.187808 
19   0.203814 
20   0.36408 
21   0.384387 
22   0.380632 
 
$$$$ 
 
