PCCDB-ID:  6115 
public computational chemistry database (PCCDB) project, http://pccdb.org 
 
 14 14  0  0  0  0  0  0  0  0999 V2000 
   -1.3941   -0.0759   -0.0052 C   0  0  0  0  0  0  0  0  0  0  0  0 
   -0.7542    1.1654   -0.0071 C   0  0  0  0  0  0  0  0  0  0  0  0 
   -0.6168   -1.2361    0.0023 C   0  0  0  0  0  0  0  0  0  0  0  0 
    0.6362    1.2505   -0.0023 C   0  0  0  0  0  0  0  0  0  0  0  0 
    0.7744   -1.1622    0.0071 C   0  0  0  0  0  0  0  0  0  0  0  0 
    1.4215    0.0852    0.0056 C   0  0  0  0  0  0  0  0  0  0  0  0 
    2.8181    0.1659    0.0710 N   0  0  0  0  0  0  0  0  0  0  0  0 
   -2.4783   -0.1381   -0.0098 H   0  0  0  0  0  0  0  0  0  0  0  0 
   -1.3417    2.0802   -0.0151 H   0  0  0  0  0  0  0  0  0  0  0  0 
   -1.0961   -2.2119    0.0017 H   0  0  0  0  0  0  0  0  0  0  0  0 
    1.1237    2.2233   -0.0004 H   0  0  0  0  0  0  0  0  0  0  0  0 
    1.3695   -2.0730    0.0161 H   0  0  0  0  0  0  0  0  0  0  0  0 
    3.2087    1.0230   -0.3014 H   0  0  0  0  0  0  0  0  0  0  0  0 
    3.3051   -0.6441   -0.2933 H   0  0  0  0  0  0  0  0  0  0  0  0 
  1  3  1  0  0  0  0 
  2  1  2  0  0  0  0 
  2  4  1  0  0  0  0 
  3  5  2  0  0  0  0 
  4 11  1  0  0  0  0 
  4  6  2  0  0  0  0 
  5 12  1  0  0  0  0 
  6  5  1  0  0  0  0 
  6  7  1  0  0  0  0 
  8  1  1  0  0  0  0 
  9  2  1  0  0  0  0 
 10  3  1  0  0  0  0 
 13  7  1  0  0  0  0 
 14  7  1  0  0  0  0 
M  END 
>  <HBA> 
1 
 
>  <HBD> 
1 
 
>  <TPSA> 
26.02 
 
>  <cid> 
6115 
 
>  <dipole> 
1.71 
 
>  <excitation_energy_1> 
4.729 
 
>  <excitation_energy_2> 
4.801 
 
>  <excitation_energy_3> 
5.394 
 
>  <excitation_energy_4> 
5.502 
 
>  <homo_energy> 
-5.391 
 
>  <homo_lumo_gap> 
5.641 
 
>  <logP> 
1.85 
 
>  <lumo_energy> 
0.25 
 
>  <melting_point> 
52.47 
 
>  <molecular_refractivity> 
30.85 
 
>  <oscillator_strength_1> 
0.0351 
 
>  <oscillator_strength_2> 
0.0047 
 
>  <oscillator_strength_3> 
0.0259 
 
>  <oscillator_strength_4> 
0.1122 
 
>  <open_babel_can_smiles> 
Nc1ccccc1 
 
>  <mulliken_charges> 
14 
1   -0.138658 
2   -0.134949 
3   -0.134719 
4   -0.172425 
5   -0.172576 
6   0.306908 
7   -0.786177 
8   0.120081 
9   0.1243 
10   0.124238 
11   0.114088 
12   0.114113 
13   0.317896 
14   0.31788 
 
>  <lowdin_charges> 
14 
1   -0.18589 
2   -0.146975 
3   -0.146154 
4   -0.202125 
5   -0.202923 
6   0.062145 
7   -0.493645 
8   0.152435 
9   0.155822 
10   0.155178 
11   0.151017 
12   0.151632 
13   0.274539 
14   0.274943 
 
$$$$ 
 
