PCCDB-ID:  207 
public computational chemistry database (PCCDB) project, http://pccdb.org 
 
 21 20  0  0  1  0  0  0  0  0999 V2000 
    0.9419   -0.3675   -1.4122 C   0  0  0  0  0  0  0  0  0  0  0  0 
   -0.1141   -0.2219   -0.2943 C   0  0  0  0  0  0  0  0  0  0  0  0 
    2.3855   -0.1168   -0.9566 C   0  0  0  0  0  0  0  0  0  0  0  0 
   -0.3201    1.2072    0.1645 C   0  0  0  0  0  0  0  0  0  0  0  0 
    3.4208   -0.3308   -2.0711 C   0  0  1  0  0  0  0  0  0  0  0  0 
    4.8170    0.1726   -1.6283 C   0  0  0  0  0  0  0  0  0  0  0  0 
    3.5538   -1.7104   -2.5786 N   0  0  0  0  0  0  0  0  0  0  0  0 
   -1.3948    1.7659    0.1770 O   0  0  0  0  0  0  0  0  0  0  0  0 
    4.9749    1.1526   -0.9383 O   0  0  0  0  0  0  0  0  0  0  0  0 
    5.8305   -0.5593   -2.1115 O   0  0  0  0  0  0  0  0  0  0  0  0 
    0.6906    0.3114   -2.2395 H   0  0  0  0  0  0  0  0  0  0  0  0 
    0.8588   -1.3844   -1.8185 H   0  0  0  0  0  0  0  0  0  0  0  0 
    0.2029   -0.8143    0.5782 H   0  0  0  0  0  0  0  0  0  0  0  0 
   -1.0859   -0.6044   -0.6222 H   0  0  0  0  0  0  0  0  0  0  0  0 
    2.6302   -0.7821   -0.1146 H   0  0  0  0  0  0  0  0  0  0  0  0 
    2.5160    0.9039   -0.5852 H   0  0  0  0  0  0  0  0  0  0  0  0 
    0.5948    1.7428    0.5030 H   0  0  0  0  0  0  0  0  0  0  0  0 
    3.1489    0.2969   -2.9312 H   0  0  0  0  0  0  0  0  0  0  0  0 
    3.4080   -2.3864   -1.8296 H   0  0  0  0  0  0  0  0  0  0  0  0 
    2.8722   -1.9145   -3.3042 H   0  0  0  0  0  0  0  0  0  0  0  0 
    5.3950   -1.2994   -2.6053 H   0  0  0  0  0  0  0  0  0  0  0  0 
  1  3  1  0  0  0  0 
  1  2  1  0  0  0  0 
  2  4  1  0  0  0  0 
  2 13  1  0  0  0  0 
  3 16  1  0  0  0  0 
  3 15  1  0  0  0  0 
  4  8  2  0  0  0  0 
  4 17  1  0  0  0  0 
  5 18  1  6  0  0  0 
  5  6  1  0  0  0  0 
  5  3  1  0  0  0  0 
  6  9  2  0  0  0  0 
  7  5  1  0  0  0  0 
  7 19  1  0  0  0  0 
 10  6  1  0  0  0  0 
 11  1  1  0  0  0  0 
 12  1  1  0  0  0  0 
 14  2  1  0  0  0  0 
 20  7  1  0  0  0  0 
 21 10  1  0  0  0  0 
M  END 
>  <HBA> 
4 
 
>  <HBD> 
2 
 
>  <TPSA> 
80.39 
 
>  <cid> 
207 
 
>  <dipole> 
5.48 
 
>  <excitation_energy_1> 
4.15 
 
>  <excitation_energy_2> 
5.402 
 
>  <excitation_energy_3> 
5.626 
 
>  <excitation_energy_4> 
6.019 
 
>  <homo_energy> 
-6.944 
 
>  <homo_lumo_gap> 
6.106 
 
>  <logP> 
0.468 
 
>  <lumo_energy> 
-0.838 
 
>  <melting_point> 
136.57 
 
>  <molecular_refractivity> 
35.64 
 
>  <oscillator_strength_1> 
0.0 
 
>  <oscillator_strength_2> 
0.0026 
 
>  <oscillator_strength_3> 
0.0004 
 
>  <oscillator_strength_4> 
0.0008 
 
>  <open_babel_can_smiles> 
O=CCCC[C@@H](C(=O)O)N 
 
>  <mulliken_charges> 
21 
1   -0.281031 
2   -0.336561 
3   -0.273864 
4   0.256385 
5   -0.093706 
6   0.613235 
7   -0.769034 
8   -0.380399 
9   -0.46418 
10   -0.580025 
11   0.151634 
12   0.131476 
13   0.159647 
14   0.167691 
15   0.136893 
16   0.186743 
17   0.113422 
18   0.177719 
19   0.322146 
20   0.328438 
21   0.43337 
 
>  <lowdin_charges> 
21 
1   -0.276564 
2   -0.309773 
3   -0.28925 
4   0.054491 
5   -0.108354 
6   0.170984 
7   -0.547631 
8   -0.213124 
9   -0.255472 
10   -0.35178 
11   0.149033 
12   0.140865 
13   0.163618 
14   0.165182 
15   0.144752 
16   0.169472 
17   0.120634 
18   0.168019 
19   0.268976 
20   0.274726 
21   0.361195 
 
$$$$ 
 
