PCCDB-ID:  3615 
public computational chemistry database (PCCDB) project, http://pccdb.org 
 
 20 20  0  0  1  0  0  0  0  0999 V2000 
    2.7561   -1.3089    1.8148 C   0  0  0  0  0  0  0  0  0  0  0  0 
    2.4726   -1.1079   -0.7323 C   0  0  0  0  0  0  0  0  0  0  0  0 
    1.0546   -3.1534   -1.5845 C   0  0  0  0  0  0  0  0  0  0  0  0 
    2.3651   -4.7567   -1.0614 C   0  0  0  0  0  0  0  0  0  0  0  0 
    2.0226   -0.5985    0.6734 C   0  0  1  0  0  0  0  0  0  0  0  0 
    2.1526   -2.5420   -1.0191 C   0  0  0  0  0  0  0  0  0  0  0  0 
    0.5791   -0.6788    0.9124 N   0  0  0  0  0  0  0  0  0  0  0  0 
    1.1934   -4.5245   -1.6089 N   0  0  0  0  0  0  0  0  0  0  0  0 
    2.9865   -3.5978   -0.6842 N   0  0  0  0  0  0  0  0  0  0  0  0 
    3.8441   -1.2143    1.7093 H   0  0  0  0  0  0  0  0  0  0  0  0 
    2.5066   -2.3768    1.8394 H   0  0  0  0  0  0  0  0  0  0  0  0 
    2.4610   -0.8758    2.7746 H   0  0  0  0  0  0  0  0  0  0  0  0 
    3.5514   -0.9295   -0.8519 H   0  0  0  0  0  0  0  0  0  0  0  0 
    1.9778   -0.4888   -1.4912 H   0  0  0  0  0  0  0  0  0  0  0  0 
    0.1755   -2.6732   -1.9952 H   0  0  0  0  0  0  0  0  0  0  0  0 
    2.8163   -5.7293   -0.9146 H   0  0  0  0  0  0  0  0  0  0  0  0 
    2.2883    0.4667    0.7118 H   0  0  0  0  0  0  0  0  0  0  0  0 
    0.2742   -1.6463    0.7940 H   0  0  0  0  0  0  0  0  0  0  0  0 
    0.0807   -0.1422    0.2025 H   0  0  0  0  0  0  0  0  0  0  0  0 
    3.8937   -3.5167   -0.2477 H   0  0  0  0  0  0  0  0  0  0  0  0 
  1 11  1  0  0  0  0 
  1 12  1  0  0  0  0 
  2  5  1  0  0  0  0 
  3  6  2  0  0  0  0 
  4 16  1  0  0  0  0 
  4  9  1  0  0  0  0 
  5 17  1  1  0  0  0 
  5  7  1  0  0  0  0 
  5  1  1  0  0  0  0 
  6  2  1  0  0  0  0 
  6  9  1  0  0  0  0 
  8  3  1  0  0  0  0 
  8  4  2  0  0  0  0 
  9 20  1  0  0  0  0 
 10  1  1  0  0  0  0 
 13  2  1  0  0  0  0 
 14  2  1  0  0  0  0 
 15  3  1  0  0  0  0 
 18  7  1  0  0  0  0 
 19  7  1  0  0  0  0 
M  END 
>  <HBA> 
2 
 
>  <HBD> 
2 
 
>  <TPSA> 
54.7 
 
>  <cid> 
3615 
 
>  <dipole> 
3.38 
 
>  <excitation_energy_1> 
5.144 
 
>  <excitation_energy_2> 
5.572 
 
>  <excitation_energy_3> 
5.743 
 
>  <excitation_energy_4> 
5.954 
 
>  <homo_energy> 
-5.948 
 
>  <homo_lumo_gap> 
6.675 
 
>  <logP> 
1.0 
 
>  <lumo_energy> 
0.727 
 
>  <melting_point> 
122.85 
 
>  <molecular_refractivity> 
35.88 
 
>  <oscillator_strength_1> 
0.0169 
 
>  <oscillator_strength_2> 
0.0202 
 
>  <oscillator_strength_3> 
0.0427 
 
>  <oscillator_strength_4> 
0.0231 
 
>  <open_babel_can_smiles> 
C[C@@H](Cc1cnc[nH]1)N 
 
>  <mulliken_charges> 
20 
1   -0.447866 
2   -0.358865 
3   -0.09127 
4   0.2041 
5   0.036364 
6   0.325182 
7   -0.706603 
8   -0.422462 
9   -0.601506 
10   0.127978 
11   0.145298 
12   0.167874 
13   0.134502 
14   0.150902 
15   0.127494 
16   0.153752 
17   0.133258 
18   0.300116 
19   0.290988 
20   0.330766 
 
>  <lowdin_charges> 
20 
1   -0.4496 
2   -0.296326 
3   -0.182628 
4   -0.098505 
5   -0.059414 
6   -0.01401 
7   -0.549965 
8   -0.185932 
9   -0.182861 
10   0.140381 
11   0.147097 
12   0.163828 
13   0.146997 
14   0.158953 
15   0.158363 
16   0.166058 
17   0.138692 
18   0.254489 
19   0.25299 
20   0.291395 
 
$$$$ 
 
