PCCDB-ID:  203 
public computational chemistry database (PCCDB) project, http://pccdb.org 
 
 20 19  0  0  0  0  0  0  0  0999 V2000 
    0.9222   -0.2402    0.7113 C   0  0  0  0  0  0  0  0  0  0  0  0 
   -0.1154   -1.3727    0.4983 C   0  0  0  0  0  0  0  0  0  0  0  0 
    0.9279    1.6715    2.2647 C   0  0  0  0  0  0  0  0  0  0  0  0 
    3.3111   -0.0540   -0.0846 C   0  0  0  0  0  0  0  0  0  0  0  0 
    1.5523    2.5524    1.5894 N   0  0  0  0  0  0  0  0  0  0  0  0 
    4.5664   -0.1979    0.0489 N   0  0  0  0  0  0  0  0  0  0  0  0 
    0.7121    0.3198    2.0153 N   0  0  0  0  0  0  0  0  0  0  0  0 
    2.2728   -0.7951    0.4923 N   0  0  0  0  0  0  0  0  0  0  0  0 
   -1.1496   -1.4313    1.1171 O   0  0  0  0  0  0  0  0  0  0  0  0 
    0.2236   -2.2557   -0.4483 O   0  0  0  0  0  0  0  0  0  0  0  0 
    0.3646    1.9936    3.4566 O   0  0  0  0  0  0  0  0  0  0  0  0 
    2.8251    0.8793   -0.9450 O   0  0  0  0  0  0  0  0  0  0  0  0 
    0.7622    0.4971   -0.0850 H   0  0  0  0  0  0  0  0  0  0  0  0 
    1.9340    2.2016    0.7133 H   0  0  0  0  0  0  0  0  0  0  0  0 
    4.8161   -0.9169    0.7269 H   0  0  0  0  0  0  0  0  0  0  0  0 
   -0.0952   -0.0705    2.4941 H   0  0  0  0  0  0  0  0  0  0  0  0 
    2.5912   -1.3257    1.2979 H   0  0  0  0  0  0  0  0  0  0  0  0 
    1.1518   -2.0640   -0.7005 H   0  0  0  0  0  0  0  0  0  0  0  0 
    0.5575    2.9399    3.5785 H   0  0  0  0  0  0  0  0  0  0  0  0 
    3.6129    1.3180   -1.3148 H   0  0  0  0  0  0  0  0  0  0  0  0 
  1  7  1  0  0  0  0 
  2  1  1  0  0  0  0 
  2  9  2  0  0  0  0 
  3 11  1  0  0  0  0 
  4  6  2  0  0  0  0 
  4  8  1  0  0  0  0 
  5  3  2  0  0  0  0 
  6 15  1  0  0  0  0 
  7  3  1  0  0  0  0 
  7 16  1  0  0  0  0 
  8  1  1  0  0  0  0 
  8 17  1  0  0  0  0 
 10  2  1  0  0  0  0 
 11 19  1  0  0  0  0 
 12  4  1  0  0  0  0 
 13  1  1  0  0  0  0 
 14  5  1  0  0  0  0 
 18 10  1  0  0  0  0 
 20 12  1  0  0  0  0 
M  END 
>  <HBA> 
8 
 
>  <HBD> 
5 
 
>  <TPSA> 
147.54 
 
>  <cid> 
203 
 
>  <dipole> 
2.36 
 
>  <excitation_energy_1> 
5.291 
 
>  <excitation_energy_2> 
5.633 
 
>  <excitation_energy_3> 
5.835 
 
>  <excitation_energy_4> 
6.079 
 
>  <homo_energy> 
-6.822 
 
>  <homo_lumo_gap> 
6.31 
 
>  <logP> 
-0.084 
 
>  <lumo_energy> 
-0.512 
 
>  <melting_point> 
278.23 
 
>  <molecular_refractivity> 
35.31 
 
>  <oscillator_strength_1> 
0.0054 
 
>  <oscillator_strength_2> 
0.0048 
 
>  <oscillator_strength_3> 
0.0083 
 
>  <oscillator_strength_4> 
0.002 
 
>  <open_babel_can_smiles> 
OC(=O)C(NC(=N)O)NC(=N)O 
 
>  <mulliken_charges> 
20 
1   0.04091 
2   0.599031 
3   0.634714 
4   0.657369 
5   -0.662007 
6   -0.632673 
7   -0.607836 
8   -0.645407 
9   -0.44446 
10   -0.558605 
11   -0.600994 
12   -0.593796 
13   0.222555 
14   0.304906 
15   0.289771 
16   0.365409 
17   0.33705 
18   0.433678 
19   0.423868 
20   0.436519 
 
>  <lowdin_charges> 
20 
1   -0.042918 
2   0.17673 
3   0.163497 
4   0.154743 
5   -0.482963 
6   -0.450805 
7   -0.305961 
8   -0.319428 
9   -0.232424 
10   -0.327803 
11   -0.373026 
12   -0.372137 
13   0.184064 
14   0.261565 
15   0.265377 
16   0.302452 
17   0.287176 
18   0.364299 
19   0.368687 
20   0.378875 
 
$$$$ 
 
