PCCDB-ID:  660 
public computational chemistry database (PCCDB) project, http://pccdb.org 
 
 19 20  0  0  0  0  0  0  0  0999 V2000 
    2.4556    0.6775   -0.1404 C   0  0  0  0  0  0  0  0  0  0  0  0 
    2.4150   -0.7164   -0.0579 C   0  0  0  0  0  0  0  0  0  0  0  0 
    1.2726    1.4123   -0.0521 C   0  0  0  0  0  0  0  0  0  0  0  0 
    1.1968   -1.3729    0.1104 C   0  0  0  0  0  0  0  0  0  0  0  0 
   -1.2780    1.5004    0.2323 C   0  0  0  0  0  0  0  0  0  0  0  0 
   -2.3788    0.6359   -0.3985 C   0  0  0  0  0  0  0  0  0  0  0  0 
    0.0406    0.7767    0.1249 C   0  0  0  0  0  0  0  0  0  0  0  0 
    0.0278   -0.6205    0.1999 C   0  0  0  0  0  0  0  0  0  0  0  0 
   -2.3833   -0.7726    0.1642 C   0  0  0  0  0  0  0  0  0  0  0  0 
   -3.3665   -1.4282    0.3890 O   0  0  0  0  0  0  0  0  0  0  0  0 
   -1.1496   -1.3306    0.4093 O   0  0  0  0  0  0  0  0  0  0  0  0 
    3.4033    1.1903   -0.2760 H   0  0  0  0  0  0  0  0  0  0  0  0 
    3.3310   -1.2959   -0.1288 H   0  0  0  0  0  0  0  0  0  0  0  0 
    1.2997    2.4974   -0.1205 H   0  0  0  0  0  0  0  0  0  0  0  0 
    1.1335   -2.4543    0.1753 H   0  0  0  0  0  0  0  0  0  0  0  0 
   -1.5227    1.6928    1.2872 H   0  0  0  0  0  0  0  0  0  0  0  0 
   -1.2302    2.4772   -0.2606 H   0  0  0  0  0  0  0  0  0  0  0  0 
   -2.2079    0.5561   -1.4814 H   0  0  0  0  0  0  0  0  0  0  0  0 
   -3.3784    1.0499   -0.2506 H   0  0  0  0  0  0  0  0  0  0  0  0 
  1  2  2  0  0  0  0 
  1  3  1  0  0  0  0 
  2  4  1  0  0  0  0 
  3  7  2  0  0  0  0 
  4 15  1  0  0  0  0 
  4  8  2  0  0  0  0 
  5 16  1  0  0  0  0 
  6 19  1  0  0  0  0 
  6  9  1  0  0  0  0 
  6  5  1  0  0  0  0 
  7  8  1  0  0  0  0 
  7  5  1  0  0  0  0 
  8 11  1  0  0  0  0 
  9 10  2  0  0  0  0 
  9 11  1  0  0  0  0 
 12  1  1  0  0  0  0 
 13  2  1  0  0  0  0 
 14  3  1  0  0  0  0 
 17  5  1  0  0  0  0 
 18  6  1  0  0  0  0 
M  END 
>  <HBA> 
2 
 
>  <HBD> 
0 
 
>  <TPSA> 
26.3 
 
>  <cid> 
660 
 
>  <dipole> 
3.99 
 
>  <excitation_energy_1> 
5.066 
 
>  <excitation_energy_2> 
5.3 
 
>  <excitation_energy_3> 
5.476 
 
>  <excitation_energy_4> 
5.848 
 
>  <homo_energy> 
-6.506 
 
>  <homo_lumo_gap> 
6.003 
 
>  <logP> 
1.538 
 
>  <lumo_energy> 
-0.503 
 
>  <melting_point> 
56.56 
 
>  <molecular_refractivity> 
40.79 
 
>  <oscillator_strength_1> 
0.0136 
 
>  <oscillator_strength_2> 
0.0627 
 
>  <oscillator_strength_3> 
0.0328 
 
>  <oscillator_strength_4> 
0.0042 
 
>  <open_babel_can_smiles> 
O=C1CCc2c(O1)cccc2 
 
>  <mulliken_charges> 
19 
1   -0.124437 
2   -0.13768 
3   -0.204343 
4   -0.17234 
5   -0.350273 
6   -0.37776 
7   0.144321 
8   0.301003 
9   0.600753 
10   -0.437006 
11   -0.501418 
12   0.133785 
13   0.138312 
14   0.131389 
15   0.152209 
16   0.173597 
17   0.161079 
18   0.185318 
19   0.18349 
 
>  <lowdin_charges> 
19 
1   -0.164127 
2   -0.148765 
3   -0.153579 
4   -0.167809 
5   -0.268599 
6   -0.304168 
7   -0.038364 
8   0.09007 
9   0.206531 
10   -0.223724 
11   -0.151638 
12   0.161061 
13   0.163205 
14   0.156891 
15   0.171417 
16   0.160596 
17   0.161029 
18   0.173466 
19   0.17651 
 
$$$$ 
 
