PCCDB-ID:  80 
public computational chemistry database (PCCDB) project, http://pccdb.org 
 
 20 20  0  0  1  0  0  0  0  0999 V2000 
   -0.3507   -1.3660   -0.0607 C   0  0  0  0  0  0  0  0  0  0  0  0 
   -0.9801    1.0441    0.1360 C   0  0  0  0  0  0  0  0  0  0  0  0 
   -1.3084   -0.4179   -0.0222 C   0  0  0  0  0  0  0  0  0  0  0  0 
    1.0829   -1.0379    0.0832 C   0  0  0  0  0  0  0  0  0  0  0  0 
    0.4385    1.3843   -0.3425 C   0  0  1  0  0  0  0  0  0  0  0  0 
    1.4636    0.4369    0.2743 C   0  0  1  0  0  0  0  0  0  0  0  0 
   -2.7627   -0.7544   -0.2175 C   0  0  0  0  0  0  0  0  0  0  0  0 
    1.9360   -1.9101    0.1543 O   0  0  0  0  0  0  0  0  0  0  0  0 
    0.5883    1.2150   -1.7478 O   0  0  0  0  0  0  0  0  0  0  0  0 
    1.4984    0.6975    1.6780 O   0  0  0  0  0  0  0  0  0  0  0  0 
   -3.5440    0.0233   -0.7130 O   0  0  0  0  0  0  0  0  0  0  0  0 
   -3.1699   -1.9871    0.1705 O   0  0  0  0  0  0  0  0  0  0  0  0 
   -0.5677   -2.4201   -0.2231 H   0  0  0  0  0  0  0  0  0  0  0  0 
   -1.0718    1.3207    1.1955 H   0  0  0  0  0  0  0  0  0  0  0  0 
   -1.7295    1.6333   -0.4042 H   0  0  0  0  0  0  0  0  0  0  0  0 
    0.6849    2.4118   -0.0378 H   0  0  0  0  0  0  0  0  0  0  0  0 
    2.4428    0.5991   -0.1938 H   0  0  0  0  0  0  0  0  0  0  0  0 
   -0.0847    1.7532   -2.1924 H   0  0  0  0  0  0  0  0  0  0  0  0 
    2.1745    0.1133    2.0584 H   0  0  0  0  0  0  0  0  0  0  0  0 
   -2.4576   -2.4340    0.6576 H   0  0  0  0  0  0  0  0  0  0  0  0 
  1  3  2  0  0  0  0 
  1  4  1  0  0  0  0 
  2 14  1  0  0  0  0 
  3  2  1  0  0  0  0 
  4  8  2  0  0  0  0 
  4  6  1  0  0  0  0 
  5 16  1  1  0  0  0 
  5  2  1  0  0  0  0 
  5  6  1  0  0  0  0 
  6 17  1  6  0  0  0 
  6 10  1  0  0  0  0 
  7  3  1  0  0  0  0 
  7 12  1  0  0  0  0 
  9  5  1  0  0  0  0 
 10 19  1  0  0  0  0 
 11  7  2  0  0  0  0 
 12 20  1  0  0  0  0 
 13  1  1  0  0  0  0 
 15  2  1  0  0  0  0 
 18  9  1  0  0  0  0 
M  END 
>  <HBA> 
5 
 
>  <HBD> 
3 
 
>  <TPSA> 
94.83 
 
>  <cid> 
80 
 
>  <dipole> 
2.09 
 
>  <excitation_energy_1> 
3.061 
 
>  <excitation_energy_2> 
4.229 
 
>  <excitation_energy_3> 
4.505 
 
>  <excitation_energy_4> 
4.904 
 
>  <homo_energy> 
-6.95 
 
>  <homo_lumo_gap> 
4.329 
 
>  <logP> 
-1.308 
 
>  <lumo_energy> 
-2.62 
 
>  <melting_point> 
144.35 
 
>  <molecular_refractivity> 
37.47 
 
>  <oscillator_strength_1> 
0.0009 
 
>  <oscillator_strength_2> 
0.0041 
 
>  <oscillator_strength_3> 
0.0054 
 
>  <oscillator_strength_4> 
0.0233 
 
>  <open_babel_can_smiles> 
O[C@H]1CC(=CC(=O)[C@@H]1O)C(=O)O 
 
>  <mulliken_charges> 
20 
1   -0.226285 
2   -0.370053 
3   0.08362 
4   0.445667 
5   0.103325 
6   0.0551 
7   0.562276 
8   -0.468623 
9   -0.6245 
10   -0.626867 
11   -0.436489 
12   -0.560735 
13   0.155149 
14   0.192282 
15   0.184007 
16   0.141237 
17   0.161651 
18   0.402841 
19   0.409759 
20   0.416638 
 
>  <lowdin_charges> 
20 
1   -0.188722 
2   -0.295447 
3   -0.005727 
4   0.145572 
5   -0.005902 
6   -0.028829 
7   0.194729 
8   -0.229388 
9   -0.46027 
10   -0.452391 
11   -0.228738 
12   -0.345116 
13   0.169542 
14   0.18029 
15   0.17591 
16   0.142661 
17   0.156801 
18   0.352995 
19   0.358294 
20   0.363737 
 
$$$$ 
 
