PCCDB-ID:  2527 
public computational chemistry database (PCCDB) project, http://pccdb.org 
 
 35 34  0  0  1  0  0  0  0  0999 V2000 
    4.2277    0.3651    1.9601 C   0  0  0  0  0  0  0  0  0  0  0  0 
    1.9005    0.8569    2.7636 C   0  0  0  0  0  0  0  0  0  0  0  0 
    0.9235    2.4283   -3.5757 C   0  0  0  0  0  0  0  0  0  0  0  0 
    1.7949    2.1656   -4.8062 C   0  0  0  0  0  0  0  0  0  0  0  0 
    1.3717    1.6413   -2.3347 C   0  0  0  0  0  0  0  0  0  0  0  0 
    3.4091    2.7480    2.3079 C   0  0  0  0  0  0  0  0  0  0  0  0 
    1.5792    0.8013   -5.4207 C   0  0  0  0  0  0  0  0  0  0  0  0 
    2.4337    1.3329    0.3774 C   0  0  2  0  0  0  0  0  0  0  0  0 
    3.2246    1.8916   -0.8333 C   0  0  0  0  0  0  0  0  0  0  0  0 
    3.0354    1.3334    1.8271 C   0  0  0  0  0  0  0  0  0  0  0  0 
    2.7434    1.9908   -2.0048 N   0  0  0  0  0  0  0  0  0  0  0  0 
    4.7005    3.1380    1.8097 O   0  0  0  0  0  0  0  0  0  0  0  0 
    0.7829   -0.0392   -5.0577 O   0  0  0  0  0  0  0  0  0  0  0  0 
    2.4020    0.5976   -6.4829 O   0  0  0  0  0  0  0  0  0  0  0  0 
    1.9930    0.0103    0.0441 O   0  0  0  0  0  0  0  0  0  0  0  0 
    4.5377    2.2008   -0.6865 O   0  0  0  0  0  0  0  0  0  0  0  0 
    4.6283    0.3858    2.9798 H   0  0  0  0  0  0  0  0  0  0  0  0 
    5.0424    0.6066    1.2736 H   0  0  0  0  0  0  0  0  0  0  0  0 
    3.8969   -0.6580    1.7548 H   0  0  0  0  0  0  0  0  0  0  0  0 
    2.2737    0.7244    3.7855 H   0  0  0  0  0  0  0  0  0  0  0  0 
    1.4974   -0.0948    2.4122 H   0  0  0  0  0  0  0  0  0  0  0  0 
    1.0763    1.5815    2.7956 H   0  0  0  0  0  0  0  0  0  0  0  0 
   -0.1201    2.1756   -3.7962 H   0  0  0  0  0  0  0  0  0  0  0  0 
    0.9627    3.5006   -3.3477 H   0  0  0  0  0  0  0  0  0  0  0  0 
    2.8536    2.2578   -4.5371 H   0  0  0  0  0  0  0  0  0  0  0  0 
    1.6123    2.9093   -5.5928 H   0  0  0  0  0  0  0  0  0  0  0  0 
    1.3024    0.5686   -2.5503 H   0  0  0  0  0  0  0  0  0  0  0  0 
    0.6610    1.8326   -1.5153 H   0  0  0  0  0  0  0  0  0  0  0  0 
    3.4411    2.7556    3.4055 H   0  0  0  0  0  0  0  0  0  0  0  0 
    2.6402    3.4676    1.9891 H   0  0  0  0  0  0  0  0  0  0  0  0 
    1.5075    1.9207    0.4348 H   0  0  0  0  0  0  0  0  0  0  0  0 
    4.7922    4.1003    1.8788 H   0  0  0  0  0  0  0  0  0  0  0  0 
    2.1923   -0.2963   -6.8127 H   0  0  0  0  0  0  0  0  0  0  0  0 
    2.7302   -0.4484   -0.3885 H   0  0  0  0  0  0  0  0  0  0  0  0 
    4.7244    2.4978    0.2333 H   0  0  0  0  0  0  0  0  0  0  0  0 
  1 17  1  0  0  0  0 
  2 22  1  0  0  0  0 
  2 20  1  0  0  0  0 
  3 24  1  0  0  0  0 
  3  5  1  0  0  0  0 
  4 25  1  0  0  0  0 
  4  3  1  0  0  0  0 
  5 11  1  0  0  0  0 
  5 28  1  0  0  0  0 
  6 29  1  0  0  0  0 
  7 13  2  0  0  0  0 
  7  4  1  0  0  0  0 
  8 31  1  1  0  0  0 
  8 10  1  0  0  0  0 
  9 16  1  0  0  0  0 
  9  8  1  0  0  0  0 
 10  1  1  0  0  0  0 
 10  6  1  0  0  0  0 
 10  2  1  0  0  0  0 
 11  9  2  0  0  0  0 
 12 32  1  0  0  0  0 
 12  6  1  0  0  0  0 
 14  7  1  0  0  0  0 
 15  8  1  0  0  0  0 
 16 35  1  0  0  0  0 
 18  1  1  0  0  0  0 
 19  1  1  0  0  0  0 
 21  2  1  0  0  0  0 
 23  3  1  0  0  0  0 
 26  4  1  0  0  0  0 
 27  5  1  0  0  0  0 
 30  6  1  0  0  0  0 
 33 14  1  0  0  0  0 
 34 15  1  0  0  0  0 
M  END 
>  <HBA> 
6 
 
>  <HBD> 
4 
 
>  <TPSA> 
106.86 
 
>  <cid> 
2527 
 
>  <dipole> 
4.63 
 
>  <excitation_energy_1> 
5.084 
 
>  <excitation_energy_2> 
5.437 
 
>  <excitation_energy_3> 
5.584 
 
>  <excitation_energy_4> 
5.789 
 
>  <homo_energy> 
-6.261 
 
>  <homo_lumo_gap> 
6.626 
 
>  <logP> 
-0.262 
 
>  <lumo_energy> 
0.365 
 
>  <melting_point> 
152.43 
 
>  <molecular_refractivity> 
57.02 
 
>  <oscillator_strength_1> 
0.0004 
 
>  <oscillator_strength_2> 
0.0015 
 
>  <oscillator_strength_3> 
0.0002 
 
>  <oscillator_strength_4> 
0.0067 
 
>  <open_babel_can_smiles> 
OCC([C@@H](/C(=N\CCCC(=O)O)/O)O)(C)C 
 
>  <mulliken_charges> 
35 
1   -0.465586 
2   -0.464029 
3   -0.250305 
4   -0.354115 
5   -0.145749 
6   -0.04877 
7   0.575634 
8   0.074028 
9   0.405877 
10   0.033022 
11   -0.413417 
12   -0.634253 
13   -0.471624 
14   -0.569362 
15   -0.619854 
16   -0.624629 
17   0.147755 
18   0.163261 
19   0.150569 
20   0.143607 
21   0.184626 
22   0.137786 
23   0.144021 
24   0.130583 
25   0.207441 
26   0.167191 
27   0.170243 
28   0.123094 
29   0.146066 
30   0.138284 
31   0.145242 
32   0.415769 
33   0.40343 
34   0.40457 
35   0.449594 
 
>  <lowdin_charges> 
35 
1   -0.452432 
2   -0.443834 
3   -0.273368 
4   -0.307316 
5   -0.204176 
6   -0.138238 
7   0.200912 
8   -0.033071 
9   0.09207 
10   -0.016484 
11   -0.209282 
12   -0.455348 
13   -0.276933 
14   -0.364688 
15   -0.446312 
16   -0.394309 
17   0.153999 
18   0.159577 
19   0.153571 
20   0.148678 
21   0.170682 
22   0.146854 
23   0.150224 
24   0.143533 
25   0.185208 
26   0.17013 
27   0.155705 
28   0.132356 
29   0.142259 
30   0.13896 
31   0.15098 
32   0.358124 
33   0.356353 
34   0.351916 
35   0.353699 
 
$$$$ 
 
