PCCDB-ID:  3123 
public computational chemistry database (PCCDB) project, http://pccdb.org 
 
 33 32  0  0  1  0  0  0  0  0999 V2000 
   -0.1934    0.0670   -1.5082 C   0  0  0  0  0  0  0  0  0  0  0  0 
    0.5263   -0.0702   -2.8570 C   0  0  0  0  0  0  0  0  0  0  0  0 
   -0.2714   -1.2633   -0.7403 C   0  0  0  0  0  0  0  0  0  0  0  0 
    0.5251    1.2054   -3.7160 C   0  0  0  0  0  0  0  0  0  0  0  0 
   -0.9694   -1.1915    0.6341 C   0  0  0  0  0  0  0  0  0  0  0  0 
    1.3156    2.3700   -3.0950 C   0  0  0  0  0  0  0  0  0  0  0  0 
   -0.0741   -0.8893    1.8589 C   0  0  1  0  0  0  0  0  0  0  0  0 
    0.6472    0.4607    1.7053 C   0  0  0  0  0  0  0  0  0  0  0  0 
   -0.9015   -0.9321    3.0634 N   0  0  0  0  0  0  0  0  0  0  0  0 
    0.1568    1.5117    2.0392 O   0  0  0  0  0  0  0  0  0  0  0  0 
    1.8896    0.4363    1.1468 O   0  0  0  0  0  0  0  0  0  0  0  0 
    2.2822    4.8891   -3.3035 O   0  0  0  0  0  0  0  0  0  0  0  0 
    2.2610    3.3653   -5.3730 O   0  0  0  0  0  0  0  0  0  0  0  0 
    0.0269    4.4579   -4.5256 O   0  0  0  0  0  0  0  0  0  0  0  0 
    1.3281    3.8545   -4.1320 P   0  0  0  0  0  0  0  0  0  0  0  0 
   -1.2163    0.4319   -1.6802 H   0  0  0  0  0  0  0  0  0  0  0  0 
    0.3045    0.8273   -0.8971 H   0  0  0  0  0  0  0  0  0  0  0  0 
    0.0489   -0.8741   -3.4349 H   0  0  0  0  0  0  0  0  0  0  0  0 
    1.5648   -0.3922   -2.6878 H   0  0  0  0  0  0  0  0  0  0  0  0 
    0.7396   -1.6875   -0.6273 H   0  0  0  0  0  0  0  0  0  0  0  0 
   -0.8144   -1.9853   -1.3638 H   0  0  0  0  0  0  0  0  0  0  0  0 
   -0.5081    1.5290   -3.8947 H   0  0  0  0  0  0  0  0  0  0  0  0 
    0.9545    0.9741   -4.6980 H   0  0  0  0  0  0  0  0  0  0  0  0 
   -1.4556   -2.1453    0.8631 H   0  0  0  0  0  0  0  0  0  0  0  0 
   -1.7667   -0.4361    0.6037 H   0  0  0  0  0  0  0  0  0  0  0  0 
    2.3582    2.0841   -2.9076 H   0  0  0  0  0  0  0  0  0  0  0  0 
    0.8931    2.6776   -2.1320 H   0  0  0  0  0  0  0  0  0  0  0  0 
    0.6737   -1.6916    1.9407 H   0  0  0  0  0  0  0  0  0  0  0  0 
   -1.4889   -0.0968    3.0625 H   0  0  0  0  0  0  0  0  0  0  0  0 
   -0.3078   -0.8361    3.8871 H   0  0  0  0  0  0  0  0  0  0  0  0 
    2.1400   -0.4802    0.9445 H   0  0  0  0  0  0  0  0  0  0  0  0 
    1.8045    5.7261   -3.1799 H   0  0  0  0  0  0  0  0  0  0  0  0 
    2.1184    3.9340   -6.1491 H   0  0  0  0  0  0  0  0  0  0  0  0 
  1 17  1  0  0  0  0 
  1  3  1  0  0  0  0 
  2 19  1  0  0  0  0 
  2  1  1  0  0  0  0 
  3 20  1  0  0  0  0 
  3  5  1  0  0  0  0 
  4  6  1  0  0  0  0 
  4  2  1  0  0  0  0 
  5 24  1  0  0  0  0 
  5  7  1  0  0  0  0 
  6 26  1  0  0  0  0 
  6 27  1  0  0  0  0 
  7 28  1  1  0  0  0 
  7  9  1  0  0  0  0 
  8  7  1  0  0  0  0 
  8 10  2  0  0  0  0 
  9 30  1  0  0  0  0 
 11  8  1  0  0  0  0 
 12 32  1  0  0  0  0 
 13 15  1  0  0  0  0 
 14 15  2  0  0  0  0 
 15 12  1  0  0  0  0 
 15  6  1  0  0  0  0 
 16  1  1  0  0  0  0 
 18  2  1  0  0  0  0 
 21  3  1  0  0  0  0 
 22  4  1  0  0  0  0 
 23  4  1  0  0  0  0 
 25  5  1  0  0  0  0 
 29  9  1  0  0  0  0 
 31 11  1  0  0  0  0 
 33 13  1  0  0  0  0 
M  END 
>  <HBA> 
6 
 
>  <HBD> 
4 
 
>  <TPSA> 
130.66 
 
>  <cid> 
3123 
 
>  <dipole> 
3.6 
 
>  <excitation_energy_1> 
5.412 
 
>  <excitation_energy_2> 
5.834 
 
>  <excitation_energy_3> 
5.977 
 
>  <excitation_energy_4> 
6.391 
 
>  <homo_energy> 
-6.83 
 
>  <homo_lumo_gap> 
6.808 
 
>  <logP> 
1.227 
 
>  <lumo_energy> 
-0.022 
 
>  <melting_point> 
189.85 
 
>  <molecular_refractivity> 
56.04 
 
>  <oscillator_strength_1> 
0.0059 
 
>  <oscillator_strength_2> 
0.0005 
 
>  <oscillator_strength_3> 
0.0098 
 
>  <oscillator_strength_4> 
0.0135 
 
>  <open_babel_can_smiles> 
N[C@H](C(=O)O)CCCCCCP(=O)(O)O 
 
>  <mulliken_charges> 
33 
1   -0.275824 
2   -0.258976 
3   -0.277569 
4   -0.279445 
5   -0.249947 
6   -0.475855 
7   -0.101706 
8   0.593769 
9   -0.693478 
10   -0.453105 
11   -0.570513 
12   -0.652549 
13   -0.654919 
14   -0.566027 
15   1.040894 
16   0.139899 
17   0.162916 
18   0.135786 
19   0.126911 
20   0.109649 
21   0.146335 
22   0.163853 
23   0.158136 
24   0.164711 
25   0.151761 
26   0.188075 
27   0.194879 
28   0.128733 
29   0.314869 
30   0.303079 
31   0.411192 
32   0.437794 
33   0.436674 
 
>  <lowdin_charges> 
33 
1   -0.287086 
2   -0.274034 
3   -0.281151 
4   -0.271871 
5   -0.276119 
6   -0.450914 
7   -0.109953 
8   0.175972 
9   -0.530707 
10   -0.246675 
11   -0.35681 
12   -0.58186 
13   -0.577195 
14   -0.608971 
15   1.043233 
16   0.143374 
17   0.152816 
18   0.145281 
19   0.136097 
20   0.12709 
21   0.151713 
22   0.156342 
23   0.156131 
24   0.162243 
25   0.153789 
26   0.181084 
27   0.183581 
28   0.140981 
29   0.26494 
30   0.259952 
31   0.354985 
32   0.38263 
33   0.381115 
 
$$$$ 
 
