PCCDB-ID:  6322 
public computational chemistry database (PCCDB) project, http://pccdb.org 
 
 26 25  0  0  1  0  0  0  0  0999 V2000 
    1.0971   -0.1039   -0.1025 C   0  0  0  0  0  0  0  0  0  0  0  0 
    0.4637   -1.0411    0.9349 C   0  0  0  0  0  0  0  0  0  0  0  0 
    2.6120    0.0627    0.1007 C   0  0  0  0  0  0  0  0  0  0  0  0 
   -1.0804   -1.1829    0.8405 C   0  0  1  0  0  0  0  0  0  0  0  0 
   -1.4412   -1.8821   -0.4767 C   0  0  0  0  0  0  0  0  0  0  0  0 
    2.9623    2.3218   -0.8884 C   0  0  0  0  0  0  0  0  0  0  0  0 
   -1.6907   -1.9555    1.9169 N   0  0  0  0  0  0  0  0  0  0  0  0 
    2.7526    2.8955   -2.0175 N   0  0  0  0  0  0  0  0  0  0  0  0 
    2.9168    2.9080    0.3854 N   0  0  0  0  0  0  0  0  0  0  0  0 
    3.2598    0.9578   -0.8608 N   0  0  0  0  0  0  0  0  0  0  0  0 
   -1.4842   -3.0830   -0.5854 O   0  0  0  0  0  0  0  0  0  0  0  0 
   -1.6535   -1.0879   -1.5547 O   0  0  0  0  0  0  0  0  0  0  0  0 
    0.6315    0.8897   -0.0405 H   0  0  0  0  0  0  0  0  0  0  0  0 
    0.9166   -0.4793   -1.1182 H   0  0  0  0  0  0  0  0  0  0  0  0 
    0.6904   -0.6674    1.9440 H   0  0  0  0  0  0  0  0  0  0  0  0 
    0.9017   -2.0456    0.8633 H   0  0  0  0  0  0  0  0  0  0  0  0 
    3.1101   -0.9108    0.0218 H   0  0  0  0  0  0  0  0  0  0  0  0 
    2.8067    0.4300    1.1137 H   0  0  0  0  0  0  0  0  0  0  0  0 
   -1.5155   -0.1712    0.8477 H   0  0  0  0  0  0  0  0  0  0  0  0 
   -1.2302   -1.7515    2.8014 H   0  0  0  0  0  0  0  0  0  0  0  0 
   -1.5564   -2.9458    1.7159 H   0  0  0  0  0  0  0  0  0  0  0  0 
    2.6915    3.9103   -1.9106 H   0  0  0  0  0  0  0  0  0  0  0  0 
    2.8937    3.9204    0.3601 H   0  0  0  0  0  0  0  0  0  0  0  0 
    3.6337    2.5727    1.0210 H   0  0  0  0  0  0  0  0  0  0  0  0 
    3.2353    0.6065   -1.8133 H   0  0  0  0  0  0  0  0  0  0  0  0 
   -1.6107   -0.1535   -1.2923 H   0  0  0  0  0  0  0  0  0  0  0  0 
  1 13  1  0  0  0  0 
  1  3  1  0  0  0  0 
  1  2  1  0  0  0  0 
  2 15  1  0  0  0  0 
  3 18  1  0  0  0  0 
  4 19  1  6  0  0  0 
  4  2  1  0  0  0  0 
  4  7  1  0  0  0  0 
  5  4  1  0  0  0  0 
  6 10  1  0  0  0  0 
  6  9  2  0  0  0  0 
  7 20  1  0  0  0  0 
  8 22  1  0  0  0  0 
  8  6  1  0  0  0  0 
  9 24  1  0  0  0  0 
 10  3  1  0  0  0  0 
 11  5  2  0  0  0  0 
 12 26  1  0  0  0  0 
 12  5  1  0  0  0  0 
 14  1  1  0  0  0  0 
 16  2  1  0  0  0  0 
 17  3  1  0  0  0  0 
 21  7  1  0  0  0  0 
 23  9  1  0  0  0  0 
 25 10  1  0  0  0  0 
M  RAD  1   8   2 
M  END 
>  <HBA> 
6 
 
>  <HBD> 
4 
 
>  <TPSA> 
127.72 
 
>  <cid> 
6322 
 
>  <dipole> 
5.96 
 
>  <excitation_energy_1> 
5.211 
 
>  <excitation_energy_2> 
5.404 
 
>  <excitation_energy_3> 
5.625 
 
>  <excitation_energy_4> 
5.729 
 
>  <homo_energy> 
-6.153 
 
>  <homo_lumo_gap> 
6.253 
 
>  <logP> 
0.553 
 
>  <lumo_energy> 
0.101 
 
>  <melting_point> 
231.21 
 
>  <molecular_refractivity> 
44.53 
 
>  <oscillator_strength_1> 
0.0022 
 
>  <oscillator_strength_2> 
0.0053 
 
>  <oscillator_strength_3> 
0.0074 
 
>  <oscillator_strength_4> 
0.0012 
 
>  <open_babel_can_smiles> 
[NH]C(=[NH2])NCCC[C@@H](C(=O)O)N 
 
>  <mulliken_charges> 
26 
1   -0.289672 
2   -0.276046 
3   -0.142588 
4   -0.067202 
5   0.612278 
6   0.544714 
7   -0.717664 
8   -0.634964 
9   -0.742013 
10   -0.571979 
11   -0.4495 
12   -0.560973 
13   0.149106 
14   0.153639 
15   0.137335 
16   0.153889 
17   0.153108 
18   0.144289 
19   0.130517 
20   0.296361 
21   0.322226 
22   0.262453 
23   0.321642 
24   0.327504 
25   0.328723 
26   0.414817 
 
>  <lowdin_charges> 
26 
1   -0.300947 
2   -0.287496 
3   -0.198727 
4   -0.101273 
5   0.192459 
6   0.120087 
7   -0.542338 
8   -0.473778 
9   -0.507266 
10   -0.307076 
11   -0.240012 
12   -0.340698 
13   0.147877 
14   0.148917 
15   0.14362 
16   0.151346 
17   0.150765 
18   0.144917 
19   0.137665 
20   0.255582 
21   0.268146 
22   0.242449 
23   0.274688 
24   0.280758 
25   0.281023 
26   0.35931 
 
$$$$ 
 
