PCCDB-ID:  4498 
public computational chemistry database (PCCDB) project, http://pccdb.org 
 
 20 20  0  0  1  0  0  0  0  0999 V2000 
    0.7568    1.2359   -0.3083 C   0  0  0  0  0  0  0  0  0  0  0  0 
    1.4642   -0.0343    0.1869 C   0  0  0  0  0  0  0  0  0  0  0  0 
   -0.7084    1.2639    0.1626 C   0  0  0  0  0  0  0  0  0  0  0  0 
   -0.8025   -1.1661    0.2740 C   0  0  0  0  0  0  0  0  0  0  0  0 
    0.6595   -1.2995   -0.2058 C   0  0  2  0  0  0  0  0  0  0  0  0 
    1.3141   -2.5555    0.3599 C   0  0  0  0  0  0  0  0  0  0  0  0 
   -1.4666    0.0568   -0.1752 N   0  0  0  0  0  0  0  0  0  0  0  0 
    0.8841   -3.1946    1.2878 O   0  0  0  0  0  0  0  0  0  0  0  0 
    2.4815   -2.9339   -0.2375 O   0  0  0  0  0  0  0  0  0  0  0  0 
    0.7849    1.2672   -1.4077 H   0  0  0  0  0  0  0  0  0  0  0  0 
    1.2901    2.1265    0.0484 H   0  0  0  0  0  0  0  0  0  0  0  0 
    1.5516   -0.0048    1.2819 H   0  0  0  0  0  0  0  0  0  0  0  0 
    2.4884   -0.0833   -0.2062 H   0  0  0  0  0  0  0  0  0  0  0  0 
   -1.2325    2.1304   -0.2564 H   0  0  0  0  0  0  0  0  0  0  0  0 
   -0.7350    1.3744    1.2561 H   0  0  0  0  0  0  0  0  0  0  0  0 
   -0.8095   -1.1833    1.3702 H   0  0  0  0  0  0  0  0  0  0  0  0 
   -1.3894   -2.0298   -0.0542 H   0  0  0  0  0  0  0  0  0  0  0  0 
    0.6609   -1.3776   -1.3060 H   0  0  0  0  0  0  0  0  0  0  0  0 
   -1.6091    0.0180   -1.1841 H   0  0  0  0  0  0  0  0  0  0  0  0 
    2.6888   -2.3297   -0.9694 H   0  0  0  0  0  0  0  0  0  0  0  0 
  1 11  1  0  0  0  0 
  1  3  1  0  0  0  0 
  1  2  1  0  0  0  0 
  2 12  1  0  0  0  0 
  3 15  1  0  0  0  0 
  4 16  1  0  0  0  0 
  5 18  1  6  0  0  0 
  5  2  1  0  0  0  0 
  5  4  1  0  0  0  0 
  5  6  1  0  0  0  0 
  6  8  2  0  0  0  0 
  7  3  1  0  0  0  0 
  7  4  1  0  0  0  0 
  9  6  1  0  0  0  0 
 10  1  1  0  0  0  0 
 13  2  1  0  0  0  0 
 14  3  1  0  0  0  0 
 17  4  1  0  0  0  0 
 19  7  1  0  0  0  0 
 20  9  1  0  0  0  0 
M  END 
>  <HBA> 
3 
 
>  <HBD> 
2 
 
>  <TPSA> 
49.33 
 
>  <cid> 
4498 
 
>  <dipole> 
4.81 
 
>  <excitation_energy_1> 
4.991 
 
>  <excitation_energy_2> 
5.304 
 
>  <excitation_energy_3> 
5.579 
 
>  <excitation_energy_4> 
5.704 
 
>  <homo_energy> 
-6.055 
 
>  <homo_lumo_gap> 
6.289 
 
>  <logP> 
0.399 
 
>  <lumo_energy> 
0.234 
 
>  <melting_point> 
100.35 
 
>  <molecular_refractivity> 
37.33 
 
>  <oscillator_strength_1> 
0.0102 
 
>  <oscillator_strength_2> 
0.0053 
 
>  <oscillator_strength_3> 
0.0053 
 
>  <oscillator_strength_4> 
0.0067 
 
>  <open_babel_can_smiles> 
OC(=O)[C@@H]1CCCNC1 
 
>  <mulliken_charges> 
20 
1   -0.263284 
2   -0.269711 
3   -0.147485 
4   -0.145077 
5   -0.229872 
6   0.616002 
7   -0.528348 
8   -0.443866 
9   -0.574655 
10   0.12558 
11   0.14052 
12   0.157798 
13   0.128728 
14   0.143164 
15   0.145882 
16   0.167852 
17   0.15445 
18   0.126317 
19   0.287907 
20   0.4081 
 
>  <lowdin_charges> 
20 
1   -0.292695 
2   -0.273572 
3   -0.207489 
4   -0.204819 
5   -0.187518 
6   0.196341 
7   -0.351987 
8   -0.237622 
9   -0.360963 
10   0.134324 
11   0.151072 
12   0.150649 
13   0.139174 
14   0.149418 
15   0.141708 
16   0.155207 
17   0.15648 
18   0.138402 
19   0.2469 
20   0.35699 
 
$$$$ 
 
