PCCDB-ID:  2015 
public computational chemistry database (PCCDB) project, http://pccdb.org 
 
 24 26  0  0  0  0  0  0  0  0999 V2000 
   -3.6749   -0.6747    0.0331 C   0  0  0  0  0  0  0  0  0  0  0  0 
    3.6835   -0.6502    0.0333 C   0  0  0  0  0  0  0  0  0  0  0  0 
   -3.6334    0.7304    0.0319 C   0  0  0  0  0  0  0  0  0  0  0  0 
    3.6328    0.7547    0.0321 C   0  0  0  0  0  0  0  0  0  0  0  0 
   -2.4889   -1.3907    0.0320 C   0  0  0  0  0  0  0  0  0  0  0  0 
    2.5024   -1.3741    0.0322 C   0  0  0  0  0  0  0  0  0  0  0  0 
   -2.4226    1.4047    0.0303 C   0  0  0  0  0  0  0  0  0  0  0  0 
    2.4175    1.4209    0.0304 C   0  0  0  0  0  0  0  0  0  0  0  0 
   -1.2461   -0.7348    0.0302 C   0  0  0  0  0  0  0  0  0  0  0  0 
    1.2553   -0.7265    0.0303 C   0  0  0  0  0  0  0  0  0  0  0  0 
   -1.2167    0.6776    0.0303 C   0  0  0  0  0  0  0  0  0  0  0  0 
    1.2165    0.6857    0.0303 C   0  0  0  0  0  0  0  0  0  0  0  0 
    0.0072   -1.5196    0.0283 C   0  0  0  0  0  0  0  0  0  0  0  0 
   -0.0023    1.3358    0.0299 N   0  0  0  0  0  0  0  0  0  0  0  0 
    0.0113   -2.7519    0.0258 O   0  0  0  0  0  0  0  0  0  0  0  0 
   -4.6299   -1.1912    0.0345 H   0  0  0  0  0  0  0  0  0  0  0  0 
    4.6420   -1.1604    0.0348 H   0  0  0  0  0  0  0  0  0  0  0  0 
   -4.5589    1.3001    0.0328 H   0  0  0  0  0  0  0  0  0  0  0  0 
    4.5544    1.3305    0.0331 H   0  0  0  0  0  0  0  0  0  0  0  0 
   -2.4762   -2.4761    0.0319 H   0  0  0  0  0  0  0  0  0  0  0  0 
    2.4969   -2.4595    0.0320 H   0  0  0  0  0  0  0  0  0  0  0  0 
   -2.3952    2.4923    0.0295 H   0  0  0  0  0  0  0  0  0  0  0  0 
    2.3828    2.5082    0.0297 H   0  0  0  0  0  0  0  0  0  0  0  0 
   -0.0057    2.3464    0.0261 H   0  0  0  0  0  0  0  0  0  0  0  0 
  1 16  1  0  0  0  0 
  2 17  1  0  0  0  0 
  3 18  1  0  0  0  0 
  3  1  1  0  0  0  0 
  4 19  1  0  0  0  0 
  4  2  1  0  0  0  0 
  5  1  2  0  0  0  0 
  6  2  2  0  0  0  0 
  7  3  2  0  0  0  0 
  8  4  2  0  0  0  0 
  9 11  2  0  0  0  0 
  9  5  1  0  0  0  0 
 10 12  2  0  0  0  0 
 10  6  1  0  0  0  0 
 11  7  1  0  0  0  0 
 12  8  1  0  0  0  0 
 13  9  1  0  0  0  0 
 13 10  1  0  0  0  0 
 14 11  1  0  0  0  0 
 14 12  1  0  0  0  0 
 15 13  2  0  0  0  0 
 20  5  1  0  0  0  0 
 21  6  1  0  0  0  0 
 22  7  1  0  0  0  0 
 23  8  1  0  0  0  0 
 24 14  1  0  0  0  0 
M  END 
>  <HBA> 
1 
 
>  <HBD> 
1 
 
>  <TPSA> 
32.86 
 
>  <cid> 
2015 
 
>  <dipole> 
4.95 
 
>  <excitation_energy_1> 
3.559 
 
>  <excitation_energy_2> 
3.596 
 
>  <excitation_energy_3> 
4.392 
 
>  <excitation_energy_4> 
4.742 
 
>  <homo_energy> 
-5.619 
 
>  <homo_lumo_gap> 
4.112 
 
>  <logP> 
2.681 
 
>  <lumo_energy> 
-1.508 
 
>  <melting_point> 
175.71 
 
>  <molecular_refractivity> 
62.07 
 
>  <oscillator_strength_1> 
0.0786 
 
>  <oscillator_strength_2> 
0.0 
 
>  <oscillator_strength_3> 
0.0373 
 
>  <oscillator_strength_4> 
0.0239 
 
>  <open_babel_can_smiles> 
O=c1c2ccccc2[nH]c2c1cccc2 
 
>  <mulliken_charges> 
24 
1   -0.137775 
2   -0.137747 
3   -0.128693 
4   -0.128711 
5   -0.17896 
6   -0.178981 
7   -0.185392 
8   -0.185389 
9   0.03915 
10   0.039125 
11   0.352541 
12   0.352561 
13   0.380835 
14   -0.834811 
15   -0.520657 
16   0.134821 
17   0.134819 
18   0.13677 
19   0.136777 
20   0.165483 
21   0.165477 
22   0.126271 
23   0.126265 
24   0.326221 
 
>  <lowdin_charges> 
24 
1   -0.173925 
2   -0.173875 
3   -0.133498 
4   -0.133537 
5   -0.115986 
6   -0.115987 
7   -0.192012 
8   -0.192029 
9   -0.068718 
10   -0.068729 
11   0.063648 
12   0.063699 
13   0.134585 
14   -0.201674 
15   -0.289716 
16   0.161438 
17   0.161399 
18   0.162426 
19   0.162461 
20   0.177116 
21   0.177115 
22   0.154011 
23   0.154018 
24   0.287769 
 
$$$$ 
 
