PCCDB-ID:  1983 
public computational chemistry database (PCCDB) project, http://pccdb.org 
 
 20 20  0  0  0  0  0  0  0  0999 V2000 
    1.1923    0.1582   -1.6597 C   0  0  0  0  0  0  0  0  0  0  0  0 
    2.8122    3.4331    0.1318 C   0  0  0  0  0  0  0  0  0  0  0  0 
    0.5534    2.6263    0.3584 C   0  0  0  0  0  0  0  0  0  0  0  0 
    2.3408    4.7431    0.0993 C   0  0  0  0  0  0  0  0  0  0  0  0 
    0.0775    3.9352    0.3425 C   0  0  0  0  0  0  0  0  0  0  0  0 
    2.1072    0.1112   -0.4545 C   0  0  0  0  0  0  0  0  0  0  0  0 
    1.9272    2.3491    0.2381 C   0  0  0  0  0  0  0  0  0  0  0  0 
    0.9699    5.0014    0.2054 C   0  0  0  0  0  0  0  0  0  0  0  0 
    2.4559    1.0499    0.3242 N   0  0  0  0  0  0  0  0  0  0  0  0 
    2.6503   -1.1158   -0.1970 O   0  0  0  0  0  0  0  0  0  0  0  0 
    0.4483    6.2699    0.1896 O   0  0  0  0  0  0  0  0  0  0  0  0 
    0.2909   -0.4443   -1.4907 H   0  0  0  0  0  0  0  0  0  0  0  0 
    1.7084   -0.2546   -2.5362 H   0  0  0  0  0  0  0  0  0  0  0  0 
    0.8865    1.1807   -1.8835 H   0  0  0  0  0  0  0  0  0  0  0  0 
    3.8774    3.2326    0.0692 H   0  0  0  0  0  0  0  0  0  0  0  0 
   -0.1440    1.8045    0.4960 H   0  0  0  0  0  0  0  0  0  0  0  0 
    3.0442    5.5691    0.0043 H   0  0  0  0  0  0  0  0  0  0  0  0 
   -0.9826    4.1462    0.4441 H   0  0  0  0  0  0  0  0  0  0  0  0 
    2.3527   -1.7438   -0.8730 H   0  0  0  0  0  0  0  0  0  0  0  0 
    1.1766    6.9048    0.1086 H   0  0  0  0  0  0  0  0  0  0  0  0 
  1 12  1  0  0  0  0 
  1  6  1  0  0  0  0 
  2  7  1  0  0  0  0 
  3 16  1  0  0  0  0 
  4  2  2  0  0  0  0 
  4  8  1  0  0  0  0 
  5  3  1  0  0  0  0 
  5 18  1  0  0  0  0 
  6 10  1  0  0  0  0 
  6  9  2  0  0  0  0 
  7  9  1  0  0  0  0 
  7  3  2  0  0  0  0 
  8  5  2  0  0  0  0 
 11  8  1  0  0  0  0 
 13  1  1  0  0  0  0 
 14  1  1  0  0  0  0 
 15  2  1  0  0  0  0 
 17  4  1  0  0  0  0 
 19 10  1  0  0  0  0 
 20 11  1  0  0  0  0 
M  END 
>  <HBA> 
3 
 
>  <HBD> 
2 
 
>  <TPSA> 
49.33 
 
>  <cid> 
1983 
 
>  <dipole> 
3.21 
 
>  <excitation_energy_1> 
4.485 
 
>  <excitation_energy_2> 
4.632 
 
>  <excitation_energy_3> 
4.653 
 
>  <excitation_energy_4> 
4.782 
 
>  <homo_energy> 
-5.295 
 
>  <homo_lumo_gap> 
5.279 
 
>  <logP> 
1.424 
 
>  <lumo_energy> 
-0.016 
 
>  <melting_point> 
99.57 
 
>  <molecular_refractivity> 
42.78 
 
>  <oscillator_strength_1> 
0.0953 
 
>  <oscillator_strength_2> 
0.0498 
 
>  <oscillator_strength_3> 
0.0597 
 
>  <oscillator_strength_4> 
0.0024 
 
>  <open_babel_can_smiles> 
Oc1ccc(cc1)/N=C(/O)\C 
 
>  <mulliken_charges> 
20 
1   -0.556322 
2   -0.156368 
3   -0.164707 
4   -0.20175 
5   -0.169237 
6   0.480549 
7   0.238886 
8   0.349015 
9   -0.471582 
10   -0.571094 
11   -0.648323 
12   0.176477 
13   0.16713 
14   0.19838 
15   0.135999 
16   0.126127 
17   0.117581 
18   0.137641 
19   0.406324 
20   0.405272 
 
>  <lowdin_charges> 
20 
1   -0.48511 
2   -0.158093 
3   -0.177724 
4   -0.2104 
5   -0.182653 
6   0.145257 
7   0.028909 
8   0.092666 
9   -0.174674 
10   -0.364813 
11   -0.38683 
12   0.170433 
13   0.166423 
14   0.183322 
15   0.163157 
16   0.158528 
17   0.153569 
18   0.164811 
19   0.3563 
20   0.35692 
 
$$$$ 
 
