PCCDB-ID:  5055 
public computational chemistry database (PCCDB) project, http://pccdb.org 
 
 19 19  0  0  0  0  0  0  0  0999 V2000 
    2.0256   -2.3525   -1.2925 C   0  0  0  0  0  0  0  0  0  0  0  0 
    7.7349   -2.0449   -0.3534 C   0  0  0  0  0  0  0  0  0  0  0  0 
    8.2568   -0.8001   -0.7062 C   0  0  0  0  0  0  0  0  0  0  0  0 
    6.3659   -2.3017   -0.4136 C   0  0  0  0  0  0  0  0  0  0  0  0 
    6.0155   -0.0241   -1.2032 C   0  0  0  0  0  0  0  0  0  0  0  0 
    3.5235   -2.5050   -1.4019 C   0  0  0  0  0  0  0  0  0  0  0  0 
    7.3906    0.2130   -1.1303 C   0  0  0  0  0  0  0  0  0  0  0  0 
    5.5239   -1.2753   -0.8462 C   0  0  0  0  0  0  0  0  0  0  0  0 
    4.1064   -3.4443   -1.8827 O   0  0  0  0  0  0  0  0  0  0  0  0 
    7.8260    1.4590   -1.4875 O   0  0  0  0  0  0  0  0  0  0  0  0 
    4.1328   -1.3977   -0.8696 O   0  0  0  0  0  0  0  0  0  0  0  0 
    1.5412   -3.2374   -1.7061 H   0  0  0  0  0  0  0  0  0  0  0  0 
    1.6977   -1.4598   -1.8351 H   0  0  0  0  0  0  0  0  0  0  0  0 
    1.7359   -2.2220   -0.2447 H   0  0  0  0  0  0  0  0  0  0  0  0 
    8.4092   -2.8303   -0.0240 H   0  0  0  0  0  0  0  0  0  0  0  0 
    9.3278   -0.6158   -0.6509 H   0  0  0  0  0  0  0  0  0  0  0  0 
    5.9657   -3.2702   -0.1462 H   0  0  0  0  0  0  0  0  0  0  0  0 
    5.3416    0.7602   -1.5287 H   0  0  0  0  0  0  0  0  0  0  0  0 
    8.7916    1.4897   -1.4036 H   0  0  0  0  0  0  0  0  0  0  0  0 
  1 14  1  0  0  0  0 
  2 15  1  0  0  0  0 
  3 16  1  0  0  0  0 
  3  2  2  0  0  0  0 
  4  2  1  0  0  0  0 
  4 17  1  0  0  0  0 
  5  7  2  0  0  0  0 
  5  8  1  0  0  0  0 
  6  1  1  0  0  0  0 
  6 11  1  0  0  0  0 
  7  3  1  0  0  0  0 
  8  4  2  0  0  0  0 
  9  6  2  0  0  0  0 
 10 19  1  0  0  0  0 
 10  7  1  0  0  0  0 
 11  8  1  0  0  0  0 
 12  1  1  0  0  0  0 
 13  1  1  0  0  0  0 
 18  5  1  0  0  0  0 
M  END 
>  <HBA> 
3 
 
>  <HBD> 
1 
 
>  <TPSA> 
46.53 
 
>  <cid> 
5055 
 
>  <dipole> 
1.55 
 
>  <excitation_energy_1> 
4.923 
 
>  <excitation_energy_2> 
5.313 
 
>  <excitation_energy_3> 
5.418 
 
>  <excitation_energy_4> 
5.556 
 
>  <homo_energy> 
-6.082 
 
>  <homo_lumo_gap> 
5.793 
 
>  <logP> 
1.317 
 
>  <lumo_energy> 
-0.288 
 
>  <melting_point> 
70.12 
 
>  <molecular_refractivity> 
39.96 
 
>  <oscillator_strength_1> 
0.0366 
 
>  <oscillator_strength_2> 
0.0004 
 
>  <oscillator_strength_3> 
0.0166 
 
>  <oscillator_strength_4> 
0.0371 
 
>  <open_babel_can_smiles> 
CC(=O)Oc1cccc(c1)O 
 
>  <mulliken_charges> 
19 
1   -0.525328 
2   -0.148067 
3   -0.189809 
4   -0.145321 
5   -0.206853 
6   0.592426 
7   0.351145 
8   0.349611 
9   -0.443158 
10   -0.642886 
11   -0.516284 
12   0.184728 
13   0.186023 
14   0.185279 
15   0.138106 
16   0.119785 
17   0.152245 
18   0.149383 
19   0.408976 
 
>  <lowdin_charges> 
19 
1   -0.463801 
2   -0.138701 
3   -0.219587 
4   -0.19164 
5   -0.203272 
6   0.211068 
7   0.108912 
8   0.115484 
9   -0.24002 
10   -0.374332 
11   -0.167281 
12   0.177491 
13   0.180776 
14   0.17872 
15   0.16382 
16   0.15316 
17   0.174785 
18   0.177855 
19   0.356561 
 
$$$$ 
 
