PCCDB-ID:  236 
public computational chemistry database (PCCDB) project, http://pccdb.org 
 
 17 16  0  0  1  0  0  0  0  0999 V2000 
    0.6758    0.2940    0.5416 C   0  0  0  0  0  0  0  0  0  0  0  0 
    0.0996   -0.8027    1.4693 C   0  0  1  0  0  0  0  0  0  0  0  0 
    0.0259    1.6736    0.6733 C   0  0  0  0  0  0  0  0  0  0  0  0 
    0.7446   -0.7865    2.8670 C   0  0  0  0  0  0  0  0  0  0  0  0 
   -1.3606   -0.6973    1.5421 N   0  0  0  0  0  0  0  0  0  0  0  0 
   -0.4844    2.3513   -0.2732 N   0  0  0  0  0  0  0  0  0  0  0  0 
   -0.0060    2.1981    1.9207 O   0  0  0  0  0  0  0  0  0  0  0  0 
    1.1125    0.2171    3.4456 O   0  0  0  0  0  0  0  0  0  0  0  0 
    0.8231   -1.9742    3.5064 O   0  0  0  0  0  0  0  0  0  0  0  0 
    0.5421   -0.0410   -0.4897 H   0  0  0  0  0  0  0  0  0  0  0  0 
    1.7552    0.3833    0.7207 H   0  0  0  0  0  0  0  0  0  0  0  0 
    0.3311   -1.7731    1.0072 H   0  0  0  0  0  0  0  0  0  0  0  0 
   -1.6246    0.2014    1.9450 H   0  0  0  0  0  0  0  0  0  0  0  0 
   -1.7611   -1.4264    2.1294 H   0  0  0  0  0  0  0  0  0  0  0  0 
   -0.4330    1.8275   -1.1474 H   0  0  0  0  0  0  0  0  0  0  0  0 
    0.5162    1.6401    2.5385 H   0  0  0  0  0  0  0  0  0  0  0  0 
    0.5549   -2.6967    2.9143 H   0  0  0  0  0  0  0  0  0  0  0  0 
  1  3  1  0  0  0  0 
  1 11  1  0  0  0  0 
  1  2  1  0  0  0  0 
  2 12  1  6  0  0  0 
  2  5  1  0  0  0  0 
  2  4  1  0  0  0  0 
  3  7  1  0  0  0  0 
  4  8  2  0  0  0  0 
  4  9  1  0  0  0  0 
  5 13  1  0  0  0  0 
  5 14  1  0  0  0  0 
  6  3  2  0  0  0  0 
  7 16  1  0  0  0  0 
 10  1  1  0  0  0  0 
 15  6  1  0  0  0  0 
 17  9  1  0  0  0  0 
M  END 
>  <HBA> 
5 
 
>  <HBD> 
3 
 
>  <TPSA> 
106.41 
 
>  <cid> 
236 
 
>  <dipole> 
6.64 
 
>  <excitation_energy_1> 
5.053 
 
>  <excitation_energy_2> 
5.311 
 
>  <excitation_energy_3> 
5.375 
 
>  <excitation_energy_4> 
5.493 
 
>  <homo_energy> 
-6.944 
 
>  <homo_lumo_gap> 
6.104 
 
>  <logP> 
-0.326 
 
>  <lumo_energy> 
-0.841 
 
>  <melting_point> 
181.81 
 
>  <molecular_refractivity> 
28.73 
 
>  <oscillator_strength_1> 
0.021 
 
>  <oscillator_strength_2> 
0.0066 
 
>  <oscillator_strength_3> 
0.0067 
 
>  <oscillator_strength_4> 
0.0015 
 
>  <open_babel_can_smiles> 
OC(=N)C[C@@H](C(=O)O)N 
 
>  <mulliken_charges> 
17 
1   -0.351732 
2   -0.099895 
3   0.463601 
4   0.609816 
5   -0.695088 
6   -0.576427 
7   -0.60654 
8   -0.461336 
9   -0.552201 
10   0.164461 
11   0.17845 
12   0.144975 
13   0.33734 
14   0.305001 
15   0.279957 
16   0.44112 
17   0.418497 
 
>  <lowdin_charges> 
17 
1   -0.308501 
2   -0.104228 
3   0.121406 
4   0.187335 
5   -0.529003 
6   -0.396721 
7   -0.386499 
8   -0.251088 
9   -0.334949 
10   0.167487 
11   0.168619 
12   0.149495 
13   0.277023 
14   0.262637 
15   0.253984 
16   0.357855 
17   0.365149 
 
$$$$ 
 
