PCCDB-ID:  340 
public computational chemistry database (PCCDB) project, http://pccdb.org 
 
 17 17  0  0  0  0  0  0  0  0999 V2000 
    0.9194   -0.0276   -0.0584 C   0  0  0  0  0  0  0  0  0  0  0  0 
    4.5362    1.1239    0.3801 C   0  0  0  0  0  0  0  0  0  0  0  0 
    3.1529    1.1472    0.2338 C   0  0  0  0  0  0  0  0  0  0  0  0 
    5.2120   -0.0985    0.3928 C   0  0  0  0  0  0  0  0  0  0  0  0 
    2.4228   -0.0425    0.0985 C   0  0  0  0  0  0  0  0  0  0  0  0 
    4.5077   -1.2939    0.2589 C   0  0  0  0  0  0  0  0  0  0  0  0 
    3.1086   -1.2650    0.1108 C   0  0  0  0  0  0  0  0  0  0  0  0 
    5.1063   -2.5243    0.2624 O   0  0  0  0  0  0  0  0  0  0  0  0 
    2.4808   -2.4756   -0.0147 O   0  0  0  0  0  0  0  0  0  0  0  0 
    0.5390    0.9974   -0.0490 H   0  0  0  0  0  0  0  0  0  0  0  0 
    0.4114   -0.5665    0.7546 H   0  0  0  0  0  0  0  0  0  0  0  0 
    0.5952   -0.4810   -1.0067 H   0  0  0  0  0  0  0  0  0  0  0  0 
    5.0936    2.0501    0.4842 H   0  0  0  0  0  0  0  0  0  0  0  0 
    2.6208    2.0949    0.2230 H   0  0  0  0  0  0  0  0  0  0  0  0 
    6.2944   -0.1300    0.5074 H   0  0  0  0  0  0  0  0  0  0  0  0 
    6.0612   -2.3964    0.3715 H   0  0  0  0  0  0  0  0  0  0  0  0 
    1.5303   -2.3229   -0.1225 H   0  0  0  0  0  0  0  0  0  0  0  0 
  1 10  1  0  0  0  0 
  1  5  1  0  0  0  0 
  1 11  1  0  0  0  0 
  2  4  1  0  0  0  0 
  2 13  1  0  0  0  0 
  3  2  2  0  0  0  0 
  4 15  1  0  0  0  0 
  5  7  2  0  0  0  0 
  5  3  1  0  0  0  0 
  6  8  1  0  0  0  0 
  6  4  2  0  0  0  0 
  7  6  1  0  0  0  0 
  8 16  1  0  0  0  0 
  9  7  1  0  0  0  0 
 12  1  1  0  0  0  0 
 14  3  1  0  0  0  0 
 17  9  1  0  0  0  0 
M  END 
>  <HBA> 
2 
 
>  <HBD> 
2 
 
>  <TPSA> 
40.46 
 
>  <cid> 
340 
 
>  <dipole> 
1.3 
 
>  <excitation_energy_1> 
4.801 
 
>  <excitation_energy_2> 
4.921 
 
>  <excitation_energy_3> 
5.085 
 
>  <excitation_energy_4> 
5.493 
 
>  <homo_energy> 
-5.461 
 
>  <homo_lumo_gap> 
5.755 
 
>  <logP> 
1.406 
 
>  <lumo_energy> 
0.294 
 
>  <melting_point> 
89.1 
 
>  <molecular_refractivity> 
35.45 
 
>  <oscillator_strength_1> 
0.0014 
 
>  <oscillator_strength_2> 
0.0417 
 
>  <oscillator_strength_3> 
0.0001 
 
>  <oscillator_strength_4> 
0.0075 
 
>  <open_babel_can_smiles> 
Oc1c(C)cccc1O 
 
>  <mulliken_charges> 
17 
1   -0.578207 
2   -0.134374 
3   -0.198348 
4   -0.201989 
5   0.156123 
6   0.324816 
7   0.233232 
8   -0.633951 
9   -0.636538 
10   0.170539 
11   0.162357 
12   0.161311 
13   0.124302 
14   0.11682 
15   0.114817 
16   0.405611 
17   0.413481 
 
>  <lowdin_charges> 
17 
1   -0.453104 
2   -0.169327 
3   -0.181657 
4   -0.20845 
5   -0.044138 
6   0.077427 
7   0.067499 
8   -0.369665 
9   -0.371562 
10   0.166759 
11   0.157174 
12   0.155668 
13   0.157508 
14   0.153762 
15   0.1504 
16   0.35525 
17   0.356455 
 
$$$$ 
 
