PCCDB-ID:  8 
public computational chemistry database (PCCDB) project, http://pccdb.org 
 
 22 21  0  0  1  0  0  0  0  0999 V2000 
    0.5556   -0.2660   -0.2087 C   0  0  0  0  0  0  0  0  0  0  0  0 
    2.5501    1.9638   -1.2570 C   0  0  0  0  0  0  0  0  0  0  0  0 
    2.0651   -0.1707    0.0426 C   0  0  0  0  0  0  0  0  0  0  0  0 
    2.0975    2.1716    1.2138 C   0  0  2  0  0  0  0  0  0  0  0  0 
    1.9768    1.5237    2.6153 C   0  0  0  0  0  0  0  0  0  0  0  0 
    2.6625    1.2472    0.0986 C   0  0  2  0  0  0  0  0  0  0  0  0 
    2.9147    3.3456    1.3031 O   0  0  0  0  0  0  0  0  0  0  0  0 
    1.3532    0.5115    2.8368 O   0  0  0  0  0  0  0  0  0  0  0  0 
    2.5787    2.2284    3.5834 O   0  0  0  0  0  0  0  0  0  0  0  0 
    4.0600    1.1577    0.4726 O   0  0  0  0  0  0  0  0  0  0  0  0 
    0.2592   -1.3179   -0.2792 H   0  0  0  0  0  0  0  0  0  0  0  0 
    0.2520    0.2216   -1.1419 H   0  0  0  0  0  0  0  0  0  0  0  0 
   -0.0043    0.1732    0.6215 H   0  0  0  0  0  0  0  0  0  0  0  0 
    1.5060    2.0792   -1.5637 H   0  0  0  0  0  0  0  0  0  0  0  0 
    3.0597    1.3788   -2.0332 H   0  0  0  0  0  0  0  0  0  0  0  0 
    3.0033    2.9575   -1.2132 H   0  0  0  0  0  0  0  0  0  0  0  0 
    2.6007   -0.6990   -0.7609 H   0  0  0  0  0  0  0  0  0  0  0  0 
    2.3069   -0.6789    0.9781 H   0  0  0  0  0  0  0  0  0  0  0  0 
    1.0905    2.4984    0.9346 H   0  0  0  0  0  0  0  0  0  0  0  0 
    3.8103    3.0277    1.0678 H   0  0  0  0  0  0  0  0  0  0  0  0 
    2.9589    3.0172    3.1349 H   0  0  0  0  0  0  0  0  0  0  0  0 
    4.5417    0.7306   -0.2528 H   0  0  0  0  0  0  0  0  0  0  0  0 
  1  3  1  0  0  0  0 
  1 13  1  0  0  0  0 
  2 16  1  0  0  0  0 
  2  6  1  0  0  0  0 
  3  6  1  0  0  0  0 
  3 18  1  0  0  0  0 
  4 19  1  6  0  0  0 
  4  7  1  0  0  0  0 
  4  5  1  0  0  0  0 
  5  8  2  0  0  0  0 
  5  9  1  0  0  0  0 
  6 10  1  1  0  0  0 
  6  4  1  0  0  0  0 
 11  1  1  0  0  0  0 
 12  1  1  0  0  0  0 
 14  2  1  0  0  0  0 
 15  2  1  0  0  0  0 
 17  3  1  0  0  0  0 
 20  7  1  0  0  0  0 
 21  9  1  0  0  0  0 
 22 10  1  0  0  0  0 
M  END 
>  <HBA> 
4 
 
>  <HBD> 
3 
 
>  <TPSA> 
77.76 
 
>  <cid> 
8 
 
>  <dipole> 
4.79 
 
>  <excitation_energy_1> 
5.491 
 
>  <excitation_energy_2> 
6.234 
 
>  <excitation_energy_3> 
6.82 
 
>  <excitation_energy_4> 
6.935 
 
>  <homo_energy> 
-6.974 
 
>  <homo_lumo_gap> 
7.285 
 
>  <logP> 
-0.407 
 
>  <lumo_energy> 
0.31 
 
>  <melting_point> 
98.85 
 
>  <molecular_refractivity> 
35.09 
 
>  <oscillator_strength_1> 
0.0006 
 
>  <oscillator_strength_2> 
0.0037 
 
>  <oscillator_strength_3> 
0.0154 
 
>  <oscillator_strength_4> 
0.0119 
 
>  <open_babel_can_smiles> 
CC[C@@]([C@@H](C(=O)O)O)(O)C 
 
>  <mulliken_charges> 
22 
1   -0.462523 
2   -0.466719 
3   -0.259074 
4   0.037358 
5   0.599271 
6   0.260735 
7   -0.664591 
8   -0.462421 
9   -0.573788 
10   -0.665715 
11   0.153017 
12   0.136828 
13   0.173172 
14   0.160622 
15   0.139013 
16   0.164468 
17   0.113952 
18   0.183155 
19   0.180661 
20   0.422878 
21   0.426701 
22   0.403001 
 
>  <lowdin_charges> 
22 
1   -0.451101 
2   -0.460142 
3   -0.287902 
4   -0.047704 
5   0.173846 
6   0.112935 
7   -0.458552 
8   -0.252341 
9   -0.342015 
10   -0.469119 
11   0.157353 
12   0.143 
13   0.162767 
14   0.160556 
15   0.15057 
16   0.161126 
17   0.137102 
18   0.170281 
19   0.17202 
20   0.351893 
21   0.362958 
22   0.352469 
 
$$$$ 
 
