PCCDB-ID:  4156 
public computational chemistry database (PCCDB) project, http://pccdb.org 
 
 12 11  0  0  0  0  0  0  0  0999 V2000 
    2.5072    0.8139   -0.5683 C   0  0  0  0  0  0  0  0  0  0  0  0 
    2.4324   -2.8497    0.8877 C   0  0  0  0  0  0  0  0  0  0  0  0 
    2.2872   -2.0739   -1.6661 O   0  0  0  0  0  0  0  0  0  0  0  0 
    4.4262   -1.6160   -0.3957 O   0  0  0  0  0  0  0  0  0  0  0  0 
    2.3007   -0.3816    0.2196 O   0  0  0  0  0  0  0  0  0  0  0  0 
    2.9699   -1.7420   -0.4167 S   0  0  0  0  0  0  0  0  0  0  0  0 
    2.0093    1.6092   -0.0131 H   0  0  0  0  0  0  0  0  0  0  0  0 
    2.0530    0.7001   -1.5564 H   0  0  0  0  0  0  0  0  0  0  0  0 
    3.5756    1.0280   -0.6599 H   0  0  0  0  0  0  0  0  0  0  0  0 
    2.8022   -3.8429    0.6247 H   0  0  0  0  0  0  0  0  0  0  0  0 
    1.3426   -2.8437    0.9272 H   0  0  0  0  0  0  0  0  0  0  0  0 
    2.8648   -2.5167    1.8319 H   0  0  0  0  0  0  0  0  0  0  0  0 
  1  7  1  0  0  0  0 
  1  5  1  0  0  0  0 
  2 11  1  0  0  0  0 
  2 12  1  0  0  0  0 
  3  6  1  0  0  0  0 
  6  4  1  0  0  0  0 
  6  5  1  0  0  0  0 
  6  2  1  0  0  0  0 
  8  1  1  0  0  0  0 
  9  1  1  0  0  0  0 
 10  2  1  0  0  0  0 
M  RAD  2   3   2   4   2 
M  END 
>  <HBA> 
3 
 
>  <HBD> 
0 
 
>  <TPSA> 
51.75 
 
>  <cid> 
4156 
 
>  <dipole> 
2.98 
 
>  <excitation_energy_1> 
7.044 
 
>  <excitation_energy_2> 
7.543 
 
>  <excitation_energy_3> 
7.792 
 
>  <excitation_energy_4> 
7.832 
 
>  <homo_energy> 
-7.913 
 
>  <homo_lumo_gap> 
9.091 
 
>  <logP> 
0.673 
 
>  <lumo_energy> 
1.178 
 
>  <melting_point> 
-0.87 
 
>  <molecular_refractivity> 
21.78 
 
>  <oscillator_strength_1> 
0.0014 
 
>  <oscillator_strength_2> 
0.0133 
 
>  <oscillator_strength_3> 
0.0008 
 
>  <oscillator_strength_4> 
0.0077 
 
>  <open_babel_can_smiles> 
COS([O])([O])C 
 
>  <mulliken_charges> 
12 
1   -0.236633 
2   -0.636541 
3   -0.507207 
4   -0.507016 
5   -0.527788 
6   1.203537 
7   0.181819 
8   0.186287 
9   0.186218 
10   0.21945 
11   0.218914 
12   0.218961 
 
>  <lowdin_charges> 
12 
1   -0.279396 
2   -0.581526 
3   -0.577249 
4   -0.57631 
5   -0.422167 
6   1.336449 
7   0.172238 
8   0.165447 
9   0.164453 
10   0.200108 
11   0.197983 
12   0.199971 
 
$$$$ 
 
