PCCDB-ID:  5011 
public computational chemistry database (PCCDB) project, http://pccdb.org 
 
 31 33  0  0  0  0  0  0  0  0999 V2000 
    2.4422    0.5267    0.1078 C   0  0  0  0  0  0  0  0  0  0  0  0 
    2.2724   -0.8531    0.3731 C   0  0  0  0  0  0  0  0  0  0  0  0 
    1.3408    1.3186   -0.1410 C   0  0  0  0  0  0  0  0  0  0  0  0 
    1.0158   -1.4207    0.3880 C   0  0  0  0  0  0  0  0  0  0  0  0 
   -1.1432    1.5096   -0.3797 C   0  0  0  0  0  0  0  0  0  0  0  0 
   -2.3689    0.9037   -0.3531 C   0  0  0  0  0  0  0  0  0  0  0  0 
   -4.9509   -3.0671    0.8858 C   0  0  0  0  0  0  0  0  0  0  0  0 
   -6.1290   -1.1212    0.1224 C   0  0  0  0  0  0  0  0  0  0  0  0 
   -3.6837   -2.6147    0.1637 C   0  0  0  0  0  0  0  0  0  0  0  0 
   -4.8821   -0.6317   -0.6179 C   0  0  0  0  0  0  0  0  0  0  0  0 
    0.0392    0.7620   -0.1319 C   0  0  0  0  0  0  0  0  0  0  0  0 
   -0.1367   -0.6302    0.1362 C   0  0  0  0  0  0  0  0  0  0  0  0 
   -2.4475   -0.5056   -0.0735 C   0  0  0  0  0  0  0  0  0  0  0  0 
   -6.1272   -2.5807    0.1632 N   0  0  0  0  0  0  0  0  0  0  0  0 
   -1.3588   -1.2296    0.1508 N   0  0  0  0  0  0  0  0  0  0  0  0 
   -3.6725   -1.1550    0.0170 N   0  0  0  0  0  0  0  0  0  0  0  0 
    3.4397    0.9571    0.1007 H   0  0  0  0  0  0  0  0  0  0  0  0 
    3.1455   -1.4706    0.5680 H   0  0  0  0  0  0  0  0  0  0  0  0 
    1.4577    2.3809   -0.3453 H   0  0  0  0  0  0  0  0  0  0  0  0 
    0.8703   -2.4776    0.5893 H   0  0  0  0  0  0  0  0  0  0  0  0 
   -1.0669    2.5752   -0.5854 H   0  0  0  0  0  0  0  0  0  0  0  0 
   -3.2579    1.4941   -0.5340 H   0  0  0  0  0  0  0  0  0  0  0  0 
   -4.9114   -2.7054    1.9311 H   0  0  0  0  0  0  0  0  0  0  0  0 
   -4.9758   -4.1625    0.9087 H   0  0  0  0  0  0  0  0  0  0  0  0 
   -7.0202   -0.7776   -0.4155 H   0  0  0  0  0  0  0  0  0  0  0  0 
   -6.1385   -0.6607    1.1294 H   0  0  0  0  0  0  0  0  0  0  0  0 
   -3.6369   -3.0947   -0.8272 H   0  0  0  0  0  0  0  0  0  0  0  0 
   -2.7939   -2.9060    0.7193 H   0  0  0  0  0  0  0  0  0  0  0  0 
   -4.8785    0.4581   -0.6040 H   0  0  0  0  0  0  0  0  0  0  0  0 
   -4.9366   -0.9604   -1.6691 H   0  0  0  0  0  0  0  0  0  0  0  0 
   -6.9764   -2.9156    0.6133 H   0  0  0  0  0  0  0  0  0  0  0  0 
  1  2  2  0  0  0  0 
  2  4  1  0  0  0  0 
  2 18  1  0  0  0  0 
  3 11  2  0  0  0  0 
  3  1  1  0  0  0  0 
  4 20  1  0  0  0  0 
  5  6  2  0  0  0  0 
  5 11  1  0  0  0  0 
  6 13  1  0  0  0  0 
  7 24  1  0  0  0  0 
  7 23  1  0  0  0  0 
  8 14  1  0  0  0  0 
  8 26  1  0  0  0  0 
  9 28  1  0  0  0  0 
  9  7  1  0  0  0  0 
 10 29  1  0  0  0  0 
 10 16  1  0  0  0  0 
 10  8  1  0  0  0  0 
 11 12  1  0  0  0  0 
 12 15  1  0  0  0  0 
 12  4  2  0  0  0  0 
 13 16  1  0  0  0  0 
 13 15  2  0  0  0  0 
 14 31  1  0  0  0  0 
 14  7  1  0  0  0  0 
 16  9  1  0  0  0  0 
 17  1  1  0  0  0  0 
 19  3  1  0  0  0  0 
 21  5  1  0  0  0  0 
 22  6  1  0  0  0  0 
 25  8  1  0  0  0  0 
 27  9  1  0  0  0  0 
 30 10  1  0  0  0  0 
M  END 
>  <HBA> 
3 
 
>  <HBD> 
1 
 
>  <TPSA> 
28.16 
 
>  <cid> 
5011 
 
>  <dipole> 
2.32 
 
>  <excitation_energy_1> 
3.705 
 
>  <excitation_energy_2> 
4.463 
 
>  <excitation_energy_3> 
4.517 
 
>  <excitation_energy_4> 
4.684 
 
>  <homo_energy> 
-5.279 
 
>  <homo_lumo_gap> 
4.308 
 
>  <logP> 
2.038 
 
>  <lumo_energy> 
-0.971 
 
>  <melting_point> 
121.93 
 
>  <molecular_refractivity> 
73.1 
 
>  <oscillator_strength_1> 
0.0963 
 
>  <oscillator_strength_2> 
0.0079 
 
>  <oscillator_strength_3> 
0.001 
 
>  <oscillator_strength_4> 
0.0096 
 
>  <open_babel_can_smiles> 
N1CCN(CC1)c1ccc2c(n1)cccc2 
 
>  <mulliken_charges> 
31 
1   -0.1392 
2   -0.136673 
3   -0.199598 
4   -0.152494 
5   -0.154775 
6   -0.193772 
7   -0.142633 
8   -0.132167 
9   -0.11621 
10   -0.125158 
11   0.147823 
12   0.258464 
13   0.539443 
14   -0.551367 
15   -0.630083 
16   -0.499218 
17   0.125707 
18   0.127681 
19   0.125501 
20   0.13169 
21   0.135152 
22   0.132805 
23   0.121504 
24   0.141312 
25   0.139964 
26   0.120586 
27   0.14137 
28   0.186517 
29   0.150012 
30   0.148444 
31   0.299373 
 
>  <lowdin_charges> 
31 
1   -0.17092 
2   -0.152798 
3   -0.15367 
4   -0.162966 
5   -0.121482 
6   -0.209221 
7   -0.206523 
8   -0.209223 
9   -0.200291 
10   -0.193844 
11   -0.03551 
12   0.052576 
13   0.105482 
14   -0.3689 
15   -0.20689 
16   -0.120083 
17   0.156173 
18   0.15827 
19   0.153355 
20   0.161971 
21   0.158344 
22   0.162369 
23   0.120591 
24   0.147526 
25   0.149467 
26   0.121014 
27   0.139712 
28   0.17689 
29   0.152153 
30   0.139415 
31   0.257015 
 
$$$$ 
 
