PCCDB-ID:  322 
public computational chemistry database (PCCDB) project, http://pccdb.org 
 
 20 20  0  0  0  0  0  0  0  0999 V2000 
   -0.7866    0.9008   -0.2299 C   0  0  0  0  0  0  0  0  0  0  0  0 
    1.2755   -0.2520    0.2438 C   0  0  0  0  0  0  0  0  0  0  0  0 
    1.2498    2.2668    0.0218 C   0  0  0  0  0  0  0  0  0  0  0  0 
   -1.4690   -0.3109   -0.2479 C   0  0  0  0  0  0  0  0  0  0  0  0 
    0.6092   -1.4662    0.2283 C   0  0  0  0  0  0  0  0  0  0  0  0 
    2.5496    2.5529    0.2345 C   0  0  0  0  0  0  0  0  0  0  0  0 
    0.5970    0.9641    0.0148 C   0  0  0  0  0  0  0  0  0  0  0  0 
   -0.7720   -1.5019   -0.0177 C   0  0  0  0  0  0  0  0  0  0  0  0 
    3.0076    3.9618    0.1948 C   0  0  0  0  0  0  0  0  0  0  0  0 
   -1.3728   -2.7239   -0.0202 O   0  0  0  0  0  0  0  0  0  0  0  0 
    2.2929    4.9173   -0.0122 O   0  0  0  0  0  0  0  0  0  0  0  0 
    4.3424    4.1567    0.4120 O   0  0  0  0  0  0  0  0  0  0  0  0 
   -1.3352    1.8218   -0.4097 H   0  0  0  0  0  0  0  0  0  0  0  0 
    2.3441   -0.2463    0.4372 H   0  0  0  0  0  0  0  0  0  0  0  0 
    0.6061    3.1246   -0.1697 H   0  0  0  0  0  0  0  0  0  0  0  0 
   -2.5398   -0.3333   -0.4409 H   0  0  0  0  0  0  0  0  0  0  0  0 
    1.1332   -2.4000    0.4045 H   0  0  0  0  0  0  0  0  0  0  0  0 
    3.2801    1.7712    0.4352 H   0  0  0  0  0  0  0  0  0  0  0  0 
   -2.3196   -2.6154   -0.2027 H   0  0  0  0  0  0  0  0  0  0  0  0 
    4.7838    3.3052    0.5626 H   0  0  0  0  0  0  0  0  0  0  0  0 
  1  7  1  0  0  0  0 
  2 14  1  0  0  0  0 
  3  6  2  0  0  0  0 
  4  1  2  0  0  0  0 
  4  8  1  0  0  0  0 
  5  2  1  0  0  0  0 
  5 17  1  0  0  0  0 
  6 18  1  0  0  0  0 
  7  3  1  0  0  0  0 
  7  2  2  0  0  0  0 
  8  5  2  0  0  0  0 
  9  6  1  0  0  0  0 
  9 12  1  0  0  0  0 
 10  8  1  0  0  0  0 
 11  9  2  0  0  0  0 
 12 20  1  0  0  0  0 
 13  1  1  0  0  0  0 
 15  3  1  0  0  0  0 
 16  4  1  0  0  0  0 
 19 10  1  0  0  0  0 
M  END 
>  <HBA> 
3 
 
>  <HBD> 
2 
 
>  <TPSA> 
57.53 
 
>  <cid> 
322 
 
>  <dipole> 
5.49 
 
>  <excitation_energy_1> 
4.131 
 
>  <excitation_energy_2> 
4.325 
 
>  <excitation_energy_3> 
4.571 
 
>  <excitation_energy_4> 
5.206 
 
>  <homo_energy> 
-6.109 
 
>  <homo_lumo_gap> 
4.373 
 
>  <logP> 
1.49 
 
>  <lumo_energy> 
-1.736 
 
>  <melting_point> 
144.31 
 
>  <molecular_refractivity> 
45.13 
 
>  <oscillator_strength_1> 
0.6431 
 
>  <oscillator_strength_2> 
0.0001 
 
>  <oscillator_strength_3> 
0.0215 
 
>  <oscillator_strength_4> 
0.0003 
 
>  <open_babel_can_smiles> 
OC(=O)/C=C/c1ccc(cc1)O 
 
>  <mulliken_charges> 
20 
1   -0.192481 
2   -0.177119 
3   -0.146936 
4   -0.195784 
5   -0.158515 
6   -0.251317 
7   0.166511 
8   0.358363 
9   0.608189 
10   -0.631687 
11   -0.465716 
12   -0.586758 
13   0.147781 
14   0.135264 
15   0.172119 
16   0.130194 
17   0.149779 
18   0.120181 
19   0.413432 
20   0.404501 
 
>  <lowdin_charges> 
20 
1   -0.133938 
2   -0.130642 
3   -0.092941 
4   -0.209249 
5   -0.179592 
6   -0.246236 
7   -0.029994 
8   0.112905 
9   0.198521 
10   -0.361846 
11   -0.260298 
12   -0.365557 
13   0.166625 
14   0.159169 
15   0.179942 
16   0.157084 
17   0.17233 
18   0.150064 
19   0.360285 
20   0.353368 
 
$$$$ 
 
