PCCDB-ID:  5801 
public computational chemistry database (PCCDB) project, http://pccdb.org 
 
 15 15  0  0  0  0  0  0  0  0999 V2000 
   -1.3746   -0.0761    0.0148 C   0  0  0  0  0  0  0  0  0  0  0  0 
   -0.6218   -1.2477   -0.0144 C   0  0  0  0  0  0  0  0  0  0  0  0 
   -0.7392    1.1681    0.0198 C   0  0  0  0  0  0  0  0  0  0  0  0 
    0.7747   -1.1656   -0.0402 C   0  0  0  0  0  0  0  0  0  0  0  0 
    0.6564    1.2682   -0.0023 C   0  0  0  0  0  0  0  0  0  0  0  0 
    1.4060    0.0734   -0.0354 C   0  0  0  0  0  0  0  0  0  0  0  0 
    1.3255    2.4936    0.0621 N   0  0  0  0  0  0  0  0  0  0  0  0 
    2.7754    0.2291   -0.0736 O   0  0  0  0  0  0  0  0  0  0  0  0 
   -2.4599   -0.1221    0.0331 H   0  0  0  0  0  0  0  0  0  0  0  0 
   -1.1059   -2.2196   -0.0187 H   0  0  0  0  0  0  0  0  0  0  0  0 
   -1.3290    2.0818    0.0504 H   0  0  0  0  0  0  0  0  0  0  0  0 
    1.3787   -2.0715   -0.0694 H   0  0  0  0  0  0  0  0  0  0  0  0 
    0.8141    3.2720   -0.3349 H   0  0  0  0  0  0  0  0  0  0  0  0 
    2.2794    2.4534   -0.2756 H   0  0  0  0  0  0  0  0  0  0  0  0 
    3.1888   -0.6464   -0.1131 H   0  0  0  0  0  0  0  0  0  0  0  0 
  1  3  1  0  0  0  0 
  1  9  1  0  0  0  0 
  2  1  2  0  0  0  0 
  3 11  1  0  0  0  0 
  4  6  2  0  0  0  0 
  4  2  1  0  0  0  0 
  5  3  2  0  0  0  0 
  5  7  1  0  0  0  0 
  6  5  1  0  0  0  0 
  8  6  1  0  0  0  0 
 10  2  1  0  0  0  0 
 12  4  1  0  0  0  0 
 13  7  1  0  0  0  0 
 14  7  1  0  0  0  0 
 15  8  1  0  0  0  0 
M  END 
>  <HBA> 
2 
 
>  <HBD> 
2 
 
>  <TPSA> 
46.25 
 
>  <cid> 
5801 
 
>  <dipole> 
1.47 
 
>  <excitation_energy_1> 
4.5 
 
>  <excitation_energy_2> 
4.674 
 
>  <excitation_energy_3> 
4.961 
 
>  <excitation_energy_4> 
5.175 
 
>  <homo_energy> 
-5.11 
 
>  <homo_lumo_gap> 
5.527 
 
>  <logP> 
1.556 
 
>  <lumo_energy> 
0.416 
 
>  <melting_point> 
93.45 
 
>  <molecular_refractivity> 
32.87 
 
>  <oscillator_strength_1> 
0.0065 
 
>  <oscillator_strength_2> 
0.059 
 
>  <oscillator_strength_3> 
0.0037 
 
>  <oscillator_strength_4> 
0.0013 
 
>  <open_babel_can_smiles> 
Nc1ccccc1O 
 
>  <mulliken_charges> 
15 
1   -0.13789 
2   -0.144914 
3   -0.185021 
4   -0.195031 
5   0.279381 
6   0.310422 
7   -0.790542 
8   -0.668241 
9   0.121009 
10   0.120988 
11   0.115873 
12   0.112145 
13   0.315972 
14   0.336665 
15   0.409181 
 
>  <lowdin_charges> 
15 
1   -0.164838 
2   -0.177589 
3   -0.194734 
4   -0.207702 
5   0.033866 
6   0.070609 
7   -0.489192 
8   -0.399373 
9   0.153213 
10   0.155216 
11   0.153473 
12   0.151259 
13   0.275058 
14   0.282087 
15   0.358646 
 
$$$$ 
 
