PCCDB-ID:  649 
public computational chemistry database (PCCDB) project, http://pccdb.org 
 
 14 14  0  0  0  0  0  0  0  0999 V2000 
    0.2975   -1.3367    0.3463 C   0  0  0  0  0  0  0  0  0  0  0  0 
   -1.0621   -0.8888   -0.2211 C   0  0  0  0  0  0  0  0  0  0  0  0 
    1.3295   -0.3068   -0.0562 C   0  0  0  0  0  0  0  0  0  0  0  0 
   -0.2788    1.2785    0.0048 C   0  0  0  0  0  0  0  0  0  0  0  0 
   -1.3171    0.5268    0.0028 N   0  0  0  0  0  0  0  0  0  0  0  0 
    1.0632    0.9354   -0.2019 N   0  0  0  0  0  0  0  0  0  0  0  0 
    2.6036   -0.6975   -0.2518 O   0  0  0  0  0  0  0  0  0  0  0  0 
   -0.4106    2.6078    0.1938 O   0  0  0  0  0  0  0  0  0  0  0  0 
    0.5678   -2.3386   -0.0097 H   0  0  0  0  0  0  0  0  0  0  0  0 
    0.2574   -1.3756    1.4446 H   0  0  0  0  0  0  0  0  0  0  0  0 
   -1.8658   -1.4730    0.2380 H   0  0  0  0  0  0  0  0  0  0  0  0 
   -1.0953   -1.1006   -1.3023 H   0  0  0  0  0  0  0  0  0  0  0  0 
    2.6703   -1.6551   -0.1096 H   0  0  0  0  0  0  0  0  0  0  0  0 
   -1.3672    2.7561    0.3033 H   0  0  0  0  0  0  0  0  0  0  0  0 
  1 10  1  0  0  0  0 
  2  5  1  0  0  0  0 
  2 11  1  0  0  0  0 
  2  1  1  0  0  0  0 
  3  1  1  0  0  0  0 
  4  8  1  0  0  0  0 
  5  4  2  0  0  0  0 
  6  3  2  0  0  0  0 
  6  4  2  0  0  0  0 
  7 13  1  0  0  0  0 
  7  3  1  0  0  0  0 
  8 14  1  0  0  0  0 
  9  1  1  0  0  0  0 
 12  2  1  0  0  0  0 
M  END 
>  <HBA> 
4 
 
>  <HBD> 
2 
 
>  <TPSA> 
58.2 
 
>  <cid> 
649 
 
>  <dipole> 
4.48 
 
>  <excitation_energy_1> 
4.608 
 
>  <excitation_energy_2> 
5.06 
 
>  <excitation_energy_3> 
5.507 
 
>  <excitation_energy_4> 
5.746 
 
>  <homo_energy> 
-6.493 
 
>  <homo_lumo_gap> 
5.747 
 
>  <logP> 
-0.127 
 
>  <lumo_energy> 
-0.746 
 
>  <melting_point> 
104.82 
 
>  <molecular_refractivity> 
33.45 
 
>  <oscillator_strength_1> 
0.0023 
 
>  <oscillator_strength_2> 
0.0479 
 
>  <oscillator_strength_3> 
0.0047 
 
>  <oscillator_strength_4> 
0.0311 
 
>  <open_babel_can_smiles> 
OC1=[N]=[C](=NCC1)O 
 
>  <mulliken_charges> 
14 
1   -0.386942 
2   -0.138006 
3   0.517628 
4   0.594034 
5   -0.462044 
6   -0.452851 
7   -0.55963 
8   -0.578406 
9   0.146589 
10   0.188485 
11   0.154971 
12   0.150383 
13   0.414433 
14   0.411355 
 
>  <lowdin_charges> 
14 
1   -0.323146 
2   -0.194181 
3   0.156418 
4   0.148784 
5   -0.276899 
6   -0.18956 
7   -0.323754 
8   -0.343853 
9   0.156466 
10   0.17134 
11   0.155958 
12   0.142775 
13   0.359736 
14   0.359917 
 
$$$$ 
 
