PCCDB-ID:  363 
public computational chemistry database (PCCDB) project, http://pccdb.org 
 
  9  8  0  0  0  0  0  0  0  0999 V2000 
    0.9749   -0.1023    0.1430 C   0  0  0  0  0  0  0  0  0  0  0  0 
    0.4945   -1.0754   -0.9233 C   0  0  0  0  0  0  0  0  0  0  0  0 
    2.4061    0.1532   -0.0066 N   0  0  0  0  0  0  0  0  0  0  0  0 
   -0.4367   -1.8352   -0.7808 O   0  0  0  0  0  0  0  0  0  0  0  0 
    0.6386   -0.4719    1.1250 H   0  0  0  0  0  0  0  0  0  0  0  0 
    0.4404    0.8410   -0.0439 H   0  0  0  0  0  0  0  0  0  0  0  0 
    1.0726   -1.0212   -1.8724 H   0  0  0  0  0  0  0  0  0  0  0  0 
    2.9451   -0.6226    0.3730 H   0  0  0  0  0  0  0  0  0  0  0  0 
    2.6768    0.9784    0.5221 H   0  0  0  0  0  0  0  0  0  0  0  0 
  1  5  1  0  0  0  0 
  2  4  2  0  0  0  0 
  2  1  1  0  0  0  0 
  3  1  1  0  0  0  0 
  3  8  1  0  0  0  0 
  3  9  1  0  0  0  0 
  6  1  1  0  0  0  0 
  7  2  1  0  0  0  0 
M  END 
>  <HBA> 
2 
 
>  <HBD> 
1 
 
>  <TPSA> 
43.09 
 
>  <cid> 
363 
 
>  <dipole> 
3.0 
 
>  <excitation_energy_1> 
4.16 
 
>  <excitation_energy_2> 
5.122 
 
>  <excitation_energy_3> 
6.062 
 
>  <excitation_energy_4> 
6.46 
 
>  <homo_energy> 
-6.735 
 
>  <homo_lumo_gap> 
6.041 
 
>  <logP> 
-0.156 
 
>  <lumo_energy> 
-0.694 
 
>  <melting_point> 
62.07 
 
>  <molecular_refractivity> 
14.64 
 
>  <oscillator_strength_1> 
0.0001 
 
>  <oscillator_strength_2> 
0.0089 
 
>  <oscillator_strength_3> 
0.0051 
 
>  <oscillator_strength_4> 
0.0088 
 
>  <open_babel_can_smiles> 
NCC=O 
 
>  <mulliken_charges> 
9 
1   -0.217899 
2   0.256386 
3   -0.721366 
4   -0.38315 
5   0.15412 
6   0.1751 
7   0.119632 
8   0.307037 
9   0.310139 
 
>  <lowdin_charges> 
9 
1   -0.241947 
2   0.046948 
3   -0.555668 
4   -0.21409 
5   0.144368 
6   0.170131 
7   0.124252 
8   0.261468 
9   0.264538 
 
$$$$ 
 
