PCCDB-ID:  5917 
public computational chemistry database (PCCDB) project, http://pccdb.org 
 
 20 21  0  0  0  0  0  0  0  0999 V2000 
    2.6084   -0.0691   -0.0597 C   0  0  0  0  0  0  0  0  0  0  0  0 
    1.7432   -1.2100   -0.6331 C   0  0  0  0  0  0  0  0  0  0  0  0 
    1.8353    1.1000    0.5845 C   0  0  0  0  0  0  0  0  0  0  0  0 
    0.5503   -1.6171    0.2504 C   0  0  0  0  0  0  0  0  0  0  0  0 
    0.6057    1.5725   -0.1968 C   0  0  0  0  0  0  0  0  0  0  0  0 
   -0.6059   -0.6674    0.1690 C   0  0  0  0  0  0  0  0  0  0  0  0 
   -1.8834   -1.0019    0.2554 N   0  0  0  0  0  0  0  0  0  0  0  0 
   -2.5888    0.1516    0.1228 N   0  0  0  0  0  0  0  0  0  0  0  0 
   -1.8008    1.1627   -0.0442 N   0  0  0  0  0  0  0  0  0  0  0  0 
   -0.5356    0.6719   -0.0189 N   0  0  0  0  0  0  0  0  0  0  0  0 
    3.2445    0.3185   -0.8659 H   0  0  0  0  0  0  0  0  0  0  0  0 
    3.2913   -0.4767    0.6967 H   0  0  0  0  0  0  0  0  0  0  0  0 
    2.3830   -2.0861   -0.7892 H   0  0  0  0  0  0  0  0  0  0  0  0 
    1.3656   -0.9342   -1.6263 H   0  0  0  0  0  0  0  0  0  0  0  0 
    2.5140    1.9539    0.6951 H   0  0  0  0  0  0  0  0  0  0  0  0 
    1.5141    0.8358    1.5998 H   0  0  0  0  0  0  0  0  0  0  0  0 
    0.8713   -1.7227    1.2965 H   0  0  0  0  0  0  0  0  0  0  0  0 
    0.1652   -2.5965   -0.0491 H   0  0  0  0  0  0  0  0  0  0  0  0 
    0.8265    1.6643   -1.2674 H   0  0  0  0  0  0  0  0  0  0  0  0 
    0.2647    2.5487    0.1550 H   0  0  0  0  0  0  0  0  0  0  0  0 
  1  3  1  0  0  0  0 
  1 12  1  0  0  0  0 
  2  1  1  0  0  0  0 
  2  4  1  0  0  0  0 
  3 15  1  0  0  0  0 
  3 16  1  0  0  0  0 
  4 17  1  0  0  0  0 
  5 10  1  0  0  0  0 
  5 20  1  0  0  0  0 
  5  3  1  0  0  0  0 
  6  4  1  0  0  0  0 
  6  7  2  0  0  0  0 
  8  7  1  0  0  0  0 
  9 10  1  0  0  0  0 
  9  8  2  0  0  0  0 
 10  6  1  0  0  0  0 
 11  1  1  0  0  0  0 
 13  2  1  0  0  0  0 
 14  2  1  0  0  0  0 
 18  4  1  0  0  0  0 
 19  5  1  0  0  0  0 
M  END 
>  <HBA> 
4 
 
>  <HBD> 
0 
 
>  <TPSA> 
43.6 
 
>  <cid> 
5917 
 
>  <dipole> 
6.64 
 
>  <excitation_energy_1> 
5.8 
 
>  <excitation_energy_2> 
6.161 
 
>  <excitation_energy_3> 
6.66 
 
>  <excitation_energy_4> 
6.744 
 
>  <homo_energy> 
-7.366 
 
>  <homo_lumo_gap> 
7.219 
 
>  <logP> 
0.4 
 
>  <lumo_energy> 
-0.147 
 
>  <melting_point> 
77.42 
 
>  <molecular_refractivity> 
36.35 
 
>  <oscillator_strength_1> 
0.0008 
 
>  <oscillator_strength_2> 
0.0085 
 
>  <oscillator_strength_3> 
0.0063 
 
>  <oscillator_strength_4> 
0.0698 
 
>  <open_babel_can_smiles> 
C1CCn2c(CC1)nnn2 
 
>  <mulliken_charges> 
20 
1   -0.265337 
2   -0.28327 
3   -0.296077 
4   -0.332305 
5   -0.138233 
6   0.550907 
7   -0.379099 
8   -0.096313 
9   -0.073016 
10   -0.332179 
11   0.145929 
12   0.147537 
13   0.153756 
14   0.151745 
15   0.159241 
16   0.160906 
17   0.171869 
18   0.187756 
19   0.175186 
20   0.190997 
 
>  <lowdin_charges> 
20 
1   -0.284111 
2   -0.281665 
3   -0.287415 
4   -0.275182 
5   -0.190033 
6   0.039485 
7   -0.163797 
8   -0.078697 
9   -0.0981 
10   0.016591 
11   0.150378 
12   0.151662 
13   0.157958 
14   0.148335 
15   0.16233 
16   0.153809 
17   0.163458 
18   0.179737 
19   0.158247 
20   0.177011 
 
$$$$ 
 
