PCCDB-ID:  775 
public computational chemistry database (PCCDB) project, http://pccdb.org 
 
 19 19  0  0  1  0  0  0  0  0999 V2000 
    1.7051    0.6058    0.2252 C   0  0  0  0  0  0  0  0  0  0  0  0 
    3.8748   -0.7458   -0.4154 C   0  0  0  0  0  0  0  0  0  0  0  0 
   -0.3503    1.9266   -0.3383 C   0  0  0  0  0  0  0  0  0  0  0  0 
    5.3208    0.8104   -0.1755 C   0  0  0  0  0  0  0  0  0  0  0  0 
    1.1721    1.9117   -0.4239 C   0  0  1  0  0  0  0  0  0  0  0  0 
    3.1594    0.3664   -0.0320 C   0  0  0  0  0  0  0  0  0  0  0  0 
    1.7955    3.0866    0.1958 N   0  0  0  0  0  0  0  0  0  0  0  0 
    5.2199   -0.4626   -0.5006 N   0  0  0  0  0  0  0  0  0  0  0  0 
    4.1087    1.3575    0.1263 N   0  0  0  0  0  0  0  0  0  0  0  0 
   -0.9745    2.7389    0.3086 O   0  0  0  0  0  0  0  0  0  0  0  0 
    1.1375   -0.2531   -0.1525 H   0  0  0  0  0  0  0  0  0  0  0  0 
    1.4956    0.6634    1.3048 H   0  0  0  0  0  0  0  0  0  0  0  0 
    3.4946   -1.7365   -0.6303 H   0  0  0  0  0  0  0  0  0  0  0  0 
   -0.8694    1.1144   -0.8948 H   0  0  0  0  0  0  0  0  0  0  0  0 
    6.2390    1.3819   -0.1428 H   0  0  0  0  0  0  0  0  0  0  0  0 
    1.4456    1.8897   -1.4881 H   0  0  0  0  0  0  0  0  0  0  0  0 
    1.3252    3.2572    1.0867 H   0  0  0  0  0  0  0  0  0  0  0  0 
    1.5852    3.9108   -0.3668 H   0  0  0  0  0  0  0  0  0  0  0  0 
    3.8515    2.3210    0.3231 H   0  0  0  0  0  0  0  0  0  0  0  0 
  1 12  1  0  0  0  0 
  2  6  2  0  0  0  0 
  3 10  2  0  0  0  0 
  4 15  1  0  0  0  0 
  4  9  1  0  0  0  0 
  5 16  1  6  0  0  0 
  5  3  1  0  0  0  0 
  5  7  1  0  0  0  0 
  5  1  1  0  0  0  0 
  6  9  1  0  0  0  0 
  6  1  1  0  0  0  0 
  7 17  1  0  0  0  0 
  8  2  1  0  0  0  0 
  8  4  2  0  0  0  0 
  9 19  1  0  0  0  0 
 11  1  1  0  0  0  0 
 13  2  1  0  0  0  0 
 14  3  1  0  0  0  0 
 18  7  1  0  0  0  0 
M  END 
>  <HBA> 
3 
 
>  <HBD> 
2 
 
>  <TPSA> 
71.77 
 
>  <cid> 
775 
 
>  <dipole> 
3.17 
 
>  <excitation_energy_1> 
3.846 
 
>  <excitation_energy_2> 
4.274 
 
>  <excitation_energy_3> 
5.152 
 
>  <excitation_energy_4> 
5.173 
 
>  <homo_energy> 
-5.812 
 
>  <homo_lumo_gap> 
4.629 
 
>  <logP> 
0.179 
 
>  <lumo_energy> 
-1.184 
 
>  <melting_point> 
154.58 
 
>  <molecular_refractivity> 
36.08 
 
>  <oscillator_strength_1> 
0.01 
 
>  <oscillator_strength_2> 
0.0004 
 
>  <oscillator_strength_3> 
0.0014 
 
>  <oscillator_strength_4> 
0.0195 
 
>  <open_babel_can_smiles> 
N[C@H](C=O)Cc1cnc[nH]1 
 
>  <mulliken_charges> 
19 
1   -0.354095 
2   -0.087343 
3   0.243314 
4   0.203221 
5   -0.067421 
6   0.319882 
7   -0.724756 
8   -0.429606 
9   -0.593118 
10   -0.383127 
11   0.161794 
12   0.163028 
13   0.123945 
14   0.114372 
15   0.148392 
16   0.167151 
17   0.319621 
18   0.317828 
19   0.356919 
 
>  <lowdin_charges> 
19 
1   -0.270835 
2   -0.176261 
3   0.039472 
4   -0.099978 
5   -0.103891 
6   -0.022408 
7   -0.536494 
8   -0.191944 
9   -0.182363 
10   -0.216398 
11   0.165315 
12   0.155668 
13   0.156064 
14   0.124853 
15   0.164355 
16   0.162382 
17   0.266682 
18   0.26867 
19   0.297111 
 
$$$$ 
 
