PCCDB-ID:  2969 
public computational chemistry database (PCCDB) project, http://pccdb.org 
 
 32 31  0  0  0  0  0  0  0  0999 V2000 
    0.4584    0.0039   -0.2530 C   0  0  0  0  0  0  0  0  0  0  0  0 
    1.9767   -0.1353   -0.1034 C   0  0  0  0  0  0  0  0  0  0  0  0 
    2.6132   -1.0216   -1.1818 C   0  0  0  0  0  0  0  0  0  0  0  0 
    4.1340   -1.1641   -1.0402 C   0  0  0  0  0  0  0  0  0  0  0  0 
    4.7704   -2.0515   -2.1178 C   0  0  0  0  0  0  0  0  0  0  0  0 
    6.2926   -2.1835   -1.9808 C   0  0  0  0  0  0  0  0  0  0  0  0 
    6.9290   -3.0753   -3.0548 C   0  0  0  0  0  0  0  0  0  0  0  0 
    8.4524   -3.1845   -2.9202 C   0  0  0  0  0  0  0  0  0  0  0  0 
    9.0820   -4.0812   -3.9882 C   0  0  0  0  0  0  0  0  0  0  0  0 
   10.6001   -4.1680   -3.8791 C   0  0  0  0  0  0  0  0  0  0  0  0 
   11.2693   -3.5739   -3.0728 O   0  0  0  0  0  0  0  0  0  0  0  0 
   11.2018   -4.9890   -4.7878 O   0  0  0  0  0  0  0  0  0  0  0  0 
    0.0352    0.6418    0.5313 H   0  0  0  0  0  0  0  0  0  0  0  0 
   -0.0376   -0.9728   -0.1912 H   0  0  0  0  0  0  0  0  0  0  0  0 
    0.1943    0.4472   -1.2212 H   0  0  0  0  0  0  0  0  0  0  0  0 
    2.2106   -0.5480    0.8884 H   0  0  0  0  0  0  0  0  0  0  0  0 
    2.4405    0.8610   -0.1339 H   0  0  0  0  0  0  0  0  0  0  0  0 
    2.3774   -0.6094   -2.1745 H   0  0  0  0  0  0  0  0  0  0  0  0 
    2.1493   -2.0190   -1.1505 H   0  0  0  0  0  0  0  0  0  0  0  0 
    4.3694   -1.5744   -0.0470 H   0  0  0  0  0  0  0  0  0  0  0  0 
    4.5965   -0.1663   -1.0728 H   0  0  0  0  0  0  0  0  0  0  0  0 
    4.5294   -1.6453   -3.1115 H   0  0  0  0  0  0  0  0  0  0  0  0 
    4.3134   -3.0518   -2.0804 H   0  0  0  0  0  0  0  0  0  0  0  0 
    6.5355   -2.5858   -0.9863 H   0  0  0  0  0  0  0  0  0  0  0  0 
    6.7498   -1.1840   -2.0231 H   0  0  0  0  0  0  0  0  0  0  0  0 
    6.6760   -2.6807   -4.0505 H   0  0  0  0  0  0  0  0  0  0  0  0 
    6.4811   -4.0792   -3.0038 H   0  0  0  0  0  0  0  0  0  0  0  0 
    8.7162   -3.5745   -1.9296 H   0  0  0  0  0  0  0  0  0  0  0  0 
    8.9086   -2.1892   -2.9808 H   0  0  0  0  0  0  0  0  0  0  0  0 
    8.8325   -3.7147   -4.9957 H   0  0  0  0  0  0  0  0  0  0  0  0 
    8.6702   -5.1001   -3.9292 H   0  0  0  0  0  0  0  0  0  0  0  0 
   10.5314   -5.3937   -5.3631 H   0  0  0  0  0  0  0  0  0  0  0  0 
  1 14  1  0  0  0  0 
  1  2  1  0  0  0  0 
  1 13  1  0  0  0  0 
  2 16  1  0  0  0  0 
  3 19  1  0  0  0  0 
  3  4  1  0  0  0  0 
  3  2  1  0  0  0  0 
  4 20  1  0  0  0  0 
  5 23  1  0  0  0  0 
  5  6  1  0  0  0  0 
  5  4  1  0  0  0  0 
  6 24  1  0  0  0  0 
  7 27  1  0  0  0  0 
  7  8  1  0  0  0  0 
  7  6  1  0  0  0  0 
  8 28  1  0  0  0  0 
  9 31  1  0  0  0  0 
  9 10  1  0  0  0  0 
  9  8  1  0  0  0  0 
 10 11  2  0  0  0  0 
 12 10  1  0  0  0  0 
 15  1  1  0  0  0  0 
 17  2  1  0  0  0  0 
 18  3  1  0  0  0  0 
 21  4  1  0  0  0  0 
 22  5  1  0  0  0  0 
 25  6  1  0  0  0  0 
 26  7  1  0  0  0  0 
 29  8  1  0  0  0  0 
 30  9  1  0  0  0  0 
 32 12  1  0  0  0  0 
M  END 
>  <HBA> 
2 
 
>  <HBD> 
1 
 
>  <TPSA> 
37.3 
 
>  <cid> 
2969 
 
>  <dipole> 
4.14 
 
>  <excitation_energy_1> 
5.744 
 
>  <excitation_energy_2> 
6.409 
 
>  <excitation_energy_3> 
7.418 
 
>  <excitation_energy_4> 
7.442 
 
>  <homo_energy> 
-7.342 
 
>  <homo_lumo_gap> 
7.685 
 
>  <logP> 
3.212 
 
>  <lumo_energy> 
0.343 
 
>  <melting_point> 
47.94 
 
>  <molecular_refractivity> 
51.96 
 
>  <oscillator_strength_1> 
0.0003 
 
>  <oscillator_strength_2> 
0.017 
 
>  <oscillator_strength_3> 
0.0023 
 
>  <oscillator_strength_4> 
0.0035 
 
>  <open_babel_can_smiles> 
CCCCCCCCCC(=O)O 
 
>  <mulliken_charges> 
32 
1   -0.441455 
2   -0.246837 
3   -0.245709 
4   -0.252786 
5   -0.253402 
6   -0.254121 
7   -0.259273 
8   -0.24642 
9   -0.407688 
10   0.609197 
11   -0.436905 
12   -0.569999 
13   0.141923 
14   0.140866 
15   0.140941 
16   0.130374 
17   0.13044 
18   0.125942 
19   0.125826 
20   0.128035 
21   0.128134 
22   0.126609 
23   0.12643 
24   0.131656 
25   0.132017 
26   0.126753 
27   0.126377 
28   0.153714 
29   0.15661 
30   0.16434 
31   0.160963 
32   0.407448 
 
>  <lowdin_charges> 
32 
1   -0.445258 
2   -0.270892 
3   -0.27337 
4   -0.273152 
5   -0.272815 
6   -0.272557 
7   -0.273933 
8   -0.26813 
9   -0.32127 
10   0.196709 
11   -0.236579 
12   -0.363516 
13   0.15042 
14   0.14571 
15   0.145848 
16   0.138331 
17   0.138323 
18   0.13638 
19   0.136299 
20   0.137572 
21   0.137576 
22   0.136669 
23   0.136537 
24   0.139564 
25   0.139675 
26   0.136417 
27   0.136129 
28   0.152861 
29   0.154275 
30   0.160095 
31   0.158027 
32   0.358056 
 
$$$$ 
 
