PCCDB-ID:  829 
public computational chemistry database (PCCDB) project, http://pccdb.org 
 
 15 14  0  0  1  0  0  0  0  0999 V2000 
    1.0007    0.4344    0.3458 C   0  0  0  0  0  0  0  0  0  0  0  0 
    0.1244   -0.0129   -0.7917 C   0  0  0  0  0  0  0  0  0  0  0  0 
    2.5196    0.2118    0.1653 C   0  0  1  0  0  0  0  0  0  0  0  0 
    3.1463    1.2598   -0.7885 C   0  0  0  0  0  0  0  0  0  0  0  0 
    3.1520    0.2057    1.4799 N   0  0  0  0  0  0  0  0  0  0  0  0 
    0.5208   -0.3428   -1.8968 O   0  0  0  0  0  0  0  0  0  0  0  0 
    3.9078    2.1105   -0.3875 O   0  0  0  0  0  0  0  0  0  0  0  0 
    2.8010    1.1777   -2.0827 O   0  0  0  0  0  0  0  0  0  0  0  0 
    0.6861   -0.1125    1.2454 H   0  0  0  0  0  0  0  0  0  0  0  0 
    0.7685    1.4904    0.5586 H   0  0  0  0  0  0  0  0  0  0  0  0 
   -0.9608   -0.0503   -0.5702 H   0  0  0  0  0  0  0  0  0  0  0  0 
    2.6551   -0.7798   -0.2851 H   0  0  0  0  0  0  0  0  0  0  0  0 
    3.3029    1.1782    1.7536 H   0  0  0  0  0  0  0  0  0  0  0  0 
    4.0935   -0.1734    1.3849 H   0  0  0  0  0  0  0  0  0  0  0  0 
    2.1197    0.4769   -2.2067 H   0  0  0  0  0  0  0  0  0  0  0  0 
  1 10  1  0  0  0  0 
  1  9  1  0  0  0  0 
  2 11  1  0  0  0  0 
  2  1  1  0  0  0  0 
  3 12  1  6  0  0  0 
  3  1  1  0  0  0  0 
  3  5  1  0  0  0  0 
  4  7  2  0  0  0  0 
  4  3  1  0  0  0  0 
  5 13  1  0  0  0  0 
  6  2  2  0  0  0  0 
  8  4  1  0  0  0  0 
 14  5  1  0  0  0  0 
 15  8  1  0  0  0  0 
M  END 
>  <HBA> 
4 
 
>  <HBD> 
2 
 
>  <TPSA> 
80.39 
 
>  <cid> 
829 
 
>  <dipole> 
3.9 
 
>  <excitation_energy_1> 
4.391 
 
>  <excitation_energy_2> 
4.651 
 
>  <excitation_energy_3> 
5.17 
 
>  <excitation_energy_4> 
5.653 
 
>  <homo_energy> 
-6.966 
 
>  <homo_lumo_gap> 
5.306 
 
>  <logP> 
-0.312 
 
>  <lumo_energy> 
-1.66 
 
>  <melting_point> 
137.9 
 
>  <molecular_refractivity> 
26.02 
 
>  <oscillator_strength_1> 
0.0004 
 
>  <oscillator_strength_2> 
0.0031 
 
>  <oscillator_strength_3> 
0.0067 
 
>  <oscillator_strength_4> 
0.0018 
 
>  <open_babel_can_smiles> 
O=CC[C@@H](C(=O)O)N 
 
>  <mulliken_charges> 
15 
1   -0.356871 
2   0.262905 
3   -0.11122 
4   0.573722 
5   -0.69846 
6   -0.405558 
7   -0.454642 
8   -0.584194 
9   0.203972 
10   0.192987 
11   0.144037 
12   0.166776 
13   0.314728 
14   0.311578 
15   0.440239 
 
>  <lowdin_charges> 
15 
1   -0.316534 
2   0.078511 
3   -0.110539 
4   0.168074 
5   -0.529828 
6   -0.229601 
7   -0.257693 
8   -0.357766 
9   0.1899 
10   0.181079 
11   0.138601 
12   0.160265 
13   0.263539 
14   0.263763 
15   0.358226 
 
$$$$ 
 
