PCCDB-ID:  2966 
public computational chemistry database (PCCDB) project, http://pccdb.org 
 
 26 27  0  0  0  0  0  0  0  0999 V2000 
    2.3596    0.6784    0.1965 C   0  0  0  0  0  0  0  0  0  0  0  0 
    2.3687   -0.7165    0.1193 C   0  0  0  0  0  0  0  0  0  0  0  0 
    1.1472    1.3622    0.1516 C   0  0  0  0  0  0  0  0  0  0  0  0 
    1.1655   -1.4072   -0.0025 C   0  0  0  0  0  0  0  0  0  0  0  0 
   -1.3816    1.4348   -0.0036 C   0  0  0  0  0  0  0  0  0  0  0  0 
   -2.5154    0.5816   -0.5871 C   0  0  0  0  0  0  0  0  0  0  0  0 
   -1.3460   -1.5145   -0.2278 C   0  0  0  0  0  0  0  0  0  0  0  0 
   -0.0686    0.6760    0.0311 C   0  0  0  0  0  0  0  0  0  0  0  0 
   -0.0572   -0.7261   -0.0458 C   0  0  0  0  0  0  0  0  0  0  0  0 
   -3.1644   -0.9131    1.2883 C   0  0  0  0  0  0  0  0  0  0  0  0 
   -2.6747   -1.7230    2.1581 N   0  0  0  0  0  0  0  0  0  0  0  0 
   -4.3152   -0.1186    1.4573 N   0  0  0  0  0  0  0  0  0  0  0  0 
   -2.5574   -0.7420    0.0436 N   0  0  0  0  0  0  0  0  0  0  0  0 
    3.2921    1.2289    0.2894 H   0  0  0  0  0  0  0  0  0  0  0  0 
    3.3081   -1.2619    0.1580 H   0  0  0  0  0  0  0  0  0  0  0  0 
    1.1365    2.4491    0.2098 H   0  0  0  0  0  0  0  0  0  0  0  0 
    1.1691   -2.4941   -0.0590 H   0  0  0  0  0  0  0  0  0  0  0  0 
   -1.6650    1.7404    1.0137 H   0  0  0  0  0  0  0  0  0  0  0  0 
   -1.2713    2.3590   -0.5863 H   0  0  0  0  0  0  0  0  0  0  0  0 
   -2.3572    0.4246   -1.6618 H   0  0  0  0  0  0  0  0  0  0  0  0 
   -3.4719    1.0918   -0.4673 H   0  0  0  0  0  0  0  0  0  0  0  0 
   -1.3530   -2.3846    0.4295 H   0  0  0  0  0  0  0  0  0  0  0  0 
   -1.4045   -1.8726   -1.2674 H   0  0  0  0  0  0  0  0  0  0  0  0 
   -3.3113   -1.8354    2.9487 H   0  0  0  0  0  0  0  0  0  0  0  0 
   -4.8406   -0.3709    2.2858 H   0  0  0  0  0  0  0  0  0  0  0  0 
   -4.9210   -0.0908    0.6431 H   0  0  0  0  0  0  0  0  0  0  0  0 
  1 14  1  0  0  0  0 
  2 15  1  0  0  0  0 
  2  1  2  0  0  0  0 
  3  1  1  0  0  0  0 
  3 16  1  0  0  0  0 
  4  2  1  0  0  0  0 
  5  8  1  0  0  0  0 
  5 18  1  0  0  0  0 
  6 21  1  0  0  0  0 
  6  5  1  0  0  0  0 
  6 13  1  0  0  0  0 
  7  9  1  0  0  0  0 
  7 13  1  0  0  0  0 
  7 22  1  0  0  0  0 
  8  3  2  0  0  0  0 
  9  4  2  0  0  0  0 
  9  8  1  0  0  0  0 
 10 12  2  0  0  0  0 
 10 11  1  0  0  0  0 
 11 24  1  0  0  0  0 
 12 25  1  0  0  0  0 
 13 10  1  0  0  0  0 
 17  4  1  0  0  0  0 
 19  5  1  0  0  0  0 
 20  6  1  0  0  0  0 
 23  7  1  0  0  0  0 
 26 12  1  0  0  0  0 
M  RAD  1  11   2 
M  END 
>  <HBA> 
3 
 
>  <HBD> 
2 
 
>  <TPSA> 
53.11 
 
>  <cid> 
2966 
 
>  <dipole> 
2.93 
 
>  <excitation_energy_1> 
4.935 
 
>  <excitation_energy_2> 
5.055 
 
>  <excitation_energy_3> 
5.161 
 
>  <excitation_energy_4> 
5.307 
 
>  <homo_energy> 
-5.753 
 
>  <homo_lumo_gap> 
5.921 
 
>  <logP> 
1.676 
 
>  <lumo_energy> 
0.169 
 
>  <melting_point> 
121.42 
 
>  <molecular_refractivity> 
56.98 
 
>  <oscillator_strength_1> 
0.0037 
 
>  <oscillator_strength_2> 
0.0022 
 
>  <oscillator_strength_3> 
0.0039 
 
>  <oscillator_strength_4> 
0.0144 
 
>  <open_babel_can_smiles> 
[NH]C(=[NH2])N1CCc2c(C1)cccc2 
 
>  <mulliken_charges> 
26 
1   -0.128495 
2   -0.131884 
3   -0.19024 
4   -0.179858 
5   -0.340558 
6   -0.162727 
7   -0.216097 
8   0.127933 
9   0.114927 
10   0.585455 
11   -0.649179 
12   -0.752358 
13   -0.434161 
14   0.123831 
15   0.1248 
16   0.117664 
17   0.12195 
18   0.170088 
19   0.14166 
20   0.14955 
21   0.148685 
22   0.204891 
23   0.149362 
24   0.262428 
25   0.318788 
26   0.323546 
 
>  <lowdin_charges> 
26 
1   -0.161273 
2   -0.159373 
3   -0.161606 
4   -0.157843 
5   -0.285273 
6   -0.196456 
7   -0.201351 
8   -0.015709 
9   -0.017631 
10   0.126862 
11   -0.479646 
12   -0.513005 
13   -0.13658 
14   0.15562 
15   0.155868 
16   0.150121 
17   0.152689 
18   0.160753 
19   0.152188 
20   0.144882 
21   0.153744 
22   0.186769 
23   0.147122 
24   0.245984 
25   0.275494 
26   0.277648 
 
$$$$ 
 
