PCCDB-ID:  1676 
public computational chemistry database (PCCDB) project, http://pccdb.org 
 
 24 25  0  0  0  0  0  0  0  0999 V2000 
    1.0584   -0.9329   -2.0339 C   0  0  0  0  0  0  0  0  0  0  0  0 
    2.5786   -1.1194   -2.0391 C   0  0  0  0  0  0  0  0  0  0  0  0 
    3.1542   -1.1851   -0.6192 C   0  0  0  0  0  0  0  0  0  0  0  0 
    5.8545   -4.6651   -0.5948 C   0  0  0  0  0  0  0  0  0  0  0  0 
    6.6106   -2.6763   -0.5938 C   0  0  0  0  0  0  0  0  0  0  0  0 
    5.2333   -2.5408   -0.6017 C   0  0  0  0  0  0  0  0  0  0  0  0 
    7.3714   -1.4747   -0.5863 C   0  0  0  0  0  0  0  0  0  0  0  0 
    5.4399   -0.1462   -0.6272 C   0  0  0  0  0  0  0  0  0  0  0  0 
    6.9828   -4.0088   -0.5885 N   0  0  0  0  0  0  0  0  0  0  0  0 
    4.7437   -3.8206   -0.6014 N   0  0  0  0  0  0  0  0  0  0  0  0 
    6.8102   -0.2976   -0.6000 N   0  0  0  0  0  0  0  0  0  0  0  0 
    4.6110   -1.3392   -0.5958 N   0  0  0  0  0  0  0  0  0  0  0  0 
    8.7132   -1.5347   -0.5646 O   0  0  0  0  0  0  0  0  0  0  0  0 
    4.8684    0.9311   -0.6722 O   0  0  0  0  0  0  0  0  0  0  0  0 
    0.6681   -0.8774   -3.0553 H   0  0  0  0  0  0  0  0  0  0  0  0 
    0.7768   -0.0071   -1.5191 H   0  0  0  0  0  0  0  0  0  0  0  0 
    0.5499   -1.7638   -1.5284 H   0  0  0  0  0  0  0  0  0  0  0  0 
    3.0592   -0.2822   -2.5566 H   0  0  0  0  0  0  0  0  0  0  0  0 
    2.8456   -2.0317   -2.5905 H   0  0  0  0  0  0  0  0  0  0  0  0 
    2.7117   -2.0133   -0.0491 H   0  0  0  0  0  0  0  0  0  0  0  0 
    2.9382   -0.2571   -0.0864 H   0  0  0  0  0  0  0  0  0  0  0  0 
    5.7398   -5.7401   -0.5936 H   0  0  0  0  0  0  0  0  0  0  0  0 
    3.7751   -4.1041   -0.6252 H   0  0  0  0  0  0  0  0  0  0  0  0 
    8.9669   -2.4758   -0.5565 H   0  0  0  0  0  0  0  0  0  0  0  0 
  1 17  1  0  0  0  0 
  1 16  1  0  0  0  0 
  2  1  1  0  0  0  0 
  2  3  1  0  0  0  0 
  3 12  1  0  0  0  0 
  3 21  1  0  0  0  0 
  3 20  1  0  0  0  0 
  4 22  1  0  0  0  0 
  4  9  2  0  0  0  0 
  5  9  1  0  0  0  0 
  5  7  1  0  0  0  0 
  6 10  1  0  0  0  0 
  6 12  1  0  0  0  0 
  6  5  2  0  0  0  0 
  7 13  1  0  0  0  0 
  8 11  1  0  0  0  0 
  8 12  1  0  0  0  0 
 10  4  1  0  0  0  0 
 11  7  2  0  0  0  0 
 13 24  1  0  0  0  0 
 14  8  2  0  0  0  0 
 15  1  1  0  0  0  0 
 18  2  1  0  0  0  0 
 19  2  1  0  0  0  0 
 23 10  1  0  0  0  0 
M  END 
>  <HBA> 
4 
 
>  <HBD> 
2 
 
>  <TPSA> 
83.54 
 
>  <cid> 
1676 
 
>  <dipole> 
8.44 
 
>  <excitation_energy_1> 
4.542 
 
>  <excitation_energy_2> 
4.744 
 
>  <excitation_energy_3> 
5.079 
 
>  <excitation_energy_4> 
5.155 
 
>  <homo_energy> 
-5.957 
 
>  <homo_lumo_gap> 
5.129 
 
>  <logP> 
-0.177 
 
>  <lumo_energy> 
-0.827 
 
>  <melting_point> 
230.43 
 
>  <molecular_refractivity> 
51.85 
 
>  <oscillator_strength_1> 
0.1367 
 
>  <oscillator_strength_2> 
0.0116 
 
>  <oscillator_strength_3> 
0.0004 
 
>  <oscillator_strength_4> 
0.0011 
 
>  <open_babel_can_smiles> 
CCCn1c(=O)nc(c2c1[nH]cn2)O 
 
>  <mulliken_charges> 
24 
1   -0.44905 
2   -0.257619 
3   -0.160323 
4   0.223801 
5   0.117665 
6   0.650855 
7   0.528116 
8   0.70041 
9   -0.510664 
10   -0.674434 
11   -0.54026 
12   -0.574669 
13   -0.584533 
14   -0.514121 
15   0.156954 
16   0.161102 
17   0.136477 
18   0.181054 
19   0.127032 
20   0.12745 
21   0.201122 
22   0.174731 
23   0.346637 
24   0.432266 
 
>  <lowdin_charges> 
24 
1   -0.444798 
2   -0.282201 
3   -0.198234 
4   -0.070534 
5   -0.100409 
6   0.086594 
7   0.162566 
8   0.181742 
9   -0.176574 
10   -0.197127 
11   -0.205119 
12   -0.0703 
13   -0.322268 
14   -0.295759 
15   0.157806 
16   0.156929 
17   0.144802 
18   0.166928 
19   0.137249 
20   0.138837 
21   0.182367 
22   0.175185 
23   0.302112 
24   0.370205 
 
$$$$ 
 
