PCCDB-ID:  3866 
public computational chemistry database (PCCDB) project, http://pccdb.org 
 
 20 20  0  0  1  0  0  0  0  0999 V2000 
   -1.6571   -0.1189   -0.1207 C   0  0  0  0  0  0  0  0  0  0  0  0 
   -1.0089    1.1148   -0.0446 C   0  0  0  0  0  0  0  0  0  0  0  0 
   -0.9061   -1.2956   -0.1584 C   0  0  0  0  0  0  0  0  0  0  0  0 
    0.3851    1.1712   -0.0083 C   0  0  0  0  0  0  0  0  0  0  0  0 
    0.4871   -1.2373   -0.1206 C   0  0  0  0  0  0  0  0  0  0  0  0 
    1.1495   -0.0017   -0.0465 C   0  0  0  0  0  0  0  0  0  0  0  0 
    2.6697    0.0631   -0.0522 C   0  0  1  0  0  0  0  0  0  0  0  0 
    3.3133   -0.9031    0.9748 C   0  0  0  0  0  0  0  0  0  0  0  0 
    3.2032   -0.1075   -1.4012 N   0  0  0  0  0  0  0  0  0  0  0  0 
    4.3166   -1.5329    0.7447 O   0  0  0  0  0  0  0  0  0  0  0  0 
    2.7320   -0.9492    2.1981 O   0  0  0  0  0  0  0  0  0  0  0  0 
   -2.7422   -0.1644   -0.1479 H   0  0  0  0  0  0  0  0  0  0  0  0 
   -1.5871    2.0342   -0.0159 H   0  0  0  0  0  0  0  0  0  0  0  0 
   -1.4042   -2.2597   -0.2133 H   0  0  0  0  0  0  0  0  0  0  0  0 
    0.8880    2.1340    0.0392 H   0  0  0  0  0  0  0  0  0  0  0  0 
    1.0639   -2.1599   -0.1423 H   0  0  0  0  0  0  0  0  0  0  0  0 
    2.9638    1.0663    0.2939 H   0  0  0  0  0  0  0  0  0  0  0  0 
    2.7973   -0.9480   -1.8121 H   0  0  0  0  0  0  0  0  0  0  0  0 
    4.2015   -0.3040   -1.3163 H   0  0  0  0  0  0  0  0  0  0  0  0 
    1.8930   -0.4550    2.1723 H   0  0  0  0  0  0  0  0  0  0  0  0 
  1  2  1  0  0  0  0 
  2 13  1  0  0  0  0 
  2  4  2  0  0  0  0 
  3  1  2  0  0  0  0 
  3  5  1  0  0  0  0 
  4 15  1  0  0  0  0 
  5  6  2  0  0  0  0 
  6  4  1  0  0  0  0 
  7  6  1  0  0  0  0 
  7 17  1  1  0  0  0 
  7  8  1  0  0  0  0 
  8 11  1  0  0  0  0 
  9 19  1  0  0  0  0 
  9  7  1  0  0  0  0 
 10  8  2  0  0  0  0 
 12  1  1  0  0  0  0 
 14  3  1  0  0  0  0 
 16  5  1  0  0  0  0 
 18  9  1  0  0  0  0 
 20 11  1  0  0  0  0 
M  END 
>  <HBA> 
3 
 
>  <HBD> 
2 
 
>  <TPSA> 
63.32 
 
>  <cid> 
3866 
 
>  <dipole> 
3.91 
 
>  <excitation_energy_1> 
5.185 
 
>  <excitation_energy_2> 
5.32 
 
>  <excitation_energy_3> 
5.428 
 
>  <excitation_energy_4> 
5.474 
 
>  <homo_energy> 
-6.705 
 
>  <homo_lumo_gap> 
6.027 
 
>  <logP> 
1.471 
 
>  <lumo_energy> 
-0.678 
 
>  <melting_point> 
137.89 
 
>  <molecular_refractivity> 
40.69 
 
>  <oscillator_strength_1> 
0.0014 
 
>  <oscillator_strength_2> 
0.0007 
 
>  <oscillator_strength_3> 
0.003 
 
>  <oscillator_strength_4> 
0.0047 
 
>  <open_babel_can_smiles> 
N[C@@H](c1ccccc1)C(=O)O 
 
>  <mulliken_charges> 
20 
1   -0.126129 
2   -0.126957 
3   -0.129012 
4   -0.178281 
5   -0.180186 
6   0.107458 
7   -0.154578 
8   0.575947 
9   -0.689844 
10   -0.452506 
11   -0.561313 
12   0.139974 
13   0.140483 
14   0.142008 
15   0.141443 
16   0.147838 
17   0.168751 
18   0.302064 
19   0.318077 
20   0.414763 
 
>  <lowdin_charges> 
20 
1   -0.146356 
2   -0.151577 
3   -0.150177 
4   -0.157868 
5   -0.168613 
6   -0.028419 
7   -0.10677 
8   0.168011 
9   -0.529719 
10   -0.242506 
11   -0.350612 
12   0.160801 
13   0.163492 
14   0.163586 
15   0.163054 
16   0.164214 
17   0.163716 
18   0.258833 
19   0.265386 
20   0.361524 
 
$$$$ 
 
