PCCDB-ID:  3418 
public computational chemistry database (PCCDB) project, http://pccdb.org 
 
 21 21  0  0  0  0  0  0  0  0999 V2000 
   -1.9970   -0.6131   -0.4217 C   0  0  0  0  0  0  0  0  0  0  0  0 
   -0.7146   -1.1613   -0.5145 C   0  0  0  0  0  0  0  0  0  0  0  0 
   -2.1478    0.7400   -0.1467 C   0  0  0  0  0  0  0  0  0  0  0  0 
    0.4082   -0.3567   -0.3419 C   0  0  0  0  0  0  0  0  0  0  0  0 
   -1.0273    1.5690    0.0517 C   0  0  0  0  0  0  0  0  0  0  0  0 
    0.2579    0.9998   -0.0595 C   0  0  0  0  0  0  0  0  0  0  0  0 
   -1.2311    2.9935    0.4020 C   0  0  0  0  0  0  0  0  0  0  0  0 
   -0.4318    3.7529    0.9359 O   0  0  0  0  0  0  0  0  0  0  0  0 
   -2.4681    3.4345    0.0893 O   0  0  0  0  0  0  0  0  0  0  0  0 
    3.8149    1.8849    0.7780 O   0  0  0  0  0  0  0  0  0  0  0  0 
    2.1239    3.4217    1.7628 O   0  0  0  0  0  0  0  0  0  0  0  0 
    2.0389    0.8148    2.3333 O   0  0  0  0  0  0  0  0  0  0  0  0 
    1.3823    1.7940    0.0076 O   0  0  0  0  0  0  0  0  0  0  0  0 
    2.3197    1.8863    1.3650 P   0  0  0  0  0  0  0  0  0  0  0  0 
   -2.8733   -1.2387   -0.5599 H   0  0  0  0  0  0  0  0  0  0  0  0 
   -0.5872   -2.2189   -0.7270 H   0  0  0  0  0  0  0  0  0  0  0  0 
   -3.1375    1.1746   -0.0702 H   0  0  0  0  0  0  0  0  0  0  0  0 
    1.4112   -0.7607   -0.4224 H   0  0  0  0  0  0  0  0  0  0  0  0 
   -2.5113    4.3574    0.4031 H   0  0  0  0  0  0  0  0  0  0  0  0 
    4.0716    2.7606    0.4451 H   0  0  0  0  0  0  0  0  0  0  0  0 
    1.1873    3.6806    1.5673 H   0  0  0  0  0  0  0  0  0  0  0  0 
  1  3  1  0  0  0  0 
  2  1  2  0  0  0  0 
  2  4  1  0  0  0  0 
  3 17  1  0  0  0  0 
  3  5  2  0  0  0  0 
  4  6  2  0  0  0  0 
  5  7  1  0  0  0  0 
  6 13  1  0  0  0  0 
  6  5  1  0  0  0  0 
  7  8  2  0  0  0  0 
  9  7  1  0  0  0  0 
  9 19  1  0  0  0  0 
 10 14  1  0  0  0  0 
 13 14  1  0  0  0  0 
 14 11  1  0  0  0  0 
 14 12  2  0  0  0  0 
 15  1  1  0  0  0  0 
 16  2  1  0  0  0  0 
 18  4  1  0  0  0  0 
 20 10  1  0  0  0  0 
 21 11  1  0  0  0  0 
M  END 
>  <HBA> 
6 
 
>  <HBD> 
3 
 
>  <TPSA> 
113.87 
 
>  <cid> 
3418 
 
>  <dipole> 
5.01 
 
>  <excitation_energy_1> 
4.499 
 
>  <excitation_energy_2> 
5.031 
 
>  <excitation_energy_3> 
5.242 
 
>  <excitation_energy_4> 
5.374 
 
>  <homo_energy> 
-7.124 
 
>  <homo_lumo_gap> 
5.26 
 
>  <logP> 
0.856 
 
>  <lumo_energy> 
-1.864 
 
>  <melting_point> 
187.75 
 
>  <molecular_refractivity> 
46.07 
 
>  <oscillator_strength_1> 
0.0509 
 
>  <oscillator_strength_2> 
0.0381 
 
>  <oscillator_strength_3> 
0.1138 
 
>  <oscillator_strength_4> 
0.0191 
 
>  <open_babel_can_smiles> 
OC(=O)c1ccccc1OP(=O)(O)O 
 
>  <mulliken_charges> 
21 
1   -0.125231 
2   -0.127375 
3   -0.171663 
4   -0.137643 
5   0.056222 
6   0.339284 
7   0.571164 
8   -0.519191 
9   -0.563951 
10   -0.620939 
11   -0.682582 
12   -0.528772 
13   -0.622274 
14   1.153937 
15   0.145521 
16   0.152389 
17   0.169551 
18   0.168705 
19   0.421281 
20   0.441201 
21   0.480368 
 
>  <lowdin_charges> 
21 
1   -0.161333 
2   -0.119076 
3   -0.126716 
4   -0.156298 
5   -0.070659 
6   0.132948 
7   0.22609 
8   -0.291263 
9   -0.338131 
10   -0.55131 
11   -0.583051 
12   -0.563622 
13   -0.357954 
14   1.130219 
15   0.16755 
16   0.167806 
17   0.177664 
18   0.181702 
19   0.367961 
20   0.386166 
21   0.381307 
 
$$$$ 
 
