PCCDB-ID:  648 
public computational chemistry database (PCCDB) project, http://pccdb.org 
 
 17 17  0  0  1  0  0  0  0  0999 V2000 
    0.6255   -1.4102   -0.3085 C   0  0  0  0  0  0  0  0  0  0  0  0 
   -0.8915   -1.2594   -0.0944 C   0  0  1  0  0  0  0  0  0  0  0  0 
    1.3347   -0.1772    0.1907 C   0  0  0  0  0  0  0  0  0  0  0  0 
   -1.3148   -1.8377    1.2800 C   0  0  0  0  0  0  0  0  0  0  0  0 
   -0.5429    1.0544   -0.0872 C   0  0  0  0  0  0  0  0  0  0  0  0 
   -1.3985    0.0999   -0.2460 N   0  0  0  0  0  0  0  0  0  0  0  0 
    0.8011    0.9874    0.2515 N   0  0  0  0  0  0  0  0  0  0  0  0 
    2.6185   -0.2821    0.5588 O   0  0  0  0  0  0  0  0  0  0  0  0 
   -0.7670   -2.7855    1.7924 O   0  0  0  0  0  0  0  0  0  0  0  0 
   -2.3751   -1.2249    1.8231 O   0  0  0  0  0  0  0  0  0  0  0  0 
   -0.9465    2.3284   -0.2164 O   0  0  0  0  0  0  0  0  0  0  0  0 
    0.8572   -1.5273   -1.3754 H   0  0  0  0  0  0  0  0  0  0  0  0 
    0.9660   -2.3107    0.2147 H   0  0  0  0  0  0  0  0  0  0  0  0 
   -1.4062   -1.8889   -0.8320 H   0  0  0  0  0  0  0  0  0  0  0  0 
    2.8982   -1.2107    0.5061 H   0  0  0  0  0  0  0  0  0  0  0  0 
   -2.5772   -0.4593    1.2379 H   0  0  0  0  0  0  0  0  0  0  0  0 
   -1.8897    2.2914   -0.4572 H   0  0  0  0  0  0  0  0  0  0  0  0 
  1  2  1  0  0  0  0 
  1  3  1  0  0  0  0 
  1 13  1  0  0  0  0 
  2 14  1  6  0  0  0 
  2  4  1  0  0  0  0 
  3  7  2  0  0  0  0 
  3  8  1  0  0  0  0 
  4  9  2  0  0  0  0 
  4 10  1  0  0  0  0 
  5  7  2  0  0  0  0 
  6  2  1  0  0  0  0 
  6  5  2  0  0  0  0 
 11  5  1  0  0  0  0 
 12  1  1  0  0  0  0 
 15  8  1  0  0  0  0 
 16 10  1  0  0  0  0 
 17 11  1  0  0  0  0 
M  END 
>  <HBA> 
6 
 
>  <HBD> 
3 
 
>  <TPSA> 
95.5 
 
>  <cid> 
648 
 
>  <dipole> 
3.67 
 
>  <excitation_energy_1> 
4.667 
 
>  <excitation_energy_2> 
4.877 
 
>  <excitation_energy_3> 
5.4 
 
>  <excitation_energy_4> 
5.884 
 
>  <homo_energy> 
-6.89 
 
>  <homo_lumo_gap> 
5.478 
 
>  <logP> 
-0.673 
 
>  <lumo_energy> 
-1.412 
 
>  <melting_point> 
181.31 
 
>  <molecular_refractivity> 
40.03 
 
>  <oscillator_strength_1> 
0.0078 
 
>  <oscillator_strength_2> 
0.0553 
 
>  <oscillator_strength_3> 
0.0056 
 
>  <oscillator_strength_4> 
0.0015 
 
>  <open_babel_can_smiles> 
OC(=O)[C@@H]1CC(=[N]=[C](=N1)O)O 
 
>  <mulliken_charges> 
17 
1   -0.406415 
2   -0.091857 
3   0.539617 
4   0.612936 
5   0.624048 
6   -0.53461 
7   -0.450983 
8   -0.55144 
9   -0.458833 
10   -0.568796 
11   -0.563548 
12   0.193525 
13   0.198328 
14   0.189869 
15   0.425543 
16   0.426609 
17   0.416007 
 
>  <lowdin_charges> 
17 
1   -0.323242 
2   -0.103597 
3   0.172121 
4   0.17811 
5   0.165179 
6   -0.308333 
7   -0.187177 
8   -0.308368 
9   -0.254376 
10   -0.338805 
11   -0.325112 
12   0.177823 
13   0.184902 
14   0.17786 
15   0.367924 
16   0.361698 
17   0.363393 
 
$$$$ 
 
