PCCDB-ID:  6096 
public computational chemistry database (PCCDB) project, http://pccdb.org 
 
 20 21  0  0  0  0  0  0  0  0999 V2000 
    0.9806    0.1184   -0.0542 C   0  0  0  0  0  0  0  0  0  0  0  0 
    4.8083   -3.4541    0.1159 C   0  0  0  0  0  0  0  0  0  0  0  0 
    3.4269   -3.6494    0.1119 C   0  0  0  0  0  0  0  0  0  0  0  0 
    5.3404   -2.1560    0.0698 C   0  0  0  0  0  0  0  0  0  0  0  0 
    2.5409   -2.5645    0.0635 C   0  0  0  0  0  0  0  0  0  0  0  0 
    4.7233    0.4129   -0.0346 C   0  0  0  0  0  0  0  0  0  0  0  0 
    4.4779   -1.0725    0.0222 C   0  0  0  0  0  0  0  0  0  0  0  0 
    3.0874   -1.2862    0.0193 C   0  0  0  0  0  0  0  0  0  0  0  0 
    3.3090    1.0115   -0.0711 C   0  0  0  0  0  0  0  0  0  0  0  0 
    2.4171   -0.0549   -0.0346 N   0  0  0  0  0  0  0  0  0  0  0  0 
    2.9974    2.1868   -0.1224 O   0  0  0  0  0  0  0  0  0  0  0  0 
    0.5382   -0.3743   -0.9283 H   0  0  0  0  0  0  0  0  0  0  0  0 
    0.7851    1.1909   -0.1043 H   0  0  0  0  0  0  0  0  0  0  0  0 
    0.5233   -0.2931    0.8536 H   0  0  0  0  0  0  0  0  0  0  0  0 
    5.4761   -4.3098    0.1525 H   0  0  0  0  0  0  0  0  0  0  0  0 
    3.0253   -4.6585    0.1461 H   0  0  0  0  0  0  0  0  0  0  0  0 
    6.4171   -2.0048    0.0743 H   0  0  0  0  0  0  0  0  0  0  0  0 
    1.4669   -2.7225    0.0592 H   0  0  0  0  0  0  0  0  0  0  0  0 
    5.2768    0.7373   -0.9240 H   0  0  0  0  0  0  0  0  0  0  0  0 
    5.2608    0.8080    0.8359 H   0  0  0  0  0  0  0  0  0  0  0  0 
  1 10  1  0  0  0  0 
  1 14  1  0  0  0  0 
  2 15  1  0  0  0  0 
  3  2  1  0  0  0  0 
  3 16  1  0  0  0  0 
  4 17  1  0  0  0  0 
  4  2  2  0  0  0  0 
  5  3  2  0  0  0  0 
  6  7  1  0  0  0  0 
  6 20  1  0  0  0  0 
  7  4  1  0  0  0  0 
  8  7  2  0  0  0  0 
  8  5  1  0  0  0  0 
  9 10  1  0  0  0  0 
  9  6  1  0  0  0  0 
 10  8  1  0  0  0  0 
 11  9  2  0  0  0  0 
 12  1  1  0  0  0  0 
 13  1  1  0  0  0  0 
 18  5  1  0  0  0  0 
 19  6  1  0  0  0  0 
M  END 
>  <HBA> 
2 
 
>  <HBD> 
0 
 
>  <TPSA> 
20.31 
 
>  <cid> 
6096 
 
>  <dipole> 
2.66 
 
>  <excitation_energy_1> 
4.629 
 
>  <excitation_energy_2> 
5.078 
 
>  <excitation_energy_3> 
5.309 
 
>  <excitation_energy_4> 
5.357 
 
>  <homo_energy> 
-5.777 
 
>  <homo_lumo_gap> 
5.459 
 
>  <logP> 
1.27 
 
>  <lumo_energy> 
-0.318 
 
>  <melting_point> 
61.47 
 
>  <molecular_refractivity> 
46.64 
 
>  <oscillator_strength_1> 
0.0186 
 
>  <oscillator_strength_2> 
0.1942 
 
>  <oscillator_strength_3> 
0.0025 
 
>  <oscillator_strength_4> 
0.0004 
 
>  <open_babel_can_smiles> 
O=C1Cc2c(N1C)cccc2 
 
>  <mulliken_charges> 
20 
1   -0.333715 
2   -0.133773 
3   -0.14071 
4   -0.209999 
5   -0.182601 
6   -0.450831 
7   0.104172 
8   0.347722 
9   0.592411 
10   -0.533616 
11   -0.505592 
12   0.165463 
13   0.202676 
14   0.165579 
15   0.12821 
16   0.131444 
17   0.13111 
18   0.132955 
19   0.194567 
20   0.194528 
 
>  <lowdin_charges> 
20 
1   -0.352523 
2   -0.174717 
3   -0.146484 
4   -0.152209 
5   -0.193996 
6   -0.301186 
7   -0.031229 
8   0.045356 
9   0.159313 
10   -0.070745 
11   -0.284315 
12   0.157795 
13   0.183419 
14   0.157563 
15   0.159274 
16   0.158772 
17   0.157539 
18   0.160013 
19   0.184095 
20   0.184266 
 
$$$$ 
 
