PCCDB-ID:  5910 
public computational chemistry database (PCCDB) project, http://pccdb.org 
 
 31 32  0  0  1  0  0  0  0  0999 V2000 
    1.9683    0.8286    1.8035 C   0  0  0  0  0  0  0  0  0  0  0  0 
    5.3645   -0.7683    5.0374 C   0  0  0  0  0  0  0  0  0  0  0  0 
    2.2951   -0.6392    2.0941 C   0  0  0  0  0  0  0  0  0  0  0  0 
    5.4217   -1.1456    1.9568 C   0  0  0  0  0  0  0  0  0  0  0  0 
    5.6496    1.4630    2.2100 C   0  0  0  0  0  0  0  0  0  0  0  0 
    4.8106   -2.3996   -0.1690 C   0  0  0  0  0  0  0  0  0  0  0  0 
    5.6304    1.6293    4.3332 C   0  0  0  0  0  0  0  0  0  0  0  0 
    4.5337   -1.1500    0.6882 C   0  0  1  0  0  0  0  0  0  0  0  0 
    5.4950    0.1733    2.6715 C   0  0  0  0  0  0  0  0  0  0  0  0 
    3.0185   -1.3546    0.9483 C   0  0  1  0  0  0  0  0  0  0  0  0 
    2.9204   -2.8813    1.0421 C   0  0  0  0  0  0  0  0  0  0  0  0 
    5.7286    2.3625    3.2476 N   0  0  0  0  0  0  0  0  0  0  0  0 
    5.4891    0.2955    4.0554 N   0  0  0  0  0  0  0  0  0  0  0  0 
    2.0768   -3.5455    1.5870 O   0  0  0  0  0  0  0  0  0  0  0  0 
    3.9741   -3.4409    0.3794 O   0  0  0  0  0  0  0  0  0  0  0  0 
    2.8742    1.4272    1.6659 H   0  0  0  0  0  0  0  0  0  0  0  0 
    1.3549    0.9221    0.8985 H   0  0  0  0  0  0  0  0  0  0  0  0 
    1.4033    1.2693    2.6321 H   0  0  0  0  0  0  0  0  0  0  0  0 
    5.3970   -0.3247    6.0348 H   0  0  0  0  0  0  0  0  0  0  0  0 
    6.1860   -1.4867    4.9490 H   0  0  0  0  0  0  0  0  0  0  0  0 
    4.4145   -1.3015    4.9260 H   0  0  0  0  0  0  0  0  0  0  0  0 
    1.3706   -1.1982    2.2803 H   0  0  0  0  0  0  0  0  0  0  0  0 
    2.8846   -0.7157    3.0155 H   0  0  0  0  0  0  0  0  0  0  0  0 
    5.0779   -1.9317    2.6407 H   0  0  0  0  0  0  0  0  0  0  0  0 
    6.4356   -1.4469    1.6547 H   0  0  0  0  0  0  0  0  0  0  0  0 
    5.7148    1.7940    1.1813 H   0  0  0  0  0  0  0  0  0  0  0  0 
    5.8434   -2.7539   -0.1247 H   0  0  0  0  0  0  0  0  0  0  0  0 
    4.5332   -2.2433   -1.2190 H   0  0  0  0  0  0  0  0  0  0  0  0 
    5.6534    1.9962    5.3516 H   0  0  0  0  0  0  0  0  0  0  0  0 
    4.7289   -0.2443    0.1062 H   0  0  0  0  0  0  0  0  0  0  0  0 
    2.4956   -1.0988    0.0108 H   0  0  0  0  0  0  0  0  0  0  0  0 
  1  3  1  0  0  0  0 
  1 18  1  0  0  0  0 
  2 19  1  0  0  0  0 
  3 22  1  0  0  0  0 
  3 23  1  0  0  0  0 
  4 24  1  0  0  0  0 
  4  9  1  0  0  0  0 
  5  9  2  0  0  0  0 
  5 12  1  0  0  0  0 
  6 27  1  0  0  0  0 
  6 15  1  0  0  0  0 
  6  8  1  0  0  0  0 
  7 29  1  0  0  0  0 
  8 30  1  6  0  0  0 
  8 10  1  0  0  0  0 
  8  4  1  0  0  0  0 
  9 13  1  0  0  0  0 
 10 31  1  6  0  0  0 
 10 11  1  0  0  0  0 
 10  3  1  0  0  0  0 
 11 14  2  0  0  0  0 
 12  7  2  0  0  0  0 
 13  7  1  0  0  0  0 
 13  2  1  0  0  0  0 
 15 11  1  0  0  0  0 
 16  1  1  0  0  0  0 
 17  1  1  0  0  0  0 
 20  2  1  0  0  0  0 
 21  2  1  0  0  0  0 
 25  4  1  0  0  0  0 
 26  5  1  0  0  0  0 
 28  6  1  0  0  0  0 
M  END 
>  <HBA> 
4 
 
>  <HBD> 
0 
 
>  <TPSA> 
44.12 
 
>  <cid> 
5910 
 
>  <dipole> 
1.96 
 
>  <excitation_energy_1> 
5.253 
 
>  <excitation_energy_2> 
5.397 
 
>  <excitation_energy_3> 
5.601 
 
>  <excitation_energy_4> 
5.65 
 
>  <homo_energy> 
-6.036 
 
>  <homo_lumo_gap> 
6.234 
 
>  <logP> 
1.162 
 
>  <lumo_energy> 
0.199 
 
>  <melting_point> 
56.86 
 
>  <molecular_refractivity> 
56.47 
 
>  <oscillator_strength_1> 
0.0005 
 
>  <oscillator_strength_2> 
0.0028 
 
>  <oscillator_strength_3> 
0.0139 
 
>  <oscillator_strength_4> 
0.0007 
 
>  <open_babel_can_smiles> 
CC[C@@H]1C(=O)OC[C@@H]1Cc1cncn1C 
 
>  <mulliken_charges> 
31 
1   -0.45982 
2   -0.334425 
3   -0.261703 
4   -0.364275 
5   -0.090581 
6   -0.045668 
7   0.189541 
8   -0.138608 
9   0.321294 
10   -0.200462 
11   0.622403 
12   -0.432836 
13   -0.422885 
14   -0.463568 
15   -0.456379 
16   0.167445 
17   0.139443 
18   0.149433 
19   0.178513 
20   0.178585 
21   0.183977 
22   0.168575 
23   0.139393 
24   0.157756 
25   0.162452 
26   0.128284 
27   0.160681 
28   0.15551 
29   0.150688 
30   0.152711 
31   0.164526 
 
>  <lowdin_charges> 
31 
1   -0.450581 
2   -0.349928 
3   -0.271659 
4   -0.278144 
5   -0.173878 
6   -0.127854 
7   -0.101674 
8   -0.139283 
9   -0.02194 
10   -0.1635 
11   0.18607 
12   -0.185356 
13   -0.018811 
14   -0.237989 
15   -0.191678 
16   0.158418 
17   0.145657 
18   0.155638 
19   0.171205 
20   0.164198 
21   0.163724 
22   0.162784 
23   0.145258 
24   0.158465 
25   0.158266 
26   0.155185 
27   0.154913 
28   0.14676 
29   0.163069 
30   0.156596 
31   0.16607 
 
$$$$ 
 
