PCCDB-ID:  722 
public computational chemistry database (PCCDB) project, http://pccdb.org 
 
 23 23  0  0  1  0  0  0  0  0999 V2000 
    1.3771   -0.2607    0.2282 C   0  0  0  0  0  0  0  0  0  0  0  0 
    0.7064   -1.1296    1.2774 C   0  0  2  0  0  0  0  0  0  0  0  0 
    1.4511   -1.2185    2.6247 C   0  0  2  0  0  0  0  0  0  0  0  0 
    1.0681   -2.6262    3.1149 C   0  0  2  0  0  0  0  0  0  0  0  0 
    2.2849   -4.1498    1.4491 C   0  0  0  0  0  0  0  0  0  0  0  0 
    0.9616   -3.4238    1.7926 C   0  0  1  0  0  0  0  0  0  0  0  0 
    0.6506   -0.2310   -0.9893 O   0  0  0  0  0  0  0  0  0  0  0  0 
    1.1217   -0.1919    3.5258 O   0  0  0  0  0  0  0  0  0  0  0  0 
   -0.2047   -2.5078    3.7265 O   0  0  0  0  0  0  0  0  0  0  0  0 
    3.3416   -3.5671    1.4734 O   0  0  0  0  0  0  0  0  0  0  0  0 
    2.1592   -5.4429    1.1231 O   0  0  0  0  0  0  0  0  0  0  0  0 
   -0.0912   -4.3924    1.8556 O   0  0  0  0  0  0  0  0  0  0  0  0 
    0.6704   -2.4969    0.7718 O   0  0  0  0  0  0  0  0  0  0  0  0 
    2.4084   -0.6157    0.0774 H   0  0  0  0  0  0  0  0  0  0  0  0 
    1.4186    0.7683    0.5993 H   0  0  0  0  0  0  0  0  0  0  0  0 
   -0.3265   -0.7962    1.4358 H   0  0  0  0  0  0  0  0  0  0  0  0 
    2.5313   -1.1766    2.4577 H   0  0  0  0  0  0  0  0  0  0  0  0 
    1.8043   -3.0578    3.8033 H   0  0  0  0  0  0  0  0  0  0  0  0 
    0.6530   -1.1388   -1.3325 H   0  0  0  0  0  0  0  0  0  0  0  0 
    0.2495   -0.4218    3.8924 H   0  0  0  0  0  0  0  0  0  0  0  0 
   -0.6354   -3.3771    3.6540 H   0  0  0  0  0  0  0  0  0  0  0  0 
    1.2079   -5.6621    1.2103 H   0  0  0  0  0  0  0  0  0  0  0  0 
   -0.7852   -4.0558    1.2614 H   0  0  0  0  0  0  0  0  0  0  0  0 
  1 15  1  0  0  0  0 
  1  2  1  0  0  0  0 
  2 16  1  1  0  0  0 
  2  3  1  0  0  0  0 
  3 17  1  6  0  0  0 
  3  4  1  0  0  0  0 
  3  8  1  0  0  0  0 
  4  9  1  0  0  0  0 
  4 18  1  1  0  0  0 
  5 10  2  0  0  0  0 
  6  5  1  6  0  0  0 
  6 12  1  0  0  0  0 
  6  4  1  0  0  0  0 
  7  1  1  0  0  0  0 
  8 20  1  0  0  0  0 
 11 22  1  0  0  0  0 
 11  5  1  0  0  0  0 
 13  2  1  0  0  0  0 
 13  6  1  0  0  0  0 
 14  1  1  0  0  0  0 
 19  7  1  0  0  0  0 
 21  9  1  0  0  0  0 
 23 12  1  0  0  0  0 
M  END 
>  <HBA> 
7 
 
>  <HBD> 
5 
 
>  <TPSA> 
127.45 
 
>  <cid> 
722 
 
>  <dipole> 
4.67 
 
>  <excitation_energy_1> 
5.417 
 
>  <excitation_energy_2> 
6.055 
 
>  <excitation_energy_3> 
6.13 
 
>  <excitation_energy_4> 
6.395 
 
>  <homo_energy> 
-7.227 
 
>  <homo_lumo_gap> 
6.827 
 
>  <logP> 
-3.127 
 
>  <lumo_energy> 
-0.4 
 
>  <melting_point> 
149.72 
 
>  <molecular_refractivity> 
36.38 
 
>  <oscillator_strength_1> 
0.001 
 
>  <oscillator_strength_2> 
0.0022 
 
>  <oscillator_strength_3> 
0.001 
 
>  <oscillator_strength_4> 
0.0131 
 
>  <open_babel_can_smiles> 
OC[C@H]1O[C@@]([C@@H]([C@@H]1O)O)(O)C(=O)O 
 
>  <mulliken_charges> 
23 
1   -0.049644 
2   0.113509 
3   0.105573 
4   0.060622 
5   0.601777 
6   0.443652 
7   -0.616186 
8   -0.62954 
9   -0.658271 
10   -0.450163 
11   -0.570865 
12   -0.68491 
13   -0.548458 
14   0.144832 
15   0.165706 
16   0.147739 
17   0.18 
18   0.162566 
19   0.398524 
20   0.414882 
21   0.41331 
22   0.434615 
23   0.420732 
 
>  <lowdin_charges> 
23 
1   -0.141835 
2   -0.024889 
3   -0.022171 
4   -0.039063 
5   0.169112 
6   0.15553 
7   -0.460294 
8   -0.437592 
9   -0.459788 
10   -0.237476 
11   -0.331412 
12   -0.452041 
13   -0.266507 
14   0.140212 
15   0.161484 
16   0.146704 
17   0.165583 
18   0.15621 
19   0.344663 
20   0.351288 
21   0.352 
22   0.364741 
23   0.365541 
 
$$$$ 
 
