PCCDB-ID:  2766 
public computational chemistry database (PCCDB) project, http://pccdb.org 
 
 14 13  0  0  0  0  0  0  0  0999 V2000 
    1.2580    0.3065    0.0524 C   0  0  0  0  0  0  0  0  0  0  0  0 
    0.2625    0.4240   -0.8350 C   0  0  0  0  0  0  0  0  0  0  0  0 
    2.7171    0.2307   -0.2997 C   0  0  0  0  0  0  0  0  0  0  0  0 
   -1.1869    0.5497   -0.5137 C   0  0  0  0  0  0  0  0  0  0  0  0 
    3.4742    1.1899    0.5117 N   0  0  0  0  0  0  0  0  0  0  0  0 
   -1.9866    0.9929   -1.3043 O   0  0  0  0  0  0  0  0  0  0  0  0 
   -1.5969    0.1577    0.7247 O   0  0  0  0  0  0  0  0  0  0  0  0 
    1.0624    0.2962    1.1263 H   0  0  0  0  0  0  0  0  0  0  0  0 
    0.4740    0.5069   -1.8980 H   0  0  0  0  0  0  0  0  0  0  0  0 
    2.8391    0.3391   -1.3911 H   0  0  0  0  0  0  0  0  0  0  0  0 
    3.0839   -0.7728   -0.0393 H   0  0  0  0  0  0  0  0  0  0  0  0 
    3.2565    2.1395    0.2141 H   0  0  0  0  0  0  0  0  0  0  0  0 
    4.4727    1.0597    0.3620 H   0  0  0  0  0  0  0  0  0  0  0  0 
   -0.8717   -0.2922    1.1876 H   0  0  0  0  0  0  0  0  0  0  0  0 
  1  8  1  0  0  0  0 
  2  4  1  0  0  0  0 
  2  1  2  0  0  0  0 
  3 11  1  0  0  0  0 
  3  1  1  0  0  0  0 
  3  5  1  0  0  0  0 
  4  7  1  0  0  0  0 
  6  4  2  0  0  0  0 
  7 14  1  0  0  0  0 
  9  2  1  0  0  0  0 
 10  3  1  0  0  0  0 
 12  5  1  0  0  0  0 
 13  5  1  0  0  0  0 
M  END 
>  <HBA> 
3 
 
>  <HBD> 
2 
 
>  <TPSA> 
63.32 
 
>  <cid> 
2766 
 
>  <dipole> 
5.24 
 
>  <excitation_energy_1> 
4.547 
 
>  <excitation_energy_2> 
4.705 
 
>  <excitation_energy_3> 
6.009 
 
>  <excitation_energy_4> 
6.2 
 
>  <homo_energy> 
-6.958 
 
>  <homo_lumo_gap> 
5.587 
 
>  <logP> 
0.286 
 
>  <lumo_energy> 
-1.371 
 
>  <melting_point> 
115.96 
 
>  <molecular_refractivity> 
25.35 
 
>  <oscillator_strength_1> 
0.009 
 
>  <oscillator_strength_2> 
0.007 
 
>  <oscillator_strength_3> 
0.013 
 
>  <oscillator_strength_4> 
0.3828 
 
>  <open_babel_can_smiles> 
NC/C=C/C(=O)O 
 
>  <mulliken_charges> 
14 
1   -0.091921 
2   -0.185426 
3   -0.190977 
4   0.57613 
5   -0.715063 
6   -0.449018 
7   -0.572801 
8   0.145129 
9   0.161115 
10   0.138095 
11   0.164365 
12   0.305872 
13   0.306518 
14   0.407981 
 
>  <lowdin_charges> 
14 
1   -0.134531 
2   -0.206112 
3   -0.196214 
4   0.194419 
5   -0.551493 
6   -0.238977 
7   -0.362296 
8   0.15634 
9   0.174678 
10   0.130303 
11   0.158304 
12   0.258887 
13   0.259281 
14   0.357413 
 
$$$$ 
 
