PCCDB-ID:  4395 
public computational chemistry database (PCCDB) project, http://pccdb.org 
 
 27 26  0  0  1  0  0  0  0  0999 V2000 
    0.9411    0.1085   -3.2014 C   0  0  0  0  0  0  0  0  0  0  0  0 
    5.1793   -1.1093   -2.2154 C   0  0  0  0  0  0  0  0  0  0  0  0 
    6.6271   -1.0383   -1.7144 C   0  0  0  0  0  0  0  0  0  0  0  0 
    4.2250   -0.3004   -1.3225 C   0  0  0  0  0  0  0  0  0  0  0  0 
    2.3933    0.3740   -2.8455 C   0  0  0  0  0  0  0  0  0  0  0  0 
    7.6454   -1.7859   -2.5928 C   0  0  1  0  0  0  0  0  0  0  0  0 
    7.3759   -3.3095   -2.6133 C   0  0  0  0  0  0  0  0  0  0  0  0 
    3.1851    1.1977   -3.4373 N   0  0  0  0  0  0  0  0  0  0  0  0 
    7.7870   -1.3157   -3.9858 N   0  0  0  0  0  0  0  0  0  0  0  0 
    2.8335   -0.3351   -1.7490 N   0  0  0  0  0  0  0  0  0  0  0  0 
    6.9483   -3.9204   -1.6607 O   0  0  0  0  0  0  0  0  0  0  0  0 
    7.7016   -3.8955   -3.7752 O   0  0  0  0  0  0  0  0  0  0  0  0 
    0.6382    0.7071   -4.0638 H   0  0  0  0  0  0  0  0  0  0  0  0 
    0.2829    0.3513   -2.3590 H   0  0  0  0  0  0  0  0  0  0  0  0 
    0.7841   -0.9490   -3.4497 H   0  0  0  0  0  0  0  0  0  0  0  0 
    4.8544   -2.1570   -2.2418 H   0  0  0  0  0  0  0  0  0  0  0  0 
    5.0907   -0.7028   -3.2303 H   0  0  0  0  0  0  0  0  0  0  0  0 
    6.6848   -1.4681   -0.7079 H   0  0  0  0  0  0  0  0  0  0  0  0 
    6.9437    0.0111   -1.6365 H   0  0  0  0  0  0  0  0  0  0  0  0 
    4.5333    0.7495   -1.3147 H   0  0  0  0  0  0  0  0  0  0  0  0 
    4.2665   -0.6709   -0.2911 H   0  0  0  0  0  0  0  0  0  0  0  0 
    8.6361   -1.6833   -2.1294 H   0  0  0  0  0  0  0  0  0  0  0  0 
    2.6831    1.6911   -4.1761 H   0  0  0  0  0  0  0  0  0  0  0  0 
    6.8813   -1.0347   -4.3596 H   0  0  0  0  0  0  0  0  0  0  0  0 
    8.3905   -0.4986   -4.0359 H   0  0  0  0  0  0  0  0  0  0  0  0 
    2.3004   -1.1542   -1.4932 H   0  0  0  0  0  0  0  0  0  0  0  0 
    7.9840   -3.1465   -4.3605 H   0  0  0  0  0  0  0  0  0  0  0  0 
  1  5  1  0  0  0  0 
  1 14  1  0  0  0  0 
  2  3  1  0  0  0  0 
  2  4  1  0  0  0  0 
  3 19  1  0  0  0  0 
  3 18  1  0  0  0  0 
  4 20  1  0  0  0  0 
  4 21  1  0  0  0  0 
  5 10  1  0  0  0  0 
  6 22  1  1  0  0  0 
  6  3  1  0  0  0  0 
  7  6  1  0  0  0  0 
  7 11  2  0  0  0  0 
  8  5  2  0  0  0  0 
  9  6  1  0  0  0  0 
 10 26  1  0  0  0  0 
 10  4  1  0  0  0  0 
 12  7  1  0  0  0  0 
 13  1  1  0  0  0  0 
 15  1  1  0  0  0  0 
 16  2  1  0  0  0  0 
 17  2  1  0  0  0  0 
 23  8  1  0  0  0  0 
 24  9  1  0  0  0  0 
 25  9  1  0  0  0  0 
 27 12  1  0  0  0  0 
M  END 
>  <HBA> 
5 
 
>  <HBD> 
3 
 
>  <TPSA> 
101.7 
 
>  <cid> 
4395 
 
>  <dipole> 
3.74 
 
>  <excitation_energy_1> 
5.345 
 
>  <excitation_energy_2> 
5.393 
 
>  <excitation_energy_3> 
5.423 
 
>  <excitation_energy_4> 
5.982 
 
>  <homo_energy> 
-6.049 
 
>  <homo_lumo_gap> 
6.528 
 
>  <logP> 
0.956 
 
>  <lumo_energy> 
0.479 
 
>  <melting_point> 
176.29 
 
>  <molecular_refractivity> 
46.63 
 
>  <oscillator_strength_1> 
0.0039 
 
>  <oscillator_strength_2> 
0.001 
 
>  <oscillator_strength_3> 
0.0033 
 
>  <oscillator_strength_4> 
0.0214 
 
>  <open_babel_can_smiles> 
CC(=N)NCCC[C@@H](C(=O)O)N 
 
>  <mulliken_charges> 
27 
1   -0.52481 
2   -0.28252 
3   -0.261003 
4   -0.121108 
5   0.471439 
6   -0.097487 
7   0.613944 
8   -0.651801 
9   -0.774807 
10   -0.581449 
11   -0.474086 
12   -0.582606 
13   0.162089 
14   0.175152 
15   0.163966 
16   0.150159 
17   0.153383 
18   0.164148 
19   0.132686 
20   0.173899 
21   0.139892 
22   0.173569 
23   0.273239 
24   0.331128 
25   0.324154 
26   0.316566 
27   0.432263 
 
>  <lowdin_charges> 
27 
1   -0.467608 
2   -0.294498 
3   -0.281476 
4   -0.191774 
5   0.096177 
6   -0.109565 
7   0.1761 
8   -0.466373 
9   -0.548424 
10   -0.289573 
11   -0.26489 
12   -0.357641 
13   0.164246 
14   0.169178 
15   0.162025 
16   0.148102 
17   0.148382 
18   0.161749 
19   0.142277 
20   0.162374 
21   0.144892 
22   0.167259 
23   0.250375 
24   0.269355 
25   0.272585 
26   0.276375 
27   0.360368 
 
$$$$ 
 
