PCCDB-ID:  4944 
public computational chemistry database (PCCDB) project, http://pccdb.org 
 
 30 30  0  0  0  0  0  0  0  0999 V2000 
    1.3917   -0.2526    1.4633 C   0  0  0  0  0  0  0  0  0  0  0  0 
    3.0593    0.6595   -0.2262 C   0  0  0  0  0  0  0  0  0  0  0  0 
    2.8032    2.6732    5.5073 C   0  0  0  0  0  0  0  0  0  0  0  0 
    7.1027   -0.8484    1.4899 C   0  0  0  0  0  0  0  0  0  0  0  0 
    7.7473   -0.1192    2.4854 C   0  0  0  0  0  0  0  0  0  0  0  0 
    5.7181   -0.7529    1.3156 C   0  0  0  0  0  0  0  0  0  0  0  0 
    6.9982    0.7233    3.3116 C   0  0  0  0  0  0  0  0  0  0  0  0 
    2.8396   -0.2430    0.9873 C   0  0  0  0  0  0  0  0  0  0  0  0 
    4.9589    0.0781    2.1459 C   0  0  0  0  0  0  0  0  0  0  0  0 
    5.6266    0.8236    3.1367 C   0  0  0  0  0  0  0  0  0  0  0  0 
    4.1660    2.6623    3.5906 C   0  0  0  0  0  0  0  0  0  0  0  0 
    3.2315    3.2195    4.2308 N   0  0  0  0  0  0  0  0  0  0  0  0 
    4.5850    3.1259    2.3902 O   0  0  0  0  0  0  0  0  0  0  0  0 
    3.6065    0.2270    2.1138 O   0  0  0  0  0  0  0  0  0  0  0  0 
    4.8969    1.6021    4.0318 O   0  0  0  0  0  0  0  0  0  0  0  0 
    0.7328   -0.6182    0.6686 H   0  0  0  0  0  0  0  0  0  0  0  0 
    1.0768    0.7589    1.7410 H   0  0  0  0  0  0  0  0  0  0  0  0 
    1.2785   -0.9005    2.3377 H   0  0  0  0  0  0  0  0  0  0  0  0 
    4.1108    0.6795   -0.5275 H   0  0  0  0  0  0  0  0  0  0  0  0 
    2.7538    1.6838    0.0118 H   0  0  0  0  0  0  0  0  0  0  0  0 
    2.4653    0.3052   -1.0761 H   0  0  0  0  0  0  0  0  0  0  0  0 
    3.2025    3.2813    6.3301 H   0  0  0  0  0  0  0  0  0  0  0  0 
    3.1128    1.6333    5.6699 H   0  0  0  0  0  0  0  0  0  0  0  0 
    1.7104    2.7282    5.5677 H   0  0  0  0  0  0  0  0  0  0  0  0 
    7.6725   -1.5039    0.8371 H   0  0  0  0  0  0  0  0  0  0  0  0 
    8.8220   -0.1957    2.6189 H   0  0  0  0  0  0  0  0  0  0  0  0 
    5.2384   -1.3342    0.5364 H   0  0  0  0  0  0  0  0  0  0  0  0 
    7.4629    1.3115    4.0967 H   0  0  0  0  0  0  0  0  0  0  0  0 
    3.1442   -1.2725    0.7550 H   0  0  0  0  0  0  0  0  0  0  0  0 
    3.9978    3.8785    2.2005 H   0  0  0  0  0  0  0  0  0  0  0  0 
  1 17  1  0  0  0  0 
  1 18  1  0  0  0  0 
  2 20  1  0  0  0  0 
  2  8  1  0  0  0  0 
  3 24  1  0  0  0  0 
  3 23  1  0  0  0  0 
  3 22  1  0  0  0  0 
  4  5  1  0  0  0  0 
  5 26  1  0  0  0  0 
  5  7  2  0  0  0  0 
  6  4  2  0  0  0  0 
  6  9  1  0  0  0  0 
  7 28  1  0  0  0  0 
  8  1  1  0  0  0  0 
  8 14  1  0  0  0  0 
  9 10  2  0  0  0  0 
 10  7  1  0  0  0  0 
 10 15  1  0  0  0  0 
 11 15  1  0  0  0  0 
 11 12  2  0  0  0  0 
 12  3  1  0  0  0  0 
 13 11  1  0  0  0  0 
 14  9  1  0  0  0  0 
 16  1  1  0  0  0  0 
 19  2  1  0  0  0  0 
 21  2  1  0  0  0  0 
 25  4  1  0  0  0  0 
 27  6  1  0  0  0  0 
 29  8  1  0  0  0  0 
 30 13  1  0  0  0  0 
M  END 
>  <HBA> 
4 
 
>  <HBD> 
1 
 
>  <TPSA> 
47.56 
 
>  <cid> 
4944 
 
>  <dipole> 
2.52 
 
>  <excitation_energy_1> 
4.961 
 
>  <excitation_energy_2> 
5.442 
 
>  <excitation_energy_3> 
5.56 
 
>  <excitation_energy_4> 
5.668 
 
>  <homo_energy> 
-5.886 
 
>  <homo_lumo_gap> 
5.87 
 
>  <logP> 
2.583 
 
>  <lumo_energy> 
-0.016 
 
>  <melting_point> 
71.44 
 
>  <molecular_refractivity> 
57.24 
 
>  <oscillator_strength_1> 
0.0486 
 
>  <oscillator_strength_2> 
0.0226 
 
>  <oscillator_strength_3> 
0.0313 
 
>  <oscillator_strength_4> 
0.0011 
 
>  <open_babel_can_smiles> 
C/N=C(\Oc1ccccc1OC(C)C)/O 
 
>  <mulliken_charges> 
30 
1   -0.452275 
2   -0.455672 
3   -0.320451 
4   -0.131171 
5   -0.146127 
6   -0.203947 
7   -0.166839 
8   0.135729 
9   0.389271 
10   0.302511 
11   0.723945 
12   -0.486769 
13   -0.594923 
14   -0.542324 
15   -0.536255 
16   0.14565 
17   0.163773 
18   0.161543 
19   0.163508 
20   0.157304 
21   0.145852 
22   0.150554 
23   0.153976 
24   0.149185 
25   0.130083 
26   0.130917 
27   0.137352 
28   0.14294 
29   0.132902 
30   0.419757 
 
>  <lowdin_charges> 
30 
1   -0.447138 
2   -0.456043 
3   -0.350159 
4   -0.153977 
5   -0.170115 
6   -0.208814 
7   -0.161742 
8   0.016131 
9   0.09107 
10   0.075788 
11   0.195406 
12   -0.265135 
13   -0.363938 
14   -0.197494 
15   -0.153393 
16   0.156179 
17   0.159967 
18   0.161405 
19   0.160124 
20   0.157184 
21   0.156446 
22   0.149935 
23   0.143592 
24   0.147138 
25   0.160417 
26   0.158133 
27   0.16403 
28   0.170721 
29   0.133752 
30   0.370532 
 
$$$$ 
 
