PCCDB-ID:  342 
public computational chemistry database (PCCDB) project, http://pccdb.org 
 
 16 16  0  0  0  0  0  0  0  0999 V2000 
    0.9322   -0.1032    0.0855 C   0  0  0  0  0  0  0  0  0  0  0  0 
    4.5633    1.0466   -0.1726 C   0  0  0  0  0  0  0  0  0  0  0  0 
    3.1726    1.0760   -0.0654 C   0  0  0  0  0  0  0  0  0  0  0  0 
    5.2443   -0.1668   -0.2553 C   0  0  0  0  0  0  0  0  0  0  0  0 
    3.1236   -1.3346   -0.1226 C   0  0  0  0  0  0  0  0  0  0  0  0 
    2.4389   -0.1178   -0.0384 C   0  0  0  0  0  0  0  0  0  0  0  0 
    4.5159   -1.3613   -0.2298 C   0  0  0  0  0  0  0  0  0  0  0  0 
    5.1153   -2.5905   -0.3074 O   0  0  0  0  0  0  0  0  0  0  0  0 
    0.5406    0.9186    0.0697 H   0  0  0  0  0  0  0  0  0  0  0  0 
    0.6045   -0.5715    1.0222 H   0  0  0  0  0  0  0  0  0  0  0  0 
    0.4578   -0.6576   -0.7333 H   0  0  0  0  0  0  0  0  0  0  0  0 
    5.1253    1.9767   -0.1932 H   0  0  0  0  0  0  0  0  0  0  0  0 
    2.6530    2.0284   -0.0015 H   0  0  0  0  0  0  0  0  0  0  0  0 
    6.3295   -0.1889   -0.3392 H   0  0  0  0  0  0  0  0  0  0  0  0 
    2.5871   -2.2794   -0.1061 H   0  0  0  0  0  0  0  0  0  0  0  0 
    6.0746   -2.4662   -0.3748 H   0  0  0  0  0  0  0  0  0  0  0  0 
  1 10  1  0  0  0  0 
  2  3  2  0  0  0  0 
  3  6  1  0  0  0  0 
  3 13  1  0  0  0  0 
  4  7  2  0  0  0  0 
  4  2  1  0  0  0  0 
  5 15  1  0  0  0  0 
  5  6  2  0  0  0  0 
  6  1  1  0  0  0  0 
  7  5  1  0  0  0  0 
  8  7  1  0  0  0  0 
  9  1  1  0  0  0  0 
 11  1  1  0  0  0  0 
 12  2  1  0  0  0  0 
 14  4  1  0  0  0  0 
 16  8  1  0  0  0  0 
M  END 
>  <HBA> 
1 
 
>  <HBD> 
1 
 
>  <TPSA> 
20.23 
 
>  <cid> 
342 
 
>  <dipole> 
1.06 
 
>  <excitation_energy_1> 
4.996 
 
>  <excitation_energy_2> 
5.201 
 
>  <excitation_energy_3> 
5.763 
 
>  <excitation_energy_4> 
5.794 
 
>  <homo_energy> 
-5.878 
 
>  <homo_lumo_gap> 
5.932 
 
>  <logP> 
1.701 
 
>  <lumo_energy> 
0.054 
 
>  <melting_point> 
48.13 
 
>  <molecular_refractivity> 
33.43 
 
>  <oscillator_strength_1> 
0.0398 
 
>  <oscillator_strength_2> 
0.0001 
 
>  <oscillator_strength_3> 
0.0062 
 
>  <oscillator_strength_4> 
0.0017 
 
>  <open_babel_can_smiles> 
Cc1cccc(c1)O 
 
>  <mulliken_charges> 
16 
1   -0.529506 
2   -0.130812 
3   -0.1872 
4   -0.19847 
5   -0.211038 
6   0.172564 
7   0.352783 
8   -0.644754 
9   0.153837 
10   0.16386 
11   0.162327 
12   0.12826 
13   0.117687 
14   0.11458 
15   0.130098 
16   0.405785 
 
>  <lowdin_charges> 
16 
1   -0.442285 
2   -0.144885 
3   -0.19301 
4   -0.218172 
5   -0.19802 
6   0.013966 
7   0.103701 
8   -0.379258 
9   0.155437 
10   0.161676 
11   0.161846 
12   0.15782 
13   0.153666 
14   0.149548 
15   0.163497 
16   0.354475 
 
$$$$ 
 
