PCCDB-ID:  4983 
public computational chemistry database (PCCDB) project, http://pccdb.org 
 
 35 36  0  0  1  0  0  0  0  0999 V2000 
    0.9209    0.1050   -0.2009 C   0  0  0  0  0  0  0  0  0  0  0  0 
    2.7303   -0.2740    1.4978 C   0  0  0  0  0  0  0  0  0  0  0  0 
    2.5613    2.4924   -0.6448 C   0  0  0  0  0  0  0  0  0  0  0  0 
    4.6859    1.2559   -0.1308 C   0  0  0  0  0  0  0  0  0  0  0  0 
    4.1046   -3.1563   -5.4871 C   0  0  0  0  0  0  0  0  0  0  0  0 
    3.7957   -1.8058   -5.6542 C   0  0  0  0  0  0  0  0  0  0  0  0 
    4.1274   -3.7012   -4.2008 C   0  0  0  0  0  0  0  0  0  0  0  0 
    3.5127   -0.9991   -4.5543 C   0  0  0  0  0  0  0  0  0  0  0  0 
    3.8339   -2.9086   -3.0963 C   0  0  0  0  0  0  0  0  0  0  0  0 
    3.5192   -1.5438   -3.2537 C   0  0  0  0  0  0  0  0  0  0  0  0 
    3.2362   -0.7052   -2.0948 C   0  0  3  0  0  0  0  0  0  0  0  0 
    2.4393   -0.0452    0.0127 C   0  0  0  0  0  0  0  0  0  0  0  0 
    3.2395    1.1240   -0.6414 C   0  0  0  0  0  0  0  0  0  0  0  0 
    2.9839   -1.2016   -0.7867 N   0  0  0  0  0  0  0  0  0  0  0  0 
    3.3469    0.6125   -2.0611 N   0  0  0  0  0  0  0  0  0  0  0  0 
    2.0279   -2.2810   -0.8110 O   0  0  0  0  0  0  0  0  0  0  0  0 
    3.7103    1.4184   -2.9873 O   0  0  0  0  0  0  0  0  0  0  0  0 
    0.5435    0.9568    0.3723 H   0  0  0  0  0  0  0  0  0  0  0  0 
    0.4073   -0.7952    0.1401 H   0  0  0  0  0  0  0  0  0  0  0  0 
    0.6699    0.2577   -1.2547 H   0  0  0  0  0  0  0  0  0  0  0  0 
    2.4133    0.5891    2.0938 H   0  0  0  0  0  0  0  0  0  0  0  0 
    3.7911   -0.4566    1.6826 H   0  0  0  0  0  0  0  0  0  0  0  0 
    2.1667   -1.1442    1.8517 H   0  0  0  0  0  0  0  0  0  0  0  0 
    2.4226    2.8451    0.3831 H   0  0  0  0  0  0  0  0  0  0  0  0 
    1.5904    2.4725   -1.1439 H   0  0  0  0  0  0  0  0  0  0  0  0 
    3.1953    3.2039   -1.1778 H   0  0  0  0  0  0  0  0  0  0  0  0 
    4.7088    1.7288    0.8562 H   0  0  0  0  0  0  0  0  0  0  0  0 
    5.2412    1.8846   -0.8328 H   0  0  0  0  0  0  0  0  0  0  0  0 
    5.1828    0.2836   -0.0663 H   0  0  0  0  0  0  0  0  0  0  0  0 
    4.3303   -3.7789   -6.3487 H   0  0  0  0  0  0  0  0  0  0  0  0 
    3.7801   -1.3703   -6.6498 H   0  0  0  0  0  0  0  0  0  0  0  0 
    4.3756   -4.7494   -4.0567 H   0  0  0  0  0  0  0  0  0  0  0  0 
    3.2981    0.0537   -4.6794 H   0  0  0  0  0  0  0  0  0  0  0  0 
    3.8598   -3.3457   -2.1061 H   0  0  0  0  0  0  0  0  0  0  0  0 
    2.4883   -2.9738   -0.3111 H   0  0  0  0  0  0  0  0  0  0  0  0 
  1 12  1  0  0  0  0 
  1 19  1  0  0  0  0 
  1 18  1  0  0  0  0 
  2 22  1  0  0  0  0 
  2 23  1  0  0  0  0 
  2 21  1  0  0  0  0 
  3 13  1  0  0  0  0 
  3 24  1  0  0  0  0 
  4 29  1  0  0  0  0 
  4 27  1  0  0  0  0 
  5  7  1  0  0  0  0 
  6  5  2  0  0  0  0 
  6  8  1  0  0  0  0 
  7 32  1  0  0  0  0 
  7  9  2  0  0  0  0 
  8 10  2  0  0  0  0 
  9 34  1  0  0  0  0 
 10  9  1  0  0  0  0 
 10 11  1  0  0  0  0 
 11 15  1  0  0  0  0 
 11 14  1  0  0  0  0 
 12  2  1  0  0  0  0 
 13  4  1  0  0  0  0 
 13 12  1  0  0  0  0 
 14 12  1  0  0  0  0 
 15 13  1  0  0  0  0 
 16 14  1  0  0  0  0 
 16 35  1  0  0  0  0 
 17 15  1  0  0  0  0 
 20  1  1  0  0  0  0 
 25  3  1  0  0  0  0 
 26  3  1  0  0  0  0 
 28  4  1  0  0  0  0 
 30  5  1  0  0  0  0 
 31  6  1  0  0  0  0 
 33  8  1  0  0  0  0 
M  RAD  2  11   2  17   2 
M  END 
>  <HBA> 
3 
 
>  <HBD> 
1 
 
>  <TPSA> 
52.22 
 
>  <cid> 
4983 
 
>  <dipole> 
3.88 
 
>  <excitation_energy_1> 
3.771 
 
>  <excitation_energy_2> 
3.978 
 
>  <excitation_energy_3> 
4.284 
 
>  <excitation_energy_4> 
4.297 
 
>  <homo_energy> 
-4.974 
 
>  <homo_lumo_gap> 
3.943 
 
>  <logP> 
2.102 
 
>  <lumo_energy> 
-1.031 
 
>  <melting_point> 
133.9 
 
>  <molecular_refractivity> 
76.13 
 
>  <oscillator_strength_1> 
0.1881 
 
>  <oscillator_strength_2> 
0.0475 
 
>  <oscillator_strength_3> 
0.0132 
 
>  <oscillator_strength_4> 
0.0056 
 
>  <open_babel_can_smiles> 
ON1[C](c2ccccc2)N(C(C1(C)C)(C)C)[O] 
 
>  <mulliken_charges> 
35 
1   -0.454375 
2   -0.464015 
3   -0.460257 
4   -0.457049 
5   -0.12171 
6   -0.140612 
7   -0.140749 
8   -0.168318 
9   -0.144421 
10   0.117774 
11   0.497842 
12   0.19225 
13   0.165936 
14   -0.355206 
15   -0.054693 
16   -0.500751 
17   -0.529587 
18   0.14926 
19   0.16904 
20   0.163076 
21   0.151037 
22   0.160213 
23   0.149274 
24   0.143462 
25   0.163074 
26   0.182189 
27   0.150422 
28   0.180483 
29   0.163072 
30   0.129218 
31   0.13262 
32   0.127186 
33   0.182091 
34   0.105856 
35   0.41637 
 
>  <lowdin_charges> 
35 
1   -0.455514 
2   -0.447284 
3   -0.445455 
4   -0.449088 
5   -0.154089 
6   -0.155618 
7   -0.158358 
8   -0.146364 
9   -0.150407 
10   -0.011867 
11   0.042599 
12   0.061112 
13   0.060965 
14   -0.049781 
15   0.156764 
16   -0.390038 
17   -0.398944 
18   0.156845 
19   0.165346 
20   0.15892 
21   0.156512 
22   0.157866 
23   0.156261 
24   0.152399 
25   0.162444 
26   0.175257 
27   0.155434 
28   0.172335 
29   0.159344 
30   0.158595 
31   0.158829 
32   0.15537 
33   0.18426 
34   0.152249 
35   0.3531 
 
$$$$ 
 
