PCCDB-ID:  3515 
public computational chemistry database (PCCDB) project, http://pccdb.org 
 
 33 34  0  0  0  0  0  0  0  0999 V2000 
    2.9003    0.4096   -1.3410 C   0  0  0  0  0  0  0  0  0  0  0  0 
    0.9782   -0.6441   -0.0567 C   0  0  0  0  0  0  0  0  0  0  0  0 
    6.2086   -1.5032    4.6052 C   0  0  0  0  0  0  0  0  0  0  0  0 
    4.5176   -4.6262   -0.5957 C   0  0  0  0  0  0  0  0  0  0  0  0 
    4.5892   -0.2894    3.1627 C   0  0  0  0  0  0  0  0  0  0  0  0 
    5.9209   -4.5781    1.5738 C   0  0  0  0  0  0  0  0  0  0  0  0 
    3.7095    0.0762    2.1328 C   0  0  0  0  0  0  0  0  0  0  0  0 
    6.1578   -3.7136    2.6643 C   0  0  0  0  0  0  0  0  0  0  0  0 
    3.7636   -1.8647    0.5841 C   0  0  0  0  0  0  0  0  0  0  0  0 
    2.3107    0.1216    0.0531 C   0  0  0  0  0  0  0  0  0  0  0  0 
    5.3543   -1.4439    3.3542 C   0  0  0  0  0  0  0  0  0  0  0  0 
    5.0144   -4.0056    0.6788 C   0  0  0  0  0  0  0  0  0  0  0  0 
    3.3117   -0.5877    0.9716 C   0  0  0  0  0  0  0  0  0  0  0  0 
    5.3984   -2.5527    2.4887 C   0  0  0  0  0  0  0  0  0  0  0  0 
    4.6505   -2.7320    1.2001 C   0  0  0  0  0  0  0  0  0  0  0  0 
    2.1871    0.9779   -1.9502 H   0  0  0  0  0  0  0  0  0  0  0  0 
    3.1297   -0.5167   -1.8813 H   0  0  0  0  0  0  0  0  0  0  0  0 
    3.8264    0.9900   -1.2673 H   0  0  0  0  0  0  0  0  0  0  0  0 
    0.2607   -0.0829   -0.6674 H   0  0  0  0  0  0  0  0  0  0  0  0 
    0.5330   -0.8069    0.9309 H   0  0  0  0  0  0  0  0  0  0  0  0 
    1.1148   -1.6256   -0.5261 H   0  0  0  0  0  0  0  0  0  0  0  0 
    6.0986   -0.5999    5.2110 H   0  0  0  0  0  0  0  0  0  0  0  0 
    7.2694   -1.6164    4.3510 H   0  0  0  0  0  0  0  0  0  0  0  0 
    5.9364   -2.3655    5.2255 H   0  0  0  0  0  0  0  0  0  0  0  0 
    3.4263   -4.7528   -0.6009 H   0  0  0  0  0  0  0  0  0  0  0  0 
    4.9594   -5.6180   -0.7373 H   0  0  0  0  0  0  0  0  0  0  0  0 
    4.7737   -4.0270   -1.4802 H   0  0  0  0  0  0  0  0  0  0  0  0 
    4.6888    0.4605    3.9449 H   0  0  0  0  0  0  0  0  0  0  0  0 
    6.3784   -5.5547    1.4448 H   0  0  0  0  0  0  0  0  0  0  0  0 
    3.2593    1.0588    2.2730 H   0  0  0  0  0  0  0  0  0  0  0  0 
    6.8202   -3.9215    3.4944 H   0  0  0  0  0  0  0  0  0  0  0  0 
    3.3517   -2.2368   -0.3533 H   0  0  0  0  0  0  0  0  0  0  0  0 
    2.0872    1.0927    0.5140 H   0  0  0  0  0  0  0  0  0  0  0  0 
  1 18  1  0  0  0  0 
  1 10  1  0  0  0  0 
  2 10  1  0  0  0  0 
  2 20  1  0  0  0  0 
  3 22  1  0  0  0  0 
  3 24  1  0  0  0  0 
  4 12  1  0  0  0  0 
  5 11  1  0  0  0  0 
  5 28  1  0  0  0  0 
  6  8  2  0  0  0  0 
  7 30  1  0  0  0  0 
  7  5  2  0  0  0  0 
  8 31  1  0  0  0  0 
  9 13  2  0  0  0  0 
  9 15  1  0  0  0  0 
 10 33  1  0  0  0  0 
 10 13  1  0  0  0  0 
 11  3  1  0  0  0  0 
 12 15  2  0  0  0  0 
 12  6  1  0  0  0  0 
 13  7  1  0  0  0  0 
 14  8  1  0  0  0  0 
 14 11  2  0  0  0  0 
 15 14  1  0  0  0  0 
 16  1  1  0  0  0  0 
 17  1  1  0  0  0  0 
 19  2  1  0  0  0  0 
 21  2  1  0  0  0  0 
 23  3  1  0  0  0  0 
 25  4  1  0  0  0  0 
 26  4  1  0  0  0  0 
 27  4  1  0  0  0  0 
 29  6  1  0  0  0  0 
 32  9  1  0  0  0  0 
M  END 
>  <HBA> 
0 
 
>  <HBD> 
0 
 
>  <TPSA> 
0.0 
 
>  <cid> 
3515 
 
>  <dipole> 
1.13 
 
>  <excitation_energy_1> 
2.275 
 
>  <excitation_energy_2> 
3.473 
 
>  <excitation_energy_3> 
4.469 
 
>  <excitation_energy_4> 
4.494 
 
>  <homo_energy> 
-4.838 
 
>  <homo_lumo_gap> 
3.197 
 
>  <logP> 
4.532 
 
>  <lumo_energy> 
-1.641 
 
>  <melting_point> 
53.01 
 
>  <molecular_refractivity> 
67.58 
 
>  <oscillator_strength_1> 
0.0126 
 
>  <oscillator_strength_2> 
0.0242 
 
>  <oscillator_strength_3> 
0.1669 
 
>  <oscillator_strength_4> 
0.0011 
 
>  <open_babel_can_smiles> 
CC(c1ccc(c2c(c1)c(C)cc2)C)C 
 
>  <mulliken_charges> 
33 
1   -0.439986 
2   -0.439667 
3   -0.532698 
4   -0.532405 
5   -0.213834 
6   -0.191267 
7   -0.185172 
8   -0.210761 
9   -0.256981 
10   -0.161434 
11   0.156125 
12   0.106912 
13   0.193753 
14   0.048567 
15   0.084841 
16   0.142279 
17   0.144465 
18   0.150389 
19   0.142226 
20   0.150284 
21   0.144557 
22   0.155607 
23   0.16986 
24   0.169847 
25   0.153689 
26   0.153646 
27   0.15386 
28   0.120013 
29   0.117949 
30   0.126366 
31   0.116459 
32   0.132462 
33   0.13005 
 
>  <lowdin_charges> 
33 
1   -0.445264 
2   -0.44411 
3   -0.441013 
4   -0.441499 
5   -0.191158 
6   -0.15446 
7   -0.139721 
8   -0.218217 
9   -0.122542 
10   -0.118452 
11   0.038195 
12   -0.049221 
13   -0.019885 
14   -0.018907 
15   -0.007575 
16   0.150586 
17   0.1476 
18   0.153166 
19   0.15047 
20   0.152759 
21   0.147083 
22   0.156464 
23   0.163765 
24   0.165737 
25   0.152235 
26   0.158205 
27   0.154588 
28   0.156299 
29   0.151549 
30   0.156089 
31   0.155629 
32   0.15972 
33   0.141883 
 
$$$$ 
 
