PCCDB-ID:  176 
public computational chemistry database (PCCDB) project, http://pccdb.org 
 
  8  7  0  0  0  0  0  0  0  0999 V2000 
    1.0332   -0.0674   -0.0714 C   0  0  0  0  0  0  0  0  0  0  0  0 
    2.5513   -0.0183   -0.1108 C   0  0  0  0  0  0  0  0  0  0  0  0 
    3.1966    0.7793   -0.7396 O   0  0  0  0  0  0  0  0  0  0  0  0 
    3.1836   -0.9688    0.6368 O   0  0  0  0  0  0  0  0  0  0  0  0 
    0.6317    0.7345   -0.6913 H   0  0  0  0  0  0  0  0  0  0  0  0 
    0.6664    0.0541    0.9551 H   0  0  0  0  0  0  0  0  0  0  0  0 
    0.6662   -1.0300   -0.4479 H   0  0  0  0  0  0  0  0  0  0  0  0 
    2.5310   -1.5331    1.0827 H   0  0  0  0  0  0  0  0  0  0  0  0 
  1  6  1  0  0  0  0 
  2  1  1  0  0  0  0 
  2  4  1  0  0  0  0 
  3  2  2  0  0  0  0 
  4  8  1  0  0  0  0 
  5  1  1  0  0  0  0 
  7  1  1  0  0  0  0 
M  END 
>  <HBA> 
2 
 
>  <HBD> 
1 
 
>  <TPSA> 
37.3 
 
>  <cid> 
176 
 
>  <dipole> 
4.3 
 
>  <excitation_energy_1> 
5.72 
 
>  <excitation_energy_2> 
6.521 
 
>  <excitation_energy_3> 
7.575 
 
>  <excitation_energy_4> 
7.706 
 
>  <homo_energy> 
-7.415 
 
>  <homo_lumo_gap> 
7.668 
 
>  <logP> 
0.091 
 
>  <lumo_energy> 
0.253 
 
>  <melting_point> 
53.25 
 
>  <molecular_refractivity> 
13.5 
 
>  <oscillator_strength_1> 
0.001 
 
>  <oscillator_strength_2> 
0.0222 
 
>  <oscillator_strength_3> 
0.0042 
 
>  <oscillator_strength_4> 
0.0165 
 
>  <open_babel_can_smiles> 
CC(=O)O 
 
>  <mulliken_charges> 
8 
1   -0.566564 
2   0.584817 
3   -0.424665 
4   -0.555009 
5   0.199834 
6   0.176672 
7   0.177527 
8   0.407388 
 
>  <lowdin_charges> 
8 
1   -0.488886 
2   0.19909 
3   -0.233832 
4   -0.364842 
5   0.186422 
6   0.170885 
7   0.172144 
8   0.359019 
 
$$$$ 
 
