PCCDB-ID:  28 
public computational chemistry database (PCCDB) project, http://pccdb.org 
 
 18 17  0  0  0  0  0  0  0  0999 V2000 
    0.0192    0.7031   -0.1120 C   0  0  0  0  0  0  0  0  0  0  0  0 
   -0.3532   -0.6810   -0.0416 C   0  0  0  0  0  0  0  0  0  0  0  0 
    1.2937    1.1268    0.0647 C   0  0  0  0  0  0  0  0  0  0  0  0 
   -1.5936   -1.2353   -0.1984 C   0  0  0  0  0  0  0  0  0  0  0  0 
    1.6281    2.5538   -0.0110 C   0  0  0  0  0  0  0  0  0  0  0  0 
   -2.8192   -0.4192   -0.4618 C   0  0  0  0  0  0  0  0  0  0  0  0 
   -1.7968   -2.6020   -0.1679 N   0  0  0  0  0  0  0  0  0  0  0  0 
    2.9609    2.7664    0.1922 O   0  0  0  0  0  0  0  0  0  0  0  0 
    0.8564    3.4718   -0.2223 O   0  0  0  0  0  0  0  0  0  0  0  0 
   -3.9420   -1.1919   -0.4417 O   0  0  0  0  0  0  0  0  0  0  0  0 
   -2.8718    0.7748   -0.6604 O   0  0  0  0  0  0  0  0  0  0  0  0 
   -0.7471    1.4432   -0.3146 H   0  0  0  0  0  0  0  0  0  0  0  0 
    0.4570   -1.3833    0.1603 H   0  0  0  0  0  0  0  0  0  0  0  0 
    2.1079    0.4355    0.2647 H   0  0  0  0  0  0  0  0  0  0  0  0 
   -1.0643   -3.1647    0.2430 H   0  0  0  0  0  0  0  0  0  0  0  0 
   -2.7361   -2.9216    0.0193 H   0  0  0  0  0  0  0  0  0  0  0  0 
    3.0812    3.7315    0.1242 H   0  0  0  0  0  0  0  0  0  0  0  0 
   -4.6854   -0.5860   -0.6180 H   0  0  0  0  0  0  0  0  0  0  0  0 
  1  2  1  0  0  0  0 
  1  3  2  0  0  0  0 
  2 13  1  0  0  0  0 
  3 14  1  0  0  0  0 
  4  7  1  0  0  0  0 
  4  2  2  0  0  0  0 
  5  3  1  0  0  0  0 
  5  8  1  0  0  0  0 
  6 10  1  0  0  0  0 
  6  4  1  0  0  0  0 
  7 16  1  0  0  0  0 
  7 15  1  0  0  0  0 
  9  5  2  0  0  0  0 
 11  6  2  0  0  0  0 
 12  1  1  0  0  0  0 
 17  8  1  0  0  0  0 
 18 10  1  0  0  0  0 
M  END 
>  <HBA> 
5 
 
>  <HBD> 
3 
 
>  <TPSA> 
100.62 
 
>  <cid> 
28 
 
>  <dipole> 
5.12 
 
>  <excitation_energy_1> 
3.614 
 
>  <excitation_energy_2> 
4.058 
 
>  <excitation_energy_3> 
4.526 
 
>  <excitation_energy_4> 
4.913 
 
>  <homo_energy> 
-5.736 
 
>  <homo_lumo_gap> 
3.649 
 
>  <logP> 
0.255 
 
>  <lumo_energy> 
-2.087 
 
>  <melting_point> 
205.0 
 
>  <molecular_refractivity> 
36.26 
 
>  <oscillator_strength_1> 
0.5521 
 
>  <oscillator_strength_2> 
0.0 
 
>  <oscillator_strength_3> 
0.0001 
 
>  <oscillator_strength_4> 
0.0177 
 
>  <open_babel_can_smiles> 
OC(=O)/C=C/C=C(\C(=O)O)/N 
 
>  <mulliken_charges> 
18 
1   -0.075415 
2   -0.208999 
3   -0.203905 
4   0.283496 
5   0.558577 
6   0.574752 
7   -0.783901 
8   -0.591498 
9   -0.48633 
10   -0.599139 
11   -0.457034 
12   0.208411 
13   0.123948 
14   0.140297 
15   0.334081 
16   0.356863 
17   0.404061 
18   0.421736 
 
>  <lowdin_charges> 
18 
1   -0.100282 
2   -0.189324 
3   -0.218343 
4   0.030044 
5   0.192676 
6   0.194321 
7   -0.463756 
8   -0.372532 
9   -0.287046 
10   -0.366586 
11   -0.242568 
12   0.196326 
13   0.156929 
14   0.1645 
15   0.285996 
16   0.29412 
17   0.355296 
18   0.370227 
 
$$$$ 
 
