PCCDB-ID:  3773 
public computational chemistry database (PCCDB) project, http://pccdb.org 
 
 20 20  0  0  0  0  0  0  0  0999 V2000 
    0.6860    1.2623   -0.1567 C   0  0  0  0  0  0  0  0  0  0  0  0 
   -1.4367   -0.1121   -0.2815 C   0  0  0  0  0  0  0  0  0  0  0  0 
    1.4031    0.0095    0.3589 C   0  0  0  0  0  0  0  0  0  0  0  0 
   -0.6288   -1.3070    0.2334 C   0  0  0  0  0  0  0  0  0  0  0  0 
   -0.8209    1.2095    0.2005 C   0  0  0  0  0  0  0  0  0  0  0  0 
   -1.5670    2.4144   -0.3699 C   0  0  0  0  0  0  0  0  0  0  0  0 
    0.7653   -1.1818   -0.1943 N   0  0  0  0  0  0  0  0  0  0  0  0 
   -2.4070    2.3616   -1.2325 O   0  0  0  0  0  0  0  0  0  0  0  0 
   -1.2123    3.6239    0.1536 O   0  0  0  0  0  0  0  0  0  0  0  0 
    0.7956    1.3149   -1.2463 H   0  0  0  0  0  0  0  0  0  0  0  0 
    1.1639    2.1564    0.2656 H   0  0  0  0  0  0  0  0  0  0  0  0 
   -2.4777   -0.1847    0.0519 H   0  0  0  0  0  0  0  0  0  0  0  0 
   -1.4468   -0.1205   -1.3760 H   0  0  0  0  0  0  0  0  0  0  0  0 
    1.3943    0.0267    1.4689 H   0  0  0  0  0  0  0  0  0  0  0  0 
    2.4523    0.0258    0.0429 H   0  0  0  0  0  0  0  0  0  0  0  0 
   -1.0368   -2.2365   -0.1790 H   0  0  0  0  0  0  0  0  0  0  0  0 
   -0.7305   -1.3670    1.3366 H   0  0  0  0  0  0  0  0  0  0  0  0 
   -0.9056    1.2599    1.2992 H   0  0  0  0  0  0  0  0  0  0  0  0 
    1.2887   -2.0117    0.0746 H   0  0  0  0  0  0  0  0  0  0  0  0 
   -0.5366    3.5016    0.8409 H   0  0  0  0  0  0  0  0  0  0  0  0 
  1  5  1  0  0  0  0 
  1 11  1  0  0  0  0 
  1  3  1  0  0  0  0 
  2 12  1  0  0  0  0 
  2  5  1  0  0  0  0 
  2  4  1  0  0  0  0 
  3 14  1  0  0  0  0 
  4 17  1  0  0  0  0 
  5 18  1  0  0  0  0 
  6  9  1  0  0  0  0 
  6  5  1  0  0  0  0 
  7 19  1  0  0  0  0 
  7  4  1  0  0  0  0 
  7  3  1  0  0  0  0 
  8  6  2  0  0  0  0 
  9 20  1  0  0  0  0 
 10  1  1  0  0  0  0 
 13  2  1  0  0  0  0 
 15  3  1  0  0  0  0 
 16  4  1  0  0  0  0 
M  END 
>  <HBA> 
3 
 
>  <HBD> 
2 
 
>  <TPSA> 
49.33 
 
>  <cid> 
3773 
 
>  <dipole> 
4.99 
 
>  <excitation_energy_1> 
5.33 
 
>  <excitation_energy_2> 
5.555 
 
>  <excitation_energy_3> 
5.632 
 
>  <excitation_energy_4> 
5.832 
 
>  <homo_energy> 
-6.248 
 
>  <homo_lumo_gap> 
6.574 
 
>  <logP> 
0.399 
 
>  <lumo_energy> 
0.327 
 
>  <melting_point> 
100.35 
 
>  <molecular_refractivity> 
37.33 
 
>  <oscillator_strength_1> 
0.0144 
 
>  <oscillator_strength_2> 
0.0128 
 
>  <oscillator_strength_3> 
0.0011 
 
>  <oscillator_strength_4> 
0.0015 
 
>  <open_babel_can_smiles> 
OC(=O)C1CCNCC1 
 
>  <mulliken_charges> 
20 
1   -0.262761 
2   -0.243529 
3   -0.127665 
4   -0.142666 
5   -0.23315 
6   0.615485 
7   -0.543193 
8   -0.442027 
9   -0.575579 
10   0.168537 
11   0.121038 
12   0.147314 
13   0.16886 
14   0.107579 
15   0.14495 
16   0.144896 
17   0.107651 
18   0.136029 
19   0.299957 
20   0.408272 
 
>  <lowdin_charges> 
20 
1   -0.278724 
2   -0.271676 
3   -0.197973 
4   -0.20173 
5   -0.171017 
6   0.192717 
7   -0.366271 
8   -0.234799 
9   -0.360185 
10   0.157755 
11   0.138891 
12   0.154323 
13   0.160426 
14   0.110563 
15   0.148388 
16   0.150353 
17   0.110973 
18   0.143326 
19   0.258298 
20   0.356361 
 
$$$$ 
 
