PCCDB-ID:  3518 
public computational chemistry database (PCCDB) project, http://pccdb.org 
 
 36 36  0  0  0  0  0  0  0  0999 V2000 
   -2.5520   -0.1139   -0.7635 C   0  0  0  0  0  0  0  0  0  0  0  0 
   -2.3537    1.3819   -1.0456 C   0  0  0  0  0  0  0  0  0  0  0  0 
   -1.8167   -1.1044   -1.6767 C   0  0  0  0  0  0  0  0  0  0  0  0 
   -0.9219    1.9464   -0.9120 C   0  0  0  0  0  0  0  0  0  0  0  0 
   -0.2756   -1.0380   -1.6891 C   0  0  0  0  0  0  0  0  0  0  0  0 
    3.0151    1.4793    0.8768 C   0  0  0  0  0  0  0  0  0  0  0  0 
   -0.0925    1.4569    0.2981 C   0  0  0  0  0  0  0  0  0  0  0  0 
    0.4239   -0.9094   -0.3160 C   0  0  0  0  0  0  0  0  0  0  0  0 
    1.9396    0.4023    1.0752 C   0  0  0  0  0  0  0  0  0  0  0  0 
    4.7314    0.4488   -0.5417 C   0  0  0  0  0  0  0  0  0  0  0  0 
    5.2310   -0.1508    0.4793 N   0  0  0  0  0  0  0  0  0  0  0  0 
    5.1107    0.2868   -1.8852 N   0  0  0  0  0  0  0  0  0  0  0  0 
    3.6861    1.3586   -0.4136 N   0  0  0  0  0  0  0  0  0  0  0  0 
    0.9289    0.4377    0.0012 N   0  0  0  0  0  0  0  0  0  0  0  0 
   -3.6275   -0.3285   -0.8296 H   0  0  0  0  0  0  0  0  0  0  0  0 
   -2.2811   -0.3198    0.2801 H   0  0  0  0  0  0  0  0  0  0  0  0 
   -3.0047    1.9313   -0.3510 H   0  0  0  0  0  0  0  0  0  0  0  0 
   -2.7276    1.6175   -2.0522 H   0  0  0  0  0  0  0  0  0  0  0  0 
   -2.1790   -0.9904   -2.7083 H   0  0  0  0  0  0  0  0  0  0  0  0 
   -2.1153   -2.1158   -1.3663 H   0  0  0  0  0  0  0  0  0  0  0  0 
   -1.0140    3.0381   -0.8429 H   0  0  0  0  0  0  0  0  0  0  0  0 
   -0.3392    1.7628   -1.8199 H   0  0  0  0  0  0  0  0  0  0  0  0 
    0.0793   -0.2233   -2.3274 H   0  0  0  0  0  0  0  0  0  0  0  0 
    0.0825   -1.9582   -2.1687 H   0  0  0  0  0  0  0  0  0  0  0  0 
    3.7710    1.3880    1.6589 H   0  0  0  0  0  0  0  0  0  0  0  0 
    2.5824    2.4855    0.9379 H   0  0  0  0  0  0  0  0  0  0  0  0 
   -0.7621    1.1241    1.1155 H   0  0  0  0  0  0  0  0  0  0  0  0 
    0.4507    2.3182    0.6982 H   0  0  0  0  0  0  0  0  0  0  0  0 
    1.3040   -1.5589   -0.3271 H   0  0  0  0  0  0  0  0  0  0  0  0 
   -0.2318   -1.3019    0.4858 H   0  0  0  0  0  0  0  0  0  0  0  0 
    1.4837    0.5036    2.0777 H   0  0  0  0  0  0  0  0  0  0  0  0 
    2.4465   -0.5663    1.0534 H   0  0  0  0  0  0  0  0  0  0  0  0 
    6.0597   -0.6873    0.2169 H   0  0  0  0  0  0  0  0  0  0  0  0 
    5.9990   -0.1852   -2.0021 H   0  0  0  0  0  0  0  0  0  0  0  0 
    5.0767    1.1464   -2.4238 H   0  0  0  0  0  0  0  0  0  0  0  0 
    3.0070    1.2833   -1.1667 H   0  0  0  0  0  0  0  0  0  0  0  0 
  1 16  1  0  0  0  0 
  2  4  1  0  0  0  0 
  2  1  1  0  0  0  0 
  2 17  1  0  0  0  0 
  3 20  1  0  0  0  0 
  3  1  1  0  0  0  0 
  4 21  1  0  0  0  0 
  4  7  1  0  0  0  0 
  5  3  1  0  0  0  0 
  5  8  1  0  0  0  0 
  6 26  1  0  0  0  0 
  6  9  1  0  0  0  0 
  6 25  1  0  0  0  0 
  7 28  1  0  0  0  0 
  7 27  1  0  0  0  0 
  8 14  1  0  0  0  0 
  8 30  1  0  0  0  0 
  9 31  1  0  0  0  0 
 10 13  1  0  0  0  0 
 10 11  1  0  0  0  0 
 12 10  2  0  0  0  0 
 13  6  1  0  0  0  0 
 14  7  1  0  0  0  0 
 14  9  1  0  0  0  0 
 15  1  1  0  0  0  0 
 18  2  1  0  0  0  0 
 19  3  1  0  0  0  0 
 22  4  1  0  0  0  0 
 23  5  1  0  0  0  0 
 24  5  1  0  0  0  0 
 29  8  1  0  0  0  0 
 32  9  1  0  0  0  0 
 33 11  1  0  0  0  0 
 34 12  1  0  0  0  0 
 35 12  1  0  0  0  0 
 36 13  1  0  0  0  0 
M  RAD  1  11   2 
M  END 
>  <HBA> 
4 
 
>  <HBD> 
2 
 
>  <TPSA> 
67.64 
 
>  <cid> 
3518 
 
>  <dipole> 
2.12 
 
>  <excitation_energy_1> 
5.121 
 
>  <excitation_energy_2> 
5.226 
 
>  <excitation_energy_3> 
5.376 
 
>  <excitation_energy_4> 
5.515 
 
>  <homo_energy> 
-5.641 
 
>  <homo_lumo_gap> 
7.323 
 
>  <logP> 
1.864 
 
>  <lumo_energy> 
1.682 
 
>  <melting_point> 
122.36 
 
>  <molecular_refractivity> 
63.98 
 
>  <oscillator_strength_1> 
0.0023 
 
>  <oscillator_strength_2> 
0.0033 
 
>  <oscillator_strength_3> 
0.0367 
 
>  <oscillator_strength_4> 
0.0444 
 
>  <open_babel_can_smiles> 
[NH]C(=[NH2])NCCN1CCCCCCC1 
 
>  <mulliken_charges> 
36 
1   -0.260484 
2   -0.258056 
3   -0.258124 
4   -0.272831 
5   -0.273734 
6   -0.137497 
7   -0.127508 
8   -0.121605 
9   -0.142192 
10   0.580921 
11   -0.65155 
12   -0.754531 
13   -0.585889 
14   -0.408249 
15   0.129257 
16   0.13409 
17   0.129717 
18   0.128261 
19   0.127537 
20   0.129683 
21   0.1325 
22   0.146114 
23   0.145805 
24   0.134582 
25   0.183099 
26   0.135092 
27   0.117604 
28   0.137946 
29   0.144577 
30   0.115384 
31   0.114391 
32   0.166179 
33   0.260921 
34   0.315815 
35   0.321364 
36   0.321409 
 
>  <lowdin_charges> 
36 
1   -0.281728 
2   -0.279831 
3   -0.277272 
4   -0.289695 
5   -0.29256 
6   -0.208111 
7   -0.205561 
8   -0.204015 
9   -0.21261 
10   0.127328 
11   -0.489477 
12   -0.511934 
13   -0.311109 
14   -0.197657 
15   0.143079 
16   0.137172 
17   0.142318 
18   0.140058 
19   0.139206 
20   0.140032 
21   0.144018 
22   0.147324 
23   0.148212 
24   0.147724 
25   0.174405 
26   0.138989 
27   0.121392 
28   0.147188 
29   0.15037 
30   0.120714 
31   0.124681 
32   0.159202 
33   0.245216 
34   0.272922 
35   0.277115 
36   0.272896 
 
$$$$ 
 
