PCCDB-ID:  5838 
public computational chemistry database (PCCDB) project, http://pccdb.org 
 
 33 34  0  0  1  0  0  0  0  0999 V2000 
    0.9813    0.7085    0.3013 C   0  0  0  0  0  0  0  0  0  0  0  0 
    2.3133    0.0469   -0.0695 C   0  0  0  0  0  0  0  0  0  0  0  0 
    7.1283   -0.9009   -2.1006 C   0  0  0  0  0  0  0  0  0  0  0  0 
    6.1923   -1.7489   -1.2287 C   0  0  0  0  0  0  0  0  0  0  0  0 
    6.3472   -0.2414   -3.2420 C   0  0  0  0  0  0  0  0  0  0  0  0 
    4.8792   -1.0637   -0.9390 C   0  0  0  0  0  0  0  0  0  0  0  0 
    5.2504    0.6823   -2.6932 C   0  0  0  0  0  0  0  0  0  0  0  0 
    4.4376    0.0355   -1.5777 C   0  0  0  0  0  0  0  0  0  0  0  0 
    3.3789    2.1853   -0.8600 C   0  0  0  0  0  0  0  0  0  0  0  0 
    2.2201    0.7556   -2.4826 C   0  0  0  0  0  0  0  0  0  0  0  0 
    1.6930    2.9967   -2.2267 C   0  0  0  0  0  0  0  0  0  0  0  0 
    3.1061    0.7286   -1.2373 C   0  0  2  0  0  0  0  0  0  0  0  0 
    2.7466    3.2002   -1.2925 N   0  0  0  0  0  0  0  0  0  0  0  0 
    1.5800    1.7622   -2.9242 N   0  0  0  0  0  0  0  0  0  0  0  0 
    4.3553    2.3811    0.0515 O   0  0  0  0  0  0  0  0  0  0  0  0 
    2.0916   -0.4196   -3.1328 O   0  0  0  0  0  0  0  0  0  0  0  0 
    0.9094    3.8897   -2.4527 O   0  0  0  0  0  0  0  0  0  0  0  0 
    0.5177    0.1517    1.1220 H   0  0  0  0  0  0  0  0  0  0  0  0 
    0.2791    0.7121   -0.5380 H   0  0  0  0  0  0  0  0  0  0  0  0 
    1.1162    1.7423    0.6339 H   0  0  0  0  0  0  0  0  0  0  0  0 
    2.1310   -0.9972   -0.3503 H   0  0  0  0  0  0  0  0  0  0  0  0 
    2.9633    0.0245    0.8130 H   0  0  0  0  0  0  0  0  0  0  0  0 
    7.9425   -1.5220   -2.4908 H   0  0  0  0  0  0  0  0  0  0  0  0 
    7.5953   -0.1203   -1.4840 H   0  0  0  0  0  0  0  0  0  0  0  0 
    6.6777   -2.0096   -0.2785 H   0  0  0  0  0  0  0  0  0  0  0  0 
    5.9843   -2.7125   -1.7201 H   0  0  0  0  0  0  0  0  0  0  0  0 
    5.8877   -1.0193   -3.8679 H   0  0  0  0  0  0  0  0  0  0  0  0 
    7.0175    0.3301   -3.8933 H   0  0  0  0  0  0  0  0  0  0  0  0 
    4.2763   -1.5184   -0.1563 H   0  0  0  0  0  0  0  0  0  0  0  0 
    4.5834    0.9932   -3.5070 H   0  0  0  0  0  0  0  0  0  0  0  0 
    5.6983    1.6121   -2.3132 H   0  0  0  0  0  0  0  0  0  0  0  0 
    4.8032    1.5318    0.2168 H   0  0  0  0  0  0  0  0  0  0  0  0 
    2.7122   -1.0613   -2.7422 H   0  0  0  0  0  0  0  0  0  0  0  0 
  1 20  1  0  0  0  0 
  1 18  1  0  0  0  0 
  2  1  1  0  0  0  0 
  2 22  1  0  0  0  0 
  3 24  1  0  0  0  0 
  3  4  1  0  0  0  0 
  4  6  1  0  0  0  0 
  4 25  1  0  0  0  0 
  5  7  1  0  0  0  0 
  5  3  1  0  0  0  0 
  6 29  1  0  0  0  0 
  7 31  1  0  0  0  0 
  7  8  1  0  0  0  0 
  8 12  1  0  0  0  0 
  8  6  2  0  0  0  0 
  9 15  1  0  0  0  0 
 10 12  1  0  0  0  0 
 11 13  2  0  0  0  0 
 12  9  1  0  0  0  0 
 12  2  1  1  0  0  0 
 13  9  2  0  0  0  0 
 14 10  2  0  0  0  0 
 14 11  1  0  0  0  0 
 15 32  1  0  0  0  0 
 16 33  1  0  0  0  0 
 16 10  1  0  0  0  0 
 17 11  2  0  0  0  0 
 19  1  1  0  0  0  0 
 21  2  1  0  0  0  0 
 23  3  1  0  0  0  0 
 26  4  1  0  0  0  0 
 27  5  1  0  0  0  0 
 28  5  1  0  0  0  0 
 30  7  1  0  0  0  0 
M  END 
>  <HBA> 
5 
 
>  <HBD> 
2 
 
>  <TPSA> 
75.27 
 
>  <cid> 
5838 
 
>  <dipole> 
10.44 
 
>  <excitation_energy_1> 
4.012 
 
>  <excitation_energy_2> 
4.234 
 
>  <excitation_energy_3> 
5.123 
 
>  <excitation_energy_4> 
5.486 
 
>  <homo_energy> 
-6.776 
 
>  <homo_lumo_gap> 
5.366 
 
>  <logP> 
1.907 
 
>  <lumo_energy> 
-1.41 
 
>  <melting_point> 
175.37 
 
>  <molecular_refractivity> 
69.26 
 
>  <oscillator_strength_1> 
0.0004 
 
>  <oscillator_strength_2> 
0.0003 
 
>  <oscillator_strength_3> 
0.0321 
 
>  <oscillator_strength_4> 
0.0006 
 
>  <open_babel_can_smiles> 
CC[C@@]1(C2=CCCCC2)C(=N[C](=[N]=C1O)=O)O 
 
>  <mulliken_charges> 
33 
1   -0.475503 
2   -0.268335 
3   -0.267154 
4   -0.300223 
5   -0.270289 
6   -0.190118 
7   -0.339782 
8   0.062159 
9   0.545208 
10   0.543979 
11   0.616785 
12   -0.16609 
13   -0.471553 
14   -0.47264 
15   -0.580019 
16   -0.57973 
17   -0.431357 
18   0.158803 
19   0.18273 
20   0.182821 
21   0.150395 
22   0.150224 
23   0.146943 
24   0.141908 
25   0.155957 
26   0.158989 
27   0.14188 
28   0.151569 
29   0.14389 
30   0.1782 
31   0.171127 
32   0.414873 
33   0.414352 
 
>  <lowdin_charges> 
33 
1   -0.454573 
2   -0.266142 
3   -0.278278 
4   -0.277309 
5   -0.27612 
6   -0.185398 
7   -0.289459 
8   -0.056556 
9   0.146366 
10   0.145294 
11   0.175853 
12   -0.061857 
13   -0.185929 
14   -0.187472 
15   -0.331717 
16   -0.333008 
17   -0.211408 
18   0.162687 
19   0.167971 
20   0.166505 
21   0.148725 
22   0.150466 
23   0.153714 
24   0.146014 
25   0.158374 
26   0.157059 
27   0.145671 
28   0.156936 
29   0.162214 
30   0.168318 
31   0.162396 
32   0.359596 
33   0.361064 
 
$$$$ 
 
