PCCDB-ID:  1005 
public computational chemistry database (PCCDB) project, http://pccdb.org 
 
 15 14  0  0  0  0  0  0  0  0999 V2000 
    1.1535    0.7362   -0.4544 C   0  0  0  0  0  0  0  0  0  0  0  0 
    2.1216   -0.1666   -0.2692 C   0  0  0  0  0  0  0  0  0  0  0  0 
    2.0518   -1.5771   -0.7888 C   0  0  0  0  0  0  0  0  0  0  0  0 
    3.0402   -2.2304   -1.0624 O   0  0  0  0  0  0  0  0  0  0  0  0 
    0.8312   -2.1072   -0.9731 O   0  0  0  0  0  0  0  0  0  0  0  0 
    5.3557   -0.8997   -0.5862 O   0  0  0  0  0  0  0  0  0  0  0  0 
    4.3415    1.2033   -1.6085 O   0  0  0  0  0  0  0  0  0  0  0  0 
    5.5232    1.3558    0.7106 O   0  0  0  0  0  0  0  0  0  0  0  0 
    3.2577    0.1294    0.4354 O   0  0  0  0  0  0  0  0  0  0  0  0 
    4.7399    0.5078   -0.1991 P   0  0  0  0  0  0  0  0  0  0  0  0 
    0.2469    0.5027   -1.0028 H   0  0  0  0  0  0  0  0  0  0  0  0 
    1.2679    1.7498   -0.0878 H   0  0  0  0  0  0  0  0  0  0  0  0 
    0.1554   -1.5445   -0.5595 H   0  0  0  0  0  0  0  0  0  0  0  0 
    4.6495   -1.5552   -0.8167 H   0  0  0  0  0  0  0  0  0  0  0  0 
    4.6473    2.1254   -1.6084 H   0  0  0  0  0  0  0  0  0  0  0  0 
  1  2  2  0  0  0  0 
  1 12  1  0  0  0  0 
  2  9  1  0  0  0  0 
  3  2  1  0  0  0  0 
  4  3  2  0  0  0  0 
  5  3  1  0  0  0  0 
  5 13  1  0  0  0  0 
  6 10  1  0  0  0  0 
  7 15  1  0  0  0  0 
  7 10  1  0  0  0  0 
 10  9  1  0  0  0  0 
 10  8  2  0  0  0  0 
 11  1  1  0  0  0  0 
 14  6  1  0  0  0  0 
M  END 
>  <HBA> 
6 
 
>  <HBD> 
3 
 
>  <TPSA> 
113.87 
 
>  <cid> 
1005 
 
>  <dipole> 
6.46 
 
>  <excitation_energy_1> 
4.88 
 
>  <excitation_energy_2> 
5.28 
 
>  <excitation_energy_3> 
5.433 
 
>  <excitation_energy_4> 
5.694 
 
>  <homo_energy> 
-8.15 
 
>  <homo_lumo_gap> 
5.908 
 
>  <logP> 
-0.306 
 
>  <lumo_energy> 
-2.242 
 
>  <melting_point> 
115.14 
 
>  <molecular_refractivity> 
29.9 
 
>  <oscillator_strength_1> 
0.002 
 
>  <oscillator_strength_2> 
0.0017 
 
>  <oscillator_strength_3> 
0.0862 
 
>  <oscillator_strength_4> 
0.0703 
 
>  <open_babel_can_smiles> 
OC(=O)C(=C)OP(=O)(O)O 
 
>  <mulliken_charges> 
15 
1   -0.39411 
2   0.341877 
3   0.600929 
4   -0.469097 
5   -0.547784 
6   -0.648933 
7   -0.659462 
8   -0.520869 
9   -0.576932 
10   1.16986 
11   0.165863 
12   0.195854 
13   0.422947 
14   0.475009 
15   0.444848 
 
>  <lowdin_charges> 
15 
1   -0.32153 
2   0.064487 
3   0.206994 
4   -0.239334 
5   -0.321715 
6   -0.55833 
7   -0.573057 
8   -0.562792 
9   -0.344323 
10   1.138891 
11   0.174601 
12   0.19202 
13   0.370863 
14   0.384141 
15   0.389084 
 
$$$$ 
 
