PCCDB-ID:  87 
public computational chemistry database (PCCDB) project, http://pccdb.org 
 
 15 14  0  0  1  0  0  0  0  0999 V2000 
    0.9656    0.1641    0.0444 C   0  0  0  0  0  0  0  0  0  0  0  0 
    2.9325   -1.2080    0.8507 C   0  0  0  0  0  0  0  0  0  0  0  0 
    2.4281   -0.2153   -0.2041 C   0  0  1  0  0  0  0  0  0  0  0  0 
    2.6228   -0.7313   -1.6442 C   0  0  0  0  0  0  0  0  0  0  0  0 
    4.3617   -1.3226    0.7217 O   0  0  0  0  0  0  0  0  0  0  0  0 
    1.7908   -0.6011   -2.5109 O   0  0  0  0  0  0  0  0  0  0  0  0 
    3.8074   -1.3243   -1.8980 O   0  0  0  0  0  0  0  0  0  0  0  0 
    0.8460    0.6222    1.0323 H   0  0  0  0  0  0  0  0  0  0  0  0 
    0.3149   -0.7152   -0.0132 H   0  0  0  0  0  0  0  0  0  0  0  0 
    0.6245    0.8688   -0.7162 H   0  0  0  0  0  0  0  0  0  0  0  0 
    2.4509   -2.1870    0.7152 H   0  0  0  0  0  0  0  0  0  0  0  0 
    2.6799   -0.8387    1.8531 H   0  0  0  0  0  0  0  0  0  0  0  0 
    3.0561    0.6839   -0.1102 H   0  0  0  0  0  0  0  0  0  0  0  0 
    4.6605   -2.1024    1.2141 H   0  0  0  0  0  0  0  0  0  0  0  0 
    4.3272   -1.3697   -1.0627 H   0  0  0  0  0  0  0  0  0  0  0  0 
  1  8  1  0  0  0  0 
  2 12  1  0  0  0  0 
  3 13  1  1  0  0  0 
  3  1  1  0  0  0  0 
  3  2  1  0  0  0  0 
  4  3  1  0  0  0  0 
  5  2  1  0  0  0  0 
  5 14  1  0  0  0  0 
  6  4  2  0  0  0  0 
  7  4  1  0  0  0  0 
  7 15  1  0  0  0  0 
  9  1  1  0  0  0  0 
 10  1  1  0  0  0  0 
 11  2  1  0  0  0  0 
M  END 
>  <HBA> 
3 
 
>  <HBD> 
2 
 
>  <TPSA> 
57.53 
 
>  <cid> 
87 
 
>  <dipole> 
5.45 
 
>  <excitation_energy_1> 
5.594 
 
>  <excitation_energy_2> 
6.209 
 
>  <excitation_energy_3> 
6.874 
 
>  <excitation_energy_4> 
6.937 
 
>  <homo_energy> 
-6.999 
 
>  <homo_lumo_gap> 
7.505 
 
>  <logP> 
-0.301 
 
>  <lumo_energy> 
0.506 
 
>  <melting_point> 
70.54 
 
>  <molecular_refractivity> 
24.28 
 
>  <oscillator_strength_1> 
0.0009 
 
>  <oscillator_strength_2> 
0.0016 
 
>  <oscillator_strength_3> 
0.0025 
 
>  <oscillator_strength_4> 
0.0022 
 
>  <open_babel_can_smiles> 
OC[C@@H](C(=O)O)C 
 
>  <mulliken_charges> 
15 
1   -0.445282 
2   -0.056164 
3   -0.221454 
4   0.601331 
5   -0.633931 
6   -0.455422 
7   -0.594467 
8   0.139435 
9   0.157035 
10   0.1831 
11   0.14932 
12   0.151478 
13   0.17785 
14   0.413817 
15   0.433354 
 
>  <lowdin_charges> 
15 
1   -0.43913 
2   -0.135174 
3   -0.176527 
4   0.189367 
5   -0.467462 
6   -0.253016 
7   -0.370438 
8   0.148441 
9   0.157413 
10   0.174841 
11   0.141235 
12   0.145639 
13   0.168858 
14   0.359313 
15   0.356641 
 
$$$$ 
 
