PCCDB-ID:  1681 
public computational chemistry database (PCCDB) project, http://pccdb.org 
 
 19 19  0  0  0  0  0  0  0  0999 V2000 
   -1.4600   -0.0740    0.0906 C   0  0  0  0  0  0  0  0  0  0  0  0 
   -0.8335    1.1728    0.0235 C   0  0  0  0  0  0  0  0  0  0  0  0 
   -0.6914   -1.2395    0.0428 C   0  0  0  0  0  0  0  0  0  0  0  0 
    3.9637    0.2434   -0.3659 C   0  0  0  0  0  0  0  0  0  0  0  0 
    0.5519    1.2583   -0.0900 C   0  0  0  0  0  0  0  0  0  0  0  0 
    0.6943   -1.1625   -0.0733 C   0  0  0  0  0  0  0  0  0  0  0  0 
    2.7579    0.1708   -0.2624 C   0  0  0  0  0  0  0  0  0  0  0  0 
    5.4182    0.3053   -0.5248 C   0  0  0  0  0  0  0  0  0  0  0  0 
    1.3358    0.0893   -0.1410 C   0  0  0  0  0  0  0  0  0  0  0  0 
    5.8064    1.3069   -1.5327 N   0  0  0  0  0  0  0  0  0  0  0  0 
   -2.5411   -0.1368    0.1803 H   0  0  0  0  0  0  0  0  0  0  0  0 
   -1.4268    2.0826    0.0608 H   0  0  0  0  0  0  0  0  0  0  0  0 
   -1.1729   -2.2124    0.0936 H   0  0  0  0  0  0  0  0  0  0  0  0 
    1.0426    2.2254   -0.1401 H   0  0  0  0  0  0  0  0  0  0  0  0 
    1.2948   -2.0663   -0.1127 H   0  0  0  0  0  0  0  0  0  0  0  0 
    5.7879   -0.7157   -0.7347 H   0  0  0  0  0  0  0  0  0  0  0  0 
    5.8751    0.6032    0.4291 H   0  0  0  0  0  0  0  0  0  0  0  0 
    5.4161    1.0389   -2.4350 H   0  0  0  0  0  0  0  0  0  0  0  0 
    6.8202    1.2886   -1.6394 H   0  0  0  0  0  0  0  0  0  0  0  0 
  1 11  1  0  0  0  0 
  2 12  1  0  0  0  0 
  2  1  2  0  0  0  0 
  3  1  1  0  0  0  0 
  3 13  1  0  0  0  0 
  4  7  3  0  0  0  0 
  5  2  1  0  0  0  0 
  6  3  2  0  0  0  0 
  7  9  1  0  0  0  0 
  8  4  1  0  0  0  0 
  8 17  1  0  0  0  0 
  9  5  2  0  0  0  0 
  9  6  1  0  0  0  0 
 10  8  1  0  0  0  0 
 14  5  1  0  0  0  0 
 15  6  1  0  0  0  0 
 16  8  1  0  0  0  0 
 18 10  1  0  0  0  0 
 19 10  1  0  0  0  0 
M  END 
>  <HBA> 
1 
 
>  <HBD> 
1 
 
>  <TPSA> 
26.02 
 
>  <cid> 
1681 
 
>  <dipole> 
1.45 
 
>  <excitation_energy_1> 
4.822 
 
>  <excitation_energy_2> 
4.905 
 
>  <excitation_energy_3> 
5.077 
 
>  <excitation_energy_4> 
5.332 
 
>  <homo_energy> 
-6.019 
 
>  <homo_lumo_gap> 
5.358 
 
>  <logP> 
1.697 
 
>  <lumo_energy> 
-0.661 
 
>  <melting_point> 
77.42 
 
>  <molecular_refractivity> 
41.89 
 
>  <oscillator_strength_1> 
0.2483 
 
>  <oscillator_strength_2> 
0.0004 
 
>  <oscillator_strength_3> 
0.1752 
 
>  <oscillator_strength_4> 
0.003 
 
>  <open_babel_can_smiles> 
NCC#Cc1ccccc1 
 
>  <mulliken_charges> 
19 
1   -0.124295 
2   -0.133688 
3   -0.132835 
4   -0.084154 
5   -0.135256 
6   -0.136955 
7   0.113537 
8   -0.272164 
9   0.005702 
10   -0.702248 
11   0.131563 
12   0.133219 
13   0.132132 
14   0.144437 
15   0.137481 
16   0.147771 
17   0.174285 
18   0.302369 
19   0.299102 
 
>  <lowdin_charges> 
19 
1   -0.151453 
2   -0.155704 
3   -0.155471 
4   -0.071227 
5   -0.145277 
6   -0.148132 
7   -0.071382 
8   -0.184751 
9   0.005941 
10   -0.546854 
11   0.15694 
12   0.160306 
13   0.1592 
14   0.167073 
15   0.164426 
16   0.13973 
17   0.165366 
18   0.257921 
19   0.253348 
 
$$$$ 
 
