PCCDB-ID:  697 
public computational chemistry database (PCCDB) project, http://pccdb.org 
 
 21 20  0  0  1  0  0  0  0  0999 V2000 
    0.5292    0.8396    1.5742 C   0  0  0  0  0  0  0  0  0  0  0  0 
    0.1185    3.6695    0.2140 C   0  0  0  0  0  0  0  0  0  0  0  0 
   -0.0237    1.0899    0.1723 C   0  0  1  0  0  0  0  0  0  0  0  0 
    0.5116    2.3683   -0.4872 C   0  0  2  0  0  0  0  0  0  0  0  0 
    1.4792    1.4332    2.0531 O   0  0  0  0  0  0  0  0  0  0  0  0 
    0.3797   -0.0533   -0.5812 O   0  0  0  0  0  0  0  0  0  0  0  0 
    1.9302    2.2861   -0.6086 O   0  0  0  0  0  0  0  0  0  0  0  0 
   -1.4088    5.3589    2.2684 O   0  0  0  0  0  0  0  0  0  0  0  0 
   -1.5620    6.1293   -0.1169 O   0  0  0  0  0  0  0  0  0  0  0  0 
   -3.5770    4.7720    0.9545 O   0  0  0  0  0  0  0  0  0  0  0  0 
   -1.3255    3.7016    0.2977 O   0  0  0  0  0  0  0  0  0  0  0  0 
   -2.1202    4.9717    0.8586 P   0  0  0  0  0  0  0  0  0  0  0  0 
    0.0627   -0.0089    2.1141 H   0  0  0  0  0  0  0  0  0  0  0  0 
    0.4789    4.5189   -0.3723 H   0  0  0  0  0  0  0  0  0  0  0  0 
    0.5392    3.7217    1.2226 H   0  0  0  0  0  0  0  0  0  0  0  0 
   -1.1177    1.0925    0.1977 H   0  0  0  0  0  0  0  0  0  0  0  0 
    0.1219    2.3897   -1.5101 H   0  0  0  0  0  0  0  0  0  0  0  0 
    1.2975    0.1409   -0.8516 H   0  0  0  0  0  0  0  0  0  0  0  0 
    2.2711    2.2395    0.3054 H   0  0  0  0  0  0  0  0  0  0  0  0 
   -1.9871    5.0943    3.0031 H   0  0  0  0  0  0  0  0  0  0  0  0 
   -1.9777    6.9886    0.0635 H   0  0  0  0  0  0  0  0  0  0  0  0 
  1  5  2  0  0  0  0 
  1 13  1  0  0  0  0 
  2 11  1  0  0  0  0 
  2 15  1  0  0  0  0 
  3 16  1  1  0  0  0 
  3  1  1  0  0  0  0 
  4 17  1  6  0  0  0 
  4  3  1  0  0  0  0 
  4  2  1  0  0  0  0 
  6  3  1  0  0  0  0 
  7  4  1  0  0  0  0 
  7 19  1  0  0  0  0 
  8 20  1  0  0  0  0 
  9 21  1  0  0  0  0 
  9 12  1  0  0  0  0 
 11 12  1  0  0  0  0 
 12 10  2  0  0  0  0 
 12  8  1  0  0  0  0 
 14  2  1  0  0  0  0 
 18  6  1  0  0  0  0 
M  END 
>  <HBA> 
7 
 
>  <HBD> 
4 
 
>  <TPSA> 
134.1 
 
>  <cid> 
697 
 
>  <dipole> 
2.45 
 
>  <excitation_energy_1> 
3.936 
 
>  <excitation_energy_2> 
5.454 
 
>  <excitation_energy_3> 
6.059 
 
>  <excitation_energy_4> 
6.151 
 
>  <homo_energy> 
-7.176 
 
>  <homo_lumo_gap> 
5.668 
 
>  <logP> 
-1.984 
 
>  <lumo_energy> 
-1.508 
 
>  <melting_point> 
123.45 
 
>  <molecular_refractivity> 
35.94 
 
>  <oscillator_strength_1> 
0.0019 
 
>  <oscillator_strength_2> 
0.0035 
 
>  <oscillator_strength_3> 
0.0195 
 
>  <oscillator_strength_4> 
0.0013 
 
>  <open_babel_can_smiles> 
O=C[C@@H]([C@@H](COP(=O)(O)O)O)O 
 
>  <mulliken_charges> 
21 
1   0.241608 
2   -0.072965 
3   0.061848 
4   0.073377 
5   -0.408214 
6   -0.618701 
7   -0.648658 
8   -0.660911 
9   -0.647118 
10   -0.528067 
11   -0.516932 
12   1.156072 
13   0.143308 
14   0.1857 
15   0.174456 
16   0.17936 
17   0.174068 
18   0.408984 
19   0.416015 
20   0.44209 
21   0.444682 
 
>  <lowdin_charges> 
21 
1   0.052926 
2   -0.137994 
3   -0.049253 
4   -0.022976 
5   -0.23273 
6   -0.435543 
7   -0.458955 
8   -0.579267 
9   -0.559958 
10   -0.572064 
11   -0.38823 
12   1.107459 
13   0.141119 
14   0.16979 
15   0.159646 
16   0.1697 
17   0.163825 
18   0.3491 
19   0.346505 
20   0.387964 
21   0.388935 
 
$$$$ 
 
