PCCDB-ID:  1774 
public computational chemistry database (PCCDB) project, http://pccdb.org 
 
 19 19  0  0  0  0  0  0  0  0999 V2000 
    0.9950   -0.0912   -0.0910 C   0  0  0  0  0  0  0  0  0  0  0  0 
    2.8265   -0.0257    1.6473 C   0  0  0  0  0  0  0  0  0  0  0  0 
    4.1870    0.5231   -1.6159 C   0  0  0  0  0  0  0  0  0  0  0  0 
    3.1853    1.1683   -0.6124 C   0  0  0  0  0  0  0  0  0  0  0  0 
    4.0149   -0.9421   -1.3945 C   0  0  0  0  0  0  0  0  0  0  0  0 
    2.5037    0.0055    0.1510 C   0  0  0  0  0  0  0  0  0  0  0  0 
    3.1385   -1.2351   -0.4705 N   0  0  0  0  0  0  0  0  0  0  0  0 
    2.7793   -2.3770   -0.0564 O   0  0  0  0  0  0  0  0  0  0  0  0 
    0.4836    0.7507    0.3881 H   0  0  0  0  0  0  0  0  0  0  0  0 
    0.6103   -1.0264    0.3237 H   0  0  0  0  0  0  0  0  0  0  0  0 
    0.7677   -0.0676   -1.1627 H   0  0  0  0  0  0  0  0  0  0  0  0 
    2.3385    0.8138    2.1541 H   0  0  0  0  0  0  0  0  0  0  0  0 
    3.9063    0.0498    1.8177 H   0  0  0  0  0  0  0  0  0  0  0  0 
    2.4717   -0.9626    2.0843 H   0  0  0  0  0  0  0  0  0  0  0  0 
    5.2209    0.8432   -1.4264 H   0  0  0  0  0  0  0  0  0  0  0  0 
    3.9671    0.8066   -2.6543 H   0  0  0  0  0  0  0  0  0  0  0  0 
    2.4410    1.7711   -1.1403 H   0  0  0  0  0  0  0  0  0  0  0  0 
    3.7039    1.8355    0.0819 H   0  0  0  0  0  0  0  0  0  0  0  0 
    4.5275   -1.7500   -1.9007 H   0  0  0  0  0  0  0  0  0  0  0  0 
  1  6  1  0  0  0  0 
  1 10  1  0  0  0  0 
  1  9  1  0  0  0  0 
  2 13  1  0  0  0  0 
  2 14  1  0  0  0  0 
  2 12  1  0  0  0  0 
  3 15  1  0  0  0  0 
  3  5  1  0  0  0  0 
  3  4  1  0  0  0  0 
  4 18  1  0  0  0  0 
  4  6  1  0  0  0  0 
  5  7  1  0  0  0  0 
  6  2  1  0  0  0  0 
  7  8  1  0  0  0  0 
  7  6  1  0  0  0  0 
 11  1  1  0  0  0  0 
 16  3  1  0  0  0  0 
 17  4  1  0  0  0  0 
 19  5  1  0  0  0  0 
M  RAD  2   5   2   8   2 
M  END 
>  <HBA> 
1 
 
>  <HBD> 
0 
 
>  <TPSA> 
28.75 
 
>  <cid> 
1774 
 
>  <dipole> 
3.74 
 
>  <excitation_energy_1> 
4.517 
 
>  <excitation_energy_2> 
5.171 
 
>  <excitation_energy_3> 
5.323 
 
>  <excitation_energy_4> 
5.619 
 
>  <homo_energy> 
-5.592 
 
>  <homo_lumo_gap> 
5.535 
 
>  <logP> 
1.099 
 
>  <lumo_energy> 
-0.057 
 
>  <melting_point> 
36.61 
 
>  <molecular_refractivity> 
39.26 
 
>  <oscillator_strength_1> 
0.0 
 
>  <oscillator_strength_2> 
0.0001 
 
>  <oscillator_strength_3> 
0.1827 
 
>  <oscillator_strength_4> 
0.0001 
 
>  <open_babel_can_smiles> 
[O]N1[CH]CCC1(C)C 
 
>  <mulliken_charges> 
19 
1   -0.449916 
2   -0.449772 
3   -0.337099 
4   -0.324186 
5   0.053544 
6   0.190362 
7   0.088209 
8   -0.519269 
9   0.146904 
10   0.183287 
11   0.147236 
12   0.147021 
13   0.147075 
14   0.183278 
15   0.158626 
16   0.158629 
17   0.156916 
18   0.156752 
19   0.162403 
 
>  <lowdin_charges> 
19 
1   -0.44564 
2   -0.445457 
3   -0.273865 
4   -0.286028 
5   -0.170874 
6   0.063019 
7   0.194724 
8   -0.39089 
9   0.155558 
10   0.171676 
11   0.151457 
12   0.155632 
13   0.151199 
14   0.171664 
15   0.153354 
16   0.153503 
17   0.157817 
18   0.157873 
19   0.175278 
 
$$$$ 
 
