PCCDB-ID:  4604 
public computational chemistry database (PCCDB) project, http://pccdb.org 
 
 14 14  0  0  0  0  0  0  0  0999 V2000 
   -0.5387    1.1588    0.0503 C   0  0  0  0  0  0  0  0  0  0  0  0 
   -1.3115    2.4710    0.0495 C   0  0  0  0  0  0  0  0  0  0  0  0 
   -0.6905   -1.0743    0.1382 C   0  0  0  0  0  0  0  0  0  0  0  0 
    1.4696    0.0158   -0.0314 C   0  0  0  0  0  0  0  0  0  0  0  0 
   -1.3431    0.0575    0.1387 N   0  0  0  0  0  0  0  0  0  0  0  0 
    0.7619    1.2101   -0.0309 N   0  0  0  0  0  0  0  0  0  0  0  0 
    0.6508   -1.1567    0.0609 N   0  0  0  0  0  0  0  0  0  0  0  0 
   -0.5033    3.5407   -0.0330 O   0  0  0  0  0  0  0  0  0  0  0  0 
   -2.5169    2.5326    0.1153 O   0  0  0  0  0  0  0  0  0  0  0  0 
   -1.3328   -2.2380    0.2166 O   0  0  0  0  0  0  0  0  0  0  0  0 
    2.6716   -0.1019   -0.1008 O   0  0  0  0  0  0  0  0  0  0  0  0 
    1.1191   -2.0567    0.0609 H   0  0  0  0  0  0  0  0  0  0  0  0 
   -1.0921    4.3188   -0.0252 H   0  0  0  0  0  0  0  0  0  0  0  0 
   -2.2842   -2.0245    0.2654 H   0  0  0  0  0  0  0  0  0  0  0  0 
  1  5  2  0  0  0  0 
  2  1  1  0  0  0  0 
  2  9  2  0  0  0  0 
  3  5  2  0  0  0  0 
  3 10  1  0  0  0  0 
  4  6  1  0  0  0  0 
  4  7  1  0  0  0  0 
  6  1  1  0  0  0  0 
  7  3  1  0  0  0  0 
  8 13  1  0  0  0  0 
  8  2  1  0  0  0  0 
 10 14  1  0  0  0  0 
 11  4  2  0  0  0  0 
 12  7  1  0  0  0  0 
M  RAD  1   6   2 
M  END 
>  <HBA> 
5 
 
>  <HBD> 
3 
 
>  <TPSA> 
115.91 
 
>  <cid> 
4604 
 
>  <dipole> 
3.72 
 
>  <excitation_energy_1> 
3.699 
 
>  <excitation_energy_2> 
4.371 
 
>  <excitation_energy_3> 
4.516 
 
>  <excitation_energy_4> 
4.581 
 
>  <homo_energy> 
-7.453 
 
>  <homo_lumo_gap> 
4.996 
 
>  <logP> 
-1.844 
 
>  <lumo_energy> 
-2.457 
 
>  <melting_point> 
275.59 
 
>  <molecular_refractivity> 
32.44 
 
>  <oscillator_strength_1> 
0.0004 
 
>  <oscillator_strength_2> 
0.0001 
 
>  <oscillator_strength_3> 
0.0679 
 
>  <oscillator_strength_4> 
0.0 
 
>  <open_babel_can_smiles> 
O=C1NC(=[N]=C([N]1)C(=O)O)O 
 
>  <mulliken_charges> 
14 
1   0.398523 
2   0.57224 
3   0.75463 
4   0.705506 
5   -0.509885 
6   -0.475833 
7   -0.642027 
8   -0.542578 
9   -0.43959 
10   -0.583717 
11   -0.468019 
12   0.368892 
13   0.417723 
14   0.444138 
 
>  <lowdin_charges> 
14 
1   0.08948 
2   0.179614 
3   0.199446 
4   0.178184 
5   -0.222443 
6   -0.167111 
7   -0.213822 
8   -0.318178 
9   -0.230102 
10   -0.317151 
11   -0.24804 
12   0.316626 
13   0.368662 
14   0.384836 
 
$$$$ 
 
