PCCDB-ID:  846 
public computational chemistry database (PCCDB) project, http://pccdb.org 
 
 27 27  0  0  1  0  0  0  0  0999 V2000 
   -1.4866   -0.5539    0.6537 C   0  0  0  0  0  0  0  0  0  0  0  0 
   -1.2450   -1.1137   -0.6105 C   0  0  0  0  0  0  0  0  0  0  0  0 
   -0.5085    0.2389    1.2218 C   0  0  0  0  0  0  0  0  0  0  0  0 
   -0.0608   -0.8606   -1.2791 C   0  0  0  0  0  0  0  0  0  0  0  0 
    3.1722    1.3043    1.0358 C   0  0  0  0  0  0  0  0  0  0  0  0 
    0.7301    0.4876    0.5851 C   0  0  0  0  0  0  0  0  0  0  0  0 
    0.9545   -0.0461   -0.7223 C   0  0  0  0  0  0  0  0  0  0  0  0 
    3.5061    2.6606    0.3396 C   0  0  1  0  0  0  0  0  0  0  0  0 
    1.6908    1.2929    1.3599 C   0  0  0  0  0  0  0  0  0  0  0  0 
    4.1451    3.6491    1.3365 C   0  0  0  0  0  0  0  0  0  0  0  0 
    2.0886    0.1586   -1.4817 N   0  0  0  0  0  0  0  0  0  0  0  0 
    4.2821    2.4257   -0.8744 N   0  0  0  0  0  0  0  0  0  0  0  0 
    1.3223    2.0156    2.2975 O   0  0  0  0  0  0  0  0  0  0  0  0 
    5.1672    4.2456    1.0848 O   0  0  0  0  0  0  0  0  0  0  0  0 
    3.4810    3.8175    2.4895 O   0  0  0  0  0  0  0  0  0  0  0  0 
   -2.4191   -0.7433    1.1756 H   0  0  0  0  0  0  0  0  0  0  0  0 
   -1.9953   -1.7441   -1.0810 H   0  0  0  0  0  0  0  0  0  0  0  0 
   -0.6550    0.6858    2.1994 H   0  0  0  0  0  0  0  0  0  0  0  0 
    0.1010   -1.2811   -2.2693 H   0  0  0  0  0  0  0  0  0  0  0  0 
    3.7100    1.2144    1.9850 H   0  0  0  0  0  0  0  0  0  0  0  0 
    3.4759    0.4718    0.4008 H   0  0  0  0  0  0  0  0  0  0  0  0 
    2.5654    3.1331    0.0210 H   0  0  0  0  0  0  0  0  0  0  0  0 
    2.6925    0.9711   -1.3781 H   0  0  0  0  0  0  0  0  0  0  0  0 
    2.0302   -0.1646   -2.4380 H   0  0  0  0  0  0  0  0  0  0  0  0 
    5.1909    2.0398   -0.6139 H   0  0  0  0  0  0  0  0  0  0  0  0 
    4.5003    3.3273   -1.2998 H   0  0  0  0  0  0  0  0  0  0  0  0 
    2.6714    3.2447    2.5335 H   0  0  0  0  0  0  0  0  0  0  0  0 
  1 16  1  0  0  0  0 
  1  3  1  0  0  0  0 
  2  1  2  0  0  0  0 
  3 18  1  0  0  0  0 
  4  7  2  0  0  0  0 
  4  2  1  0  0  0  0 
  5  9  1  0  0  0  0 
  5 20  1  0  0  0  0 
  6  3  2  0  0  0  0 
  6  9  1  0  0  0  0 
  7  6  1  0  0  0  0 
  8 22  1  6  0  0  0 
  8  5  1  0  0  0  0 
  8 10  1  0  0  0  0 
  9 13  2  0  0  0  0 
 10 15  1  0  0  0  0 
 11 23  1  0  0  0  0 
 11  7  1  0  0  0  0 
 12 25  1  0  0  0  0 
 12  8  1  0  0  0  0 
 14 10  2  0  0  0  0 
 15 27  1  0  0  0  0 
 17  2  1  0  0  0  0 
 19  4  1  0  0  0  0 
 21  5  1  0  0  0  0 
 24 11  1  0  0  0  0 
 26 12  1  0  0  0  0 
M  END 
>  <HBA> 
5 
 
>  <HBD> 
3 
 
>  <TPSA> 
106.41 
 
>  <cid> 
846 
 
>  <dipole> 
5.92 
 
>  <excitation_energy_1> 
3.524 
 
>  <excitation_energy_2> 
4.022 
 
>  <excitation_energy_3> 
4.604 
 
>  <excitation_energy_4> 
4.865 
 
>  <homo_energy> 
-5.992 
 
>  <homo_lumo_gap> 
4.15 
 
>  <logP> 
1.535 
 
>  <lumo_energy> 
-1.842 
 
>  <melting_point> 
218.45 
 
>  <molecular_refractivity> 
55.13 
 
>  <oscillator_strength_1> 
0.0834 
 
>  <oscillator_strength_2> 
0.0017 
 
>  <oscillator_strength_3> 
0.0879 
 
>  <oscillator_strength_4> 
0.0914 
 
>  <open_babel_can_smiles> 
OC(=O)[C@H](CC(=O)c1ccccc1N)N 
 
>  <mulliken_charges> 
27 
1   -0.140609 
2   -0.120836 
3   -0.165767 
4   -0.184026 
5   -0.417019 
6   0.047365 
7   0.302977 
8   -0.105285 
9   0.389745 
10   0.585788 
11   -0.850729 
12   -0.721296 
13   -0.508576 
14   -0.462521 
15   -0.591664 
16   0.135686 
17   0.139806 
18   0.166442 
19   0.125667 
20   0.191387 
21   0.194829 
22   0.182782 
23   0.386551 
24   0.33216 
25   0.317596 
26   0.324707 
27   0.444839 
 
>  <lowdin_charges> 
27 
1   -0.187837 
2   -0.123227 
3   -0.113415 
4   -0.201199 
5   -0.325654 
6   -0.098749 
7   0.085587 
8   -0.111983 
9   0.166179 
10   0.168643 
11   -0.474689 
12   -0.529966 
13   -0.289314 
14   -0.25821 
15   -0.356829 
16   0.162376 
17   0.164393 
18   0.177015 
19   0.155199 
20   0.176306 
21   0.176698 
22   0.163644 
23   0.294322 
24   0.281564 
25   0.26658 
26   0.271399 
27   0.36117 
 
$$$$ 
 
