PCCDB-ID:  418 
public computational chemistry database (PCCDB) project, http://pccdb.org 
 
 16 16  0  0  1  0  0  0  0  0999 V2000 
    1.0403    0.8520    0.1639 C   0  0  0  0  0  0  0  0  0  0  0  0 
   -0.3182    1.3037   -0.1624 C   0  0  0  0  0  0  0  0  0  0  0  0 
    1.3436   -0.4562    0.2396 C   0  0  0  0  0  0  0  0  0  0  0  0 
   -1.3443    0.4374   -0.2377 C   0  0  0  0  0  0  0  0  0  0  0  0 
    0.3116   -1.5028   -0.1015 C   0  0  1  0  0  0  0  0  0  0  0  0 
   -1.1440   -1.0187    0.1033 C   0  0  1  0  0  0  0  0  0  0  0  0 
    0.5237   -1.9668   -1.4442 O   0  0  0  0  0  0  0  0  0  0  0  0 
   -1.5905   -1.2630    1.4464 O   0  0  0  0  0  0  0  0  0  0  0  0 
    1.8033    1.6082    0.3349 H   0  0  0  0  0  0  0  0  0  0  0  0 
   -0.4764    2.3661   -0.3340 H   0  0  0  0  0  0  0  0  0  0  0  0 
    2.3554   -0.7895    0.4558 H   0  0  0  0  0  0  0  0  0  0  0  0 
   -2.3545    0.7760   -0.4536 H   0  0  0  0  0  0  0  0  0  0  0  0 
    0.4306   -2.3917    0.5262 H   0  0  0  0  0  0  0  0  0  0  0  0 
   -1.7722   -1.6592   -0.5240 H   0  0  0  0  0  0  0  0  0  0  0  0 
    0.6066   -1.1777   -2.0044 H   0  0  0  0  0  0  0  0  0  0  0  0 
   -1.1827   -0.5816    2.0055 H   0  0  0  0  0  0  0  0  0  0  0  0 
  1  3  2  0  0  0  0 
  1  9  1  0  0  0  0 
  2  1  1  0  0  0  0 
  3 11  1  0  0  0  0 
  4  2  2  0  0  0  0 
  4  6  1  0  0  0  0 
  5  6  1  0  0  0  0 
  5  3  1  0  0  0  0 
  5 13  1  1  0  0  0 
  6 14  1  6  0  0  0 
  6  8  1  0  0  0  0 
  7  5  1  0  0  0  0 
  8 16  1  0  0  0  0 
 10  2  1  0  0  0  0 
 12  4  1  0  0  0  0 
 15  7  1  0  0  0  0 
M  END 
>  <HBA> 
2 
 
>  <HBD> 
2 
 
>  <TPSA> 
40.46 
 
>  <cid> 
418 
 
>  <dipole> 
2.92 
 
>  <excitation_energy_1> 
4.363 
 
>  <excitation_energy_2> 
4.768 
 
>  <excitation_energy_3> 
5.691 
 
>  <excitation_energy_4> 
5.763 
 
>  <homo_energy> 
-6.308 
 
>  <homo_lumo_gap> 
5.037 
 
>  <logP> 
-0.166 
 
>  <lumo_energy> 
-1.271 
 
>  <melting_point> 
52.83 
 
>  <molecular_refractivity> 
30.22 
 
>  <oscillator_strength_1> 
0.0386 
 
>  <oscillator_strength_2> 
0.0816 
 
>  <oscillator_strength_3> 
0.0009 
 
>  <oscillator_strength_4> 
0.0264 
 
>  <open_babel_can_smiles> 
O[C@H]1C=CC=C[C@@H]1O 
 
>  <mulliken_charges> 
16 
1   -0.126468 
2   -0.126705 
3   -0.159204 
4   -0.158925 
5   0.075736 
6   0.075659 
7   -0.616705 
8   -0.616511 
9   0.136693 
10   0.136693 
11   0.142831 
12   0.14284 
13   0.156124 
14   0.156033 
15   0.390965 
16   0.390945 
 
>  <lowdin_charges> 
16 
1   -0.172748 
2   -0.169312 
3   -0.180789 
4   -0.180935 
5   -0.017811 
6   -0.01838 
7   -0.45609 
8   -0.457112 
9   0.161144 
10   0.158422 
11   0.161968 
12   0.161923 
13   0.15972 
14   0.160808 
15   0.344075 
16   0.345119 
 
$$$$ 
 
