PCCDB-ID:  3291 
public computational chemistry database (PCCDB) project, http://pccdb.org 
 
 21 21  0  0  1  0  0  0  0  0999 V2000 
    1.0314   -0.1071    0.2996 C   0  0  0  0  0  0  0  0  0  0  0  0 
    4.5083   -0.1196   -1.5409 C   0  0  0  0  0  0  0  0  0  0  0  0 
    2.5415   -0.1574    0.0407 C   0  0  0  0  0  0  0  0  0  0  0  0 
    2.5103    1.4002   -2.0398 C   0  0  0  0  0  0  0  0  0  0  0  0 
    1.6938    0.9208   -3.2226 C   0  0  0  0  0  0  0  0  0  0  0  0 
    2.2881   -0.9750   -2.3503 C   0  0  0  0  0  0  0  0  0  0  0  0 
    2.9842    0.0662   -1.4237 C   0  0  1  0  0  0  0  0  0  0  0  0 
    1.5664   -0.3458   -3.3966 N   0  0  0  0  0  0  0  0  0  0  0  0 
    1.1193    1.7824   -4.0700 O   0  0  0  0  0  0  0  0  0  0  0  0 
    2.3622   -2.1724   -2.1945 O   0  0  0  0  0  0  0  0  0  0  0  0 
    0.8226   -0.2924    1.3587 H   0  0  0  0  0  0  0  0  0  0  0  0 
    0.5040   -0.8724   -0.2798 H   0  0  0  0  0  0  0  0  0  0  0  0 
    0.5933    0.8675    0.0514 H   0  0  0  0  0  0  0  0  0  0  0  0 
    5.0370    0.5641   -0.8660 H   0  0  0  0  0  0  0  0  0  0  0  0 
    4.8575    0.0702   -2.5628 H   0  0  0  0  0  0  0  0  0  0  0  0 
    4.7795   -1.1468   -1.2795 H   0  0  0  0  0  0  0  0  0  0  0  0 
    2.9158   -1.1436    0.3391 H   0  0  0  0  0  0  0  0  0  0  0  0 
    3.0549    0.5798    0.6737 H   0  0  0  0  0  0  0  0  0  0  0  0 
    1.8884    1.9988   -1.3622 H   0  0  0  0  0  0  0  0  0  0  0  0 
    3.3374    2.0407   -2.3729 H   0  0  0  0  0  0  0  0  0  0  0  0 
    1.3147    2.6917   -3.7897 H   0  0  0  0  0  0  0  0  0  0  0  0 
  1 11  1  0  0  0  0 
  2 16  1  0  0  0  0 
  2 14  1  0  0  0  0 
  3  1  1  0  0  0  0 
  3 17  1  0  0  0  0 
  3 18  1  0  0  0  0 
  4  7  1  0  0  0  0 
  4 19  1  0  0  0  0 
  5  4  1  0  0  0  0 
  6 10  2  0  0  0  0 
  6  7  1  0  0  0  0 
  7  2  1  6  0  0  0 
  7  3  1  0  0  0  0 
  8  5  2  0  0  0  0 
  8  6  1  0  0  0  0 
  9 21  1  0  0  0  0 
  9  5  1  0  0  0  0 
 12  1  1  0  0  0  0 
 13  1  1  0  0  0  0 
 15  2  1  0  0  0  0 
 20  4  1  0  0  0  0 
M  END 
>  <HBA> 
3 
 
>  <HBD> 
1 
 
>  <TPSA> 
46.17 
 
>  <cid> 
3291 
 
>  <dipole> 
6.42 
 
>  <excitation_energy_1> 
4.248 
 
>  <excitation_energy_2> 
5.42 
 
>  <excitation_energy_3> 
5.587 
 
>  <excitation_energy_4> 
6.296 
 
>  <homo_energy> 
-6.648 
 
>  <homo_lumo_gap> 
5.733 
 
>  <logP> 
0.778 
 
>  <lumo_energy> 
-0.914 
 
>  <melting_point> 
84.0 
 
>  <molecular_refractivity> 
40.51 
 
>  <oscillator_strength_1> 
0.0012 
 
>  <oscillator_strength_2> 
0.0003 
 
>  <oscillator_strength_3> 
0.0103 
 
>  <oscillator_strength_4> 
0.0121 
 
>  <open_babel_can_smiles> 
C[C@@]1(CC)CC(=NC1=O)O 
 
>  <mulliken_charges> 
21 
1   -0.469114 
2   -0.461159 
3   -0.259396 
4   -0.413478 
5   0.520353 
6   0.555616 
7   0.016229 
8   -0.455546 
9   -0.559349 
10   -0.474841 
11   0.154111 
12   0.17509 
13   0.134708 
14   0.145882 
15   0.147698 
16   0.177577 
17   0.164072 
18   0.131242 
19   0.177162 
20   0.173199 
21   0.419943 
 
>  <lowdin_charges> 
21 
1   -0.452281 
2   -0.436188 
3   -0.269157 
4   -0.324983 
5   0.14926 
6   0.155998 
7   -0.024212 
8   -0.190009 
9   -0.312722 
10   -0.231802 
11   0.156276 
12   0.163545 
13   0.140688 
14   0.15177 
15   0.150876 
16   0.166773 
17   0.160031 
18   0.143037 
19   0.169396 
20   0.167417 
21   0.366286 
 
$$$$ 
 
