PCCDB-ID:  2883 
public computational chemistry database (PCCDB) project, http://pccdb.org 
 
 32 32  0  0  0  0  0  0  0  0999 V2000 
    0.3988    1.5780   -0.0261 C   0  0  0  0  0  0  0  0  0  0  0  0 
    7.2515    0.8723   -0.7272 C   0  0  0  0  0  0  0  0  0  0  0  0 
    4.5674   -2.9235    0.6953 C   0  0  0  0  0  0  0  0  0  0  0  0 
    1.8659    1.6035    0.2691 C   0  0  0  0  0  0  0  0  0  0  0  0 
    6.4642   -0.0753    0.1819 C   0  0  0  0  0  0  0  0  0  0  0  0 
    4.0527   -3.1032   -3.0876 C   0  0  0  0  0  0  0  0  0  0  0  0 
    4.2414   -1.7759   -3.4704 C   0  0  0  0  0  0  0  0  0  0  0  0 
    2.7410    0.6523   -0.0793 C   0  0  0  0  0  0  0  0  0  0  0  0 
    4.1728   -3.4630   -1.7445 C   0  0  0  0  0  0  0  0  0  0  0  0 
    4.5605   -0.8216   -2.5043 C   0  0  0  0  0  0  0  0  0  0  0  0 
    4.4832   -2.5201   -0.7569 C   0  0  0  0  0  0  0  0  0  0  0  0 
    4.6826   -1.1828   -1.1575 C   0  0  0  0  0  0  0  0  0  0  0  0 
    4.1811    0.7919    0.2782 C   0  0  0  0  0  0  0  0  0  0  0  0 
    5.0422   -0.1905   -0.1851 N   0  0  0  0  0  0  0  0  0  0  0  0 
    4.5995    1.7154    0.9766 O   0  0  0  0  0  0  0  0  0  0  0  0 
   -0.1883    1.6812    0.8962 H   0  0  0  0  0  0  0  0  0  0  0  0 
    0.0951    0.6528   -0.5266 H   0  0  0  0  0  0  0  0  0  0  0  0 
    0.1161    2.4241   -0.6678 H   0  0  0  0  0  0  0  0  0  0  0  0 
    8.3026    0.9043   -0.4166 H   0  0  0  0  0  0  0  0  0  0  0  0 
    6.8426    1.8841   -0.6605 H   0  0  0  0  0  0  0  0  0  0  0  0 
    7.2176    0.5417   -1.7712 H   0  0  0  0  0  0  0  0  0  0  0  0 
    4.3123   -3.9804    0.8184 H   0  0  0  0  0  0  0  0  0  0  0  0 
    3.8819   -2.3326    1.3135 H   0  0  0  0  0  0  0  0  0  0  0  0 
    5.5714   -2.7727    1.1093 H   0  0  0  0  0  0  0  0  0  0  0  0 
    2.2550    2.4670    0.8075 H   0  0  0  0  0  0  0  0  0  0  0  0 
    6.5060    0.2823    1.2133 H   0  0  0  0  0  0  0  0  0  0  0  0 
    6.8953   -1.0808    0.1420 H   0  0  0  0  0  0  0  0  0  0  0  0 
    3.8080   -3.8581   -3.8299 H   0  0  0  0  0  0  0  0  0  0  0  0 
    4.1448   -1.4835   -4.5122 H   0  0  0  0  0  0  0  0  0  0  0  0 
    2.4141   -0.2302   -0.6214 H   0  0  0  0  0  0  0  0  0  0  0  0 
    4.0146   -4.4979   -1.4504 H   0  0  0  0  0  0  0  0  0  0  0  0 
    4.7143    0.2171   -2.7812 H   0  0  0  0  0  0  0  0  0  0  0  0 
  1  4  1  0  0  0  0 
  1 16  1  0  0  0  0 
  2 20  1  0  0  0  0 
  2 19  1  0  0  0  0 
  2  5  1  0  0  0  0 
  3 22  1  0  0  0  0 
  3 24  1  0  0  0  0 
  3 23  1  0  0  0  0 
  4 25  1  0  0  0  0 
  5 26  1  0  0  0  0 
  6  9  1  0  0  0  0 
  7  6  2  0  0  0  0 
  7 10  1  0  0  0  0 
  8  4  2  0  0  0  0 
  8 13  1  0  0  0  0 
  9 31  1  0  0  0  0 
  9 11  2  0  0  0  0 
 10 12  2  0  0  0  0 
 11  3  1  0  0  0  0 
 12 11  1  0  0  0  0 
 12 14  1  0  0  0  0 
 13 15  2  0  0  0  0 
 14  5  1  0  0  0  0 
 14 13  1  0  0  0  0 
 17  1  1  0  0  0  0 
 18  1  1  0  0  0  0 
 21  2  1  0  0  0  0 
 27  5  1  0  0  0  0 
 28  6  1  0  0  0  0 
 29  7  1  0  0  0  0 
 30  8  1  0  0  0  0 
 32 10  1  0  0  0  0 
M  END 
>  <HBA> 
2 
 
>  <HBD> 
0 
 
>  <TPSA> 
20.31 
 
>  <cid> 
2883 
 
>  <dipole> 
3.22 
 
>  <excitation_energy_1> 
4.453 
 
>  <excitation_energy_2> 
4.929 
 
>  <excitation_energy_3> 
5.02 
 
>  <excitation_energy_4> 
5.216 
 
>  <homo_energy> 
-6.335 
 
>  <homo_lumo_gap> 
5.671 
 
>  <logP> 
2.924 
 
>  <lumo_energy> 
-0.664 
 
>  <melting_point> 
46.03 
 
>  <molecular_refractivity> 
64.57 
 
>  <oscillator_strength_1> 
0.0006 
 
>  <oscillator_strength_2> 
0.0879 
 
>  <oscillator_strength_3> 
0.0093 
 
>  <oscillator_strength_4> 
0.0349 
 
>  <open_babel_can_smiles> 
C/C=C/C(=O)N(c1ccccc1C)CC 
 
>  <mulliken_charges> 
32 
1   -0.498334 
2   -0.449539 
3   -0.526971 
4   -0.060664 
5   -0.134474 
6   -0.113429 
7   -0.14906 
8   -0.195561 
9   -0.206155 
10   -0.125404 
11   0.179568 
12   0.162257 
13   0.577635 
14   -0.525215 
15   -0.540749 
16   0.164122 
17   0.15694 
18   0.164599 
19   0.143238 
20   0.176556 
21   0.144401 
22   0.154128 
23   0.173084 
24   0.167068 
25   0.164645 
26   0.176951 
27   0.140876 
28   0.132555 
29   0.134962 
30   0.14138 
31   0.128222 
32   0.142369 
 
>  <lowdin_charges> 
32 
1   -0.441101 
2   -0.450838 
3   -0.44106 
4   -0.102849 
5   -0.186651 
6   -0.154555 
7   -0.158317 
8   -0.224574 
9   -0.164134 
10   -0.161172 
11   -0.004407 
12   0.026581 
13   0.160726 
14   -0.09563 
15   -0.325154 
16   0.163517 
17   0.156948 
18   0.164398 
19   0.151661 
20   0.164121 
21   0.147445 
22   0.155951 
23   0.168982 
24   0.162137 
25   0.171896 
26   0.165419 
27   0.145708 
28   0.161069 
29   0.159395 
30   0.163437 
31   0.156121 
32   0.164929 
 
$$$$ 
 
