PCCDB-ID:  385 
public computational chemistry database (PCCDB) project, http://pccdb.org 
 
 23 22  0  0  0  0  0  0  0  0999 V2000 
    1.2729    0.5475   -0.0640 C   0  0  0  0  0  0  0  0  0  0  0  0 
    0.7007   -0.0055    1.2556 C   0  0  0  0  0  0  0  0  0  0  0  0 
    2.4184   -0.2487   -0.7121 C   0  0  0  0  0  0  0  0  0  0  0  0 
   -0.0029   -1.3678    1.1469 C   0  0  0  0  0  0  0  0  0  0  0  0 
    3.7320   -0.2337    0.1007 C   0  0  0  0  0  0  0  0  0  0  0  0 
    0.9279   -2.5730    1.1567 C   0  0  0  0  0  0  0  0  0  0  0  0 
    4.7316   -1.2521   -0.4375 C   0  0  0  0  0  0  0  0  0  0  0  0 
    2.0896   -2.5422    1.5030 O   0  0  0  0  0  0  0  0  0  0  0  0 
    0.3806   -3.7515    0.7873 O   0  0  0  0  0  0  0  0  0  0  0  0 
    5.6652   -0.9672   -1.1497 O   0  0  0  0  0  0  0  0  0  0  0  0 
    4.4892   -2.5419   -0.1019 O   0  0  0  0  0  0  0  0  0  0  0  0 
    1.6157    1.5746    0.1208 H   0  0  0  0  0  0  0  0  0  0  0  0 
    0.4516    0.6313   -0.7903 H   0  0  0  0  0  0  0  0  0  0  0  0 
   -0.0336    0.7164    1.6323 H   0  0  0  0  0  0  0  0  0  0  0  0 
    1.4812   -0.0780    2.0205 H   0  0  0  0  0  0  0  0  0  0  0  0 
    2.6216    0.1701   -1.7051 H   0  0  0  0  0  0  0  0  0  0  0  0 
    2.1060   -1.2853   -0.8870 H   0  0  0  0  0  0  0  0  0  0  0  0 
   -0.6333   -1.4071    0.2464 H   0  0  0  0  0  0  0  0  0  0  0  0 
   -0.6851   -1.5035    1.9993 H   0  0  0  0  0  0  0  0  0  0  0  0 
    3.5270   -0.4537    1.1532 H   0  0  0  0  0  0  0  0  0  0  0  0 
    4.1990    0.7530    0.0388 H   0  0  0  0  0  0  0  0  0  0  0  0 
   -0.5491   -3.6294    0.5308 H   0  0  0  0  0  0  0  0  0  0  0  0 
    3.7233   -2.6136    0.5032 H   0  0  0  0  0  0  0  0  0  0  0  0 
  1 12  1  0  0  0  0 
  1  2  1  0  0  0  0 
  2 14  1  0  0  0  0 
  2 15  1  0  0  0  0 
  3  1  1  0  0  0  0 
  3  5  1  0  0  0  0 
  4  6  1  0  0  0  0 
  4  2  1  0  0  0  0 
  4 19  1  0  0  0  0 
  5 20  1  0  0  0  0 
  6  8  2  0  0  0  0 
  7 11  1  0  0  0  0 
  7  5  1  0  0  0  0 
  9  6  1  0  0  0  0 
 10  7  2  0  0  0  0 
 11 23  1  0  0  0  0 
 13  1  1  0  0  0  0 
 16  3  1  0  0  0  0 
 17  3  1  0  0  0  0 
 18  4  1  0  0  0  0 
 21  5  1  0  0  0  0 
 22  9  1  0  0  0  0 
M  END 
>  <HBA> 
4 
 
>  <HBD> 
2 
 
>  <TPSA> 
74.6 
 
>  <cid> 
385 
 
>  <dipole> 
8.94 
 
>  <excitation_energy_1> 
5.397 
 
>  <excitation_energy_2> 
5.61 
 
>  <excitation_energy_3> 
5.726 
 
>  <excitation_energy_4> 
5.779 
 
>  <homo_energy> 
-6.648 
 
>  <homo_lumo_gap> 
5.948 
 
>  <logP> 
1.106 
 
>  <lumo_energy> 
-0.699 
 
>  <melting_point> 
127.09 
 
>  <molecular_refractivity> 
39.31 
 
>  <oscillator_strength_1> 
0.0008 
 
>  <oscillator_strength_2> 
0.001 
 
>  <oscillator_strength_3> 
0.0004 
 
>  <oscillator_strength_4> 
0.0007 
 
>  <open_babel_can_smiles> 
OC(=O)CCCCCC(=O)O 
 
>  <mulliken_charges> 
23 
1   -0.264915 
2   -0.261943 
3   -0.269986 
4   -0.400649 
5   -0.366108 
6   0.62365 
7   0.571112 
8   -0.469532 
9   -0.547788 
10   -0.45169 
11   -0.596046 
12   0.146406 
13   0.133175 
14   0.144476 
15   0.169799 
16   0.159223 
17   0.135436 
18   0.160884 
19   0.188098 
20   0.164413 
21   0.165377 
22   0.41913 
23   0.447477 
 
>  <lowdin_charges> 
23 
1   -0.275299 
2   -0.277453 
3   -0.2735 
4   -0.321826 
5   -0.316814 
6   0.206558 
7   0.191246 
8   -0.260328 
9   -0.332161 
10   -0.257093 
11   -0.370496 
12   0.149252 
13   0.143297 
14   0.154881 
15   0.160804 
16   0.155921 
17   0.139376 
18   0.159539 
19   0.178413 
20   0.158248 
21   0.16456 
22   0.364006 
23   0.358868 
 
$$$$ 
 
