PCCDB-ID:  288 
public computational chemistry database (PCCDB) project, http://pccdb.org 
 
 26 25  0  0  1  0  0  0  0  0999 V2000 
    2.8497   -1.3573   -0.0920 C   0  0  0  0  0  0  0  0  0  0  0  0 
    0.9376    0.1439    0.1950 C   0  0  0  0  0  0  0  0  0  0  0  0 
    2.8717    0.3663    1.6905 C   0  0  0  0  0  0  0  0  0  0  0  0 
    4.8691    1.2699   -2.3452 C   0  0  0  0  0  0  0  0  0  0  0  0 
    3.0108    1.0689   -0.7007 C   0  0  0  0  0  0  0  0  0  0  0  0 
    4.5249    1.0119   -0.8787 C   0  0  2  0  0  0  0  0  0  0  0  0 
    4.3826    0.1056   -3.3077 C   0  0  0  0  0  0  0  0  0  0  0  0 
    2.4324    0.0522    0.2912 N   0  0  0  0  0  0  0  0  0  0  0  0 
    5.0844    1.9567    0.0524 O   0  0  0  0  0  0  0  0  0  0  0  0 
    5.0835   -0.0814   -4.3050 O   0  0  0  0  0  0  0  0  0  0  0  0 
    3.3107   -0.4951   -2.9523 O   0  0  0  0  0  0  0  0  0  0  0  0 
    2.1240   -2.0535    0.3334 H   0  0  0  0  0  0  0  0  0  0  0  0 
    3.8330   -1.5548    0.3326 H   0  0  0  0  0  0  0  0  0  0  0  0 
    2.9042   -1.3987   -1.1896 H   0  0  0  0  0  0  0  0  0  0  0  0 
    0.4892   -0.5099    0.9460 H   0  0  0  0  0  0  0  0  0  0  0  0 
    0.6380   -0.1685   -0.8062 H   0  0  0  0  0  0  0  0  0  0  0  0 
    0.6379    1.1786    0.3699 H   0  0  0  0  0  0  0  0  0  0  0  0 
    2.5296   -0.4289    2.3569 H   0  0  0  0  0  0  0  0  0  0  0  0 
    2.4400    1.3228    1.9924 H   0  0  0  0  0  0  0  0  0  0  0  0 
    3.9582    0.4499    1.7038 H   0  0  0  0  0  0  0  0  0  0  0  0 
    5.9555    1.3636   -2.4584 H   0  0  0  0  0  0  0  0  0  0  0  0 
    4.4267    2.2232   -2.6693 H   0  0  0  0  0  0  0  0  0  0  0  0 
    2.5658    0.8036   -1.6629 H   0  0  0  0  0  0  0  0  0  0  0  0 
    2.7148    2.0569   -0.3377 H   0  0  0  0  0  0  0  0  0  0  0  0 
    4.9005    0.0095   -0.6315 H   0  0  0  0  0  0  0  0  0  0  0  0 
    6.0018    2.1133   -0.2227 H   0  0  0  0  0  0  0  0  0  0  0  0 
  1  8  1  0  0  0  0 
  1 13  1  0  0  0  0 
  1 12  1  0  0  0  0 
  2  8  1  0  0  0  0 
  2 17  1  0  0  0  0 
  2 15  1  0  0  0  0 
  3 20  1  0  0  0  0 
  3 19  1  0  0  0  0 
  3 18  1  0  0  0  0 
  4  6  1  0  0  0  0 
  5 24  1  0  0  0  0 
  5  8  1  0  0  0  0 
  6  5  1  0  0  0  0 
  6 25  1  1  0  0  0 
  6  9  1  0  0  0  0 
  7 11  1  0  0  0  0 
  7  4  1  0  0  0  0 
  8  3  1  0  0  0  0 
 10  7  2  0  0  0  0 
 14  1  1  0  0  0  0 
 16  2  1  0  0  0  0 
 21  4  1  0  0  0  0 
 22  4  1  0  0  0  0 
 23  5  1  0  0  0  0 
 26  9  1  0  0  0  0 
M  RAD  1  11   2 
M  END 
>  <HBA> 
3 
 
>  <HBD> 
1 
 
>  <TPSA> 
60.36 
 
>  <cid> 
288 
 
>  <dipole> 
13.39 
 
>  <excitation_energy_1> 
3.754 
 
>  <excitation_energy_2> 
4.006 
 
>  <excitation_energy_3> 
4.266 
 
>  <excitation_energy_4> 
4.325 
 
>  <homo_energy> 
-4.411 
 
>  <homo_lumo_gap> 
5.004 
 
>  <logP> 
-1.806 
 
>  <lumo_energy> 
0.593 
 
>  <melting_point> 
98.18 
 
>  <molecular_refractivity> 
39.13 
 
>  <oscillator_strength_1> 
0.0009 
 
>  <oscillator_strength_2> 
0.0079 
 
>  <oscillator_strength_3> 
0.0072 
 
>  <oscillator_strength_4> 
0.0005 
 
>  <open_babel_can_smiles> 
O[C@@H](C[N](C)(C)C)CC(=O)[O] 
 
>  <mulliken_charges> 
26 
1   -0.369509 
2   -0.322569 
3   -0.321098 
4   -0.407408 
5   -0.171035 
6   0.13074 
7   0.571977 
8   -0.358716 
9   -0.659946 
10   -0.553783 
11   -0.623255 
12   0.169726 
13   0.188671 
14   0.293226 
15   0.185179 
16   0.231446 
17   0.193208 
18   0.181199 
19   0.191122 
20   0.231927 
21   0.137327 
22   0.140678 
23   0.242704 
24   0.167251 
25   0.132994 
26   0.397944 
 
>  <lowdin_charges> 
26 
1   -0.375185 
2   -0.349118 
3   -0.354215 
4   -0.349482 
5   -0.224204 
6   -0.012866 
7   0.128589 
8   0.078607 
9   -0.485294 
10   -0.366557 
11   -0.47786 
12   0.1655 
13   0.173084 
14   0.223232 
15   0.171455 
16   0.194583 
17   0.174358 
18   0.169332 
19   0.175035 
20   0.192675 
21   0.149733 
22   0.150108 
23   0.20808 
24   0.160792 
25   0.133941 
26   0.345678 
 
$$$$ 
 
