PCCDB-ID:  95 
public computational chemistry database (PCCDB) project, http://pccdb.org 
 
 23 22  0  0  1  0  0  0  0  0999 V2000 
   -1.4134    0.1480   -0.8875 C   0  0  0  0  0  0  0  0  0  0  0  0 
    0.0740    0.4719   -0.9573 C   0  0  1  0  0  0  0  0  0  0  0  0 
    0.5115    1.8673   -0.5080 C   0  0  1  0  0  0  0  0  0  0  0  0 
    0.0980    2.2761    0.9109 C   0  0  0  0  0  0  0  0  0  0  0  0 
    0.7174    3.5695    1.4694 C   0  0  1  0  0  0  0  0  0  0  0  0 
    0.0898    4.7999    0.7566 C   0  0  0  0  0  0  0  0  0  0  0  0 
   -1.5146   -1.1887   -1.3935 O   0  0  0  0  0  0  0  0  0  0  0  0 
    0.8221   -0.4460   -0.1627 O   0  0  0  0  0  0  0  0  0  0  0  0 
    1.9311    1.9553   -0.5952 O   0  0  0  0  0  0  0  0  0  0  0  0 
   -0.6708    1.6678    1.6353 O   0  0  0  0  0  0  0  0  0  0  0  0 
    0.4840    3.6446    2.8625 O   0  0  0  0  0  0  0  0  0  0  0  0 
    0.0765    4.9381   -0.4433 O   0  0  0  0  0  0  0  0  0  0  0  0 
   -0.4280    5.6859    1.6123 O   0  0  0  0  0  0  0  0  0  0  0  0 
   -1.9873    0.8532   -1.5083 H   0  0  0  0  0  0  0  0  0  0  0  0 
   -1.7627    0.2103    0.1467 H   0  0  0  0  0  0  0  0  0  0  0  0 
    0.3820    0.3815   -2.0116 H   0  0  0  0  0  0  0  0  0  0  0  0 
    0.1087    2.6316   -1.1827 H   0  0  0  0  0  0  0  0  0  0  0  0 
    1.7907    3.5777    1.2568 H   0  0  0  0  0  0  0  0  0  0  0  0 
   -2.3680   -1.5538   -1.1179 H   0  0  0  0  0  0  0  0  0  0  0  0 
    0.4954   -1.3293   -0.4053 H   0  0  0  0  0  0  0  0  0  0  0  0 
    2.2558    1.0897   -0.2841 H   0  0  0  0  0  0  0  0  0  0  0  0 
   -0.1611    2.9274    3.0489 H   0  0  0  0  0  0  0  0  0  0  0  0 
   -0.2843    5.3053    2.5098 H   0  0  0  0  0  0  0  0  0  0  0  0 
  1 15  1  0  0  0  0 
  2 16  1  6  0  0  0 
  2  1  1  0  0  0  0 
  2  3  1  0  0  0  0 
  2  8  1  0  0  0  0 
  3 17  1  6  0  0  0 
  3  4  1  0  0  0  0 
  4  5  1  0  0  0  0 
  4 10  2  0  0  0  0 
  5 18  1  6  0  0  0 
  5 11  1  0  0  0  0 
  6  5  1  0  0  0  0 
  6 13  1  0  0  0  0 
  7 19  1  0  0  0  0 
  7  1  1  0  0  0  0 
  9  3  1  0  0  0  0 
  9 21  1  0  0  0  0 
 11 22  1  0  0  0  0 
 12  6  2  0  0  0  0 
 13 23  1  0  0  0  0 
 14  1  1  0  0  0  0 
 20  8  1  0  0  0  0 
M  END 
>  <HBA> 
7 
 
>  <HBD> 
5 
 
>  <TPSA> 
135.29 
 
>  <cid> 
95 
 
>  <dipole> 
4.26 
 
>  <excitation_energy_1> 
4.234 
 
>  <excitation_energy_2> 
4.872 
 
>  <excitation_energy_3> 
5.375 
 
>  <excitation_energy_4> 
5.708 
 
>  <homo_energy> 
-7.353 
 
>  <homo_lumo_gap> 
5.785 
 
>  <logP> 
-3.285 
 
>  <lumo_energy> 
-1.567 
 
>  <melting_point> 
146.46 
 
>  <molecular_refractivity> 
37.58 
 
>  <oscillator_strength_1> 
0.001 
 
>  <oscillator_strength_2> 
0.0256 
 
>  <oscillator_strength_3> 
0.0008 
 
>  <oscillator_strength_4> 
0.0043 
 
>  <open_babel_can_smiles> 
OC[C@@H]([C@@H](C(=O)[C@@H](C(=O)O)O)O)O 
 
>  <mulliken_charges> 
23 
1   -0.07544 
2   0.115106 
3   0.048796 
4   0.41701 
5   -0.030287 
6   0.585273 
7   -0.635352 
8   -0.660539 
9   -0.6322 
10   -0.454765 
11   -0.658264 
12   -0.445875 
13   -0.563419 
14   0.132951 
15   0.171921 
16   0.151594 
17   0.205918 
18   0.222962 
19   0.405433 
20   0.417755 
21   0.420765 
22   0.422626 
23   0.438033 
 
>  <lowdin_charges> 
23 
1   -0.160595 
2   -0.016849 
3   -0.03891 
4   0.157065 
5   -0.07591 
6   0.174191 
7   -0.477496 
8   -0.471531 
9   -0.444608 
10   -0.223643 
11   -0.452064 
12   -0.246095 
13   -0.331906 
14   0.139964 
15   0.153868 
16   0.146324 
17   0.187244 
18   0.192607 
19   0.353257 
20   0.356582 
21   0.354155 
22   0.356163 
23   0.368187 
 
$$$$ 
 
