PCCDB-ID:  1653 
public computational chemistry database (PCCDB) project, http://pccdb.org 
 
 22 22  0  0  1  0  0  0  0  0999 V2000 
   -1.2235   -0.3370   -0.1467 C   0  0  0  0  0  0  0  0  0  0  0  0 
    0.5828    1.4260   -0.3597 C   0  0  0  0  0  0  0  0  0  0  0  0 
   -0.9291    1.1461   -0.1650 C   0  0  1  0  0  0  0  0  0  0  0  0 
   -0.2702   -1.2628    0.0232 C   0  0  0  0  0  0  0  0  0  0  0  0 
    1.4426    0.5164    0.5123 C   0  0  2  0  0  0  0  0  0  0  0  0 
    1.2069   -0.9611    0.1507 C   0  0  1  0  0  0  0  0  0  0  0  0 
   -1.6997    1.8864   -1.2642 C   0  0  0  0  0  0  0  0  0  0  0  0 
   -0.4889   -2.6132    0.1078 O   0  0  0  0  0  0  0  0  0  0  0  0 
    1.1052    0.7437    1.8676 O   0  0  0  0  0  0  0  0  0  0  0  0 
    1.7993   -1.7371    1.1915 O   0  0  0  0  0  0  0  0  0  0  0  0 
   -2.1016    3.0176   -1.1612 O   0  0  0  0  0  0  0  0  0  0  0  0 
   -1.8632    1.1938   -2.4250 O   0  0  0  0  0  0  0  0  0  0  0  0 
   -2.2697   -0.6457   -0.1900 H   0  0  0  0  0  0  0  0  0  0  0  0 
    0.7892    2.4728   -0.1191 H   0  0  0  0  0  0  0  0  0  0  0  0 
    0.8613    1.2713   -1.4111 H   0  0  0  0  0  0  0  0  0  0  0  0 
   -1.2430    1.5987    0.7814 H   0  0  0  0  0  0  0  0  0  0  0  0 
    2.5077    0.7400    0.3377 H   0  0  0  0  0  0  0  0  0  0  0  0 
    1.7025   -1.1890   -0.8073 H   0  0  0  0  0  0  0  0  0  0  0  0 
   -1.4435   -2.7919    0.1209 H   0  0  0  0  0  0  0  0  0  0  0  0 
    1.4243   -0.0420    2.3471 H   0  0  0  0  0  0  0  0  0  0  0  0 
    1.3664   -2.6068    1.1825 H   0  0  0  0  0  0  0  0  0  0  0  0 
   -1.4991    0.2972   -2.3008 H   0  0  0  0  0  0  0  0  0  0  0  0 
  1  4  2  0  0  0  0 
  2  3  1  0  0  0  0 
  2 14  1  0  0  0  0 
  2  5  1  0  0  0  0 
  3  1  1  0  0  0  0 
  3 16  1  1  0  0  0 
  4  8  1  0  0  0  0 
  4  6  1  0  0  0  0 
  5 17  1  6  0  0  0 
  5  9  1  0  0  0  0 
  6 18  1  6  0  0  0 
  6  5  1  0  0  0  0 
  6 10  1  0  0  0  0 
  7 11  2  0  0  0  0 
  7  3  1  0  0  0  0 
  8 19  1  0  0  0  0 
  9 20  1  0  0  0  0 
 12 22  1  0  0  0  0 
 12  7  1  0  0  0  0 
 13  1  1  0  0  0  0 
 15  2  1  0  0  0  0 
 21 10  1  0  0  0  0 
M  END 
>  <HBA> 
5 
 
>  <HBD> 
4 
 
>  <TPSA> 
97.99 
 
>  <cid> 
1653 
 
>  <dipole> 
5.73 
 
>  <excitation_energy_1> 
5.375 
 
>  <excitation_energy_2> 
5.552 
 
>  <excitation_energy_3> 
5.873 
 
>  <excitation_energy_4> 
6.131 
 
>  <homo_energy> 
-6.778 
 
>  <homo_lumo_gap> 
6.61 
 
>  <logP> 
-0.745 
 
>  <lumo_energy> 
-0.169 
 
>  <melting_point> 
134.25 
 
>  <molecular_refractivity> 
38.84 
 
>  <oscillator_strength_1> 
0.0141 
 
>  <oscillator_strength_2> 
0.0009 
 
>  <oscillator_strength_3> 
0.0831 
 
>  <oscillator_strength_4> 
0.0315 
 
>  <open_babel_can_smiles> 
OC(=O)[C@@H]1C[C@@H](O)[C@H](C(=C1)O)O 
 
>  <mulliken_charges> 
22 
1   -0.26497 
2   -0.305031 
3   -0.197098 
4   0.340596 
5   0.123222 
6   0.080921 
7   0.585335 
8   -0.645504 
9   -0.637643 
10   -0.651028 
11   -0.448775 
12   -0.57045 
13   0.135816 
14   0.182341 
15   0.143143 
16   0.196815 
17   0.132318 
18   0.144301 
19   0.418626 
20   0.41113 
21   0.421039 
22   0.404898 
 
>  <lowdin_charges> 
22 
1   -0.268745 
2   -0.273722 
3   -0.152458 
4   0.078446 
5   -0.002822 
6   -0.025222 
7   0.185328 
8   -0.382314 
9   -0.463806 
10   -0.458624 
11   -0.237898 
12   -0.360751 
13   0.15638 
14   0.171609 
15   0.148548 
16   0.182453 
17   0.13649 
18   0.145807 
19   0.363838 
20   0.349428 
21   0.356092 
22   0.351941 
 
$$$$ 
 
