PCCDB-ID:  2149 
public computational chemistry database (PCCDB) project, http://pccdb.org 
 
 17 16  0  0  1  0  0  0  0  0999 V2000 
    1.3795   -0.1794   -0.5757 C   0  0  0  0  0  0  0  0  0  0  0  0 
    1.2534    1.3372   -2.6402 C   0  0  0  0  0  0  0  0  0  0  0  0 
    0.8731    1.1522   -1.1602 C   0  0  1  0  0  0  0  0  0  0  0  0 
    1.0039   -0.4338    0.8900 C   0  0  0  0  0  0  0  0  0  0  0  0 
    0.4020    0.4524   -3.4534 N   0  0  0  0  0  0  0  0  0  0  0  0 
   -0.5550    1.2391   -1.0643 O   0  0  0  0  0  0  0  0  0  0  0  0 
    1.7574   -0.9674    1.6697 O   0  0  0  0  0  0  0  0  0  0  0  0 
   -0.2391   -0.0616    1.2459 O   0  0  0  0  0  0  0  0  0  0  0  0 
    2.4696   -0.2424   -0.6413 H   0  0  0  0  0  0  0  0  0  0  0  0 
    0.9647   -1.0106   -1.1650 H   0  0  0  0  0  0  0  0  0  0  0  0 
    2.3324    1.1795   -2.7826 H   0  0  0  0  0  0  0  0  0  0  0  0 
    1.0262    2.3699   -2.9228 H   0  0  0  0  0  0  0  0  0  0  0  0 
    1.2766    1.9855   -0.5744 H   0  0  0  0  0  0  0  0  0  0  0  0 
    0.8223   -0.4672   -3.5642 H   0  0  0  0  0  0  0  0  0  0  0  0 
    0.2680    0.8305   -4.3868 H   0  0  0  0  0  0  0  0  0  0  0  0 
   -0.8636    0.7944   -1.8864 H   0  0  0  0  0  0  0  0  0  0  0  0 
   -0.6657    0.3976    0.4817 H   0  0  0  0  0  0  0  0  0  0  0  0 
  1  4  1  0  0  0  0 
  2  3  1  0  0  0  0 
  3  6  1  0  0  0  0 
  3  1  1  0  0  0  0 
  3 13  1  1  0  0  0 
  4  8  1  0  0  0  0 
  4  7  2  0  0  0  0 
  5  2  1  0  0  0  0 
  9  1  1  0  0  0  0 
 10  1  1  0  0  0  0 
 11  2  1  0  0  0  0 
 12  2  1  0  0  0  0 
 14  5  1  0  0  0  0 
 15  5  1  0  0  0  0 
 16  6  1  0  0  0  0 
 17  8  1  0  0  0  0 
M  END 
>  <HBA> 
4 
 
>  <HBD> 
3 
 
>  <TPSA> 
83.55 
 
>  <cid> 
2149 
 
>  <dipole> 
7.32 
 
>  <excitation_energy_1> 
5.596 
 
>  <excitation_energy_2> 
6.101 
 
>  <excitation_energy_3> 
6.326 
 
>  <excitation_energy_4> 
6.743 
 
>  <homo_energy> 
-6.808 
 
>  <homo_lumo_gap> 
7.434 
 
>  <logP> 
-0.519 
 
>  <lumo_energy> 
0.626 
 
>  <melting_point> 
124.79 
 
>  <molecular_refractivity> 
26.98 
 
>  <oscillator_strength_1> 
0.001 
 
>  <oscillator_strength_2> 
0.0023 
 
>  <oscillator_strength_3> 
0.0312 
 
>  <oscillator_strength_4> 
0.0077 
 
>  <open_babel_can_smiles> 
NC[C@H](CC(=O)O)O 
 
>  <mulliken_charges> 
17 
1   -0.395134 
2   -0.170463 
3   0.127281 
4   0.590887 
5   -0.756298 
6   -0.656018 
7   -0.458387 
8   -0.58879 
9   0.170767 
10   0.162138 
11   0.145523 
12   0.164562 
13   0.158276 
14   0.319894 
15   0.324839 
16   0.422499 
17   0.438425 
 
>  <lowdin_charges> 
17 
1   -0.337378 
2   -0.21813 
3   -0.013723 
4   0.189557 
5   -0.552855 
6   -0.469618 
7   -0.259495 
8   -0.370668 
9   0.169727 
10   0.16432 
11   0.139585 
12   0.157051 
13   0.154974 
14   0.265897 
15   0.271338 
16   0.348985 
17   0.360433 
 
$$$$ 
 
