PCCDB-ID:  993 
public computational chemistry database (PCCDB) project, http://pccdb.org 
 
 20 20  0  0  1  0  0  0  0  0999 V2000 
    1.4417   -0.0291    0.1742 C   0  0  0  0  0  0  0  0  0  0  0  0 
    0.4204   -0.0571    1.3098 C   0  0  2  0  0  0  0  0  0  0  0  0 
    0.7064    0.9189    2.4483 C   0  0  2  0  0  0  0  0  0  0  0  0 
    1.4719    0.0452    3.4691 C   0  0  2  0  0  0  0  0  0  0  0  0 
    0.7692   -1.3177    3.2762 C   0  0  1  0  0  0  0  0  0  0  0  0 
    1.2184   -1.0882   -0.7335 O   0  0  0  0  0  0  0  0  0  0  0  0 
   -0.5319    1.3232    3.0346 O   0  0  0  0  0  0  0  0  0  0  0  0 
    1.3518    0.5423    4.7879 O   0  0  0  0  0  0  0  0  0  0  0  0 
   -0.3793   -1.3891    4.0995 O   0  0  0  0  0  0  0  0  0  0  0  0 
    0.4711   -1.3885    1.9013 O   0  0  0  0  0  0  0  0  0  0  0  0 
    2.4627   -0.0650    0.5936 H   0  0  0  0  0  0  0  0  0  0  0  0 
    1.3460    0.9047   -0.3905 H   0  0  0  0  0  0  0  0  0  0  0  0 
   -0.5859    0.0944    0.9055 H   0  0  0  0  0  0  0  0  0  0  0  0 
    1.2814    1.7945    2.1175 H   0  0  0  0  0  0  0  0  0  0  0  0 
    2.5324   -0.0250    3.2022 H   0  0  0  0  0  0  0  0  0  0  0  0 
    1.3775   -2.1839    3.5441 H   0  0  0  0  0  0  0  0  0  0  0  0 
    1.1431   -1.8908   -0.1897 H   0  0  0  0  0  0  0  0  0  0  0  0 
   -0.2814    1.6762    3.9097 H   0  0  0  0  0  0  0  0  0  0  0  0 
    0.7124   -0.0549    5.2236 H   0  0  0  0  0  0  0  0  0  0  0  0 
   -0.9655   -0.6654    3.7995 H   0  0  0  0  0  0  0  0  0  0  0  0 
  1 11  1  0  0  0  0 
  1  2  1  0  0  0  0 
  2 13  1  6  0  0  0 
  2 10  1  0  0  0  0 
  2  3  1  0  0  0  0 
  3 14  1  6  0  0  0 
  3  7  1  0  0  0  0 
  3  4  1  0  0  0  0 
  4 15  1  6  0  0  0 
  4  8  1  0  0  0  0 
  5  4  1  0  0  0  0 
  5 16  1  1  0  0  0 
  5  9  1  0  0  0  0 
  6 17  1  0  0  0  0 
  6  1  1  0  0  0  0 
  7 18  1  0  0  0  0 
  8 19  1  0  0  0  0 
 10  5  1  0  0  0  0 
 12  1  1  0  0  0  0 
 20  9  1  0  0  0  0 
M  END 
>  <HBA> 
5 
 
>  <HBD> 
4 
 
>  <TPSA> 
90.15 
 
>  <cid> 
993 
 
>  <dipole> 
1.91 
 
>  <excitation_energy_1> 
6.701 
 
>  <excitation_energy_2> 
6.72 
 
>  <excitation_energy_3> 
6.822 
 
>  <excitation_energy_4> 
7.133 
 
>  <homo_energy> 
-7.271 
 
>  <homo_lumo_gap> 
8.683 
 
>  <logP> 
-2.582 
 
>  <lumo_energy> 
1.412 
 
>  <melting_point> 
62.2 
 
>  <molecular_refractivity> 
29.77 
 
>  <oscillator_strength_1> 
0.0016 
 
>  <oscillator_strength_2> 
0.0032 
 
>  <oscillator_strength_3> 
0.0041 
 
>  <oscillator_strength_4> 
0.0201 
 
>  <open_babel_can_smiles> 
OC[C@H]1O[C@@H]([C@@H]([C@@H]1O)O)O 
 
>  <mulliken_charges> 
20 
1   -0.029884 
2   0.111725 
3   0.057352 
4   0.084647 
5   0.30896 
6   -0.618853 
7   -0.643808 
8   -0.646663 
9   -0.624378 
10   -0.514345 
11   0.117856 
12   0.150575 
13   0.169845 
14   0.145196 
15   0.147712 
16   0.159099 
17   0.405706 
18   0.405219 
19   0.409069 
20   0.404969 
 
>  <lowdin_charges> 
20 
1   -0.143868 
2   -0.022997 
3   -0.036747 
4   -0.053764 
5   0.072758 
6   -0.459477 
7   -0.458403 
8   -0.456364 
9   -0.449588 
10   -0.272005 
11   0.124477 
12   0.152755 
13   0.160542 
14   0.14691 
15   0.150818 
16   0.156137 
17   0.348059 
18   0.346957 
19   0.349021 
20   0.34478 
 
$$$$ 
 
