PCCDB-ID:  681 
public computational chemistry database (PCCDB) project, http://pccdb.org 
 
 22 22  0  0  0  0  0  0  0  0999 V2000 
   -1.3533    0.0309   -0.0942 C   0  0  0  0  0  0  0  0  0  0  0  0 
   -0.6960    1.2630   -0.0255 C   0  0  0  0  0  0  0  0  0  0  0  0 
   -1.3205   -2.5077   -0.1600 C   0  0  0  0  0  0  0  0  0  0  0  0 
   -1.5683   -3.0860    1.2433 C   0  0  0  0  0  0  0  0  0  0  0  0 
    0.7720   -1.0834   -0.0963 C   0  0  0  0  0  0  0  0  0  0  0  0 
   -0.6292   -1.1622   -0.1302 C   0  0  0  0  0  0  0  0  0  0  0  0 
    0.6945    1.3329    0.0094 C   0  0  0  0  0  0  0  0  0  0  0  0 
    1.4388    0.1376   -0.0292 C   0  0  0  0  0  0  0  0  0  0  0  0 
   -2.1691   -4.4210    1.1457 N   0  0  0  0  0  0  0  0  0  0  0  0 
    1.3951    2.5065    0.0727 O   0  0  0  0  0  0  0  0  0  0  0  0 
    2.8014    0.2503   -0.0011 O   0  0  0  0  0  0  0  0  0  0  0  0 
   -2.4396    0.0068   -0.1259 H   0  0  0  0  0  0  0  0  0  0  0  0 
   -1.2722    2.1869   -0.0029 H   0  0  0  0  0  0  0  0  0  0  0  0 
   -2.2843   -2.4155   -0.6801 H   0  0  0  0  0  0  0  0  0  0  0  0 
   -0.7285   -3.2365   -0.7262 H   0  0  0  0  0  0  0  0  0  0  0  0 
   -2.1627   -2.3601    1.8273 H   0  0  0  0  0  0  0  0  0  0  0  0 
   -0.6069   -3.1879    1.7617 H   0  0  0  0  0  0  0  0  0  0  0  0 
    1.3615   -1.9997   -0.1301 H   0  0  0  0  0  0  0  0  0  0  0  0 
   -3.1113   -4.3431    0.7629 H   0  0  0  0  0  0  0  0  0  0  0  0 
   -2.2799   -4.8172    2.0780 H   0  0  0  0  0  0  0  0  0  0  0  0 
    0.7601    3.2390    0.0905 H   0  0  0  0  0  0  0  0  0  0  0  0 
    3.1814   -0.6411   -0.0376 H   0  0  0  0  0  0  0  0  0  0  0  0 
  1  2  2  0  0  0  0 
  2 13  1  0  0  0  0 
  2  7  1  0  0  0  0 
  3  6  1  0  0  0  0 
  3  4  1  0  0  0  0 
  4 17  1  0  0  0  0 
  4 16  1  0  0  0  0 
  5  8  1  0  0  0  0 
  6  5  2  0  0  0  0 
  6  1  1  0  0  0  0 
  7 10  1  0  0  0  0 
  8 11  1  0  0  0  0 
  8  7  2  0  0  0  0 
  9  4  1  0  0  0  0 
  9 20  1  0  0  0  0 
 10 21  1  0  0  0  0 
 12  1  1  0  0  0  0 
 14  3  1  0  0  0  0 
 15  3  1  0  0  0  0 
 18  5  1  0  0  0  0 
 19  9  1  0  0  0  0 
 22 11  1  0  0  0  0 
M  END 
>  <HBA> 
3 
 
>  <HBD> 
3 
 
>  <TPSA> 
66.48 
 
>  <cid> 
681 
 
>  <dipole> 
2.13 
 
>  <excitation_energy_1> 
4.782 
 
>  <excitation_energy_2> 
4.81 
 
>  <excitation_energy_3> 
5.018 
 
>  <excitation_energy_4> 
5.233 
 
>  <homo_energy> 
-5.44 
 
>  <homo_lumo_gap> 
5.685 
 
>  <logP> 
1.299 
 
>  <lumo_energy> 
0.245 
 
>  <melting_point> 
142.69 
 
>  <molecular_refractivity> 
42.97 
 
>  <oscillator_strength_1> 
0.0011 
 
>  <oscillator_strength_2> 
0.0607 
 
>  <oscillator_strength_3> 
0.0002 
 
>  <oscillator_strength_4> 
0.004 
 
>  <open_babel_can_smiles> 
NCCc1ccc(c(c1)O)O 
 
>  <mulliken_charges> 
22 
1   -0.195593 
2   -0.196494 
3   -0.343404 
4   -0.128478 
5   -0.260668 
6   0.170252 
7   0.315717 
8   0.32808 
9   -0.715223 
10   -0.633789 
11   -0.635144 
12   0.11744 
13   0.116132 
14   0.133311 
15   0.154217 
16   0.117784 
17   0.141476 
18   0.114231 
19   0.291457 
20   0.296149 
21   0.405788 
22   0.40676 
 
>  <lowdin_charges> 
22 
1   -0.178682 
2   -0.206327 
3   -0.276331 
4   -0.204736 
5   -0.217103 
6   -0.009808 
7   0.073915 
8   0.0807 
9   -0.557766 
10   -0.372743 
11   -0.371304 
12   0.151806 
13   0.153078 
14   0.143951 
15   0.156627 
16   0.121162 
17   0.142484 
18   0.15238 
19   0.249537 
20   0.254263 
21   0.358172 
22   0.356724 
 
$$$$ 
 
