PCCDB-ID:  4382 
public computational chemistry database (PCCDB) project, http://pccdb.org 
 
 25 25  0  0  0  0  0  0  0  0999 V2000 
    5.8658   -0.0577   -2.0535 C   0  0  0  0  0  0  0  0  0  0  0  0 
    5.5007   -0.0085    3.6528 C   0  0  0  0  0  0  0  0  0  0  0  0 
    6.0100   -0.4728    4.8689 C   0  0  0  0  0  0  0  0  0  0  0  0 
    4.3745   -0.4047    1.4160 C   0  0  0  0  0  0  0  0  0  0  0  0 
    5.4265   -0.5029    0.2989 C   0  0  0  0  0  0  0  0  0  0  0  0 
    4.8033   -2.2402    3.1128 C   0  0  0  0  0  0  0  0  0  0  0  0 
    4.8894   -0.8858    2.7550 C   0  0  0  0  0  0  0  0  0  0  0  0 
    5.9228   -1.8189    5.2163 C   0  0  0  0  0  0  0  0  0  0  0  0 
    5.3072   -2.7154    4.3215 C   0  0  0  0  0  0  0  0  0  0  0  0 
    4.9054    0.0230   -0.9589 N   0  0  0  0  0  0  0  0  0  0  0  0 
    6.3981   -2.3328    6.3917 O   0  0  0  0  0  0  0  0  0  0  0  0 
    5.2356   -4.0269    4.7029 O   0  0  0  0  0  0  0  0  0  0  0  0 
    5.3943    0.2855   -2.9804 H   0  0  0  0  0  0  0  0  0  0  0  0 
    6.2750   -1.0711   -2.2289 H   0  0  0  0  0  0  0  0  0  0  0  0 
    6.7123    0.6070   -1.8437 H   0  0  0  0  0  0  0  0  0  0  0  0 
    5.5783    1.0481    3.4097 H   0  0  0  0  0  0  0  0  0  0  0  0 
    6.4792    0.2227    5.5632 H   0  0  0  0  0  0  0  0  0  0  0  0 
    3.4919   -0.9923    1.1243 H   0  0  0  0  0  0  0  0  0  0  0  0 
    4.0463    0.6387    1.4845 H   0  0  0  0  0  0  0  0  0  0  0  0 
    5.7810   -1.5502    0.2188 H   0  0  0  0  0  0  0  0  0  0  0  0 
    6.3042    0.0952    0.5781 H   0  0  0  0  0  0  0  0  0  0  0  0 
    4.3249   -2.9463    2.4339 H   0  0  0  0  0  0  0  0  0  0  0  0 
    4.0686   -0.5010   -1.2123 H   0  0  0  0  0  0  0  0  0  0  0  0 
    6.7885   -1.6083    6.9045 H   0  0  0  0  0  0  0  0  0  0  0  0 
    4.7929   -4.5252    3.9986 H   0  0  0  0  0  0  0  0  0  0  0  0 
  1 15  1  0  0  0  0 
  1 10  1  0  0  0  0 
  2  3  2  0  0  0  0 
  3  8  1  0  0  0  0 
  3 17  1  0  0  0  0 
  4 19  1  0  0  0  0 
  4  7  1  0  0  0  0 
  5 21  1  0  0  0  0 
  5  4  1  0  0  0  0 
  6  9  1  0  0  0  0 
  7  6  2  0  0  0  0 
  7  2  1  0  0  0  0 
  8 11  1  0  0  0  0 
  9 12  1  0  0  0  0 
  9  8  2  0  0  0  0 
 10  5  1  0  0  0  0 
 11 24  1  0  0  0  0 
 13  1  1  0  0  0  0 
 14  1  1  0  0  0  0 
 16  2  1  0  0  0  0 
 18  4  1  0  0  0  0 
 20  5  1  0  0  0  0 
 22  6  1  0  0  0  0 
 23 10  1  0  0  0  0 
 25 12  1  0  0  0  0 
M  END 
>  <HBA> 
3 
 
>  <HBD> 
3 
 
>  <TPSA> 
52.49 
 
>  <cid> 
4382 
 
>  <dipole> 
1.1 
 
>  <excitation_energy_1> 
4.767 
 
>  <excitation_energy_2> 
4.801 
 
>  <excitation_energy_3> 
4.972 
 
>  <excitation_energy_4> 
5.257 
 
>  <homo_energy> 
-5.448 
 
>  <homo_lumo_gap> 
5.679 
 
>  <logP> 
1.251 
 
>  <lumo_energy> 
0.231 
 
>  <melting_point> 
114.95 
 
>  <molecular_refractivity> 
47.87 
 
>  <oscillator_strength_1> 
0.0024 
 
>  <oscillator_strength_2> 
0.0633 
 
>  <oscillator_strength_3> 
0.001 
 
>  <oscillator_strength_4> 
0.0044 
 
>  <open_babel_can_smiles> 
CNCCc1ccc(c(c1)O)O 
 
>  <mulliken_charges> 
25 
1   -0.298956 
2   -0.195745 
3   -0.196555 
4   -0.360592 
5   -0.106738 
6   -0.257733 
7   0.170561 
8   0.316003 
9   0.327967 
10   -0.538863 
11   -0.633852 
12   -0.634973 
13   0.147284 
14   0.118546 
15   0.152092 
16   0.12315 
17   0.117216 
18   0.130811 
19   0.156457 
20   0.110155 
21   0.142905 
22   0.108685 
23   0.289907 
24   0.406125 
25   0.406145 
 
>  <lowdin_charges> 
25 
1   -0.360266 
2   -0.177503 
3   -0.206783 
4   -0.274488 
5   -0.198942 
6   -0.219035 
7   -0.009233 
8   0.074996 
9   0.079456 
10   -0.364481 
11   -0.373066 
12   -0.373118 
13   0.150311 
14   0.119378 
15   0.149032 
16   0.154947 
17   0.154743 
18   0.14264 
19   0.155526 
20   0.114 
21   0.143987 
22   0.150858 
23   0.249851 
24   0.358659 
25   0.358531 
 
$$$$ 
 
