PCCDB-ID:  4913 
public computational chemistry database (PCCDB) project, http://pccdb.org 
 
 38 38  0  0  0  0  0  0  0  0999 V2000 
    3.9145   -3.0044    2.0327 C   0  0  0  0  0  0  0  0  0  0  0  0 
    5.4674   -2.1257   -1.2338 C   0  0  0  0  0  0  0  0  0  0  0  0 
    5.2193   -2.2326    1.7699 C   0  0  0  0  0  0  0  0  0  0  0  0 
    4.6042   -1.1903   -0.3858 C   0  0  0  0  0  0  0  0  0  0  0  0 
    9.1599    1.7536    1.0915 C   0  0  0  0  0  0  0  0  0  0  0  0 
    9.8903    2.3453    3.3056 C   0  0  0  0  0  0  0  0  0  0  0  0 
   10.4454    1.9646    0.6061 C   0  0  0  0  0  0  0  0  0  0  0  0 
   11.1783    2.5519    2.8335 C   0  0  0  0  0  0  0  0  0  0  0  0 
    5.2879    0.6877    2.8076 C   0  0  0  0  0  0  0  0  0  0  0  0 
    4.4362    0.1019    1.6770 C   0  0  0  0  0  0  0  0  0  0  0  0 
    8.8589    1.9321    2.4499 C   0  0  0  0  0  0  0  0  0  0  0  0 
   11.4802    2.3610    1.4721 C   0  0  0  0  0  0  0  0  0  0  0  0 
    7.4983    1.7341    3.0433 C   0  0  0  0  0  0  0  0  0  0  0  0 
   12.7831    2.5136    1.0030 N   0  0  0  0  0  0  0  0  0  0  0  0 
    6.6011    1.0255    2.2902 N   0  0  0  0  0  0  0  0  0  0  0  0 
    5.1157   -0.9958    0.9773 N   0  0  0  0  0  0  0  0  0  0  0  0 
    7.1950    2.1931    4.1452 O   0  0  0  0  0  0  0  0  0  0  0  0 
    4.1258   -3.8899    2.6431 H   0  0  0  0  0  0  0  0  0  0  0  0 
    3.4480   -3.3479    1.1028 H   0  0  0  0  0  0  0  0  0  0  0  0 
    3.1784   -2.3999    2.5736 H   0  0  0  0  0  0  0  0  0  0  0  0 
    5.1263   -2.1025   -2.2747 H   0  0  0  0  0  0  0  0  0  0  0  0 
    5.4152   -3.1663   -0.8969 H   0  0  0  0  0  0  0  0  0  0  0  0 
    6.5165   -1.8106   -1.2075 H   0  0  0  0  0  0  0  0  0  0  0  0 
    5.9321   -2.8936    1.2655 H   0  0  0  0  0  0  0  0  0  0  0  0 
    5.6831   -1.9720    2.7272 H   0  0  0  0  0  0  0  0  0  0  0  0 
    3.5578   -1.5485   -0.3952 H   0  0  0  0  0  0  0  0  0  0  0  0 
    4.5917   -0.2024   -0.8612 H   0  0  0  0  0  0  0  0  0  0  0  0 
    8.3782    1.4809    0.3874 H   0  0  0  0  0  0  0  0  0  0  0  0 
    9.6515    2.5052    4.3521 H   0  0  0  0  0  0  0  0  0  0  0  0 
   10.6561    1.8253   -0.4520 H   0  0  0  0  0  0  0  0  0  0  0  0 
   11.9660    2.8608    3.5175 H   0  0  0  0  0  0  0  0  0  0  0  0 
    5.3652   -0.0066    3.6574 H   0  0  0  0  0  0  0  0  0  0  0  0 
    4.8127    1.5930    3.1974 H   0  0  0  0  0  0  0  0  0  0  0  0 
    4.2595    0.8934    0.9401 H   0  0  0  0  0  0  0  0  0  0  0  0 
    3.4485   -0.1824    2.0804 H   0  0  0  0  0  0  0  0  0  0  0  0 
   12.8698    2.7070    0.0133 H   0  0  0  0  0  0  0  0  0  0  0  0 
   13.3766    3.1162    1.5591 H   0  0  0  0  0  0  0  0  0  0  0  0 
    6.9213    0.4197    1.5442 H   0  0  0  0  0  0  0  0  0  0  0  0 
  1 20  1  0  0  0  0 
  1 18  1  0  0  0  0 
  2 23  1  0  0  0  0 
  2 22  1  0  0  0  0 
  2  4  1  0  0  0  0 
  3  1  1  0  0  0  0 
  3 25  1  0  0  0  0 
  4 16  1  0  0  0  0 
  5 11  1  0  0  0  0 
  6 29  1  0  0  0  0 
  7  5  2  0  0  0  0 
  7 12  1  0  0  0  0 
  8  6  1  0  0  0  0 
  8 31  1  0  0  0  0 
  9 33  1  0  0  0  0 
  9 32  1  0  0  0  0 
 10 35  1  0  0  0  0 
 10  9  1  0  0  0  0 
 11 13  1  0  0  0  0 
 11  6  2  0  0  0  0 
 12  8  2  0  0  0  0 
 13 17  2  0  0  0  0 
 14 12  1  0  0  0  0 
 14 37  1  0  0  0  0 
 15  9  1  0  0  0  0 
 15 13  1  0  0  0  0 
 16 10  1  0  0  0  0 
 16  3  1  0  0  0  0 
 19  1  1  0  0  0  0 
 21  2  1  0  0  0  0 
 24  3  1  0  0  0  0 
 26  4  1  0  0  0  0 
 27  4  1  0  0  0  0 
 28  5  1  0  0  0  0 
 30  7  1  0  0  0  0 
 34 10  1  0  0  0  0 
 36 14  1  0  0  0  0 
 38 15  1  0  0  0  0 
M  END 
>  <HBA> 
4 
 
>  <HBD> 
2 
 
>  <TPSA> 
58.36 
 
>  <cid> 
4913 
 
>  <dipole> 
4.2 
 
>  <excitation_energy_1> 
4.607 
 
>  <excitation_energy_2> 
4.697 
 
>  <excitation_energy_3> 
4.768 
 
>  <excitation_energy_4> 
4.843 
 
>  <homo_energy> 
-5.513 
 
>  <homo_lumo_gap> 
5.225 
 
>  <logP> 
2.313 
 
>  <lumo_energy> 
-0.288 
 
>  <melting_point> 
114.86 
 
>  <molecular_refractivity> 
70.77 
 
>  <oscillator_strength_1> 
0.0868 
 
>  <oscillator_strength_2> 
0.015 
 
>  <oscillator_strength_3> 
0.2076 
 
>  <oscillator_strength_4> 
0.0139 
 
>  <open_babel_can_smiles> 
CCN(CCNC(=O)c1ccc(cc1)N)CC 
 
>  <mulliken_charges> 
38 
1   -0.461356 
2   -0.458238 
3   -0.142121 
4   -0.107703 
5   -0.193245 
6   -0.167124 
7   -0.179308 
8   -0.180368 
9   -0.112258 
10   -0.146745 
11   0.069357 
12   0.32421 
13   0.558779 
14   -0.789436 
15   -0.627764 
16   -0.401176 
17   -0.541438 
18   0.148397 
19   0.150079 
20   0.151799 
21   0.147359 
22   0.151479 
23   0.152534 
24   0.147526 
25   0.150634 
26   0.119284 
27   0.13942 
28   0.127711 
29   0.159214 
30   0.116734 
31   0.120555 
32   0.149108 
33   0.169853 
34   0.146507 
35   0.126888 
36   0.322486 
37   0.323918 
38   0.334447 
 
>  <lowdin_charges> 
38 
1   -0.466865 
2   -0.448332 
3   -0.209914 
4   -0.195401 
5   -0.149854 
6   -0.120925 
7   -0.201832 
8   -0.201518 
9   -0.197385 
10   -0.20816 
11   -0.067533 
12   0.069311 
13   0.15559 
14   -0.481864 
15   -0.287481 
16   -0.197229 
17   -0.326185 
18   0.156686 
19   0.150276 
20   0.151955 
21   0.154541 
22   0.148992 
23   0.151669 
24   0.14888 
25   0.149465 
26   0.119316 
27   0.14438 
28   0.157687 
29   0.174788 
30   0.150935 
31   0.155185 
32   0.14103 
33   0.165466 
34   0.150627 
35   0.129006 
36   0.275574 
37   0.279441 
38   0.279675 
 
$$$$ 
 
