PCCDB-ID:  2345 
public computational chemistry database (PCCDB) project, http://pccdb.org 
 
 28 29  0  0  0  0  0  0  0  0999 V2000 
   -0.1355   -1.2895   -2.7877 C   0  0  0  0  0  0  0  0  0  0  0  0 
    6.5145   -3.9741    2.5784 C   0  0  0  0  0  0  0  0  0  0  0  0 
   -0.4746   -0.8824   -1.4961 C   0  0  0  0  0  0  0  0  0  0  0  0 
    1.1716   -1.1192   -3.2491 C   0  0  0  0  0  0  0  0  0  0  0  0 
    5.3229   -3.3749    2.9941 C   0  0  0  0  0  0  0  0  0  0  0  0 
    7.0878   -3.6183    1.3547 C   0  0  0  0  0  0  0  0  0  0  0  0 
    0.4922   -0.3062   -0.6718 C   0  0  0  0  0  0  0  0  0  0  0  0 
    2.1376   -0.5437   -2.4235 C   0  0  0  0  0  0  0  0  0  0  0  0 
    4.7029   -2.4194    2.1908 C   0  0  0  0  0  0  0  0  0  0  0  0 
    6.4710   -2.6650    0.5486 C   0  0  0  0  0  0  0  0  0  0  0  0 
    2.8457    0.4850   -0.2231 C   0  0  0  0  0  0  0  0  0  0  0  0 
    1.8054   -0.1312   -1.1257 C   0  0  0  0  0  0  0  0  0  0  0  0 
    5.2763   -2.0604    0.9630 C   0  0  0  0  0  0  0  0  0  0  0  0 
    4.6614   -1.0449    0.0611 C   0  0  0  0  0  0  0  0  0  0  0  0 
    5.1264   -0.7204   -1.0162 O   0  0  0  0  0  0  0  0  0  0  0  0 
    3.5298   -0.5159    0.5809 O   0  0  0  0  0  0  0  0  0  0  0  0 
   -0.8876   -1.7356   -3.4332 H   0  0  0  0  0  0  0  0  0  0  0  0 
    6.9956   -4.7184    3.2075 H   0  0  0  0  0  0  0  0  0  0  0  0 
   -1.4909   -1.0095   -1.1326 H   0  0  0  0  0  0  0  0  0  0  0  0 
    1.4394   -1.4336   -4.2544 H   0  0  0  0  0  0  0  0  0  0  0  0 
    4.8769   -3.6522    3.9453 H   0  0  0  0  0  0  0  0  0  0  0  0 
    8.0138   -4.0848    1.0303 H   0  0  0  0  0  0  0  0  0  0  0  0 
    0.2261    0.0140    0.3333 H   0  0  0  0  0  0  0  0  0  0  0  0 
    3.1578   -0.4196   -2.7741 H   0  0  0  0  0  0  0  0  0  0  0  0 
    3.7772   -1.9510    2.5053 H   0  0  0  0  0  0  0  0  0  0  0  0 
    6.8971   -2.3729   -0.4055 H   0  0  0  0  0  0  0  0  0  0  0  0 
    2.3837    1.1452    0.5144 H   0  0  0  0  0  0  0  0  0  0  0  0 
    3.5943    1.0369   -0.7941 H   0  0  0  0  0  0  0  0  0  0  0  0 
  1  3  1  0  0  0  0 
  2  5  1  0  0  0  0 
  2 18  1  0  0  0  0 
  3 19  1  0  0  0  0 
  3  7  2  0  0  0  0 
  4  1  2  0  0  0  0 
  4  8  1  0  0  0  0 
  5 21  1  0  0  0  0 
  6  2  2  0  0  0  0 
  7 23  1  0  0  0  0 
  8 12  2  0  0  0  0 
  9 25  1  0  0  0  0 
  9  5  2  0  0  0  0 
 10 13  2  0  0  0  0 
 10  6  1  0  0  0  0 
 11 27  1  0  0  0  0 
 11 16  1  0  0  0  0 
 12  7  1  0  0  0  0 
 12 11  1  0  0  0  0 
 13  9  1  0  0  0  0 
 14 16  1  0  0  0  0 
 14 13  1  0  0  0  0 
 15 14  2  0  0  0  0 
 17  1  1  0  0  0  0 
 20  4  1  0  0  0  0 
 22  6  1  0  0  0  0 
 24  8  1  0  0  0  0 
 26 10  1  0  0  0  0 
 28 11  1  0  0  0  0 
M  END 
>  <HBA> 
2 
 
>  <HBD> 
0 
 
>  <TPSA> 
26.3 
 
>  <cid> 
2345 
 
>  <dipole> 
1.76 
 
>  <excitation_energy_1> 
4.761 
 
>  <excitation_energy_2> 
4.908 
 
>  <excitation_energy_3> 
4.993 
 
>  <excitation_energy_4> 
5.056 
 
>  <homo_energy> 
-6.735 
 
>  <homo_lumo_gap> 
5.557 
 
>  <logP> 
3.044 
 
>  <lumo_energy> 
-1.178 
 
>  <melting_point> 
59.65 
 
>  <molecular_refractivity> 
62.21 
 
>  <oscillator_strength_1> 
0.0043 
 
>  <oscillator_strength_2> 
0.0167 
 
>  <oscillator_strength_3> 
0.001 
 
>  <oscillator_strength_4> 
0.0235 
 
>  <open_babel_can_smiles> 
O=C(c1ccccc1)OCc1ccccc1 
 
>  <mulliken_charges> 
28 
1   -0.125674 
2   -0.116709 
3   -0.129318 
4   -0.130497 
5   -0.136927 
6   -0.138451 
7   -0.172105 
8   -0.176669 
9   -0.156684 
10   -0.151566 
11   -0.141917 
12   0.148189 
13   0.049039 
14   0.602205 
15   -0.495956 
16   -0.475081 
17   0.131388 
18   0.136454 
19   0.130991 
20   0.13358 
21   0.135931 
22   0.137422 
23   0.127557 
24   0.161153 
25   0.156279 
26   0.162564 
27   0.155798 
28   0.179004 
 
>  <lowdin_charges> 
28 
1   -0.15337 
2   -0.141222 
3   -0.155901 
4   -0.153665 
5   -0.157322 
6   -0.156263 
7   -0.156008 
8   -0.152471 
9   -0.137989 
10   -0.129935 
11   -0.130955 
12   -0.024278 
13   -0.04532 
14   0.200768 
15   -0.277492 
16   -0.191265 
17   0.159848 
18   0.16208 
19   0.157482 
20   0.158661 
21   0.16058 
22   0.161498 
23   0.155481 
24   0.171028 
25   0.172321 
26   0.176444 
27   0.158757 
28   0.168507 
 
$$$$ 
 
