PCCDB-ID:  6287 
public computational chemistry database (PCCDB) project, http://pccdb.org 
 
 19 18  0  0  1  0  0  0  0  0999 V2000 
    0.8722   -0.0840    0.0428 C   0  0  0  0  0  0  0  0  0  0  0  0 
    2.9585   -0.2984    1.4435 C   0  0  0  0  0  0  0  0  0  0  0  0 
    2.4068    0.0130    0.0456 C   0  0  0  0  0  0  0  0  0  0  0  0 
    3.0447   -0.9151   -1.0365 C   0  0  1  0  0  0  0  0  0  0  0  0 
    2.5336   -0.4866   -2.4196 C   0  0  0  0  0  0  0  0  0  0  0  0 
    4.5021   -0.9096   -1.1349 N   0  0  0  0  0  0  0  0  0  0  0  0 
    2.9568    0.4919   -2.9845 O   0  0  0  0  0  0  0  0  0  0  0  0 
    1.5445   -1.2271   -2.9788 O   0  0  0  0  0  0  0  0  0  0  0  0 
    0.4393    0.2007   -0.9218 H   0  0  0  0  0  0  0  0  0  0  0  0 
    0.5418   -1.1059    0.2757 H   0  0  0  0  0  0  0  0  0  0  0  0 
    0.4422    0.5759    0.8040 H   0  0  0  0  0  0  0  0  0  0  0  0 
    2.5102    0.3676    2.1890 H   0  0  0  0  0  0  0  0  0  0  0  0 
    4.0439   -0.1624    1.5018 H   0  0  0  0  0  0  0  0  0  0  0  0 
    2.7276   -1.3304    1.7396 H   0  0  0  0  0  0  0  0  0  0  0  0 
    2.6904    1.0400   -0.2242 H   0  0  0  0  0  0  0  0  0  0  0  0 
    2.7267   -1.9481   -0.8206 H   0  0  0  0  0  0  0  0  0  0  0  0 
    4.9269   -1.0192   -0.2182 H   0  0  0  0  0  0  0  0  0  0  0  0 
    4.7974   -0.0115   -1.5159 H   0  0  0  0  0  0  0  0  0  0  0  0 
    1.3491   -1.9921   -2.4135 H   0  0  0  0  0  0  0  0  0  0  0  0 
  1  3  1  0  0  0  0 
  1 10  1  0  0  0  0 
  1 11  1  0  0  0  0 
  2 13  1  0  0  0  0 
  2 14  1  0  0  0  0 
  2 12  1  0  0  0  0 
  3  2  1  0  0  0  0 
  4 16  1  1  0  0  0 
  4  3  1  0  0  0  0 
  5  4  1  0  0  0  0 
  6  4  1  0  0  0  0 
  6 17  1  0  0  0  0 
  7  5  2  0  0  0  0 
  8  5  1  0  0  0  0 
  8 19  1  0  0  0  0 
  9  1  1  0  0  0  0 
 15  3  1  0  0  0  0 
 18  6  1  0  0  0  0 
M  END 
>  <HBA> 
3 
 
>  <HBD> 
2 
 
>  <TPSA> 
63.32 
 
>  <cid> 
6287 
 
>  <dipole> 
4.21 
 
>  <excitation_energy_1> 
5.451 
 
>  <excitation_energy_2> 
5.75 
 
>  <excitation_energy_3> 
5.867 
 
>  <excitation_energy_4> 
6.171 
 
>  <homo_energy> 
-6.569 
 
>  <homo_lumo_gap> 
6.765 
 
>  <logP> 
0.755 
 
>  <lumo_energy> 
0.196 
 
>  <melting_point> 
105.51 
 
>  <molecular_refractivity> 
30.63 
 
>  <oscillator_strength_1> 
0.003 
 
>  <oscillator_strength_2> 
0.0047 
 
>  <oscillator_strength_3> 
0.0022 
 
>  <oscillator_strength_4> 
0.0226 
 
>  <open_babel_can_smiles> 
N[C@H](C(=O)O)C(C)C 
 
>  <mulliken_charges> 
19 
1   -0.47375 
2   -0.455569 
3   -0.076652 
4   -0.061388 
5   0.61679 
6   -0.720718 
7   -0.454707 
8   -0.564774 
9   0.167811 
10   0.1334 
11   0.155061 
12   0.154565 
13   0.13875 
14   0.143161 
15   0.147348 
16   0.11607 
17   0.303863 
18   0.319827 
19   0.410912 
 
>  <lowdin_charges> 
19 
1   -0.454613 
2   -0.446704 
3   -0.135477 
4   -0.102873 
5   0.198601 
6   -0.541573 
7   -0.243873 
8   -0.346648 
9   0.159252 
10   0.141464 
11   0.158523 
12   0.158376 
13   0.144331 
14   0.146447 
15   0.148675 
16   0.132133 
17   0.25661 
18   0.268145 
19   0.359205 
 
$$$$ 
 
