PCCDB-ID:  650 
public computational chemistry database (PCCDB) project, http://pccdb.org 
 
 12 11  0  0  0  0  0  0  0  0999 V2000 
    1.0469    0.2254   -0.3237 C   0  0  0  0  0  0  0  0  0  0  0  0 
    3.9566   -2.1213    0.9784 C   0  0  0  0  0  0  0  0  0  0  0  0 
    2.2301   -0.2404    0.4884 C   0  0  0  0  0  0  0  0  0  0  0  0 
    2.7739   -1.6551    0.1658 C   0  0  0  0  0  0  0  0  0  0  0  0 
    2.7638    0.4193    1.3594 O   0  0  0  0  0  0  0  0  0  0  0  0 
    2.2401   -2.3150   -0.7051 O   0  0  0  0  0  0  0  0  0  0  0  0 
    0.2070   -0.4676   -0.2000 H   0  0  0  0  0  0  0  0  0  0  0  0 
    1.2942    0.2184   -1.3912 H   0  0  0  0  0  0  0  0  0  0  0  0 
    0.7582    1.2296   -0.0087 H   0  0  0  0  0  0  0  0  0  0  0  0 
    3.7072   -2.1181    2.0455 H   0  0  0  0  0  0  0  0  0  0  0  0 
    4.7955   -1.4264    0.8586 H   0  0  0  0  0  0  0  0  0  0  0  0 
    4.2476   -3.1241    0.6610 H   0  0  0  0  0  0  0  0  0  0  0  0 
  1  7  1  0  0  0  0 
  1  9  1  0  0  0  0 
  1  3  1  0  0  0  0 
  2 10  1  0  0  0  0 
  3  5  2  0  0  0  0 
  4  3  1  0  0  0  0 
  4  2  1  0  0  0  0 
  6  4  2  0  0  0  0 
  8  1  1  0  0  0  0 
 11  2  1  0  0  0  0 
 12  2  1  0  0  0  0 
M  END 
>  <HBA> 
2 
 
>  <HBD> 
0 
 
>  <TPSA> 
34.14 
 
>  <cid> 
650 
 
>  <dipole> 
0.0 
 
>  <excitation_energy_1> 
2.676 
 
>  <excitation_energy_2> 
4.451 
 
>  <excitation_energy_3> 
6.098 
 
>  <excitation_energy_4> 
6.171 
 
>  <homo_energy> 
-6.629 
 
>  <homo_lumo_gap> 
4.286 
 
>  <logP> 
0.164 
 
>  <lumo_energy> 
-2.343 
 
>  <melting_point> 
17.55 
 
>  <molecular_refractivity> 
21.74 
 
>  <oscillator_strength_1> 
0.0001 
 
>  <oscillator_strength_2> 
0.0 
 
>  <oscillator_strength_3> 
0.0 
 
>  <oscillator_strength_4> 
0.0 
 
>  <open_babel_can_smiles> 
CC(=O)C(=O)C 
 
>  <mulliken_charges> 
12 
1   -0.522452 
2   -0.522491 
3   0.384806 
4   0.384789 
5   -0.415554 
6   -0.415541 
7   0.187506 
8   0.187508 
9   0.1782 
10   0.187507 
11   0.187517 
12   0.178204 
 
>  <lowdin_charges> 
12 
1   -0.468019 
2   -0.468048 
3   0.134894 
4   0.134899 
5   -0.204925 
6   -0.204933 
7   0.18358 
8   0.181658 
9   0.172815 
10   0.181685 
11   0.183563 
12   0.172832 
 
$$$$ 
 
