PCCDB-ID:  2775 
public computational chemistry database (PCCDB) project, http://pccdb.org 
 
 25 26  0  0  0  0  0  0  0  0999 V2000 
    3.1166    1.6164   -0.3299 C   0  0  0  0  0  0  0  0  0  0  0  0 
    2.2188   -4.6912   -0.0108 C   0  0  0  0  0  0  0  0  0  0  0  0 
    4.6285   -3.8654   -3.3842 C   0  0  0  0  0  0  0  0  0  0  0  0 
    5.4011   -3.5590   -4.4556 C   0  0  0  0  0  0  0  0  0  0  0  0 
    2.8993   -2.0151   -0.5808 C   0  0  0  0  0  0  0  0  0  0  0  0 
    4.0676   -0.4264   -2.0255 C   0  0  0  0  0  0  0  0  0  0  0  0 
    3.2715   -0.6950   -0.9138 C   0  0  0  0  0  0  0  0  0  0  0  0 
    4.1421   -2.8353   -2.5134 C   0  0  0  0  0  0  0  0  0  0  0  0 
    3.3289   -3.0699   -1.3706 C   0  0  0  0  0  0  0  0  0  0  0  0 
    4.4889   -1.5066   -2.8065 C   0  0  0  0  0  0  0  0  0  0  0  0 
    5.7670   -2.1868   -4.7636 C   0  0  0  0  0  0  0  0  0  0  0  0 
    6.4490   -1.8042   -5.6845 O   0  0  0  0  0  0  0  0  0  0  0  0 
    2.7932    0.2554   -0.0703 O   0  0  0  0  0  0  0  0  0  0  0  0 
    3.0267   -4.3747   -1.1371 O   0  0  0  0  0  0  0  0  0  0  0  0 
    5.2654   -1.2106   -3.8843 O   0  0  0  0  0  0  0  0  0  0  0  0 
    2.6328    2.1917    0.4609 H   0  0  0  0  0  0  0  0  0  0  0  0 
    2.7314    1.9391   -1.3050 H   0  0  0  0  0  0  0  0  0  0  0  0 
    4.2002    1.7834   -0.2931 H   0  0  0  0  0  0  0  0  0  0  0  0 
    2.1083   -5.7765   -0.0202 H   0  0  0  0  0  0  0  0  0  0  0  0 
    1.2303   -4.2214   -0.0854 H   0  0  0  0  0  0  0  0  0  0  0  0 
    2.7004   -4.3798    0.9244 H   0  0  0  0  0  0  0  0  0  0  0  0 
    4.3639   -4.8951   -3.1665 H   0  0  0  0  0  0  0  0  0  0  0  0 
    5.7846   -4.3127   -5.1330 H   0  0  0  0  0  0  0  0  0  0  0  0 
    2.2799   -2.1587    0.2947 H   0  0  0  0  0  0  0  0  0  0  0  0 
    4.3727    0.5717   -2.3091 H   0  0  0  0  0  0  0  0  0  0  0  0 
  1 18  1  0  0  0  0 
  1 13  1  0  0  0  0 
  1 16  1  0  0  0  0 
  2 21  1  0  0  0  0 
  3 22  1  0  0  0  0 
  3  8  1  0  0  0  0 
  4  3  2  0  0  0  0 
  5 24  1  0  0  0  0 
  6  7  2  0  0  0  0 
  7  5  1  0  0  0  0 
  7 13  1  0  0  0  0 
  8  9  1  0  0  0  0 
  9 14  1  0  0  0  0 
  9  5  2  0  0  0  0 
 10  8  2  0  0  0  0 
 10  6  1  0  0  0  0 
 11  4  1  0  0  0  0 
 11 15  1  0  0  0  0 
 12 11  2  0  0  0  0 
 14  2  1  0  0  0  0 
 15 10  1  0  0  0  0 
 17  1  1  0  0  0  0 
 19  2  1  0  0  0  0 
 20  2  1  0  0  0  0 
 23  4  1  0  0  0  0 
 25  6  1  0  0  0  0 
M  END 
>  <HBA> 
4 
 
>  <HBD> 
0 
 
>  <TPSA> 
48.67 
 
>  <cid> 
2775 
 
>  <dipole> 
6.05 
 
>  <excitation_energy_1> 
4.023 
 
>  <excitation_energy_2> 
4.172 
 
>  <excitation_energy_3> 
4.602 
 
>  <excitation_energy_4> 
5.105 
 
>  <homo_energy> 
-5.878 
 
>  <homo_lumo_gap> 
4.441 
 
>  <logP> 
1.81 
 
>  <lumo_energy> 
-1.437 
 
>  <melting_point> 
94.54 
 
>  <molecular_refractivity> 
55.47 
 
>  <oscillator_strength_1> 
0.2699 
 
>  <oscillator_strength_2> 
0.0845 
 
>  <oscillator_strength_3> 
0.0 
 
>  <oscillator_strength_4> 
0.0741 
 
>  <open_babel_can_smiles> 
COc1cc(OC)c2c(c1)oc(=O)cc2 
 
>  <mulliken_charges> 
25 
1   -0.220059 
2   -0.218541 
3   -0.099923 
4   -0.228557 
5   -0.262909 
6   -0.264014 
7   0.395305 
8   0.047495 
9   0.332997 
10   0.321329 
11   0.593175 
12   -0.470984 
13   -0.507564 
14   -0.512014 
15   -0.526812 
16   0.17536 
17   0.16202 
18   0.161993 
19   0.175899 
20   0.161143 
21   0.161186 
22   0.166524 
23   0.157633 
24   0.146531 
25   0.152789 
 
>  <lowdin_charges> 
25 
1   -0.275009 
2   -0.273362 
3   -0.098902 
4   -0.217548 
5   -0.252664 
6   -0.255459 
7   0.127874 
8   -0.084948 
9   0.119194 
10   0.132753 
11   0.194469 
12   -0.245858 
13   -0.187605 
14   -0.190623 
15   -0.136638 
16   0.16738 
17   0.151098 
18   0.149359 
19   0.164316 
20   0.150157 
21   0.150985 
22   0.176578 
23   0.180557 
24   0.175442 
25   0.178454 
 
$$$$ 
 
