PCCDB-ID:  641 
public computational chemistry database (PCCDB) project, http://pccdb.org 
 
 24 23  0  0  1  0  0  0  0  0999 V2000 
    5.9967    0.6794   -1.4756 C   0  0  0  0  0  0  0  0  0  0  0  0 
    4.9522   -2.0697    1.2777 C   0  0  0  0  0  0  0  0  0  0  0  0 
    4.8415    0.5548   -0.5190 C   0  0  0  0  0  0  0  0  0  0  0  0 
    3.6893   -1.4985    0.6320 C   0  0  2  0  0  0  0  0  0  0  0  0 
    3.9279   -0.6821   -0.6661 C   0  0  1  0  0  0  0  0  0  0  0  0 
    4.5820    1.4264    0.3027 O   0  0  0  0  0  0  0  0  0  0  0  0 
    2.8444   -0.7863    1.5206 O   0  0  0  0  0  0  0  0  0  0  0  0 
    2.6764   -0.2260   -1.1534 O   0  0  0  0  0  0  0  0  0  0  0  0 
    4.9283    0.7421    2.8739 O   0  0  0  0  0  0  0  0  0  0  0  0 
    5.8771   -1.2195    4.0161 O   0  0  0  0  0  0  0  0  0  0  0  0 
    7.5590    0.4098    2.8272 O   0  0  0  0  0  0  0  0  0  0  0  0 
    6.0085   -1.0979    1.4589 O   0  0  0  0  0  0  0  0  0  0  0  0 
    6.2268   -0.2180    2.7992 P   0  0  0  0  0  0  0  0  0  0  0  0 
    6.6969   -0.1473   -1.2996 H   0  0  0  0  0  0  0  0  0  0  0  0 
    6.5102    1.6317   -1.3324 H   0  0  0  0  0  0  0  0  0  0  0  0 
    5.6412    0.5921   -2.5098 H   0  0  0  0  0  0  0  0  0  0  0  0 
    5.3847   -2.8305    0.6206 H   0  0  0  0  0  0  0  0  0  0  0  0 
    4.6991   -2.5357    2.2343 H   0  0  0  0  0  0  0  0  0  0  0  0 
    3.0918   -2.3645    0.3186 H   0  0  0  0  0  0  0  0  0  0  0  0 
    4.3427   -1.3475   -1.4317 H   0  0  0  0  0  0  0  0  0  0  0  0 
    3.3782   -0.1522    2.0341 H   0  0  0  0  0  0  0  0  0  0  0  0 
    2.2106    0.1016   -0.3600 H   0  0  0  0  0  0  0  0  0  0  0  0 
    4.8883    1.3217    2.0761 H   0  0  0  0  0  0  0  0  0  0  0  0 
    6.6579   -1.3183    4.5855 H   0  0  0  0  0  0  0  0  0  0  0  0 
  1 15  1  0  0  0  0 
  1 14  1  0  0  0  0 
  1  3  1  0  0  0  0 
  2 12  1  0  0  0  0 
  2 18  1  0  0  0  0 
  3  6  2  0  0  0  0 
  4 19  1  6  0  0  0 
  4  2  1  0  0  0  0 
  4  7  1  0  0  0  0 
  5 20  1  6  0  0  0 
  5  3  1  0  0  0  0 
  5  4  1  0  0  0  0 
  7 21  1  0  0  0  0 
  8  5  1  0  0  0  0 
  8 22  1  0  0  0  0 
 10 24  1  0  0  0  0 
 12 13  1  0  0  0  0 
 13 11  2  0  0  0  0 
 13  9  1  0  0  0  0 
 13 10  1  0  0  0  0 
 16  1  1  0  0  0  0 
 17  2  1  0  0  0  0 
 23  9  1  0  0  0  0 
M  END 
>  <HBA> 
7 
 
>  <HBD> 
4 
 
>  <TPSA> 
134.1 
 
>  <cid> 
641 
 
>  <dipole> 
3.25 
 
>  <excitation_energy_1> 
4.05 
 
>  <excitation_energy_2> 
5.563 
 
>  <excitation_energy_3> 
5.946 
 
>  <excitation_energy_4> 
6.088 
 
>  <homo_energy> 
-6.988 
 
>  <homo_lumo_gap> 
5.638 
 
>  <logP> 
-1.593 
 
>  <lumo_energy> 
-1.35 
 
>  <melting_point> 
112.46 
 
>  <molecular_refractivity> 
40.74 
 
>  <oscillator_strength_1> 
0.0017 
 
>  <oscillator_strength_2> 
0.0091 
 
>  <oscillator_strength_3> 
0.0007 
 
>  <oscillator_strength_4> 
0.0044 
 
>  <open_babel_can_smiles> 
O[C@@H]([C@H](C(=O)C)O)COP(=O)(O)O 
 
>  <mulliken_charges> 
24 
1   -0.543478 
2   -0.087566 
3   0.494526 
4   0.080994 
5   0.062804 
6   -0.510754 
7   -0.6506 
8   -0.619068 
9   -0.689742 
10   -0.654527 
11   -0.520833 
12   -0.539686 
13   1.172886 
14   0.19388 
15   0.190749 
16   0.18624 
17   0.165362 
18   0.191836 
19   0.162642 
20   0.139241 
21   0.431955 
22   0.414611 
23   0.478998 
24   0.449529 
 
>  <lowdin_charges> 
24 
1   -0.470093 
2   -0.142463 
3   0.186551 
4   -0.031601 
5   -0.048728 
6   -0.274583 
7   -0.461596 
8   -0.441937 
9   -0.57187 
10   -0.563113 
11   -0.566355 
12   -0.403184 
13   1.112919 
14   0.185202 
15   0.178825 
16   0.178934 
17   0.16391 
18   0.172237 
19   0.164334 
20   0.152539 
21   0.3506 
22   0.352818 
23   0.384224 
24   0.392431 
 
$$$$ 
 
