PCCDB-ID:  794 
public computational chemistry database (PCCDB) project, http://pccdb.org 
 
 17 17  0  0  0  0  0  0  0  0999 V2000 
    1.4459   -0.1078   -0.3119 C   0  0  0  0  0  0  0  0  0  0  0  0 
   -0.4294   -1.2551   -1.7264 C   0  0  0  0  0  0  0  0  0  0  0  0 
    0.4991   -1.2533   -3.6504 C   0  0  0  0  0  0  0  0  0  0  0  0 
    0.8101   -0.6875   -1.5348 C   0  0  0  0  0  0  0  0  0  0  0  0 
    2.9575   -0.1848   -0.2504 C   0  0  0  0  0  0  0  0  0  0  0  0 
    3.5545    0.0052    1.1634 C   0  0  0  0  0  0  0  0  0  0  0  0 
   -0.6157   -1.6038   -3.0441 N   0  0  0  0  0  0  0  0  0  0  0  0 
    1.3899   -0.6802   -2.7901 N   0  0  0  0  0  0  0  0  0  0  0  0 
    3.6895   -0.3238   -1.2081 O   0  0  0  0  0  0  0  0  0  0  0  0 
    4.8941   -0.0273    1.1517 O   0  0  0  0  0  0  0  0  0  0  0  0 
    2.8745    0.1661    2.1525 O   0  0  0  0  0  0  0  0  0  0  0  0 
    1.0274   -0.5609    0.5919 H   0  0  0  0  0  0  0  0  0  0  0  0 
    1.2169    0.9688   -0.2050 H   0  0  0  0  0  0  0  0  0  0  0  0 
   -1.1995   -1.4258   -0.9849 H   0  0  0  0  0  0  0  0  0  0  0  0 
    0.7182   -1.3912   -4.7009 H   0  0  0  0  0  0  0  0  0  0  0  0 
    2.3549   -0.4321   -2.9626 H   0  0  0  0  0  0  0  0  0  0  0  0 
    5.1843    0.0952    2.0759 H   0  0  0  0  0  0  0  0  0  0  0  0 
  1  5  1  0  0  0  0 
  1 13  1  0  0  0  0 
  1 12  1  0  0  0  0 
  2  4  2  0  0  0  0 
  2 14  1  0  0  0  0 
  3  7  2  0  0  0  0 
  3  8  1  0  0  0  0 
  4  1  1  0  0  0  0 
  5  6  1  0  0  0  0 
  6 11  2  0  0  0  0 
  7  2  1  0  0  0  0 
  8  4  1  0  0  0  0 
  9  5  2  0  0  0  0 
 10  6  1  0  0  0  0 
 10 17  1  0  0  0  0 
 15  3  1  0  0  0  0 
 16  8  1  0  0  0  0 
M  END 
>  <HBA> 
4 
 
>  <HBD> 
2 
 
>  <TPSA> 
83.05 
 
>  <cid> 
794 
 
>  <dipole> 
3.99 
 
>  <excitation_energy_1> 
2.556 
 
>  <excitation_energy_2> 
3.37 
 
>  <excitation_energy_3> 
3.882 
 
>  <excitation_energy_4> 
4.099 
 
>  <homo_energy> 
-6.022 
 
>  <homo_lumo_gap> 
3.363 
 
>  <logP> 
-0.394 
 
>  <lumo_energy> 
-2.659 
 
>  <melting_point> 
167.15 
 
>  <molecular_refractivity> 
35.14 
 
>  <oscillator_strength_1> 
0.0107 
 
>  <oscillator_strength_2> 
0.0007 
 
>  <oscillator_strength_3> 
0.0037 
 
>  <oscillator_strength_4> 
0.002 
 
>  <open_babel_can_smiles> 
OC(=O)C(=O)Cc1cnc[nH]1 
 
>  <mulliken_charges> 
17 
1   -0.44505 
2   -0.07908 
3   0.206389 
4   0.328632 
5   0.402841 
6   0.539592 
7   -0.425463 
8   -0.60147 
9   -0.426921 
10   -0.53681 
11   -0.440116 
12   0.210993 
13   0.204998 
14   0.131204 
15   0.154672 
16   0.35337 
17   0.422218 
 
>  <lowdin_charges> 
17 
1   -0.29723 
2   -0.169136 
3   -0.093344 
4   -0.021595 
5   0.148354 
6   0.163704 
7   -0.186401 
8   -0.178039 
9   -0.192427 
10   -0.315191 
11   -0.238164 
12   0.195495 
13   0.188901 
14   0.160957 
15   0.165315 
16   0.298676 
17   0.370126 
 
$$$$ 
 
