PCCDB-ID:  4070 
public computational chemistry database (PCCDB) project, http://pccdb.org 
 
 16 15  0  0  0  0  0  0  0  0999 V2000 
    0.8911    0.3080   -0.2722 C   0  0  0  0  0  0  0  0  0  0  0  0 
   -0.0573    0.4369   -1.4617 C   0  0  0  0  0  0  0  0  0  0  0  0 
    3.2515    0.5795    0.2988 C   0  0  0  0  0  0  0  0  0  0  0  0 
    3.0638   -0.1208    1.3585 N   0  0  0  0  0  0  0  0  0  0  0  0 
    4.4226    1.2564   -0.0819 N   0  0  0  0  0  0  0  0  0  0  0  0 
    2.2258    0.7684   -0.6195 N   0  0  0  0  0  0  0  0  0  0  0  0 
   -0.2735    2.1621   -2.0898 S   0  0  0  0  0  0  0  0  0  0  0  0 
    0.9640   -0.7445    0.0183 H   0  0  0  0  0  0  0  0  0  0  0  0 
    0.4845    0.8414    0.6017 H   0  0  0  0  0  0  0  0  0  0  0  0 
   -1.0385    0.0248   -1.2112 H   0  0  0  0  0  0  0  0  0  0  0  0 
    0.3331   -0.1172   -2.3206 H   0  0  0  0  0  0  0  0  0  0  0  0 
    3.9383   -0.2466    1.8715 H   0  0  0  0  0  0  0  0  0  0  0  0 
    5.2413    0.9747    0.4437 H   0  0  0  0  0  0  0  0  0  0  0  0 
    4.6031    1.2357   -1.0806 H   0  0  0  0  0  0  0  0  0  0  0  0 
    2.2273    1.6861   -1.0552 H   0  0  0  0  0  0  0  0  0  0  0  0 
   -0.8475    2.6650   -0.9742 H   0  0  0  0  0  0  0  0  0  0  0  0 
  1  8  1  0  0  0  0 
  1  9  1  0  0  0  0 
  2 10  1  0  0  0  0 
  2  1  1  0  0  0  0 
  3  4  1  0  0  0  0 
  4 12  1  0  0  0  0 
  5  3  2  0  0  0  0 
  5 13  1  0  0  0  0 
  6  1  1  0  0  0  0 
  6  3  1  0  0  0  0 
  7  2  1  0  0  0  0 
  7 16  1  0  0  0  0 
 11  2  1  0  0  0  0 
 14  5  1  0  0  0  0 
 15  6  1  0  0  0  0 
M  RAD  1   4   2 
M  END 
>  <HBA> 
4 
 
>  <HBD> 
3 
 
>  <TPSA> 
103.2 
 
>  <cid> 
4070 
 
>  <dipole> 
1.56 
 
>  <excitation_energy_1> 
5.313 
 
>  <excitation_energy_2> 
5.406 
 
>  <excitation_energy_3> 
5.717 
 
>  <excitation_energy_4> 
5.873 
 
>  <homo_energy> 
-6.071 
 
>  <homo_lumo_gap> 
6.689 
 
>  <logP> 
0.59 
 
>  <lumo_energy> 
0.618 
 
>  <melting_point> 
122.05 
 
>  <molecular_refractivity> 
33.56 
 
>  <oscillator_strength_1> 
0.0011 
 
>  <oscillator_strength_2> 
0.0057 
 
>  <oscillator_strength_3> 
0.0164 
 
>  <oscillator_strength_4> 
0.0379 
 
>  <open_babel_can_smiles> 
[NH]C(=[NH2])NCCS 
 
>  <mulliken_charges> 
16 
1   -0.091517 
2   -0.430041 
3   0.587635 
4   -0.649243 
5   -0.755092 
6   -0.606241 
7   -0.099855 
8   0.183242 
9   0.145883 
10   0.183758 
11   0.189435 
12   0.263501 
13   0.318446 
14   0.322886 
15   0.336241 
16   0.100962 
 
>  <lowdin_charges> 
16 
1   -0.192866 
2   -0.375354 
3   0.124801 
4   -0.48182 
5   -0.510832 
6   -0.313236 
7   -0.093808 
8   0.169462 
9   0.140648 
10   0.166625 
11   0.173964 
12   0.245675 
13   0.275907 
14   0.276527 
15   0.278186 
16   0.11612 
 
$$$$ 
 
