PCCDB-ID:  162 
public computational chemistry database (PCCDB) project, http://pccdb.org 
 
 26 27  0  0  1  0  0  0  0  0999 V2000 
    0.7032    0.1906    0.1669 C   0  0  0  0  0  0  0  0  0  0  0  0 
    2.1220    0.4820   -1.8864 C   0  0  0  0  0  0  0  0  0  0  0  0 
    5.8244    0.8549    0.9342 C   0  0  2  0  0  0  0  0  0  0  0  0 
    3.0350   -0.9529    0.0054 C   0  0  1  0  0  0  0  0  0  0  0  0 
    5.4548   -0.6636    0.9349 C   0  0  0  0  0  0  0  0  0  0  0  0 
    4.6284    1.0015   -0.0559 C   0  0  1  0  0  0  0  0  0  0  0  0 
    2.6322   -1.6217    1.3398 C   0  0  0  0  0  0  0  0  0  0  0  0 
    2.1393    0.2890   -0.3610 C   0  0  0  0  0  0  0  0  0  0  0  0 
    7.1077    1.3418    0.4900 N   0  0  0  0  0  0  0  0  0  0  0  0 
    4.4081   -0.4478    0.0227 N   0  0  0  0  0  0  0  0  0  0  0  0 
    5.8519   -1.6619    1.4776 O   0  0  0  0  0  0  0  0  0  0  0  0 
    2.2110   -2.7486    1.3859 O   0  0  0  0  0  0  0  0  0  0  0  0 
    2.7420   -0.8581    2.4493 O   0  0  0  0  0  0  0  0  0  0  0  0 
    3.0231    1.7391    0.4646 S   0  0  0  0  0  0  0  0  0  0  0  0 
    0.2206   -0.7040   -0.2432 H   0  0  0  0  0  0  0  0  0  0  0  0 
    0.1231    1.0616   -0.1533 H   0  0  0  0  0  0  0  0  0  0  0  0 
    0.6606    0.1286    1.2572 H   0  0  0  0  0  0  0  0  0  0  0  0 
    1.5914   -0.3549   -2.3570 H   0  0  0  0  0  0  0  0  0  0  0  0 
    3.1287    0.5202   -2.3131 H   0  0  0  0  0  0  0  0  0  0  0  0 
    1.6030    1.4084   -2.1488 H   0  0  0  0  0  0  0  0  0  0  0  0 
    5.5922    1.2903    1.9113 H   0  0  0  0  0  0  0  0  0  0  0  0 
    2.9014   -1.7231   -0.7594 H   0  0  0  0  0  0  0  0  0  0  0  0 
    4.9135    1.3707   -1.0446 H   0  0  0  0  0  0  0  0  0  0  0  0 
    7.4857    0.7555   -0.2519 H   0  0  0  0  0  0  0  0  0  0  0  0 
    7.7793    1.3213    1.2532 H   0  0  0  0  0  0  0  0  0  0  0  0 
    2.9663    0.0657    2.2029 H   0  0  0  0  0  0  0  0  0  0  0  0 
  1 17  1  0  0  0  0 
  2  8  1  0  0  0  0 
  3  5  1  0  0  0  0 
  3 21  1  1  0  0  0 
  4 22  1  6  0  0  0 
  4 10  1  0  0  0  0 
  4  7  1  0  0  0  0 
  5 11  2  0  0  0  0 
  6 23  1  6  0  0  0 
  6 10  1  0  0  0  0 
  6 14  1  0  0  0  0 
  6  3  1  0  0  0  0 
  7 12  2  0  0  0  0 
  7 13  1  0  0  0  0 
  8  4  1  0  0  0  0 
  8  1  1  0  0  0  0 
  8 14  1  0  0  0  0 
  9  3  1  0  0  0  0 
  9 25  1  0  0  0  0 
 10  5  1  0  0  0  0 
 15  1  1  0  0  0  0 
 16  1  1  0  0  0  0 
 18  2  1  0  0  0  0 
 19  2  1  0  0  0  0 
 20  2  1  0  0  0  0 
 24  9  1  0  0  0  0 
 26 13  1  0  0  0  0 
M  END 
>  <HBA> 
6 
 
>  <HBD> 
2 
 
>  <TPSA> 
108.93 
 
>  <cid> 
162 
 
>  <dipole> 
5.35 
 
>  <excitation_energy_1> 
4.759 
 
>  <excitation_energy_2> 
5.12 
 
>  <excitation_energy_3> 
5.295 
 
>  <excitation_energy_4> 
5.508 
 
>  <homo_energy> 
-6.618 
 
>  <homo_lumo_gap> 
5.959 
 
>  <logP> 
0.099 
 
>  <lumo_energy> 
-0.659 
 
>  <melting_point> 
192.69 
 
>  <molecular_refractivity> 
55.46 
 
>  <oscillator_strength_1> 
0.0019 
 
>  <oscillator_strength_2> 
0.0016 
 
>  <oscillator_strength_3> 
0.0006 
 
>  <oscillator_strength_4> 
0.0136 
 
>  <open_babel_can_smiles> 
OC(=O)[C@@H]1N2C(=O)[C@H]([C@@H]2SC1(C)C)N 
 
>  <mulliken_charges> 
26 
1   -0.470538 
2   -0.444152 
3   -0.10538 
4   -0.060817 
5   0.560251 
6   -0.105134 
7   0.610462 
8   -0.110307 
9   -0.704677 
10   -0.433909 
11   -0.449327 
12   -0.435923 
13   -0.578265 
14   0.072404 
15   0.177966 
16   0.16897 
17   0.180595 
18   0.164889 
19   0.165272 
20   0.172164 
21   0.186754 
22   0.190695 
23   0.190676 
24   0.312931 
25   0.323396 
26   0.421004 
 
>  <lowdin_charges> 
26 
1   -0.449291 
2   -0.4446 
3   -0.096349 
4   -0.099496 
5   0.130389 
6   -0.16162 
7   0.180016 
8   -0.069462 
9   -0.527899 
10   -0.13652 
11   -0.22874 
12   -0.222211 
13   -0.351306 
14   0.086238 
15   0.170016 
16   0.166718 
17   0.167297 
18   0.161482 
19   0.158889 
20   0.166193 
21   0.172914 
22   0.17947 
23   0.161866 
24   0.26675 
25   0.275707 
26   0.343548 
 
$$$$ 
 
