PCCDB-ID:  361 
public computational chemistry database (PCCDB) project, http://pccdb.org 
 
 17 17  0  0  1  0  0  0  0  0999 V2000 
   -1.3268   -0.3540    0.2310 C   0  0  0  0  0  0  0  0  0  0  0  0 
    1.0420   -1.0440   -0.2733 C   0  0  0  0  0  0  0  0  0  0  0  0 
    0.4423    1.4118   -0.2751 C   0  0  0  0  0  0  0  0  0  0  0  0 
   -0.4018   -1.3248    0.0351 C   0  0  0  0  0  0  0  0  0  0  0  0 
   -0.9997    1.0703    0.1100 C   0  0  0  0  0  0  0  0  0  0  0  0 
    1.4561    0.3621    0.1975 C   0  0  1  0  0  0  0  0  0  0  0  0 
   -0.6716   -2.6485    0.0931 O   0  0  0  0  0  0  0  0  0  0  0  0 
   -1.8384    1.9453    0.2821 O   0  0  0  0  0  0  0  0  0  0  0  0 
    1.6399    0.4015    1.6095 O   0  0  0  0  0  0  0  0  0  0  0  0 
   -2.3622   -0.5958    0.4646 H   0  0  0  0  0  0  0  0  0  0  0  0 
    1.1999   -1.1497   -1.3566 H   0  0  0  0  0  0  0  0  0  0  0  0 
    1.6678   -1.7983    0.2150 H   0  0  0  0  0  0  0  0  0  0  0  0 
    0.6862    2.3970    0.1316 H   0  0  0  0  0  0  0  0  0  0  0  0 
    0.4782    1.4919   -1.3720 H   0  0  0  0  0  0  0  0  0  0  0  0 
    2.4443    0.5932   -0.2113 H   0  0  0  0  0  0  0  0  0  0  0  0 
   -1.6215   -2.7767    0.2610 H   0  0  0  0  0  0  0  0  0  0  0  0 
    0.7759    0.2448    2.0253 H   0  0  0  0  0  0  0  0  0  0  0  0 
  1 10  1  0  0  0  0 
  2  4  1  0  0  0  0 
  2  6  1  0  0  0  0 
  2 12  1  0  0  0  0 
  3  5  1  0  0  0  0 
  3 13  1  0  0  0  0 
  3  6  1  0  0  0  0 
  4  7  1  0  0  0  0 
  4  1  2  0  0  0  0 
  5  1  1  0  0  0  0 
  5  8  2  0  0  0  0 
  6 15  1  6  0  0  0 
  6  9  1  0  0  0  0 
  7 16  1  0  0  0  0 
  9 17  1  0  0  0  0 
 11  2  1  0  0  0  0 
 14  3  1  0  0  0  0 
M  END 
>  <HBA> 
3 
 
>  <HBD> 
2 
 
>  <TPSA> 
57.53 
 
>  <cid> 
361 
 
>  <dipole> 
3.47 
 
>  <excitation_energy_1> 
3.859 
 
>  <excitation_energy_2> 
5.471 
 
>  <excitation_energy_3> 
5.598 
 
>  <excitation_energy_4> 
5.737 
 
>  <homo_energy> 
-6.49 
 
>  <homo_lumo_gap> 
5.336 
 
>  <logP> 
0.152 
 
>  <lumo_energy> 
-1.154 
 
>  <melting_point> 
60.52 
 
>  <molecular_refractivity> 
31.3 
 
>  <oscillator_strength_1> 
0.0001 
 
>  <oscillator_strength_2> 
0.0913 
 
>  <oscillator_strength_3> 
0.1807 
 
>  <oscillator_strength_4> 
0.0977 
 
>  <open_babel_can_smiles> 
O[C@H]1CC(=CC(=O)C1)O 
 
>  <mulliken_charges> 
17 
1   -0.281424 
2   -0.341929 
3   -0.365368 
4   0.371797 
5   0.429854 
6   0.102075 
7   -0.600289 
8   -0.48844 
9   -0.61637 
10   0.133099 
11   0.171845 
12   0.185133 
13   0.180378 
14   0.1631 
15   0.147273 
16   0.417925 
17   0.391341 
 
>  <lowdin_charges> 
17 
1   -0.294812 
2   -0.298526 
3   -0.32124 
4   0.126563 
5   0.143304 
6   0.002138 
7   -0.342787 
8   -0.262004 
9   -0.460597 
10   0.164717 
11   0.168854 
12   0.176999 
13   0.174347 
14   0.166862 
15   0.152379 
16   0.362693 
17   0.341111 
 
$$$$ 
 
