PCCDB-ID:  3283 
public computational chemistry database (PCCDB) project, http://pccdb.org 
 
 15 14  0  0  0  0  0  0  0  0999 V2000 
    2.1255   -1.3348    0.3004 C   0  0  0  0  0  0  0  0  0  0  0  0 
    5.3097    2.0630    1.2724 C   0  0  0  0  0  0  0  0  0  0  0  0 
    3.2401   -0.5225   -0.3390 C   0  0  0  0  0  0  0  0  0  0  0  0 
    4.8275    1.1632    0.1459 C   0  0  0  0  0  0  0  0  0  0  0  0 
    3.7717    0.3564    0.6361 O   0  0  0  0  0  0  0  0  0  0  0  0 
    1.6871   -2.0259   -0.4281 H   0  0  0  0  0  0  0  0  0  0  0  0 
    1.3353   -0.6746    0.6727 H   0  0  0  0  0  0  0  0  0  0  0  0 
    2.5108   -1.9166    1.1439 H   0  0  0  0  0  0  0  0  0  0  0  0 
    6.1303    2.7026    0.9289 H   0  0  0  0  0  0  0  0  0  0  0  0 
    5.6659    1.4631    2.1161 H   0  0  0  0  0  0  0  0  0  0  0  0 
    4.4951    2.7028    1.6271 H   0  0  0  0  0  0  0  0  0  0  0  0 
    2.8562    0.0517   -1.2004 H   0  0  0  0  0  0  0  0  0  0  0  0 
    4.0324   -1.1881   -0.7242 H   0  0  0  0  0  0  0  0  0  0  0  0 
    5.6524    0.5287   -0.2230 H   0  0  0  0  0  0  0  0  0  0  0  0 
    4.4794    1.7674   -0.7103 H   0  0  0  0  0  0  0  0  0  0  0  0 
  1  7  1  0  0  0  0 
  1  8  1  0  0  0  0 
  2 11  1  0  0  0  0 
  2 10  1  0  0  0  0 
  3  1  1  0  0  0  0 
  3  5  1  0  0  0  0 
  4  5  1  0  0  0  0 
  4  2  1  0  0  0  0 
  6  1  1  0  0  0  0 
  9  2  1  0  0  0  0 
 12  3  1  0  0  0  0 
 13  3  1  0  0  0  0 
 14  4  1  0  0  0  0 
 15  4  1  0  0  0  0 
M  END 
>  <HBA> 
1 
 
>  <HBD> 
0 
 
>  <TPSA> 
9.23 
 
>  <cid> 
3283 
 
>  <dipole> 
1.03 
 
>  <excitation_energy_1> 
6.532 
 
>  <excitation_energy_2> 
6.956 
 
>  <excitation_energy_3> 
7.028 
 
>  <excitation_energy_4> 
7.232 
 
>  <homo_energy> 
-6.751 
 
>  <homo_lumo_gap> 
9.315 
 
>  <logP> 
1.043 
 
>  <lumo_energy> 
2.563 
 
>  <melting_point> 
-34.18 
 
>  <molecular_refractivity> 
22.43 
 
>  <oscillator_strength_1> 
0.027 
 
>  <oscillator_strength_2> 
0.0 
 
>  <oscillator_strength_3> 
0.0169 
 
>  <oscillator_strength_4> 
0.0373 
 
>  <open_babel_can_smiles> 
CCOCC 
 
>  <mulliken_charges> 
15 
1   -0.452623 
2   -0.452518 
3   -0.000926 
4   -0.001157 
5   -0.467652 
6   0.140983 
7   0.157499 
8   0.157374 
9   0.140958 
10   0.157431 
11   0.157363 
12   0.115843 
13   0.115771 
14   0.115876 
15   0.115781 
 
>  <lowdin_charges> 
15 
1   -0.451455 
2   -0.450927 
3   -0.127462 
4   -0.126725 
5   -0.276866 
6   0.15406 
7   0.157469 
8   0.157232 
9   0.153713 
10   0.157265 
11   0.157359 
12   0.123943 
13   0.124423 
14   0.124184 
15   0.123787 
 
$$$$ 
 
