PCCDB-ID:  123 
public computational chemistry database (PCCDB) project, http://pccdb.org 
 
 22 21  0  0  1  0  0  0  0  0999 V2000 
    1.2612    0.7015    0.3564 C   0  0  0  0  0  0  0  0  0  0  0  0 
    1.0009    2.1731    0.7489 C   0  0  0  0  0  0  0  0  0  0  0  0 
    2.6783    0.1650    0.6248 C   0  0  0  0  0  0  0  0  0  0  0  0 
    1.7423    3.1648   -0.1469 C   0  0  2  0  0  0  0  0  0  0  0  0 
    3.5779    0.8722    2.8511 C   0  0  0  0  0  0  0  0  0  0  0  0 
    1.2453    3.7655   -1.1587 N   0  0  0  0  0  0  0  0  0  0  0  0 
    3.8581    2.0629    2.4338 N   0  0  0  0  0  0  0  0  0  0  0  0 
    3.7852    0.3962    4.1482 N   0  0  0  0  0  0  0  0  0  0  0  0 
    2.9984   -0.0646    2.0325 N   0  0  0  0  0  0  0  0  0  0  0  0 
    3.0431    3.3618    0.1375 O   0  0  0  0  0  0  0  0  0  0  0  0 
    1.0551    0.5834   -0.7158 H   0  0  0  0  0  0  0  0  0  0  0  0 
    0.5394    0.0605    0.8826 H   0  0  0  0  0  0  0  0  0  0  0  0 
    1.2748    2.3330    1.7978 H   0  0  0  0  0  0  0  0  0  0  0  0 
   -0.0734    2.3703    0.6633 H   0  0  0  0  0  0  0  0  0  0  0  0 
    3.4337    0.8408    0.2194 H   0  0  0  0  0  0  0  0  0  0  0  0 
    2.7946   -0.7966    0.1104 H   0  0  0  0  0  0  0  0  0  0  0  0 
    0.2605    3.5092   -1.2536 H   0  0  0  0  0  0  0  0  0  0  0  0 
    4.4089    2.5895    3.1088 H   0  0  0  0  0  0  0  0  0  0  0  0 
    4.3135    1.0198    4.7449 H   0  0  0  0  0  0  0  0  0  0  0  0 
    4.1209   -0.5590    4.2047 H   0  0  0  0  0  0  0  0  0  0  0  0 
    2.4434   -0.7650    2.5069 H   0  0  0  0  0  0  0  0  0  0  0  0 
    3.3066    2.9063    0.9853 H   0  0  0  0  0  0  0  0  0  0  0  0 
  1  3  1  0  0  0  0 
  1  2  1  0  0  0  0 
  1 12  1  0  0  0  0 
  2 13  1  0  0  0  0 
  3  9  1  0  0  0  0 
  4  6  1  6  0  0  0 
  4 10  1  0  0  0  0 
  4  2  1  0  0  0  0 
  5  8  2  0  0  0  0 
  7  5  1  0  0  0  0 
  7 18  1  0  0  0  0 
  8 20  1  0  0  0  0 
  8 19  1  0  0  0  0 
  9 21  1  0  0  0  0 
  9  5  1  0  0  0  0 
 10 22  1  0  0  0  0 
 11  1  1  0  0  0  0 
 14  2  1  0  0  0  0 
 15  3  1  0  0  0  0 
 16  3  1  0  0  0  0 
 17  6  1  0  0  0  0 
M  RAD  3   4   2   6   2   7   2 
M  END 
>  <HBA> 
5 
 
>  <HBD> 
3 
 
>  <TPSA> 
107.49 
 
>  <cid> 
123 
 
>  <dipole> 
8.69 
 
>  <excitation_energy_1> 
5.361 
 
>  <excitation_energy_2> 
5.382 
 
>  <excitation_energy_3> 
5.513 
 
>  <excitation_energy_4> 
5.822 
 
>  <homo_energy> 
-6.12 
 
>  <homo_lumo_gap> 
6.936 
 
>  <logP> 
0.626 
 
>  <lumo_energy> 
0.816 
 
>  <melting_point> 
176.1 
 
>  <molecular_refractivity> 
38.16 
 
>  <oscillator_strength_1> 
0.002 
 
>  <oscillator_strength_2> 
0.0015 
 
>  <oscillator_strength_3> 
0.002 
 
>  <oscillator_strength_4> 
0.0052 
 
>  <open_babel_can_smiles> 
[NH][C](CCCNC(=[NH2])[NH])O 
 
>  <mulliken_charges> 
22 
1   -0.257586 
2   -0.351992 
3   -0.149843 
4   0.46536 
5   0.661169 
6   -0.598693 
7   -0.709558 
8   -0.762397 
9   -0.595451 
10   -0.625373 
11   0.152662 
12   0.127824 
13   0.159743 
14   0.140982 
15   0.195054 
16   0.148179 
17   0.263827 
18   0.287549 
19   0.329865 
20   0.330724 
21   0.324028 
22   0.463926 
 
>  <lowdin_charges> 
22 
1   -0.279699 
2   -0.312029 
3   -0.20209 
4   0.121773 
5   0.145706 
6   -0.426768 
7   -0.48952 
8   -0.500763 
9   -0.292604 
10   -0.392571 
11   0.152306 
12   0.141287 
13   0.157829 
14   0.1509 
15   0.176546 
16   0.150912 
17   0.241891 
18   0.261267 
19   0.284122 
20   0.282792 
21   0.280975 
22   0.347737 
 
$$$$ 
 
