PCCDB-ID:  550 
public computational chemistry database (PCCDB) project, http://pccdb.org 
 
 23 22  0  0  1  0  0  0  0  0999 V2000 
    1.1792    0.8065    0.6037 C   0  0  0  0  0  0  0  0  0  0  0  0 
    0.3844    0.7150    1.6797 C   0  0  0  0  0  0  0  0  0  0  0  0 
    3.4434    1.6803    0.0417 C   0  0  0  0  0  0  0  0  0  0  0  0 
    2.6248    0.4169    0.4310 C   0  0  1  0  0  0  0  0  0  0  0  0 
   -1.0191    1.1732    1.5646 C   0  0  0  0  0  0  0  0  0  0  0  0 
    4.7086    1.3799   -0.7535 C   0  0  0  0  0  0  0  0  0  0  0  0 
    3.2860   -0.3128    1.6205 C   0  0  0  0  0  0  0  0  0  0  0  0 
   -1.8617    0.9952    2.8462 C   0  0  0  0  0  0  0  0  0  0  0  0 
   -1.5189    1.6615    0.5671 O   0  0  0  0  0  0  0  0  0  0  0  0 
    5.1183    0.2645   -1.0002 O   0  0  0  0  0  0  0  0  0  0  0  0 
    5.3824    2.4490   -1.2167 O   0  0  0  0  0  0  0  0  0  0  0  0 
    2.8852   -0.2585    2.7590 O   0  0  0  0  0  0  0  0  0  0  0  0 
    4.3845   -1.0189    1.3070 O   0  0  0  0  0  0  0  0  0  0  0  0 
   -3.1285    1.4067    2.6773 O   0  0  0  0  0  0  0  0  0  0  0  0 
   -1.4239    0.5385    3.8793 O   0  0  0  0  0  0  0  0  0  0  0  0 
    0.7290    1.2224   -0.3000 H   0  0  0  0  0  0  0  0  0  0  0  0 
    0.7248    0.3203    2.6270 H   0  0  0  0  0  0  0  0  0  0  0  0 
    3.7046    2.2551    0.9404 H   0  0  0  0  0  0  0  0  0  0  0  0 
    2.8161    2.3413   -0.5723 H   0  0  0  0  0  0  0  0  0  0  0  0 
    2.6709   -0.2570   -0.4368 H   0  0  0  0  0  0  0  0  0  0  0  0 
    4.9418    3.2760   -0.9569 H   0  0  0  0  0  0  0  0  0  0  0  0 
    4.6489   -0.8509    0.3743 H   0  0  0  0  0  0  0  0  0  0  0  0 
   -3.5798    1.2557    3.5296 H   0  0  0  0  0  0  0  0  0  0  0  0 
  1  2  2  0  0  0  0 
  2 17  1  0  0  0  0 
  3  4  1  0  0  0  0 
  3 18  1  0  0  0  0 
  4 20  1  6  0  0  0 
  4  1  1  0  0  0  0 
  4  7  1  0  0  0  0 
  5  2  1  0  0  0  0 
  5  8  1  0  0  0  0 
  6  3  1  0  0  0  0 
  7 12  2  0  0  0  0 
  8 15  2  0  0  0  0 
  9  5  2  0  0  0  0 
 10  6  2  0  0  0  0 
 11 21  1  0  0  0  0 
 11  6  1  0  0  0  0 
 13  7  1  0  0  0  0 
 14  8  1  0  0  0  0 
 14 23  1  0  0  0  0 
 16  1  1  0  0  0  0 
 19  3  1  0  0  0  0 
 22 13  1  0  0  0  0 
M  END 
>  <HBA> 
7 
 
>  <HBD> 
3 
 
>  <TPSA> 
128.97 
 
>  <cid> 
550 
 
>  <dipole> 
4.58 
 
>  <excitation_energy_1> 
2.917 
 
>  <excitation_energy_2> 
4.108 
 
>  <excitation_energy_3> 
4.709 
 
>  <excitation_energy_4> 
4.722 
 
>  <homo_energy> 
-7.078 
 
>  <homo_lumo_gap> 
4.416 
 
>  <logP> 
-0.628 
 
>  <lumo_energy> 
-2.661 
 
>  <melting_point> 
234.77 
 
>  <molecular_refractivity> 
45.61 
 
>  <oscillator_strength_1> 
0.0 
 
>  <oscillator_strength_2> 
0.0011 
 
>  <oscillator_strength_3> 
0.1813 
 
>  <oscillator_strength_4> 
0.0669 
 
>  <open_babel_can_smiles> 
OC(=O)C[C@@H](C(=O)O)/C=C/C(=O)C(=O)O 
 
>  <mulliken_charges> 
23 
1   -0.111237 
2   -0.168505 
3   -0.430254 
4   -0.248809 
5   0.365303 
6   0.634763 
7   0.610258 
8   0.528781 
9   -0.442016 
10   -0.459063 
11   -0.543354 
12   -0.441253 
13   -0.585239 
14   -0.542824 
15   -0.439315 
16   0.167901 
17   0.221356 
18   0.2122 
19   0.192118 
20   0.189966 
21   0.425425 
22   0.446953 
23   0.416846 
 
>  <lowdin_charges> 
23 
1   -0.100738 
2   -0.200368 
3   -0.320376 
4   -0.161977 
5   0.128322 
6   0.210177 
7   0.191515 
8   0.164367 
9   -0.203171 
10   -0.249174 
11   -0.323623 
12   -0.23989 
13   -0.350648 
14   -0.322108 
15   -0.238748 
16   0.170839 
17   0.202742 
18   0.186454 
19   0.179005 
20   0.178416 
21   0.370433 
22   0.361232 
23   0.367316 
 
$$$$ 
 
