PCCDB-ID:  634 
public computational chemistry database (PCCDB) project, http://pccdb.org 
 
 24 24  0  0  1  0  0  0  0  0999 V2000 
    0.0518   -1.4801   -1.1457 C   0  0  0  0  0  0  0  0  0  0  0  0 
    2.6871    1.1575   -1.7400 C   0  0  0  0  0  0  0  0  0  0  0  0 
    1.1553   -0.9492   -2.0785 C   0  0  2  0  0  0  0  0  0  0  0  0 
    1.9580   -0.0321   -1.1354 C   0  0  2  0  0  0  0  0  0  0  0  0 
    0.0323   -0.4996    0.0416 C   0  0  2  0  0  0  0  0  0  0  0  0 
    3.3567    1.9084   -0.7425 O   0  0  0  0  0  0  0  0  0  0  0  0 
    0.5143   -0.2490   -3.1412 O   0  0  0  0  0  0  0  0  0  0  0  0 
    0.4055   -1.8012    3.6527 O   0  0  0  0  0  0  0  0  0  0  0  0 
    1.6755    0.2205    2.9604 O   0  0  0  0  0  0  0  0  0  0  0  0 
   -0.9060    0.3450    2.8262 O   0  0  0  0  0  0  0  0  0  0  0  0 
    0.9634    0.5035   -0.2409 O   0  0  0  0  0  0  0  0  0  0  0  0 
    0.4267   -1.2422    1.2279 O   0  0  0  0  0  0  0  0  0  0  0  0 
    0.2779   -0.5188    2.6759 P   0  0  0  0  0  0  0  0  0  0  0  0 
    0.2706   -2.4891   -0.7890 H   0  0  0  0  0  0  0  0  0  0  0  0 
   -0.9019   -1.4955   -1.6783 H   0  0  0  0  0  0  0  0  0  0  0  0 
    1.9625    1.7713   -2.2943 H   0  0  0  0  0  0  0  0  0  0  0  0 
    3.4583    0.8112   -2.4380 H   0  0  0  0  0  0  0  0  0  0  0  0 
    1.7844   -1.7596   -2.4719 H   0  0  0  0  0  0  0  0  0  0  0  0 
    2.6748   -0.6388   -0.5612 H   0  0  0  0  0  0  0  0  0  0  0  0 
   -0.9249   -0.0209    0.2490 H   0  0  0  0  0  0  0  0  0  0  0  0 
    2.6794    2.1620   -0.0935 H   0  0  0  0  0  0  0  0  0  0  0  0 
    1.1886    0.0106   -3.7877 H   0  0  0  0  0  0  0  0  0  0  0  0 
   -0.4347   -2.2855    3.7107 H   0  0  0  0  0  0  0  0  0  0  0  0 
    2.4434   -0.3539    2.8064 H   0  0  0  0  0  0  0  0  0  0  0  0 
  1 14  1  0  0  0  0 
  1  5  1  0  0  0  0 
  2  4  1  0  0  0  0 
  2  6  1  0  0  0  0 
  3 18  1  6  0  0  0 
  3  1  1  0  0  0  0 
  3  4  1  0  0  0  0 
  4 19  1  1  0  0  0 
  4 11  1  0  0  0  0 
  5 20  1  1  0  0  0 
  5 12  1  0  0  0  0 
  6 21  1  0  0  0  0 
  7  3  1  0  0  0  0 
  8 23  1  0  0  0  0 
 11  5  1  0  0  0  0 
 12 13  1  0  0  0  0 
 13 10  2  0  0  0  0 
 13  9  1  0  0  0  0 
 13  8  1  0  0  0  0 
 15  1  1  0  0  0  0 
 16  2  1  0  0  0  0 
 17  2  1  0  0  0  0 
 22  7  1  0  0  0  0 
 24  9  1  0  0  0  0 
M  END 
>  <HBA> 
7 
 
>  <HBD> 
4 
 
>  <TPSA> 
126.26 
 
>  <cid> 
634 
 
>  <dipole> 
5.33 
 
>  <excitation_energy_1> 
6.314 
 
>  <excitation_energy_2> 
6.476 
 
>  <excitation_energy_3> 
6.621 
 
>  <excitation_energy_4> 
6.773 
 
>  <homo_energy> 
-7.301 
 
>  <homo_lumo_gap> 
8.068 
 
>  <logP> 
-1.436 
 
>  <lumo_energy> 
0.767 
 
>  <melting_point> 
104.69 
 
>  <molecular_refractivity> 
39.52 
 
>  <oscillator_strength_1> 
0.0031 
 
>  <oscillator_strength_2> 
0.0082 
 
>  <oscillator_strength_3> 
0.0148 
 
>  <oscillator_strength_4> 
0.0006 
 
>  <open_babel_can_smiles> 
OC[C@H]1O[C@@H](C[C@H]1O)OP(=O)(O)O 
 
>  <mulliken_charges> 
24 
1   -0.350734 
2   -0.049723 
3   0.09776 
4   0.109075 
5   0.36645 
6   -0.621262 
7   -0.619561 
8   -0.63708 
9   -0.621686 
10   -0.543133 
11   -0.493267 
12   -0.564372 
13   1.147828 
14   0.175181 
15   0.186454 
16   0.142687 
17   0.137595 
18   0.13062 
19   0.131868 
20   0.185907 
21   0.410691 
22   0.398871 
23   0.441636 
24   0.438196 
 
>  <lowdin_charges> 
24 
1   -0.301698 
2   -0.148194 
3   -0.017643 
4   -0.038864 
5   0.107356 
6   -0.461769 
7   -0.455758 
8   -0.565998 
9   -0.550298 
10   -0.574628 
11   -0.249642 
12   -0.417918 
13   1.114713 
14   0.170235 
15   0.177464 
16   0.141771 
17   0.148288 
18   0.138258 
19   0.140647 
20   0.16961 
21   0.353554 
22   0.348271 
23   0.385658 
24   0.386583 
 
$$$$ 
 
