PCCDB-ID:  4348 
public computational chemistry database (PCCDB) project, http://pccdb.org 
 
 24 24  0  0  0  0  0  0  0  0999 V2000 
   -2.1564   -0.9072    2.6224 C   0  0  0  0  0  0  0  0  0  0  0  0 
   -1.3390    0.2047    2.8243 C   0  0  0  0  0  0  0  0  0  0  0  0 
   -1.8037   -1.8584    1.6610 C   0  0  0  0  0  0  0  0  0  0  0  0 
   -0.1749    0.3629    2.0684 C   0  0  0  0  0  0  0  0  0  0  0  0 
   -0.6433   -1.6954    0.9060 C   0  0  0  0  0  0  0  0  0  0  0  0 
    3.5236   -1.4724   -0.4799 C   0  0  0  0  0  0  0  0  0  0  0  0 
    4.1582   -2.8564   -0.6201 C   0  0  0  0  0  0  0  0  0  0  0  0 
    1.4385   -0.3986    0.2689 C   0  0  0  0  0  0  0  0  0  0  0  0 
    0.1846   -0.5804    1.0998 C   0  0  0  0  0  0  0  0  0  0  0  0 
    2.2759   -1.6030    0.2791 N   0  0  0  0  0  0  0  0  0  0  0  0 
    3.2533   -3.7659   -1.2150 O   0  0  0  0  0  0  0  0  0  0  0  0 
   -3.0619   -1.0339    3.2097 H   0  0  0  0  0  0  0  0  0  0  0  0 
   -1.6030    0.9481    3.5719 H   0  0  0  0  0  0  0  0  0  0  0  0 
   -2.4357   -2.7277    1.4987 H   0  0  0  0  0  0  0  0  0  0  0  0 
    0.4610    1.2304    2.2320 H   0  0  0  0  0  0  0  0  0  0  0  0 
   -0.3651   -2.4374    0.1631 H   0  0  0  0  0  0  0  0  0  0  0  0 
    3.2663   -1.0982   -1.4783 H   0  0  0  0  0  0  0  0  0  0  0  0 
    4.2388   -0.7582   -0.0325 H   0  0  0  0  0  0  0  0  0  0  0  0 
    4.4880   -3.2108    0.3745 H   0  0  0  0  0  0  0  0  0  0  0  0 
    5.0477   -2.8051   -1.2575 H   0  0  0  0  0  0  0  0  0  0  0  0 
    1.9818    0.4972    0.6207 H   0  0  0  0  0  0  0  0  0  0  0  0 
    1.1707   -0.2027   -0.7789 H   0  0  0  0  0  0  0  0  0  0  0  0 
    2.4931   -1.8397    1.2478 H   0  0  0  0  0  0  0  0  0  0  0  0 
    2.3935   -3.5462   -0.8100 H   0  0  0  0  0  0  0  0  0  0  0  0 
  1  2  1  0  0  0  0 
  1 12  1  0  0  0  0 
  2 13  1  0  0  0  0 
  3  1  2  0  0  0  0 
  4 15  1  0  0  0  0 
  4  2  2  0  0  0  0 
  5  9  2  0  0  0  0 
  5  3  1  0  0  0  0 
  6 18  1  0  0  0  0 
  6 10  1  0  0  0  0 
  7  6  1  0  0  0  0 
  7 19  1  0  0  0  0 
  8 10  1  0  0  0  0 
  8 21  1  0  0  0  0 
  8  9  1  0  0  0  0 
  9  4  1  0  0  0  0 
 10 23  1  0  0  0  0 
 11 24  1  0  0  0  0 
 11  7  1  0  0  0  0 
 14  3  1  0  0  0  0 
 16  5  1  0  0  0  0 
 17  6  1  0  0  0  0 
 20  7  1  0  0  0  0 
 22  8  1  0  0  0  0 
M  END 
>  <HBA> 
2 
 
>  <HBD> 
2 
 
>  <TPSA> 
32.26 
 
>  <cid> 
4348 
 
>  <dipole> 
2.7 
 
>  <excitation_energy_1> 
5.272 
 
>  <excitation_energy_2> 
5.355 
 
>  <excitation_energy_3> 
5.636 
 
>  <excitation_energy_4> 
5.909 
 
>  <homo_energy> 
-6.43 
 
>  <homo_lumo_gap> 
6.289 
 
>  <logP> 
1.159 
 
>  <lumo_energy> 
-0.142 
 
>  <melting_point> 
51.62 
 
>  <molecular_refractivity> 
44.99 
 
>  <oscillator_strength_1> 
0.0003 
 
>  <oscillator_strength_2> 
0.0018 
 
>  <oscillator_strength_3> 
0.0203 
 
>  <oscillator_strength_4> 
0.0254 
 
>  <open_babel_can_smiles> 
OCCNCc1ccccc1 
 
>  <mulliken_charges> 
24 
1   -0.128494 
2   -0.127767 
3   -0.13061 
4   -0.186736 
5   -0.162666 
6   -0.146566 
7   -0.018486 
8   -0.18922 
9   0.135078 
10   -0.576679 
11   -0.627656 
12   0.129992 
13   0.129742 
14   0.131426 
15   0.123899 
16   0.135977 
17   0.15277 
18   0.11894 
19   0.110261 
20   0.141866 
21   0.123908 
22   0.159538 
23   0.302046 
24   0.399438 
 
>  <lowdin_charges> 
24 
1   -0.157163 
2   -0.156761 
3   -0.155094 
4   -0.168693 
5   -0.157925 
6   -0.225692 
7   -0.136452 
8   -0.19555 
9   -0.016123 
10   -0.36212 
11   -0.474512 
12   0.157919 
13   0.158465 
14   0.158657 
15   0.154712 
16   0.162173 
17   0.148806 
18   0.12742 
19   0.118564 
20   0.147209 
21   0.127154 
22   0.152189 
23   0.255293 
24   0.337525 
 
$$$$ 
 
