PCCDB-ID:  3483 
public computational chemistry database (PCCDB) project, http://pccdb.org 
 
 20 21  0  0  1  0  0  0  0  0999 V2000 
   -1.5170   -1.0416   -0.1825 C   0  0  1  0  0  0  0  0  0  0  0  0 
    1.4669    0.9407   -0.2012 C   0  0  1  0  0  0  0  0  0  0  0  0 
   -0.0896   -0.8541   -0.7147 C   0  0  1  0  0  0  0  0  0  0  0  0 
    0.0711    0.6821   -0.7590 C   0  0  1  0  0  0  0  0  0  0  0  0 
   -1.6313    0.1406    0.7950 C   0  0  1  0  0  0  0  0  0  0  0  0 
    1.8177   -0.3559    0.5380 C   0  0  0  0  0  0  0  0  0  0  0  0 
   -2.4468   -0.9400   -1.2460 O   0  0  0  0  0  0  0  0  0  0  0  0 
    2.3702    1.1042   -1.2856 O   0  0  0  0  0  0  0  0  0  0  0  0 
   -1.1056   -0.1110    2.0639 O   0  0  0  0  0  0  0  0  0  0  0  0 
    2.7787   -0.5663    1.2277 O   0  0  0  0  0  0  0  0  0  0  0  0 
    0.8816   -1.3194    0.2606 O   0  0  0  0  0  0  0  0  0  0  0  0 
   -0.9628    1.2024    0.0892 O   0  0  0  0  0  0  0  0  0  0  0  0 
   -1.6720   -2.0102    0.2971 H   0  0  0  0  0  0  0  0  0  0  0  0 
    1.4728    1.7939    0.4875 H   0  0  0  0  0  0  0  0  0  0  0  0 
    0.0852   -1.3730   -1.6583 H   0  0  0  0  0  0  0  0  0  0  0  0 
   -0.0329    1.1163   -1.7567 H   0  0  0  0  0  0  0  0  0  0  0  0 
   -2.6585    0.4787    0.9433 H   0  0  0  0  0  0  0  0  0  0  0  0 
   -2.5141   -0.0010   -1.4888 H   0  0  0  0  0  0  0  0  0  0  0  0 
    3.2699    1.0890   -0.9180 H   0  0  0  0  0  0  0  0  0  0  0  0 
   -0.3563   -0.7242    1.9853 H   0  0  0  0  0  0  0  0  0  0  0  0 
  1 13  1  1  0  0  0 
  1  5  1  0  0  0  0 
  2 14  1  1  0  0  0 
  2  6  1  0  0  0  0 
  3 15  1  6  0  0  0 
  3  1  1  0  0  0  0 
  3 11  1  0  0  0  0 
  4 16  1  6  0  0  0 
  4  3  1  0  0  0  0 
  4  2  1  0  0  0  0 
  4 12  1  0  0  0  0 
  5 17  1  1  0  0  0 
  5  9  1  0  0  0  0 
  6 10  2  0  0  0  0 
  7  1  1  0  0  0  0 
  8 19  1  0  0  0  0 
  8  2  1  0  0  0  0 
 11  6  1  0  0  0  0 
 12  5  1  0  0  0  0 
 18  7  1  0  0  0  0 
 20  9  1  0  0  0  0 
M  END 
>  <HBA> 
6 
 
>  <HBD> 
3 
 
>  <TPSA> 
96.22 
 
>  <cid> 
3483 
 
>  <dipole> 
2.13 
 
>  <excitation_energy_1> 
5.201 
 
>  <excitation_energy_2> 
6.198 
 
>  <excitation_energy_3> 
6.329 
 
>  <excitation_energy_4> 
6.58 
 
>  <homo_energy> 
-7.535 
 
>  <homo_lumo_gap> 
6.817 
 
>  <logP> 
-2.649 
 
>  <lumo_energy> 
-0.718 
 
>  <melting_point> 
77.94 
 
>  <molecular_refractivity> 
32.58 
 
>  <oscillator_strength_1> 
0.0009 
 
>  <oscillator_strength_2> 
0.0062 
 
>  <oscillator_strength_3> 
0.0041 
 
>  <oscillator_strength_4> 
0.0008 
 
>  <open_babel_can_smiles> 
O[C@@H]1[C@@H](O)O[C@@H]2[C@H]1OC(=O)[C@H]2O 
 
>  <mulliken_charges> 
20 
1   0.083275 
2   0.041974 
3   0.058563 
4   0.102506 
5   0.290038 
6   0.587104 
7   -0.620607 
8   -0.621866 
9   -0.609469 
10   -0.443635 
11   -0.482697 
12   -0.503369 
13   0.174727 
14   0.183244 
15   0.18551 
16   0.173159 
17   0.164319 
18   0.407757 
19   0.414572 
20   0.414895 
 
>  <lowdin_charges> 
20 
1   -0.036249 
2   -0.040857 
3   -0.030874 
4   -0.024729 
5   0.069267 
6   0.170025 
7   -0.436712 
8   -0.440606 
9   -0.431149 
10   -0.216962 
11   -0.19498 
12   -0.271774 
13   0.166348 
14   0.166992 
15   0.171828 
16   0.164254 
17   0.157547 
18   0.34949 
19   0.359626 
20   0.349514 
 
$$$$ 
 
