PCCDB-ID:  1645 
public computational chemistry database (PCCDB) project, http://pccdb.org 
 
 18 18  0  0  0  0  0  0  0  0999 V2000 
   -0.7581    1.1640    0.0697 C   0  0  0  0  0  0  0  0  0  0  0  0 
   -1.3883   -0.0798    0.0025 C   0  0  0  0  0  0  0  0  0  0  0  0 
    0.6289    1.2643    0.0465 C   0  0  0  0  0  0  0  0  0  0  0  0 
    0.7883   -1.1429   -0.0984 C   0  0  0  0  0  0  0  0  0  0  0  0 
   -0.6062   -1.2421   -0.0755 C   0  0  0  0  0  0  0  0  0  0  0  0 
    1.4249    0.1064   -0.0384 C   0  0  0  0  0  0  0  0  0  0  0  0 
   -1.2512   -2.5918   -0.1295 C   0  0  0  0  0  0  0  0  0  0  0  0 
    2.8148    0.1966   -0.0139 N   0  0  0  0  0  0  0  0  0  0  0  0 
   -0.8512   -3.6620    0.4299 N   0  0  0  0  0  0  0  0  0  0  0  0 
   -2.4094   -2.6555   -0.8494 O   0  0  0  0  0  0  0  0  0  0  0  0 
   -1.3565    2.0679    0.1458 H   0  0  0  0  0  0  0  0  0  0  0  0 
   -2.4709   -0.1487    0.0562 H   0  0  0  0  0  0  0  0  0  0  0  0 
    1.1073    2.2394    0.1006 H   0  0  0  0  0  0  0  0  0  0  0  0 
    1.3864   -2.0473   -0.1829 H   0  0  0  0  0  0  0  0  0  0  0  0 
    3.2009    1.0766   -0.3312 H   0  0  0  0  0  0  0  0  0  0  0  0 
    3.3110   -0.5954   -0.4022 H   0  0  0  0  0  0  0  0  0  0  0  0 
   -0.0246   -3.4640    0.9956 H   0  0  0  0  0  0  0  0  0  0  0  0 
   -2.4840   -1.8488   -1.3829 H   0  0  0  0  0  0  0  0  0  0  0  0 
  1 11  1  0  0  0  0 
  2 12  1  0  0  0  0 
  2  1  2  0  0  0  0 
  3  1  1  0  0  0  0 
  3 13  1  0  0  0  0 
  4  5  2  0  0  0  0 
  4  6  1  0  0  0  0 
  5  2  1  0  0  0  0 
  6  8  1  0  0  0  0 
  6  3  2  0  0  0  0 
  7  5  1  0  0  0  0 
  7  9  2  0  0  0  0 
  9 17  1  0  0  0  0 
 10  7  1  0  0  0  0 
 14  4  1  0  0  0  0 
 15  8  1  0  0  0  0 
 16  8  1  0  0  0  0 
 18 10  1  0  0  0  0 
M  END 
>  <HBA> 
3 
 
>  <HBD> 
2 
 
>  <TPSA> 
69.11 
 
>  <cid> 
1645 
 
>  <dipole> 
5.84 
 
>  <excitation_energy_1> 
4.334 
 
>  <excitation_energy_2> 
4.994 
 
>  <excitation_energy_3> 
5.046 
 
>  <excitation_energy_4> 
5.205 
 
>  <homo_energy> 
-5.946 
 
>  <homo_lumo_gap> 
5.091 
 
>  <logP> 
1.649 
 
>  <lumo_energy> 
-0.854 
 
>  <melting_point> 
143.28 
 
>  <molecular_refractivity> 
38.94 
 
>  <oscillator_strength_1> 
0.0476 
 
>  <oscillator_strength_2> 
0.0078 
 
>  <oscillator_strength_3> 
0.0205 
 
>  <oscillator_strength_4> 
0.0608 
 
>  <open_babel_can_smiles> 
Nc1cccc(c1)C(=N)O 
 
>  <mulliken_charges> 
18 
1   -0.134851 
2   -0.207491 
3   -0.166251 
4   -0.223776 
5   0.068372 
6   0.319196 
7   0.417535 
8   -0.789904 
9   -0.584154 
10   -0.577286 
11   0.137259 
12   0.139546 
13   0.125989 
14   0.131838 
15   0.325388 
16   0.32666 
17   0.286803 
18   0.405125 
 
>  <lowdin_charges> 
18 
1   -0.139865 
2   -0.198183 
3   -0.191747 
4   -0.200772 
5   -0.037553 
6   0.068938 
7   0.12646 
8   -0.484401 
9   -0.391958 
10   -0.364087 
11   0.16254 
12   0.159706 
13   0.157171 
14   0.160276 
15   0.27945 
16   0.280819 
17   0.258461 
18   0.354745 
 
$$$$ 
 
