PCCDB-ID:  1081 
public computational chemistry database (PCCDB) project, http://pccdb.org 
 
 18 17  0  0  1  0  0  0  0  0999 V2000 
    1.0343   -0.2056   -0.3325 C   0  0  0  0  0  0  0  0  0  0  0  0 
    3.2900   -1.2477    0.3272 C   0  0  0  0  0  0  0  0  0  0  0  0 
    2.8535   -2.5972   -0.2680 C   0  0  0  0  0  0  0  0  0  0  0  0 
    3.1276    0.5500   -1.4811 C   0  0  0  0  0  0  0  0  0  0  0  0 
    2.5436    0.0232   -0.1543 C   0  0  1  0  0  0  0  0  0  0  0  0 
    2.5279   -3.5190    0.4438 O   0  0  0  0  0  0  0  0  0  0  0  0 
    2.8657   -2.7098   -1.6039 O   0  0  0  0  0  0  0  0  0  0  0  0 
    3.3748   -0.1773   -2.4261 O   0  0  0  0  0  0  0  0  0  0  0  0 
    3.3138    1.8644   -1.5436 O   0  0  0  0  0  0  0  0  0  0  0  0 
    2.7819    1.0881    0.7860 O   0  0  0  0  0  0  0  0  0  0  0  0 
    0.8404   -0.9393   -1.1189 H   0  0  0  0  0  0  0  0  0  0  0  0 
    0.5349    0.7323   -0.5955 H   0  0  0  0  0  0  0  0  0  0  0  0 
    0.6036   -0.5906    0.6000 H   0  0  0  0  0  0  0  0  0  0  0  0 
    4.3675   -1.1143    0.1701 H   0  0  0  0  0  0  0  0  0  0  0  0 
    3.1284   -1.3364    1.4040 H   0  0  0  0  0  0  0  0  0  0  0  0 
    3.1381   -1.8569   -2.0252 H   0  0  0  0  0  0  0  0  0  0  0  0 
    3.1150    2.2173   -0.6481 H   0  0  0  0  0  0  0  0  0  0  0  0 
    2.1584    0.9989    1.5239 H   0  0  0  0  0  0  0  0  0  0  0  0 
  1  5  1  0  0  0  0 
  1 13  1  0  0  0  0 
  2 15  1  0  0  0  0 
  3  2  1  0  0  0  0 
  3  6  2  0  0  0  0 
  5  4  1  6  0  0  0 
  5  2  1  0  0  0  0 
  5 10  1  0  0  0  0 
  7  3  1  0  0  0  0 
  8  4  2  0  0  0  0 
  9  4  1  0  0  0  0 
  9 17  1  0  0  0  0 
 10 18  1  0  0  0  0 
 11  1  1  0  0  0  0 
 12  1  1  0  0  0  0 
 14  2  1  0  0  0  0 
 16  7  1  0  0  0  0 
M  END 
>  <HBA> 
5 
 
>  <HBD> 
3 
 
>  <TPSA> 
94.83 
 
>  <cid> 
1081 
 
>  <dipole> 
5.89 
 
>  <excitation_energy_1> 
5.476 
 
>  <excitation_energy_2> 
5.629 
 
>  <excitation_energy_3> 
6.018 
 
>  <excitation_energy_4> 
6.13 
 
>  <homo_energy> 
-7.132 
 
>  <homo_lumo_gap> 
6.411 
 
>  <logP> 
-0.703 
 
>  <lumo_energy> 
-0.721 
 
>  <melting_point> 
158.06 
 
>  <molecular_refractivity> 
30.89 
 
>  <oscillator_strength_1> 
0.0052 
 
>  <oscillator_strength_2> 
0.0021 
 
>  <oscillator_strength_3> 
0.0072 
 
>  <oscillator_strength_4> 
0.0009 
 
>  <open_babel_can_smiles> 
OC(=O)C[C@](C(=O)O)(O)C 
 
>  <mulliken_charges> 
18 
1   -0.486564 
2   -0.386783 
3   0.582632 
4   0.632099 
5   0.193474 
6   -0.450341 
7   -0.58981 
8   -0.484215 
9   -0.556705 
10   -0.669442 
11   0.199076 
12   0.168928 
13   0.171138 
14   0.187272 
15   0.17729 
16   0.448819 
17   0.446611 
18   0.41652 
 
>  <lowdin_charges> 
18 
1   -0.458817 
2   -0.321399 
3   0.186491 
4   0.199964 
5   0.083948 
6   -0.254246 
7   -0.365456 
8   -0.25975 
9   -0.31446 
10   -0.45671 
11   0.183841 
12   0.164743 
13   0.165704 
14   0.176088 
15   0.174728 
16   0.36097 
17   0.372808 
18   0.361553 
 
$$$$ 
 
