PCCDB-ID:  1322 
public computational chemistry database (PCCDB) project, http://pccdb.org 
 
 12 11  0  0  0  0  0  0  0  0999 V2000 
    1.0407    0.1934   -0.0492 C   0  0  0  0  0  0  0  0  0  0  0  0 
    4.1968   -1.0615    1.2652 C   0  0  0  0  0  0  0  0  0  0  0  0 
    2.4559    0.2117    0.2931 N   0  0  0  0  0  0  0  0  0  0  0  0 
    2.7587   -0.8392    1.2074 N   0  0  0  0  0  0  0  0  0  0  0  0 
    0.8343    1.0271   -0.7295 H   0  0  0  0  0  0  0  0  0  0  0  0 
    0.3618    0.2806    0.8200 H   0  0  0  0  0  0  0  0  0  0  0  0 
    0.8136   -0.7462   -0.5600 H   0  0  0  0  0  0  0  0  0  0  0  0 
    4.3994   -1.8535    1.9946 H   0  0  0  0  0  0  0  0  0  0  0  0 
    4.7832   -0.1686    1.5527 H   0  0  0  0  0  0  0  0  0  0  0  0 
    4.5429   -1.3882    0.2809 H   0  0  0  0  0  0  0  0  0  0  0  0 
    2.6973    1.1233    0.6977 H   0  0  0  0  0  0  0  0  0  0  0  0 
    2.4118   -0.6115    2.1460 H   0  0  0  0  0  0  0  0  0  0  0  0 
  1  3  1  0  0  0  0 
  1  6  1  0  0  0  0 
  2  9  1  0  0  0  0 
  2  8  1  0  0  0  0 
  3 11  1  0  0  0  0 
  3  4  1  0  0  0  0 
  4  2  1  0  0  0  0 
  4 12  1  0  0  0  0 
  5  1  1  0  0  0  0 
  7  1  1  0  0  0  0 
 10  2  1  0  0  0  0 
M  END 
>  <HBA> 
2 
 
>  <HBD> 
2 
 
>  <TPSA> 
24.06 
 
>  <cid> 
1322 
 
>  <dipole> 
1.83 
 
>  <excitation_energy_1> 
5.129 
 
>  <excitation_energy_2> 
5.869 
 
>  <excitation_energy_3> 
6.026 
 
>  <excitation_energy_4> 
6.219 
 
>  <homo_energy> 
-5.818 
 
>  <homo_lumo_gap> 
7.878 
 
>  <logP> 
0.122 
 
>  <lumo_energy> 
2.06 
 
>  <melting_point> 
30.45 
 
>  <molecular_refractivity> 
17.33 
 
>  <oscillator_strength_1> 
0.0164 
 
>  <oscillator_strength_2> 
0.0001 
 
>  <oscillator_strength_3> 
0.0051 
 
>  <oscillator_strength_4> 
0.037 
 
>  <open_babel_can_smiles> 
CNNC 
 
>  <mulliken_charges> 
12 
1   -0.282028 
2   -0.282123 
3   -0.422499 
4   -0.422254 
5   0.143079 
6   0.113722 
7   0.168157 
8   0.143092 
9   0.11373 
10   0.168165 
11   0.279495 
12   0.279463 
 
>  <lowdin_charges> 
12 
1   -0.362565 
2   -0.362328 
3   -0.297055 
4   -0.296591 
5   0.149505 
6   0.119473 
7   0.158347 
8   0.14961 
9   0.119568 
10   0.158034 
11   0.232295 
12   0.231707 
 
$$$$ 
 
