PCCDB-ID:  5939 
public computational chemistry database (PCCDB) project, http://pccdb.org 
 
 14 13  0  0  0  0  0  0  0  0999 V2000 
    0.6335    0.1401    0.0541 C   0  0  0  0  0  0  0  0  0  0  0  0 
    2.7708    1.4885    0.1141 C   0  0  0  0  0  0  0  0  0  0  0  0 
    0.2253   -1.0407    0.3568 N   0  0  0  0  0  0  0  0  0  0  0  0 
   -0.0418    1.1641   -0.5686 N   0  0  0  0  0  0  0  0  0  0  0  0 
    2.4293    2.3476   -0.7816 N   0  0  0  0  0  0  0  0  0  0  0  0 
    4.0012    1.4255    0.7771 N   0  0  0  0  0  0  0  0  0  0  0  0 
    1.9346    0.4547    0.4993 N   0  0  0  0  0  0  0  0  0  0  0  0 
   -0.7350   -1.1818    0.0401 H   0  0  0  0  0  0  0  0  0  0  0  0 
   -0.8364    0.8735   -1.1211 H   0  0  0  0  0  0  0  0  0  0  0  0 
    0.5566    1.8824   -0.9822 H   0  0  0  0  0  0  0  0  0  0  0  0 
    3.1276    3.0825   -0.8832 H   0  0  0  0  0  0  0  0  0  0  0  0 
    4.5784    2.2471    0.6498 H   0  0  0  0  0  0  0  0  0  0  0  0 
    3.9511    1.1506    1.7522 H   0  0  0  0  0  0  0  0  0  0  0  0 
    2.3626   -0.3472    0.9433 H   0  0  0  0  0  0  0  0  0  0  0  0 
  1  3  1  0  0  0  0 
  1  7  1  0  0  0  0 
  2  7  1  0  0  0  0 
  2  6  2  0  0  0  0 
  4  1  2  0  0  0  0 
  5  2  1  0  0  0  0 
  6 13  1  0  0  0  0 
  7 14  1  0  0  0  0 
  8  3  1  0  0  0  0 
  9  4  1  0  0  0  0 
 10  4  1  0  0  0  0 
 11  5  1  0  0  0  0 
 12  6  1  0  0  0  0 
M  RAD  2   3   2   5   2 
M  END 
>  <HBA> 
5 
 
>  <HBD> 
4 
 
>  <TPSA> 
114.27 
 
>  <cid> 
5939 
 
>  <dipole> 
3.07 
 
>  <excitation_energy_1> 
5.057 
 
>  <excitation_energy_2> 
5.6 
 
>  <excitation_energy_3> 
5.854 
 
>  <excitation_energy_4> 
5.936 
 
>  <homo_energy> 
-5.812 
 
>  <homo_lumo_gap> 
6.555 
 
>  <logP> 
0.354 
 
>  <lumo_energy> 
0.743 
 
>  <melting_point> 
188.0 
 
>  <molecular_refractivity> 
27.13 
 
>  <oscillator_strength_1> 
0.002 
 
>  <oscillator_strength_2> 
0.0026 
 
>  <oscillator_strength_3> 
0.0023 
 
>  <oscillator_strength_4> 
0.2002 
 
>  <open_babel_can_smiles> 
[NH]C(=[NH2])NC(=[NH2])[NH] 
 
>  <mulliken_charges> 
14 
1   0.610909 
2   0.657607 
3   -0.665196 
4   -0.763495 
5   -0.683853 
6   -0.75693 
7   -0.642635 
8   0.268749 
9   0.317617 
10   0.376219 
11   0.278608 
12   0.326746 
13   0.33053 
14   0.345125 
 
>  <lowdin_charges> 
14 
1   0.142732 
2   0.146715 
3   -0.4889 
4   -0.50181 
5   -0.48718 
6   -0.498183 
7   -0.259819 
8   0.247303 
9   0.278854 
10   0.302427 
11   0.255992 
12   0.280683 
13   0.281664 
14   0.299523 
 
$$$$ 
 
