PCCDB-ID:  2568 
public computational chemistry database (PCCDB) project, http://pccdb.org 
 
 18 18  0  0  0  0  0  0  0  0999 V2000 
    0.2635    0.8175    0.5210 C   0  0  0  0  0  0  0  0  0  0  0  0 
   -1.0182    0.2635   -0.1489 C   0  0  0  0  0  0  0  0  0  0  0  0 
    1.0638   -0.3387   -0.1317 C   0  0  0  0  0  0  0  0  0  0  0  0 
   -0.7048   -2.1345    0.6147 C   0  0  0  0  0  0  0  0  0  0  0  0 
   -0.4141   -1.5905   -1.8808 C   0  0  0  0  0  0  0  0  0  0  0  0 
   -0.2577   -1.1076   -0.4181 C   0  0  0  0  0  0  0  0  0  0  0  0 
   -1.6677   -2.8620    0.4415 O   0  0  0  0  0  0  0  0  0  0  0  0 
   -0.0559   -2.1899    1.7899 O   0  0  0  0  0  0  0  0  0  0  0  0 
    0.2965   -1.1491   -2.7551 O   0  0  0  0  0  0  0  0  0  0  0  0 
   -1.4174   -2.4323   -2.1386 O   0  0  0  0  0  0  0  0  0  0  0  0 
    0.2159    0.7511    1.6134 H   0  0  0  0  0  0  0  0  0  0  0  0 
    0.5608    1.8343    0.2528 H   0  0  0  0  0  0  0  0  0  0  0  0 
   -1.2420    0.7574   -1.0977 H   0  0  0  0  0  0  0  0  0  0  0  0 
   -1.9314    0.2015    0.4488 H   0  0  0  0  0  0  0  0  0  0  0  0 
    1.8481   -0.8435    0.4486 H   0  0  0  0  0  0  0  0  0  0  0  0 
    1.5020   -0.0506   -1.0886 H   0  0  0  0  0  0  0  0  0  0  0  0 
    0.7082   -1.5905    1.7854 H   0  0  0  0  0  0  0  0  0  0  0  0 
   -1.8187   -2.7255   -1.2824 H   0  0  0  0  0  0  0  0  0  0  0  0 
  1 11  1  0  0  0  0 
  2 14  1  0  0  0  0 
  2  1  1  0  0  0  0 
  3 15  1  0  0  0  0 
  3  1  1  0  0  0  0 
  4  8  1  0  0  0  0 
  5  6  1  0  0  0  0 
  6  2  1  0  0  0  0 
  6  3  1  0  0  0  0 
  6  4  1  0  0  0  0 
  7  4  2  0  0  0  0 
  9  5  2  0  0  0  0 
 10  5  1  0  0  0  0 
 10 18  1  0  0  0  0 
 12  1  1  0  0  0  0 
 13  2  1  0  0  0  0 
 16  3  1  0  0  0  0 
 17  8  1  0  0  0  0 
M  END 
>  <HBA> 
4 
 
>  <HBD> 
2 
 
>  <TPSA> 
74.6 
 
>  <cid> 
2568 
 
>  <dipole> 
4.83 
 
>  <excitation_energy_1> 
5.436 
 
>  <excitation_energy_2> 
5.66 
 
>  <excitation_energy_3> 
6.035 
 
>  <excitation_energy_4> 
6.586 
 
>  <homo_energy> 
-7.464 
 
>  <homo_lumo_gap> 
6.626 
 
>  <logP> 
0.326 
 
>  <lumo_energy> 
-0.838 
 
>  <melting_point> 
169.02 
 
>  <molecular_refractivity> 
32.13 
 
>  <oscillator_strength_1> 
0.0043 
 
>  <oscillator_strength_2> 
0.0009 
 
>  <oscillator_strength_3> 
0.0135 
 
>  <oscillator_strength_4> 
0.0075 
 
>  <open_babel_can_smiles> 
OC(=O)C1(CCC1)C(=O)O 
 
>  <mulliken_charges> 
18 
1   -0.287177 
2   -0.27707 
3   -0.336806 
4   0.610489 
5   0.602479 
6   -0.144724 
7   -0.478012 
8   -0.55398 
9   -0.458287 
10   -0.578403 
11   0.1462 
12   0.165914 
13   0.186181 
14   0.174668 
15   0.141254 
16   0.210048 
17   0.431611 
18   0.445614 
 
>  <lowdin_charges> 
18 
1   -0.281719 
2   -0.257796 
3   -0.294746 
4   0.206084 
5   0.190017 
6   -0.078387 
7   -0.261293 
8   -0.323439 
9   -0.254796 
10   -0.346566 
11   0.144393 
12   0.157687 
13   0.171872 
14   0.161571 
15   0.142283 
16   0.188974 
17   0.368418 
18   0.367441 
 
$$$$ 
 
