PCCDB-ID:  1472 
public computational chemistry database (PCCDB) project, http://pccdb.org 
 
 24 24  0  0  1  0  0  0  0  0999 V2000 
    1.6158    0.3294    0.0294 C   0  0  0  0  0  0  0  0  0  0  0  0 
   -0.6257    3.0651    3.0052 C   0  0  0  0  0  0  0  0  0  0  0  0 
    0.5922    1.1827    0.7645 C   0  0  2  0  0  0  0  0  0  0  0  0 
    0.6518    3.1254    2.1541 C   0  0  2  0  0  0  0  0  0  0  0  0 
    0.0167    2.3564   -0.0730 C   0  0  2  0  0  0  0  0  0  0  0  0 
    0.4483    3.6206    0.7053 C   0  0  1  0  0  0  0  0  0  0  0  0 
    1.1878    1.7572    2.0007 N   0  0  0  0  0  0  0  0  0  0  0  0 
    2.7381    1.1611   -0.2731 O   0  0  0  0  0  0  0  0  0  0  0  0 
   -0.3411    2.4309    4.2393 O   0  0  0  0  0  0  0  0  0  0  0  0 
   -1.3977    2.2298   -0.1260 O   0  0  0  0  0  0  0  0  0  0  0  0 
   -0.5481    4.6225    0.5124 O   0  0  0  0  0  0  0  0  0  0  0  0 
    1.1599   -0.0762   -0.8856 H   0  0  0  0  0  0  0  0  0  0  0  0 
    1.9157   -0.5156    0.6674 H   0  0  0  0  0  0  0  0  0  0  0  0 
   -1.4206    2.5451    2.4502 H   0  0  0  0  0  0  0  0  0  0  0  0 
   -0.9861    4.0746    3.2285 H   0  0  0  0  0  0  0  0  0  0  0  0 
   -0.2549    0.5380    1.0266 H   0  0  0  0  0  0  0  0  0  0  0  0 
    1.3896    3.7259    2.7007 H   0  0  0  0  0  0  0  0  0  0  0  0 
    0.4327    2.3710   -1.0904 H   0  0  0  0  0  0  0  0  0  0  0  0 
    1.4158    3.9572    0.3064 H   0  0  0  0  0  0  0  0  0  0  0  0 
    2.1945    1.8145    1.8563 H   0  0  0  0  0  0  0  0  0  0  0  0 
    3.4169    0.6151   -0.6966 H   0  0  0  0  0  0  0  0  0  0  0  0 
    0.2154    1.6690    3.9872 H   0  0  0  0  0  0  0  0  0  0  0  0 
   -1.7464    3.1330   -0.2262 H   0  0  0  0  0  0  0  0  0  0  0  0 
   -0.2404    5.4516    0.9063 H   0  0  0  0  0  0  0  0  0  0  0  0 
  1 13  1  0  0  0  0 
  1  3  1  0  0  0  0 
  2 15  1  0  0  0  0 
  2  9  1  0  0  0  0 
  3 16  1  1  0  0  0 
  3  7  1  0  0  0  0 
  4 17  1  1  0  0  0 
  4  2  1  0  0  0  0 
  5 18  1  6  0  0  0 
  5  6  1  0  0  0  0 
  5  3  1  0  0  0  0 
  6 19  1  6  0  0  0 
  6  4  1  0  0  0  0 
  7  4  1  0  0  0  0 
  8  1  1  0  0  0  0 
 10  5  1  0  0  0  0 
 11  6  1  0  0  0  0 
 11 24  1  0  0  0  0 
 12  1  1  0  0  0  0 
 14  2  1  0  0  0  0 
 20  7  1  0  0  0  0 
 21  8  1  0  0  0  0 
 22  9  1  0  0  0  0 
 23 10  1  0  0  0  0 
M  END 
>  <HBA> 
5 
 
>  <HBD> 
5 
 
>  <TPSA> 
92.95 
 
>  <cid> 
1472 
 
>  <dipole> 
4.41 
 
>  <excitation_energy_1> 
5.418 
 
>  <excitation_energy_2> 
5.567 
 
>  <excitation_energy_3> 
6.056 
 
>  <excitation_energy_4> 
6.091 
 
>  <homo_energy> 
-6.248 
 
>  <homo_lumo_gap> 
7.538 
 
>  <logP> 
-2.638 
 
>  <lumo_energy> 
1.29 
 
>  <melting_point> 
97.67 
 
>  <molecular_refractivity> 
40.21 
 
>  <oscillator_strength_1> 
0.0022 
 
>  <oscillator_strength_2> 
0.0127 
 
>  <oscillator_strength_3> 
0.0019 
 
>  <oscillator_strength_4> 
0.001 
 
>  <open_babel_can_smiles> 
OC[C@H]1N[C@@H]([C@H]([C@H]1O)O)CO 
 
>  <mulliken_charges> 
24 
1   -0.080484 
2   -0.002949 
3   0.034809 
4   -0.067848 
5   0.11029 
6   0.119162 
7   -0.600997 
8   -0.627656 
9   -0.636697 
10   -0.648082 
11   -0.651226 
12   0.142884 
13   0.13831 
14   0.139415 
15   0.125918 
16   0.165559 
17   0.13044 
18   0.13319 
19   0.131729 
20   0.321671 
21   0.40192 
22   0.398631 
23   0.416178 
24   0.405835 
 
>  <lowdin_charges> 
24 
1   -0.144372 
2   -0.14859 
3   -0.082441 
4   -0.112458 
5   -0.01993 
6   -0.038111 
7   -0.36285 
8   -0.480814 
9   -0.477688 
10   -0.46406 
11   -0.46313 
12   0.141562 
13   0.137743 
14   0.13843 
15   0.139158 
16   0.161084 
17   0.143378 
18   0.136074 
19   0.139042 
20   0.261738 
21   0.352406 
22   0.338975 
23   0.349407 
24   0.355446 
 
$$$$ 
 
