PCCDB-ID:  4977 
public computational chemistry database (PCCDB) project, http://pccdb.org 
 
 31 32  0  0  1  0  0  0  0  0999 V2000 
    3.5847   -2.5229    0.8708 C   0  0  0  0  0  0  0  0  0  0  0  0 
    1.1748    2.9846    6.6256 C   0  0  0  0  0  0  0  0  0  0  0  0 
   -0.4571   -1.6048    6.5241 C   0  0  0  0  0  0  0  0  0  0  0  0 
    2.3729   -0.4986    1.7484 C   0  0  0  0  0  0  0  0  0  0  0  0 
    2.6418    1.7624    2.8421 C   0  0  0  0  0  0  0  0  0  0  0  0 
    3.5294   -1.4877    1.9999 C   0  0  1  0  0  0  0  0  0  0  0  0 
    1.5324    0.2964    4.0259 C   0  0  0  0  0  0  0  0  0  0  0  0 
    1.6327    1.5114    4.6796 C   0  0  0  0  0  0  0  0  0  0  0  0 
    0.8483   -0.8338    4.5724 C   0  0  0  0  0  0  0  0  0  0  0  0 
    0.3670    0.6772    6.5300 C   0  0  0  0  0  0  0  0  0  0  0  0 
    2.3241    2.4253    3.9499 N   0  0  0  0  0  0  0  0  0  0  0  0 
    1.0658    1.7098    5.9163 N   0  0  0  0  0  0  0  0  0  0  0  0 
    0.2811   -0.5441    5.8286 N   0  0  0  0  0  0  0  0  0  0  0  0 
    2.1948    0.4826    2.8181 N   0  0  0  0  0  0  0  0  0  0  0  0 
    3.4426   -2.0947    3.2721 O   0  0  0  0  0  0  0  0  0  0  0  0 
    0.7370   -1.9503    4.0472 O   0  0  0  0  0  0  0  0  0  0  0  0 
   -0.1511    0.8177    7.6278 O   0  0  0  0  0  0  0  0  0  0  0  0 
    3.7374   -2.0537   -0.1093 H   0  0  0  0  0  0  0  0  0  0  0  0 
    2.6551   -3.1041    0.8335 H   0  0  0  0  0  0  0  0  0  0  0  0 
    4.4098   -3.2169    1.0546 H   0  0  0  0  0  0  0  0  0  0  0  0 
    1.7150    3.6770    5.9810 H   0  0  0  0  0  0  0  0  0  0  0  0 
    1.7128    2.8464    7.5670 H   0  0  0  0  0  0  0  0  0  0  0  0 
    0.1777    3.3711    6.8496 H   0  0  0  0  0  0  0  0  0  0  0  0 
   -0.4800   -2.4713    5.8670 H   0  0  0  0  0  0  0  0  0  0  0  0 
   -1.4691   -1.2620    6.7497 H   0  0  0  0  0  0  0  0  0  0  0  0 
    0.0425   -1.8500    7.4644 H   0  0  0  0  0  0  0  0  0  0  0  0 
    1.4316   -1.0461    1.6467 H   0  0  0  0  0  0  0  0  0  0  0  0 
    2.5461    0.0549    0.8203 H   0  0  0  0  0  0  0  0  0  0  0  0 
    3.1938    2.1856    2.0130 H   0  0  0  0  0  0  0  0  0  0  0  0 
    4.4690   -0.9194    2.0119 H   0  0  0  0  0  0  0  0  0  0  0  0 
    2.5150   -2.3674    3.4261 H   0  0  0  0  0  0  0  0  0  0  0  0 
  1 20  1  0  0  0  0 
  1  6  1  0  0  0  0 
  2 23  1  0  0  0  0 
  2 22  1  0  0  0  0 
  3 25  1  0  0  0  0 
  3 26  1  0  0  0  0 
  4  6  1  0  0  0  0 
  4 14  1  0  0  0  0 
  5 11  2  0  0  0  0 
  6 30  1  6  0  0  0 
  6 15  1  0  0  0  0 
  7  9  1  0  0  0  0 
  7  8  2  0  0  0  0 
  8 12  1  0  0  0  0 
  9 13  1  0  0  0  0 
 10 17  2  0  0  0  0 
 11  8  1  0  0  0  0 
 12 10  1  0  0  0  0 
 12  2  1  0  0  0  0 
 13  3  1  0  0  0  0 
 13 10  1  0  0  0  0 
 14  5  1  0  0  0  0 
 14  7  1  0  0  0  0 
 15 31  1  0  0  0  0 
 16  9  2  0  0  0  0 
 18  1  1  0  0  0  0 
 19  1  1  0  0  0  0 
 21  2  1  0  0  0  0 
 24  3  1  0  0  0  0 
 27  4  1  0  0  0  0 
 28  4  1  0  0  0  0 
 29  5  1  0  0  0  0 
M  END 
>  <HBA> 
7 
 
>  <HBD> 
1 
 
>  <TPSA> 
82.05 
 
>  <cid> 
4977 
 
>  <dipole> 
3.75 
 
>  <excitation_energy_1> 
4.503 
 
>  <excitation_energy_2> 
5.017 
 
>  <excitation_energy_3> 
5.442 
 
>  <excitation_energy_4> 
5.453 
 
>  <homo_energy> 
-6.071 
 
>  <homo_lumo_gap> 
5.021 
 
>  <logP> 
-1.185 
 
>  <lumo_energy> 
-1.05 
 
>  <melting_point> 
160.83 
 
>  <molecular_refractivity> 
62.81 
 
>  <oscillator_strength_1> 
0.1364 
 
>  <oscillator_strength_2> 
0.0008 
 
>  <oscillator_strength_3> 
0.0047 
 
>  <oscillator_strength_4> 
0.0062 
 
>  <open_babel_can_smiles> 
C[C@@H](Cn1cnc2c1c(=O)n(C)c(=O)n2C)O 
 
>  <mulliken_charges> 
31 
1   -0.456961 
2   -0.323047 
3   -0.315958 
4   -0.198314 
5   0.225967 
6   0.157646 
7   0.236524 
8   0.477025 
9   0.661847 
10   0.788218 
11   -0.514027 
12   -0.58895 
13   -0.574588 
14   -0.484567 
15   -0.64636 
16   -0.578196 
17   -0.523457 
18   0.135296 
19   0.149617 
20   0.169007 
21   0.20002 
22   0.183565 
23   0.183863 
24   0.19961 
25   0.181117 
26   0.181417 
27   0.187484 
28   0.159625 
29   0.171652 
30   0.134096 
31   0.42083 
 
>  <lowdin_charges> 
31 
1   -0.461187 
2   -0.342611 
3   -0.349132 
4   -0.216345 
5   -0.055247 
6   -0.001789 
7   -0.076317 
8   0.070357 
9   0.169399 
10   0.186054 
11   -0.203261 
12   -0.051192 
13   -0.079961 
14   0.016871 
15   -0.470023 
16   -0.337096 
17   -0.304034 
18   0.148314 
19   0.152864 
20   0.166778 
21   0.183154 
22   0.169068 
23   0.169604 
24   0.182716 
25   0.168008 
26   0.168336 
27   0.172107 
28   0.162411 
29   0.176129 
30   0.139965 
31   0.346061 
 
$$$$ 
 
