PCCDB-ID:  5374 
public computational chemistry database (PCCDB) project, http://pccdb.org 
 
 29 30  0  0  0  0  0  0  0  0999 V2000 
    4.3351    4.3355    1.4618 C   0  0  0  0  0  0  0  0  0  0  0  0 
    4.5927    3.0291    1.3918 C   0  0  0  0  0  0  0  0  0  0  0  0 
    4.0182   -0.9951   -1.4967 C   0  0  0  0  0  0  0  0  0  0  0  0 
    3.6202    2.0180   -2.4937 C   0  0  0  0  0  0  0  0  0  0  0  0 
    3.6531    1.9978    0.8265 C   0  0  0  0  0  0  0  0  0  0  0  0 
    3.5229   -0.0939   -0.3576 C   0  0  0  0  0  0  0  0  0  0  0  0 
    4.6940    1.8416   -1.3926 C   0  0  0  0  0  0  0  0  0  0  0  0 
    3.6020   -0.5171   -2.8642 C   0  0  0  0  0  0  0  0  0  0  0  0 
    3.3906    0.7517   -3.2708 C   0  0  0  0  0  0  0  0  0  0  0  0 
    2.9510   -0.9927   -5.1075 C   0  0  0  0  0  0  0  0  0  0  0  0 
    2.6582   -1.6089   -6.1866 N   0  0  0  0  0  0  0  0  0  0  0  0 
    3.3675   -1.4654   -3.8683 N   0  0  0  0  0  0  0  0  0  0  0  0 
    4.2956    1.1350   -0.1703 N   0  0  0  0  0  0  0  0  0  0  0  0 
    2.8670    0.7944   -4.9726 S   0  0  0  0  0  0  0  0  0  0  0  0 
    5.0354    5.0349    1.9105 H   0  0  0  0  0  0  0  0  0  0  0  0 
    3.4066    4.7558    1.0795 H   0  0  0  0  0  0  0  0  0  0  0  0 
    5.5348    2.6359    1.7741 H   0  0  0  0  0  0  0  0  0  0  0  0 
    3.5849   -1.9915   -1.3347 H   0  0  0  0  0  0  0  0  0  0  0  0 
    5.1080   -1.1211   -1.4266 H   0  0  0  0  0  0  0  0  0  0  0  0 
    3.9699    2.7975   -3.1836 H   0  0  0  0  0  0  0  0  0  0  0  0 
    2.6835    2.4008   -2.0615 H   0  0  0  0  0  0  0  0  0  0  0  0 
    2.7380    2.4910    0.4438 H   0  0  0  0  0  0  0  0  0  0  0  0 
    3.3252    1.3408    1.6453 H   0  0  0  0  0  0  0  0  0  0  0  0 
    3.5799   -0.6588    0.5822 H   0  0  0  0  0  0  0  0  0  0  0  0 
    2.4500    0.1117   -0.5358 H   0  0  0  0  0  0  0  0  0  0  0  0 
    5.0536    2.8269   -1.0822 H   0  0  0  0  0  0  0  0  0  0  0  0 
    5.5520    1.3238   -1.8382 H   0  0  0  0  0  0  0  0  0  0  0  0 
    2.7600   -2.6216   -6.0813 H   0  0  0  0  0  0  0  0  0  0  0  0 
    3.4589   -2.4585   -3.7056 H   0  0  0  0  0  0  0  0  0  0  0  0 
  1 15  1  0  0  0  0 
  2  1  2  0  0  0  0 
  2 17  1  0  0  0  0 
  3 19  1  0  0  0  0 
  3 18  1  0  0  0  0 
  3  6  1  0  0  0  0 
  4 21  1  0  0  0  0 
  4  7  1  0  0  0  0 
  5  2  1  0  0  0  0 
  5 23  1  0  0  0  0 
  6 13  1  0  0  0  0 
  6 24  1  0  0  0  0 
  7 26  1  0  0  0  0 
  7 13  1  0  0  0  0 
  8  3  1  0  0  0  0 
  9  8  2  0  0  0  0 
  9  4  1  0  0  0  0 
 10 14  1  0  0  0  0 
 10 12  1  0  0  0  0 
 11 28  1  0  0  0  0 
 11 10  2  0  0  0  0 
 12 29  1  0  0  0  0 
 12  8  1  0  0  0  0 
 13  5  1  0  0  0  0 
 14  9  1  0  0  0  0 
 16  1  1  0  0  0  0 
 20  4  1  0  0  0  0 
 22  5  1  0  0  0  0 
 25  6  1  0  0  0  0 
 27  7  1  0  0  0  0 
M  END 
>  <HBA> 
4 
 
>  <HBD> 
1 
 
>  <TPSA> 
70.39 
 
>  <cid> 
5374 
 
>  <dipole> 
4.79 
 
>  <excitation_energy_1> 
3.973 
 
>  <excitation_energy_2> 
4.363 
 
>  <excitation_energy_3> 
4.562 
 
>  <excitation_energy_4> 
4.658 
 
>  <homo_energy> 
-5.023 
 
>  <homo_lumo_gap> 
5.298 
 
>  <logP> 
1.831 
 
>  <lumo_energy> 
0.275 
 
>  <melting_point> 
78.18 
 
>  <molecular_refractivity> 
64.71 
 
>  <oscillator_strength_1> 
0.001 
 
>  <oscillator_strength_2> 
0.0012 
 
>  <oscillator_strength_3> 
0.0003 
 
>  <oscillator_strength_4> 
0.0344 
 
>  <open_babel_can_smiles> 
C=CCN1CCc2c(CC1)sc(=N)[nH]2 
 
>  <mulliken_charges> 
29 
1   -0.33942 
2   -0.04747 
3   -0.3692 
4   -0.326585 
5   -0.168782 
6   -0.110836 
7   -0.153148 
8   0.400702 
9   -0.211922 
10   0.31842 
11   -0.641043 
12   -0.666814 
13   -0.391861 
14   0.208082 
15   0.145302 
16   0.139978 
17   0.137627 
18   0.146323 
19   0.17478 
20   0.157003 
21   0.159722 
22   0.122263 
23   0.149329 
24   0.141879 
25   0.126785 
26   0.156495 
27   0.150035 
28   0.269996 
29   0.32236 
 
>  <lowdin_charges> 
29 
1   -0.338126 
2   -0.151331 
3   -0.277736 
4   -0.285481 
5   -0.197223 
6   -0.193076 
7   -0.209148 
8   0.008552 
9   -0.191799 
10   -0.013552 
11   -0.447557 
12   -0.249537 
13   -0.192673 
14   0.23539 
15   0.162688 
16   0.156046 
17   0.156996 
18   0.156322 
19   0.161481 
20   0.163421 
21   0.154589 
22   0.124094 
23   0.154613 
24   0.146594 
25   0.124269 
26   0.159516 
27   0.148305 
28   0.248884 
29   0.285481 
 
$$$$ 
 
