PCCDB-ID:  867 
public computational chemistry database (PCCDB) project, http://pccdb.org 
 
 11 10  0  0  0  0  0  0  0  0999 V2000 
    1.3573   -0.5815   -0.0518 C   0  0  0  0  0  0  0  0  0  0  0  0 
    0.7565   -1.3690   -1.2363 C   0  0  0  0  0  0  0  0  0  0  0  0 
    2.7487   -0.0247   -0.2517 C   0  0  0  0  0  0  0  0  0  0  0  0 
   -0.4041   -1.2634   -1.5361 O   0  0  0  0  0  0  0  0  0  0  0  0 
    1.5799   -2.2207   -1.8778 O   0  0  0  0  0  0  0  0  0  0  0  0 
    3.0763    1.1325   -0.2018 O   0  0  0  0  0  0  0  0  0  0  0  0 
    3.6500   -1.0305   -0.5015 O   0  0  0  0  0  0  0  0  0  0  0  0 
    1.3851   -1.2673    0.8061 H   0  0  0  0  0  0  0  0  0  0  0  0 
    0.6809    0.2395    0.1798 H   0  0  0  0  0  0  0  0  0  0  0  0 
    2.4878   -2.1466   -1.5243 H   0  0  0  0  0  0  0  0  0  0  0  0 
    4.5150   -0.6065   -0.6610 H   0  0  0  0  0  0  0  0  0  0  0  0 
  1  9  1  0  0  0  0 
  1  8  1  0  0  0  0 
  2  1  1  0  0  0  0 
  3  6  2  0  0  0  0 
  3  1  1  0  0  0  0 
  4  2  2  0  0  0  0 
  5 10  1  0  0  0  0 
  5  2  1  0  0  0  0 
  7  3  1  0  0  0  0 
 11  7  1  0  0  0  0 
M  END 
>  <HBA> 
4 
 
>  <HBD> 
2 
 
>  <TPSA> 
74.6 
 
>  <cid> 
867 
 
>  <dipole> 
4.25 
 
>  <excitation_energy_1> 
5.503 
 
>  <excitation_energy_2> 
5.762 
 
>  <excitation_energy_3> 
6.295 
 
>  <excitation_energy_4> 
6.625 
 
>  <homo_energy> 
-7.592 
 
>  <homo_lumo_gap> 
6.789 
 
>  <logP> 
-0.454 
 
>  <lumo_energy> 
-0.803 
 
>  <melting_point> 
129.75 
 
>  <molecular_refractivity> 
20.08 
 
>  <oscillator_strength_1> 
0.0117 
 
>  <oscillator_strength_2> 
0.0019 
 
>  <oscillator_strength_3> 
0.0345 
 
>  <oscillator_strength_4> 
0.0152 
 
>  <open_babel_can_smiles> 
OC(=O)CC(=O)O 
 
>  <mulliken_charges> 
11 
1   -0.45861 
2   0.593535 
3   0.572673 
4   -0.425878 
5   -0.569238 
6   -0.424318 
7   -0.589011 
8   0.2157 
9   0.221266 
10   0.436994 
11   0.426888 
 
>  <lowdin_charges> 
11 
1   -0.338104 
2   0.193019 
3   0.195254 
4   -0.227172 
5   -0.351694 
6   -0.225056 
7   -0.378051 
8   0.198681 
9   0.201183 
10   0.359846 
11   0.372095 
 
$$$$ 
 
