PCCDB-ID:  3913 
public computational chemistry database (PCCDB) project, http://pccdb.org 
 
 26 28  0  0  1  0  0  0  0  0999 V2000 
   -1.5316    0.4791    0.3467 C   0  0  0  0  0  0  0  0  0  0  0  0 
   -1.1080    0.0689   -0.9189 C   0  0  0  0  0  0  0  0  0  0  0  0 
   -0.5840    0.7913    1.3234 C   0  0  0  0  0  0  0  0  0  0  0  0 
    0.2537   -0.0200   -1.2113 C   0  0  0  0  0  0  0  0  0  0  0  0 
    0.7770    0.6950    1.0312 C   0  0  0  0  0  0  0  0  0  0  0  0 
    4.8417    2.0861   -2.9638 C   0  0  0  0  0  0  0  0  0  0  0  0 
    5.6729    1.1387   -3.8429 C   0  0  0  0  0  0  0  0  0  0  0  0 
    3.2668    1.6567   -0.9745 C   0  0  0  0  0  0  0  0  0  0  0  0 
    1.2099    0.2967   -0.2399 C   0  0  0  0  0  0  0  0  0  0  0  0 
    2.6909    0.2613   -0.5564 C   0  0  1  0  0  0  0  0  0  0  0  0 
    3.9375   -0.0145   -2.3376 C   0  0  2  0  0  0  0  0  0  0  0  0 
    3.0435   -0.6425   -1.6782 N   0  0  0  0  0  0  0  0  0  0  0  0 
    4.3400    1.2485   -1.8856 N   0  0  1  0  0  0  0  0  0  0  0  0 
    4.7610   -0.4748   -3.8367 S   0  0  0  0  0  0  0  0  0  0  0  0 
   -2.5924    0.5466    0.5736 H   0  0  0  0  0  0  0  0  0  0  0  0 
   -1.8400   -0.1874   -1.6806 H   0  0  0  0  0  0  0  0  0  0  0  0 
   -0.9035    1.1010    2.3152 H   0  0  0  0  0  0  0  0  0  0  0  0 
    0.5900   -0.3561   -2.1871 H   0  0  0  0  0  0  0  0  0  0  0  0 
    1.5111    0.9266    1.8009 H   0  0  0  0  0  0  0  0  0  0  0  0 
    4.0163    2.5325   -3.5453 H   0  0  0  0  0  0  0  0  0  0  0  0 
    5.4637    2.8978   -2.5715 H   0  0  0  0  0  0  0  0  0  0  0  0 
    6.6706    0.9842   -3.4242 H   0  0  0  0  0  0  0  0  0  0  0  0 
    5.7637    1.4982   -4.8696 H   0  0  0  0  0  0  0  0  0  0  0  0 
    3.6443    2.2384   -0.1290 H   0  0  0  0  0  0  0  0  0  0  0  0 
    2.5053    2.2519   -1.5052 H   0  0  0  0  0  0  0  0  0  0  0  0 
    3.2318   -0.0857    0.3370 H   0  0  0  0  0  0  0  0  0  0  0  0 
  1 15  1  0  0  0  0 
  1  3  2  0  0  0  0 
  2  1  1  0  0  0  0 
  3 17  1  0  0  0  0 
  4  2  2  0  0  0  0 
  4  9  1  0  0  0  0 
  5  3  1  0  0  0  0 
  5 19  1  0  0  0  0 
  6 21  1  0  0  0  0 
  7 14  1  0  0  0  0 
  7 22  1  0  0  0  0 
  7  6  1  0  0  0  0 
  8 10  1  0  0  0  0 
  8 24  1  0  0  0  0 
  9  5  2  0  0  0  0 
 10  9  1  0  0  0  0 
 10 26  1  1  0  0  0 
 11 14  1  6  0  0  0 
 11 13  1  0  0  0  0 
 11 12  1  0  0  0  0 
 12 10  1  0  0  0  0 
 13  6  1  6  0  0  0 
 13  8  1  0  0  0  0 
 16  2  1  0  0  0  0 
 18  4  1  0  0  0  0 
 20  6  1  0  0  0  0 
 23  7  1  0  0  0  0 
 25  8  1  0  0  0  0 
M  RAD  2  11   2  12   2 
M  END 
>  <HBA> 
3 
 
>  <HBD> 
0 
 
>  <TPSA> 
40.9 
 
>  <cid> 
3913 
 
>  <dipole> 
4.11 
 
>  <excitation_energy_1> 
5.006 
 
>  <excitation_energy_2> 
5.214 
 
>  <excitation_energy_3> 
5.22 
 
>  <excitation_energy_4> 
5.383 
 
>  <homo_energy> 
-5.987 
 
>  <homo_lumo_gap> 
6.09 
 
>  <logP> 
1.52 
 
>  <lumo_energy> 
0.103 
 
>  <melting_point> 
79.12 
 
>  <molecular_refractivity> 
67.82 
 
>  <oscillator_strength_1> 
0.0017 
 
>  <oscillator_strength_2> 
0.0057 
 
>  <oscillator_strength_3> 
0.0017 
 
>  <oscillator_strength_4> 
0.0064 
 
>  <open_babel_can_smiles> 
C1S[C]2N(C1)C[C@H]([N]2)c1ccccc1 
 
>  <mulliken_charges> 
26 
1   -0.128 
2   -0.133307 
3   -0.131345 
4   -0.172528 
5   -0.18193 
6   -0.123175 
7   -0.441729 
8   -0.137985 
9   0.155962 
10   -0.079872 
11   0.297655 
12   -0.472571 
13   -0.415798 
14   0.168069 
15   0.12627 
16   0.128395 
17   0.12657 
18   0.148628 
19   0.118788 
20   0.149758 
21   0.163741 
22   0.196714 
23   0.186657 
24   0.155018 
25   0.144284 
26   0.151732 
 
>  <lowdin_charges> 
26 
1   -0.158566 
2   -0.156288 
3   -0.156116 
4   -0.157751 
5   -0.170799 
6   -0.197529 
7   -0.367636 
8   -0.208291 
9   -0.008711 
10   -0.056015 
11   -0.030193 
12   -0.238396 
13   -0.150461 
14   0.181227 
15   0.1546 
16   0.157926 
17   0.155549 
18   0.167877 
19   0.153195 
20   0.13976 
21   0.158439 
22   0.168363 
23   0.172614 
24   0.155119 
25   0.14079 
26   0.151291 
 
$$$$ 
 
