PCCDB-ID:  6058 
public computational chemistry database (PCCDB) project, http://pccdb.org 
 
 11 10  0  0  0  0  0  0  0  0999 V2000 
    1.0828   -0.0020    0.0910 C   0  0  0  0  0  0  0  0  0  0  0  0 
    0.5485    0.2411   -1.3212 C   0  0  0  0  0  0  0  0  0  0  0  0 
    2.5494    0.0166    0.0690 N   0  0  0  0  0  0  0  0  0  0  0  0 
   -1.2860    0.3582   -1.4145 S   0  0  0  0  0  0  0  0  0  0  0  0 
    0.6451   -0.9357    0.4891 H   0  0  0  0  0  0  0  0  0  0  0  0 
    0.7396    0.8085    0.7424 H   0  0  0  0  0  0  0  0  0  0  0  0 
    0.8957   -0.5343   -2.0130 H   0  0  0  0  0  0  0  0  0  0  0  0 
    0.9212    1.1991   -1.6941 H   0  0  0  0  0  0  0  0  0  0  0  0 
    2.9020   -0.8339   -0.3682 H   0  0  0  0  0  0  0  0  0  0  0  0 
    2.9093    0.0143    1.0216 H   0  0  0  0  0  0  0  0  0  0  0  0 
   -1.5493   -0.9116   -1.0340 H   0  0  0  0  0  0  0  0  0  0  0  0 
  1  5  1  0  0  0  0 
  1  6  1  0  0  0  0 
  2  1  1  0  0  0  0 
  3  1  1  0  0  0  0 
  3 10  1  0  0  0  0 
  4  2  1  0  0  0  0 
  4 11  1  0  0  0  0 
  7  2  1  0  0  0  0 
  8  2  1  0  0  0  0 
  9  3  1  0  0  0  0 
M  END 
>  <HBA> 
2 
 
>  <HBD> 
2 
 
>  <TPSA> 
64.82 
 
>  <cid> 
6058 
 
>  <dipole> 
2.7 
 
>  <excitation_energy_1> 
5.208 
 
>  <excitation_energy_2> 
5.606 
 
>  <excitation_energy_3> 
5.826 
 
>  <excitation_energy_4> 
6.199 
 
>  <homo_energy> 
-6.373 
 
>  <homo_lumo_gap> 
7.116 
 
>  <logP> 
0.575 
 
>  <lumo_energy> 
0.743 
 
>  <melting_point> 
50.6 
 
>  <molecular_refractivity> 
22.36 
 
>  <oscillator_strength_1> 
0.0053 
 
>  <oscillator_strength_2> 
0.0226 
 
>  <oscillator_strength_3> 
0.0303 
 
>  <oscillator_strength_4> 
0.0037 
 
>  <open_babel_can_smiles> 
NCCS 
 
>  <mulliken_charges> 
11 
1   -0.127532 
2   -0.401391 
3   -0.715453 
4   -0.083998 
5   0.116916 
6   0.161057 
7   0.168999 
8   0.193914 
9   0.295047 
10   0.302696 
11   0.089745 
 
>  <lowdin_charges> 
11 
1   -0.210651 
2   -0.376587 
3   -0.557099 
4   -0.083585 
5   0.120258 
6   0.154793 
7   0.156868 
8   0.176117 
9   0.253168 
10   0.257974 
11   0.108744 
 
$$$$ 
 
