PCCDB-ID:  5852 
public computational chemistry database (PCCDB) project, http://pccdb.org 
 
 20 19  0  0  1  0  0  0  0  0999 V2000 
    5.2596    0.9279    1.6141 C   0  0  0  0  0  0  0  0  0  0  0  0 
    5.0941   -1.3295    2.7324 C   0  0  0  0  0  0  0  0  0  0  0  0 
    3.0879   -0.4632    1.4278 C   0  0  1  0  0  0  0  0  0  0  0  0 
    2.6027    0.3082    0.1848 C   0  0  0  0  0  0  0  0  0  0  0  0 
    4.6655   -0.4820    1.5217 C   0  0  0  0  0  0  0  0  0  0  0  0 
    2.3925    0.1244    2.5595 N   0  0  0  0  0  0  0  0  0  0  0  0 
    2.2846    1.4734    0.2262 O   0  0  0  0  0  0  0  0  0  0  0  0 
    2.5600   -0.3765   -0.9768 O   0  0  0  0  0  0  0  0  0  0  0  0 
    5.3837   -1.3985    0.0460 S   0  0  0  0  0  0  0  0  0  0  0  0 
    5.0008    1.5421    0.7463 H   0  0  0  0  0  0  0  0  0  0  0  0 
    4.8668    1.4350    2.5031 H   0  0  0  0  0  0  0  0  0  0  0  0 
    6.3491    0.8832    1.7004 H   0  0  0  0  0  0  0  0  0  0  0  0 
    6.1845   -1.3962    2.7866 H   0  0  0  0  0  0  0  0  0  0  0  0 
    4.6895   -2.3467    2.6792 H   0  0  0  0  0  0  0  0  0  0  0  0 
    4.7457   -0.8738    3.6662 H   0  0  0  0  0  0  0  0  0  0  0  0 
    2.7768   -1.5129    1.3285 H   0  0  0  0  0  0  0  0  0  0  0  0 
    2.8123   -0.1231    3.4494 H   0  0  0  0  0  0  0  0  0  0  0  0 
    2.3636    1.1361    2.4591 H   0  0  0  0  0  0  0  0  0  0  0  0 
    2.9669   -1.2550   -0.8491 H   0  0  0  0  0  0  0  0  0  0  0  0 
    5.3881   -0.3635   -0.8206 H   0  0  0  0  0  0  0  0  0  0  0  0 
  1 12  1  0  0  0  0 
  1 11  1  0  0  0  0 
  2 13  1  0  0  0  0 
  2 15  1  0  0  0  0 
  3 16  1  6  0  0  0 
  3  5  1  0  0  0  0 
  3  6  1  0  0  0  0 
  4  7  2  0  0  0  0 
  4  3  1  0  0  0  0 
  5  1  1  0  0  0  0 
  5  2  1  0  0  0  0 
  6 17  1  0  0  0  0 
  8 19  1  0  0  0  0 
  8  4  1  0  0  0  0 
  9  5  1  0  0  0  0 
 10  1  1  0  0  0  0 
 14  2  1  0  0  0  0 
 18  6  1  0  0  0  0 
 20  9  1  0  0  0  0 
M  END 
>  <HBA> 
4 
 
>  <HBD> 
3 
 
>  <TPSA> 
102.12 
 
>  <cid> 
5852 
 
>  <dipole> 
3.64 
 
>  <excitation_energy_1> 
5.361 
 
>  <excitation_energy_2> 
5.449 
 
>  <excitation_energy_3> 
5.692 
 
>  <excitation_energy_4> 
5.783 
 
>  <homo_energy> 
-6.58 
 
>  <homo_lumo_gap> 
6.544 
 
>  <logP> 
0.807 
 
>  <lumo_energy> 
-0.035 
 
>  <melting_point> 
136.79 
 
>  <molecular_refractivity> 
38.6 
 
>  <oscillator_strength_1> 
0.0096 
 
>  <oscillator_strength_2> 
0.0056 
 
>  <oscillator_strength_3> 
0.0006 
 
>  <oscillator_strength_4> 
0.0019 
 
>  <open_babel_can_smiles> 
N[C@H](C(S)(C)C)C(=O)O 
 
>  <mulliken_charges> 
20 
1   -0.451719 
2   -0.456813 
3   -0.047668 
4   0.6085 
5   -0.088194 
6   -0.724939 
7   -0.454953 
8   -0.568305 
9   -0.124572 
10   0.173708 
11   0.151841 
12   0.167066 
13   0.177103 
14   0.164091 
15   0.150606 
16   0.147827 
17   0.304389 
18   0.330375 
19   0.423093 
20   0.118563 
 
>  <lowdin_charges> 
20 
1   -0.449589 
2   -0.445903 
3   -0.107618 
4   0.189061 
5   -0.082597 
6   -0.539403 
7   -0.244321 
8   -0.342184 
9   -0.100277 
10   0.16477 
11   0.156483 
12   0.161717 
13   0.16673 
14   0.159374 
15   0.153222 
16   0.148801 
17   0.25807 
18   0.271917 
19   0.355882 
20   0.125865 
 
$$$$ 
 
