PCCDB-ID:  354 
public computational chemistry database (PCCDB) project, http://pccdb.org 
 
 20 19  0  0  0  0  0  0  0  0999 V2000 
    0.9760   -0.1741   -0.0260 C   0  0  0  0  0  0  0  0  0  0  0  0 
    0.3638   -1.5120   -0.3052 C   0  0  0  0  0  0  0  0  0  0  0  0 
    2.2888    0.1002   -0.0718 C   0  0  0  0  0  0  0  0  0  0  0  0 
   -0.5917   -1.4620   -1.5258 C   0  0  0  0  0  0  0  0  0  0  0  0 
    2.7787    1.4643    0.2139 C   0  0  0  0  0  0  0  0  0  0  0  0 
   -1.2337   -2.8168   -1.8042 C   0  0  0  0  0  0  0  0  0  0  0  0 
    4.3112    1.6294    0.1137 C   0  0  0  0  0  0  0  0  0  0  0  0 
    2.0753    2.4128    0.5093 O   0  0  0  0  0  0  0  0  0  0  0  0 
   -0.9622   -3.5155   -2.7457 O   0  0  0  0  0  0  0  0  0  0  0  0 
   -2.1453   -3.2388   -0.8815 O   0  0  0  0  0  0  0  0  0  0  0  0 
    4.7014    2.8881    0.3616 O   0  0  0  0  0  0  0  0  0  0  0  0 
    5.0656    0.7200   -0.1585 O   0  0  0  0  0  0  0  0  0  0  0  0 
    0.2967    0.6426    0.2226 H   0  0  0  0  0  0  0  0  0  0  0  0 
   -0.1974   -1.8380    0.5838 H   0  0  0  0  0  0  0  0  0  0  0  0 
    1.1422   -2.2622   -0.4818 H   0  0  0  0  0  0  0  0  0  0  0  0 
    3.0289   -0.6550   -0.3166 H   0  0  0  0  0  0  0  0  0  0  0  0 
   -0.0373   -1.1760   -2.4218 H   0  0  0  0  0  0  0  0  0  0  0  0 
   -1.3719   -0.7063   -1.3582 H   0  0  0  0  0  0  0  0  0  0  0  0 
   -2.2893   -2.5541   -0.2079 H   0  0  0  0  0  0  0  0  0  0  0  0 
    5.6738    2.8965    0.2748 H   0  0  0  0  0  0  0  0  0  0  0  0 
  1 13  1  0  0  0  0 
  2  1  1  0  0  0  0 
  2 14  1  0  0  0  0 
  3  1  2  0  0  0  0 
  3  5  1  0  0  0  0 
  4 18  1  0  0  0  0 
  4  2  1  0  0  0  0 
  5  8  2  0  0  0  0 
  6  4  1  0  0  0  0 
  6 10  1  0  0  0  0 
  7  5  1  0  0  0  0 
  7 11  1  0  0  0  0 
  9  6  2  0  0  0  0 
 10 19  1  0  0  0  0 
 12  7  2  0  0  0  0 
 15  2  1  0  0  0  0 
 16  3  1  0  0  0  0 
 17  4  1  0  0  0  0 
 20 11  1  0  0  0  0 
M  END 
>  <HBA> 
5 
 
>  <HBD> 
2 
 
>  <TPSA> 
91.67 
 
>  <cid> 
354 
 
>  <dipole> 
2.92 
 
>  <excitation_energy_1> 
2.937 
 
>  <excitation_energy_2> 
4.299 
 
>  <excitation_energy_3> 
4.769 
 
>  <excitation_energy_4> 
4.793 
 
>  <homo_energy> 
-7.197 
 
>  <homo_lumo_gap> 
4.444 
 
>  <logP> 
0.061 
 
>  <lumo_energy> 
-2.754 
 
>  <melting_point> 
158.27 
 
>  <molecular_refractivity> 
39.03 
 
>  <oscillator_strength_1> 
0.0 
 
>  <oscillator_strength_2> 
0.0909 
 
>  <oscillator_strength_3> 
0.0535 
 
>  <oscillator_strength_4> 
0.1299 
 
>  <open_babel_can_smiles> 
OC(=O)CC/C=C/C(=O)C(=O)O 
 
>  <mulliken_charges> 
20 
1   -0.058025 
2   -0.330652 
3   -0.173268 
4   -0.3828 
5   0.367887 
6   0.592043 
7   0.52784 
8   -0.437009 
9   -0.425216 
10   -0.559682 
11   -0.539563 
12   -0.446786 
13   0.170001 
14   0.154588 
15   0.18169 
16   0.175087 
17   0.195107 
18   0.161568 
19   0.409292 
20   0.4179 
 
>  <lowdin_charges> 
20 
1   -0.086683 
2   -0.270282 
3   -0.210485 
4   -0.314013 
5   0.129995 
6   0.195435 
7   0.16535 
8   -0.2009 
9   -0.228225 
10   -0.35954 
11   -0.315994 
12   -0.247278 
13   0.172315 
14   0.155428 
15   0.167688 
16   0.181723 
17   0.180744 
18   0.159984 
19   0.358512 
20   0.366228 
 
$$$$ 
 
