PCCDB-ID:  3774 
public computational chemistry database (PCCDB) project, http://pccdb.org 
 
 32 33  0  0  1  0  0  0  0  0999 V2000 
    5.5594   -2.4793    0.2914 C   0  0  0  0  0  0  0  0  0  0  0  0 
    1.1489    1.7298    1.9145 C   0  0  0  0  0  0  0  0  0  0  0  0 
    4.1664   -1.8733    0.0866 C   0  0  0  0  0  0  0  0  0  0  0  0 
    3.8460    3.2075   -0.0234 C   0  0  0  0  0  0  0  0  0  0  0  0 
    3.5925    2.0196   -0.7642 C   0  0  0  0  0  0  0  0  0  0  0  0 
    2.9705    3.2165    1.0374 C   0  0  0  0  0  0  0  0  0  0  0  0 
    1.8631    0.0547   -0.4855 C   0  0  0  0  0  0  0  0  0  0  0  0 
    1.6925   -1.9491   -2.0598 C   0  0  0  0  0  0  0  0  0  0  0  0 
    2.5285   -0.7354   -1.6173 C   0  0  2  0  0  0  0  0  0  0  0  0 
    2.5688    1.3340   -0.1341 C   0  0  0  0  0  0  0  0  0  0  0  0 
    3.9123   -1.3808   -1.3588 C   0  0  2  0  0  0  0  0  0  0  0  0 
    3.8996   -2.5596   -2.3360 C   0  0  0  0  0  0  0  0  0  0  0  0 
    2.1935    2.0798    0.9712 N   0  0  0  0  0  0  0  0  0  0  0  0 
    4.8319   -3.1999   -2.7500 O   0  0  0  0  0  0  0  0  0  0  0  0 
    2.6134   -2.8480   -2.7004 O   0  0  0  0  0  0  0  0  0  0  0  0 
    5.6841   -2.8086    1.3290 H   0  0  0  0  0  0  0  0  0  0  0  0 
    6.3404   -1.7398    0.0783 H   0  0  0  0  0  0  0  0  0  0  0  0 
    5.7269   -3.3355   -0.3672 H   0  0  0  0  0  0  0  0  0  0  0  0 
    1.0661    2.5245    2.6587 H   0  0  0  0  0  0  0  0  0  0  0  0 
    1.3766    0.7922    2.4353 H   0  0  0  0  0  0  0  0  0  0  0  0 
    0.1796    1.6235    1.4141 H   0  0  0  0  0  0  0  0  0  0  0  0 
    4.0461   -1.0130    0.7555 H   0  0  0  0  0  0  0  0  0  0  0  0 
    3.3983   -2.6060    0.3720 H   0  0  0  0  0  0  0  0  0  0  0  0 
    4.5883    3.9630   -0.2417 H   0  0  0  0  0  0  0  0  0  0  0  0 
    4.1000    1.7077   -1.6669 H   0  0  0  0  0  0  0  0  0  0  0  0 
    2.8320    3.9280    1.8396 H   0  0  0  0  0  0  0  0  0  0  0  0 
    1.7744   -0.5905    0.4001 H   0  0  0  0  0  0  0  0  0  0  0  0 
    0.8254    0.2701   -0.7913 H   0  0  0  0  0  0  0  0  0  0  0  0 
    0.9101   -1.7008   -2.7817 H   0  0  0  0  0  0  0  0  0  0  0  0 
    1.2312   -2.4659   -1.2075 H   0  0  0  0  0  0  0  0  0  0  0  0 
    2.6299   -0.0723   -2.4860 H   0  0  0  0  0  0  0  0  0  0  0  0 
    4.7333   -0.7141   -1.6377 H   0  0  0  0  0  0  0  0  0  0  0  0 
  1 16  1  0  0  0  0 
  2 20  1  0  0  0  0 
  2 19  1  0  0  0  0 
  3  1  1  0  0  0  0 
  3 23  1  0  0  0  0 
  3 22  1  0  0  0  0 
  4  6  2  0  0  0  0 
  5 10  2  0  0  0  0 
  5  4  1  0  0  0  0 
  6 26  1  0  0  0  0 
  7 10  1  0  0  0  0 
  7 27  1  0  0  0  0 
  8  9  1  0  0  0  0 
  8 30  1  0  0  0  0 
  9 31  1  6  0  0  0 
  9 11  1  0  0  0  0 
  9  7  1  0  0  0  0 
 10 13  1  0  0  0  0 
 11 32  1  6  0  0  0 
 11  3  1  0  0  0  0 
 12 11  1  0  0  0  0 
 13  6  1  0  0  0  0 
 13  2  1  0  0  0  0 
 14 12  2  0  0  0  0 
 15 12  1  0  0  0  0 
 15  8  1  0  0  0  0 
 17  1  1  0  0  0  0 
 18  1  1  0  0  0  0 
 21  2  1  0  0  0  0 
 24  4  1  0  0  0  0 
 25  5  1  0  0  0  0 
 28  7  1  0  0  0  0 
 29  8  1  0  0  0  0 
M  END 
>  <HBA> 
3 
 
>  <HBD> 
0 
 
>  <TPSA> 
31.23 
 
>  <cid> 
3774 
 
>  <dipole> 
5.91 
 
>  <excitation_energy_1> 
4.717 
 
>  <excitation_energy_2> 
5.205 
 
>  <excitation_energy_3> 
5.286 
 
>  <excitation_energy_4> 
5.317 
 
>  <homo_energy> 
-5.557 
 
>  <homo_lumo_gap> 
5.899 
 
>  <logP> 
1.767 
 
>  <lumo_energy> 
0.343 
 
>  <melting_point> 
41.35 
 
>  <molecular_refractivity> 
58.67 
 
>  <oscillator_strength_1> 
0.0038 
 
>  <oscillator_strength_2> 
0.0047 
 
>  <oscillator_strength_3> 
0.005 
 
>  <oscillator_strength_4> 
0.006 
 
>  <open_babel_can_smiles> 
CC[C@H]1C(=O)OC[C@H]1Cc1cccn1C 
 
>  <mulliken_charges> 
32 
1   -0.451784 
2   -0.319248 
3   -0.274168 
4   -0.194886 
5   -0.227841 
6   0.02419 
7   -0.362415 
8   -0.036393 
9   -0.142373 
10   0.327431 
11   -0.194882 
12   0.61811 
13   -0.433851 
14   -0.463547 
15   -0.452047 
16   0.140525 
17   0.148311 
18   0.180549 
19   0.172476 
20   0.169074 
21   0.168874 
22   0.156927 
23   0.135657 
24   0.124127 
25   0.120237 
26   0.137747 
27   0.147414 
28   0.149636 
29   0.160804 
30   0.147242 
31   0.155575 
32   0.168528 
 
>  <lowdin_charges> 
32 
1   -0.447733 
2   -0.347013 
3   -0.271322 
4   -0.215519 
5   -0.230878 
6   -0.162043 
7   -0.274263 
8   -0.134812 
9   -0.138317 
10   -0.014666 
11   -0.166966 
12   0.196029 
13   -0.01055 
14   -0.239462 
15   -0.190956 
16   0.148927 
17   0.151925 
18   0.166291 
19   0.1689 
20   0.157053 
21   0.157461 
22   0.15414 
23   0.141019 
24   0.160816 
25   0.157042 
26   0.160315 
27   0.150375 
28   0.150433 
29   0.157368 
30   0.143324 
31   0.154905 
32   0.168179 
 
$$$$ 
 
