PCCDB-ID:  4060 
public computational chemistry database (PCCDB) project, http://pccdb.org 
 
 30 31  0  0  1  0  0  0  0  0999 V2000 
    2.5189    1.8056    0.0550 C   0  0  0  0  0  0  0  0  0  0  0  0 
    1.8714   -3.8199    2.1433 C   0  0  0  0  0  0  0  0  0  0  0  0 
    2.6765    0.2860   -0.0193 C   0  0  0  0  0  0  0  0  0  0  0  0 
    6.9610    1.1529    2.6313 C   0  0  0  0  0  0  0  0  0  0  0  0 
    5.8070    1.4511    3.3558 C   0  0  0  0  0  0  0  0  0  0  0  0 
    6.8681    0.3509    1.4921 C   0  0  0  0  0  0  0  0  0  0  0  0 
    4.5684    0.9540    2.9453 C   0  0  0  0  0  0  0  0  0  0  0  0 
    5.6319   -0.1442    1.0774 C   0  0  0  0  0  0  0  0  0  0  0  0 
    4.4674    0.1543    1.8008 C   0  0  0  0  0  0  0  0  0  0  0  0 
    3.1552   -1.9064    1.1130 C   0  0  0  0  0  0  0  0  0  0  0  0 
    1.6265   -1.3311    2.6389 C   0  0  0  0  0  0  0  0  0  0  0  0 
    3.1078   -0.3691    1.3237 C   0  0  2  0  0  0  0  0  0  0  0  0 
    2.0567   -0.1660    2.3404 N   0  0  0  0  0  0  0  0  0  0  0  0 
    2.2035   -2.4147    1.9922 N   0  0  0  0  0  0  0  0  0  0  0  0 
    3.8257   -2.5636    0.3421 O   0  0  0  0  0  0  0  0  0  0  0  0 
    0.6539   -1.6159    3.5177 O   0  0  0  0  0  0  0  0  0  0  0  0 
    2.1585    2.1954   -0.9035 H   0  0  0  0  0  0  0  0  0  0  0  0 
    3.4710    2.2951    0.2828 H   0  0  0  0  0  0  0  0  0  0  0  0 
    1.7994    2.0836    0.8312 H   0  0  0  0  0  0  0  0  0  0  0  0 
    2.5274   -4.3708    1.4662 H   0  0  0  0  0  0  0  0  0  0  0  0 
    0.8270   -4.0061    1.8752 H   0  0  0  0  0  0  0  0  0  0  0  0 
    2.0415   -4.1512    3.1720 H   0  0  0  0  0  0  0  0  0  0  0  0 
    3.4160    0.0080   -0.7790 H   0  0  0  0  0  0  0  0  0  0  0  0 
    1.7249   -0.1705   -0.3223 H   0  0  0  0  0  0  0  0  0  0  0  0 
    7.9249    1.5395    2.9520 H   0  0  0  0  0  0  0  0  0  0  0  0 
    5.8671    2.0733    4.2453 H   0  0  0  0  0  0  0  0  0  0  0  0 
    7.7613    0.1056    0.9232 H   0  0  0  0  0  0  0  0  0  0  0  0 
    3.6701    1.1825    3.5075 H   0  0  0  0  0  0  0  0  0  0  0  0 
    5.5721   -0.7867    0.2051 H   0  0  0  0  0  0  0  0  0  0  0  0 
    0.3594   -0.7611    3.8805 H   0  0  0  0  0  0  0  0  0  0  0  0 
  1 18  1  0  0  0  0 
  1 19  1  0  0  0  0 
  2 22  1  0  0  0  0 
  3  1  1  0  0  0  0 
  4 25  1  0  0  0  0 
  4  5  2  0  0  0  0 
  5 26  1  0  0  0  0 
  6  4  1  0  0  0  0 
  7  5  1  0  0  0  0 
  7 28  1  0  0  0  0 
  8  6  2  0  0  0  0 
  8  9  1  0  0  0  0 
  9  7  2  0  0  0  0 
 10 12  1  0  0  0  0 
 10 14  1  0  0  0  0 
 11 16  1  0  0  0  0 
 12  3  1  6  0  0  0 
 12  9  1  0  0  0  0 
 12 13  1  0  0  0  0 
 13 11  2  0  0  0  0 
 14  2  1  0  0  0  0 
 14 11  1  0  0  0  0 
 15 10  2  0  0  0  0 
 16 30  1  0  0  0  0 
 17  1  1  0  0  0  0 
 20  2  1  0  0  0  0 
 21  2  1  0  0  0  0 
 23  3  1  0  0  0  0 
 24  3  1  0  0  0  0 
 27  6  1  0  0  0  0 
 29  8  1  0  0  0  0 
M  END 
>  <HBA> 
4 
 
>  <HBD> 
1 
 
>  <TPSA> 
49.41 
 
>  <cid> 
4060 
 
>  <dipole> 
2.66 
 
>  <excitation_energy_1> 
5.031 
 
>  <excitation_energy_2> 
5.233 
 
>  <excitation_energy_3> 
5.526 
 
>  <excitation_energy_4> 
5.563 
 
>  <homo_energy> 
-6.373 
 
>  <homo_lumo_gap> 
6.117 
 
>  <logP> 
1.74 
 
>  <lumo_energy> 
-0.256 
 
>  <melting_point> 
116.28 
 
>  <molecular_refractivity> 
67.53 
 
>  <oscillator_strength_1> 
0.033 
 
>  <oscillator_strength_2> 
0.0013 
 
>  <oscillator_strength_3> 
0.0215 
 
>  <oscillator_strength_4> 
0.0195 
 
>  <open_babel_can_smiles> 
CC[C@]1(N=C(N(C1=O)C)O)c1ccccc1 
 
>  <mulliken_charges> 
30 
1   -0.452181 
2   -0.324926 
3   -0.231671 
4   -0.124576 
5   -0.133878 
6   -0.138378 
7   -0.168345 
8   -0.175252 
9   0.133561 
10   0.611843 
11   0.704116 
12   -0.019555 
13   -0.506604 
14   -0.483575 
15   -0.506118 
16   -0.607379 
17   0.141353 
18   0.158876 
19   0.162506 
20   0.199895 
21   0.177056 
22   0.179097 
23   0.155956 
24   0.135263 
25   0.125992 
26   0.125882 
27   0.129105 
28   0.144941 
29   0.158795 
30   0.428201 
 
>  <lowdin_charges> 
30 
1   -0.448171 
2   -0.346314 
3   -0.262655 
4   -0.15926 
5   -0.15752 
6   -0.15713 
7   -0.16528 
8   -0.162894 
9   -0.008614 
10   0.164811 
11   0.156083 
12   0.043575 
13   -0.26615 
14   -0.080978 
15   -0.270166 
16   -0.345677 
17   0.150952 
18   0.156652 
19   0.158345 
20   0.184976 
21   0.163417 
22   0.165121 
23   0.15667 
24   0.145439 
25   0.155925 
26   0.155665 
27   0.157825 
28   0.167814 
29   0.171008 
30   0.37653 
 
$$$$ 
 
