PCCDB-ID:  2879 
public computational chemistry database (PCCDB) project, http://pccdb.org 
 
 16 16  0  0  0  0  0  0  0  0999 V2000 
    0.9268   -0.0944    0.0191 C   0  0  0  0  0  0  0  0  0  0  0  0 
    3.1492   -1.3057   -0.1816 C   0  0  0  0  0  0  0  0  0  0  0  0 
    3.1644    1.0901   -0.1518 C   0  0  0  0  0  0  0  0  0  0  0  0 
    4.5407   -1.3190   -0.3017 C   0  0  0  0  0  0  0  0  0  0  0  0 
    4.5499    1.0969   -0.2724 C   0  0  0  0  0  0  0  0  0  0  0  0 
    2.4333   -0.1076   -0.1044 C   0  0  0  0  0  0  0  0  0  0  0  0 
    5.2459   -0.1150   -0.3481 C   0  0  0  0  0  0  0  0  0  0  0  0 
    6.6096   -0.0545   -0.4659 O   0  0  0  0  0  0  0  0  0  0  0  0 
    0.5277   -1.1077    0.1310 H   0  0  0  0  0  0  0  0  0  0  0  0 
    0.4516    0.3511   -0.8646 H   0  0  0  0  0  0  0  0  0  0  0  0 
    0.5975    0.4896    0.8875 H   0  0  0  0  0  0  0  0  0  0  0  0 
    2.6145   -2.2523   -0.1473 H   0  0  0  0  0  0  0  0  0  0  0  0 
    2.6366    2.0398   -0.0918 H   0  0  0  0  0  0  0  0  0  0  0  0 
    5.0742   -2.2667   -0.3586 H   0  0  0  0  0  0  0  0  0  0  0  0 
    5.1088    2.0269   -0.3094 H   0  0  0  0  0  0  0  0  0  0  0  0 
    6.9604   -0.9580   -0.4976 H   0  0  0  0  0  0  0  0  0  0  0  0 
  1  9  1  0  0  0  0 
  1 11  1  0  0  0  0 
  2 12  1  0  0  0  0 
  2  6  2  0  0  0  0 
  3  6  1  0  0  0  0 
  3 13  1  0  0  0  0 
  4  2  1  0  0  0  0 
  5  3  2  0  0  0  0 
  6  1  1  0  0  0  0 
  7  4  2  0  0  0  0 
  7  5  1  0  0  0  0 
  8  7  1  0  0  0  0 
 10  1  1  0  0  0  0 
 14  4  1  0  0  0  0 
 15  5  1  0  0  0  0 
 16  8  1  0  0  0  0 
M  END 
>  <HBA> 
1 
 
>  <HBD> 
1 
 
>  <TPSA> 
20.23 
 
>  <cid> 
2879 
 
>  <dipole> 
1.32 
 
>  <excitation_energy_1> 
4.918 
 
>  <excitation_energy_2> 
5.078 
 
>  <excitation_energy_3> 
5.593 
 
>  <excitation_energy_4> 
5.67 
 
>  <homo_energy> 
-5.742 
 
>  <homo_lumo_gap> 
5.812 
 
>  <logP> 
1.701 
 
>  <lumo_energy> 
0.071 
 
>  <melting_point> 
48.13 
 
>  <molecular_refractivity> 
33.43 
 
>  <oscillator_strength_1> 
0.0369 
 
>  <oscillator_strength_2> 
0.0002 
 
>  <oscillator_strength_3> 
0.0007 
 
>  <oscillator_strength_4> 
0.0707 
 
>  <open_babel_can_smiles> 
Cc1ccc(cc1)O 
 
>  <mulliken_charges> 
16 
1   -0.530192 
2   -0.189597 
3   -0.183757 
4   -0.191712 
5   -0.156157 
6   0.176859 
7   0.346131 
8   -0.645258 
9   0.15197 
10   0.160079 
11   0.15842 
12   0.122067 
13   0.12309 
14   0.115083 
15   0.137421 
16   0.405553 
 
>  <lowdin_charges> 
16 
1   -0.44221 
2   -0.157998 
3   -0.153736 
4   -0.215777 
5   -0.184451 
6   -0.019253 
7   0.100864 
8   -0.383063 
9   0.154465 
10   0.158932 
11   0.158506 
12   0.154672 
13   0.155493 
14   0.151866 
15   0.166469 
16   0.35522 
 
$$$$ 
 
