PCCDB-ID:  3090 
public computational chemistry database (PCCDB) project, http://pccdb.org 
 
 17 17  0  0  0  0  0  0  0  0999 V2000 
    0.9837   -0.0558    0.0857 C   0  0  0  0  0  0  0  0  0  0  0  0 
    2.7107    2.4871   -0.0091 C   0  0  0  0  0  0  0  0  0  0  0  0 
    4.5194   -0.6800    0.2237 C   0  0  0  0  0  0  0  0  0  0  0  0 
    2.4770   -0.0245    0.1263 C   0  0  0  0  0  0  0  0  0  0  0  0 
    4.5451    0.6972    0.1455 C   0  0  0  0  0  0  0  0  0  0  0  0 
    3.2357   -1.1173    0.2112 N   0  0  0  0  0  0  0  0  0  0  0  0 
    3.2223    1.1198    0.0828 N   0  0  0  0  0  0  0  0  0  0  0  0 
    5.6739    1.5562    0.1271 N   0  0  0  0  0  0  0  0  0  0  0  0 
    6.7829    1.0193    0.1915 O   0  0  0  0  0  0  0  0  0  0  0  0 
    5.4843    2.7793    0.0484 O   0  0  0  0  0  0  0  0  0  0  0  0 
    0.6721   -1.1008    0.1270 H   0  0  0  0  0  0  0  0  0  0  0  0 
    0.5847    0.3887   -0.8340 H   0  0  0  0  0  0  0  0  0  0  0  0 
    0.5354    0.4729    0.9356 H   0  0  0  0  0  0  0  0  0  0  0  0 
    1.6217    2.4400   -0.0182 H   0  0  0  0  0  0  0  0  0  0  0  0 
    3.0673    2.9663   -0.9221 H   0  0  0  0  0  0  0  0  0  0  0  0 
    3.0479    3.0768    0.8441 H   0  0  0  0  0  0  0  0  0  0  0  0 
    5.3685   -1.3448    0.2867 H   0  0  0  0  0  0  0  0  0  0  0  0 
  1  4  1  0  0  0  0 
  1 11  1  0  0  0  0 
  1 13  1  0  0  0  0 
  2  7  1  0  0  0  0 
  2 16  1  0  0  0  0 
  3 17  1  0  0  0  0 
  4  6  2  0  0  0  0 
  5  3  2  0  0  0  0 
  6  3  1  0  0  0  0 
  7  4  1  0  0  0  0 
  7  5  1  0  0  0  0 
  8  5  1  0  0  0  0 
  8  9  2  0  0  0  0 
 10  8  2  0  0  0  0 
 12  1  1  0  0  0  0 
 14  2  1  0  0  0  0 
 15  2  1  0  0  0  0 
M  END 
>  <HBA> 
2 
 
>  <HBD> 
0 
 
>  <TPSA> 
63.64 
 
>  <cid> 
3090 
 
>  <dipole> 
4.87 
 
>  <excitation_energy_1> 
3.831 
 
>  <excitation_energy_2> 
4.215 
 
>  <excitation_energy_3> 
4.256 
 
>  <excitation_energy_4> 
4.779 
 
>  <homo_energy> 
-6.939 
 
>  <homo_lumo_gap> 
4.667 
 
>  <logP> 
1.16 
 
>  <lumo_energy> 
-2.272 
 
>  <melting_point> 
65.62 
 
>  <molecular_refractivity> 
37.28 
 
>  <oscillator_strength_1> 
0.0 
 
>  <oscillator_strength_2> 
0.2381 
 
>  <oscillator_strength_3> 
0.0005 
 
>  <oscillator_strength_4> 
0.0 
 
>  <open_babel_can_smiles> 
Cc1ncc(n1C)N(=O)=O 
 
>  <mulliken_charges> 
17 
1   -0.538896 
2   -0.317677 
3   0.008542 
4   0.487127 
5   0.488163 
6   -0.464676 
7   -0.470172 
8   0.332425 
9   -0.403433 
10   -0.428482 
11   0.203802 
12   0.176261 
13   0.176624 
14   0.170269 
15   0.199851 
16   0.201036 
17   0.179236 
 
>  <lowdin_charges> 
17 
1   -0.450219 
2   -0.345466 
3   -0.103461 
4   0.077275 
5   -0.013488 
6   -0.184983 
7   -0.002011 
8   0.306469 
9   -0.252283 
10   -0.271168 
11   0.188562 
12   0.170156 
13   0.170789 
14   0.164965 
15   0.17851 
16   0.179713 
17   0.186641 
 
$$$$ 
 
