PCCDB-ID:  6046 
public computational chemistry database (PCCDB) project, http://pccdb.org 
 
 16 16  0  0  0  0  0  0  0  0999 V2000 
    0.7018    1.2355   -0.1397 C   0  0  0  0  0  0  0  0  0  0  0  0 
   -1.4304   -0.0566   -0.0770 C   0  0  0  0  0  0  0  0  0  0  0  0 
    1.4314   -0.0807    0.1517 C   0  0  0  0  0  0  0  0  0  0  0  0 
   -0.5787   -1.2993    0.2026 C   0  0  0  0  0  0  0  0  0  0  0  0 
   -1.1329    2.0764    1.1518 N   0  0  0  0  0  0  0  0  0  0  0  0 
   -0.6743    1.1285    0.3169 N   0  0  0  0  0  0  0  0  0  0  0  0 
   -2.2858    1.9244    1.5420 O   0  0  0  0  0  0  0  0  0  0  0  0 
    0.7133   -1.1850   -0.3829 O   0  0  0  0  0  0  0  0  0  0  0  0 
    0.7162    1.4312   -1.2207 H   0  0  0  0  0  0  0  0  0  0  0  0 
    1.1590    2.0809    0.3820 H   0  0  0  0  0  0  0  0  0  0  0  0 
   -2.3604   -0.0518    0.4954 H   0  0  0  0  0  0  0  0  0  0  0  0 
   -1.6665    0.0064   -1.1474 H   0  0  0  0  0  0  0  0  0  0  0  0 
    1.5614   -0.2003    1.2399 H   0  0  0  0  0  0  0  0  0  0  0  0 
    2.4163   -0.0890   -0.3236 H   0  0  0  0  0  0  0  0  0  0  0  0 
   -1.0402   -2.1882   -0.2365 H   0  0  0  0  0  0  0  0  0  0  0  0 
   -0.4888   -1.4494    1.2906 H   0  0  0  0  0  0  0  0  0  0  0  0 
  1  3  1  0  0  0  0 
  1  6  1  0  0  0  0 
  1 10  1  0  0  0  0 
  2  4  1  0  0  0  0 
  2  6  1  0  0  0  0 
  2 11  1  0  0  0  0 
  3 13  1  0  0  0  0 
  4 16  1  0  0  0  0 
  5  7  2  0  0  0  0 
  6  5  1  0  0  0  0 
  8  3  1  0  0  0  0 
  8  4  1  0  0  0  0 
  9  1  1  0  0  0  0 
 12  2  1  0  0  0  0 
 14  3  1  0  0  0  0 
 15  4  1  0  0  0  0 
M  END 
>  <HBA> 
4 
 
>  <HBD> 
0 
 
>  <TPSA> 
41.9 
 
>  <cid> 
6046 
 
>  <dipole> 
2.83 
 
>  <excitation_energy_1> 
3.404 
 
>  <excitation_energy_2> 
5.276 
 
>  <excitation_energy_3> 
6.009 
 
>  <excitation_energy_4> 
6.169 
 
>  <homo_energy> 
-6.185 
 
>  <homo_lumo_gap> 
5.249 
 
>  <logP> 
-0.062 
 
>  <lumo_energy> 
-0.936 
 
>  <melting_point> 
10.08 
 
>  <molecular_refractivity> 
31.86 
 
>  <oscillator_strength_1> 
0.0009 
 
>  <oscillator_strength_2> 
0.1244 
 
>  <oscillator_strength_3> 
0.0016 
 
>  <oscillator_strength_4> 
0.0367 
 
>  <open_babel_can_smiles> 
O=NN1CCOCC1 
 
>  <mulliken_charges> 
16 
1   -0.141818 
2   -0.163937 
3   -0.039491 
4   -0.041827 
5   0.149896 
6   -0.231514 
7   -0.375554 
8   -0.462082 
9   0.163453 
10   0.178298 
11   0.198349 
12   0.167897 
13   0.138509 
14   0.158689 
15   0.160061 
16   0.141072 
 
>  <lowdin_charges> 
16 
1   -0.212777 
2   -0.231475 
3   -0.136521 
4   -0.134909 
5   0.052649 
6   -0.049102 
7   -0.269021 
8   -0.27017 
9   0.151564 
10   0.173128 
11   0.181973 
12   0.156865 
13   0.134089 
14   0.158224 
15   0.160187 
16   0.135297 
 
$$$$ 
 
