PCCDB-ID:  1883 
public computational chemistry database (PCCDB) project, http://pccdb.org 
 
 24 25  0  0  1  0  0  0  0  0999 V2000 
    1.1800   -0.5875   -1.6699 C   0  0  0  0  0  0  0  0  0  0  0  0 
    2.2321   -1.6110    0.4348 C   0  0  0  0  0  0  0  0  0  0  0  0 
    2.0180   -0.3937   -0.4399 C   0  0  0  0  0  0  0  0  0  0  0  0 
    4.4805    0.2059    2.8454 C   0  0  1  0  0  0  0  0  0  0  0  0 
    2.5650    0.7762   -0.0356 C   0  0  0  0  0  0  0  0  0  0  0  0 
    3.4883    1.2715    2.3243 C   0  0  0  0  0  0  0  0  0  0  0  0 
    4.4960   -0.2935    1.3350 C   0  0  2  0  0  0  0  0  0  0  0  0 
    2.3474    2.1275   -0.6686 C   0  0  0  0  0  0  0  0  0  0  0  0 
    5.6408    0.6699    3.5392 N   0  0  0  0  0  0  0  0  0  0  0  0 
    3.4468    0.7013    1.0735 N   0  0  0  0  0  0  0  0  0  0  0  0 
    2.9383    2.2751    2.7439 O   0  0  0  0  0  0  0  0  0  0  0  0 
    2.0846    2.2728   -1.8431 O   0  0  0  0  0  0  0  0  0  0  0  0 
    2.4542    3.1864    0.1499 O   0  0  0  0  0  0  0  0  0  0  0  0 
    4.0101   -1.9848    0.8256 S   0  0  0  0  0  0  0  0  0  0  0  0 
    1.6928   -1.2765   -2.3558 H   0  0  0  0  0  0  0  0  0  0  0  0 
    1.0014    0.3491   -2.1948 H   0  0  0  0  0  0  0  0  0  0  0  0 
    0.2230   -1.0572   -1.4072 H   0  0  0  0  0  0  0  0  0  0  0  0 
    1.8591   -2.5141   -0.0546 H   0  0  0  0  0  0  0  0  0  0  0  0 
    1.6891   -1.4968    1.3798 H   0  0  0  0  0  0  0  0  0  0  0  0 
    3.9493   -0.5232    3.4665 H   0  0  0  0  0  0  0  0  0  0  0  0 
    5.4379   -0.0536    0.8291 H   0  0  0  0  0  0  0  0  0  0  0  0 
    6.2002    1.3129    2.9852 H   0  0  0  0  0  0  0  0  0  0  0  0 
    6.2321   -0.0942    3.8527 H   0  0  0  0  0  0  0  0  0  0  0  0 
    2.5279    2.9485    1.1074 H   0  0  0  0  0  0  0  0  0  0  0  0 
  1 17  1  0  0  0  0 
  1  3  1  0  0  0  0 
  2 14  1  0  0  0  0 
  2 19  1  0  0  0  0 
  3  5  2  0  0  0  0 
  3  2  1  0  0  0  0 
  4 20  1  1  0  0  0 
  4  9  1  0  0  0  0 
  5 10  1  0  0  0  0 
  6 11  2  0  0  0  0 
  6  4  1  0  0  0  0 
  7 21  1  6  0  0  0 
  7  4  1  0  0  0  0 
  8  5  1  0  0  0  0 
  8 13  1  0  0  0  0 
  9 23  1  0  0  0  0 
 10  7  1  0  0  0  0 
 10  6  1  0  0  0  0 
 12  8  2  0  0  0  0 
 13 24  1  0  0  0  0 
 14  7  1  0  0  0  0 
 15  1  1  0  0  0  0 
 16  1  1  0  0  0  0 
 18  2  1  0  0  0  0 
 22  9  1  0  0  0  0 
M  END 
>  <HBA> 
6 
 
>  <HBD> 
2 
 
>  <TPSA> 
108.93 
 
>  <cid> 
1883 
 
>  <dipole> 
5.59 
 
>  <excitation_energy_1> 
3.991 
 
>  <excitation_energy_2> 
4.34 
 
>  <excitation_energy_3> 
4.968 
 
>  <excitation_energy_4> 
5.042 
 
>  <homo_energy> 
-6.514 
 
>  <homo_lumo_gap> 
4.966 
 
>  <logP> 
0.226 
 
>  <lumo_energy> 
-1.548 
 
>  <melting_point> 
198.3 
 
>  <molecular_refractivity> 
54.95 
 
>  <oscillator_strength_1> 
0.0094 
 
>  <oscillator_strength_2> 
0.0447 
 
>  <oscillator_strength_3> 
0.0281 
 
>  <oscillator_strength_4> 
0.0031 
 
>  <open_babel_can_smiles> 
O=C1[C@H](N)[C@@H]2N1C(=C(CS2)C)C(=O)O 
 
>  <mulliken_charges> 
24 
1   -0.532454 
2   -0.497786 
3   0.135163 
4   -0.079964 
5   0.167769 
6   0.57552 
7   -0.119057 
8   0.582666 
9   -0.699372 
10   -0.515696 
11   -0.496375 
12   -0.454438 
13   -0.597412 
14   0.118041 
15   0.173387 
16   0.220559 
17   0.16099 
18   0.196557 
19   0.203106 
20   0.194497 
21   0.184948 
22   0.314924 
23   0.320037 
24   0.444388 
 
>  <lowdin_charges> 
24 
1   -0.448383 
2   -0.369935 
3   0.026748 
4   -0.093113 
5   -0.036069 
6   0.14988 
7   -0.178489 
8   0.187925 
9   -0.519706 
10   -0.08643 
11   -0.266873 
12   -0.249573 
13   -0.351856 
14   0.104802 
15   0.172226 
16   0.192158 
17   0.162217 
18   0.181552 
19   0.175549 
20   0.178853 
21   0.1631 
22   0.269351 
23   0.273676 
24   0.36239 
 
$$$$ 
 
