PCCDB-ID:  5227 
public computational chemistry database (PCCDB) project, http://pccdb.org 
 
 28 27  0  0  0  0  0  0  0  0999 V2000 
    2.9731    2.5587    1.5071 C   0  0  0  0  0  0  0  0  0  0  0  0 
    1.1699    1.2776    2.4350 C   0  0  0  0  0  0  0  0  0  0  0  0 
    4.5675   -0.0581    1.4168 C   0  0  0  0  0  0  0  0  0  0  0  0 
    5.2386   -0.0393    2.8024 C   0  0  0  0  0  0  0  0  0  0  0  0 
    3.0425    0.1274    1.4341 C   0  0  0  0  0  0  0  0  0  0  0  0 
    4.7525   -1.1734    3.7085 C   0  0  0  0  0  0  0  0  0  0  0  0 
    4.9707   -2.5580    6.1257 C   0  0  0  0  0  0  0  0  0  0  0  0 
    4.0332   -3.2318    5.5795 N   0  0  0  0  0  0  0  0  0  0  0  0 
    5.5884   -2.7959    7.3498 N   0  0  0  0  0  0  0  0  0  0  0  0 
    2.6006    1.3150    2.1671 N   0  0  0  0  0  0  0  0  0  0  0  0 
    5.7138   -1.1652    5.2739 S   0  0  0  0  0  0  0  0  0  0  0  0 
    2.6474    3.4078    2.1179 H   0  0  0  0  0  0  0  0  0  0  0  0 
    2.5237    2.6700    0.4994 H   0  0  0  0  0  0  0  0  0  0  0  0 
    4.0598    2.6261    1.4003 H   0  0  0  0  0  0  0  0  0  0  0  0 
    0.8891    2.1395    3.0508 H   0  0  0  0  0  0  0  0  0  0  0  0 
    0.9186    0.3683    2.9915 H   0  0  0  0  0  0  0  0  0  0  0  0 
    0.5473    1.3001    1.5176 H   0  0  0  0  0  0  0  0  0  0  0  0 
    4.7835   -1.0113    0.9156 H   0  0  0  0  0  0  0  0  0  0  0  0 
    5.0307    0.7177    0.7942 H   0  0  0  0  0  0  0  0  0  0  0  0 
    5.0426    0.9240    3.2849 H   0  0  0  0  0  0  0  0  0  0  0  0 
    6.3244   -0.1217    2.6644 H   0  0  0  0  0  0  0  0  0  0  0  0 
    2.5815   -0.7410    1.9192 H   0  0  0  0  0  0  0  0  0  0  0  0 
    2.6712    0.1316    0.3881 H   0  0  0  0  0  0  0  0  0  0  0  0 
    4.8873   -2.1540    3.2439 H   0  0  0  0  0  0  0  0  0  0  0  0 
    3.6978   -1.0670    3.9676 H   0  0  0  0  0  0  0  0  0  0  0  0 
    3.7289   -3.9992    6.1869 H   0  0  0  0  0  0  0  0  0  0  0  0 
    5.0341   -3.3245    8.0132 H   0  0  0  0  0  0  0  0  0  0  0  0 
    6.0652   -2.0111    7.7777 H   0  0  0  0  0  0  0  0  0  0  0  0 
  1 12  1  0  0  0  0 
  1 10  1  0  0  0  0 
  2 16  1  0  0  0  0 
  2 15  1  0  0  0  0 
  3  5  1  0  0  0  0 
  3  4  1  0  0  0  0 
  4 20  1  0  0  0  0 
  4  6  1  0  0  0  0 
  5 22  1  0  0  0  0 
  5 10  1  0  0  0  0 
  6 25  1  0  0  0  0 
  6 11  1  0  0  0  0 
  7  9  2  0  0  0  0 
  8  7  1  0  0  0  0 
  8 26  1  0  0  0  0 
  9 28  1  0  0  0  0 
  9 27  1  0  0  0  0 
 10  2  1  0  0  0  0 
 11  7  1  0  0  0  0 
 13  1  1  0  0  0  0 
 14  1  1  0  0  0  0 
 17  2  1  0  0  0  0 
 18  3  1  0  0  0  0 
 19  3  1  0  0  0  0 
 21  4  1  0  0  0  0 
 23  5  1  0  0  0  0 
 24  6  1  0  0  0  0 
M  RAD  1   8   2 
M  END 
>  <HBA> 
4 
 
>  <HBD> 
2 
 
>  <TPSA> 
78.41 
 
>  <cid> 
5227 
 
>  <dipole> 
1.44 
 
>  <excitation_energy_1> 
5.177 
 
>  <excitation_energy_2> 
5.212 
 
>  <excitation_energy_3> 
5.306 
 
>  <excitation_energy_4> 
5.396 
 
>  <homo_energy> 
-5.687 
 
>  <homo_lumo_gap> 
6.465 
 
>  <logP> 
1.755 
 
>  <lumo_energy> 
0.778 
 
>  <melting_point> 
69.93 
 
>  <molecular_refractivity> 
52.55 
 
>  <oscillator_strength_1> 
0.0222 
 
>  <oscillator_strength_2> 
0.0045 
 
>  <oscillator_strength_3> 
0.0018 
 
>  <oscillator_strength_4> 
0.0009 
 
>  <open_babel_can_smiles> 
CN(CCCCSC(=[NH2])[NH])C 
 
>  <mulliken_charges> 
28 
1   -0.300457 
2   -0.294088 
3   -0.283926 
4   -0.267559 
5   -0.116308 
6   -0.396587 
7   0.275335 
8   -0.611054 
9   -0.728465 
10   -0.36347 
11   0.102996 
12   0.148545 
13   0.116346 
14   0.152379 
15   0.146828 
16   0.151665 
17   0.116002 
18   0.137147 
19   0.138788 
20   0.16488 
21   0.14338 
22   0.142824 
23   0.108621 
24   0.186409 
25   0.197915 
26   0.271464 
27   0.323091 
28   0.337296 
 
>  <lowdin_charges> 
28 
1   -0.356593 
2   -0.35674 
3   -0.283333 
4   -0.279532 
5   -0.20251 
6   -0.354872 
7   -0.007066 
8   -0.452388 
9   -0.495791 
10   -0.184505 
11   0.119442 
12   0.151376 
13   0.118806 
14   0.148213 
15   0.149509 
16   0.151093 
17   0.119572 
18   0.147264 
19   0.145845 
20   0.156969 
21   0.14671 
22   0.146801 
23   0.116397 
24   0.166842 
25   0.170606 
26   0.250185 
27   0.279868 
28   0.287832 
 
$$$$ 
 
