PCCDB-ID:  2981 
public computational chemistry database (PCCDB) project, http://pccdb.org 
 
 26 28  0  0  0  0  0  0  0  0999 V2000 
    2.8912   -1.4568   -0.2924 C   0  0  0  0  0  0  0  0  0  0  0  0 
   -2.8421   -1.5796    0.2905 C   0  0  0  0  0  0  0  0  0  0  0  0 
    3.5589   -0.2365   -0.1677 C   0  0  0  0  0  0  0  0  0  0  0  0 
   -3.5614   -0.3887    0.1699 C   0  0  0  0  0  0  0  0  0  0  0  0 
    1.5014   -1.5024   -0.2334 C   0  0  0  0  0  0  0  0  0  0  0  0 
   -1.4516   -1.5660    0.2292 C   0  0  0  0  0  0  0  0  0  0  0  0 
    2.8215    0.9286    0.0159 C   0  0  0  0  0  0  0  0  0  0  0  0 
   -2.8747    0.8071   -0.0127 C   0  0  0  0  0  0  0  0  0  0  0  0 
    0.7395   -0.3379   -0.0425 C   0  0  0  0  0  0  0  0  0  0  0  0 
   -0.7404   -0.3697    0.0394 C   0  0  0  0  0  0  0  0  0  0  0  0 
    1.4227    0.8955    0.0836 C   0  0  0  0  0  0  0  0  0  0  0  0 
   -1.4758    0.8335   -0.0837 C   0  0  0  0  0  0  0  0  0  0  0  0 
    0.6466    2.1516    0.2732 C   0  0  0  0  0  0  0  0  0  0  0  0 
   -0.7542    2.1213   -0.2746 C   0  0  0  0  0  0  0  0  0  0  0  0 
    1.0495    3.2185    0.8538 N   0  0  0  0  0  0  0  0  0  0  0  0 
   -1.2024    3.1692   -0.8566 N   0  0  0  0  0  0  0  0  0  0  0  0 
    3.4525   -2.3735   -0.4506 H   0  0  0  0  0  0  0  0  0  0  0  0 
   -3.3635   -2.5198    0.4471 H   0  0  0  0  0  0  0  0  0  0  0  0 
    4.6422   -0.1922   -0.2316 H   0  0  0  0  0  0  0  0  0  0  0  0 
   -4.6455   -0.3907    0.2359 H   0  0  0  0  0  0  0  0  0  0  0  0 
    1.0057   -2.4588   -0.3612 H   0  0  0  0  0  0  0  0  0  0  0  0 
   -0.9155   -2.5007    0.3535 H   0  0  0  0  0  0  0  0  0  0  0  0 
    3.3345    1.8849    0.0760 H   0  0  0  0  0  0  0  0  0  0  0  0 
   -3.4276    1.7410   -0.0702 H   0  0  0  0  0  0  0  0  0  0  0  0 
    2.0105    3.0953    1.1954 H   0  0  0  0  0  0  0  0  0  0  0  0 
   -2.1571    3.0044   -1.1982 H   0  0  0  0  0  0  0  0  0  0  0  0 
  1  5  2  0  0  0  0 
  1  3  1  0  0  0  0 
  2 18  1  0  0  0  0 
  3  7  2  0  0  0  0 
  4 20  1  0  0  0  0 
  4  2  1  0  0  0  0 
  5  9  1  0  0  0  0 
  6  2  2  0  0  0  0 
  6 22  1  0  0  0  0 
  7 23  1  0  0  0  0 
  7 11  1  0  0  0  0 
  8  4  2  0  0  0  0 
  9 10  2  0  0  0  0 
  9 11  1  0  0  0  0 
 10  6  1  0  0  0  0 
 11 13  2  0  0  0  0 
 12  8  1  0  0  0  0 
 12 10  1  0  0  0  0 
 13 15  1  0  0  0  0 
 14 12  2  0  0  0  0 
 14 13  1  0  0  0  0 
 15 25  1  0  0  0  0 
 16 14  1  0  0  0  0 
 17  1  1  0  0  0  0 
 19  3  1  0  0  0  0 
 21  5  1  0  0  0  0 
 24  8  1  0  0  0  0 
 26 16  1  0  0  0  0 
M  RAD  2  15   2  16   2 
M  END 
>  <HBA> 
2 
 
>  <HBD> 
2 
 
>  <TPSA> 
47.7 
 
>  <cid> 
2981 
 
>  <dipole> 
4.64 
 
>  <excitation_energy_1> 
3.535 
 
>  <excitation_energy_2> 
3.874 
 
>  <excitation_energy_3> 
3.968 
 
>  <excitation_energy_4> 
4.188 
 
>  <homo_energy> 
-6.31 
 
>  <homo_lumo_gap> 
4.259 
 
>  <logP> 
3.302 
 
>  <lumo_energy> 
-2.052 
 
>  <melting_point> 
135.44 
 
>  <molecular_refractivity> 
66.88 
 
>  <oscillator_strength_1> 
0.0439 
 
>  <oscillator_strength_2> 
0.0098 
 
>  <oscillator_strength_3> 
0.0308 
 
>  <oscillator_strength_4> 
0.0088 
 
>  <open_babel_can_smiles> 
[NH]c1c([NH])c2ccccc2c2c1cccc2 
 
>  <mulliken_charges> 
26 
1   -0.128285 
2   -0.128151 
3   -0.127551 
4   -0.127646 
5   -0.195983 
6   -0.196031 
7   -0.199404 
8   -0.19943 
9   0.072918 
10   0.073288 
11   0.093375 
12   0.093102 
13   0.200748 
14   0.200809 
15   -0.560782 
16   -0.560665 
17   0.138657 
18   0.1386 
19   0.139557 
20   0.139569 
21   0.139321 
22   0.139276 
23   0.143088 
24   0.143172 
25   0.284242 
26   0.284207 
 
>  <lowdin_charges> 
26 
1   -0.145529 
2   -0.145243 
3   -0.148929 
4   -0.148919 
5   -0.156447 
6   -0.156738 
7   -0.14858 
8   -0.148927 
9   -0.000132 
10   -0.000136 
11   -0.031883 
12   -0.031854 
13   0.04843 
14   0.048694 
15   -0.313626 
16   -0.313813 
17   0.163141 
18   0.162897 
19   0.161375 
20   0.16136 
21   0.161546 
22   0.161762 
23   0.162376 
24   0.162661 
25   0.248172 
26   0.248343 
 
$$$$ 
 
