PCCDB-ID:  2068 
public computational chemistry database (PCCDB) project, http://pccdb.org 
 
 30 31  0  0  1  0  0  0  0  0999 V2000 
    0.9963    0.2707    0.0920 C   0  0  0  0  0  0  0  0  0  0  0  0 
    2.9247   -0.6160    1.4750 C   0  0  0  0  0  0  0  0  0  0  0  0 
    4.8352   -1.1020   -2.7880 C   0  0  0  0  0  0  0  0  0  0  0  0 
    4.1727   -2.4489   -3.2268 C   0  0  0  0  0  0  0  0  0  0  0  0 
    4.6802   -2.5126   -0.8809 C   0  0  0  0  0  0  0  0  0  0  0  0 
    2.5031   -0.0347    0.1142 C   0  0  0  0  0  0  0  0  0  0  0  0 
    4.4903   -1.0330   -1.2828 C   0  0  2  0  0  0  0  0  0  0  0  0 
    3.6421   -3.0353   -1.8951 C   0  0  1  0  0  0  0  0  0  0  0  0 
    2.9492   -0.8157   -1.1512 C   0  0  1  0  0  0  0  0  0  0  0  0 
    2.3682   -2.2570   -1.4544 C   0  0  2  0  0  0  0  0  0  0  0  0 
    1.6228   -2.8763   -0.3473 N   0  0  0  0  0  0  0  0  0  0  0  0 
    0.7239    0.9394    0.9183 H   0  0  0  0  0  0  0  0  0  0  0  0 
    0.4163   -0.6516    0.1851 H   0  0  0  0  0  0  0  0  0  0  0  0 
    0.7074    0.7664   -0.8437 H   0  0  0  0  0  0  0  0  0  0  0  0 
    2.7181    0.1131    2.2682 H   0  0  0  0  0  0  0  0  0  0  0  0 
    3.9965   -0.8414    1.5137 H   0  0  0  0  0  0  0  0  0  0  0  0 
    2.3673   -1.5245    1.7204 H   0  0  0  0  0  0  0  0  0  0  0  0 
    4.4546   -0.2386   -3.3444 H   0  0  0  0  0  0  0  0  0  0  0  0 
    5.9213   -1.1325   -2.9356 H   0  0  0  0  0  0  0  0  0  0  0  0 
    4.9049   -3.1222   -3.6860 H   0  0  0  0  0  0  0  0  0  0  0  0 
    3.3673   -2.3042   -3.9565 H   0  0  0  0  0  0  0  0  0  0  0  0 
    4.4240   -2.7271    0.1623 H   0  0  0  0  0  0  0  0  0  0  0  0 
    5.6961   -2.8820   -1.0656 H   0  0  0  0  0  0  0  0  0  0  0  0 
    3.0268    0.9309    0.0248 H   0  0  0  0  0  0  0  0  0  0  0  0 
    5.0848   -0.3000   -0.7281 H   0  0  0  0  0  0  0  0  0  0  0  0 
    3.4832   -4.1192   -1.9217 H   0  0  0  0  0  0  0  0  0  0  0  0 
    2.6323   -0.1718   -1.9829 H   0  0  0  0  0  0  0  0  0  0  0  0 
    1.6559   -2.1940   -2.2857 H   0  0  0  0  0  0  0  0  0  0  0  0 
    2.2649   -3.1751    0.3852 H   0  0  0  0  0  0  0  0  0  0  0  0 
    1.1834   -3.7299   -0.6917 H   0  0  0  0  0  0  0  0  0  0  0  0 
  1  6  1  0  0  0  0 
  1 13  1  0  0  0  0 
  1 12  1  0  0  0  0 
  2 16  1  0  0  0  0 
  2 17  1  0  0  0  0 
  2 15  1  0  0  0  0 
  3  7  1  0  0  0  0 
  4  3  1  0  0  0  0 
  4  8  1  0  0  0  0 
  5 22  1  0  0  0  0 
  6  2  1  0  0  0  0 
  7  9  1  0  0  0  0 
  7  5  1  0  0  0  0 
  7 25  1  1  0  0  0 
  8 26  1  6  0  0  0 
  8 10  1  0  0  0  0 
  8  5  1  0  0  0  0 
  9 27  1  6  0  0  0 
  9  6  1  0  0  0  0 
 10 28  1  6  0  0  0 
 10  9  1  0  0  0  0 
 10 11  1  0  0  0  0 
 11 29  1  0  0  0  0 
 14  1  1  0  0  0  0 
 18  3  1  0  0  0  0 
 19  3  1  0  0  0  0 
 20  4  1  0  0  0  0 
 21  4  1  0  0  0  0 
 23  5  1  0  0  0  0 
 24  6  1  0  0  0  0 
 30 11  1  0  0  0  0 
M  END 
>  <HBA> 
1 
 
>  <HBD> 
1 
 
>  <TPSA> 
26.02 
 
>  <cid> 
2068 
 
>  <dipole> 
1.44 
 
>  <excitation_energy_1> 
5.427 
 
>  <excitation_energy_2> 
5.98 
 
>  <excitation_energy_3> 
6.033 
 
>  <excitation_energy_4> 
6.158 
 
>  <homo_energy> 
-6.106 
 
>  <homo_lumo_gap> 
7.954 
 
>  <logP> 
2.716 
 
>  <lumo_energy> 
1.848 
 
>  <melting_point> 
70.19 
 
>  <molecular_refractivity> 
48.66 
 
>  <oscillator_strength_1> 
0.0175 
 
>  <oscillator_strength_2> 
0.0055 
 
>  <oscillator_strength_3> 
0.007 
 
>  <oscillator_strength_4> 
0.0069 
 
>  <open_babel_can_smiles> 
CC([C@H]1[C@@H]2CC[C@H]([C@H]1N)C2)C 
 
>  <mulliken_charges> 
30 
1   -0.454221 
2   -0.463306 
3   -0.274278 
4   -0.27461 
5   -0.281724 
6   -0.057777 
7   -0.108992 
8   -0.10906 
9   -0.085425 
10   0.014972 
11   -0.71566 
12   0.12778 
13   0.178529 
14   0.126053 
15   0.137019 
16   0.139491 
17   0.149164 
18   0.13252 
19   0.131283 
20   0.135017 
21   0.131676 
22   0.128375 
23   0.131323 
24   0.11502 
25   0.113138 
26   0.103002 
27   0.117908 
28   0.122934 
29   0.295264 
30   0.294588 
 
>  <lowdin_charges> 
30 
1   -0.453209 
2   -0.453423 
3   -0.283678 
4   -0.288531 
5   -0.288338 
6   -0.114343 
7   -0.138886 
8   -0.150255 
9   -0.140591 
10   -0.077159 
11   -0.544518 
12   0.142878 
13   0.163962 
14   0.140852 
15   0.148226 
16   0.14337 
17   0.150843 
18   0.14247 
19   0.139694 
20   0.146763 
21   0.142436 
22   0.137747 
23   0.142487 
24   0.134201 
25   0.14091 
26   0.131744 
27   0.14146 
28   0.138552 
29   0.249931 
30   0.254405 
 
$$$$ 
 
