PCCDB-ID:  296 
public computational chemistry database (PCCDB) project, http://pccdb.org 
 
 13 12  0  0  1  0  0  0  0  0999 V2000 
    1.0727   -0.2087   -0.4823 C   0  0  0  0  0  0  0  0  0  0  0  0 
    2.4131    1.3699    0.9826 C   0  0  0  0  0  0  0  0  0  0  0  0 
    2.4068    0.0568    0.2203 C   0  0  1  0  0  0  0  0  0  0  0  0 
    2.8715   -1.1616    1.0610 C   0  0  0  0  0  0  0  0  0  0  0  0 
    3.2455    1.6745    1.8193 O   0  0  0  0  0  0  0  0  0  0  0  0 
    2.4127   -2.2621    0.8792 O   0  0  0  0  0  0  0  0  0  0  0  0 
    3.8482   -0.9302    1.9490 O   0  0  0  0  0  0  0  0  0  0  0  0 
    0.8065    0.6278   -1.1376 H   0  0  0  0  0  0  0  0  0  0  0  0 
    0.2675   -0.3515    0.2455 H   0  0  0  0  0  0  0  0  0  0  0  0 
    1.1392   -1.1184   -1.0804 H   0  0  0  0  0  0  0  0  0  0  0  0 
    1.6096    2.0862    0.7195 H   0  0  0  0  0  0  0  0  0  0  0  0 
    3.1950    0.1848   -0.5429 H   0  0  0  0  0  0  0  0  0  0  0  0 
    3.9832    0.0421    2.0424 H   0  0  0  0  0  0  0  0  0  0  0  0 
  1  3  1  0  0  0  0 
  1  9  1  0  0  0  0 
  2  5  2  0  0  0  0 
  3 12  1  6  0  0  0 
  3  2  1  0  0  0  0 
  3  4  1  0  0  0  0 
  4  7  1  0  0  0  0 
  6  4  2  0  0  0  0 
  7 13  1  0  0  0  0 
  8  1  1  0  0  0  0 
 10  1  1  0  0  0  0 
 11  2  1  0  0  0  0 
M  END 
>  <HBA> 
3 
 
>  <HBD> 
1 
 
>  <TPSA> 
54.37 
 
>  <cid> 
296 
 
>  <dipole> 
4.22 
 
>  <excitation_energy_1> 
4.297 
 
>  <excitation_energy_2> 
4.945 
 
>  <excitation_energy_3> 
5.689 
 
>  <excitation_energy_4> 
5.837 
 
>  <homo_energy> 
-7.497 
 
>  <homo_lumo_gap> 
5.657 
 
>  <logP> 
-0.094 
 
>  <lumo_energy> 
-1.84 
 
>  <melting_point> 
83.65 
 
>  <molecular_refractivity> 
23.31 
 
>  <oscillator_strength_1> 
0.0019 
 
>  <oscillator_strength_2> 
0.0255 
 
>  <oscillator_strength_3> 
0.0009 
 
>  <oscillator_strength_4> 
0.0001 
 
>  <open_babel_can_smiles> 
O=C[C@@H](C(=O)O)C 
 
>  <mulliken_charges> 
13 
1   -0.454449 
2   0.261393 
3   -0.304852 
4   0.614919 
5   -0.405577 
6   -0.439554 
7   -0.578404 
8   0.147446 
9   0.170777 
10   0.192151 
11   0.14939 
12   0.211908 
13   0.434852 
 
>  <lowdin_charges> 
13 
1   -0.442025 
2   0.067861 
3   -0.20665 
4   0.191055 
5   -0.220399 
6   -0.23836 
7   -0.348293 
8   0.154182 
9   0.164392 
10   0.179318 
11   0.144803 
12   0.195623 
13   0.358493 
 
$$$$ 
 
