PCCDB-ID:  957 
public computational chemistry database (PCCDB) project, http://pccdb.org 
 
 27 26  0  0  0  0  0  0  0  0999 V2000 
    7.7765   -2.9378    1.9205 C   0  0  0  0  0  0  0  0  0  0  0  0 
    7.3146   -1.5054    1.6301 C   0  0  0  0  0  0  0  0  0  0  0  0 
    5.8870   -1.2332    2.1282 C   0  0  0  0  0  0  0  0  0  0  0  0 
    5.2625    0.1217    1.7396 C   0  0  0  0  0  0  0  0  0  0  0  0 
    5.7130    1.3647    2.5330 C   0  0  0  0  0  0  0  0  0  0  0  0 
    7.0925    1.9419    2.1710 C   0  0  0  0  0  0  0  0  0  0  0  0 
    7.3757    3.3198    2.7929 C   0  0  0  0  0  0  0  0  0  0  0  0 
    7.5173    3.3079    4.3171 C   0  0  0  0  0  0  0  0  0  0  0  0 
    7.7812    4.5996    4.8547 O   0  0  0  0  0  0  0  0  0  0  0  0 
    8.7937   -3.1135    1.5518 H   0  0  0  0  0  0  0  0  0  0  0  0 
    7.1168   -3.6718    1.4413 H   0  0  0  0  0  0  0  0  0  0  0  0 
    7.7730   -3.1453    2.9978 H   0  0  0  0  0  0  0  0  0  0  0  0 
    7.3596   -1.3191    0.5474 H   0  0  0  0  0  0  0  0  0  0  0  0 
    8.0205   -0.8029    2.0888 H   0  0  0  0  0  0  0  0  0  0  0  0 
    5.8554   -1.3444    3.2227 H   0  0  0  0  0  0  0  0  0  0  0  0 
    5.2386   -2.0278    1.7310 H   0  0  0  0  0  0  0  0  0  0  0  0 
    4.1760    0.0298    1.8723 H   0  0  0  0  0  0  0  0  0  0  0  0 
    5.4165    0.2999    0.6645 H   0  0  0  0  0  0  0  0  0  0  0  0 
    5.6708    1.1320    3.6066 H   0  0  0  0  0  0  0  0  0  0  0  0 
    4.9669    2.1560    2.3694 H   0  0  0  0  0  0  0  0  0  0  0  0 
    7.1622    2.0314    1.0781 H   0  0  0  0  0  0  0  0  0  0  0  0 
    7.8883    1.2472    2.4685 H   0  0  0  0  0  0  0  0  0  0  0  0 
    6.5823    4.0296    2.5227 H   0  0  0  0  0  0  0  0  0  0  0  0 
    8.3083    3.7184    2.3642 H   0  0  0  0  0  0  0  0  0  0  0  0 
    8.2986    2.5865    4.6140 H   0  0  0  0  0  0  0  0  0  0  0  0 
    6.5852    2.9869    4.7920 H   0  0  0  0  0  0  0  0  0  0  0  0 
    8.6100    4.9131    4.4599 H   0  0  0  0  0  0  0  0  0  0  0  0 
  1 12  1  0  0  0  0 
  2  1  1  0  0  0  0 
  2 14  1  0  0  0  0 
  2  3  1  0  0  0  0 
  3 15  1  0  0  0  0 
  4 17  1  0  0  0  0 
  4  3  1  0  0  0  0 
  4  5  1  0  0  0  0 
  5 19  1  0  0  0  0 
  6 22  1  0  0  0  0 
  6  5  1  0  0  0  0 
  6  7  1  0  0  0  0 
  7  8  1  0  0  0  0 
  8 25  1  0  0  0  0 
  8 26  1  0  0  0  0 
  8  9  1  0  0  0  0 
 10  1  1  0  0  0  0 
 11  1  1  0  0  0  0 
 13  2  1  0  0  0  0 
 16  3  1  0  0  0  0 
 18  4  1  0  0  0  0 
 20  5  1  0  0  0  0 
 21  6  1  0  0  0  0 
 23  7  1  0  0  0  0 
 24  7  1  0  0  0  0 
 27  9  1  0  0  0  0 
M  END 
>  <HBA> 
1 
 
>  <HBD> 
1 
 
>  <TPSA> 
20.23 
 
>  <cid> 
957 
 
>  <dipole> 
1.71 
 
>  <excitation_energy_1> 
6.394 
 
>  <excitation_energy_2> 
7.099 
 
>  <excitation_energy_3> 
7.212 
 
>  <excitation_energy_4> 
7.299 
 
>  <homo_energy> 
-7.064 
 
>  <homo_lumo_gap> 
9.189 
 
>  <logP> 
2.339 
 
>  <lumo_energy> 
2.125 
 
>  <melting_point> 
-9.27 
 
>  <molecular_refractivity> 
41.73 
 
>  <oscillator_strength_1> 
0.0062 
 
>  <oscillator_strength_2> 
0.0065 
 
>  <oscillator_strength_3> 
0.0013 
 
>  <oscillator_strength_4> 
0.0232 
 
>  <open_babel_can_smiles> 
CCCCCCCCO 
 
>  <mulliken_charges> 
27 
1   -0.442284 
2   -0.249653 
3   -0.245992 
4   -0.261795 
5   -0.255805 
6   -0.263704 
7   -0.280819 
8   -0.024594 
9   -0.616893 
10   0.14105 
11   0.141395 
12   0.141551 
13   0.129077 
14   0.137279 
15   0.125936 
16   0.127702 
17   0.129971 
18   0.126451 
19   0.132171 
20   0.130977 
21   0.131834 
22   0.136778 
23   0.14383 
24   0.117203 
25   0.114757 
26   0.1494 
27   0.384175 
 
>  <lowdin_charges> 
27 
1   -0.443569 
2   -0.275517 
3   -0.275011 
4   -0.273063 
5   -0.276933 
6   -0.278724 
7   -0.296027 
8   -0.137546 
9   -0.469117 
10   0.14808 
11   0.147163 
12   0.144604 
13   0.136304 
14   0.141305 
15   0.135222 
16   0.141402 
17   0.142338 
18   0.136004 
19   0.13731 
20   0.142568 
21   0.141065 
22   0.14091 
23   0.147004 
24   0.135566 
25   0.122869 
26   0.147143 
27   0.338649 
 
$$$$ 
 
