PCCDB-ID:  1621 
public computational chemistry database (PCCDB) project, http://pccdb.org 
 
 37 36  0  0  1  0  0  0  0  0999 V2000 
    5.4286   -1.5123    3.5570 C   0  0  0  0  0  0  0  0  0  0  0  0 
    4.1345    1.7991    0.3386 C   0  0  0  0  0  0  0  0  0  0  0  0 
    5.0443    0.5659    0.4300 C   0  0  0  0  0  0  0  0  0  0  0  0 
    4.8637    3.1004   -0.0367 C   0  0  0  0  0  0  0  0  0  0  0  0 
    4.2666   -0.6851    0.8685 C   0  0  0  0  0  0  0  0  0  0  0  0 
    5.6251    3.0516   -1.3827 C   0  0  0  0  0  0  0  0  0  0  0  0 
    5.7803   -2.3842   -0.2709 C   0  0  0  0  0  0  0  0  0  0  0  0 
    6.0620   -2.0272    2.2616 C   0  0  1  0  0  0  0  0  0  0  0  0 
    5.0750   -1.9910    1.0571 C   0  0  1  0  0  0  0  0  0  0  0  0 
    4.7386    2.6140   -2.5395 C   0  0  0  0  0  0  0  0  0  0  0  0 
    6.5181   -3.7083   -0.1741 C   0  0  0  0  0  0  0  0  0  0  0  0 
    7.2850   -1.2582    1.9744 N   0  0  0  0  0  0  0  0  0  0  0  0 
    4.8143    1.5475   -3.0975 O   0  0  0  0  0  0  0  0  0  0  0  0 
    3.7759    3.5056   -2.9149 O   0  0  0  0  0  0  0  0  0  0  0  0 
    7.6889   -3.8122    0.1120 O   0  0  0  0  0  0  0  0  0  0  0  0 
    5.7760   -4.8312   -0.3758 O   0  0  0  0  0  0  0  0  0  0  0  0 
    4.4715   -2.0073    3.7573 H   0  0  0  0  0  0  0  0  0  0  0  0 
    5.2591   -0.4312    3.5166 H   0  0  0  0  0  0  0  0  0  0  0  0 
    6.0895   -1.7155    4.4084 H   0  0  0  0  0  0  0  0  0  0  0  0 
    3.6362    1.9587    1.3052 H   0  0  0  0  0  0  0  0  0  0  0  0 
    3.3312    1.6083   -0.3875 H   0  0  0  0  0  0  0  0  0  0  0  0 
    5.8723    0.7472    1.1240 H   0  0  0  0  0  0  0  0  0  0  0  0 
    5.4954    0.3847   -0.5526 H   0  0  0  0  0  0  0  0  0  0  0  0 
    5.5889    3.3566    0.7460 H   0  0  0  0  0  0  0  0  0  0  0  0 
    4.1355    3.9243   -0.0557 H   0  0  0  0  0  0  0  0  0  0  0  0 
    3.4804   -0.8851    0.1247 H   0  0  0  0  0  0  0  0  0  0  0  0 
    3.7346   -0.4698    1.8041 H   0  0  0  0  0  0  0  0  0  0  0  0 
    6.4550    2.3446   -1.3300 H   0  0  0  0  0  0  0  0  0  0  0  0 
    6.0504    4.0417   -1.5979 H   0  0  0  0  0  0  0  0  0  0  0  0 
    6.5189   -1.6261   -0.5367 H   0  0  0  0  0  0  0  0  0  0  0  0 
    5.0379   -2.4129   -1.0799 H   0  0  0  0  0  0  0  0  0  0  0  0 
    6.2927   -3.0950    2.4257 H   0  0  0  0  0  0  0  0  0  0  0  0 
    4.3328   -2.7756    1.2755 H   0  0  0  0  0  0  0  0  0  0  0  0 
    7.8650   -1.8002    1.3326 H   0  0  0  0  0  0  0  0  0  0  0  0 
    7.8298   -1.1778    2.8326 H   0  0  0  0  0  0  0  0  0  0  0  0 
    3.8482    4.3145   -2.3819 H   0  0  0  0  0  0  0  0  0  0  0  0 
    4.8679   -4.5864   -0.6178 H   0  0  0  0  0  0  0  0  0  0  0  0 
  1 17  1  0  0  0  0 
  1 19  1  0  0  0  0 
  2  3  1  0  0  0  0 
  2 20  1  0  0  0  0 
  3  5  1  0  0  0  0 
  3 22  1  0  0  0  0 
  4  2  1  0  0  0  0 
  4 24  1  0  0  0  0 
  5  9  1  0  0  0  0 
  5 27  1  0  0  0  0 
  6 28  1  0  0  0  0 
  6  4  1  0  0  0  0 
  7 11  1  0  0  0  0 
  7  9  1  0  0  0  0 
  8 32  1  1  0  0  0 
  8  1  1  0  0  0  0 
  9 33  1  1  0  0  0 
  9  8  1  0  0  0  0 
 10  6  1  0  0  0  0 
 11 15  2  0  0  0  0 
 12  8  1  0  0  0  0 
 12 35  1  0  0  0  0 
 13 10  2  0  0  0  0 
 14 10  1  0  0  0  0 
 14 36  1  0  0  0  0 
 16 11  1  0  0  0  0 
 18  1  1  0  0  0  0 
 21  2  1  0  0  0  0 
 23  3  1  0  0  0  0 
 25  4  1  0  0  0  0 
 26  5  1  0  0  0  0 
 29  6  1  0  0  0  0 
 30  7  1  0  0  0  0 
 31  7  1  0  0  0  0 
 34 12  1  0  0  0  0 
 37 16  1  0  0  0  0 
M  END 
>  <HBA> 
5 
 
>  <HBD> 
3 
 
>  <TPSA> 
100.62 
 
>  <cid> 
1621 
 
>  <dipole> 
5.12 
 
>  <excitation_energy_1> 
5.435 
 
>  <excitation_energy_2> 
5.52 
 
>  <excitation_energy_3> 
5.558 
 
>  <excitation_energy_4> 
5.583 
 
>  <homo_energy> 
-6.289 
 
>  <homo_lumo_gap> 
6.449 
 
>  <logP> 
2.16 
 
>  <lumo_energy> 
0.161 
 
>  <melting_point> 
178.68 
 
>  <molecular_refractivity> 
61.24 
 
>  <oscillator_strength_1> 
0.0027 
 
>  <oscillator_strength_2> 
0.0021 
 
>  <oscillator_strength_3> 
0.0002 
 
>  <oscillator_strength_4> 
0.0024 
 
>  <open_babel_can_smiles> 
OC(=O)CCCCC[C@H]([C@@H](N)C)CC(=O)O 
 
>  <mulliken_charges> 
37 
1   -0.462722 
2   -0.265622 
3   -0.271839 
4   -0.272737 
5   -0.271487 
6   -0.383747 
7   -0.399126 
8   0.032854 
9   -0.077251 
10   0.597153 
11   0.596891 
12   -0.741276 
13   -0.444595 
14   -0.564872 
15   -0.452195 
16   -0.562156 
17   0.144758 
18   0.157474 
19   0.142166 
20   0.132136 
21   0.144928 
22   0.169197 
23   0.151944 
24   0.152917 
25   0.123155 
26   0.127848 
27   0.134744 
28   0.187182 
29   0.152446 
30   0.196337 
31   0.148774 
32   0.127076 
33   0.111654 
34   0.323398 
35   0.29352 
36   0.409281 
37   0.411794 
 
>  <lowdin_charges> 
37 
1   -0.448974 
2   -0.280743 
3   -0.290943 
4   -0.274292 
5   -0.275354 
6   -0.321881 
7   -0.322149 
8   -0.064443 
9   -0.127425 
10   0.194833 
11   0.194226 
12   -0.565474 
13   -0.242429 
14   -0.362355 
15   -0.251859 
16   -0.352084 
17   0.151874 
18   0.151813 
19   0.150409 
20   0.142815 
21   0.145351 
22   0.157841 
23   0.148521 
24   0.153492 
25   0.136423 
26   0.140557 
27   0.144003 
28   0.175863 
29   0.157269 
30   0.181071 
31   0.156755 
32   0.124895 
33   0.135184 
34   0.265029 
35   0.254801 
36   0.358051 
37   0.359328 
 
$$$$ 
 
