PCCDB-ID:  832 
public computational chemistry database (PCCDB) project, http://pccdb.org 
 
 21 20  0  0  1  0  0  0  0  0999 V2000 
    1.3554    0.3509   -0.1941 C   0  0  0  0  0  0  0  0  0  0  0  0 
    1.0106    1.7481   -0.7614 C   0  0  1  0  0  0  0  0  0  0  0  0 
    2.8041    0.1359    0.1501 C   0  0  0  0  0  0  0  0  0  0  0  0 
    1.3880    1.8575   -2.2608 C   0  0  0  0  0  0  0  0  0  0  0  0 
   -0.4056    2.0032   -0.5260 N   0  0  0  0  0  0  0  0  0  0  0  0 
    3.7283    0.8782   -0.1637 O   0  0  0  0  0  0  0  0  0  0  0  0 
    0.5462    1.9148   -3.1267 O   0  0  0  0  0  0  0  0  0  0  0  0 
    2.6995    1.8745   -2.5542 O   0  0  0  0  0  0  0  0  0  0  0  0 
    5.3503   -0.3247    1.6925 O   0  0  0  0  0  0  0  0  0  0  0  0 
    4.2678   -2.3654    2.5394 O   0  0  0  0  0  0  0  0  0  0  0  0 
    5.0332   -2.3869    0.0343 O   0  0  0  0  0  0  0  0  0  0  0  0 
    2.9901   -0.9803    0.8779 O   0  0  0  0  0  0  0  0  0  0  0  0 
    4.5385   -1.5910    1.1689 P   0  0  0  0  0  0  0  0  0  0  0  0 
    1.0562   -0.4494   -0.8855 H   0  0  0  0  0  0  0  0  0  0  0  0 
    0.7619    0.1977    0.7135 H   0  0  0  0  0  0  0  0  0  0  0  0 
    1.5922    2.4914   -0.2028 H   0  0  0  0  0  0  0  0  0  0  0  0 
   -0.9291    1.5593   -1.2826 H   0  0  0  0  0  0  0  0  0  0  0  0 
   -0.5830    2.9992   -0.6503 H   0  0  0  0  0  0  0  0  0  0  0  0 
    3.2322    1.7578   -1.7383 H   0  0  0  0  0  0  0  0  0  0  0  0 
    5.2625    0.4098    1.0489 H   0  0  0  0  0  0  0  0  0  0  0  0 
    4.3395   -3.3254    2.4043 H   0  0  0  0  0  0  0  0  0  0  0  0 
  1  3  1  0  0  0  0 
  1 15  1  0  0  0  0 
  2  5  1  0  0  0  0 
  2 16  1  1  0  0  0 
  2  1  1  0  0  0  0 
  3 12  1  0  0  0  0 
  4  2  1  0  0  0  0 
  6  3  2  0  0  0  0 
  7  4  2  0  0  0  0 
  8  4  1  0  0  0  0 
  8 19  1  0  0  0  0 
 11 13  2  0  0  0  0 
 12 13  1  0  0  0  0 
 13  9  1  0  0  0  0 
 13 10  1  0  0  0  0 
 14  1  1  0  0  0  0 
 17  5  1  0  0  0  0 
 18  5  1  0  0  0  0 
 20  9  1  0  0  0  0 
 21 10  1  0  0  0  0 
M  END 
>  <HBA> 
8 
 
>  <HBD> 
4 
 
>  <TPSA> 
156.96 
 
>  <cid> 
832 
 
>  <dipole> 
3.88 
 
>  <excitation_energy_1> 
4.909 
 
>  <excitation_energy_2> 
5.525 
 
>  <excitation_energy_3> 
5.652 
 
>  <excitation_energy_4> 
5.971 
 
>  <homo_energy> 
-7.162 
 
>  <homo_lumo_gap> 
5.644 
 
>  <logP> 
-0.875 
 
>  <lumo_energy> 
-1.518 
 
>  <melting_point> 
207.29 
 
>  <molecular_refractivity> 
38.09 
 
>  <oscillator_strength_1> 
0.0045 
 
>  <oscillator_strength_2> 
0.009 
 
>  <oscillator_strength_3> 
0.003 
 
>  <oscillator_strength_4> 
0.0005 
 
>  <open_babel_can_smiles> 
O=C(OP(=O)(O)O)C[C@@H](C(=O)O)N 
 
>  <mulliken_charges> 
21 
1   -0.369401 
2   -0.114801 
3   0.663634 
4   0.575143 
5   -0.69898 
6   -0.525698 
7   -0.448144 
8   -0.579959 
9   -0.627246 
10   -0.606398 
11   -0.501718 
12   -0.505315 
13   1.140288 
14   0.212446 
15   0.225362 
16   0.168398 
17   0.318518 
18   0.313787 
19   0.442829 
20   0.461058 
21   0.456198 
 
>  <lowdin_charges> 
21 
1   -0.302482 
2   -0.113208 
3   0.241342 
4   0.173351 
5   -0.530589 
6   -0.285731 
7   -0.252459 
8   -0.355473 
9   -0.542154 
10   -0.531888 
11   -0.550782 
12   -0.311439 
13   1.130398 
14   0.192675 
15   0.200663 
16   0.163063 
17   0.267964 
18   0.264841 
19   0.35994 
20   0.386902 
21   0.395066 
 
$$$$ 
 
