PCCDB-ID:  1562 
public computational chemistry database (PCCDB) project, http://pccdb.org 
 
 25 24  0  0  1  0  0  0  0  0999 V2000 
    0.8469   -0.0557   -0.0120 C   0  0  0  0  0  0  0  0  0  0  0  0 
    2.4762    1.8587   -0.2351 C   0  0  0  0  0  0  0  0  0  0  0  0 
    3.2510   -0.4199    0.6384 C   0  0  0  0  0  0  0  0  0  0  0  0 
    2.3010    0.3340   -0.3159 C   0  0  0  0  0  0  0  0  0  0  0  0 
    4.7361   -0.3396    0.2443 C   0  0  1  0  0  0  0  0  0  0  0  0 
    5.6722   -0.7441    1.3620 C   0  0  0  0  0  0  0  0  0  0  0  0 
    5.0458   -1.2035   -1.0103 C   0  0  0  0  0  0  0  0  0  0  0  0 
    6.8862   -0.3666    1.5444 N   0  0  0  0  0  0  0  0  0  0  0  0 
    5.1551   -1.6123    2.2560 O   0  0  0  0  0  0  0  0  0  0  0  0 
    4.2491   -1.9600   -1.5073 O   0  0  0  0  0  0  0  0  0  0  0  0 
    6.2786   -1.0422   -1.5253 O   0  0  0  0  0  0  0  0  0  0  0  0 
    7.3005    0.5253    0.4991 O   0  0  0  0  0  0  0  0  0  0  0  0 
    0.1522    0.4576   -0.6870 H   0  0  0  0  0  0  0  0  0  0  0  0 
    0.5716    0.2147    1.0162 H   0  0  0  0  0  0  0  0  0  0  0  0 
    0.6941   -1.1345   -0.1280 H   0  0  0  0  0  0  0  0  0  0  0  0 
    1.7926    2.3656   -0.9259 H   0  0  0  0  0  0  0  0  0  0  0  0 
    3.4919    2.1819   -0.4926 H   0  0  0  0  0  0  0  0  0  0  0  0 
    2.2570    2.2247    0.7769 H   0  0  0  0  0  0  0  0  0  0  0  0 
    2.9675   -1.4755    0.6749 H   0  0  0  0  0  0  0  0  0  0  0  0 
    3.1310   -0.0202    1.6534 H   0  0  0  0  0  0  0  0  0  0  0  0 
    2.5247    0.0094   -1.3400 H   0  0  0  0  0  0  0  0  0  0  0  0 
    5.0108    0.6904   -0.0123 H   0  0  0  0  0  0  0  0  0  0  0  0 
    5.8553   -1.8160    2.9040 H   0  0  0  0  0  0  0  0  0  0  0  0 
    6.7982   -0.4096   -0.9795 H   0  0  0  0  0  0  0  0  0  0  0  0 
    8.2281    0.6884    0.7308 H   0  0  0  0  0  0  0  0  0  0  0  0 
  1 14  1  0  0  0  0 
  2 18  1  0  0  0  0 
  3 19  1  0  0  0  0 
  3 20  1  0  0  0  0 
  4  2  1  0  0  0  0 
  4  1  1  0  0  0  0 
  4  3  1  0  0  0  0 
  5 22  1  6  0  0  0 
  5  3  1  0  0  0  0 
  5  6  1  0  0  0  0 
  6  8  2  0  0  0  0 
  6  9  1  0  0  0  0 
  7  5  1  0  0  0  0 
  9 23  1  0  0  0  0 
 10  7  2  0  0  0  0 
 11  7  1  0  0  0  0 
 11 24  1  0  0  0  0 
 12 25  1  0  0  0  0 
 12  8  1  0  0  0  0 
 13  1  1  0  0  0  0 
 15  1  1  0  0  0  0 
 16  2  1  0  0  0  0 
 17  2  1  0  0  0  0 
 21  4  1  0  0  0  0 
M  END 
>  <HBA> 
5 
 
>  <HBD> 
3 
 
>  <TPSA> 
86.63 
 
>  <cid> 
1562 
 
>  <dipole> 
4.57 
 
>  <excitation_energy_1> 
5.501 
 
>  <excitation_energy_2> 
5.898 
 
>  <excitation_energy_3> 
6.135 
 
>  <excitation_energy_4> 
6.195 
 
>  <homo_energy> 
-6.972 
 
>  <homo_lumo_gap> 
6.653 
 
>  <logP> 
0.63 
 
>  <lumo_energy> 
-0.318 
 
>  <melting_point> 
152.41 
 
>  <molecular_refractivity> 
41.27 
 
>  <oscillator_strength_1> 
0.0203 
 
>  <oscillator_strength_2> 
0.0047 
 
>  <oscillator_strength_3> 
0.0009 
 
>  <oscillator_strength_4> 
0.0486 
 
>  <open_babel_can_smiles> 
O/N=C(\[C@@H](C(=O)O)CC(C)C)/O 
 
>  <mulliken_charges> 
25 
1   -0.446298 
2   -0.450495 
3   -0.246858 
4   -0.082012 
5   -0.30331 
6   0.547397 
7   0.610609 
8   -0.286781 
9   -0.578782 
10   -0.439268 
11   -0.590249 
12   -0.538984 
13   0.141489 
14   0.13594 
15   0.152374 
16   0.147103 
17   0.138127 
18   0.138915 
19   0.17144 
20   0.13616 
21   0.150297 
22   0.19652 
23   0.421278 
24   0.440348 
25   0.435041 
 
>  <lowdin_charges> 
25 
1   -0.440825 
2   -0.448509 
3   -0.266623 
4   -0.122998 
5   -0.186606 
6   0.118354 
7   0.198163 
8   -0.141541 
9   -0.337385 
10   -0.238161 
11   -0.362048 
12   -0.39007 
13   0.150473 
14   0.14297 
15   0.152108 
16   0.15351 
17   0.142709 
18   0.144358 
19   0.164451 
20   0.147349 
21   0.148763 
22   0.178303 
23   0.369123 
24   0.357881 
25   0.366252 
 
$$$$ 
 
