PCCDB-ID:  679 
public computational chemistry database (PCCDB) project, http://pccdb.org 
 
 10  9  0  0  0  0  0  0  0  0999 V2000 
    1.1048   -0.1706    0.0455 C   0  0  0  0  0  0  0  0  0  0  0  0 
    3.3316   -1.6984   -0.3353 C   0  0  0  0  0  0  0  0  0  0  0  0 
    3.3373    0.9181   -1.0336 O   0  0  0  0  0  0  0  0  0  0  0  0 
    2.9295    0.0354    0.1233 S   0  0  0  0  0  0  0  0  0  0  0  0 
    0.7776   -0.8912    0.8013 H   0  0  0  0  0  0  0  0  0  0  0  0 
    0.8164   -0.4976   -0.9580 H   0  0  0  0  0  0  0  0  0  0  0  0 
    0.6642    0.8078    0.2516 H   0  0  0  0  0  0  0  0  0  0  0  0 
    2.9523   -2.3843    0.4285 H   0  0  0  0  0  0  0  0  0  0  0  0 
    4.4206   -1.7699   -0.3893 H   0  0  0  0  0  0  0  0  0  0  0  0 
    2.9010   -1.9267   -1.3149 H   0  0  0  0  0  0  0  0  0  0  0  0 
  1  4  1  0  0  0  0 
  1  7  1  0  0  0  0 
  1  5  1  0  0  0  0 
  2  4  1  0  0  0  0 
  2  8  1  0  0  0  0 
  3  4  2  0  0  0  0 
  6  1  1  0  0  0  0 
  9  2  1  0  0  0  0 
 10  2  1  0  0  0  0 
M  END 
>  <HBA> 
1 
 
>  <HBD> 
0 
 
>  <TPSA> 
36.28 
 
>  <cid> 
679 
 
>  <dipole> 
3.93 
 
>  <excitation_energy_1> 
5.568 
 
>  <excitation_energy_2> 
5.668 
 
>  <excitation_energy_3> 
5.805 
 
>  <excitation_energy_4> 
6.162 
 
>  <homo_energy> 
-6.052 
 
>  <homo_lumo_gap> 
7.214 
 
>  <logP> 
0.86 
 
>  <lumo_energy> 
1.162 
 
>  <melting_point> 
-4.6 
 
>  <molecular_refractivity> 
20.01 
 
>  <oscillator_strength_1> 
0.0575 
 
>  <oscillator_strength_2> 
0.0071 
 
>  <oscillator_strength_3> 
0.0243 
 
>  <oscillator_strength_4> 
0.063 
 
>  <open_babel_can_smiles> 
CS(=O)C 
 
>  <mulliken_charges> 
10 
1   -0.627175 
2   -0.627284 
3   -0.624687 
4   0.750081 
5   0.172763 
6   0.193117 
7   0.198609 
8   0.172784 
9   0.198604 
10   0.193187 
 
>  <lowdin_charges> 
10 
1   -0.601724 
2   -0.600651 
3   -0.676898 
4   0.818941 
5   0.173939 
6   0.174205 
7   0.182588 
8   0.174031 
9   0.181082 
10   0.174487 
 
$$$$ 
 
