PCCDB-ID:  3657 
public computational chemistry database (PCCDB) project, http://pccdb.org 
 
  9  8  0  0  0  0  0  0  0  0999 V2000 
    0.9140   -0.1574    0.0888 C   0  0  0  0  0  0  0  0  0  0  0  0 
    0.3990   -0.7388    1.1002 N   0  0  0  0  0  0  0  0  0  0  0  0 
    0.2470    0.5808   -0.9010 N   0  0  0  0  0  0  0  0  0  0  0  0 
    2.2176   -0.3162   -0.2136 O   0  0  0  0  0  0  0  0  0  0  0  0 
    1.0137    1.6320   -1.4782 O   0  0  0  0  0  0  0  0  0  0  0  0 
   -0.5882   -0.5114    1.2210 H   0  0  0  0  0  0  0  0  0  0  0  0 
   -0.6042    1.0069   -0.5479 H   0  0  0  0  0  0  0  0  0  0  0  0 
    2.5683   -0.8891    0.4914 H   0  0  0  0  0  0  0  0  0  0  0  0 
    1.2764    1.2638   -2.3377 H   0  0  0  0  0  0  0  0  0  0  0  0 
  1  2  2  0  0  0  0 
  2  6  1  0  0  0  0 
  3  7  1  0  0  0  0 
  3  1  1  0  0  0  0 
  4  1  1  0  0  0  0 
  4  8  1  0  0  0  0 
  5  3  1  0  0  0  0 
  9  5  1  0  0  0  0 
M  END 
>  <HBA> 
4 
 
>  <HBD> 
3 
 
>  <TPSA> 
75.35 
 
>  <cid> 
3657 
 
>  <dipole> 
1.41 
 
>  <excitation_energy_1> 
5.808 
 
>  <excitation_energy_2> 
6.103 
 
>  <excitation_energy_3> 
6.742 
 
>  <excitation_energy_4> 
6.768 
 
>  <homo_energy> 
-6.642 
 
>  <homo_lumo_gap> 
7.472 
 
>  <logP> 
0.135 
 
>  <lumo_energy> 
0.83 
 
>  <melting_point> 
143.82 
 
>  <molecular_refractivity> 
13.75 
 
>  <oscillator_strength_1> 
0.0117 
 
>  <oscillator_strength_2> 
0.0302 
 
>  <oscillator_strength_3> 
0.0105 
 
>  <oscillator_strength_4> 
0.0099 
 
>  <open_babel_can_smiles> 
ONC(=N)O 
 
>  <mulliken_charges> 
9 
1   0.643763 
2   -0.639152 
3   -0.391598 
4   -0.57557 
5   -0.500662 
6   0.280401 
7   0.335235 
8   0.424156 
9   0.423427 
 
>  <lowdin_charges> 
9 
1   0.150665 
2   -0.467037 
3   -0.20191 
4   -0.358746 
5   -0.391535 
6   0.257193 
7   0.279997 
8   0.372211 
9   0.359162 
 
$$$$ 
 
