PCCDB-ID:  800 
public computational chemistry database (PCCDB) project, http://pccdb.org 
 
 21 22  0  0  0  0  0  0  0  0999 V2000 
    2.3122   -0.3973   -0.0805 C   0  0  0  0  0  0  0  0  0  0  0  0 
    2.2038    1.0071   -0.0100 C   0  0  0  0  0  0  0  0  0  0  0  0 
    1.1832   -1.2063   -0.0769 C   0  0  0  0  0  0  0  0  0  0  0  0 
    0.9649    1.6326    0.0680 C   0  0  0  0  0  0  0  0  0  0  0  0 
   -1.8418   -2.5578   -0.0398 C   0  0  0  0  0  0  0  0  0  0  0  0 
   -1.3969   -3.2894    1.2180 C   0  0  0  0  0  0  0  0  0  0  0  0 
   -2.2628   -0.0195    0.1026 C   0  0  0  0  0  0  0  0  0  0  0  0 
   -1.4354   -1.1112    0.0111 C   0  0  0  0  0  0  0  0  0  0  0  0 
   -0.0844   -0.6019   -0.0037 C   0  0  0  0  0  0  0  0  0  0  0  0 
   -0.1700    0.8149    0.0706 C   0  0  0  0  0  0  0  0  0  0  0  0 
   -1.5111    1.1389    0.1376 N   0  0  0  0  0  0  0  0  0  0  0  0 
   -0.6158   -4.2142    1.2341 O   0  0  0  0  0  0  0  0  0  0  0  0 
    3.2977   -0.8514   -0.1349 H   0  0  0  0  0  0  0  0  0  0  0  0 
    3.1059    1.6128   -0.0140 H   0  0  0  0  0  0  0  0  0  0  0  0 
    1.2749   -2.2881   -0.1197 H   0  0  0  0  0  0  0  0  0  0  0  0 
    0.8830    2.7151    0.1240 H   0  0  0  0  0  0  0  0  0  0  0  0 
   -2.9366   -2.6306   -0.1056 H   0  0  0  0  0  0  0  0  0  0  0  0 
   -1.4115   -3.0775   -0.9036 H   0  0  0  0  0  0  0  0  0  0  0  0 
   -1.8312   -2.8878    2.1614 H   0  0  0  0  0  0  0  0  0  0  0  0 
   -3.3432    0.0258    0.1374 H   0  0  0  0  0  0  0  0  0  0  0  0 
   -1.8857    2.0734    0.1841 H   0  0  0  0  0  0  0  0  0  0  0  0 
  1  3  2  0  0  0  0 
  1  2  1  0  0  0  0 
  2  4  2  0  0  0  0 
  3  9  1  0  0  0  0 
  4 10  1  0  0  0  0 
  4 16  1  0  0  0  0 
  5  8  1  0  0  0  0 
  5  6  1  0  0  0  0 
  6 12  2  0  0  0  0 
  6 19  1  0  0  0  0 
  7 20  1  0  0  0  0 
  7 11  1  0  0  0  0 
  8  7  2  0  0  0  0 
  9  8  1  0  0  0  0 
  9 10  2  0  0  0  0 
 10 11  1  0  0  0  0 
 11 21  1  0  0  0  0 
 13  1  1  0  0  0  0 
 14  2  1  0  0  0  0 
 15  3  1  0  0  0  0 
 17  5  1  0  0  0  0 
 18  5  1  0  0  0  0 
M  END 
>  <HBA> 
1 
 
>  <HBD> 
1 
 
>  <TPSA> 
32.86 
 
>  <cid> 
800 
 
>  <dipole> 
4.63 
 
>  <excitation_energy_1> 
3.952 
 
>  <excitation_energy_2> 
4.445 
 
>  <excitation_energy_3> 
4.613 
 
>  <excitation_energy_4> 
4.713 
 
>  <homo_energy> 
-5.551 
 
>  <homo_lumo_gap> 
4.936 
 
>  <logP> 
1.909 
 
>  <lumo_energy> 
-0.615 
 
>  <melting_point> 
130.82 
 
>  <molecular_refractivity> 
48.27 
 
>  <oscillator_strength_1> 
0.0205 
 
>  <oscillator_strength_2> 
0.01 
 
>  <oscillator_strength_3> 
0.0299 
 
>  <oscillator_strength_4> 
0.063 
 
>  <open_babel_can_smiles> 
O=CCc1c[nH]c2c1cccc2 
 
>  <mulliken_charges> 
21 
1   -0.141058 
2   -0.149261 
3   -0.209794 
4   -0.162869 
5   -0.408805 
6   0.268637 
7   0.001773 
8   0.048626 
9   0.081225 
10   0.315622 
11   -0.689692 
12   -0.386825 
13   0.12525 
14   0.124967 
15   0.146404 
16   0.122051 
17   0.156312 
18   0.172605 
19   0.106568 
20   0.149459 
21   0.328802 
 
>  <lowdin_charges> 
21 
1   -0.172322 
2   -0.162087 
3   -0.158637 
4   -0.184774 
5   -0.297194 
6   0.055633 
7   -0.131881 
8   -0.065995 
9   -0.036276 
10   0.032322 
11   -0.197358 
12   -0.218014 
13   0.156584 
14   0.157244 
15   0.163846 
16   0.153803 
17   0.164461 
18   0.16822 
19   0.117791 
20   0.162923 
21   0.291711 
 
$$$$ 
 
