PCCDB-ID:  6094 
public computational chemistry database (PCCDB) project, http://pccdb.org 
 
 22 22  0  0  0  0  0  0  0  0999 V2000 
    0.9023   -0.0615   -0.1429 C   0  0  0  0  0  0  0  0  0  0  0  0 
    5.2737   -2.5958   -0.1033 C   0  0  0  0  0  0  0  0  0  0  0  0 
    4.5686    1.0068   -0.0696 C   0  0  0  0  0  0  0  0  0  0  0  0 
    2.5460    2.4970   -0.0631 C   0  0  0  0  0  0  0  0  0  0  0  0 
    2.4145   -0.0618   -0.1152 C   0  0  0  0  0  0  0  0  0  0  0  0 
    4.5279   -1.2885   -0.0968 C   0  0  0  0  0  0  0  0  0  0  0  0 
    3.1784    1.1229   -0.0806 C   0  0  0  0  0  0  0  0  0  0  0  0 
    3.1182   -1.2711   -0.1075 C   0  0  0  0  0  0  0  0  0  0  0  0 
    5.2336   -0.1550   -0.0795 N   0  0  0  0  0  0  0  0  0  0  0  0 
    1.7591    2.7846   -1.2225 O   0  0  0  0  0  0  0  0  0  0  0  0 
    2.4964   -2.4915   -0.1153 O   0  0  0  0  0  0  0  0  0  0  0  0 
    0.5157    0.9201   -0.4185 H   0  0  0  0  0  0  0  0  0  0  0  0 
    0.4766   -0.3423    0.8310 H   0  0  0  0  0  0  0  0  0  0  0  0 
    0.5143   -0.7696   -0.8889 H   0  0  0  0  0  0  0  0  0  0  0  0 
    5.0311   -3.1880   -0.9941 H   0  0  0  0  0  0  0  0  0  0  0  0 
    5.0043   -3.2112    0.7636 H   0  0  0  0  0  0  0  0  0  0  0  0 
    6.3472   -2.3969   -0.0850 H   0  0  0  0  0  0  0  0  0  0  0  0 
    5.1841    1.9060   -0.0470 H   0  0  0  0  0  0  0  0  0  0  0  0 
    3.3337    3.2533    0.0718 H   0  0  0  0  0  0  0  0  0  0  0  0 
    1.8524    2.6026    0.7781 H   0  0  0  0  0  0  0  0  0  0  0  0 
    2.3229    2.6255   -1.9963 H   0  0  0  0  0  0  0  0  0  0  0  0 
    1.5363   -2.3633   -0.0809 H   0  0  0  0  0  0  0  0  0  0  0  0 
  1  5  1  0  0  0  0 
  1 13  1  0  0  0  0 
  2  6  1  0  0  0  0 
  2 17  1  0  0  0  0 
  2 16  1  0  0  0  0 
  3 18  1  0  0  0  0 
  4 19  1  0  0  0  0 
  4 20  1  0  0  0  0 
  5  8  2  0  0  0  0 
  5  7  1  0  0  0  0 
  6  9  2  0  0  0  0 
  7  3  2  0  0  0  0 
  7  4  1  0  0  0  0 
  8  6  1  0  0  0  0 
  9  3  1  0  0  0  0 
 10  4  1  0  0  0  0 
 11  8  1  0  0  0  0 
 11 22  1  0  0  0  0 
 12  1  1  0  0  0  0 
 14  1  1  0  0  0  0 
 15  2  1  0  0  0  0 
 21 10  1  0  0  0  0 
M  END 
>  <HBA> 
3 
 
>  <HBD> 
2 
 
>  <TPSA> 
53.35 
 
>  <cid> 
6094 
 
>  <dipole> 
2.09 
 
>  <excitation_energy_1> 
4.858 
 
>  <excitation_energy_2> 
4.87 
 
>  <excitation_energy_3> 
5.305 
 
>  <excitation_energy_4> 
5.418 
 
>  <homo_energy> 
-6.142 
 
>  <homo_lumo_gap> 
5.581 
 
>  <logP> 
0.896 
 
>  <lumo_energy> 
-0.561 
 
>  <melting_point> 
91.93 
 
>  <molecular_refractivity> 
42.32 
 
>  <oscillator_strength_1> 
0.0711 
 
>  <oscillator_strength_2> 
0.0489 
 
>  <oscillator_strength_3> 
0.0045 
 
>  <oscillator_strength_4> 
0.0007 
 
>  <open_babel_can_smiles> 
OCc1cnc(c(c1C)O)C 
 
>  <mulliken_charges> 
22 
1   -0.591053 
2   -0.502157 
3   -0.032653 
4   -0.124634 
5   0.144435 
6   0.277459 
7   0.052399 
8   0.231392 
9   -0.469163 
10   -0.606561 
11   -0.645084 
12   0.211387 
13   0.168398 
14   0.154833 
15   0.164035 
16   0.164607 
17   0.169714 
18   0.129175 
19   0.140648 
20   0.156596 
21   0.390659 
22   0.415568 
 
>  <lowdin_charges> 
22 
1   -0.464208 
2   -0.44314 
3   -0.125298 
4   -0.134998 
5   -0.027262 
6   0.033435 
7   -0.059313 
8   0.067131 
9   -0.15288 
10   -0.467757 
11   -0.375814 
12   0.187403 
13   0.161467 
14   0.156442 
15   0.164692 
16   0.165207 
17   0.166742 
18   0.151824 
19   0.140537 
20   0.1541 
21   0.344603 
22   0.357088 
 
$$$$ 
 
