PCCDB-ID:  852 
public computational chemistry database (PCCDB) project, http://pccdb.org 
 
 19 18  0  0  1  0  0  0  0  0999 V2000 
    1.1140   -0.0487    0.3659 C   0  0  0  0  0  0  0  0  0  0  0  0 
    2.6147    0.0504    0.0059 C   0  0  1  0  0  0  0  0  0  0  0  0 
    3.0817   -1.1919   -0.8131 C   0  0  1  0  0  0  0  0  0  0  0  0 
    2.8482    1.3574   -0.7498 C   0  0  0  0  0  0  0  0  0  0  0  0 
    4.6256   -1.2089   -0.9893 C   0  0  0  0  0  0  0  0  0  0  0  0 
    2.6295   -2.4171   -0.1590 N   0  0  0  0  0  0  0  0  0  0  0  0 
    3.1526    1.4363   -1.9249 O   0  0  0  0  0  0  0  0  0  0  0  0 
    2.6402    2.4946   -0.0570 O   0  0  0  0  0  0  0  0  0  0  0  0 
    5.3217   -1.9504   -0.3305 O   0  0  0  0  0  0  0  0  0  0  0  0 
    5.1529   -0.3835   -1.9024 O   0  0  0  0  0  0  0  0  0  0  0  0 
    0.9314   -1.0043    0.8578 H   0  0  0  0  0  0  0  0  0  0  0  0 
    0.4973   -0.0044   -0.5386 H   0  0  0  0  0  0  0  0  0  0  0  0 
    0.7972    0.7634    1.0306 H   0  0  0  0  0  0  0  0  0  0  0  0 
    3.1960    0.0845    0.9399 H   0  0  0  0  0  0  0  0  0  0  0  0 
    2.6134   -1.1207   -1.8014 H   0  0  0  0  0  0  0  0  0  0  0  0 
    3.3760   -2.7093    0.4747 H   0  0  0  0  0  0  0  0  0  0  0  0 
    2.5698   -3.1593   -0.8536 H   0  0  0  0  0  0  0  0  0  0  0  0 
    2.3991    2.2914    0.8624 H   0  0  0  0  0  0  0  0  0  0  0  0 
    4.4549    0.2218   -2.2419 H   0  0  0  0  0  0  0  0  0  0  0  0 
  1 11  1  0  0  0  0 
  1 13  1  0  0  0  0 
  2  1  1  0  0  0  0 
  2 14  1  1  0  0  0 
  3 15  1  6  0  0  0 
  3  6  1  0  0  0  0 
  3  2  1  0  0  0  0 
  4  8  1  0  0  0  0 
  4  2  1  0  0  0  0 
  5  3  1  0  0  0  0 
  5  9  2  0  0  0  0 
  6 16  1  0  0  0  0 
  7  4  2  0  0  0  0 
  8 18  1  0  0  0  0 
 10  5  1  0  0  0  0 
 12  1  1  0  0  0  0 
 17  6  1  0  0  0  0 
 19 10  1  0  0  0  0 
M  END 
>  <HBA> 
5 
 
>  <HBD> 
3 
 
>  <TPSA> 
100.62 
 
>  <cid> 
852 
 
>  <dipole> 
4.31 
 
>  <excitation_energy_1> 
5.374 
 
>  <excitation_energy_2> 
5.654 
 
>  <excitation_energy_3> 
5.727 
 
>  <excitation_energy_4> 
5.981 
 
>  <homo_energy> 
-6.988 
 
>  <homo_lumo_gap> 
6.299 
 
>  <logP> 
-0.181 
 
>  <lumo_energy> 
-0.688 
 
>  <melting_point> 
182.67 
 
>  <molecular_refractivity> 
32.4 
 
>  <oscillator_strength_1> 
0.0002 
 
>  <oscillator_strength_2> 
0.0018 
 
>  <oscillator_strength_3> 
0.0024 
 
>  <oscillator_strength_4> 
0.0075 
 
>  <open_babel_can_smiles> 
OC(=O)[C@H]([C@@H](C(=O)O)C)N 
 
>  <mulliken_charges> 
19 
1   -0.450892 
2   -0.21941 
3   -0.101504 
4   0.636143 
5   0.575707 
6   -0.712609 
7   -0.480467 
8   -0.551679 
9   -0.459728 
10   -0.579857 
11   0.210994 
12   0.165865 
13   0.132889 
14   0.16551 
15   0.163251 
16   0.323107 
17   0.31226 
18   0.422656 
19   0.447765 
 
>  <lowdin_charges> 
19 
1   -0.443314 
2   -0.171106 
3   -0.110479 
4   0.207591 
5   0.172351 
6   -0.536846 
7   -0.262945 
8   -0.323881 
9   -0.261365 
10   -0.350583 
11   0.185206 
12   0.161513 
13   0.144951 
14   0.162001 
15   0.160182 
16   0.269161 
17   0.266929 
18   0.365262 
19   0.365373 
 
$$$$ 
 
