PCCDB-ID:  777 
public computational chemistry database (PCCDB) project, http://pccdb.org 
 
 19 19  0  0  0  0  0  0  0  0999 V2000 
    1.0512    0.1509    0.2245 C   0  0  0  0  0  0  0  0  0  0  0  0 
    4.5077   -1.0554   -0.1404 C   0  0  0  0  0  0  0  0  0  0  0  0 
    6.7583    0.0030   -0.4708 C   0  0  0  0  0  0  0  0  0  0  0  0 
    2.5366    0.0684    0.0093 C   0  0  0  0  0  0  0  0  0  0  0  0 
    5.2588    0.0592   -0.3669 C   0  0  0  0  0  0  0  0  0  0  0  0 
    4.5812    1.3548   -0.4567 C   0  0  0  0  0  0  0  0  0  0  0  0 
    5.0328    2.5294   -0.7052 N   0  0  0  0  0  0  0  0  0  0  0  0 
    3.1421   -1.0885    0.0435 N   0  0  0  0  0  0  0  0  0  0  0  0 
    3.1949    1.2377   -0.2129 N   0  0  0  0  0  0  0  0  0  0  0  0 
    7.2813    0.6095   -1.6554 O   0  0  0  0  0  0  0  0  0  0  0  0 
    0.6580   -0.8572    0.3579 H   0  0  0  0  0  0  0  0  0  0  0  0 
    0.5526    0.6214   -0.6315 H   0  0  0  0  0  0  0  0  0  0  0  0 
    0.8164    0.7469    1.1151 H   0  0  0  0  0  0  0  0  0  0  0  0 
    4.9945   -2.0283   -0.0786 H   0  0  0  0  0  0  0  0  0  0  0  0 
    7.0936   -1.0414   -0.3765 H   0  0  0  0  0  0  0  0  0  0  0  0 
    7.2164    0.5694    0.3491 H   0  0  0  0  0  0  0  0  0  0  0  0 
    6.0290    2.4775   -0.9204 H   0  0  0  0  0  0  0  0  0  0  0  0 
    2.6902    2.1173   -0.2486 H   0  0  0  0  0  0  0  0  0  0  0  0 
    6.8278    0.2068   -2.4133 H   0  0  0  0  0  0  0  0  0  0  0  0 
  1 11  1  0  0  0  0 
  1 13  1  0  0  0  0 
  2 14  1  0  0  0  0 
  2  8  1  0  0  0  0 
  3 15  1  0  0  0  0 
  3  5  1  0  0  0  0 
  3 16  1  0  0  0  0 
  4  8  2  0  0  0  0 
  4  1  1  0  0  0  0 
  5  2  2  0  0  0  0 
  6  5  1  0  0  0  0 
  6  9  1  0  0  0  0 
  7  6  2  0  0  0  0 
  9  4  1  0  0  0  0 
 10  3  1  0  0  0  0 
 12  1  1  0  0  0  0 
 17  7  1  0  0  0  0 
 18  9  1  0  0  0  0 
 19 10  1  0  0  0  0 
M  END 
>  <HBA> 
4 
 
>  <HBD> 
2 
 
>  <TPSA> 
72.03 
 
>  <cid> 
777 
 
>  <dipole> 
2.38 
 
>  <excitation_energy_1> 
4.011 
 
>  <excitation_energy_2> 
4.902 
 
>  <excitation_energy_3> 
4.917 
 
>  <excitation_energy_4> 
5.211 
 
>  <homo_energy> 
-5.788 
 
>  <homo_lumo_gap> 
4.702 
 
>  <logP> 
0.441 
 
>  <lumo_energy> 
-1.086 
 
>  <melting_point> 
111.78 
 
>  <molecular_refractivity> 
37.53 
 
>  <oscillator_strength_1> 
0.0872 
 
>  <oscillator_strength_2> 
0.0031 
 
>  <oscillator_strength_3> 
0.0008 
 
>  <oscillator_strength_4> 
0.0084 
 
>  <open_babel_can_smiles> 
Cc1ncc(c(=N)[nH]1)CO 
 
>  <mulliken_charges> 
19 
1   -0.533705 
2   -0.039338 
3   -0.121748 
4   0.53189 
5   0.076764 
6   0.44716 
7   -0.673875 
8   -0.483564 
9   -0.636661 
10   -0.60659 
11   0.199611 
12   0.174239 
13   0.177235 
14   0.141989 
15   0.138825 
16   0.165727 
17   0.307912 
18   0.341411 
19   0.392718 
 
>  <lowdin_charges> 
19 
1   -0.45216 
2   -0.086499 
3   -0.130362 
4   0.123202 
5   -0.099938 
6   0.085995 
7   -0.451027 
8   -0.216521 
9   -0.198173 
10   -0.465221 
11   0.184866 
12   0.170451 
13   0.171866 
14   0.158243 
15   0.138088 
16   0.15831 
17   0.263868 
18   0.298916 
19   0.346097 
 
$$$$ 
 
