PCCDB-ID:  4782 
public computational chemistry database (PCCDB) project, http://pccdb.org 
 
 25 25  0  0  1  0  0  0  0  0999 V2000 
    2.9733   -0.2129    3.1967 C   0  0  0  0  0  0  0  0  0  0  0  0 
    2.3591    3.7038   -2.3859 C   0  0  0  0  0  0  0  0  0  0  0  0 
    3.0120    3.2635   -1.2356 C   0  0  0  0  0  0  0  0  0  0  0  0 
    2.2454    2.8778   -3.5051 C   0  0  0  0  0  0  0  0  0  0  0  0 
    3.4647    1.1508   -2.3227 C   0  0  0  0  0  0  0  0  0  0  0  0 
    3.2546    0.6177    0.9013 C   0  0  0  0  0  0  0  0  0  0  0  0 
    3.5685    1.9787   -1.2026 C   0  0  0  0  0  0  0  0  0  0  0  0 
    2.8020    1.5956   -3.4698 C   0  0  0  0  0  0  0  0  0  0  0  0 
    4.2364    1.4553    0.0539 C   0  0  1  0  0  0  0  0  0  0  0  0 
    3.8924    0.2951    2.1800 N   0  0  0  0  0  0  0  0  0  0  0  0 
    2.7351    0.7309   -4.5307 O   0  0  0  0  0  0  0  0  0  0  0  0 
    4.7204    2.5252    0.8443 O   0  0  0  0  0  0  0  0  0  0  0  0 
    3.5336   -0.4528    4.1062 H   0  0  0  0  0  0  0  0  0  0  0  0 
    2.4122   -1.1115    2.8868 H   0  0  0  0  0  0  0  0  0  0  0  0 
    2.2456    0.5670    3.4458 H   0  0  0  0  0  0  0  0  0  0  0  0 
    1.9332    4.7034   -2.4174 H   0  0  0  0  0  0  0  0  0  0  0  0 
    3.1158    3.9055   -0.3686 H   0  0  0  0  0  0  0  0  0  0  0  0 
    1.7353    3.2273   -4.4014 H   0  0  0  0  0  0  0  0  0  0  0  0 
    3.9019    0.1557   -2.3285 H   0  0  0  0  0  0  0  0  0  0  0  0 
    2.9128   -0.2662    0.3364 H   0  0  0  0  0  0  0  0  0  0  0  0 
    2.3723    1.2335    1.1135 H   0  0  0  0  0  0  0  0  0  0  0  0 
    5.0733    0.7968   -0.2468 H   0  0  0  0  0  0  0  0  0  0  0  0 
    4.6298   -0.3909    2.0211 H   0  0  0  0  0  0  0  0  0  0  0  0 
    2.2659    1.1672   -5.2587 H   0  0  0  0  0  0  0  0  0  0  0  0 
    4.7413    2.1536    1.7499 H   0  0  0  0  0  0  0  0  0  0  0  0 
  1 15  1  0  0  0  0 
  1 13  1  0  0  0  0 
  2  3  2  0  0  0  0 
  3  7  1  0  0  0  0 
  3 17  1  0  0  0  0 
  4  8  2  0  0  0  0 
  4  2  1  0  0  0  0 
  5  7  2  0  0  0  0 
  6 21  1  0  0  0  0 
  6 10  1  0  0  0  0 
  7  9  1  0  0  0  0 
  8  5  1  0  0  0  0 
  9 22  1  6  0  0  0 
  9 12  1  0  0  0  0 
  9  6  1  0  0  0  0 
 10  1  1  0  0  0  0 
 11  8  1  0  0  0  0 
 12 25  1  0  0  0  0 
 14  1  1  0  0  0  0 
 16  2  1  0  0  0  0 
 18  4  1  0  0  0  0 
 19  5  1  0  0  0  0 
 20  6  1  0  0  0  0 
 23 10  1  0  0  0  0 
 24 11  1  0  0  0  0 
M  END 
>  <HBA> 
3 
 
>  <HBD> 
3 
 
>  <TPSA> 
52.49 
 
>  <cid> 
4782 
 
>  <dipole> 
2.3 
 
>  <excitation_energy_1> 
4.986 
 
>  <excitation_energy_2> 
5.161 
 
>  <excitation_energy_3> 
5.514 
 
>  <excitation_energy_4> 
5.656 
 
>  <homo_energy> 
-5.807 
 
>  <homo_lumo_gap> 
5.899 
 
>  <logP> 
1.036 
 
>  <lumo_energy> 
0.093 
 
>  <melting_point> 
92.6 
 
>  <molecular_refractivity> 
47.01 
 
>  <oscillator_strength_1> 
0.0455 
 
>  <oscillator_strength_2> 
0.0 
 
>  <oscillator_strength_3> 
0.0011 
 
>  <oscillator_strength_4> 
0.0206 
 
>  <open_babel_can_smiles> 
CNC[C@@H](c1cccc(c1)O)O 
 
>  <mulliken_charges> 
25 
1   -0.299861 
2   -0.137007 
3   -0.174132 
4   -0.194189 
5   -0.217146 
6   -0.149933 
7   0.132205 
8   0.350621 
9   0.085194 
10   -0.571822 
11   -0.646872 
12   -0.650177 
13   0.154331 
14   0.131692 
15   0.1609 
16   0.128659 
17   0.146676 
18   0.113779 
19   0.126722 
20   0.128822 
21   0.154169 
22   0.111732 
23   0.304195 
24   0.40574 
25   0.405701 
 
>  <lowdin_charges> 
25 
1   -0.360076 
2   -0.142759 
3   -0.181916 
4   -0.219681 
5   -0.198966 
6   -0.225138 
7   0.000513 
8   0.102312 
9   -0.003928 
10   -0.3629 
11   -0.384113 
12   -0.466289 
13   0.153882 
14   0.129214 
15   0.154667 
16   0.156578 
17   0.169943 
18   0.15149 
19   0.160521 
20   0.132788 
21   0.152273 
22   0.125945 
23   0.2576 
24   0.357816 
25   0.340223 
 
$$$$ 
 
