PCCDB-ID:  2146 
public computational chemistry database (PCCDB) project, http://pccdb.org 
 
 11 10  0  0  0  0  0  0  0  0999 V2000 
    0.8881   -0.0914   -0.1426 C   0  0  0  0  0  0  0  0  0  0  0  0 
    0.3085   -0.9971    0.5563 N   0  0  0  0  0  0  0  0  0  0  0  0 
    0.2955    0.9711   -0.8378 N   0  0  0  0  0  0  0  0  0  0  0  0 
    3.0206    1.1153   -0.2344 N   0  0  0  0  0  0  0  0  0  0  0  0 
    2.2840   -0.0996   -0.2245 N   0  0  0  0  0  0  0  0  0  0  0  0 
   -0.7051   -0.9719    0.4323 H   0  0  0  0  0  0  0  0  0  0  0  0 
   -0.7022    0.8590   -0.9704 H   0  0  0  0  0  0  0  0  0  0  0  0 
    0.7601    1.2203   -1.7049 H   0  0  0  0  0  0  0  0  0  0  0  0 
    2.4864    1.8563    0.2206 H   0  0  0  0  0  0  0  0  0  0  0  0 
    3.1768    1.3950   -1.2005 H   0  0  0  0  0  0  0  0  0  0  0  0 
    2.6660   -0.7539    0.4497 H   0  0  0  0  0  0  0  0  0  0  0  0 
  1  2  1  0  0  0  0 
  3  1  2  0  0  0  0 
  4  5  1  0  0  0  0 
  4  9  1  0  0  0  0 
  5  1  1  0  0  0  0 
  5 11  1  0  0  0  0 
  6  2  1  0  0  0  0 
  7  3  1  0  0  0  0 
  8  3  1  0  0  0  0 
 10  4  1  0  0  0  0 
M  RAD  1   2   2 
M  END 
>  <HBA> 
4 
 
>  <HBD> 
3 
 
>  <TPSA> 
90.42 
 
>  <cid> 
2146 
 
>  <dipole> 
3.8 
 
>  <excitation_energy_1> 
5.171 
 
>  <excitation_energy_2> 
5.815 
 
>  <excitation_energy_3> 
5.983 
 
>  <excitation_energy_4> 
6.347 
 
>  <homo_energy> 
-6.074 
 
>  <homo_lumo_gap> 
7.195 
 
>  <logP> 
0.234 
 
>  <lumo_energy> 
1.121 
 
>  <melting_point> 
157.37 
 
>  <molecular_refractivity> 
18.73 
 
>  <oscillator_strength_1> 
0.0074 
 
>  <oscillator_strength_2> 
0.0095 
 
>  <oscillator_strength_3> 
0.0129 
 
>  <oscillator_strength_4> 
0.033 
 
>  <open_babel_can_smiles> 
NNC(=[NH2])[NH] 
 
>  <mulliken_charges> 
11 
1   0.547537 
2   -0.635485 
3   -0.740157 
4   -0.584881 
5   -0.467238 
6   0.265008 
7   0.32463 
8   0.318081 
9   0.317564 
10   0.311598 
11   0.343342 
 
>  <lowdin_charges> 
11 
1   0.111608 
2   -0.473765 
3   -0.506176 
4   -0.471803 
5   -0.259835 
6   0.244825 
7   0.277604 
8   0.275574 
9   0.259682 
10   0.255348 
11   0.286936 
 
$$$$ 
 
