PCCDB-ID:  743 
public computational chemistry database (PCCDB) project, http://pccdb.org 
 
 17 16  0  0  0  0  0  0  0  0999 V2000 
    1.4353   -0.4071    0.3911 C   0  0  0  0  0  0  0  0  0  0  0  0 
    0.7184   -1.6480    0.9825 C   0  0  0  0  0  0  0  0  0  0  0  0 
    2.9667   -0.5308    0.2368 C   0  0  0  0  0  0  0  0  0  0  0  0 
    0.9808   -2.9069    0.1728 C   0  0  0  0  0  0  0  0  0  0  0  0 
    3.6673   -0.8107    1.5677 C   0  0  0  0  0  0  0  0  0  0  0  0 
    2.0514   -3.4852    0.1720 O   0  0  0  0  0  0  0  0  0  0  0  0 
   -0.0116   -3.3745   -0.6106 O   0  0  0  0  0  0  0  0  0  0  0  0 
    4.1220    0.0641    2.2669 O   0  0  0  0  0  0  0  0  0  0  0  0 
    3.7100   -2.1045    1.9514 O   0  0  0  0  0  0  0  0  0  0  0  0 
    1.2122    0.4416    1.0470 H   0  0  0  0  0  0  0  0  0  0  0  0 
    1.0045   -0.1724   -0.5901 H   0  0  0  0  0  0  0  0  0  0  0  0 
   -0.3555   -1.4401    1.0608 H   0  0  0  0  0  0  0  0  0  0  0  0 
    1.0865   -1.8373    1.9958 H   0  0  0  0  0  0  0  0  0  0  0  0 
    3.3533    0.4219   -0.1336 H   0  0  0  0  0  0  0  0  0  0  0  0 
    3.2131   -1.3056   -0.4966 H   0  0  0  0  0  0  0  0  0  0  0  0 
   -0.8112   -2.8342   -0.5028 H   0  0  0  0  0  0  0  0  0  0  0  0 
    3.2766   -2.6831    1.2815 H   0  0  0  0  0  0  0  0  0  0  0  0 
  1  2  1  0  0  0  0 
  1 10  1  0  0  0  0 
  2 12  1  0  0  0  0 
  2 13  1  0  0  0  0 
  3  1  1  0  0  0  0 
  3  5  1  0  0  0  0 
  4  2  1  0  0  0  0 
  5  9  1  0  0  0  0 
  5  8  2  0  0  0  0 
  6  4  2  0  0  0  0 
  7 16  1  0  0  0  0 
  7  4  1  0  0  0  0 
 11  1  1  0  0  0  0 
 14  3  1  0  0  0  0 
 15  3  1  0  0  0  0 
 17  9  1  0  0  0  0 
M  END 
>  <HBA> 
4 
 
>  <HBD> 
2 
 
>  <TPSA> 
74.6 
 
>  <cid> 
743 
 
>  <dipole> 
6.5 
 
>  <excitation_energy_1> 
5.478 
 
>  <excitation_energy_2> 
5.563 
 
>  <excitation_energy_3> 
5.75 
 
>  <excitation_energy_4> 
6.033 
 
>  <homo_energy> 
-6.985 
 
>  <homo_lumo_gap> 
6.218 
 
>  <logP> 
0.326 
 
>  <lumo_energy> 
-0.767 
 
>  <melting_point> 
128.42 
 
>  <molecular_refractivity> 
29.69 
 
>  <oscillator_strength_1> 
0.0007 
 
>  <oscillator_strength_2> 
0.0011 
 
>  <oscillator_strength_3> 
0.0009 
 
>  <oscillator_strength_4> 
0.0014 
 
>  <open_babel_can_smiles> 
OC(=O)CCCC(=O)O 
 
>  <mulliken_charges> 
17 
1   -0.273191 
2   -0.399566 
3   -0.371463 
4   0.614953 
5   0.575117 
6   -0.460583 
7   -0.54263 
8   -0.450999 
9   -0.595984 
10   0.179794 
11   0.153811 
12   0.146494 
13   0.210079 
14   0.179724 
15   0.169807 
16   0.41974 
17   0.444895 
 
>  <lowdin_charges> 
17 
1   -0.262137 
2   -0.32297 
3   -0.323128 
4   0.212163 
5   0.190147 
6   -0.257462 
7   -0.328866 
8   -0.256655 
9   -0.373841 
10   0.166804 
11   0.151703 
12   0.153283 
13   0.185953 
14   0.175628 
15   0.163519 
16   0.366843 
17   0.359018 
 
$$$$ 
 
