PCCDB-ID:  1630 
public computational chemistry database (PCCDB) project, http://pccdb.org 
 
 19 18  0  0  0  0  0  0  0  0999 V2000 
    1.5309    2.4701    0.6023 C   0  0  0  0  0  0  0  0  0  0  0  0 
    2.5972    2.4118   -0.1977 C   0  0  0  0  0  0  0  0  0  0  0  0 
    6.5888   -1.0920   -1.1653 C   0  0  0  0  0  0  0  0  0  0  0  0 
    6.9670   -2.2782   -0.6736 C   0  0  0  0  0  0  0  0  0  0  0  0 
    3.1248    1.1560   -0.8139 C   0  0  0  0  0  0  0  0  0  0  0  0 
    5.1626   -0.6678   -1.2858 C   0  0  0  0  0  0  0  0  0  0  0  0 
    5.7320    1.9302   -0.7095 O   0  0  0  0  0  0  0  0  0  0  0  0 
    8.6124   -2.8947   -0.4639 S   0  0  0  0  0  0  0  0  0  0  0  0 
    4.8519    0.8163   -0.1841 S   0  0  1  0  0  0  0  0  0  0  0  0 
    1.1914    3.4098    1.0284 H   0  0  0  0  0  0  0  0  0  0  0  0 
    0.9517    1.5841    0.8550 H   0  0  0  0  0  0  0  0  0  0  0  0 
    3.1578    3.3157   -0.4293 H   0  0  0  0  0  0  0  0  0  0  0  0 
    7.3274   -0.3602   -1.4867 H   0  0  0  0  0  0  0  0  0  0  0  0 
    6.2302   -3.0106   -0.3492 H   0  0  0  0  0  0  0  0  0  0  0  0 
    3.2215    1.2499   -1.9029 H   0  0  0  0  0  0  0  0  0  0  0  0 
    2.5066    0.2838   -0.5716 H   0  0  0  0  0  0  0  0  0  0  0  0 
    4.4636   -1.4556   -0.9826 H   0  0  0  0  0  0  0  0  0  0  0  0 
    4.9226   -0.3359   -2.3039 H   0  0  0  0  0  0  0  0  0  0  0  0 
    9.2623   -1.7941   -0.8996 H   0  0  0  0  0  0  0  0  0  0  0  0 
  1 11  1  0  0  0  0 
  1 10  1  0  0  0  0 
  2  1  2  0  0  0  0 
  3  4  2  0  0  0  0 
  4  8  1  0  0  0  0 
  4 14  1  0  0  0  0 
  5 16  1  0  0  0  0 
  5  2  1  0  0  0  0 
  5  9  1  0  0  0  0 
  6  3  1  0  0  0  0 
  6 17  1  0  0  0  0 
  6  9  1  0  0  0  0 
  9  7  2  6  0  0  0 
 12  2  1  0  0  0  0 
 13  3  1  0  0  0  0 
 15  5  1  0  0  0  0 
 18  6  1  0  0  0  0 
 19  8  1  0  0  0  0 
M  END 
>  <HBA> 
2 
 
>  <HBD> 
1 
 
>  <TPSA> 
75.08 
 
>  <cid> 
1630 
 
>  <dipole> 
3.25 
 
>  <excitation_energy_1> 
4.623 
 
>  <excitation_energy_2> 
4.915 
 
>  <excitation_energy_3> 
5.015 
 
>  <excitation_energy_4> 
5.262 
 
>  <homo_energy> 
-5.927 
 
>  <homo_lumo_gap> 
5.377 
 
>  <logP> 
2.23 
 
>  <lumo_energy> 
-0.55 
 
>  <melting_point> 
2.19 
 
>  <molecular_refractivity> 
46.21 
 
>  <oscillator_strength_1> 
0.0641 
 
>  <oscillator_strength_2> 
0.0128 
 
>  <oscillator_strength_3> 
0.2792 
 
>  <oscillator_strength_4> 
0.2666 
 
>  <open_babel_can_smiles> 
C=CC[S@](=O)C/C=C/S 
 
>  <mulliken_charges> 
19 
1   -0.32764 
2   -0.053865 
3   -0.082192 
4   -0.281032 
5   -0.503998 
6   -0.503286 
7   -0.636994 
8   -0.002491 
9   0.778772 
10   0.152475 
11   0.140245 
12   0.166497 
13   0.163816 
14   0.172615 
15   0.188232 
16   0.167087 
17   0.167604 
18   0.187982 
19   0.10617 
 
>  <lowdin_charges> 
19 
1   -0.32528 
2   -0.153063 
3   -0.191855 
4   -0.276191 
5   -0.417573 
6   -0.412718 
7   -0.677649 
8   0.009811 
9   0.805588 
10   0.165708 
11   0.156619 
12   0.171087 
13   0.171427 
14   0.175952 
15   0.168714 
16   0.167408 
17   0.168122 
18   0.16912 
19   0.124772 
 
$$$$ 
 
