PCCDB-ID:  439 
public computational chemistry database (PCCDB) project, http://pccdb.org 
 
 21 21  0  0  0  0  0  0  0  0999 V2000 
    1.1220   -0.2700    0.1555 C   0  0  0  0  0  0  0  0  0  0  0  0 
   -3.3360   -0.0770    0.3980 C   0  0  0  0  0  0  0  0  0  0  0  0 
    0.3142    0.7363   -0.2236 C   0  0  0  0  0  0  0  0  0  0  0  0 
   -1.9573   -0.2450    0.3643 C   0  0  0  0  0  0  0  0  0  0  0  0 
    2.6209   -0.2353    0.0427 C   0  0  0  0  0  0  0  0  0  0  0  0 
   -3.8794    1.1234   -0.0690 C   0  0  0  0  0  0  0  0  0  0  0  0 
   -1.8148    1.9482   -0.5793 C   0  0  0  0  0  0  0  0  0  0  0  0 
   -1.1501    0.7904   -0.1367 C   0  0  0  0  0  0  0  0  0  0  0  0 
    3.3555   -0.1277    1.3917 C   0  0  0  0  0  0  0  0  0  0  0  0 
   -3.1374    2.1260   -0.5526 N   0  0  0  0  0  0  0  0  0  0  0  0 
    4.4366   -0.6152    1.6003 O   0  0  0  0  0  0  0  0  0  0  0  0 
    2.7201    0.6015    2.3408 O   0  0  0  0  0  0  0  0  0  0  0  0 
    0.7000   -1.1748    0.5926 H   0  0  0  0  0  0  0  0  0  0  0  0 
   -3.9843   -0.8606    0.7786 H   0  0  0  0  0  0  0  0  0  0  0  0 
    0.7749    1.6220   -0.6647 H   0  0  0  0  0  0  0  0  0  0  0  0 
   -1.5141   -1.1705    0.7210 H   0  0  0  0  0  0  0  0  0  0  0  0 
    2.9357    0.6274   -0.5604 H   0  0  0  0  0  0  0  0  0  0  0  0 
    3.0127   -1.1310   -0.4491 H   0  0  0  0  0  0  0  0  0  0  0  0 
   -4.9556    1.2858   -0.0541 H   0  0  0  0  0  0  0  0  0  0  0  0 
   -1.2317    2.7779   -0.9801 H   0  0  0  0  0  0  0  0  0  0  0  0 
    1.8513    0.8805    1.9955 H   0  0  0  0  0  0  0  0  0  0  0  0 
  1 13  1  0  0  0  0 
  2 14  1  0  0  0  0 
  3  8  1  0  0  0  0 
  3  1  2  0  0  0  0 
  4  2  1  0  0  0  0 
  4 16  1  0  0  0  0 
  5  1  1  0  0  0  0 
  5  9  1  0  0  0  0 
  6 19  1  0  0  0  0 
  6  2  2  0  0  0  0 
  7 10  2  0  0  0  0 
  7  8  1  0  0  0  0 
  8  4  2  0  0  0  0 
  9 11  2  0  0  0  0 
  9 12  1  0  0  0  0 
 10  6  1  0  0  0  0 
 15  3  1  0  0  0  0 
 17  5  1  0  0  0  0 
 18  5  1  0  0  0  0 
 20  7  1  0  0  0  0 
 21 12  1  0  0  0  0 
M  END 
>  <HBA> 
3 
 
>  <HBD> 
1 
 
>  <TPSA> 
50.19 
 
>  <cid> 
439 
 
>  <dipole> 
3.75 
 
>  <excitation_energy_1> 
4.353 
 
>  <excitation_energy_2> 
4.547 
 
>  <excitation_energy_3> 
4.97 
 
>  <excitation_energy_4> 
5.01 
 
>  <homo_energy> 
-6.727 
 
>  <homo_lumo_gap> 
4.969 
 
>  <logP> 
1.569 
 
>  <lumo_energy> 
-1.758 
 
>  <melting_point> 
118.17 
 
>  <molecular_refractivity> 
45.71 
 
>  <oscillator_strength_1> 
0.0041 
 
>  <oscillator_strength_2> 
0.3769 
 
>  <oscillator_strength_3> 
0.0077 
 
>  <oscillator_strength_4> 
0.0806 
 
>  <open_babel_can_smiles> 
OC(=O)C/C=C/c1cccnc1 
 
>  <mulliken_charges> 
21 
1   -0.152745 
2   -0.140723 
3   -0.177991 
4   -0.147768 
5   -0.414894 
6   0.042649 
7   -0.015808 
8   0.153806 
9   0.588683 
10   -0.406643 
11   -0.437253 
12   -0.560583 
13   0.150734 
14   0.146278 
15   0.141174 
16   0.146779 
17   0.187452 
18   0.192327 
19   0.150275 
20   0.146092 
21   0.408159 
 
>  <lowdin_charges> 
21 
1   -0.174946 
2   -0.170174 
3   -0.161269 
4   -0.127373 
5   -0.312837 
6   -0.08096 
7   -0.093418 
8   -0.025829 
9   0.186693 
10   -0.140245 
11   -0.235801 
12   -0.353199 
13   0.160062 
14   0.169589 
15   0.160289 
16   0.164294 
17   0.177496 
18   0.183319 
19   0.159011 
20   0.158678 
21   0.356616 
 
$$$$ 
 
