PCCDB-ID:  86 
public computational chemistry database (PCCDB) project, http://pccdb.org 
 
 18 18  0  0  0  0  0  0  0  0999 V2000 
   -1.2609   -0.6733   -0.0168 C   0  0  0  0  0  0  0  0  0  0  0  0 
   -0.0679   -1.3656    0.0769 C   0  0  0  0  0  0  0  0  0  0  0  0 
   -1.2346    0.7262   -0.1381 C   0  0  0  0  0  0  0  0  0  0  0  0 
    1.1775   -0.6979    0.0553 C   0  0  0  0  0  0  0  0  0  0  0  0 
   -0.0307    1.4048   -0.1446 C   0  0  0  0  0  0  0  0  0  0  0  0 
    1.2103    0.7185   -0.0344 C   0  0  0  0  0  0  0  0  0  0  0  0 
    2.4571   -1.4424    0.1567 C   0  0  0  0  0  0  0  0  0  0  0  0 
    2.3629    1.4478   -0.0690 N   0  0  0  0  0  0  0  0  0  0  0  0 
    0.0761    2.7718   -0.2429 O   0  0  0  0  0  0  0  0  0  0  0  0 
    3.5256   -0.9438    0.4654 O   0  0  0  0  0  0  0  0  0  0  0  0 
    2.4254   -2.7754   -0.1163 O   0  0  0  0  0  0  0  0  0  0  0  0 
   -2.2100   -1.1980    0.0138 H   0  0  0  0  0  0  0  0  0  0  0  0 
   -0.1020   -2.4420    0.2265 H   0  0  0  0  0  0  0  0  0  0  0  0 
   -2.1647    1.2868   -0.2149 H   0  0  0  0  0  0  0  0  0  0  0  0 
    3.2025    0.9780    0.2471 H   0  0  0  0  0  0  0  0  0  0  0  0 
    2.2796    2.4459    0.0508 H   0  0  0  0  0  0  0  0  0  0  0  0 
   -0.8114    3.1588   -0.2851 H   0  0  0  0  0  0  0  0  0  0  0  0 
    1.5736   -3.0082   -0.5188 H   0  0  0  0  0  0  0  0  0  0  0  0 
  1 12  1  0  0  0  0 
  1  2  2  0  0  0  0 
  2 13  1  0  0  0  0 
  3  1  1  0  0  0  0 
  4  2  1  0  0  0  0 
  4  7  1  0  0  0  0 
  5  3  2  0  0  0  0 
  5  6  1  0  0  0  0 
  6  4  2  0  0  0  0 
  7 10  2  0  0  0  0 
  8  6  1  0  0  0  0 
  8 16  1  0  0  0  0 
  8 15  1  0  0  0  0 
  9  5  1  0  0  0  0 
 11  7  1  0  0  0  0 
 14  3  1  0  0  0  0 
 17  9  1  0  0  0  0 
 18 11  1  0  0  0  0 
M  END 
>  <HBA> 
4 
 
>  <HBD> 
3 
 
>  <TPSA> 
83.55 
 
>  <cid> 
86 
 
>  <dipole> 
4.99 
 
>  <excitation_energy_1> 
3.805 
 
>  <excitation_energy_2> 
4.587 
 
>  <excitation_energy_3> 
4.893 
 
>  <excitation_energy_4> 
4.955 
 
>  <homo_energy> 
-5.461 
 
>  <homo_lumo_gap> 
4.387 
 
>  <logP> 
1.254 
 
>  <lumo_energy> 
-1.075 
 
>  <melting_point> 
185.78 
 
>  <molecular_refractivity> 
39.83 
 
>  <oscillator_strength_1> 
0.0979 
 
>  <oscillator_strength_2> 
0.0022 
 
>  <oscillator_strength_3> 
0.0074 
 
>  <oscillator_strength_4> 
0.0056 
 
>  <open_babel_can_smiles> 
OC(=O)c1cccc(c1N)O 
 
>  <mulliken_charges> 
18 
1   -0.147926 
2   -0.222384 
3   -0.190507 
4   0.017506 
5   0.318362 
6   0.277332 
7   0.566426 
8   -0.819121 
9   -0.663694 
10   -0.488379 
11   -0.576236 
12   0.131813 
13   0.124903 
14   0.123717 
15   0.375058 
16   0.346979 
17   0.41433 
18   0.411821 
 
>  <lowdin_charges> 
18 
1   -0.181168 
2   -0.172137 
3   -0.192722 
4   -0.105869 
5   0.072747 
6   0.068586 
7   0.20549 
8   -0.458462 
9   -0.390055 
10   -0.272804 
11   -0.357799 
12   0.16133 
13   0.152291 
14   0.157257 
15   0.304511 
16   0.289876 
17   0.362192 
18   0.356736 
 
$$$$ 
 
