PCCDB-ID:  2123 
public computational chemistry database (PCCDB) project, http://pccdb.org 
 
 33 33  0  0  0  0  0  0  0  0999 V2000 
    3.0270   -1.1396    0.8353 C   0  0  0  0  0  0  0  0  0  0  0  0 
    0.9868    0.0897    0.2313 C   0  0  0  0  0  0  0  0  0  0  0  0 
    7.0488    1.2169    1.6842 C   0  0  0  0  0  0  0  0  0  0  0  0 
    7.0964    3.6684    1.5274 C   0  0  0  0  0  0  0  0  0  0  0  0 
    1.0763    4.8170   -0.0944 C   0  0  0  0  0  0  0  0  0  0  0  0 
    3.1566    6.0419    0.3591 C   0  0  0  0  0  0  0  0  0  0  0  0 
    3.0795    1.3217    0.6686 C   0  0  0  0  0  0  0  0  0  0  0  0 
    4.9909    2.4504    1.1120 C   0  0  0  0  0  0  0  0  0  0  0  0 
    3.1120    3.5822    0.5526 C   0  0  0  0  0  0  0  0  0  0  0  0 
    4.3776    1.2572    1.0155 N   0  0  0  0  0  0  0  0  0  0  0  0 
    2.3934    2.4525    0.4241 N   0  0  0  0  0  0  0  0  0  0  0  0 
    4.4130    3.6444    0.8883 N   0  0  0  0  0  0  0  0  0  0  0  0 
    2.4036    0.1367    0.5402 N   0  0  0  0  0  0  0  0  0  0  0  0 
    6.3116    2.4493    1.4772 N   0  0  0  0  0  0  0  0  0  0  0  0 
    2.4623    4.7684    0.3314 N   0  0  0  0  0  0  0  0  0  0  0  0 
    2.8527   -1.8403    0.0078 H   0  0  0  0  0  0  0  0  0  0  0  0 
    2.6041   -1.5834    1.7493 H   0  0  0  0  0  0  0  0  0  0  0  0 
    4.0965   -0.9968    0.9704 H   0  0  0  0  0  0  0  0  0  0  0  0 
    0.8082   -0.6141   -0.5926 H   0  0  0  0  0  0  0  0  0  0  0  0 
    0.6469    1.0812   -0.0583 H   0  0  0  0  0  0  0  0  0  0  0  0 
    0.4043   -0.2515    1.1004 H   0  0  0  0  0  0  0  0  0  0  0  0 
    7.6217    1.2810    2.6186 H   0  0  0  0  0  0  0  0  0  0  0  0 
    7.7589    1.0358    0.8630 H   0  0  0  0  0  0  0  0  0  0  0  0 
    6.3526    0.3834    1.7414 H   0  0  0  0  0  0  0  0  0  0  0  0 
    7.6178    3.7397    2.4914 H   0  0  0  0  0  0  0  0  0  0  0  0 
    6.4391    4.5262    1.4063 H   0  0  0  0  0  0  0  0  0  0  0  0 
    7.8552    3.6801    0.7305 H   0  0  0  0  0  0  0  0  0  0  0  0 
    0.5201    5.5297    0.5289 H   0  0  0  0  0  0  0  0  0  0  0  0 
    0.6335    3.8284    0.0015 H   0  0  0  0  0  0  0  0  0  0  0  0 
    0.9954    5.1475   -1.1411 H   0  0  0  0  0  0  0  0  0  0  0  0 
    2.6150    6.7498    1.0008 H   0  0  0  0  0  0  0  0  0  0  0  0 
    3.2184    6.4781   -0.6494 H   0  0  0  0  0  0  0  0  0  0  0  0 
    4.1622    5.8971    0.7468 H   0  0  0  0  0  0  0  0  0  0  0  0 
  1 18  1  0  0  0  0 
  1 17  1  0  0  0  0 
  2 13  1  0  0  0  0 
  2 21  1  0  0  0  0 
  3 24  1  0  0  0  0 
  3 22  1  0  0  0  0 
  4 25  1  0  0  0  0 
  5 29  1  0  0  0  0 
  5 15  1  0  0  0  0 
  5 28  1  0  0  0  0 
  6 33  1  0  0  0  0 
  6 31  1  0  0  0  0 
  7 10  2  0  0  0  0 
  8 14  1  0  0  0  0 
  9 12  1  0  0  0  0 
 10  8  2  0  0  0  0 
 11  9  2  0  0  0  0 
 11  7  1  0  0  0  0 
 12  8  1  0  0  0  0 
 13  7  1  0  0  0  0 
 13  1  1  0  0  0  0 
 14  4  1  0  0  0  0 
 14  3  1  0  0  0  0 
 15  6  1  0  0  0  0 
 15  9  1  0  0  0  0 
 16  1  1  0  0  0  0 
 19  2  1  0  0  0  0 
 20  2  1  0  0  0  0 
 23  3  1  0  0  0  0 
 26  4  1  0  0  0  0 
 27  4  1  0  0  0  0 
 30  5  1  0  0  0  0 
 32  6  1  0  0  0  0 
M  RAD  1  12   2 
M  END 
>  <HBA> 
6 
 
>  <HBD> 
0 
 
>  <TPSA> 
48.39 
 
>  <cid> 
2123 
 
>  <dipole> 
0.08 
 
>  <excitation_energy_1> 
5.176 
 
>  <excitation_energy_2> 
5.271 
 
>  <excitation_energy_3> 
5.281 
 
>  <excitation_energy_4> 
5.338 
 
>  <homo_energy> 
-5.625 
 
>  <homo_lumo_gap> 
6.387 
 
>  <logP> 
0.07 
 
>  <lumo_energy> 
0.762 
 
>  <melting_point> 
79.88 
 
>  <molecular_refractivity> 
62.45 
 
>  <oscillator_strength_1> 
0.0003 
 
>  <oscillator_strength_2> 
0.0023 
 
>  <oscillator_strength_3> 
0.0065 
 
>  <oscillator_strength_4> 
0.0772 
 
>  <open_babel_can_smiles> 
CN(C1=NC(=[N]=C([N]1)N(C)C)N(C)C)C 
 
>  <mulliken_charges> 
33 
1   -0.313499 
2   -0.313316 
3   -0.312476 
4   -0.314318 
5   -0.313333 
6   -0.314063 
7   0.71882 
8   0.718769 
9   0.718812 
10   -0.607864 
11   -0.607957 
12   -0.607917 
13   -0.462928 
14   -0.462702 
15   -0.462501 
16   0.144233 
17   0.144144 
18   0.201076 
19   0.144141 
20   0.201035 
21   0.144224 
22   0.144179 
23   0.144206 
24   0.200287 
25   0.144559 
26   0.201524 
27   0.14393 
28   0.144321 
29   0.200877 
30   0.143976 
31   0.144483 
32   0.143941 
33   0.201339 
 
>  <lowdin_charges> 
33 
1   -0.353635 
2   -0.354345 
3   -0.355277 
4   -0.35527 
5   -0.35313 
6   -0.354239 
7   0.147774 
8   0.148974 
9   0.147706 
10   -0.283084 
11   -0.283034 
12   -0.283044 
13   -0.092395 
14   -0.093347 
15   -0.092435 
16   0.145922 
17   0.142835 
18   0.178547 
19   0.145693 
20   0.179811 
21   0.143318 
22   0.145563 
23   0.142999 
24   0.180375 
25   0.144942 
26   0.180766 
27   0.142907 
28   0.146691 
29   0.179693 
30   0.14096 
31   0.146539 
32   0.14183 
33   0.179389 
 
$$$$ 
 
