PCCDB-ID:  793 
public computational chemistry database (PCCDB) project, http://pccdb.org 
 
 19 19  0  0  1  0  0  0  0  0999 V2000 
    1.1998   -0.1212    0.7902 C   0  0  0  0  0  0  0  0  0  0  0  0 
   -0.0932   -2.0383    2.0520 C   0  0  0  0  0  0  0  0  0  0  0  0 
    0.3969   -1.5209    4.0660 C   0  0  0  0  0  0  0  0  0  0  0  0 
    0.6819   -0.9006    1.9582 C   0  0  0  0  0  0  0  0  0  0  0  0 
    2.6696   -0.4504    0.4733 C   0  0  1  0  0  0  0  0  0  0  0  0 
    3.6077   -0.0274    1.6232 C   0  0  0  0  0  0  0  0  0  0  0  0 
   -0.2689   -2.4142    3.3651 N   0  0  0  0  0  0  0  0  0  0  0  0 
    0.9903   -0.5842    3.2703 N   0  0  0  0  0  0  0  0  0  0  0  0 
    2.8729   -1.8316    0.1711 O   0  0  0  0  0  0  0  0  0  0  0  0 
    3.4267    0.9576    2.3073 O   0  0  0  0  0  0  0  0  0  0  0  0 
    4.6554   -0.8436    1.7899 O   0  0  0  0  0  0  0  0  0  0  0  0 
    1.1211    0.9563    0.9683 H   0  0  0  0  0  0  0  0  0  0  0  0 
    0.5989   -0.3556   -0.0942 H   0  0  0  0  0  0  0  0  0  0  0  0 
   -0.5623   -2.5845    1.2430 H   0  0  0  0  0  0  0  0  0  0  0  0 
    0.4844   -1.5019    5.1442 H   0  0  0  0  0  0  0  0  0  0  0  0 
    2.9835    0.1034   -0.4200 H   0  0  0  0  0  0  0  0  0  0  0  0 
    1.6005    0.1750    3.5496 H   0  0  0  0  0  0  0  0  0  0  0  0 
    2.2721   -2.3357    0.7548 H   0  0  0  0  0  0  0  0  0  0  0  0 
    4.5140   -1.5917    1.1676 H   0  0  0  0  0  0  0  0  0  0  0  0 
  1 12  1  0  0  0  0 
  1  4  1  0  0  0  0 
  2  7  1  0  0  0  0 
  3 15  1  0  0  0  0 
  4  2  2  0  0  0  0 
  4  8  1  0  0  0  0 
  5 16  1  6  0  0  0 
  5  1  1  0  0  0  0 
  5  6  1  0  0  0  0 
  6 11  1  0  0  0  0 
  6 10  2  0  0  0  0 
  7  3  2  0  0  0  0 
  8 17  1  0  0  0  0 
  8  3  1  0  0  0  0 
  9  5  1  0  0  0  0 
  9 18  1  0  0  0  0 
 13  1  1  0  0  0  0 
 14  2  1  0  0  0  0 
 19 11  1  0  0  0  0 
M  END 
>  <HBA> 
4 
 
>  <HBD> 
3 
 
>  <TPSA> 
86.21 
 
>  <cid> 
793 
 
>  <dipole> 
1.84 
 
>  <excitation_energy_1> 
5.044 
 
>  <excitation_energy_2> 
5.438 
 
>  <excitation_energy_3> 
5.668 
 
>  <excitation_energy_4> 
6.094 
 
>  <homo_energy> 
-6.457 
 
>  <homo_lumo_gap> 
6.142 
 
>  <logP> 
-0.602 
 
>  <lumo_energy> 
-0.316 
 
>  <melting_point> 
164.38 
 
>  <molecular_refractivity> 
36.1 
 
>  <oscillator_strength_1> 
0.0055 
 
>  <oscillator_strength_2> 
0.0043 
 
>  <oscillator_strength_3> 
0.0513 
 
>  <oscillator_strength_4> 
0.0259 
 
>  <open_babel_can_smiles> 
O[C@H](C(=O)O)Cc1cnc[nH]1 
 
>  <mulliken_charges> 
19 
1   -0.363815 
2   -0.091824 
3   0.210787 
4   0.271296 
5   0.028299 
6   0.595286 
7   -0.419354 
8   -0.596426 
9   -0.644607 
10   -0.480158 
11   -0.564168 
12   0.185162 
13   0.176342 
14   0.139627 
15   0.163484 
16   0.187478 
17   0.36224 
18   0.407462 
19   0.432889 
 
>  <lowdin_charges> 
19 
1   -0.282928 
2   -0.18144 
3   -0.082512 
4   -0.030565 
5   -0.044864 
6   0.172531 
7   -0.186655 
8   -0.18016 
9   -0.458599 
10   -0.271391 
11   -0.334021 
12   0.175919 
13   0.172961 
14   0.163875 
15   0.168974 
16   0.173355 
17   0.306287 
18   0.351843 
19   0.367388 
 
$$$$ 
 
