PCCDB-ID:  1650 
public computational chemistry database (PCCDB) project, http://pccdb.org 
 
 32 32  0  0  1  0  0  0  0  0999 V2000 
    0.5342    1.1322    0.8466 C   0  0  0  0  0  0  0  0  0  0  0  0 
   -0.1887    1.5368   -1.5334 C   0  0  0  0  0  0  0  0  0  0  0  0 
    0.0874   -2.0632   -2.3003 C   0  0  0  0  0  0  0  0  0  0  0  0 
    2.8027    0.4832   -1.3219 C   0  0  0  0  0  0  0  0  0  0  0  0 
    0.2984    0.4821   -0.5292 C   0  0  0  0  0  0  0  0  0  0  0  0 
    1.4332   -1.3296   -2.1443 C   0  0  2  0  0  0  0  0  0  0  0  0 
    1.5490   -0.3394   -0.9452 C   0  0  1  0  0  0  0  0  0  0  0  0 
    0.2441   -3.3326   -3.1467 C   0  0  0  0  0  0  0  0  0  0  0  0 
    2.0022   -0.5578   -3.3746 C   0  0  1  0  0  0  0  0  0  0  0  0 
    0.9931    0.1143   -4.3339 C   0  0  0  0  0  0  0  0  0  0  0  0 
    2.8781    0.4914   -2.8084 N   0  0  0  0  0  0  0  0  0  0  0  0 
    0.4342   -4.4173   -2.6440 O   0  0  0  0  0  0  0  0  0  0  0  0 
    0.2188   -3.1710   -4.4793 O   0  0  0  0  0  0  0  0  0  0  0  0 
    0.1101   -0.4905   -4.9240 O   0  0  0  0  0  0  0  0  0  0  0  0 
    1.2002    1.4097   -4.5075 O   0  0  0  0  0  0  0  0  0  0  0  0 
   -0.3811    1.6149    1.2063 H   0  0  0  0  0  0  0  0  0  0  0  0 
    1.3129    1.9041    0.8030 H   0  0  0  0  0  0  0  0  0  0  0  0 
    0.8390    0.3922    1.5961 H   0  0  0  0  0  0  0  0  0  0  0  0 
   -1.0322    2.0923   -1.1078 H   0  0  0  0  0  0  0  0  0  0  0  0 
   -0.5381    1.0997   -2.4724 H   0  0  0  0  0  0  0  0  0  0  0  0 
    0.5917    2.2698   -1.7701 H   0  0  0  0  0  0  0  0  0  0  0  0 
   -0.6834   -1.4043   -2.7099 H   0  0  0  0  0  0  0  0  0  0  0  0 
   -0.2371   -2.4010   -1.3127 H   0  0  0  0  0  0  0  0  0  0  0  0 
    3.7012    0.0146   -0.9007 H   0  0  0  0  0  0  0  0  0  0  0  0 
    2.7649    1.5112   -0.9481 H   0  0  0  0  0  0  0  0  0  0  0  0 
   -0.5144   -0.2456   -0.3976 H   0  0  0  0  0  0  0  0  0  0  0  0 
    2.1798   -2.1081   -1.9408 H   0  0  0  0  0  0  0  0  0  0  0  0 
    1.7929   -0.9461   -0.0648 H   0  0  0  0  0  0  0  0  0  0  0  0 
    2.5665   -1.2521   -4.0090 H   0  0  0  0  0  0  0  0  0  0  0  0 
    3.8371    0.3901   -3.1261 H   0  0  0  0  0  0  0  0  0  0  0  0 
    0.0729   -2.2202   -4.7128 H   0  0  0  0  0  0  0  0  0  0  0  0 
    1.9519    1.6066   -3.8721 H   0  0  0  0  0  0  0  0  0  0  0  0 
  1 16  1  0  0  0  0 
  1 18  1  0  0  0  0 
  2 19  1  0  0  0  0 
  2  5  1  0  0  0  0 
  3  6  1  0  0  0  0 
  3 23  1  0  0  0  0 
  4 25  1  0  0  0  0 
  4  7  1  0  0  0  0 
  4 24  1  0  0  0  0 
  5 26  1  0  0  0  0 
  5  1  1  0  0  0  0 
  6 27  1  1  0  0  0 
  6  7  1  0  0  0  0 
  7  5  1  0  0  0  0 
  7 28  1  1  0  0  0 
  8 12  2  0  0  0  0 
  8  3  1  0  0  0  0 
  9 29  1  6  0  0  0 
  9 11  1  0  0  0  0 
  9  6  1  0  0  0  0 
 10  9  1  0  0  0  0 
 11  4  1  0  0  0  0 
 13  8  1  0  0  0  0 
 14 10  2  0  0  0  0 
 15 10  1  0  0  0  0 
 15 32  1  0  0  0  0 
 17  1  1  0  0  0  0 
 20  2  1  0  0  0  0 
 21  2  1  0  0  0  0 
 22  3  1  0  0  0  0 
 30 11  1  0  0  0  0 
 31 13  1  0  0  0  0 
M  END 
>  <HBA> 
5 
 
>  <HBD> 
3 
 
>  <TPSA> 
86.63 
 
>  <cid> 
1650 
 
>  <dipole> 
7.31 
 
>  <excitation_energy_1> 
5.368 
 
>  <excitation_energy_2> 
5.582 
 
>  <excitation_energy_3> 
5.631 
 
>  <excitation_energy_4> 
5.968 
 
>  <homo_energy> 
-6.825 
 
>  <homo_lumo_gap> 
6.425 
 
>  <logP> 
0.735 
 
>  <lumo_energy> 
-0.4 
 
>  <melting_point> 
174.86 
 
>  <molecular_refractivity> 
58.33 
 
>  <oscillator_strength_1> 
0.0004 
 
>  <oscillator_strength_2> 
0.001 
 
>  <oscillator_strength_3> 
0.0028 
 
>  <oscillator_strength_4> 
0.0003 
 
>  <open_babel_can_smiles> 
OC(=O)C[C@@H]1[C@@H](CN[C@@H]1C(=O)O)C(C)C 
 
>  <mulliken_charges> 
32 
1   -0.453182 
2   -0.474539 
3   -0.382476 
4   -0.136004 
5   -0.081438 
6   -0.115461 
7   -0.118284 
8   0.569318 
9   -0.094583 
10   0.64689 
11   -0.650438 
12   -0.46005 
13   -0.598002 
14   -0.506877 
15   -0.565545 
16   0.152179 
17   0.142901 
18   0.145218 
19   0.152945 
20   0.169073 
21   0.142068 
22   0.172304 
23   0.174832 
24   0.148152 
25   0.162088 
26   0.139575 
27   0.16391 
28   0.145441 
29   0.190123 
30   0.329523 
31   0.451066 
32   0.439272 
 
>  <lowdin_charges> 
32 
1   -0.447785 
2   -0.455941 
3   -0.320308 
4   -0.204632 
5   -0.127873 
6   -0.12547 
7   -0.140168 
8   0.18519 
9   -0.119983 
10   0.186993 
11   -0.36598 
12   -0.265953 
13   -0.369488 
14   -0.279904 
15   -0.329081 
16   0.15516 
17   0.146072 
18   0.150377 
19   0.157562 
20   0.157376 
21   0.147704 
22   0.165356 
23   0.17245 
24   0.145581 
25   0.151237 
26   0.146701 
27   0.161743 
28   0.155396 
29   0.176436 
30   0.272575 
31   0.358122 
32   0.360538 
 
$$$$ 
 
