PCCDB-ID:  1534 
public computational chemistry database (PCCDB) project, http://pccdb.org 
 
 18 18  0  0  1  0  0  0  0  0999 V2000 
    0.8202    0.0241   -0.0781 C   0  0  0  0  0  0  0  0  0  0  0  0 
    2.9921    1.0865   -0.8834 C   0  0  0  0  0  0  0  0  0  0  0  0 
    4.5100    1.1121   -0.7314 C   0  0  0  0  0  0  0  0  0  0  0  0 
    2.3453    0.0569    0.0400 C   0  0  2  0  0  0  0  0  0  0  0  0 
    4.6964   -1.4124   -0.7470 C   0  0  0  0  0  0  0  0  0  0  0  0 
    5.3817   -2.4923   -0.7636 N   0  0  0  0  0  0  0  0  0  0  0  0 
    5.1200   -0.1523   -1.1411 N   0  0  0  0  0  0  0  0  0  0  0  0 
    2.9676   -1.6501   -0.3225 S   0  0  0  0  0  0  0  0  0  0  0  0 
    0.4031    0.9968    0.2095 H   0  0  0  0  0  0  0  0  0  0  0  0 
    0.3841   -0.7356    0.5795 H   0  0  0  0  0  0  0  0  0  0  0  0 
    0.5101   -0.1960   -1.1052 H   0  0  0  0  0  0  0  0  0  0  0  0 
    2.7265    0.8751   -1.9262 H   0  0  0  0  0  0  0  0  0  0  0  0 
    2.6003    2.0820   -0.6336 H   0  0  0  0  0  0  0  0  0  0  0  0 
    4.7669    1.3687    0.3107 H   0  0  0  0  0  0  0  0  0  0  0  0 
    4.9346    1.8939   -1.3701 H   0  0  0  0  0  0  0  0  0  0  0  0 
    2.6157    0.2928    1.0769 H   0  0  0  0  0  0  0  0  0  0  0  0 
    6.3369   -2.3247   -1.0970 H   0  0  0  0  0  0  0  0  0  0  0  0 
    6.1270   -0.1060   -1.2541 H   0  0  0  0  0  0  0  0  0  0  0  0 
  1  4  1  0  0  0  0 
  1  9  1  0  0  0  0 
  1 10  1  0  0  0  0 
  2  3  1  0  0  0  0 
  2 13  1  0  0  0  0 
  2  4  1  0  0  0  0 
  3 14  1  0  0  0  0 
  4 16  1  1  0  0  0 
  5  8  1  0  0  0  0 
  6  5  2  0  0  0  0 
  7  5  1  0  0  0  0 
  7  3  1  0  0  0  0 
  8  4  1  0  0  0  0 
 11  1  1  0  0  0  0 
 12  2  1  0  0  0  0 
 15  3  1  0  0  0  0 
 17  6  1  0  0  0  0 
 18  7  1  0  0  0  0 
M  END 
>  <HBA> 
3 
 
>  <HBD> 
1 
 
>  <TPSA> 
63.68 
 
>  <cid> 
1534 
 
>  <dipole> 
4.98 
 
>  <excitation_energy_1> 
5.014 
 
>  <excitation_energy_2> 
5.36 
 
>  <excitation_energy_3> 
5.601 
 
>  <excitation_energy_4> 
5.734 
 
>  <homo_energy> 
-5.935 
 
>  <homo_lumo_gap> 
6.648 
 
>  <logP> 
0.962 
 
>  <lumo_energy> 
0.713 
 
>  <melting_point> 
77.76 
 
>  <molecular_refractivity> 
41.34 
 
>  <oscillator_strength_1> 
0.0112 
 
>  <oscillator_strength_2> 
0.0281 
 
>  <oscillator_strength_3> 
0.0063 
 
>  <oscillator_strength_4> 
0.0353 
 
>  <open_babel_can_smiles> 
C[C@@H]1CCNC(=N)S1 
 
>  <mulliken_charges> 
18 
1   -0.454558 
2   -0.263302 
3   -0.129514 
4   -0.249676 
5   0.287264 
6   -0.613428 
7   -0.571577 
8   0.158836 
9   0.150273 
10   0.166636 
11   0.1664 
12   0.165146 
13   0.145557 
14   0.142776 
15   0.152464 
16   0.166304 
17   0.26558 
18   0.314818 
 
>  <lowdin_charges> 
18 
1   -0.444429 
2   -0.28072 
3   -0.194058 
4   -0.223706 
5   -0.013516 
6   -0.434424 
7   -0.306474 
8   0.15277 
9   0.154468 
10   0.163917 
11   0.159772 
12   0.157194 
13   0.153435 
14   0.133473 
15   0.155336 
16   0.150967 
17   0.243657 
18   0.272338 
 
$$$$ 
 
