PCCDB-ID:  601 
public computational chemistry database (PCCDB) project, http://pccdb.org 
 
 23 22  0  0  1  0  0  0  0  0999 V2000 
    2.4256    1.1534   -0.6567 C   0  0  0  0  0  0  0  0  0  0  0  0 
    5.4946   -1.3156   -0.8152 C   0  0  0  0  0  0  0  0  0  0  0  0 
    1.8580   -0.0981    0.0304 C   0  0  1  0  0  0  0  0  0  0  0  0 
    4.2343   -1.9919   -0.2435 C   0  0  1  0  0  0  0  0  0  0  0  0 
    2.8244   -0.5996    1.1246 C   0  0  0  0  0  0  0  0  0  0  0  0 
    4.5749   -3.4734    0.0416 C   0  0  0  0  0  0  0  0  0  0  0  0 
    0.5075    0.1962    0.5008 N   0  0  0  0  0  0  0  0  0  0  0  0 
    3.8252   -1.3743    1.0064 N   0  0  0  0  0  0  0  0  0  0  0  0 
    2.5719   -0.1187    2.3673 O   0  0  0  0  0  0  0  0  0  0  0  0 
    4.7504   -4.2770   -0.8437 O   0  0  0  0  0  0  0  0  0  0  0  0 
    4.6971   -3.7750    1.3431 O   0  0  0  0  0  0  0  0  0  0  0  0 
    3.3810    0.9404   -1.1415 H   0  0  0  0  0  0  0  0  0  0  0  0 
    2.5917    1.9554    0.0732 H   0  0  0  0  0  0  0  0  0  0  0  0 
    1.7169    1.5076   -1.4111 H   0  0  0  0  0  0  0  0  0  0  0  0 
    5.8421   -1.8712   -1.6905 H   0  0  0  0  0  0  0  0  0  0  0  0 
    6.2904   -1.3024   -0.0636 H   0  0  0  0  0  0  0  0  0  0  0  0 
    5.2857   -0.2820   -1.1088 H   0  0  0  0  0  0  0  0  0  0  0  0 
    1.7693   -0.8942   -0.7158 H   0  0  0  0  0  0  0  0  0  0  0  0 
    3.4573   -2.0053   -1.0194 H   0  0  0  0  0  0  0  0  0  0  0  0 
    0.3914    1.1076    0.9325 H   0  0  0  0  0  0  0  0  0  0  0  0 
    0.0733   -0.5356    1.0536 H   0  0  0  0  0  0  0  0  0  0  0  0 
    1.7103    0.3339    2.3271 H   0  0  0  0  0  0  0  0  0  0  0  0 
    4.4801   -2.9414    1.8283 H   0  0  0  0  0  0  0  0  0  0  0  0 
  1  3  1  0  0  0  0 
  1 13  1  0  0  0  0 
  2  4  1  0  0  0  0 
  2 16  1  0  0  0  0 
  3 18  1  6  0  0  0 
  3  7  1  0  0  0  0 
  3  5  1  0  0  0  0 
  4 19  1  6  0  0  0 
  4  6  1  0  0  0  0 
  4  8  1  0  0  0  0 
  5  9  1  0  0  0  0 
  6 11  1  0  0  0  0 
  7 20  1  0  0  0  0 
  7 21  1  0  0  0  0 
  8  5  2  0  0  0  0 
 10  6  2  0  0  0  0 
 11 23  1  0  0  0  0 
 12  1  1  0  0  0  0 
 14  1  1  0  0  0  0 
 15  2  1  0  0  0  0 
 17  2  1  0  0  0  0 
 22  9  1  0  0  0  0 
M  END 
>  <HBA> 
5 
 
>  <HBD> 
3 
 
>  <TPSA> 
92.42 
 
>  <cid> 
601 
 
>  <dipole> 
7.24 
 
>  <excitation_energy_1> 
5.45 
 
>  <excitation_energy_2> 
5.569 
 
>  <excitation_energy_3> 
5.587 
 
>  <excitation_energy_4> 
5.767 
 
>  <homo_energy> 
-6.683 
 
>  <homo_lumo_gap> 
6.547 
 
>  <logP> 
0.014 
 
>  <lumo_energy> 
-0.136 
 
>  <melting_point> 
153.41 
 
>  <molecular_refractivity> 
38.44 
 
>  <oscillator_strength_1> 
0.0109 
 
>  <oscillator_strength_2> 
0.0097 
 
>  <oscillator_strength_3> 
0.0055 
 
>  <oscillator_strength_4> 
0.0038 
 
>  <open_babel_can_smiles> 
C[C@@H](C(=O)O)/N=C(\[C@@H](N)C)/O 
 
>  <mulliken_charges> 
23 
1   -0.458047 
2   -0.446989 
3   -0.045213 
4   -0.079987 
5   0.486588 
6   0.600452 
7   -0.739411 
8   -0.480072 
9   -0.57219 
10   -0.468584 
11   -0.576744 
12   0.17729 
13   0.151653 
14   0.17815 
15   0.179452 
16   0.1662 
17   0.149933 
18   0.174722 
19   0.151824 
20   0.312285 
21   0.323486 
22   0.38543 
23   0.429773 
 
>  <lowdin_charges> 
23 
1   -0.443886 
2   -0.439793 
3   -0.090307 
4   -0.100701 
5   0.120089 
6   0.183345 
7   -0.550531 
8   -0.229528 
9   -0.356403 
10   -0.261808 
11   -0.353996 
12   0.166356 
13   0.154272 
14   0.1689 
15   0.171315 
16   0.162158 
17   0.148545 
18   0.163933 
19   0.149905 
20   0.265332 
21   0.272853 
22   0.340871 
23   0.35908 
 
$$$$ 
 
