PCCDB-ID:  4874 
public computational chemistry database (PCCDB) project, http://pccdb.org 
 
 21 21  0  0  0  0  0  0  0  0999 V2000 
    1.7668   -1.3064    0.6129 C   0  0  0  0  0  0  0  0  0  0  0  0 
    4.5632   -2.9318   -3.2284 C   0  0  0  0  0  0  0  0  0  0  0  0 
    3.8842   -3.7566   -2.3352 C   0  0  0  0  0  0  0  0  0  0  0  0 
    3.2359   -1.0448   -2.4543 C   0  0  0  0  0  0  0  0  0  0  0  0 
    4.2235   -1.5813   -3.2854 C   0  0  0  0  0  0  0  0  0  0  0  0 
    2.8802   -3.2425   -1.5088 C   0  0  0  0  0  0  0  0  0  0  0  0 
    2.5587   -1.8671   -1.5599 C   0  0  0  0  0  0  0  0  0  0  0  0 
    2.1754   -4.0174   -0.6388 O   0  0  0  0  0  0  0  0  0  0  0  0 
    4.1098   -0.6406   -5.7697 O   0  0  0  0  0  0  0  0  0  0  0  0 
    4.9618    0.8740   -3.9846 O   0  0  0  0  0  0  0  0  0  0  0  0 
    6.3535   -1.1178   -4.7638 O   0  0  0  0  0  0  0  0  0  0  0  0 
    1.5514   -1.3334   -0.8040 O   0  0  0  0  0  0  0  0  0  0  0  0 
    5.0694   -0.5166   -4.4307 S   0  0  0  0  0  0  0  0  0  0  0  0 
    0.8920   -0.8088    1.0360 H   0  0  0  0  0  0  0  0  0  0  0  0 
    2.6676   -0.7285    0.8560 H   0  0  0  0  0  0  0  0  0  0  0  0 
    1.8512   -2.3159    1.0252 H   0  0  0  0  0  0  0  0  0  0  0  0 
    5.3484   -3.3261   -3.8633 H   0  0  0  0  0  0  0  0  0  0  0  0 
    4.1306   -4.8152   -2.2803 H   0  0  0  0  0  0  0  0  0  0  0  0 
    2.9880    0.0102   -2.4860 H   0  0  0  0  0  0  0  0  0  0  0  0 
    2.4853   -4.9344   -0.7072 H   0  0  0  0  0  0  0  0  0  0  0  0 
    3.8285    0.2688   -5.9852 H   0  0  0  0  0  0  0  0  0  0  0  0 
  1 15  1  0  0  0  0 
  1 16  1  0  0  0  0 
  1 14  1  0  0  0  0 
  2  3  1  0  0  0  0 
  3 18  1  0  0  0  0 
  3  6  2  0  0  0  0 
  4  7  2  0  0  0  0 
  5  2  2  0  0  0  0 
  5  4  1  0  0  0  0 
  6  8  1  0  0  0  0 
  7  6  1  0  0  0  0 
  7 12  1  0  0  0  0 
  9 13  1  0  0  0  0 
 11 13  1  0  0  0  0 
 12  1  1  0  0  0  0 
 13 10  1  0  0  0  0 
 13  5  1  0  0  0  0 
 17  2  1  0  0  0  0 
 19  4  1  0  0  0  0 
 20  8  1  0  0  0  0 
 21  9  1  0  0  0  0 
M  RAD  2  10   2  11   2 
M  END 
>  <HBA> 
5 
 
>  <HBD> 
2 
 
>  <TPSA> 
92.21 
 
>  <cid> 
4874 
 
>  <dipole> 
4.84 
 
>  <excitation_energy_1> 
4.892 
 
>  <excitation_energy_2> 
5.298 
 
>  <excitation_energy_3> 
5.467 
 
>  <excitation_energy_4> 
5.807 
 
>  <homo_energy> 
-6.615 
 
>  <homo_lumo_gap> 
5.63 
 
>  <logP> 
1.728 
 
>  <lumo_energy> 
-0.985 
 
>  <melting_point> 
135.89 
 
>  <molecular_refractivity> 
44.82 
 
>  <oscillator_strength_1> 
0.0406 
 
>  <oscillator_strength_2> 
0.0943 
 
>  <oscillator_strength_3> 
0.0014 
 
>  <oscillator_strength_4> 
0.0649 
 
>  <open_babel_can_smiles> 
COc1cc(ccc1O)S(O)([O])[O] 
 
>  <mulliken_charges> 
21 
1   -0.219643 
2   -0.136183 
3   -0.197279 
4   -0.186064 
5   -0.163412 
6   0.329151 
7   0.339341 
8   -0.628197 
9   -0.636863 
10   -0.533481 
11   -0.49277 
12   -0.515404 
13   1.192761 
14   0.167882 
15   0.148375 
16   0.170057 
17   0.184234 
18   0.138456 
19   0.18331 
20   0.417328 
21   0.438401 
 
>  <lowdin_charges> 
21 
1   -0.274163 
2   -0.130474 
3   -0.20151 
4   -0.145952 
5   -0.198536 
6   0.094182 
7   0.073367 
8   -0.356585 
9   -0.583582 
10   -0.586557 
11   -0.557802 
12   -0.217465 
13   1.34272 
14   0.16234 
15   0.144226 
16   0.153121 
17   0.188603 
18   0.161504 
19   0.189465 
20   0.363946 
21   0.379154 
 
$$$$ 
 
