PCCDB-ID:  2915 
public computational chemistry database (PCCDB) project, http://pccdb.org 
 
 20 19  0  0  0  0  0  0  0  0999 V2000 
   -0.1636   -0.2937    1.1704 C   0  0  0  0  0  0  0  0  0  0  0  0 
    0.2288   -0.4515   -4.4670 C   0  0  0  0  0  0  0  0  0  0  0  0 
    0.6258    0.5797    0.1940 C   0  0  0  0  0  0  0  0  0  0  0  0 
    1.3519    0.0867   -3.5811 C   0  0  0  0  0  0  0  0  0  0  0  0 
   -0.3470   -1.6435    0.6321 N   0  0  0  0  0  0  0  0  0  0  0  0 
    0.6664   -1.6974   -5.1060 N   0  0  0  0  0  0  0  0  0  0  0  0 
   -0.4472    1.0381   -1.2505 S   0  0  0  0  0  0  0  0  0  0  0  0 
    0.9245    1.6467   -2.6946 S   0  0  0  0  0  0  0  0  0  0  0  0 
   -1.1001    0.2245    1.4486 H   0  0  0  0  0  0  0  0  0  0  0  0 
    0.4298   -0.3766    2.0899 H   0  0  0  0  0  0  0  0  0  0  0  0 
   -0.0875    0.3395   -5.1682 H   0  0  0  0  0  0  0  0  0  0  0  0 
   -0.6351   -0.6825   -3.8341 H   0  0  0  0  0  0  0  0  0  0  0  0 
    1.4904    0.0235   -0.1761 H   0  0  0  0  0  0  0  0  0  0  0  0 
    0.9627    1.5007    0.6774 H   0  0  0  0  0  0  0  0  0  0  0  0 
    2.2269    0.3647   -4.1841 H   0  0  0  0  0  0  0  0  0  0  0  0 
    1.6714   -0.6752   -2.8648 H   0  0  0  0  0  0  0  0  0  0  0  0 
   -0.9271   -1.6015   -0.2046 H   0  0  0  0  0  0  0  0  0  0  0  0 
   -0.8534   -2.2162    1.3050 H   0  0  0  0  0  0  0  0  0  0  0  0 
    1.3331   -1.4913   -5.8488 H   0  0  0  0  0  0  0  0  0  0  0  0 
   -0.1259   -2.1524   -5.5556 H   0  0  0  0  0  0  0  0  0  0  0  0 
  1  9  1  0  0  0  0 
  1 10  1  0  0  0  0 
  2 12  1  0  0  0  0 
  2  4  1  0  0  0  0 
  3 14  1  0  0  0  0 
  3  1  1  0  0  0  0 
  4 16  1  0  0  0  0 
  4  8  1  0  0  0  0 
  5  1  1  0  0  0  0 
  5 18  1  0  0  0  0 
  6  2  1  0  0  0  0 
  7  3  1  0  0  0  0 
  8  7  1  0  0  0  0 
 11  2  1  0  0  0  0 
 13  3  1  0  0  0  0 
 15  4  1  0  0  0  0 
 17  5  1  0  0  0  0 
 19  6  1  0  0  0  0 
 20  6  1  0  0  0  0 
M  END 
>  <HBA> 
4 
 
>  <HBD> 
2 
 
>  <TPSA> 
102.64 
 
>  <cid> 
2915 
 
>  <dipole> 
1.2 
 
>  <excitation_energy_1> 
4.456 
 
>  <excitation_energy_2> 
4.567 
 
>  <excitation_energy_3> 
5.142 
 
>  <excitation_energy_4> 
5.282 
 
>  <homo_energy> 
-6.289 
 
>  <homo_lumo_gap> 
5.685 
 
>  <logP> 
1.686 
 
>  <lumo_energy> 
-0.604 
 
>  <melting_point> 
101.2 
 
>  <molecular_refractivity> 
41.94 
 
>  <oscillator_strength_1> 
0.0085 
 
>  <oscillator_strength_2> 
0.0026 
 
>  <oscillator_strength_3> 
0.0009 
 
>  <oscillator_strength_4> 
0.0007 
 
>  <open_babel_can_smiles> 
NCCSSCCN 
 
>  <mulliken_charges> 
20 
1   -0.147914 
2   -0.133643 
3   -0.40214 
4   -0.413006 
5   -0.715157 
6   -0.715336 
7   -0.012494 
8   0.008698 
9   0.132888 
10   0.154831 
11   0.131469 
12   0.162938 
13   0.194798 
14   0.178734 
15   0.16993 
16   0.19791 
17   0.311643 
18   0.299131 
19   0.294755 
20   0.301965 
 
>  <lowdin_charges> 
20 
1   -0.2072 
2   -0.213529 
3   -0.380926 
4   -0.387622 
5   -0.561551 
6   -0.558699 
7   0.005594 
8   0.033574 
9   0.127285 
10   0.152777 
11   0.129115 
12   0.154538 
13   0.172152 
14   0.164188 
15   0.165658 
16   0.172692 
17   0.26007 
18   0.258626 
19   0.253609 
20   0.259651 
 
$$$$ 
 
