PCCDB-ID:  2227 
public computational chemistry database (PCCDB) project, http://pccdb.org 
 
 28 27  0  0  0  0  0  0  0  0999 V2000 
    1.0319   -0.0632   -0.0163 C   0  0  0  0  0  0  0  0  0  0  0  0 
    0.5954   -1.2886    0.8010 C   0  0  0  0  0  0  0  0  0  0  0  0 
    2.5335   -0.0442   -0.3268 C   0  0  0  0  0  0  0  0  0  0  0  0 
    1.1721   -1.3750    2.2195 C   0  0  0  0  0  0  0  0  0  0  0  0 
    2.7587    1.0058   -2.5457 C   0  0  0  0  0  0  0  0  0  0  0  0 
    1.3696    0.0074    4.2485 C   0  0  0  0  0  0  0  0  0  0  0  0 
    2.1760   -0.0032   -3.0853 N   0  0  0  0  0  0  0  0  0  0  0  0 
    3.3372    2.1075   -3.2050 N   0  0  0  0  0  0  0  0  0  0  0  0 
    2.4040   -0.6603    4.6135 N   0  0  0  0  0  0  0  0  0  0  0  0 
    0.7047    1.0135    4.9770 N   0  0  0  0  0  0  0  0  0  0  0  0 
    2.9093    1.0956   -1.1685 N   0  0  0  0  0  0  0  0  0  0  0  0 
    0.7544   -0.2318    3.0279 N   0  0  0  0  0  0  0  0  0  0  0  0 
    0.7670    0.8576    0.5171 H   0  0  0  0  0  0  0  0  0  0  0  0 
    0.4929   -0.0603   -0.9691 H   0  0  0  0  0  0  0  0  0  0  0  0 
    0.8765   -2.2061    0.2664 H   0  0  0  0  0  0  0  0  0  0  0  0 
   -0.5033   -1.3047    0.8599 H   0  0  0  0  0  0  0  0  0  0  0  0 
    2.8189   -0.9840   -0.8177 H   0  0  0  0  0  0  0  0  0  0  0  0 
    3.1105    0.0453    0.5993 H   0  0  0  0  0  0  0  0  0  0  0  0 
    2.2643   -1.3774    2.2111 H   0  0  0  0  0  0  0  0  0  0  0  0 
    0.8712   -2.3245    2.6890 H   0  0  0  0  0  0  0  0  0  0  0  0 
    2.0687    0.1327   -4.0918 H   0  0  0  0  0  0  0  0  0  0  0  0 
    3.0731    2.1740   -4.1808 H   0  0  0  0  0  0  0  0  0  0  0  0 
    3.1844    2.9908   -2.7282 H   0  0  0  0  0  0  0  0  0  0  0  0 
    2.7923   -0.2810    5.4791 H   0  0  0  0  0  0  0  0  0  0  0  0 
    1.2335    1.3432    5.7758 H   0  0  0  0  0  0  0  0  0  0  0  0 
    0.3940    1.7916    4.4031 H   0  0  0  0  0  0  0  0  0  0  0  0 
    3.7704    1.5530   -0.8962 H   0  0  0  0  0  0  0  0  0  0  0  0 
   -0.2497   -0.0893    3.0515 H   0  0  0  0  0  0  0  0  0  0  0  0 
  1 13  1  0  0  0  0 
  1  2  1  0  0  0  0 
  2 16  1  0  0  0  0 
  2  4  1  0  0  0  0 
  3  1  1  0  0  0  0 
  3 18  1  0  0  0  0 
  4 20  1  0  0  0  0 
  4 12  1  0  0  0  0 
  5 11  1  0  0  0  0 
  6  9  1  0  0  0  0 
  6 10  2  0  0  0  0 
  7  5  1  0  0  0  0 
  8 23  1  0  0  0  0 
  8  5  2  0  0  0  0 
  9 24  1  0  0  0  0 
 10 25  1  0  0  0  0 
 11 27  1  0  0  0  0 
 11  3  1  0  0  0  0 
 12 28  1  0  0  0  0 
 12  6  1  0  0  0  0 
 14  1  1  0  0  0  0 
 15  2  1  0  0  0  0 
 17  3  1  0  0  0  0 
 19  4  1  0  0  0  0 
 21  7  1  0  0  0  0 
 22  8  1  0  0  0  0 
 26 10  1  0  0  0  0 
M  RAD  2   7   2   9   2 
M  END 
>  <HBA> 
6 
 
>  <HBD> 
4 
 
>  <TPSA> 
128.8 
 
>  <cid> 
2227 
 
>  <dipole> 
4.85 
 
>  <excitation_energy_1> 
5.167 
 
>  <excitation_energy_2> 
5.2 
 
>  <excitation_energy_3> 
5.654 
 
>  <excitation_energy_4> 
5.698 
 
>  <homo_energy> 
-5.938 
 
>  <homo_lumo_gap> 
7.513 
 
>  <logP> 
1.115 
 
>  <lumo_energy> 
1.576 
 
>  <melting_point> 
226.16 
 
>  <molecular_refractivity> 
49.16 
 
>  <oscillator_strength_1> 
0.002 
 
>  <oscillator_strength_2> 
0.0024 
 
>  <oscillator_strength_3> 
0.0008 
 
>  <oscillator_strength_4> 
0.0007 
 
>  <open_babel_can_smiles> 
[NH]C(=[NH2])NCCCCNC(=[NH2])[NH] 
 
>  <mulliken_charges> 
28 
1   -0.237762 
2   -0.293184 
3   -0.123852 
4   -0.111208 
5   0.579585 
6   0.584442 
7   -0.642958 
8   -0.756273 
9   -0.646255 
10   -0.756532 
11   -0.602773 
12   -0.599153 
13   0.12932 
14   0.162367 
15   0.144741 
16   0.122893 
17   0.161657 
18   0.1388 
19   0.17917 
20   0.138731 
21   0.262669 
22   0.317072 
23   0.319606 
24   0.261282 
25   0.316442 
26   0.319204 
27   0.318618 
28   0.313352 
 
>  <lowdin_charges> 
28 
1   -0.284803 
2   -0.280972 
3   -0.196887 
4   -0.192947 
5   0.125719 
6   0.122887 
7   -0.479876 
8   -0.513979 
9   -0.481354 
10   -0.517735 
11   -0.309072 
12   -0.306288 
13   0.140163 
14   0.159277 
15   0.150676 
16   0.135714 
17   0.150667 
18   0.146536 
19   0.162064 
20   0.13808 
21   0.243846 
22   0.272818 
23   0.276054 
24   0.244785 
25   0.274522 
26   0.276474 
27   0.274747 
28   0.268885 
 
$$$$ 
 
