PCCDB-ID:  5226 
public computational chemistry database (PCCDB) project, http://pccdb.org 
 
 26 27  0  0  0  0  0  0  0  0999 V2000 
    1.2342    1.1563    0.4469 C   0  0  0  0  0  0  0  0  0  0  0  0 
    2.4142    0.4529    0.2309 C   0  0  0  0  0  0  0  0  0  0  0  0 
   -1.2899    1.3669    0.4432 C   0  0  0  0  0  0  0  0  0  0  0  0 
   -2.4868    0.7679   -0.2990 C   0  0  0  0  0  0  0  0  0  0  0  0 
    1.1010   -1.4401   -0.5386 C   0  0  0  0  0  0  0  0  0  0  0  0 
   -1.4145   -1.3632   -0.6711 C   0  0  0  0  0  0  0  0  0  0  0  0 
   -0.0182    0.5837    0.1828 C   0  0  0  0  0  0  0  0  0  0  0  0 
   -0.0818   -0.7282   -0.3180 C   0  0  0  0  0  0  0  0  0  0  0  0 
    2.3311   -0.8524   -0.2572 C   0  0  0  0  0  0  0  0  0  0  0  0 
    4.1009   -2.5737    0.9480 N   0  0  0  0  0  0  0  0  0  0  0  0 
   -2.5225   -0.6676   -0.0212 N   0  0  0  0  0  0  0  0  0  0  0  0 
    3.5357   -2.8337   -1.5202 O   0  0  0  0  0  0  0  0  0  0  0  0 
    4.9277   -0.8279   -0.7193 O   0  0  0  0  0  0  0  0  0  0  0  0 
    3.8325   -1.7865   -0.5368 S   0  0  0  0  0  0  0  0  0  0  0  0 
    1.2812    2.1764    0.8211 H   0  0  0  0  0  0  0  0  0  0  0  0 
    3.3821    0.9055    0.4166 H   0  0  0  0  0  0  0  0  0  0  0  0 
   -1.5035    1.3517    1.5205 H   0  0  0  0  0  0  0  0  0  0  0  0 
   -1.1495    2.4174    0.1593 H   0  0  0  0  0  0  0  0  0  0  0  0 
   -2.4049    0.9945   -1.3802 H   0  0  0  0  0  0  0  0  0  0  0  0 
   -3.4168    1.2207    0.0604 H   0  0  0  0  0  0  0  0  0  0  0  0 
    1.0684   -2.4480   -0.9423 H   0  0  0  0  0  0  0  0  0  0  0  0 
   -1.4196   -2.4112   -0.3479 H   0  0  0  0  0  0  0  0  0  0  0  0 
   -1.5067   -1.3731   -1.7766 H   0  0  0  0  0  0  0  0  0  0  0  0 
    4.1184   -3.5793    0.7890 H   0  0  0  0  0  0  0  0  0  0  0  0 
    4.9845   -2.2535    1.3396 H   0  0  0  0  0  0  0  0  0  0  0  0 
   -3.4022   -1.0665   -0.3400 H   0  0  0  0  0  0  0  0  0  0  0  0 
  1 15  1  0  0  0  0 
  2 16  1  0  0  0  0 
  2  1  1  0  0  0  0 
  3 17  1  0  0  0  0 
  4 11  1  0  0  0  0 
  4 20  1  0  0  0  0 
  4  3  1  0  0  0  0 
  5  8  2  0  0  0  0 
  5  9  1  0  0  0  0 
  6 22  1  0  0  0  0 
  6  8  1  0  0  0  0 
  6 11  1  0  0  0  0 
  7  3  1  0  0  0  0 
  7  1  2  0  0  0  0 
  8  7  1  0  0  0  0 
  9  2  2  0  0  0  0 
 10 25  1  0  0  0  0 
 12 14  2  0  0  0  0 
 13 14  2  0  0  0  0 
 14  9  1  0  0  0  0 
 14 10  1  0  0  0  0 
 18  3  1  0  0  0  0 
 19  4  1  0  0  0  0 
 21  5  1  0  0  0  0 
 23  6  1  0  0  0  0 
 24 10  1  0  0  0  0 
 26 11  1  0  0  0  0 
M  END 
>  <HBA> 
4 
 
>  <HBD> 
2 
 
>  <TPSA> 
80.57 
 
>  <cid> 
5226 
 
>  <dipole> 
3.88 
 
>  <excitation_energy_1> 
4.639 
 
>  <excitation_energy_2> 
4.982 
 
>  <excitation_energy_3> 
5.1 
 
>  <excitation_energy_4> 
5.456 
 
>  <homo_energy> 
-6.267 
 
>  <homo_lumo_gap> 
5.45 
 
>  <logP> 
2.09 
 
>  <lumo_energy> 
-0.816 
 
>  <melting_point> 
150.48 
 
>  <molecular_refractivity> 
56.78 
 
>  <oscillator_strength_1> 
0.0114 
 
>  <oscillator_strength_2> 
0.0066 
 
>  <oscillator_strength_3> 
0.0235 
 
>  <oscillator_strength_4> 
0.0045 
 
>  <open_babel_can_smiles> 
NS(=O)(=O)c1ccc2c(c1)CNCC2 
 
>  <mulliken_charges> 
26 
1   -0.18675 
2   -0.139326 
3   -0.322439 
4   -0.152169 
5   -0.197778 
6   -0.198376 
7   0.131108 
8   0.117755 
9   -0.135863 
10   -0.814565 
11   -0.553336 
12   -0.539558 
13   -0.536929 
14   1.166703 
15   0.134346 
16   0.171455 
17   0.169743 
18   0.146234 
19   0.122108 
20   0.142601 
21   0.166744 
22   0.157385 
23   0.137826 
24   0.355065 
25   0.354552 
26   0.303463 
 
>  <lowdin_charges> 
26 
1   -0.155501 
2   -0.140018 
3   -0.275301 
4   -0.201014 
5   -0.14098 
6   -0.198099 
7   0.005592 
8   -0.010437 
9   -0.182016 
10   -0.695272 
11   -0.363133 
12   -0.595043 
13   -0.593687 
14   1.306095 
15   0.159853 
16   0.180008 
17   0.162071 
18   0.152583 
19   0.118487 
20   0.149931 
21   0.176685 
22   0.155152 
23   0.129238 
24   0.297369 
25   0.297974 
26   0.259463 
 
$$$$ 
 
