PCCDB-ID:  226 
public computational chemistry database (PCCDB) project, http://pccdb.org 
 
 10  9  0  0  1  0  0  0  0  0999 V2000 
    1.2293   -0.1196   -0.2384 C   0  0  1  0  0  0  0  0  0  0  0  0 
    0.6381    0.7031   -1.2851 N   0  0  0  0  0  0  0  0  0  0  0  0 
    0.9585   -1.4773   -0.5109 O   0  0  0  0  0  0  0  0  0  0  0  0 
    3.1042    0.1129   -0.0310 P   0  0  0  0  0  0  0  0  0  0  0  0 
    0.7689    0.2016    0.7102 H   0  0  0  0  0  0  0  0  0  0  0  0 
    1.1598    0.6074   -2.1559 H   0  0  0  0  0  0  0  0  0  0  0  0 
    0.6393    1.6881   -1.0277 H   0  0  0  0  0  0  0  0  0  0  0  0 
    0.0205   -1.5035   -0.7743 H   0  0  0  0  0  0  0  0  0  0  0  0 
    3.4472   -0.5963   -1.2184 H   0  0  0  0  0  0  0  0  0  0  0  0 
    3.3389   -1.0063    0.8181 H   0  0  0  0  0  0  0  0  0  0  0  0 
  1  4  1  0  0  0  0 
  1  5  1  1  0  0  0 
  2  7  1  0  0  0  0 
  2  1  1  0  0  0  0 
  3  1  1  0  0  0  0 
  4 10  1  0  0  0  0 
  6  2  1  0  0  0  0 
  8  3  1  0  0  0  0 
  9  4  1  0  0  0  0 
M  END 
>  <HBA> 
2 
 
>  <HBD> 
3 
 
>  <TPSA> 
59.84 
 
>  <cid> 
226 
 
>  <dipole> 
1.35 
 
>  <excitation_energy_1> 
5.656 
 
>  <excitation_energy_2> 
6.091 
 
>  <excitation_energy_3> 
6.523 
 
>  <excitation_energy_4> 
6.625 
 
>  <homo_energy> 
-6.637 
 
>  <homo_lumo_gap> 
7.268 
 
>  <logP> 
-0.204 
 
>  <lumo_energy> 
0.631 
 
>  <melting_point> 
60.91 
 
>  <molecular_refractivity> 
19.44 
 
>  <oscillator_strength_1> 
0.0296 
 
>  <oscillator_strength_2> 
0.0432 
 
>  <oscillator_strength_3> 
0.1666 
 
>  <oscillator_strength_4> 
0.0798 
 
>  <open_babel_can_smiles> 
N[C@H](P)O 
 
>  <mulliken_charges> 
10 
1   0.083748 
2   -0.723548 
3   -0.596062 
4   0.048286 
5   0.141912 
6   0.308373 
7   0.31043 
8   0.390552 
9   0.014481 
10   0.021828 
 
>  <lowdin_charges> 
10 
1   -0.078108 
2   -0.550467 
3   -0.455413 
4   -0.012797 
5   0.137874 
6   0.262837 
7   0.266168 
8   0.34217 
9   0.041604 
10   0.046132 
 
$$$$ 
 
