PCCDB-ID:  21 
public computational chemistry database (PCCDB) project, http://pccdb.org 
 
 20 19  0  0  1  0  0  0  0  0999 V2000 
    2.5790   -1.4470    0.2650 C   0  0  0  0  0  0  0  0  0  0  0  0 
    1.1074    2.8236    1.2293 C   0  0  0  0  0  0  0  0  0  0  0  0 
    2.1326    0.0180    0.2612 C   0  0  0  0  0  0  0  0  0  0  0  0 
    2.5412    2.3872    1.1253 C   0  0  0  0  0  0  0  0  0  0  0  0 
    2.5672    0.4217    2.7270 C   0  0  0  0  0  0  0  0  0  0  0  0 
    2.9060    0.8877    1.2800 C   0  0  1  0  0  0  0  0  0  0  0  0 
    3.4596    3.1588    0.8954 O   0  0  0  0  0  0  0  0  0  0  0  0 
    1.4362    0.3659    3.1519 O   0  0  0  0  0  0  0  0  0  0  0  0 
    3.6430    0.0819    3.4412 O   0  0  0  0  0  0  0  0  0  0  0  0 
    4.3077    0.7667    1.0843 O   0  0  0  0  0  0  0  0  0  0  0  0 
    2.0320   -2.0086   -0.4994 H   0  0  0  0  0  0  0  0  0  0  0  0 
    2.3805   -1.9229    1.2320 H   0  0  0  0  0  0  0  0  0  0  0  0 
    3.6483   -1.5297    0.0511 H   0  0  0  0  0  0  0  0  0  0  0  0 
    0.6151    2.3290    2.0711 H   0  0  0  0  0  0  0  0  0  0  0  0 
    0.5708    2.5243    0.3197 H   0  0  0  0  0  0  0  0  0  0  0  0 
    1.0632    3.9104    1.3223 H   0  0  0  0  0  0  0  0  0  0  0  0 
    1.0656    0.0868    0.4949 H   0  0  0  0  0  0  0  0  0  0  0  0 
    2.2870    0.4511   -0.7351 H   0  0  0  0  0  0  0  0  0  0  0  0 
    4.4092    0.2065    2.8330 H   0  0  0  0  0  0  0  0  0  0  0  0 
    4.6109    1.6876    0.9093 H   0  0  0  0  0  0  0  0  0  0  0  0 
  1 12  1  0  0  0  0 
  2 16  1  0  0  0  0 
  2 14  1  0  0  0  0 
  3  1  1  0  0  0  0 
  3 17  1  0  0  0  0 
  3  6  1  0  0  0  0 
  4  2  1  0  0  0  0 
  4  6  1  0  0  0  0 
  5  8  2  0  0  0  0 
  5  9  1  0  0  0  0 
  6 10  1  6  0  0  0 
  6  5  1  0  0  0  0 
  7  4  2  0  0  0  0 
 11  1  1  0  0  0  0 
 13  1  1  0  0  0  0 
 15  2  1  0  0  0  0 
 18  3  1  0  0  0  0 
 19  9  1  0  0  0  0 
 20 10  1  0  0  0  0 
M  END 
>  <HBA> 
4 
 
>  <HBD> 
2 
 
>  <TPSA> 
74.6 
 
>  <cid> 
21 
 
>  <dipole> 
2.68 
 
>  <excitation_energy_1> 
4.622 
 
>  <excitation_energy_2> 
4.973 
 
>  <excitation_energy_3> 
5.953 
 
>  <excitation_energy_4> 
6.461 
 
>  <homo_energy> 
-7.353 
 
>  <homo_lumo_gap> 
5.921 
 
>  <logP> 
-0.199 
 
>  <lumo_energy> 
-1.431 
 
>  <melting_point> 
101.63 
 
>  <molecular_refractivity> 
34.13 
 
>  <oscillator_strength_1> 
0.0019 
 
>  <oscillator_strength_2> 
0.0177 
 
>  <oscillator_strength_3> 
0.0063 
 
>  <oscillator_strength_4> 
0.0162 
 
>  <open_babel_can_smiles> 
CC[C@](C(=O)O)(C(=O)C)O 
 
>  <mulliken_charges> 
20 
1   -0.464067 
2   -0.544597 
3   -0.267253 
4   0.444199 
5   0.597042 
6   0.140291 
7   -0.455772 
8   -0.46118 
9   -0.569747 
10   -0.690082 
11   0.15454 
12   0.165589 
13   0.172033 
14   0.221273 
15   0.18765 
16   0.187398 
17   0.168844 
18   0.149578 
19   0.439117 
20   0.425144 
 
>  <lowdin_charges> 
20 
1   -0.447721 
2   -0.472601 
3   -0.27063 
4   0.170593 
5   0.175218 
6   0.044499 
7   -0.235043 
8   -0.254341 
9   -0.332602 
10   -0.454147 
11   0.159512 
12   0.158121 
13   0.160471 
14   0.197293 
15   0.18403 
16   0.177699 
17   0.16205 
18   0.15147 
19   0.369707 
20   0.356421 
 
$$$$ 
 
