PCCDB-ID:  876 
public computational chemistry database (PCCDB) project, http://pccdb.org 
 
 20 19  0  0  1  0  0  0  0  0999 V2000 
    3.0790   -0.9992   -1.1829 C   0  0  0  0  0  0  0  0  0  0  0  0 
    5.0332   -1.7342    1.5567 C   0  0  0  0  0  0  0  0  0  0  0  0 
    3.5025   -1.6693    1.5228 C   0  0  0  0  0  0  0  0  0  0  0  0 
    5.5915   -2.8986    2.4069 C   0  0  1  0  0  0  0  0  0  0  0  0 
    5.2624   -4.2471    1.7307 C   0  0  0  0  0  0  0  0  0  0  0  0 
    7.0585   -2.7791    2.5159 N   0  0  0  0  0  0  0  0  0  0  0  0 
    4.1629   -4.7518    1.7598 O   0  0  0  0  0  0  0  0  0  0  0  0 
    6.2986   -4.7827    1.0689 O   0  0  0  0  0  0  0  0  0  0  0  0 
    2.8470   -0.2998    0.4907 S   0  0  0  0  0  0  0  0  0  0  0  0 
    2.6599   -0.2751   -1.8866 H   0  0  0  0  0  0  0  0  0  0  0  0 
    2.5406   -1.9457   -1.2879 H   0  0  0  0  0  0  0  0  0  0  0  0 
    4.1354   -1.1469   -1.4249 H   0  0  0  0  0  0  0  0  0  0  0  0 
    5.4157   -0.7924    1.9720 H   0  0  0  0  0  0  0  0  0  0  0  0 
    5.4374   -1.8190    0.5401 H   0  0  0  0  0  0  0  0  0  0  0  0 
    3.1119   -1.4810    2.5290 H   0  0  0  0  0  0  0  0  0  0  0  0 
    3.0728   -2.6161    1.1866 H   0  0  0  0  0  0  0  0  0  0  0  0 
    5.0892   -2.8991    3.3834 H   0  0  0  0  0  0  0  0  0  0  0  0 
    7.3531   -1.8056    2.4968 H   0  0  0  0  0  0  0  0  0  0  0  0 
    7.3941   -3.1795    3.3898 H   0  0  0  0  0  0  0  0  0  0  0  0 
    7.0592   -4.1758    1.2624 H   0  0  0  0  0  0  0  0  0  0  0  0 
  1  9  1  0  0  0  0 
  2 13  1  0  0  0  0 
  2  4  1  0  0  0  0 
  3  2  1  0  0  0  0 
  3 15  1  0  0  0  0 
  4  6  1  0  0  0  0 
  4 17  1  1  0  0  0 
  5  7  2  0  0  0  0 
  5  4  1  0  0  0  0 
  6 19  1  0  0  0  0 
  8 20  1  0  0  0  0 
  8  5  1  0  0  0  0 
  9  3  1  0  0  0  0 
 10  1  1  0  0  0  0 
 11  1  1  0  0  0  0 
 12  1  1  0  0  0  0 
 14  2  1  0  0  0  0 
 16  3  1  0  0  0  0 
 18  6  1  0  0  0  0 
M  END 
>  <HBA> 
4 
 
>  <HBD> 
2 
 
>  <TPSA> 
88.62 
 
>  <cid> 
876 
 
>  <dipole> 
4.48 
 
>  <excitation_energy_1> 
5.059 
 
>  <excitation_energy_2> 
5.2 
 
>  <excitation_energy_3> 
5.313 
 
>  <excitation_energy_4> 
5.528 
 
>  <homo_energy> 
-6.027 
 
>  <homo_lumo_gap> 
6.359 
 
>  <logP> 
0.852 
 
>  <lumo_energy> 
0.332 
 
>  <melting_point> 
114.48 
 
>  <molecular_refractivity> 
38.22 
 
>  <oscillator_strength_1> 
0.0104 
 
>  <oscillator_strength_2> 
0.0 
 
>  <oscillator_strength_3> 
0.0028 
 
>  <oscillator_strength_4> 
0.0026 
 
>  <open_babel_can_smiles> 
CSCC[C@@H](C(=O)O)N 
 
>  <mulliken_charges> 
20 
1   -0.584816 
2   -0.270687 
3   -0.428836 
4   -0.069168 
5   0.603252 
6   -0.779394 
7   -0.466149 
8   -0.576876 
9   0.085002 
10   0.184848 
11   0.186202 
12   0.175979 
13   0.152265 
14   0.159006 
15   0.17381 
16   0.210204 
17   0.160135 
18   0.324257 
19   0.32722 
20   0.433748 
 
>  <lowdin_charges> 
20 
1   -0.546423 
2   -0.278316 
3   -0.381652 
4   -0.106465 
5   0.173768 
6   -0.548542 
7   -0.259929 
8   -0.355302 
9   0.096216 
10   0.178052 
11   0.166449 
12   0.157686 
13   0.151651 
14   0.152253 
15   0.166991 
16   0.178061 
17   0.153639 
18   0.26976 
19   0.272328 
20   0.359776 
 
$$$$ 
 
