PCCDB-ID:  79 
public computational chemistry database (PCCDB) project, http://pccdb.org 
 
 12 12  0  0  0  0  0  0  0  0999 V2000 
   -0.7594    1.1665    0.0172 C   0  0  0  0  0  0  0  0  0  0  0  0 
   -1.4195   -0.0549   -0.0535 C   0  0  0  0  0  0  0  0  0  0  0  0 
    0.6362    1.1706    0.0787 C   0  0  0  0  0  0  0  0  0  0  0  0 
   -1.2651   -2.5196   -0.1293 C   0  0  0  0  0  0  0  0  0  0  0  0 
    0.7504   -1.1108    0.0074 C   0  0  0  0  0  0  0  0  0  0  0  0 
   -0.6499   -1.2281   -0.0589 C   0  0  0  0  0  0  0  0  0  0  0  0 
   -1.7603   -3.5705   -0.1861 N   0  0  0  0  0  0  0  0  0  0  0  0 
    1.3847    0.0595    0.0748 N   0  0  0  0  0  0  0  0  0  0  0  0 
   -1.3126    2.1003    0.0249 H   0  0  0  0  0  0  0  0  0  0  0  0 
   -2.5023   -0.1120   -0.1023 H   0  0  0  0  0  0  0  0  0  0  0  0 
    1.1812    2.1109    0.1343 H   0  0  0  0  0  0  0  0  0  0  0  0 
    1.3693   -2.0052    0.0061 H   0  0  0  0  0  0  0  0  0  0  0  0 
  1  9  1  0  0  0  0 
  1  3  2  0  0  0  0 
  2  1  1  0  0  0  0 
  3 11  1  0  0  0  0 
  4  6  1  0  0  0  0 
  5  8  2  0  0  0  0 
  6  2  2  0  0  0  0 
  6  5  1  0  0  0  0 
  7  4  3  0  0  0  0 
  8  3  1  0  0  0  0 
 10  2  1  0  0  0  0 
 12  5  1  0  0  0  0 
M  END 
>  <HBA> 
2 
 
>  <HBD> 
0 
 
>  <TPSA> 
36.68 
 
>  <cid> 
79 
 
>  <dipole> 
3.87 
 
>  <excitation_energy_1> 
4.502 
 
>  <excitation_energy_2> 
4.927 
 
>  <excitation_energy_3> 
5.204 
 
>  <excitation_energy_4> 
5.652 
 
>  <homo_energy> 
-7.619 
 
>  <homo_lumo_gap> 
5.782 
 
>  <logP> 
0.953 
 
>  <lumo_energy> 
-1.837 
 
>  <melting_point> 
56.56 
 
>  <molecular_refractivity> 
28.95 
 
>  <oscillator_strength_1> 
0.0007 
 
>  <oscillator_strength_2> 
0.0033 
 
>  <oscillator_strength_3> 
0.0696 
 
>  <oscillator_strength_4> 
0.1839 
 
>  <open_babel_can_smiles> 
N#Cc1cccnc1 
 
>  <mulliken_charges> 
12 
1   -0.145377 
2   -0.097447 
3   0.055367 
4   0.239011 
5   0.045065 
6   0.106628 
7   -0.466762 
8   -0.401965 
9   0.156894 
10   0.174125 
11   0.160186 
12   0.174277 
 
>  <lowdin_charges> 
12 
1   -0.167144 
2   -0.102203 
3   -0.06939 
4   -0.013991 
5   -0.064326 
6   -0.036967 
7   -0.105182 
8   -0.134702 
9   0.174448 
10   0.178273 
11   0.166347 
12   0.174837 
 
$$$$ 
 
