PCCDB-ID:  999 
public computational chemistry database (PCCDB) project, http://pccdb.org 
 
 18 18  0  0  0  0  0  0  0  0999 V2000 
   -1.9034    0.1208    0.0525 C   0  0  0  0  0  0  0  0  0  0  0  0 
   -1.1218    1.1970   -0.3721 C   0  0  0  0  0  0  0  0  0  0  0  0 
   -1.2887   -1.0768    0.4225 C   0  0  0  0  0  0  0  0  0  0  0  0 
    0.2671    1.0742   -0.4284 C   0  0  0  0  0  0  0  0  0  0  0  0 
    0.1004   -1.1974    0.3656 C   0  0  0  0  0  0  0  0  0  0  0  0 
    2.4059   -0.2465   -0.0948 C   0  0  0  0  0  0  0  0  0  0  0  0 
    0.8989   -0.1252   -0.0628 C   0  0  0  0  0  0  0  0  0  0  0  0 
    3.1549    0.1631    1.1889 C   0  0  0  0  0  0  0  0  0  0  0  0 
    4.3558    0.1081    1.2723 O   0  0  0  0  0  0  0  0  0  0  0  0 
    2.4028    0.5909    2.2288 O   0  0  0  0  0  0  0  0  0  0  0  0 
   -2.9850    0.2144    0.0933 H   0  0  0  0  0  0  0  0  0  0  0  0 
   -1.5927    2.1314   -0.6649 H   0  0  0  0  0  0  0  0  0  0  0  0 
   -1.8899   -1.9201    0.7510 H   0  0  0  0  0  0  0  0  0  0  0  0 
    0.8701    1.9144   -0.7657 H   0  0  0  0  0  0  0  0  0  0  0  0 
    0.5732   -2.1349    0.6498 H   0  0  0  0  0  0  0  0  0  0  0  0 
    2.8322    0.3647   -0.8981 H   0  0  0  0  0  0  0  0  0  0  0  0 
    2.7121   -1.2775   -0.3042 H   0  0  0  0  0  0  0  0  0  0  0  0 
    1.4614    0.5666    1.9778 H   0  0  0  0  0  0  0  0  0  0  0  0 
  1 11  1  0  0  0  0 
  1  3  2  0  0  0  0 
  2  1  1  0  0  0  0 
  3 13  1  0  0  0  0 
  4  2  2  0  0  0  0 
  4  7  1  0  0  0  0 
  5  3  1  0  0  0  0 
  5 15  1  0  0  0  0 
  6  7  1  0  0  0  0 
  6  8  1  0  0  0  0 
  7  5  2  0  0  0  0 
  8  9  2  0  0  0  0 
  8 10  1  0  0  0  0 
 12  2  1  0  0  0  0 
 14  4  1  0  0  0  0 
 16  6  1  0  0  0  0 
 17  6  1  0  0  0  0 
 18 10  1  0  0  0  0 
M  END 
>  <HBA> 
2 
 
>  <HBD> 
1 
 
>  <TPSA> 
37.3 
 
>  <cid> 
999 
 
>  <dipole> 
4.96 
 
>  <excitation_energy_1> 
5.217 
 
>  <excitation_energy_2> 
5.612 
 
>  <excitation_energy_3> 
5.646 
 
>  <excitation_energy_4> 
6.142 
 
>  <homo_energy> 
-6.874 
 
>  <homo_lumo_gap> 
6.191 
 
>  <logP> 
1.314 
 
>  <lumo_energy> 
-0.683 
 
>  <melting_point> 
83.64 
 
>  <molecular_refractivity> 
37.99 
 
>  <oscillator_strength_1> 
0.0003 
 
>  <oscillator_strength_2> 
0.0021 
 
>  <oscillator_strength_3> 
0.1071 
 
>  <oscillator_strength_4> 
0.0353 
 
>  <open_babel_can_smiles> 
OC(=O)Cc1ccccc1 
 
>  <mulliken_charges> 
18 
1   -0.127929 
2   -0.125129 
3   -0.12512 
4   -0.170485 
5   -0.17013 
6   -0.452712 
7   0.079133 
8   0.585502 
9   -0.441328 
10   -0.562582 
11   0.140596 
12   0.141728 
13   0.141677 
14   0.140883 
15   0.140667 
16   0.193845 
17   0.193665 
18   0.41772 
 
>  <lowdin_charges> 
18 
1   -0.149173 
2   -0.15033 
3   -0.15127 
4   -0.167953 
5   -0.166643 
6   -0.315646 
7   -0.032736 
8   0.186678 
9   -0.244046 
10   -0.349053 
11   0.16114 
12   0.163749 
13   0.164495 
14   0.162959 
15   0.162104 
16   0.183877 
17   0.181833 
18   0.360016 
 
$$$$ 
 
