PCCDB-ID:  50 
public computational chemistry database (PCCDB) project, http://pccdb.org 
 
 23 22  0  0  1  0  0  0  0  0999 V2000 
    0.6964   -0.0634   -0.1708 C   0  0  0  0  0  0  0  0  0  0  0  0 
    0.2927    1.3492   -0.5930 C   0  0  1  0  0  0  0  0  0  0  0  0 
    1.0035    1.8210   -1.8646 C   0  0  1  0  0  0  0  0  0  0  0  0 
    0.5809    3.2565   -2.2789 C   0  0  1  0  0  0  0  0  0  0  0  0 
   -0.9195    3.5208   -2.3216 C   0  0  0  0  0  0  0  0  0  0  0  0 
   -1.7402    2.6947   -3.3138 C   0  0  0  0  0  0  0  0  0  0  0  0 
   -0.1678   -0.5091    0.8821 O   0  0  0  0  0  0  0  0  0  0  0  0 
   -1.1045    1.3708   -0.8610 O   0  0  0  0  0  0  0  0  0  0  0  0 
    2.4094    1.8018   -1.6876 O   0  0  0  0  0  0  0  0  0  0  0  0 
    1.1826    4.1704   -1.3826 O   0  0  0  0  0  0  0  0  0  0  0  0 
   -1.4061    4.4205   -1.6669 O   0  0  0  0  0  0  0  0  0  0  0  0 
   -3.0581    2.8532   -3.1430 O   0  0  0  0  0  0  0  0  0  0  0  0 
   -1.2298    2.0096   -4.1731 O   0  0  0  0  0  0  0  0  0  0  0  0 
    1.7535   -0.1040    0.1138 H   0  0  0  0  0  0  0  0  0  0  0  0 
    0.5317   -0.7584   -1.0002 H   0  0  0  0  0  0  0  0  0  0  0  0 
    0.5347    2.0510    0.2258 H   0  0  0  0  0  0  0  0  0  0  0  0 
    0.7665    1.1336   -2.6814 H   0  0  0  0  0  0  0  0  0  0  0  0 
    0.9748    3.4203   -3.2933 H   0  0  0  0  0  0  0  0  0  0  0  0 
    0.1188   -0.0784    1.7030 H   0  0  0  0  0  0  0  0  0  0  0  0 
   -1.5173    0.8121   -0.1769 H   0  0  0  0  0  0  0  0  0  0  0  0 
    2.6188    2.6162   -1.1948 H   0  0  0  0  0  0  0  0  0  0  0  0 
    0.4510    4.7013   -1.0078 H   0  0  0  0  0  0  0  0  0  0  0  0 
   -3.4925    2.3004   -3.8204 H   0  0  0  0  0  0  0  0  0  0  0  0 
  1 14  1  0  0  0  0 
  1  7  1  0  0  0  0 
  2  1  1  0  0  0  0 
  2 16  1  1  0  0  0 
  3 17  1  6  0  0  0 
  3  9  1  0  0  0  0 
  3  2  1  0  0  0  0 
  4 18  1  6  0  0  0 
  4  3  1  0  0  0  0 
  4 10  1  0  0  0  0 
  5  4  1  0  0  0  0 
  5 11  2  0  0  0  0 
  6 12  1  0  0  0  0 
  6  5  1  0  0  0  0 
  7 19  1  0  0  0  0 
  8  2  1  0  0  0  0 
  8 20  1  0  0  0  0 
  9 21  1  0  0  0  0 
 10 22  1  0  0  0  0 
 13  6  2  0  0  0  0 
 15  1  1  0  0  0  0 
 23 12  1  0  0  0  0 
M  END 
>  <HBA> 
7 
 
>  <HBD> 
5 
 
>  <TPSA> 
135.29 
 
>  <cid> 
50 
 
>  <dipole> 
1.82 
 
>  <excitation_energy_1> 
3.612 
 
>  <excitation_energy_2> 
4.288 
 
>  <excitation_energy_3> 
4.445 
 
>  <excitation_energy_4> 
5.05 
 
>  <homo_energy> 
-7.23 
 
>  <homo_lumo_gap> 
5.045 
 
>  <logP> 
-3.285 
 
>  <lumo_energy> 
-2.185 
 
>  <melting_point> 
146.46 
 
>  <molecular_refractivity> 
37.58 
 
>  <oscillator_strength_1> 
0.0003 
 
>  <oscillator_strength_2> 
0.0173 
 
>  <oscillator_strength_3> 
0.0138 
 
>  <oscillator_strength_4> 
0.003 
 
>  <open_babel_can_smiles> 
OC[C@@H]([C@@H]([C@@H](C(=O)C(=O)O)O)O)O 
 
>  <mulliken_charges> 
23 
1   -0.065012 
2   0.109579 
3   0.11932 
4   0.049954 
5   0.401621 
6   0.57042 
7   -0.622823 
8   -0.658204 
9   -0.635089 
10   -0.665227 
11   -0.446325 
12   -0.540736 
13   -0.454146 
14   0.154806 
15   0.161461 
16   0.108178 
17   0.166972 
18   0.181318 
19   0.39733 
20   0.414477 
21   0.413783 
22   0.418899 
23   0.419446 
 
>  <lowdin_charges> 
23 
1   -0.151108 
2   -0.038937 
3   -0.021566 
4   -0.039989 
5   0.134872 
6   0.175868 
7   -0.465736 
8   -0.462211 
9   -0.452241 
10   -0.463523 
11   -0.197196 
12   -0.315361 
13   -0.245286 
14   0.148548 
15   0.156989 
16   0.123537 
17   0.163704 
18   0.170914 
19   0.347979 
20   0.353837 
21   0.350437 
22   0.35565 
23   0.370815 
 
$$$$ 
 
