PCCDB-ID:  114 
public computational chemistry database (PCCDB) project, http://pccdb.org 
 
 23 23  0  0  0  0  0  0  0  0999 V2000 
   -0.7931    0.1156   -0.4387 C   0  0  0  0  0  0  0  0  0  0  0  0 
   -3.8856    3.0537    1.5787 C   0  0  0  0  0  0  0  0  0  0  0  0 
   -0.7778    0.9512    0.8618 C   0  0  0  0  0  0  0  0  0  0  0  0 
   -2.6040    2.7081    1.1498 C   0  0  0  0  0  0  0  0  0  0  0  0 
   -1.4102    0.8209   -1.6513 C   0  0  0  0  0  0  0  0  0  0  0  0 
   -4.6759    2.0704    2.1731 C   0  0  0  0  0  0  0  0  0  0  0  0 
   -3.0317    0.5011    1.9453 C   0  0  0  0  0  0  0  0  0  0  0  0 
   -2.1471    1.3973    1.3254 C   0  0  0  0  0  0  0  0  0  0  0  0 
   -0.6000    2.0117   -2.1523 C   0  0  0  0  0  0  0  0  0  0  0  0 
   -4.2639    0.8097    2.3613 N   0  0  0  0  0  0  0  0  0  0  0  0 
    0.4796    2.3435   -1.7298 O   0  0  0  0  0  0  0  0  0  0  0  0 
   -1.1763    2.7187   -3.1642 O   0  0  0  0  0  0  0  0  0  0  0  0 
   -1.3488   -0.8144   -0.2671 H   0  0  0  0  0  0  0  0  0  0  0  0 
    0.2381   -0.1641   -0.6803 H   0  0  0  0  0  0  0  0  0  0  0  0 
   -4.2633    4.0652    1.4588 H   0  0  0  0  0  0  0  0  0  0  0  0 
   -0.1327    1.8221    0.7113 H   0  0  0  0  0  0  0  0  0  0  0  0 
   -0.3091    0.3411    1.6444 H   0  0  0  0  0  0  0  0  0  0  0  0 
   -1.9556    3.4515    0.6906 H   0  0  0  0  0  0  0  0  0  0  0  0 
   -2.4301    1.1604   -1.4225 H   0  0  0  0  0  0  0  0  0  0  0  0 
   -1.5044    0.1116   -2.4864 H   0  0  0  0  0  0  0  0  0  0  0  0 
   -5.6818    2.3023    2.5193 H   0  0  0  0  0  0  0  0  0  0  0  0 
   -2.7178   -0.5286    2.1216 H   0  0  0  0  0  0  0  0  0  0  0  0 
   -2.0380    2.3314   -3.3921 H   0  0  0  0  0  0  0  0  0  0  0  0 
  1 13  1  0  0  0  0 
  1  3  1  0  0  0  0 
  2  6  2  0  0  0  0 
  3  8  1  0  0  0  0 
  3 17  1  0  0  0  0 
  4  8  2  0  0  0  0 
  4  2  1  0  0  0  0 
  5 19  1  0  0  0  0 
  5  1  1  0  0  0  0 
  6 10  1  0  0  0  0 
  6 21  1  0  0  0  0 
  7 22  1  0  0  0  0 
  7 10  2  0  0  0  0 
  8  7  1  0  0  0  0 
  9 11  2  0  0  0  0 
  9  5  1  0  0  0  0 
 12  9  1  0  0  0  0 
 14  1  1  0  0  0  0 
 15  2  1  0  0  0  0 
 16  3  1  0  0  0  0 
 18  4  1  0  0  0  0 
 20  5  1  0  0  0  0 
 23 12  1  0  0  0  0 
M  END 
>  <HBA> 
3 
 
>  <HBD> 
1 
 
>  <TPSA> 
50.19 
 
>  <cid> 
114 
 
>  <dipole> 
2.48 
 
>  <excitation_energy_1> 
4.818 
 
>  <excitation_energy_2> 
5.101 
 
>  <excitation_energy_3> 
5.352 
 
>  <excitation_energy_4> 
5.682 
 
>  <homo_energy> 
-6.895 
 
>  <homo_lumo_gap> 
6.212 
 
>  <logP> 
1.489 
 
>  <lumo_energy> 
-0.683 
 
>  <melting_point> 
97.82 
 
>  <molecular_refractivity> 
45.4 
 
>  <oscillator_strength_1> 
0.0041 
 
>  <oscillator_strength_2> 
0.0002 
 
>  <oscillator_strength_3> 
0.0431 
 
>  <oscillator_strength_4> 
0.0008 
 
>  <open_babel_can_smiles> 
OC(=O)CCCc1cccnc1 
 
>  <mulliken_charges> 
23 
1   -0.248935 
2   -0.137268 
3   -0.364541 
4   -0.167957 
5   -0.410418 
6   0.034293 
7   -0.011275 
8   0.151508 
9   0.609025 
10   -0.407556 
11   -0.440356 
12   -0.566244 
13   0.141682 
14   0.163415 
15   0.138755 
16   0.179667 
17   0.153008 
18   0.150552 
19   0.171289 
20   0.173238 
21   0.14146 
22   0.136086 
23   0.410573 
 
>  <lowdin_charges> 
23 
1   -0.266098 
2   -0.173994 
3   -0.280897 
4   -0.148027 
5   -0.328495 
6   -0.094114 
7   -0.101843 
8   -0.022478 
9   0.194013 
10   -0.146058 
11   -0.239612 
12   -0.357127 
13   0.148962 
14   0.159901 
15   0.163761 
16   0.166993 
17   0.159516 
18   0.166065 
19   0.164057 
20   0.169515 
21   0.155627 
22   0.151631 
23   0.358703 
 
$$$$ 
 
