PCCDB-ID:  472 
public computational chemistry database (PCCDB) project, http://pccdb.org 
 
 24 24  0  0  0  0  0  0  0  0999 V2000 
   -1.4354   -0.2349    0.7905 C   0  0  0  0  0  0  0  0  0  0  0  0 
   -1.4323   -1.2808   -0.1487 C   0  0  0  0  0  0  0  0  0  0  0  0 
   -0.4869    0.7629    0.6751 C   0  0  0  0  0  0  0  0  0  0  0  0 
   -0.5013   -1.3162   -1.1690 C   0  0  0  0  0  0  0  0  0  0  0  0 
    1.4431    2.9675    0.6158 C   0  0  0  0  0  0  0  0  0  0  0  0 
    0.4849    0.7690   -0.3515 C   0  0  0  0  0  0  0  0  0  0  0  0 
    0.4804   -0.3026   -1.3035 C   0  0  0  0  0  0  0  0  0  0  0  0 
    1.4719    1.8474   -0.4341 C   0  0  0  0  0  0  0  0  0  0  0  0 
    2.5403    3.9769    0.3276 C   0  0  0  0  0  0  0  0  0  0  0  0 
    2.3090    4.8369   -0.9281 C   0  0  0  0  0  0  0  0  0  0  0  0 
    1.3835   -0.3643   -2.3143 N   0  0  0  0  0  0  0  0  0  0  0  0 
    2.3509    1.9076   -1.3041 O   0  0  0  0  0  0  0  0  0  0  0  0 
    3.4998    4.1552    1.0404 O   0  0  0  0  0  0  0  0  0  0  0  0 
    3.4282    5.4464   -1.3440 O   0  0  0  0  0  0  0  0  0  0  0  0 
    1.2201    4.9689   -1.4435 O   0  0  0  0  0  0  0  0  0  0  0  0 
   -2.1684   -0.2104    1.5902 H   0  0  0  0  0  0  0  0  0  0  0  0 
   -2.1710   -2.0751   -0.0760 H   0  0  0  0  0  0  0  0  0  0  0  0 
   -0.4877    1.5702    1.3999 H   0  0  0  0  0  0  0  0  0  0  0  0 
   -0.5091   -2.1316   -1.8888 H   0  0  0  0  0  0  0  0  0  0  0  0 
    1.6109    2.5635    1.6188 H   0  0  0  0  0  0  0  0  0  0  0  0 
    0.4703    3.4719    0.5956 H   0  0  0  0  0  0  0  0  0  0  0  0 
    1.3530   -1.1245   -2.9746 H   0  0  0  0  0  0  0  0  0  0  0  0 
    2.0763    0.3706   -2.3945 H   0  0  0  0  0  0  0  0  0  0  0  0 
    3.1787    5.9733   -2.1270 H   0  0  0  0  0  0  0  0  0  0  0  0 
  1 16  1  0  0  0  0 
  2 17  1  0  0  0  0 
  2  1  2  0  0  0  0 
  3  1  1  0  0  0  0 
  3 18  1  0  0  0  0 
  4  2  1  0  0  0  0 
  5 20  1  0  0  0  0 
  6  3  2  0  0  0  0 
  7  4  2  0  0  0  0 
  7  6  1  0  0  0  0 
  8  6  1  0  0  0  0 
  8  5  1  0  0  0  0 
  9  5  1  0  0  0  0 
  9 13  2  0  0  0  0 
 10  9  1  0  0  0  0 
 11  7  1  0  0  0  0 
 12  8  2  0  0  0  0 
 14 10  1  0  0  0  0 
 15 10  2  0  0  0  0 
 19  4  1  0  0  0  0 
 21  5  1  0  0  0  0 
 22 11  1  0  0  0  0 
 23 11  1  0  0  0  0 
 24 14  1  0  0  0  0 
M  END 
>  <HBA> 
5 
 
>  <HBD> 
2 
 
>  <TPSA> 
97.46 
 
>  <cid> 
472 
 
>  <dipole> 
3.39 
 
>  <excitation_energy_1> 
3.17 
 
>  <excitation_energy_2> 
3.362 
 
>  <excitation_energy_3> 
3.612 
 
>  <excitation_energy_4> 
4.057 
 
>  <homo_energy> 
-5.739 
 
>  <homo_lumo_gap> 
3.845 
 
>  <logP> 
1.077 
 
>  <lumo_energy> 
-1.894 
 
>  <melting_point> 
185.59 
 
>  <molecular_refractivity> 
52.63 
 
>  <oscillator_strength_1> 
0.0003 
 
>  <oscillator_strength_2> 
0.0003 
 
>  <oscillator_strength_3> 
0.1206 
 
>  <oscillator_strength_4> 
0.0 
 
>  <open_babel_can_smiles> 
OC(=O)C(=O)CC(=O)c1ccccc1N 
 
>  <mulliken_charges> 
24 
1   -0.144329 
2   -0.123903 
3   -0.196894 
4   -0.178404 
5   -0.458374 
6   0.059465 
7   0.336121 
8   0.424868 
9   0.425929 
10   0.543318 
11   -0.827739 
12   -0.526059 
13   -0.400751 
14   -0.538452 
15   -0.457868 
16   0.13108 
17   0.13757 
18   0.139064 
19   0.124819 
20   0.196333 
21   0.204111 
22   0.331851 
23   0.382668 
24   0.415577 
 
>  <lowdin_charges> 
24 
1   -0.195958 
2   -0.121444 
3   -0.133179 
4   -0.205318 
5   -0.334803 
6   -0.10077 
7   0.101946 
8   0.172432 
9   0.152919 
10   0.166474 
11   -0.453978 
12   -0.285092 
13   -0.174816 
14   -0.317046 
15   -0.250362 
16   0.160823 
17   0.162818 
18   0.163606 
19   0.156756 
20   0.183016 
21   0.190274 
22   0.285517 
23   0.308522 
24   0.367664 
 
$$$$ 
 
