PCCDB-ID:  199 
public computational chemistry database (PCCDB) project, http://pccdb.org 
 
 23 22  0  0  0  0  0  0  0  0999 V2000 
    1.4072    0.0531    0.1103 C   0  0  0  0  0  0  0  0  0  0  0  0 
    0.5014    0.8306    1.0721 C   0  0  0  0  0  0  0  0  0  0  0  0 
    2.8857    0.1046    0.5008 C   0  0  0  0  0  0  0  0  0  0  0  0 
   -0.9740    0.7582    0.6750 C   0  0  0  0  0  0  0  0  0  0  0  0 
   -3.1820    1.4377    1.5077 C   0  0  0  0  0  0  0  0  0  0  0  0 
    3.7041   -0.6139   -0.4836 N   0  0  0  0  0  0  0  0  0  0  0  0 
   -3.7387    0.6175    0.6922 N   0  0  0  0  0  0  0  0  0  0  0  0 
   -3.8186    2.3633    2.3570 N   0  0  0  0  0  0  0  0  0  0  0  0 
   -1.7988    1.5094    1.6181 N   0  0  0  0  0  0  0  0  0  0  0  0 
    1.3041    0.4422   -0.9105 H   0  0  0  0  0  0  0  0  0  0  0  0 
    1.0807   -0.9974    0.0748 H   0  0  0  0  0  0  0  0  0  0  0  0 
    0.8237    1.8835    1.0991 H   0  0  0  0  0  0  0  0  0  0  0  0 
    0.6149    0.4461    2.0948 H   0  0  0  0  0  0  0  0  0  0  0  0 
    2.9983   -0.2680    1.5367 H   0  0  0  0  0  0  0  0  0  0  0  0 
    3.2209    1.1502    0.5095 H   0  0  0  0  0  0  0  0  0  0  0  0 
   -1.3277   -0.2764    0.6860 H   0  0  0  0  0  0  0  0  0  0  0  0 
   -1.1132    1.1192   -0.3562 H   0  0  0  0  0  0  0  0  0  0  0  0 
    3.4797   -1.6082   -0.4484 H   0  0  0  0  0  0  0  0  0  0  0  0 
    4.6886   -0.5422   -0.2309 H   0  0  0  0  0  0  0  0  0  0  0  0 
   -4.7527    0.6131    0.8176 H   0  0  0  0  0  0  0  0  0  0  0  0 
   -4.8165    2.2091    2.4398 H   0  0  0  0  0  0  0  0  0  0  0  0 
   -3.3861    2.4364    3.2728 H   0  0  0  0  0  0  0  0  0  0  0  0 
   -1.4661    2.4522    1.7914 H   0  0  0  0  0  0  0  0  0  0  0  0 
  1  3  1  0  0  0  0 
  1  2  1  0  0  0  0 
  2 12  1  0  0  0  0 
  2 13  1  0  0  0  0 
  3 15  1  0  0  0  0 
  3 14  1  0  0  0  0 
  4 16  1  0  0  0  0 
  4  2  1  0  0  0  0 
  4  9  1  0  0  0  0 
  5  9  1  0  0  0  0 
  5  8  2  0  0  0  0 
  6 18  1  0  0  0  0 
  6 19  1  0  0  0  0 
  6  3  1  0  0  0  0 
  7 20  1  0  0  0  0 
  7  5  1  0  0  0  0 
  8 21  1  0  0  0  0 
  8 22  1  0  0  0  0 
  9 23  1  0  0  0  0 
 10  1  1  0  0  0  0 
 11  1  1  0  0  0  0 
 17  4  1  0  0  0  0 
M  RAD  1   7   2 
M  END 
>  <HBA> 
4 
 
>  <HBD> 
3 
 
>  <TPSA> 
90.42 
 
>  <cid> 
199 
 
>  <dipole> 
3.46 
 
>  <excitation_energy_1> 
5.229 
 
>  <excitation_energy_2> 
5.595 
 
>  <excitation_energy_3> 
5.826 
 
>  <excitation_energy_4> 
6.001 
 
>  <homo_energy> 
-5.978 
 
>  <homo_lumo_gap> 
7.608 
 
>  <logP> 
1.1 
 
>  <lumo_energy> 
1.63 
 
>  <melting_point> 
154.71 
 
>  <molecular_refractivity> 
37.96 
 
>  <oscillator_strength_1> 
0.0019 
 
>  <oscillator_strength_2> 
0.0129 
 
>  <oscillator_strength_3> 
0.0056 
 
>  <oscillator_strength_4> 
0.0013 
 
>  <open_babel_can_smiles> 
NCCCCNC(=[NH2])[NH] 
 
>  <mulliken_charges> 
23 
1   -0.250392 
2   -0.279489 
3   -0.132764 
4   -0.09467 
5   0.584929 
6   -0.71532 
7   -0.644367 
8   -0.75674 
9   -0.609975 
10   0.151449 
11   0.128055 
12   0.121856 
13   0.139845 
14   0.109794 
15   0.136298 
16   0.17197 
17   0.14223 
18   0.291435 
19   0.294339 
20   0.26186 
21   0.316754 
22   0.320118 
23   0.312784 
 
>  <lowdin_charges> 
23 
1   -0.275379 
2   -0.27833 
3   -0.201238 
4   -0.188132 
5   0.124089 
6   -0.554656 
7   -0.476429 
8   -0.513495 
9   -0.310514 
10   0.149884 
11   0.137146 
12   0.132723 
13   0.142696 
14   0.113486 
15   0.138299 
16   0.16163 
17   0.136681 
18   0.248998 
19   0.252278 
20   0.242914 
21   0.272134 
22   0.275662 
23   0.269553 
 
$$$$ 
 
