PCCDB-ID:  1135 
public computational chemistry database (PCCDB) project, http://pccdb.org 
 
 15 15  0  0  0  0  0  0  0  0999 V2000 
    0.9132    0.0597   -0.0492 C   0  0  0  0  0  0  0  0  0  0  0  0 
    3.1834    1.2142   -0.0577 C   0  0  0  0  0  0  0  0  0  0  0  0 
    2.4198    0.0537   -0.0528 C   0  0  0  0  0  0  0  0  0  0  0  0 
    3.1808   -1.1388   -0.0525 C   0  0  0  0  0  0  0  0  0  0  0  0 
    5.1024    0.0280   -0.0598 C   0  0  0  0  0  0  0  0  0  0  0  0 
    4.5230    1.2329   -0.0612 N   0  0  0  0  0  0  0  0  0  0  0  0 
    4.5054   -1.1623   -0.0557 N   0  0  0  0  0  0  0  0  0  0  0  0 
    2.5986   -2.3584   -0.0498 O   0  0  0  0  0  0  0  0  0  0  0  0 
    6.4469   -0.0008   -0.0629 O   0  0  0  0  0  0  0  0  0  0  0  0 
    0.5337    1.0861   -0.0433 H   0  0  0  0  0  0  0  0  0  0  0  0 
    0.4960   -0.4393    0.8372 H   0  0  0  0  0  0  0  0  0  0  0  0 
    0.4917   -0.4314   -0.9379 H   0  0  0  0  0  0  0  0  0  0  0  0 
    2.6922    2.1870   -0.0592 H   0  0  0  0  0  0  0  0  0  0  0  0 
    1.6342   -2.2535   -0.0421 H   0  0  0  0  0  0  0  0  0  0  0  0 
    6.7305    0.9305   -0.0660 H   0  0  0  0  0  0  0  0  0  0  0  0 
  1 10  1  0  0  0  0 
  1 11  1  0  0  0  0 
  2  3  2  0  0  0  0 
  3  4  1  0  0  0  0 
  3  1  1  0  0  0  0 
  4  8  1  0  0  0  0 
  5  7  2  0  0  0  0 
  6  5  2  0  0  0  0 
  6  2  1  0  0  0  0 
  7  4  2  0  0  0  0 
  8 14  1  0  0  0  0 
  9  5  1  0  0  0  0 
 12  1  1  0  0  0  0 
 13  2  1  0  0  0  0 
 15  9  1  0  0  0  0 
M  END 
>  <HBA> 
2 
 
>  <HBD> 
2 
 
>  <TPSA> 
65.72 
 
>  <cid> 
1135 
 
>  <dipole> 
4.28 
 
>  <excitation_energy_1> 
4.944 
 
>  <excitation_energy_2> 
5.168 
 
>  <excitation_energy_3> 
5.606 
 
>  <excitation_energy_4> 
5.682 
 
>  <homo_energy> 
-6.599 
 
>  <homo_lumo_gap> 
5.908 
 
>  <logP> 
-0.628 
 
>  <lumo_energy> 
-0.691 
 
>  <melting_point> 
172.59 
 
>  <molecular_refractivity> 
32.65 
 
>  <oscillator_strength_1> 
0.0047 
 
>  <oscillator_strength_2> 
0.0772 
 
>  <oscillator_strength_3> 
0.0003 
 
>  <oscillator_strength_4> 
0.0006 
 
>  <open_babel_can_smiles> 
CC1=CN=[C](=[N]=C1O)O 
 
>  <mulliken_charges> 
15 
1   -0.578416 
2   0.006179 
3   0.118159 
4   0.452996 
5   0.631085 
6   -0.484774 
7   -0.471987 
8   -0.58626 
9   -0.582353 
10   0.177616 
11   0.167022 
12   0.167771 
13   0.145431 
14   0.420231 
15   0.417302 
 
>  <lowdin_charges> 
15 
1   -0.450953 
2   -0.065073 
3   -0.104664 
4   0.150787 
5   0.16151 
6   -0.22274 
7   -0.171495 
8   -0.334728 
9   -0.336553 
10   0.170787 
11   0.159318 
12   0.159663 
13   0.159492 
14   0.361213 
15   0.363435 
 
$$$$ 
 
