PCCDB-ID:  5173 
public computational chemistry database (PCCDB) project, http://pccdb.org 
 
 30 29  0  0  0  0  0  0  0  0999 V2000 
    0.9809   -0.2755    1.6512 C   0  0  0  0  0  0  0  0  0  0  0  0 
    0.2480   -1.5560    1.2232 C   0  0  0  0  0  0  0  0  0  0  0  0 
    2.3486   -0.5122    2.3128 C   0  0  0  0  0  0  0  0  0  0  0  0 
   -1.1166   -1.3196    0.5551 C   0  0  0  0  0  0  0  0  0  0  0  0 
    2.2700   -1.2074    3.6898 C   0  0  0  0  0  0  0  0  0  0  0  0 
   -1.0319   -0.6290   -0.8238 C   0  0  0  0  0  0  0  0  0  0  0  0 
    3.6324   -1.3926    4.3046 C   0  0  0  0  0  0  0  0  0  0  0  0 
   -2.3925   -0.4389   -1.4409 C   0  0  0  0  0  0  0  0  0  0  0  0 
    4.2056   -0.6338    5.1603 N   0  0  0  0  0  0  0  0  0  0  0  0 
   -2.9691   -1.1987   -2.2934 N   0  0  0  0  0  0  0  0  0  0  0  0 
    4.3883   -2.4469    3.8741 O   0  0  0  0  0  0  0  0  0  0  0  0 
   -3.1460    0.6174   -1.0106 O   0  0  0  0  0  0  0  0  0  0  0  0 
    3.3751    0.4757    5.4781 O   0  0  0  0  0  0  0  0  0  0  0  0 
   -2.1436   -2.3129   -2.6071 O   0  0  0  0  0  0  0  0  0  0  0  0 
    0.3420    0.2963    2.3407 H   0  0  0  0  0  0  0  0  0  0  0  0 
    1.1389    0.3676    0.7755 H   0  0  0  0  0  0  0  0  0  0  0  0 
    0.0850   -2.1958    2.1005 H   0  0  0  0  0  0  0  0  0  0  0  0 
    0.8894   -2.1314    0.5390 H   0  0  0  0  0  0  0  0  0  0  0  0 
    2.8531    0.4507    2.4527 H   0  0  0  0  0  0  0  0  0  0  0  0 
    2.9864   -1.1019    1.6394 H   0  0  0  0  0  0  0  0  0  0  0  0 
   -1.7570   -0.7274    1.2239 H   0  0  0  0  0  0  0  0  0  0  0  0 
   -1.6216   -2.2824    0.4160 H   0  0  0  0  0  0  0  0  0  0  0  0 
    1.7902   -2.1924    3.5999 H   0  0  0  0  0  0  0  0  0  0  0  0 
    1.6599   -0.6087    4.3711 H   0  0  0  0  0  0  0  0  0  0  0  0 
   -0.4241   -1.2330   -1.5025 H   0  0  0  0  0  0  0  0  0  0  0  0 
   -0.5471    0.3537   -0.7354 H   0  0  0  0  0  0  0  0  0  0  0  0 
    3.8191   -3.0441    3.3668 H   0  0  0  0  0  0  0  0  0  0  0  0 
   -2.5711    1.2232   -0.5200 H   0  0  0  0  0  0  0  0  0  0  0  0 
    3.9073    0.9199    6.1549 H   0  0  0  0  0  0  0  0  0  0  0  0 
   -2.6771   -2.7565   -3.2834 H   0  0  0  0  0  0  0  0  0  0  0  0 
  1  3  1  0  0  0  0 
  1 15  1  0  0  0  0 
  2  1  1  0  0  0  0 
  2 17  1  0  0  0  0 
  3 19  1  0  0  0  0 
  3  5  1  0  0  0  0 
  4  2  1  0  0  0  0 
  4 21  1  0  0  0  0 
  5  7  1  0  0  0  0 
  5 24  1  0  0  0  0 
  6 26  1  0  0  0  0 
  6  4  1  0  0  0  0 
  7  9  2  0  0  0  0 
  8 12  1  0  0  0  0 
  8  6  1  0  0  0  0 
  9 13  1  0  0  0  0 
 10  8  2  0  0  0  0 
 11  7  1  0  0  0  0 
 12 28  1  0  0  0  0 
 13 29  1  0  0  0  0 
 14 10  1  0  0  0  0 
 16  1  1  0  0  0  0 
 18  2  1  0  0  0  0 
 20  3  1  0  0  0  0 
 22  4  1  0  0  0  0 
 23  5  1  0  0  0  0 
 25  6  1  0  0  0  0 
 27 11  1  0  0  0  0 
 30 14  1  0  0  0  0 
M  END 
>  <HBA> 
6 
 
>  <HBD> 
4 
 
>  <TPSA> 
98.66 
 
>  <cid> 
5173 
 
>  <dipole> 
0.03 
 
>  <excitation_energy_1> 
5.352 
 
>  <excitation_energy_2> 
5.357 
 
>  <excitation_energy_3> 
5.693 
 
>  <excitation_energy_4> 
5.7 
 
>  <homo_energy> 
-6.114 
 
>  <homo_lumo_gap> 
6.691 
 
>  <logP> 
1.12 
 
>  <lumo_energy> 
0.577 
 
>  <melting_point> 
177.06 
 
>  <molecular_refractivity> 
48.03 
 
>  <oscillator_strength_1> 
0.005 
 
>  <oscillator_strength_2> 
0.0032 
 
>  <oscillator_strength_3> 
0.0001 
 
>  <oscillator_strength_4> 
0.0025 
 
>  <open_babel_can_smiles> 
O/N=C(\CCCCCC/C(=N\O)/O)/O 
 
>  <mulliken_charges> 
30 
1   -0.262264 
2   -0.262371 
3   -0.258439 
4   -0.258357 
5   -0.354357 
6   -0.35363 
7   0.512599 
8   0.511728 
9   -0.243435 
10   -0.242963 
11   -0.589661 
12   -0.589509 
13   -0.528801 
14   -0.528708 
15   0.134517 
16   0.137817 
17   0.138043 
18   0.134174 
19   0.163905 
20   0.133471 
21   0.134005 
22   0.163841 
23   0.136392 
24   0.189046 
25   0.188869 
26   0.1359 
27   0.410687 
28   0.410518 
29   0.418479 
30   0.418505 
 
>  <lowdin_charges> 
30 
1   -0.280694 
2   -0.280702 
3   -0.271539 
4   -0.27151 
5   -0.30742 
6   -0.307333 
7   0.100931 
8   0.100794 
9   -0.102643 
10   -0.102371 
11   -0.368032 
12   -0.36817 
13   -0.399997 
14   -0.399916 
15   0.142699 
16   0.144524 
17   0.144663 
18   0.142513 
19   0.159114 
20   0.141813 
21   0.142146 
22   0.159099 
23   0.146032 
24   0.176947 
25   0.176856 
26   0.145857 
27   0.360602 
28   0.360535 
29   0.357592 
30   0.35761 
 
$$$$ 
 
