PCCDB-ID:  1128 
public computational chemistry database (PCCDB) project, http://pccdb.org 
 
 14 14  0  0  0  0  0  0  0  0999 V2000 
   -0.7494   -0.9370   -0.3206 C   0  0  0  0  0  0  0  0  0  0  0  0 
    0.7097   -1.0938    0.1376 C   0  0  0  0  0  0  0  0  0  0  0  0 
   -1.2605    0.3158    0.3864 C   0  0  0  0  0  0  0  0  0  0  0  0 
    1.3628    0.3012    0.0891 C   0  0  0  0  0  0  0  0  0  0  0  0 
   -0.1349    2.0718   -1.3611 O   0  0  0  0  0  0  0  0  0  0  0  0 
    0.0235    1.6207    0.0781 S   0  0  0  0  0  0  0  0  0  0  0  0 
   -1.3538   -1.8198   -0.0837 H   0  0  0  0  0  0  0  0  0  0  0  0 
   -0.7944   -0.7750   -1.4036 H   0  0  0  0  0  0  0  0  0  0  0  0 
    1.2606   -1.8070   -0.4851 H   0  0  0  0  0  0  0  0  0  0  0  0 
    0.7298   -1.4785    1.1649 H   0  0  0  0  0  0  0  0  0  0  0  0 
   -1.3353    0.1765    1.4725 H   0  0  0  0  0  0  0  0  0  0  0  0 
   -2.2069    0.7085    0.0062 H   0  0  0  0  0  0  0  0  0  0  0  0 
    1.8925    0.4946   -0.8482 H   0  0  0  0  0  0  0  0  0  0  0  0 
    2.0420    0.4949    0.9245 H   0  0  0  0  0  0  0  0  0  0  0  0 
  1  7  1  0  0  0  0 
  1  2  1  0  0  0  0 
  1  3  1  0  0  0  0 
  2 10  1  0  0  0  0 
  3 11  1  0  0  0  0 
  4  2  1  0  0  0  0 
  4 14  1  0  0  0  0 
  5  6  2  0  0  0  0 
  6  4  1  0  0  0  0 
  6  3  1  0  0  0  0 
  8  1  1  0  0  0  0 
  9  2  1  0  0  0  0 
 12  3  1  0  0  0  0 
 13  4  1  0  0  0  0 
M  END 
>  <HBA> 
1 
 
>  <HBD> 
0 
 
>  <TPSA> 
36.28 
 
>  <cid> 
1128 
 
>  <dipole> 
4.12 
 
>  <excitation_energy_1> 
5.309 
 
>  <excitation_energy_2> 
5.519 
 
>  <excitation_energy_3> 
5.602 
 
>  <excitation_energy_4> 
6.064 
 
>  <homo_energy> 
-5.91 
 
>  <homo_lumo_gap> 
6.759 
 
>  <logP> 
1.395 
 
>  <lumo_energy> 
0.849 
 
>  <melting_point> 
16.65 
 
>  <molecular_refractivity> 
27.51 
 
>  <oscillator_strength_1> 
0.0275 
 
>  <oscillator_strength_2> 
0.0091 
 
>  <oscillator_strength_3> 
0.015 
 
>  <oscillator_strength_4> 
0.0137 
 
>  <open_babel_can_smiles> 
O=S1CCCC1 
 
>  <mulliken_charges> 
14 
1   -0.28023 
2   -0.254164 
3   -0.465564 
4   -0.489057 
5   -0.643554 
6   0.76033 
7   0.154022 
8   0.177501 
9   0.15944 
10   0.145846 
11   0.163814 
12   0.194692 
13   0.203447 
14   0.173478 
 
>  <lowdin_charges> 
14 
1   -0.282549 
2   -0.281016 
3   -0.423537 
4   -0.431663 
5   -0.679839 
6   0.784169 
7   0.156642 
8   0.16031 
9   0.160309 
10   0.145925 
11   0.160445 
12   0.179085 
13   0.182849 
14   0.168869 
 
$$$$ 
 
