PCCDB-ID:  428 
public computational chemistry database (PCCDB) project, http://pccdb.org 
 
 15 14  0  0  0  0  0  0  0  0999 V2000 
    0.9786    0.1168   -0.0018 C   0  0  0  0  0  0  0  0  0  0  0  0 
    0.3735    0.9329    1.1415 C   0  0  0  0  0  0  0  0  0  0  0  0 
    2.5023    0.0071    0.0741 C   0  0  0  0  0  0  0  0  0  0  0  0 
   -1.0922    0.9284    1.0557 N   0  0  0  0  0  0  0  0  0  0  0  0 
    3.0235   -0.7183   -1.0912 N   0  0  0  0  0  0  0  0  0  0  0  0 
    0.7125    0.5671   -0.9678 H   0  0  0  0  0  0  0  0  0  0  0  0 
    0.5277   -0.8848    0.0131 H   0  0  0  0  0  0  0  0  0  0  0  0 
    0.8200    1.9455    1.1379 H   0  0  0  0  0  0  0  0  0  0  0  0 
    0.6488    0.4759    2.1014 H   0  0  0  0  0  0  0  0  0  0  0  0 
    2.7838   -0.4430    1.0451 H   0  0  0  0  0  0  0  0  0  0  0  0 
    2.9421    1.0133    0.0596 H   0  0  0  0  0  0  0  0  0  0  0  0 
   -1.3813    1.4146    0.2071 H   0  0  0  0  0  0  0  0  0  0  0  0 
   -1.4838    1.4633    1.8297 H   0  0  0  0  0  0  0  0  0  0  0  0 
    2.6915   -1.6822   -1.0638 H   0  0  0  0  0  0  0  0  0  0  0  0 
    4.0396   -0.7726   -1.0362 H   0  0  0  0  0  0  0  0  0  0  0  0 
  1  7  1  0  0  0  0 
  1  3  1  0  0  0  0 
  1  2  1  0  0  0  0 
  2  9  1  0  0  0  0 
  3 10  1  0  0  0  0 
  4  2  1  0  0  0  0 
  4 13  1  0  0  0  0 
  5 14  1  0  0  0  0 
  5 15  1  0  0  0  0 
  5  3  1  0  0  0  0 
  6  1  1  0  0  0  0 
  8  2  1  0  0  0  0 
 11  3  1  0  0  0  0 
 12  4  1  0  0  0  0 
M  END 
>  <HBA> 
2 
 
>  <HBD> 
2 
 
>  <TPSA> 
52.04 
 
>  <cid> 
428 
 
>  <dipole> 
1.43 
 
>  <excitation_energy_1> 
5.619 
 
>  <excitation_energy_2> 
5.628 
 
>  <excitation_energy_3> 
6.174 
 
>  <excitation_energy_4> 
6.176 
 
>  <homo_energy> 
-6.221 
 
>  <homo_lumo_gap> 
8.534 
 
>  <logP> 
0.695 
 
>  <lumo_energy> 
2.313 
 
>  <melting_point> 
83.93 
 
>  <molecular_refractivity> 
21.95 
 
>  <oscillator_strength_1> 
0.0039 
 
>  <oscillator_strength_2> 
0.0215 
 
>  <oscillator_strength_3> 
0.0002 
 
>  <oscillator_strength_4> 
0.0039 
 
>  <open_babel_can_smiles> 
NCCCN 
 
>  <mulliken_charges> 
15 
1   -0.244632 
2   -0.135304 
3   -0.135145 
4   -0.715337 
5   -0.715362 
6   0.141157 
7   0.141189 
8   0.110365 
9   0.135831 
10   0.110317 
11   0.135835 
12   0.291803 
13   0.293757 
14   0.291791 
15   0.293736 
 
>  <lowdin_charges> 
15 
1   -0.282653 
2   -0.202797 
3   -0.203172 
4   -0.560827 
5   -0.554578 
6   0.145414 
7   0.144927 
8   0.114453 
9   0.139006 
10   0.114757 
11   0.138364 
12   0.251815 
13   0.254489 
14   0.249715 
15   0.251087 
 
$$$$ 
 
