PCCDB-ID:  127 
public computational chemistry database (PCCDB) project, http://pccdb.org 
 
 19 19  0  0  0  0  0  0  0  0999 V2000 
   -0.9858    0.8149    0.0587 C   0  0  0  0  0  0  0  0  0  0  0  0 
    1.1742   -0.1604   -0.3424 C   0  0  0  0  0  0  0  0  0  0  0  0 
   -1.5603   -0.4540    0.0740 C   0  0  0  0  0  0  0  0  0  0  0  0 
    0.6154   -1.4357   -0.3253 C   0  0  0  0  0  0  0  0  0  0  0  0 
    1.0110    2.3684   -0.1312 C   0  0  0  0  0  0  0  0  0  0  0  0 
    0.3898    0.9898   -0.1494 C   0  0  0  0  0  0  0  0  0  0  0  0 
   -0.7596   -1.5864   -0.1170 C   0  0  0  0  0  0  0  0  0  0  0  0 
    1.4507    2.8951    1.2478 C   0  0  0  0  0  0  0  0  0  0  0  0 
   -1.2595   -2.8560   -0.1132 O   0  0  0  0  0  0  0  0  0  0  0  0 
    1.6590    4.0636    1.4581 O   0  0  0  0  0  0  0  0  0  0  0  0 
    1.6342    1.9688    2.2176 O   0  0  0  0  0  0  0  0  0  0  0  0 
   -1.6202    1.6852    0.2093 H   0  0  0  0  0  0  0  0  0  0  0  0 
    2.2423   -0.0550   -0.5216 H   0  0  0  0  0  0  0  0  0  0  0  0 
   -2.6313   -0.5651    0.2334 H   0  0  0  0  0  0  0  0  0  0  0  0 
    1.2243   -2.3204   -0.4810 H   0  0  0  0  0  0  0  0  0  0  0  0 
    0.3312    3.1218   -0.5400 H   0  0  0  0  0  0  0  0  0  0  0  0 
    1.9087    2.3929   -0.7625 H   0  0  0  0  0  0  0  0  0  0  0  0 
   -2.2178   -2.8220    0.0328 H   0  0  0  0  0  0  0  0  0  0  0  0 
    1.3766    1.0928    1.8755 H   0  0  0  0  0  0  0  0  0  0  0  0 
  1  3  1  0  0  0  0 
  1 12  1  0  0  0  0 
  2  4  2  0  0  0  0 
  2  6  1  0  0  0  0 
  3 14  1  0  0  0  0 
  4  7  1  0  0  0  0 
  5  8  1  0  0  0  0 
  6  5  1  0  0  0  0 
  6  1  2  0  0  0  0 
  7  9  1  0  0  0  0 
  7  3  2  0  0  0  0 
  8 10  2  0  0  0  0 
  8 11  1  0  0  0  0 
  9 18  1  0  0  0  0 
 13  2  1  0  0  0  0 
 15  4  1  0  0  0  0 
 16  5  1  0  0  0  0 
 17  5  1  0  0  0  0 
 19 11  1  0  0  0  0 
M  END 
>  <HBA> 
3 
 
>  <HBD> 
2 
 
>  <TPSA> 
57.53 
 
>  <cid> 
127 
 
>  <dipole> 
5.17 
 
>  <excitation_energy_1> 
4.851 
 
>  <excitation_energy_2> 
5.376 
 
>  <excitation_energy_3> 
5.479 
 
>  <excitation_energy_4> 
5.573 
 
>  <homo_energy> 
-6.37 
 
>  <homo_lumo_gap> 
5.676 
 
>  <logP> 
1.019 
 
>  <lumo_energy> 
-0.694 
 
>  <melting_point> 
124.62 
 
>  <molecular_refractivity> 
40.01 
 
>  <oscillator_strength_1> 
0.0251 
 
>  <oscillator_strength_2> 
0.0023 
 
>  <oscillator_strength_3> 
0.0396 
 
>  <oscillator_strength_4> 
0.0979 
 
>  <open_babel_can_smiles> 
OC(=O)Cc1ccc(cc1)O 
 
>  <mulliken_charges> 
19 
1   -0.168399 
2   -0.198987 
3   -0.189954 
4   -0.151704 
5   -0.454778 
6   0.091612 
7   0.352993 
8   0.588011 
9   -0.635705 
10   -0.442949 
11   -0.565324 
12   0.144033 
13   0.142096 
14   0.130039 
15   0.15121 
16   0.189582 
17   0.190772 
18   0.411781 
19   0.41567 
 
>  <lowdin_charges> 
19 
1   -0.148981 
2   -0.162204 
3   -0.2039 
4   -0.181853 
5   -0.315389 
6   -0.050865 
7   0.105898 
8   0.186345 
9   -0.368595 
10   -0.244903 
11   -0.353234 
12   0.165099 
13   0.160714 
14   0.157049 
15   0.173591 
16   0.182116 
17   0.180632 
18   0.358808 
19   0.359672 
 
$$$$ 
 
