PCCDB-ID:  5080 
public computational chemistry database (PCCDB) project, http://pccdb.org 
 
 23 24  0  0  1  0  0  0  0  0999 V2000 
    1.5999    0.4399    0.0416 C   0  0  0  0  0  0  0  0  0  0  0  0 
   -0.1790   -3.5233    0.8102 C   0  0  0  0  0  0  0  0  0  0  0  0 
    0.6326   -4.6830    0.5145 C   0  0  0  0  0  0  0  0  0  0  0  0 
    0.3587   -2.2780    0.7650 C   0  0  0  0  0  0  0  0  0  0  0  0 
    1.9679   -4.5797    0.2877 C   0  0  0  0  0  0  0  0  0  0  0  0 
    4.6746   -0.9480    0.0260 C   0  0  0  0  0  0  0  0  0  0  0  0 
    2.2546   -0.9030   -0.0720 C   0  0  1  0  0  0  0  0  0  0  0  0 
    1.7516   -2.0901    0.3989 C   0  0  0  0  0  0  0  0  0  0  0  0 
    2.6374   -3.2935    0.3998 C   0  0  0  0  0  0  0  0  0  0  0  0 
    4.7001   -2.1922    0.9436 C   0  0  0  0  0  0  0  0  0  0  0  0 
    3.4754   -0.9018   -0.8113 N   0  0  0  0  0  0  0  0  0  0  0  0 
    3.9300   -3.3017    0.5918 N   0  0  0  0  0  0  0  0  0  0  0  0 
    5.4239   -2.2029    1.9234 O   0  0  0  0  0  0  0  0  0  0  0  0 
    2.3596    1.1893    0.2940 H   0  0  0  0  0  0  0  0  0  0  0  0 
    0.8108    0.4737    0.7959 H   0  0  0  0  0  0  0  0  0  0  0  0 
    1.1807    0.7449   -0.9265 H   0  0  0  0  0  0  0  0  0  0  0  0 
   -1.2322   -3.6596    1.0368 H   0  0  0  0  0  0  0  0  0  0  0  0 
    0.1589   -5.6614    0.5078 H   0  0  0  0  0  0  0  0  0  0  0  0 
   -0.2664   -1.4049    0.9240 H   0  0  0  0  0  0  0  0  0  0  0  0 
    2.5969   -5.4515    0.1385 H   0  0  0  0  0  0  0  0  0  0  0  0 
    5.5621   -0.9356   -0.6181 H   0  0  0  0  0  0  0  0  0  0  0  0 
    4.7336   -0.0707    0.6784 H   0  0  0  0  0  0  0  0  0  0  0  0 
    3.4987   -1.7494   -1.3795 H   0  0  0  0  0  0  0  0  0  0  0  0 
  1 14  1  0  0  0  0 
  1 15  1  0  0  0  0 
  2 17  1  0  0  0  0 
  3  2  2  0  0  0  0 
  4  2  1  0  0  0  0 
  4 19  1  0  0  0  0 
  5  9  2  0  0  0  0 
  5  3  1  0  0  0  0 
  6 22  1  0  0  0  0 
  6 10  1  0  0  0  0 
  7  1  1  6  0  0  0 
  7  8  1  0  0  0  0 
  8  9  1  0  0  0  0 
  8  4  2  0  0  0  0 
  9 12  1  0  0  0  0 
 10 13  2  0  0  0  0 
 11  7  1  0  0  0  0 
 11  6  1  0  0  0  0 
 12 10  1  0  0  0  0 
 16  1  1  0  0  0  0 
 18  3  1  0  0  0  0 
 20  5  1  0  0  0  0 
 21  6  1  0  0  0  0 
 23 11  1  0  0  0  0 
M  RAD  2   7   2  12   2 
M  END 
>  <HBA> 
3 
 
>  <HBD> 
1 
 
>  <TPSA> 
41.46 
 
>  <cid> 
5080 
 
>  <dipole> 
4.99 
 
>  <excitation_energy_1> 
2.622 
 
>  <excitation_energy_2> 
2.916 
 
>  <excitation_energy_3> 
3.56 
 
>  <excitation_energy_4> 
4.176 
 
>  <homo_energy> 
-5.848 
 
>  <homo_lumo_gap> 
3.23 
 
>  <logP> 
-0.671 
 
>  <lumo_energy> 
-2.618 
 
>  <melting_point> 
119.25 
 
>  <molecular_refractivity> 
56.35 
 
>  <oscillator_strength_1> 
0.0195 
 
>  <oscillator_strength_2> 
0.065 
 
>  <oscillator_strength_3> 
0.0076 
 
>  <oscillator_strength_4> 
0.0299 
 
>  <open_babel_can_smiles> 
O=C1CN[C](c2c([N]1)cccc2)C 
 
>  <mulliken_charges> 
23 
1   -0.496002 
2   -0.138467 
3   -0.124065 
4   -0.165386 
5   -0.135004 
6   -0.2402 
7   0.16573 
8   0.133956 
9   0.199599 
10   0.507949 
11   -0.569862 
12   -0.487963 
13   -0.44435 
14   0.177107 
15   0.165451 
16   0.182482 
17   0.139475 
18   0.144717 
19   0.140887 
20   0.154531 
21   0.183718 
22   0.185912 
23   0.319786 
 
>  <lowdin_charges> 
23 
1   -0.44276 
2   -0.168789 
3   -0.133042 
4   -0.144584 
5   -0.166021 
6   -0.238423 
7   0.087969 
8   -0.069269 
9   0.078206 
10   0.145229 
11   -0.315032 
12   -0.184605 
13   -0.24521 
14   0.175467 
15   0.162144 
16   0.175876 
17   0.161889 
18   0.165306 
19   0.164797 
20   0.175034 
21   0.173722 
22   0.173244 
23   0.26885 
 
$$$$ 
 
