PCCDB-ID:  1133 
public computational chemistry database (PCCDB) project, http://pccdb.org 
 
  9  8  0  0  0  0  0  0  0  0999 V2000 
    1.0961    0.1929   -0.2188 C   0  0  0  0  0  0  0  0  0  0  0  0 
    0.4704    1.4974    0.2978 C   0  0  0  0  0  0  0  0  0  0  0  0 
   -0.3507    2.0896   -0.3566 O   0  0  0  0  0  0  0  0  0  0  0  0 
    0.8463    1.9129    1.5207 O   0  0  0  0  0  0  0  0  0  0  0  0 
    2.6898   -0.3223    0.5449 S   0  0  0  0  0  0  0  0  0  0  0  0 
    1.1844    0.2621   -1.3037 H   0  0  0  0  0  0  0  0  0  0  0  0 
    0.3981   -0.6230   -0.0020 H   0  0  0  0  0  0  0  0  0  0  0  0 
    1.5429    1.3134    1.8592 H   0  0  0  0  0  0  0  0  0  0  0  0 
    3.4634    0.6125   -0.0479 H   0  0  0  0  0  0  0  0  0  0  0  0 
  1  7  1  0  0  0  0 
  1  2  1  0  0  0  0 
  1  5  1  0  0  0  0 
  2  4  1  0  0  0  0 
  3  2  2  0  0  0  0 
  4  8  1  0  0  0  0 
  6  1  1  0  0  0  0 
  9  5  1  0  0  0  0 
M  END 
>  <HBA> 
3 
 
>  <HBD> 
2 
 
>  <TPSA> 
76.1 
 
>  <cid> 
1133 
 
>  <dipole> 
3.14 
 
>  <excitation_energy_1> 
5.455 
 
>  <excitation_energy_2> 
5.576 
 
>  <excitation_energy_3> 
6.246 
 
>  <excitation_energy_4> 
6.565 
 
>  <homo_energy> 
-7.233 
 
>  <homo_lumo_gap> 
7.037 
 
>  <logP> 
0.001 
 
>  <lumo_energy> 
-0.196 
 
>  <melting_point> 
73.51 
 
>  <molecular_refractivity> 
21.43 
 
>  <oscillator_strength_1> 
0.0051 
 
>  <oscillator_strength_2> 
0.0015 
 
>  <oscillator_strength_3> 
0.0253 
 
>  <oscillator_strength_4> 
0.0196 
 
>  <open_babel_can_smiles> 
OC(=O)CS 
 
>  <mulliken_charges> 
9 
1   -0.525227 
2   0.590689 
3   -0.430015 
4   -0.554086 
5   -0.085957 
6   0.224109 
7   0.225237 
8   0.427123 
9   0.128128 
 
>  <lowdin_charges> 
9 
1   -0.419958 
2   0.183728 
3   -0.237128 
4   -0.348418 
5   -0.058092 
6   0.192188 
7   0.199957 
8   0.357904 
9   0.12982 
 
$$$$ 
 
