PCCDB-ID:  6113 
public computational chemistry database (PCCDB) project, http://pccdb.org 
 
 15 14  0  0  0  0  0  0  0  0999 V2000 
    1.2454    0.4056    0.2502 C   0  0  0  0  0  0  0  0  0  0  0  0 
    4.8519   -0.3990   -2.9696 C   0  0  0  0  0  0  0  0  0  0  0  0 
    2.7015   -0.0092    0.3315 C   0  0  0  0  0  0  0  0  0  0  0  0 
    5.6256    0.5444   -0.5929 O   0  0  0  0  0  0  0  0  0  0  0  0 
    4.9419   -1.8857   -0.7518 O   0  0  0  0  0  0  0  0  0  0  0  0 
    3.2062   -0.0621   -1.0359 O   0  0  0  0  0  0  0  0  0  0  0  0 
    4.7824   -0.4964   -1.1792 S   0  0  0  0  0  0  0  0  0  0  0  0 
    0.8232    0.4587    1.2597 H   0  0  0  0  0  0  0  0  0  0  0  0 
    0.6656   -0.3188   -0.3299 H   0  0  0  0  0  0  0  0  0  0  0  0 
    1.1461    1.3894   -0.2188 H   0  0  0  0  0  0  0  0  0  0  0  0 
    5.8696   -0.6710   -3.2569 H   0  0  0  0  0  0  0  0  0  0  0  0 
    4.6268    0.6234   -3.2752 H   0  0  0  0  0  0  0  0  0  0  0  0 
    4.1332   -1.1043   -3.3885 H   0  0  0  0  0  0  0  0  0  0  0  0 
    2.8180   -0.9994    0.7834 H   0  0  0  0  0  0  0  0  0  0  0  0 
    3.2998    0.7138    0.8951 H   0  0  0  0  0  0  0  0  0  0  0  0 
  1  3  1  0  0  0  0 
  1  8  1  0  0  0  0 
  2  7  1  0  0  0  0 
  3 14  1  0  0  0  0 
  3 15  1  0  0  0  0 
  6  3  1  0  0  0  0 
  7  6  1  0  0  0  0 
  7  5  1  0  0  0  0 
  7  4  1  0  0  0  0 
  9  1  1  0  0  0  0 
 10  1  1  0  0  0  0 
 11  2  1  0  0  0  0 
 12  2  1  0  0  0  0 
 13  2  1  0  0  0  0 
M  RAD  2   4   2   5   2 
M  END 
>  <HBA> 
3 
 
>  <HBD> 
0 
 
>  <TPSA> 
51.75 
 
>  <cid> 
6113 
 
>  <dipole> 
3.21 
 
>  <excitation_energy_1> 
7.054 
 
>  <excitation_energy_2> 
7.701 
 
>  <excitation_energy_3> 
7.793 
 
>  <excitation_energy_4> 
7.833 
 
>  <homo_energy> 
-7.834 
 
>  <homo_lumo_gap> 
9.113 
 
>  <logP> 
1.063 
 
>  <lumo_energy> 
1.279 
 
>  <melting_point> 
-1.54 
 
>  <molecular_refractivity> 
26.58 
 
>  <oscillator_strength_1> 
0.0018 
 
>  <oscillator_strength_2> 
0.0043 
 
>  <oscillator_strength_3> 
0.0005 
 
>  <oscillator_strength_4> 
0.0072 
 
>  <open_babel_can_smiles> 
CCOS([O])([O])C 
 
>  <mulliken_charges> 
15 
1   -0.458395 
2   -0.635845 
3   -0.052454 
4   -0.509855 
5   -0.509729 
6   -0.538786 
7   1.205644 
8   0.159399 
9   0.167632 
10   0.167618 
11   0.218485 
12   0.217261 
13   0.217247 
14   0.175893 
15   0.175889 
 
>  <lowdin_charges> 
15 
1   -0.44513 
2   -0.586244 
3   -0.126044 
4   -0.580716 
5   -0.5794 
6   -0.429864 
7   1.343951 
8   0.163012 
9   0.163301 
10   0.161538 
11   0.198969 
12   0.19795 
13   0.199825 
14   0.158462 
15   0.160391 
 
$$$$ 
 
