PCCDB-ID:  670 
public computational chemistry database (PCCDB) project, http://pccdb.org 
 
 12 11  0  0  0  0  0  0  0  0999 V2000 
    1.3837   -0.0994    0.0799 C   0  0  0  0  0  0  0  0  0  0  0  0 
    1.6528   -1.5107   -2.1279 C   0  0  0  0  0  0  0  0  0  0  0  0 
    0.7697   -0.9063   -1.0505 C   0  0  0  0  0  0  0  0  0  0  0  0 
    0.4255    0.2729    1.0308 O   0  0  0  0  0  0  0  0  0  0  0  0 
    0.8960   -2.1097   -3.1426 O   0  0  0  0  0  0  0  0  0  0  0  0 
   -0.4408   -1.0701   -1.0934 O   0  0  0  0  0  0  0  0  0  0  0  0 
    1.8747    0.7832   -0.3676 H   0  0  0  0  0  0  0  0  0  0  0  0 
    2.1842   -0.6925    0.5499 H   0  0  0  0  0  0  0  0  0  0  0  0 
    2.3236   -2.2400   -1.6394 H   0  0  0  0  0  0  0  0  0  0  0  0 
    2.3021   -0.7239   -2.5431 H   0  0  0  0  0  0  0  0  0  0  0  0 
   -0.4363    0.0101    0.6556 H   0  0  0  0  0  0  0  0  0  0  0  0 
   -0.0291   -2.0862   -2.8321 H   0  0  0  0  0  0  0  0  0  0  0  0 
  1  8  1  0  0  0  0 
  1  4  1  0  0  0  0 
  2  9  1  0  0  0  0 
  2  3  1  0  0  0  0 
  3  1  1  0  0  0  0 
  5 12  1  0  0  0  0 
  5  2  1  0  0  0  0 
  6  3  2  0  0  0  0 
  7  1  1  0  0  0  0 
 10  2  1  0  0  0  0 
 11  4  1  0  0  0  0 
M  END 
>  <HBA> 
3 
 
>  <HBD> 
2 
 
>  <TPSA> 
57.53 
 
>  <cid> 
670 
 
>  <dipole> 
1.49 
 
>  <excitation_energy_1> 
4.909 
 
>  <excitation_energy_2> 
5.378 
 
>  <excitation_energy_3> 
5.696 
 
>  <excitation_energy_4> 
6.833 
 
>  <homo_energy> 
-7.559 
 
>  <homo_lumo_gap> 
6.291 
 
>  <logP> 
-1.46 
 
>  <lumo_energy> 
-1.268 
 
>  <melting_point> 
34.06 
 
>  <molecular_refractivity> 
19.06 
 
>  <oscillator_strength_1> 
0.0003 
 
>  <oscillator_strength_2> 
0.024 
 
>  <oscillator_strength_3> 
0.0208 
 
>  <oscillator_strength_4> 
0.0 
 
>  <open_babel_can_smiles> 
OCC(=O)CO 
 
>  <mulliken_charges> 
12 
1   -0.068048 
2   -0.067927 
3   0.365439 
4   -0.61945 
5   -0.619497 
6   -0.462425 
7   0.160363 
8   0.16282 
9   0.160427 
10   0.162664 
11   0.412821 
12   0.412813 
 
>  <lowdin_charges> 
12 
1   -0.16145 
2   -0.161523 
3   0.137805 
4   -0.455383 
5   -0.454223 
6   -0.24212 
7   0.157734 
8   0.160172 
9   0.158218 
10   0.159964 
11   0.350955 
12   0.34985 
 
$$$$ 
 
