PCCDB-ID:  456 
public computational chemistry database (PCCDB) project, http://pccdb.org 
 
 13 12  0  0  1  0  0  0  0  0999 V2000 
    0.4437   -0.3036    0.5047 C   0  0  2  0  0  0  0  0  0  0  0  0 
   -0.0937   -1.5382   -0.2150 C   0  0  0  0  0  0  0  0  0  0  0  0 
   -1.5267    0.9766    0.3003 C   0  0  0  0  0  0  0  0  0  0  0  0 
   -1.9428    1.7699   -0.6014 N   0  0  0  0  0  0  0  0  0  0  0  0 
   -0.1956    0.7733    0.6844 N   0  0  0  0  0  0  0  0  0  0  0  0 
    1.7168   -0.3890    0.9354 O   0  0  0  0  0  0  0  0  0  0  0  0 
    0.7830   -2.5722   -0.0977 O   0  0  0  0  0  0  0  0  0  0  0  0 
   -1.1309   -1.5996   -0.8194 O   0  0  0  0  0  0  0  0  0  0  0  0 
   -2.3912    0.3202    1.1086 O   0  0  0  0  0  0  0  0  0  0  0  0 
   -1.1626    2.2116   -1.0872 H   0  0  0  0  0  0  0  0  0  0  0  0 
    2.0605   -1.2764    0.7334 H   0  0  0  0  0  0  0  0  0  0  0  0 
    0.4102   -3.3308   -0.5856 H   0  0  0  0  0  0  0  0  0  0  0  0 
   -3.2771    0.5758    0.7926 H   0  0  0  0  0  0  0  0  0  0  0  0 
  1  2  1  6  0  0  0 
  1  5  1  0  0  0  0 
  1  6  1  0  0  0  0 
  2  7  1  0  0  0  0 
  3  5  2  0  0  0  0 
  3  9  1  0  0  0  0 
  4  3  1  0  0  0  0 
  8  2  2  0  0  0  0 
 10  4  1  0  0  0  0 
 11  6  1  0  0  0  0 
 12  7  1  0  0  0  0 
 13  9  1  0  0  0  0 
M  RAD  2   1   2   4   2 
M  END 
>  <HBA> 
6 
 
>  <HBD> 
3 
 
>  <TPSA> 
109.49 
 
>  <cid> 
456 
 
>  <dipole> 
4.77 
 
>  <excitation_energy_1> 
3.593 
 
>  <excitation_energy_2> 
4.353 
 
>  <excitation_energy_3> 
4.668 
 
>  <excitation_energy_4> 
5.256 
 
>  <homo_energy> 
-6.822 
 
>  <homo_lumo_gap> 
4.61 
 
>  <logP> 
-0.643 
 
>  <lumo_energy> 
-2.212 
 
>  <melting_point> 
187.13 
 
>  <molecular_refractivity> 
24.6 
 
>  <oscillator_strength_1> 
0.0066 
 
>  <oscillator_strength_2> 
0.0477 
 
>  <oscillator_strength_3> 
0.0074 
 
>  <oscillator_strength_4> 
0.006 
 
>  <open_babel_can_smiles> 
[NH]/C(=N/[C](C(=O)O)O)/O 
 
>  <mulliken_charges> 
13 
1   0.479602 
2   0.565715 
3   0.581205 
4   -0.613725 
5   -0.430741 
6   -0.576392 
7   -0.603934 
8   -0.416458 
9   -0.573306 
10   0.29413 
11   0.440653 
12   0.433063 
13   0.420187 
 
>  <lowdin_charges> 
13 
1   0.123863 
2   0.169514 
3   0.159875 
4   -0.442817 
5   -0.138657 
6   -0.331444 
7   -0.3628 
8   -0.197133 
9   -0.363514 
10   0.267015 
11   0.369191 
12   0.37852 
13   0.368385 
 
$$$$ 
 
