PCCDB-ID:  1750 
public computational chemistry database (PCCDB) project, http://pccdb.org 
 
 18 19  0  0  0  0  0  0  0  0999 V2000 
    2.1657   -0.6628    0.1650 C   0  0  0  0  0  0  0  0  0  0  0  0 
    0.9664   -1.3973    0.1012 C   0  0  0  0  0  0  0  0  0  0  0  0 
    2.1376    0.7245    0.1328 C   0  0  0  0  0  0  0  0  0  0  0  0 
   -1.7179    1.0980   -0.1349 C   0  0  0  0  0  0  0  0  0  0  0  0 
   -2.4959   -0.0016   -0.1623 C   0  0  0  0  0  0  0  0  0  0  0  0 
   -0.2863    0.7039   -0.0299 C   0  0  0  0  0  0  0  0  0  0  0  0 
   -0.2218   -0.7032    0.0061 C   0  0  0  0  0  0  0  0  0  0  0  0 
    0.9113    1.4095    0.0361 C   0  0  0  0  0  0  0  0  0  0  0  0 
   -1.6340   -1.2228   -0.0764 C   0  0  0  0  0  0  0  0  0  0  0  0 
    0.9477    2.8787    0.0059 N   0  0  0  0  0  0  0  0  0  0  0  0 
   -1.9821   -2.3871   -0.0733 O   0  0  0  0  0  0  0  0  0  0  0  0 
    2.0469    3.4264    0.0725 O   0  0  0  0  0  0  0  0  0  0  0  0 
   -0.1242    3.4794   -0.0841 O   0  0  0  0  0  0  0  0  0  0  0  0 
    3.1186   -1.1772    0.2393 H   0  0  0  0  0  0  0  0  0  0  0  0 
    0.9641   -2.4833    0.1253 H   0  0  0  0  0  0  0  0  0  0  0  0 
    3.0491    1.3073    0.1811 H   0  0  0  0  0  0  0  0  0  0  0  0 
   -2.0404    2.1275   -0.1813 H   0  0  0  0  0  0  0  0  0  0  0  0 
   -3.5752   -0.0425   -0.2343 H   0  0  0  0  0  0  0  0  0  0  0  0 
  1 14  1  0  0  0  0 
  2 15  1  0  0  0  0 
  2  1  2  0  0  0  0 
  3  1  1  0  0  0  0 
  3 16  1  0  0  0  0 
  4  6  1  0  0  0  0 
  5  4  2  0  0  0  0 
  5  9  1  0  0  0  0 
  6  7  2  0  0  0  0 
  6  8  1  0  0  0  0 
  7  2  1  0  0  0  0 
  8  3  2  0  0  0  0 
  9 11  2  0  0  0  0 
  9  7  1  0  0  0  0 
 10  8  1  0  0  0  0 
 10 12  2  0  0  0  0 
 13 10  2  0  0  0  0 
 17  4  1  0  0  0  0 
 18  5  1  0  0  0  0 
M  END 
>  <HBA> 
1 
 
>  <HBD> 
0 
 
>  <TPSA> 
62.89 
 
>  <cid> 
1750 
 
>  <dipole> 
1.78 
 
>  <excitation_energy_1> 
2.895 
 
>  <excitation_energy_2> 
3.102 
 
>  <excitation_energy_3> 
3.624 
 
>  <excitation_energy_4> 
3.656 
 
>  <homo_energy> 
-7.11 
 
>  <homo_lumo_gap> 
3.94 
 
>  <logP> 
2.328 
 
>  <lumo_energy> 
-3.17 
 
>  <melting_point> 
125.78 
 
>  <molecular_refractivity> 
48.63 
 
>  <oscillator_strength_1> 
0.0 
 
>  <oscillator_strength_2> 
0.0212 
 
>  <oscillator_strength_3> 
0.014 
 
>  <oscillator_strength_4> 
0.0 
 
>  <open_babel_can_smiles> 
O=C1C=Cc2c1cccc2N(=O)=O 
 
>  <mulliken_charges> 
18 
1   -0.147334 
2   -0.148273 
3   -0.140815 
4   -0.11483 
5   -0.175037 
6   0.081798 
7   0.027612 
8   0.203267 
9   0.385414 
10   0.380677 
11   -0.44152 
12   -0.386917 
13   -0.406855 
14   0.157582 
15   0.172282 
16   0.189373 
17   0.196457 
18   0.167119 
 
>  <lowdin_charges> 
18 
1   -0.146861 
2   -0.105191 
3   -0.129933 
4   -0.109141 
5   -0.177025 
6   0.014926 
7   -0.043564 
8   -0.000705 
9   0.155668 
10   0.309783 
11   -0.195365 
12   -0.239136 
13   -0.246848 
14   0.172362 
15   0.179023 
16   0.192036 
17   0.190138 
18   0.179833 
 
$$$$ 
 
