PCCDB-ID:  3496 
public computational chemistry database (PCCDB) project, http://pccdb.org 
 
 18 17  0  0  0  0  0  0  0  0999 V2000 
    1.1075   -0.1712    0.4757 C   0  0  0  0  0  0  0  0  0  0  0  0 
    2.9899   -1.0562   -0.8460 C   0  0  0  0  0  0  0  0  0  0  0  0 
    0.8129    0.8633    1.5728 C   0  0  0  0  0  0  0  0  0  0  0  0 
    2.5412   -0.4732    0.4161 N   0  0  0  0  0  0  0  0  0  0  0  0 
   -0.2920    1.0441    2.0215 O   0  0  0  0  0  0  0  0  0  0  0  0 
    1.8923    1.5657    1.9572 O   0  0  0  0  0  0  0  0  0  0  0  0 
    5.0097   -2.1084    0.5035 O   0  0  0  0  0  0  0  0  0  0  0  0 
    4.9610   -2.3089   -2.0871 O   0  0  0  0  0  0  0  0  0  0  0  0 
    5.6907   -0.0610   -0.9763 O   0  0  0  0  0  0  0  0  0  0  0  0 
    4.8060   -1.2470   -0.8640 P   0  0  0  0  0  0  0  0  0  0  0  0 
    0.8068    0.2798   -0.4780 H   0  0  0  0  0  0  0  0  0  0  0  0 
    0.4615   -1.0444    0.6373 H   0  0  0  0  0  0  0  0  0  0  0  0 
    2.7380   -0.3793   -1.6698 H   0  0  0  0  0  0  0  0  0  0  0  0 
    2.5405   -2.0362   -1.0751 H   0  0  0  0  0  0  0  0  0  0  0  0 
    2.7939   -1.1043    1.1751 H   0  0  0  0  0  0  0  0  0  0  0  0 
    2.6476    1.2129    1.4295 H   0  0  0  0  0  0  0  0  0  0  0  0 
    5.8757   -1.9195    0.9037 H   0  0  0  0  0  0  0  0  0  0  0  0 
    5.7670   -2.1055   -2.5917 H   0  0  0  0  0  0  0  0  0  0  0  0 
  1 12  1  0  0  0  0 
  1  3  1  0  0  0  0 
  2  4  1  0  0  0  0 
  3  6  1  0  0  0  0 
  3  5  2  0  0  0  0 
  4  1  1  0  0  0  0 
  4 15  1  0  0  0  0 
  7 17  1  0  0  0  0 
  8 10  1  0  0  0  0 
  9 10  2  0  0  0  0 
 10  2  1  0  0  0  0 
 10  7  1  0  0  0  0 
 11  1  1  0  0  0  0 
 13  2  1  0  0  0  0 
 14  2  1  0  0  0  0 
 16  6  1  0  0  0  0 
 18  8  1  0  0  0  0 
M  END 
>  <HBA> 
6 
 
>  <HBD> 
4 
 
>  <TPSA> 
116.67 
 
>  <cid> 
3496 
 
>  <dipole> 
5.81 
 
>  <excitation_energy_1> 
5.605 
 
>  <excitation_energy_2> 
5.961 
 
>  <excitation_energy_3> 
6.386 
 
>  <excitation_energy_4> 
6.528 
 
>  <homo_energy> 
-7.108 
 
>  <homo_lumo_gap> 
7.38 
 
>  <logP> 
-0.813 
 
>  <lumo_energy> 
0.272 
 
>  <melting_point> 
166.1 
 
>  <molecular_refractivity> 
32.1 
 
>  <oscillator_strength_1> 
0.0007 
 
>  <oscillator_strength_2> 
0.0036 
 
>  <oscillator_strength_3> 
0.0139 
 
>  <oscillator_strength_4> 
0.0007 
 
>  <open_babel_can_smiles> 
OC(=O)CNCP(=O)(O)O 
 
>  <mulliken_charges> 
18 
1   -0.234366 
2   -0.325308 
3   0.588177 
4   -0.614973 
5   -0.451943 
6   -0.56898 
7   -0.66263 
8   -0.647621 
9   -0.540367 
10   1.046151 
11   0.1894 
12   0.177476 
13   0.199482 
14   0.187377 
15   0.339224 
16   0.430146 
17   0.44469 
18   0.444064 
 
>  <lowdin_charges> 
18 
1   -0.246838 
2   -0.373913 
3   0.176654 
4   -0.357963 
5   -0.246936 
6   -0.353233 
7   -0.580603 
8   -0.57454 
9   -0.590757 
10   1.04813 
11   0.175351 
12   0.162497 
13   0.185885 
14   0.169065 
15   0.276201 
16   0.359321 
17   0.385782 
18   0.385896 
 
$$$$ 
 
