PCCDB-ID:  1114 
public computational chemistry database (PCCDB) project, http://pccdb.org 
 
 29 29  0  0  1  0  0  0  0  0999 V2000 
    0.7996   -0.7456    0.8647 C   0  0  0  0  0  0  0  0  0  0  0  0 
    0.1123    0.3893    0.6417 C   0  0  0  0  0  0  0  0  0  0  0  0 
    0.4209   -2.0244    0.1730 C   0  0  0  0  0  0  0  0  0  0  0  0 
   -2.3742    2.5475    0.2574 C   0  0  0  0  0  0  0  0  0  0  0  0 
   -2.2276    4.0586    0.1117 C   0  0  0  0  0  0  0  0  0  0  0  0 
   -1.0275    0.4059   -0.2853 C   0  0  0  0  0  0  0  0  0  0  0  0 
   -1.4560    1.7979   -0.7021 C   0  0  0  0  0  0  0  0  0  0  0  0 
   -1.0669   -2.0818   -0.1950 C   0  0  2  0  0  0  0  0  0  0  0  0 
   -0.8795    4.5415    0.6372 C   0  0  0  0  0  0  0  0  0  0  0  0 
   -1.5728   -0.7530   -0.7354 C   0  0  0  0  0  0  0  0  0  0  0  0 
   -2.7184   -0.8424   -1.6670 C   0  0  0  0  0  0  0  0  0  0  0  0 
   -1.0249    2.3061   -1.7175 O   0  0  0  0  0  0  0  0  0  0  0  0 
   -1.8764   -2.4819    0.9181 O   0  0  0  0  0  0  0  0  0  0  0  0 
   -0.0814    3.8430    1.2146 O   0  0  0  0  0  0  0  0  0  0  0  0 
   -0.6110    5.8569    0.4437 O   0  0  0  0  0  0  0  0  0  0  0  0 
   -3.4274    0.3153   -1.7878 O   0  0  0  0  0  0  0  0  0  0  0  0 
   -3.0288   -1.8434   -2.2813 O   0  0  0  0  0  0  0  0  0  0  0  0 
    1.6715   -0.7360    1.5147 H   0  0  0  0  0  0  0  0  0  0  0  0 
    0.4077    1.3320    1.0941 H   0  0  0  0  0  0  0  0  0  0  0  0 
    0.6562   -2.8993    0.7900 H   0  0  0  0  0  0  0  0  0  0  0  0 
    1.0285   -2.1171   -0.7425 H   0  0  0  0  0  0  0  0  0  0  0  0 
   -3.3974    2.2312    0.0193 H   0  0  0  0  0  0  0  0  0  0  0  0 
   -2.1732    2.2352    1.2871 H   0  0  0  0  0  0  0  0  0  0  0  0 
   -3.0213    4.5809    0.6626 H   0  0  0  0  0  0  0  0  0  0  0  0 
   -2.3196    4.3403   -0.9441 H   0  0  0  0  0  0  0  0  0  0  0  0 
   -1.2352   -2.8572   -0.9434 H   0  0  0  0  0  0  0  0  0  0  0  0 
   -1.7936   -1.7887    1.5940 H   0  0  0  0  0  0  0  0  0  0  0  0 
   -1.3294    6.2736   -0.0609 H   0  0  0  0  0  0  0  0  0  0  0  0 
   -4.1063    0.1377   -2.4653 H   0  0  0  0  0  0  0  0  0  0  0  0 
  1 18  1  0  0  0  0 
  2  1  2  0  0  0  0 
  2 19  1  0  0  0  0 
  3 20  1  0  0  0  0 
  3  1  1  0  0  0  0 
  4 23  1  0  0  0  0 
  5  4  1  0  0  0  0 
  5  9  1  0  0  0  0 
  5 24  1  0  0  0  0 
  6  2  1  0  0  0  0 
  7  6  1  0  0  0  0 
  7  4  1  0  0  0  0 
  8 26  1  6  0  0  0 
  8  3  1  0  0  0  0 
  8 13  1  0  0  0  0 
  9 14  2  0  0  0  0 
 10  6  2  0  0  0  0 
 10  8  1  0  0  0  0 
 11 10  1  0  0  0  0 
 12  7  2  0  0  0  0 
 13 27  1  0  0  0  0 
 15  9  1  0  0  0  0 
 16 11  1  0  0  0  0 
 17 11  2  0  0  0  0 
 21  3  1  0  0  0  0 
 22  4  1  0  0  0  0 
 25  5  1  0  0  0  0 
 28 15  1  0  0  0  0 
 29 16  1  0  0  0  0 
M  END 
>  <HBA> 
6 
 
>  <HBD> 
3 
 
>  <TPSA> 
111.9 
 
>  <cid> 
1114 
 
>  <dipole> 
3.77 
 
>  <excitation_energy_1> 
3.981 
 
>  <excitation_energy_2> 
4.244 
 
>  <excitation_energy_3> 
4.449 
 
>  <excitation_energy_4> 
4.549 
 
>  <homo_energy> 
-6.563 
 
>  <homo_lumo_gap> 
4.558 
 
>  <logP> 
0.122 
 
>  <lumo_energy> 
-2.005 
 
>  <melting_point> 
213.44 
 
>  <molecular_refractivity> 
56.83 
 
>  <oscillator_strength_1> 
0.0174 
 
>  <oscillator_strength_2> 
0.1872 
 
>  <oscillator_strength_3> 
0.0018 
 
>  <oscillator_strength_4> 
0.0116 
 
>  <open_babel_can_smiles> 
OC(=O)CCC(=O)C1=C(C(=O)O)[C@@H](CC=C1)O 
 
>  <mulliken_charges> 
29 
1   -0.13213 
2   -0.146526 
3   -0.322682 
4   -0.357355 
5   -0.409176 
6   0.011381 
7   0.4186 
8   0.047759 
9   0.625145 
10   0.021668 
11   0.554522 
12   -0.435591 
13   -0.612043 
14   -0.444799 
15   -0.561825 
16   -0.597871 
17   -0.467677 
18   0.150708 
19   0.188653 
20   0.167365 
21   0.172491 
22   0.191963 
23   0.177994 
24   0.174991 
25   0.191976 
26   0.176324 
27   0.38781 
28   0.413998 
29   0.414325 
 
>  <lowdin_charges> 
29 
1   -0.133346 
2   -0.184453 
3   -0.294462 
4   -0.304438 
5   -0.324433 
6   -0.003136 
7   0.17943 
8   0.002251 
9   0.208847 
10   -0.072103 
11   0.197232 
12   -0.220035 
13   -0.454526 
14   -0.249433 
15   -0.35006 
16   -0.364813 
17   -0.261058 
18   0.166226 
19   0.183153 
20   0.168281 
21   0.171521 
22   0.181177 
23   0.170031 
24   0.171071 
25   0.175544 
26   0.171744 
27   0.341697 
28   0.362813 
29   0.365277 
 
$$$$ 
 
