PCCDB-ID:  4099 
public computational chemistry database (PCCDB) project, http://pccdb.org 
 
 28 28  0  0  0  0  0  0  0  0999 V2000 
    1.2978    0.4114    0.6771 C   0  0  0  0  0  0  0  0  0  0  0  0 
    4.8930    0.7323   -3.0827 C   0  0  0  0  0  0  0  0  0  0  0  0 
    3.2362    4.5366   -0.7186 C   0  0  0  0  0  0  0  0  0  0  0  0 
    2.5671   -0.1128   -0.0012 C   0  0  0  0  0  0  0  0  0  0  0  0 
    4.3295    0.0523   -1.8309 C   0  0  0  0  0  0  0  0  0  0  0  0 
    1.9663    0.8445   -2.2599 C   0  0  0  0  0  0  0  0  0  0  0  0 
    3.4805    2.1072   -0.6954 C   0  0  0  0  0  0  0  0  0  0  0  0 
    1.7760    3.1529   -2.1577 C   0  0  0  0  0  0  0  0  0  0  0  0 
    3.0619    0.7271   -1.2211 C   0  0  0  0  0  0  0  0  0  0  0  0 
    1.3964    1.9118   -2.6709 N   0  0  0  0  0  0  0  0  0  0  0  0 
    2.8446    3.2131   -1.2187 N   0  0  0  0  0  0  0  0  0  0  0  0 
    1.5315   -0.3039   -2.8150 O   0  0  0  0  0  0  0  0  0  0  0  0 
    4.3529    2.1986    0.1562 O   0  0  0  0  0  0  0  0  0  0  0  0 
    1.2232    4.1777   -2.4986 O   0  0  0  0  0  0  0  0  0  0  0  0 
    1.0309   -0.2309    1.5226 H   0  0  0  0  0  0  0  0  0  0  0  0 
    0.4437    0.4316   -0.0088 H   0  0  0  0  0  0  0  0  0  0  0  0 
    1.4440    1.4241    1.0684 H   0  0  0  0  0  0  0  0  0  0  0  0 
    5.7845    0.1998   -3.4296 H   0  0  0  0  0  0  0  0  0  0  0  0 
    5.1879    1.7669   -2.8768 H   0  0  0  0  0  0  0  0  0  0  0  0 
    4.1698    0.7424   -3.9059 H   0  0  0  0  0  0  0  0  0  0  0  0 
    4.2899    4.5035   -0.4447 H   0  0  0  0  0  0  0  0  0  0  0  0 
    2.6462    4.8046    0.1638 H   0  0  0  0  0  0  0  0  0  0  0  0 
    3.0517    5.2680   -1.5030 H   0  0  0  0  0  0  0  0  0  0  0  0 
    2.4119   -1.1516   -0.3250 H   0  0  0  0  0  0  0  0  0  0  0  0 
    3.3946   -0.1302    0.7145 H   0  0  0  0  0  0  0  0  0  0  0  0 
    5.0825    0.0448   -1.0370 H   0  0  0  0  0  0  0  0  0  0  0  0 
    4.1020   -1.0004   -2.0516 H   0  0  0  0  0  0  0  0  0  0  0  0 
    2.0192   -1.0560   -2.4426 H   0  0  0  0  0  0  0  0  0  0  0  0 
  1 17  1  0  0  0  0 
  1 15  1  0  0  0  0 
  2 19  1  0  0  0  0 
  2  5  1  0  0  0  0 
  3 21  1  0  0  0  0 
  3 22  1  0  0  0  0 
  4  1  1  0  0  0  0 
  4 25  1  0  0  0  0 
  5  9  1  0  0  0  0 
  5 26  1  0  0  0  0 
  6  9  1  0  0  0  0 
  7 13  2  0  0  0  0 
  8 11  1  0  0  0  0 
  9  7  1  0  0  0  0 
  9  4  1  0  0  0  0 
 10  6  2  0  0  0  0 
 10  8  1  0  0  0  0 
 11  3  1  0  0  0  0 
 11  7  1  0  0  0  0 
 12 28  1  0  0  0  0 
 12  6  1  0  0  0  0 
 14  8  2  0  0  0  0 
 16  1  1  0  0  0  0 
 18  2  1  0  0  0  0 
 20  2  1  0  0  0  0 
 23  3  1  0  0  0  0 
 24  4  1  0  0  0  0 
 27  5  1  0  0  0  0 
M  END 
>  <HBA> 
5 
 
>  <HBD> 
1 
 
>  <TPSA> 
66.48 
 
>  <cid> 
4099 
 
>  <dipole> 
4.95 
 
>  <excitation_energy_1> 
4.508 
 
>  <excitation_energy_2> 
4.832 
 
>  <excitation_energy_3> 
5.084 
 
>  <excitation_energy_4> 
5.328 
 
>  <homo_energy> 
-7.238 
 
>  <homo_lumo_gap> 
5.788 
 
>  <logP> 
0.768 
 
>  <lumo_energy> 
-1.45 
 
>  <melting_point> 
117.03 
 
>  <molecular_refractivity> 
57.52 
 
>  <oscillator_strength_1> 
0.0005 
 
>  <oscillator_strength_2> 
0.0003 
 
>  <oscillator_strength_3> 
0.0116 
 
>  <oscillator_strength_4> 
0.0389 
 
>  <open_babel_can_smiles> 
CCC1(CC)C(=NC(=O)N(C1=O)C)O 
 
>  <mulliken_charges> 
28 
1   -0.470903 
2   -0.469455 
3   -0.31995 
4   -0.26875 
5   -0.272154 
6   0.556499 
7   0.647975 
8   0.703661 
9   -0.136232 
10   -0.49473 
11   -0.518279 
12   -0.571411 
13   -0.517523 
14   -0.464338 
15   0.161299 
16   0.16893 
17   0.167873 
18   0.161178 
19   0.167747 
20   0.167901 
21   0.187561 
22   0.174832 
23   0.195697 
24   0.124084 
25   0.185587 
26   0.186373 
27   0.123529 
28   0.423001 
 
>  <lowdin_charges> 
28 
1   -0.45339 
2   -0.45293 
3   -0.350256 
4   -0.264874 
5   -0.265361 
6   0.162881 
7   0.161197 
8   0.188138 
9   -0.05678 
10   -0.185828 
11   -0.090334 
12   -0.322593 
13   -0.282816 
14   -0.244571 
15   0.162749 
16   0.159657 
17   0.15919 
18   0.162476 
19   0.159018 
20   0.15926 
21   0.173532 
22   0.16372 
23   0.180883 
24   0.135851 
25   0.171147 
26   0.171752 
27   0.135084 
28   0.363197 
 
$$$$ 
 
