PCCDB-ID:  2151 
public computational chemistry database (PCCDB) project, http://pccdb.org 
 
 28 29  0  0  0  0  0  0  0  0999 V2000 
    1.2022    0.6457    0.1707 C   0  0  0  0  0  0  0  0  0  0  0  0 
    3.5033    2.2112   -1.0304 C   0  0  0  0  0  0  0  0  0  0  0  0 
    8.5056    2.4630    0.8365 C   0  0  0  0  0  0  0  0  0  0  0  0 
    8.4980    1.2644    0.1194 C   0  0  0  0  0  0  0  0  0  0  0  0 
    7.2972    3.0045    1.2763 C   0  0  0  0  0  0  0  0  0  0  0  0 
    7.3008    0.6164   -0.1776 C   0  0  0  0  0  0  0  0  0  0  0  0 
    6.0910    2.3594    1.0052 C   0  0  0  0  0  0  0  0  0  0  0  0 
    2.6393    0.2358    0.1257 C   0  0  0  0  0  0  0  0  0  0  0  0 
    6.0901    1.1673    0.2673 C   0  0  0  0  0  0  0  0  0  0  0  0 
    3.1893   -1.0027    0.1396 C   0  0  0  0  0  0  0  0  0  0  0  0 
    4.6433   -0.8632    0.0597 C   0  0  0  0  0  0  0  0  0  0  0  0 
    2.6284   -2.2761    0.2114 N   0  0  0  0  0  0  0  0  0  0  0  0 
    3.6531    1.2301    0.0612 N   0  0  0  0  0  0  0  0  0  0  0  0 
    4.8735    0.5134   -0.0478 N   0  0  0  0  0  0  0  0  0  0  0  0 
    5.4895   -1.7501    0.1333 O   0  0  0  0  0  0  0  0  0  0  0  0 
    0.5809   -0.1877    0.5128 H   0  0  0  0  0  0  0  0  0  0  0  0 
    0.8225    0.9477   -0.8146 H   0  0  0  0  0  0  0  0  0  0  0  0 
    1.0492    1.4849    0.8593 H   0  0  0  0  0  0  0  0  0  0  0  0 
    3.5024    1.7276   -2.0175 H   0  0  0  0  0  0  0  0  0  0  0  0 
    4.3249    2.9275   -0.9772 H   0  0  0  0  0  0  0  0  0  0  0  0 
    2.5634    2.7472   -0.8826 H   0  0  0  0  0  0  0  0  0  0  0  0 
    9.4435    2.9663    1.0534 H   0  0  0  0  0  0  0  0  0  0  0  0 
    9.4332    0.8295   -0.2231 H   0  0  0  0  0  0  0  0  0  0  0  0 
    7.2886    3.9303    1.8458 H   0  0  0  0  0  0  0  0  0  0  0  0 
    7.2931   -0.3152   -0.7285 H   0  0  0  0  0  0  0  0  0  0  0  0 
    5.1519    2.7567    1.3742 H   0  0  0  0  0  0  0  0  0  0  0  0 
    1.8190   -2.3521    0.8172 H   0  0  0  0  0  0  0  0  0  0  0  0 
    3.3406   -2.9559    0.4673 H   0  0  0  0  0  0  0  0  0  0  0  0 
  1 16  1  0  0  0  0 
  1 18  1  0  0  0  0 
  2 20  1  0  0  0  0 
  2 21  1  0  0  0  0 
  2 13  1  0  0  0  0 
  3 22  1  0  0  0  0 
  3  5  2  0  0  0  0 
  4  3  1  0  0  0  0 
  5 24  1  0  0  0  0 
  6  4  2  0  0  0  0 
  6  9  1  0  0  0  0 
  7  5  1  0  0  0  0 
  7 26  1  0  0  0  0 
  8 10  2  0  0  0  0 
  8  1  1  0  0  0  0 
  9  7  2  0  0  0  0 
 10 12  1  0  0  0  0 
 11 15  2  0  0  0  0 
 11 10  1  0  0  0  0 
 12 28  1  0  0  0  0 
 12 27  1  0  0  0  0 
 13  8  1  0  0  0  0 
 14 11  1  0  0  0  0 
 14 13  1  0  0  0  0 
 14  9  1  0  0  0  0 
 17  1  1  0  0  0  0 
 19  2  1  0  0  0  0 
 23  4  1  0  0  0  0 
 25  6  1  0  0  0  0 
M  END 
>  <HBA> 
4 
 
>  <HBD> 
1 
 
>  <TPSA> 
52.95 
 
>  <cid> 
2151 
 
>  <dipole> 
3.99 
 
>  <excitation_energy_1> 
4.241 
 
>  <excitation_energy_2> 
4.478 
 
>  <excitation_energy_3> 
4.585 
 
>  <excitation_energy_4> 
4.685 
 
>  <homo_energy> 
-5.238 
 
>  <homo_lumo_gap> 
4.751 
 
>  <logP> 
1.648 
 
>  <lumo_energy> 
-0.487 
 
>  <melting_point> 
131.33 
 
>  <molecular_refractivity> 
60.66 
 
>  <oscillator_strength_1> 
0.0802 
 
>  <oscillator_strength_2> 
0.0067 
 
>  <oscillator_strength_3> 
0.0029 
 
>  <oscillator_strength_4> 
0.2412 
 
>  <open_babel_can_smiles> 
Nc1c(C)n(n(c1=O)c1ccccc1)C 
 
>  <mulliken_charges> 
28 
1   -0.526883 
2   -0.311472 
3   -0.123792 
4   -0.146024 
5   -0.142632 
6   -0.148114 
7   -0.163058 
8   0.317124 
9   0.292652 
10   0.126633 
11   0.596894 
12   -0.81231 
13   -0.348986 
14   -0.434862 
15   -0.548456 
16   0.162957 
17   0.173708 
18   0.171868 
19   0.159954 
20   0.178135 
21   0.165867 
22   0.127338 
23   0.133637 
24   0.129466 
25   0.169348 
26   0.14771 
27   0.315233 
28   0.338067 
 
>  <lowdin_charges> 
28 
1   -0.442494 
2   -0.357184 
3   -0.167885 
4   -0.149788 
5   -0.151738 
6   -0.162707 
7   -0.186297 
8   -0.005318 
9   0.048971 
10   -0.033191 
11   0.138042 
12   -0.488588 
13   -0.060389 
14   -0.023513 
15   -0.319495 
16   0.167205 
17   0.165226 
18   0.16675 
19   0.147291 
20   0.167534 
21   0.16177 
22   0.157727 
23   0.160321 
24   0.157542 
25   0.180816 
26   0.167851 
27   0.274014 
28   0.287527 
 
$$$$ 
 
