PCCDB-ID:  3840 
public computational chemistry database (PCCDB) project, http://pccdb.org 
 
 16 16  0  0  0  0  0  0  0  0999 V2000 
   -0.6937    1.2785    0.0628 C   0  0  0  0  0  0  0  0  0  0  0  0 
   -2.8274   -0.0954   -0.1497 C   0  0  0  0  0  0  0  0  0  0  0  0 
    0.7013   -1.0596   -0.1549 C   0  0  0  0  0  0  0  0  0  0  0  0 
   -1.3357    0.0941   -0.0683 C   0  0  0  0  0  0  0  0  0  0  0  0 
    0.7642    1.3855    0.1058 C   0  0  0  0  0  0  0  0  0  0  0  0 
    1.4337    0.0711   -0.0253 C   0  0  0  0  0  0  0  0  0  0  0  0 
   -3.2494   -0.6000   -1.4089 O   0  0  0  0  0  0  0  0  0  0  0  0 
    1.3788    2.4397    0.2314 O   0  0  0  0  0  0  0  0  0  0  0  0 
    2.7901    0.1043   -0.0054 O   0  0  0  0  0  0  0  0  0  0  0  0 
   -0.6625   -1.0780   -0.1735 O   0  0  0  0  0  0  0  0  0  0  0  0 
   -1.2635    2.1979    0.1441 H   0  0  0  0  0  0  0  0  0  0  0  0 
   -3.3140    0.8573    0.1026 H   0  0  0  0  0  0  0  0  0  0  0  0 
   -3.1442   -0.8424    0.5851 H   0  0  0  0  0  0  0  0  0  0  0  0 
    1.1107   -2.0591   -0.2556 H   0  0  0  0  0  0  0  0  0  0  0  0 
   -3.0253    0.0627   -2.0817 H   0  0  0  0  0  0  0  0  0  0  0  0 
    3.1413   -0.7964   -0.0972 H   0  0  0  0  0  0  0  0  0  0  0  0 
  1  5  1  0  0  0  0 
  1 11  1  0  0  0  0 
  2  4  1  0  0  0  0 
  2 12  1  0  0  0  0 
  2 13  1  0  0  0  0 
  3  6  2  0  0  0  0 
  4  1  2  0  0  0  0 
  5  8  2  0  0  0  0 
  6  9  1  0  0  0  0 
  6  5  1  0  0  0  0 
  7  2  1  0  0  0  0 
 10  3  1  0  0  0  0 
 10  4  1  0  0  0  0 
 14  3  1  0  0  0  0 
 15  7  1  0  0  0  0 
 16  9  1  0  0  0  0 
M  END 
>  <HBA> 
4 
 
>  <HBD> 
2 
 
>  <TPSA> 
70.67 
 
>  <cid> 
3840 
 
>  <dipole> 
3.31 
 
>  <excitation_energy_1> 
3.88 
 
>  <excitation_energy_2> 
4.801 
 
>  <excitation_energy_3> 
5.141 
 
>  <excitation_energy_4> 
5.335 
 
>  <homo_energy> 
-6.376 
 
>  <homo_lumo_gap> 
5.154 
 
>  <logP> 
-0.162 
 
>  <lumo_energy> 
-1.222 
 
>  <melting_point> 
101.42 
 
>  <molecular_refractivity> 
33.13 
 
>  <oscillator_strength_1> 
0.0 
 
>  <oscillator_strength_2> 
0.1048 
 
>  <oscillator_strength_3> 
0.0003 
 
>  <oscillator_strength_4> 
0.0009 
 
>  <open_babel_can_smiles> 
OCc1occ(c(=O)c1)O 
 
>  <mulliken_charges> 
16 
1   -0.271386 
2   -0.09619 
3   0.022523 
4   0.340182 
5   0.448044 
6   0.260992 
7   -0.594544 
8   -0.503175 
9   -0.607391 
10   -0.44455 
11   0.157718 
12   0.149112 
13   0.174502 
14   0.160094 
15   0.394675 
16   0.409395 
 
>  <lowdin_charges> 
16 
1   -0.235424 
2   -0.134688 
3   -0.103838 
4   0.084293 
5   0.123308 
6   0.047105 
7   -0.451656 
8   -0.267533 
9   -0.343962 
10   -0.090738 
11   0.181143 
12   0.145993 
13   0.1682 
14   0.169728 
15   0.347848 
16   0.36022 
 
$$$$ 
 
