PCCDB-ID:  738 
public computational chemistry database (PCCDB) project, http://pccdb.org 
 
 20 19  0  0  1  0  0  0  0  0999 V2000 
    0.9473    0.1443    0.0531 C   0  0  0  0  0  0  0  0  0  0  0  0 
    0.4779    1.2768    0.9906 C   0  0  0  0  0  0  0  0  0  0  0  0 
    2.4641   -0.1381    0.1778 C   0  0  1  0  0  0  0  0  0  0  0  0 
    0.6585    0.8996    2.4494 C   0  0  2  0  0  0  0  0  0  0  0  0 
    2.8132   -1.3562   -0.6950 C   0  0  0  0  0  0  0  0  0  0  0  0 
    3.2247    1.0530   -0.1820 N   0  0  0  0  0  0  0  0  0  0  0  0 
    1.5945    1.2529    3.2311 N   0  0  0  0  0  0  0  0  0  0  0  0 
   -0.2461   -0.0082    2.9313 O   0  0  0  0  0  0  0  0  0  0  0  0 
    3.3190   -1.2648   -1.7864 O   0  0  0  0  0  0  0  0  0  0  0  0 
    2.4741   -2.5725   -0.1929 O   0  0  0  0  0  0  0  0  0  0  0  0 
    0.7283    0.4215   -0.9854 H   0  0  0  0  0  0  0  0  0  0  0  0 
    0.3840   -0.7757    0.2575 H   0  0  0  0  0  0  0  0  0  0  0  0 
   -0.5777    1.5044    0.7846 H   0  0  0  0  0  0  0  0  0  0  0  0 
    1.0582    2.1760    0.7735 H   0  0  0  0  0  0  0  0  0  0  0  0 
    2.6864   -0.3747    1.2271 H   0  0  0  0  0  0  0  0  0  0  0  0 
    3.2451    1.1143   -1.2012 H   0  0  0  0  0  0  0  0  0  0  0  0 
    4.1976    0.9288    0.0948 H   0  0  0  0  0  0  0  0  0  0  0  0 
    2.2174    1.8969    2.7410 H   0  0  0  0  0  0  0  0  0  0  0  0 
   -0.9801   -0.0925    2.3040 H   0  0  0  0  0  0  0  0  0  0  0  0 
    2.1321   -2.4783    0.7125 H   0  0  0  0  0  0  0  0  0  0  0  0 
  1  3  1  0  0  0  0 
  1 12  1  0  0  0  0 
  1  2  1  0  0  0  0 
  2  4  1  0  0  0  0 
  3 15  1  1  0  0  0 
  4  8  1  6  0  0  0 
  4  7  1  0  0  0  0 
  5 10  1  0  0  0  0 
  5  3  1  0  0  0  0 
  6 17  1  0  0  0  0 
  6  3  1  0  0  0  0 
  9  5  2  0  0  0  0 
 10 20  1  0  0  0  0 
 11  1  1  0  0  0  0 
 13  2  1  0  0  0  0 
 14  2  1  0  0  0  0 
 16  6  1  0  0  0  0 
 18  7  1  0  0  0  0 
 19  8  1  0  0  0  0 
M  RAD  2   4   2   7   2 
M  END 
>  <HBA> 
5 
 
>  <HBD> 
3 
 
>  <TPSA> 
106.41 
 
>  <cid> 
738 
 
>  <dipole> 
2.48 
 
>  <excitation_energy_1> 
5.573 
 
>  <excitation_energy_2> 
5.957 
 
>  <excitation_energy_3> 
5.994 
 
>  <excitation_energy_4> 
6.111 
 
>  <homo_energy> 
-7.11 
 
>  <homo_lumo_gap> 
6.996 
 
>  <logP> 
0.064 
 
>  <lumo_energy> 
-0.114 
 
>  <melting_point> 
181.15 
 
>  <molecular_refractivity> 
33.54 
 
>  <oscillator_strength_1> 
0.0015 
 
>  <oscillator_strength_2> 
0.005 
 
>  <oscillator_strength_3> 
0.0006 
 
>  <oscillator_strength_4> 
0.0041 
 
>  <open_babel_can_smiles> 
[NH][C](CC[C@@H](C(=O)O)N)O 
 
>  <mulliken_charges> 
20 
1   -0.263005 
2   -0.35325 
3   -0.116352 
4   0.46181 
5   0.58667 
6   -0.704098 
7   -0.579259 
8   -0.575554 
9   -0.443455 
10   -0.562929 
11   0.165352 
12   0.133959 
13   0.145585 
14   0.190429 
15   0.163282 
16   0.318069 
17   0.313131 
18   0.295749 
19   0.406291 
20   0.417577 
 
>  <lowdin_charges> 
20 
1   -0.275152 
2   -0.310463 
3   -0.115847 
4   0.12167 
5   0.173393 
6   -0.531403 
7   -0.397603 
8   -0.372895 
9   -0.240818 
10   -0.349011 
11   0.159579 
12   0.142486 
13   0.152216 
14   0.177042 
15   0.156227 
16   0.264574 
17   0.264511 
18   0.264174 
19   0.355514 
20   0.361806 
 
$$$$ 
 
