PCCDB-ID:  3044 
public computational chemistry database (PCCDB) project, http://pccdb.org 
 
 30 32  0  0  1  0  0  0  0  0999 V2000 
    1.0256   -0.6930    0.0972 C   0  0  0  0  0  0  0  0  0  0  0  0 
    3.7348    1.7500   -0.8950 C   0  0  0  0  0  0  0  0  0  0  0  0 
    8.3381   -1.0922   -2.0405 C   0  0  0  0  0  0  0  0  0  0  0  0 
    5.7791    0.3756    1.1559 C   0  0  0  0  0  0  0  0  0  0  0  0 
    2.2810    0.1580    0.0897 C   0  0  2  0  0  0  0  0  0  0  0  0 
    2.2330    1.4684   -0.7154 C   0  0  2  0  0  0  0  0  0  0  0  0 
    4.3577    0.3342   -0.9831 C   0  0  1  0  0  0  0  0  0  0  0  0 
    7.6223   -0.3819    0.4251 C   0  0  0  0  0  0  0  0  0  0  0  0 
    8.9290   -0.8521    0.1774 C   0  0  1  0  0  0  0  0  0  0  0  0 
    6.7734   -0.3263   -0.6834 C   0  0  0  0  0  0  0  0  0  0  0  0 
    9.8498   -0.9901    1.1651 N   0  0  0  0  0  0  0  0  0  0  0  0 
    9.2673   -1.2009   -1.0771 N   0  0  0  0  0  0  0  0  0  0  0  0 
    7.0743   -0.6679   -1.9423 N   0  0  0  0  0  0  0  0  0  0  0  0 
    6.9815    0.0603    1.5707 N   0  0  0  0  0  0  0  0  0  0  0  0 
    5.5782    0.1771   -0.2006 N   0  0  0  0  0  0  0  0  0  0  0  0 
    1.5519    1.3256   -1.9534 O   0  0  0  0  0  0  0  0  0  0  0  0 
    3.3433   -0.5751   -0.5594 O   0  0  0  0  0  0  0  0  0  0  0  0 
    0.2192   -0.1659    0.6181 H   0  0  0  0  0  0  0  0  0  0  0  0 
    1.2130   -1.6396    0.6126 H   0  0  0  0  0  0  0  0  0  0  0  0 
    0.6915   -0.9083   -0.9210 H   0  0  0  0  0  0  0  0  0  0  0  0 
    4.1343    2.2933   -0.0322 H   0  0  0  0  0  0  0  0  0  0  0  0 
    3.9312    2.3466   -1.7888 H   0  0  0  0  0  0  0  0  0  0  0  0 
    8.6642   -1.3884   -3.0355 H   0  0  0  0  0  0  0  0  0  0  0  0 
    4.9894    0.7528    1.7922 H   0  0  0  0  0  0  0  0  0  0  0  0 
    2.5752    0.3888    1.1276 H   0  0  0  0  0  0  0  0  0  0  0  0 
    1.7151    2.2699   -0.1816 H   0  0  0  0  0  0  0  0  0  0  0  0 
    4.6518    0.0591   -1.9984 H   0  0  0  0  0  0  0  0  0  0  0  0 
    9.6688   -0.5710    2.0649 H   0  0  0  0  0  0  0  0  0  0  0  0 
   10.8054   -1.1717    0.8953 H   0  0  0  0  0  0  0  0  0  0  0  0 
    1.9015    0.5286   -2.3862 H   0  0  0  0  0  0  0  0  0  0  0  0 
  1 19  1  0  0  0  0 
  1 18  1  0  0  0  0 
  2  6  1  0  0  0  0 
  2 21  1  0  0  0  0 
  3 13  1  0  0  0  0 
  3 12  2  0  0  0  0 
  4 14  2  0  0  0  0 
  4 24  1  0  0  0  0 
  5  1  1  0  0  0  0 
  5 25  1  1  0  0  0 
  6 26  1  1  0  0  0 
  6  5  1  0  0  0  0 
  7 27  1  6  0  0  0 
  7  2  1  0  0  0  0 
  7 17  1  0  0  0  0 
  7 15  1  0  0  0  0 
  8 14  1  0  0  0  0 
  9  8  1  0  0  0  0 
  9 11  1  1  0  0  0 
 10 15  1  0  0  0  0 
 10  8  2  0  0  0  0 
 11 28  1  0  0  0  0 
 12  9  1  0  0  0  0 
 13 10  1  0  0  0  0 
 15  4  1  0  0  0  0 
 16  6  1  0  0  0  0 
 17  5  1  0  0  0  0 
 20  1  1  0  0  0  0 
 22  2  1  0  0  0  0 
 23  3  1  0  0  0  0 
 29 11  1  0  0  0  0 
 30 16  1  0  0  0  0 
M  RAD  2   9   2  13   2 
M  END 
>  <HBA> 
7 
 
>  <HBD> 
2 
 
>  <TPSA> 
99.08 
 
>  <cid> 
3044 
 
>  <dipole> 
2.69 
 
>  <excitation_energy_1> 
4.923 
 
>  <excitation_energy_2> 
4.986 
 
>  <excitation_energy_3> 
5.235 
 
>  <excitation_energy_4> 
5.436 
 
>  <homo_energy> 
-5.94 
 
>  <homo_lumo_gap> 
5.418 
 
>  <logP> 
0.658 
 
>  <lumo_energy> 
-0.522 
 
>  <melting_point> 
177.08 
 
>  <molecular_refractivity> 
60.35 
 
>  <oscillator_strength_1> 
0.223 
 
>  <oscillator_strength_2> 
0.0096 
 
>  <oscillator_strength_3> 
0.0464 
 
>  <oscillator_strength_4> 
0.0067 
 
>  <open_babel_can_smiles> 
O[C@@H]1C[C@H](O[C@@H]1C)n1cnc2c1[N]C=N[C]2N 
 
>  <mulliken_charges> 
30 
1   -0.446135 
2   -0.352631 
3   0.166045 
4   0.223041 
5   0.109992 
6   0.123086 
7   0.258842 
8   0.185632 
9   0.49144 
10   0.524431 
11   -0.777099 
12   -0.509996 
13   -0.508059 
14   -0.526272 
15   -0.511739 
16   -0.621433 
17   -0.498074 
18   0.152948 
19   0.165514 
20   0.155352 
21   0.159623 
22   0.179867 
23   0.144901 
24   0.161771 
25   0.120172 
26   0.146753 
27   0.184896 
28   0.353899 
29   0.344317 
30   0.398916 
 
>  <lowdin_charges> 
30 
1   -0.446014 
2   -0.318345 
3   -0.032856 
4   -0.064227 
5   -0.013572 
6   -0.017156 
7   0.054086 
8   -0.062819 
9   0.12016 
10   0.062185 
11   -0.438934 
12   -0.221855 
13   -0.208893 
14   -0.187814 
15   -0.034446 
16   -0.451935 
17   -0.274618 
18   0.162001 
19   0.164365 
20   0.157855 
21   0.161255 
22   0.172748 
23   0.157385 
24   0.169976 
25   0.127928 
26   0.154786 
27   0.17027 
28   0.29879 
29   0.293982 
30   0.345712 
 
$$$$ 
 
