PCCDB-ID:  880 
public computational chemistry database (PCCDB) project, http://pccdb.org 
 
  9  8  0  0  0  0  0  0  0  0999 V2000 
    0.9954    0.1633    0.0868 C   0  0  0  0  0  0  0  0  0  0  0  0 
    3.2488    0.9325   -0.9471 C   0  0  0  0  0  0  0  0  0  0  0  0 
    2.4181   -0.1723   -0.2775 C   0  0  0  0  0  0  0  0  0  0  0  0 
    2.8161    2.0367   -1.1853 O   0  0  0  0  0  0  0  0  0  0  0  0 
    2.9564   -1.2450   -0.0841 O   0  0  0  0  0  0  0  0  0  0  0  0 
    0.4364    0.4516   -0.8112 H   0  0  0  0  0  0  0  0  0  0  0  0 
    0.9726    1.0313    0.7559 H   0  0  0  0  0  0  0  0  0  0  0  0 
    0.5214   -0.6952    0.5652 H   0  0  0  0  0  0  0  0  0  0  0  0 
    4.2844    0.6164   -1.1910 H   0  0  0  0  0  0  0  0  0  0  0  0 
  1  8  1  0  0  0  0 
  1  7  1  0  0  0  0 
  2  3  1  0  0  0  0 
  3  5  2  0  0  0  0 
  3  1  1  0  0  0  0 
  4  2  2  0  0  0  0 
  6  1  1  0  0  0  0 
  9  2  1  0  0  0  0 
M  END 
>  <HBA> 
2 
 
>  <HBD> 
0 
 
>  <TPSA> 
34.14 
 
>  <cid> 
880 
 
>  <dipole> 
0.95 
 
>  <excitation_energy_1> 
2.64 
 
>  <excitation_energy_2> 
4.259 
 
>  <excitation_energy_3> 
6.076 
 
>  <excitation_energy_4> 
6.559 
 
>  <homo_energy> 
-6.98 
 
>  <homo_lumo_gap> 
4.27 
 
>  <logP> 
-0.226 
 
>  <lumo_energy> 
-2.71 
 
>  <melting_point> 
28.54 
 
>  <molecular_refractivity> 
16.93 
 
>  <oscillator_strength_1> 
0.0001 
 
>  <oscillator_strength_2> 
0.0 
 
>  <oscillator_strength_3> 
0.0 
 
>  <oscillator_strength_4> 
0.0251 
 
>  <open_babel_can_smiles> 
O=CC(=O)C 
 
>  <mulliken_charges> 
9 
1   -0.526005 
2   0.186316 
3   0.396853 
4   -0.352188 
5   -0.407512 
6   0.189475 
7   0.189494 
8   0.184387 
9   0.139179 
 
>  <lowdin_charges> 
9 
1   -0.470744 
2   0.027937 
3   0.130727 
4   -0.179037 
5   -0.19306 
6   0.184455 
7   0.184273 
8   0.177665 
9   0.137785 
 
$$$$ 
 
