PCCDB-ID:  1720 
public computational chemistry database (PCCDB) project, http://pccdb.org 
 
 24 26  0  0  0  0  0  0  0  0999 V2000 
    0.7314    2.7417    0.1350 C   0  0  0  0  0  0  0  0  0  0  0  0 
    1.7220    1.7794    0.1165 C   0  0  0  0  0  0  0  0  0  0  0  0 
   -0.6236    2.3669    0.0710 C   0  0  0  0  0  0  0  0  0  0  0  0 
    0.6351   -2.3105    0.0358 C   0  0  0  0  0  0  0  0  0  0  0  0 
    1.9916   -1.9671    0.0256 C   0  0  0  0  0  0  0  0  0  0  0  0 
    1.4023    0.4022    0.0407 C   0  0  0  0  0  0  0  0  0  0  0  0 
   -0.9867    1.0299    0.0011 C   0  0  0  0  0  0  0  0  0  0  0  0 
   -0.3549   -1.3391    0.0129 C   0  0  0  0  0  0  0  0  0  0  0  0 
    2.3996   -0.6344    0.0150 C   0  0  0  0  0  0  0  0  0  0  0  0 
    0.0243    0.0238    0.0116 C   0  0  0  0  0  0  0  0  0  0  0  0 
   -2.3807    0.5427   -0.0755 C   0  0  0  0  0  0  0  0  0  0  0  0 
   -1.7934   -1.7141    0.0213 C   0  0  0  0  0  0  0  0  0  0  0  0 
    3.7470   -0.3073    0.0374 N   0  0  0  0  0  0  0  0  0  0  0  0 
   -2.7515   -0.6881   -0.0592 N   0  0  0  0  0  0  0  0  0  0  0  0 
   -3.3824    1.4494   -0.1717 O   0  0  0  0  0  0  0  0  0  0  0  0 
   -2.1486   -2.8829    0.0838 O   0  0  0  0  0  0  0  0  0  0  0  0 
    0.9941    3.7923    0.2101 H   0  0  0  0  0  0  0  0  0  0  0  0 
    2.7582    2.0938    0.1999 H   0  0  0  0  0  0  0  0  0  0  0  0 
   -1.3685    3.1594    0.1057 H   0  0  0  0  0  0  0  0  0  0  0  0 
    0.3287   -3.3518    0.0471 H   0  0  0  0  0  0  0  0  0  0  0  0 
    2.7451   -2.7513    0.0173 H   0  0  0  0  0  0  0  0  0  0  0  0 
    4.3775   -1.0739   -0.1609 H   0  0  0  0  0  0  0  0  0  0  0  0 
    4.0191    0.5393   -0.4439 H   0  0  0  0  0  0  0  0  0  0  0  0 
   -3.0213    2.3401   -0.2924 H   0  0  0  0  0  0  0  0  0  0  0  0 
  1 17  1  0  0  0  0 
  2  1  1  0  0  0  0 
  2 18  1  0  0  0  0 
  3 19  1  0  0  0  0 
  3  1  2  0  0  0  0 
  4 20  1  0  0  0  0 
  5  4  1  0  0  0  0 
  6  2  2  0  0  0  0 
  7 10  2  0  0  0  0 
  7  3  1  0  0  0  0 
  8 12  1  0  0  0  0 
  8  4  2  0  0  0  0 
  9  5  2  0  0  0  0 
  9 13  1  0  0  0  0 
  9  6  1  0  0  0  0 
 10  8  1  0  0  0  0 
 10  6  1  0  0  0  0 
 11 14  2  0  0  0  0 
 11  7  1  0  0  0  0 
 12 16  2  0  0  0  0 
 14 12  1  0  0  0  0 
 15 11  1  0  0  0  0 
 21  5  1  0  0  0  0 
 22 13  1  0  0  0  0 
 23 13  1  0  0  0  0 
 24 15  1  0  0  0  0 
M  END 
>  <HBA> 
3 
 
>  <HBD> 
2 
 
>  <TPSA> 
75.95 
 
>  <cid> 
1720 
 
>  <dipole> 
9.68 
 
>  <excitation_energy_1> 
2.98 
 
>  <excitation_energy_2> 
2.997 
 
>  <excitation_energy_3> 
3.745 
 
>  <excitation_energy_4> 
3.869 
 
>  <homo_energy> 
-5.834 
 
>  <homo_lumo_gap> 
3.423 
 
>  <logP> 
1.643 
 
>  <lumo_energy> 
-2.411 
 
>  <melting_point> 
260.54 
 
>  <molecular_refractivity> 
63.94 
 
>  <oscillator_strength_1> 
0.1499 
 
>  <oscillator_strength_2> 
0.0028 
 
>  <oscillator_strength_3> 
0.0002 
 
>  <oscillator_strength_4> 
0.0122 
 
>  <open_babel_can_smiles> 
OC1=NC(=O)c2c3c1cccc3c(cc2)N 
 
>  <mulliken_charges> 
24 
1   -0.124922 
2   -0.199183 
3   -0.244169 
4   -0.202824 
5   -0.170371 
6   0.135641 
7   0.093041 
8   0.040874 
9   0.256021 
10   0.009816 
11   0.459324 
12   0.507616 
13   -0.791705 
14   -0.508677 
15   -0.578791 
16   -0.477758 
17   0.143052 
18   0.137253 
19   0.130048 
20   0.172438 
21   0.129692 
22   0.334711 
23   0.331569 
24   0.417302 
 
>  <lowdin_charges> 
24 
1   -0.159122 
2   -0.135534 
3   -0.150653 
4   -0.098012 
5   -0.205237 
6   -0.027432 
7   -0.047122 
8   -0.075099 
9   0.076822 
10   0.01325 
11   0.152505 
12   0.153357 
13   -0.469512 
14   -0.183675 
15   -0.334226 
16   -0.256196 
17   0.164534 
18   0.160311 
19   0.156127 
20   0.181908 
21   0.160325 
22   0.285226 
23   0.282294 
24   0.355158 
 
$$$$ 
 
