PCCDB-ID:  751 
public computational chemistry database (PCCDB) project, http://pccdb.org 
 
 12 11  0  0  1  0  0  0  0  0999 V2000 
    0.9939   -0.1859   -0.1824 C   0  0  0  0  0  0  0  0  0  0  0  0 
    1.0120   -0.6313    2.3015 C   0  0  0  0  0  0  0  0  0  0  0  0 
    0.2735   -0.8573    0.9641 C   0  0  1  0  0  0  0  0  0  0  0  0 
    0.4846    0.7273   -0.8012 O   0  0  0  0  0  0  0  0  0  0  0  0 
    0.2783   -1.2087    3.3577 O   0  0  0  0  0  0  0  0  0  0  0  0 
   -1.0426   -0.3614    1.0818 O   0  0  0  0  0  0  0  0  0  0  0  0 
    2.0144   -0.5475   -0.4187 H   0  0  0  0  0  0  0  0  0  0  0  0 
    1.1536    0.4525    2.4480 H   0  0  0  0  0  0  0  0  0  0  0  0 
    1.9972   -1.1100    2.2903 H   0  0  0  0  0  0  0  0  0  0  0  0 
    0.2414   -1.9423    0.7752 H   0  0  0  0  0  0  0  0  0  0  0  0 
   -0.6279   -0.8672    3.2612 H   0  0  0  0  0  0  0  0  0  0  0  0 
   -1.1011    0.3870    0.4552 H   0  0  0  0  0  0  0  0  0  0  0  0 
  1  3  1  0  0  0  0 
  2  8  1  0  0  0  0 
  2  5  1  0  0  0  0 
  3 10  1  6  0  0  0 
  3  6  1  0  0  0  0 
  3  2  1  0  0  0  0 
  4  1  2  0  0  0  0 
  7  1  1  0  0  0  0 
  9  2  1  0  0  0  0 
 11  5  1  0  0  0  0 
 12  6  1  0  0  0  0 
M  END 
>  <HBA> 
3 
 
>  <HBD> 
2 
 
>  <TPSA> 
57.53 
 
>  <cid> 
751 
 
>  <dipole> 
1.41 
 
>  <excitation_energy_1> 
4.376 
 
>  <excitation_energy_2> 
5.121 
 
>  <excitation_energy_3> 
5.807 
 
>  <excitation_energy_4> 
6.793 
 
>  <homo_energy> 
-7.244 
 
>  <homo_lumo_gap> 
5.823 
 
>  <logP> 
-1.462 
 
>  <lumo_energy> 
-1.42 
 
>  <melting_point> 
44.39 
 
>  <molecular_refractivity> 
19.06 
 
>  <oscillator_strength_1> 
0.003 
 
>  <oscillator_strength_2> 
0.0282 
 
>  <oscillator_strength_3> 
0.005 
 
>  <oscillator_strength_4> 
0.0014 
 
>  <open_babel_can_smiles> 
O[C@@H](C=O)CO 
 
>  <mulliken_charges> 
12 
1   0.228895 
2   -0.023512 
3   0.052285 
4   -0.394291 
5   -0.612683 
6   -0.645692 
7   0.133631 
8   0.130469 
9   0.144652 
10   0.16291 
11   0.409966 
12   0.413369 
 
>  <lowdin_charges> 
12 
1   0.047432 
2   -0.13971 
3   -0.054569 
4   -0.214833 
5   -0.453427 
6   -0.460386 
7   0.135754 
8   0.130344 
9   0.149121 
10   0.158116 
11   0.350262 
12   0.351897 
 
$$$$ 
 
