PCCDB-ID:  155 
public computational chemistry database (PCCDB) project, http://pccdb.org 
 
 18 18  0  0  0  0  0  0  0  0999 V2000 
   -1.3826   -0.4361    0.3400 C   0  0  0  0  0  0  0  0  0  0  0  0 
    0.5352   -1.3735    0.1742 C   0  0  0  0  0  0  0  0  0  0  0  0 
    0.7871   -0.0133    0.2705 C   0  0  0  0  0  0  0  0  0  0  0  0 
    1.5492   -2.4091    0.0445 C   0  0  0  0  0  0  0  0  0  0  0  0 
    2.3355    1.9386    0.3543 C   0  0  0  0  0  0  0  0  0  0  0  0 
    3.4798    2.4937    0.3414 N   0  0  0  0  0  0  0  0  0  0  0  0 
   -0.8268   -1.6128    0.2198 N   0  0  0  0  0  0  0  0  0  0  0  0 
   -0.4412    0.5765    0.3751 N   0  0  0  0  0  0  0  0  0  0  0  0 
    2.0214    0.5973    0.2631 N   0  0  0  0  0  0  0  0  0  0  0  0 
    2.7482   -2.1629    0.0073 O   0  0  0  0  0  0  0  0  0  0  0  0 
    1.0816   -3.6702   -0.0323 O   0  0  0  0  0  0  0  0  0  0  0  0 
    1.2166    2.7113    0.4732 O   0  0  0  0  0  0  0  0  0  0  0  0 
   -2.4415   -0.2298    0.4054 H   0  0  0  0  0  0  0  0  0  0  0  0 
    4.2445    1.8267    0.2489 H   0  0  0  0  0  0  0  0  0  0  0  0 
   -0.5854    1.5729    0.4662 H   0  0  0  0  0  0  0  0  0  0  0  0 
    2.7736   -0.0865    0.1732 H   0  0  0  0  0  0  0  0  0  0  0  0 
    0.1054   -3.6219    0.0157 H   0  0  0  0  0  0  0  0  0  0  0  0 
    1.5534    3.6238    0.5278 H   0  0  0  0  0  0  0  0  0  0  0  0 
  1  8  1  0  0  0  0 
  1 13  1  0  0  0  0 
  2  7  1  0  0  0  0 
  2  3  2  0  0  0  0 
  3  8  1  0  0  0  0 
  4  2  1  0  0  0  0 
  5 12  1  0  0  0  0 
  6  5  2  0  0  0  0 
  7  1  2  0  0  0  0 
  8 15  1  0  0  0  0 
  9  3  1  0  0  0  0 
  9  5  1  0  0  0  0 
 10  4  2  0  0  0  0 
 11 17  1  0  0  0  0 
 11  4  1  0  0  0  0 
 12 18  1  0  0  0  0 
 14  6  1  0  0  0  0 
 16  9  1  0  0  0  0 
M  END 
>  <HBA> 
6 
 
>  <HBD> 
4 
 
>  <TPSA> 
121.1 
 
>  <cid> 
155 
 
>  <dipole> 
5.36 
 
>  <excitation_energy_1> 
4.831 
 
>  <excitation_energy_2> 
5.082 
 
>  <excitation_energy_3> 
5.331 
 
>  <excitation_energy_4> 
5.507 
 
>  <homo_energy> 
-6.011 
 
>  <homo_lumo_gap> 
5.323 
 
>  <logP> 
0.372 
 
>  <lumo_energy> 
-0.688 
 
>  <melting_point> 
278.95 
 
>  <molecular_refractivity> 
38.15 
 
>  <oscillator_strength_1> 
0.3428 
 
>  <oscillator_strength_2> 
0.0 
 
>  <oscillator_strength_3> 
0.0 
 
>  <oscillator_strength_4> 
0.1854 
 
>  <open_babel_can_smiles> 
OC(=N)Nc1[nH]cnc1C(=O)O 
 
>  <mulliken_charges> 
18 
1   0.225254 
2   0.087816 
3   0.586461 
4   0.608056 
5   0.687226 
6   -0.652926 
7   -0.524388 
8   -0.633771 
9   -0.740989 
10   -0.522293 
11   -0.583915 
12   -0.624771 
13   0.171893 
14   0.298665 
15   0.366947 
16   0.383572 
17   0.432613 
18   0.43455 
 
>  <lowdin_charges> 
18 
1   -0.079763 
2   -0.107401 
3   0.09417 
4   0.192412 
5   0.168696 
6   -0.458357 
7   -0.187421 
8   -0.176856 
9   -0.237449 
10   -0.297792 
11   -0.339633 
12   -0.385024 
13   0.174343 
14   0.270837 
15   0.307639 
16   0.319384 
17   0.366123 
18   0.37609 
 
$$$$ 
 
