PCCDB-ID:  2130 
public computational chemistry database (PCCDB) project, http://pccdb.org 
 
 28 30  0  0  1  0  0  0  0  0999 V2000 
   -0.7771    1.0432    1.2244 C   0  0  0  0  0  0  0  0  0  0  0  0 
   -0.9902    0.7474   -1.2677 C   0  0  0  0  0  0  0  0  0  0  0  0 
    1.2584    1.2444   -0.2470 C   0  0  0  0  0  0  0  0  0  0  0  0 
   -1.2442   -1.2377    0.2572 C   0  0  0  0  0  0  0  0  0  0  0  0 
    0.9963   -0.7391    1.2766 C   0  0  0  0  0  0  0  0  0  0  0  0 
    0.7813   -1.0370   -1.2082 C   0  0  0  0  0  0  0  0  0  0  0  0 
   -1.5109    0.2745    0.1058 C   0  0  1  0  0  0  0  0  0  0  0  0 
    0.7391    0.7755    1.1281 C   0  0  2  0  0  0  0  0  0  0  0  0 
    0.5255    0.4763   -1.3669 C   0  0  1  0  0  0  0  0  0  0  0  0 
    0.2681   -1.5316    0.1612 C   0  0  2  0  0  0  0  0  0  0  0  0 
    0.4683   -2.9861    0.2402 N   0  0  0  0  0  0  0  0  0  0  0  0 
   -1.1538    0.7288    2.2079 H   0  0  0  0  0  0  0  0  0  0  0  0 
   -0.9769    2.1201    1.1370 H   0  0  0  0  0  0  0  0  0  0  0  0 
   -1.1919    1.8195   -1.3996 H   0  0  0  0  0  0  0  0  0  0  0  0 
   -1.5207    0.2211   -2.0731 H   0  0  0  0  0  0  0  0  0  0  0  0 
    2.3418    1.0743   -0.3191 H   0  0  0  0  0  0  0  0  0  0  0  0 
    1.0974    2.3252   -0.3626 H   0  0  0  0  0  0  0  0  0  0  0  0 
   -1.7671   -1.8064   -0.5219 H   0  0  0  0  0  0  0  0  0  0  0  0 
   -1.6272   -1.5937    1.2256 H   0  0  0  0  0  0  0  0  0  0  0  0 
    0.6485   -1.0898    2.2599 H   0  0  0  0  0  0  0  0  0  0  0  0 
    2.0755   -0.9480    1.2282 H   0  0  0  0  0  0  0  0  0  0  0  0 
    1.8576   -1.2493   -1.2960 H   0  0  0  0  0  0  0  0  0  0  0  0 
    0.2789   -1.6037   -2.0021 H   0  0  0  0  0  0  0  0  0  0  0  0 
   -2.5903    0.4631    0.1760 H   0  0  0  0  0  0  0  0  0  0  0  0 
    1.2624    1.3192    1.9261 H   0  0  0  0  0  0  0  0  0  0  0  0 
    0.8966    0.8083   -2.3456 H   0  0  0  0  0  0  0  0  0  0  0  0 
    0.1539   -3.3195    1.1530 H   0  0  0  0  0  0  0  0  0  0  0  0 
    1.4683   -3.1907    0.2016 H   0  0  0  0  0  0  0  0  0  0  0  0 
  1 12  1  0  0  0  0 
  2  7  1  0  0  0  0 
  3  8  1  0  0  0  0 
  4 19  1  0  0  0  0 
  5 20  1  0  0  0  0 
  6 10  1  0  0  0  0 
  7 24  1  1  0  0  0 
  7  4  1  0  0  0  0 
  7  1  1  0  0  0  0 
  8  1  1  0  0  0  0 
  8  5  1  0  0  0  0 
  8 25  1  1  0  0  0 
  9 26  1  6  0  0  0 
  9  2  1  0  0  0  0 
  9  6  1  0  0  0  0 
  9  3  1  0  0  0  0 
 10 11  1  1  0  0  0 
 10  4  1  0  0  0  0 
 10  5  1  0  0  0  0 
 11 27  1  0  0  0  0 
 13  1  1  0  0  0  0 
 14  2  1  0  0  0  0 
 15  2  1  0  0  0  0 
 16  3  1  0  0  0  0 
 17  3  1  0  0  0  0 
 18  4  1  0  0  0  0 
 21  5  1  0  0  0  0 
 22  6  1  0  0  0  0 
 23  6  1  0  0  0  0 
 28 11  1  0  0  0  0 
M  END 
>  <HBA> 
1 
 
>  <HBD> 
1 
 
>  <TPSA> 
26.02 
 
>  <cid> 
2130 
 
>  <dipole> 
1.24 
 
>  <excitation_energy_1> 
5.541 
 
>  <excitation_energy_2> 
5.986 
 
>  <excitation_energy_3> 
6.263 
 
>  <excitation_energy_4> 
6.396 
 
>  <homo_energy> 
-6.133 
 
>  <homo_lumo_gap> 
7.984 
 
>  <logP> 
2.614 
 
>  <lumo_energy> 
1.85 
 
>  <melting_point> 
103.79 
 
>  <molecular_refractivity> 
46.59 
 
>  <oscillator_strength_1> 
0.0188 
 
>  <oscillator_strength_2> 
0.0106 
 
>  <oscillator_strength_3> 
0.0017 
 
>  <oscillator_strength_4> 
0.0212 
 
>  <open_babel_can_smiles> 
N[C@]12C[C@H]3C[C@@H](C2)C[C@@H](C1)C3 
 
>  <mulliken_charges> 
28 
1   -0.264632 
2   -0.264899 
3   -0.264608 
4   -0.262743 
5   -0.272145 
6   -0.262642 
7   -0.09223 
8   -0.089249 
9   -0.092582 
10   0.182213 
11   -0.724666 
12   0.123926 
13   0.125029 
14   0.123941 
15   0.127782 
16   0.124025 
17   0.125032 
18   0.140405 
19   0.114969 
20   0.115012 
21   0.115056 
22   0.114929 
23   0.140348 
24   0.115486 
25   0.114012 
26   0.115568 
27   0.286339 
28   0.286321 
 
>  <lowdin_charges> 
28 
1   -0.279155 
2   -0.280598 
3   -0.277214 
4   -0.282444 
5   -0.292755 
6   -0.280464 
7   -0.128945 
8   -0.133257 
9   -0.130773 
10   0.049766 
11   -0.540324 
12   0.138357 
13   0.137981 
14   0.137576 
15   0.142012 
16   0.136827 
17   0.13789 
18   0.149579 
19   0.135212 
20   0.134331 
21   0.132882 
22   0.133525 
23   0.149418 
24   0.137383 
25   0.139495 
26   0.13908 
27   0.247949 
28   0.246666 
 
$$$$ 
 
