PCCDB-ID:  5531 
public computational chemistry database (PCCDB) project, http://pccdb.org 
 
 30 31  0  0  0  0  0  0  0  0999 V2000 
    2.7519   -1.9405   -0.4925 C   0  0  0  0  0  0  0  0  0  0  0  0 
    3.1756    1.3870    2.3434 C   0  0  0  0  0  0  0  0  0  0  0  0 
    7.6626   -4.0638    0.7326 C   0  0  0  0  0  0  0  0  0  0  0  0 
    3.0852   -1.5802    0.9608 C   0  0  0  0  0  0  0  0  0  0  0  0 
    3.6818    0.8280    1.0137 C   0  0  0  0  0  0  0  0  0  0  0  0 
    5.8767   -2.2855    0.8915 C   0  0  0  0  0  0  0  0  0  0  0  0 
    7.6484    1.4933    2.1132 C   0  0  0  0  0  0  0  0  0  0  0  0 
    7.2369   -2.6399    0.9934 C   0  0  0  0  0  0  0  0  0  0  0  0 
    5.4439   -0.9783    1.1523 C   0  0  0  0  0  0  0  0  0  0  0  0 
    7.8076   -0.5339    1.5780 C   0  0  0  0  0  0  0  0  0  0  0  0 
    8.5518    0.5065    1.9611 N   0  0  0  0  0  0  0  0  0  0  0  0 
    6.3743    1.2022    1.8635 N   0  0  0  0  0  0  0  0  0  0  0  0 
    8.2021   -1.7861    1.3224 N   0  0  0  0  0  0  0  0  0  0  0  0 
    4.1437   -0.5732    1.1064 N   0  0  0  0  0  0  0  0  0  0  0  0 
    6.4627   -0.1183    1.5007 N   0  0  0  0  0  0  0  0  0  0  0  0 
    1.9404   -2.6765   -0.5192 H   0  0  0  0  0  0  0  0  0  0  0  0 
    3.6167   -2.3640   -1.0121 H   0  0  0  0  0  0  0  0  0  0  0  0 
    2.4230   -1.0588   -1.0529 H   0  0  0  0  0  0  0  0  0  0  0  0 
    2.7579    2.3886    2.1883 H   0  0  0  0  0  0  0  0  0  0  0  0 
    4.0025    1.4637    3.0532 H   0  0  0  0  0  0  0  0  0  0  0  0 
    2.3891    0.7592    2.7777 H   0  0  0  0  0  0  0  0  0  0  0  0 
    6.9197   -4.6142    0.1473 H   0  0  0  0  0  0  0  0  0  0  0  0 
    7.8068   -4.5940    1.6825 H   0  0  0  0  0  0  0  0  0  0  0  0 
    8.6204   -4.0757    0.2057 H   0  0  0  0  0  0  0  0  0  0  0  0 
    3.3653   -2.4722    1.5287 H   0  0  0  0  0  0  0  0  0  0  0  0 
    2.1949   -1.1728    1.4513 H   0  0  0  0  0  0  0  0  0  0  0  0 
    4.4932    1.4458    0.6379 H   0  0  0  0  0  0  0  0  0  0  0  0 
    2.8807    0.8403    0.2648 H   0  0  0  0  0  0  0  0  0  0  0  0 
    5.1643   -3.0341    0.5780 H   0  0  0  0  0  0  0  0  0  0  0  0 
    7.9220    2.4925    2.4285 H   0  0  0  0  0  0  0  0  0  0  0  0 
  1  4  1  0  0  0  0 
  2 21  1  0  0  0  0 
  2 20  1  0  0  0  0 
  3  8  1  0  0  0  0 
  3 23  1  0  0  0  0 
  4 14  1  0  0  0  0 
  4 26  1  0  0  0  0 
  4 25  1  0  0  0  0 
  5 14  1  0  0  0  0 
  5  2  1  0  0  0  0 
  6  8  1  0  0  0  0 
  6  9  2  0  0  0  0 
  7 30  1  0  0  0  0 
  8 13  2  0  0  0  0 
  9 15  1  0  0  0  0 
 10 11  2  0  0  0  0 
 11  7  2  0  0  0  0 
 12  7  1  0  0  0  0 
 13 10  1  0  0  0  0 
 14  9  1  0  0  0  0 
 15 10  1  0  0  0  0 
 15 12  1  0  0  0  0 
 16  1  1  0  0  0  0 
 17  1  1  0  0  0  0 
 18  1  1  0  0  0  0 
 19  2  1  0  0  0  0 
 22  3  1  0  0  0  0 
 24  3  1  0  0  0  0 
 27  5  1  0  0  0  0 
 28  5  1  0  0  0  0 
 29  6  1  0  0  0  0 
M  RAD  1  12   2 
M  END 
>  <HBA> 
5 
 
>  <HBD> 
0 
 
>  <TPSA> 
46.32 
 
>  <cid> 
5531 
 
>  <dipole> 
6.53 
 
>  <excitation_energy_1> 
4.481 
 
>  <excitation_energy_2> 
4.783 
 
>  <excitation_energy_3> 
5.022 
 
>  <excitation_energy_4> 
5.098 
 
>  <homo_energy> 
-5.733 
 
>  <homo_lumo_gap> 
5.018 
 
>  <logP> 
1.279 
 
>  <lumo_energy> 
-0.716 
 
>  <melting_point> 
101.25 
 
>  <molecular_refractivity> 
59.57 
 
>  <oscillator_strength_1> 
0.1967 
 
>  <oscillator_strength_2> 
0.0308 
 
>  <oscillator_strength_3> 
0.0091 
 
>  <oscillator_strength_4> 
0.0045 
 
>  <open_babel_can_smiles> 
CCN(c1cc(C)nc2=[N]=C[N]n12)CC 
 
>  <mulliken_charges> 
30 
1   -0.451951 
2   -0.444446 
3   -0.514931 
4   -0.159042 
5   -0.150199 
6   -0.292966 
7   0.178918 
8   0.316521 
9   0.667393 
10   0.68046 
11   -0.501195 
12   -0.310417 
13   -0.54303 
14   -0.472208 
15   -0.431307 
16   0.155689 
17   0.166192 
18   0.159701 
19   0.148001 
20   0.183512 
21   0.140731 
22   0.14794 
23   0.176335 
24   0.182324 
25   0.166728 
26   0.163122 
27   0.199306 
28   0.144687 
29   0.138228 
30   0.155902 
 
>  <lowdin_charges> 
30 
1   -0.458091 
2   -0.453421 
3   -0.445225 
4   -0.196371 
5   -0.198108 
6   -0.286241 
7   -0.076076 
8   0.079588 
9   0.129892 
10   0.102444 
11   -0.202949 
12   -0.191934 
13   -0.179296 
14   -0.086391 
15   0.035153 
16   0.159675 
17   0.159077 
18   0.156837 
19   0.155348 
20   0.168377 
21   0.146884 
22   0.155099 
23   0.171656 
24   0.174788 
25   0.158612 
26   0.157861 
27   0.178797 
28   0.145672 
29   0.171649 
30   0.166694 
 
$$$$ 
 
