23512524
  -OEChem-06071920193D

 30 30  0     0  0  0  0  0  0999 V2000
    2.3351    1.0811    0.5967 O   0  0  0  0  0  0  0  0  0  0  0  0
    0.7037   -2.5820   -0.2345 O   0  0  0  0  0  0  0  0  0  0  0  0
   -3.5381   -0.6531   -0.6288 O   0  0  0  0  0  0  0  0  0  0  0  0
    2.3248   -1.6148    1.0828 O   0  0  0  0  0  0  0  0  0  0  0  0
   -4.0464    1.2912    0.4938 O   0  0  0  0  0  0  0  0  0  0  0  0
    2.5198    1.0964   -1.7368 O   0  0  0  0  0  0  0  0  0  0  0  0
    0.4217   -0.3523    0.3977 C   0  0  0  0  0  0  0  0  0  0  0  0
    0.9882    0.9206    0.4644 C   0  0  0  0  0  0  0  0  0  0  0  0
   -1.7737    0.6354    0.1942 C   0  0  0  0  0  0  0  0  0  0  0  0
   -0.9592   -0.4949    0.2626 C   0  0  0  0  0  0  0  0  0  0  0  0
    0.1737    2.0510    0.3962 C   0  0  0  0  0  0  0  0  0  0  0  0
   -1.2072    1.9084    0.2610 C   0  0  0  0  0  0  0  0  0  0  0  0
    1.2543   -1.5452    0.4669 C   0  0  0  0  0  0  0  0  0  0  0  0
   -3.2136    0.4875    0.0538 C   0  0  0  0  0  0  0  0  0  0  0  0
    3.0244    1.1606   -0.6236 C   0  0  0  0  0  0  0  0  0  0  0  0
    4.4927    1.3357   -0.3720 C   0  0  0  0  0  0  0  0  0  0  0  0
    1.4312   -3.8150   -0.2410 C   0  0  0  0  0  0  0  0  0  0  0  0
   -4.9314   -0.9105   -0.8334 C   0  0  0  0  0  0  0  0  0  0  0  0
   -1.4063   -1.4858    0.2398 H   0  0  0  0  0  0  0  0  0  0  0  0
    0.6080    3.0458    0.4477 H   0  0  0  0  0  0  0  0  0  0  0  0
   -1.8270    2.7995    0.2065 H   0  0  0  0  0  0  0  0  0  0  0  0
    4.8771    0.4747    0.1803 H   0  0  0  0  0  0  0  0  0  0  0  0
    5.0194    1.4020   -1.3281 H   0  0  0  0  0  0  0  0  0  0  0  0
    4.6638    2.2595    0.1860 H   0  0  0  0  0  0  0  0  0  0  0  0
    2.4153   -3.6695   -0.6962 H   0  0  0  0  0  0  0  0  0  0  0  0
    1.5298   -4.1998    0.7784 H   0  0  0  0  0  0  0  0  0  0  0  0
    0.8699   -4.5384   -0.8381 H   0  0  0  0  0  0  0  0  0  0  0  0
   -5.4403   -1.0166    0.1292 H   0  0  0  0  0  0  0  0  0  0  0  0
   -5.3810   -0.1053   -1.4217 H   0  0  0  0  0  0  0  0  0  0  0  0
   -5.0267   -1.8478   -1.3877 H   0  0  0  0  0  0  0  0  0  0  0  0
  1  8  1  0  0  0  0
  1 15  1  0  0  0  0
  2 13  1  0  0  0  0
  2 17  1  0  0  0  0
  3 14  1  0  0  0  0
  3 18  1  0  0  0  0
  4 13  2  0  0  0  0
  5 14  2  0  0  0  0
  6 15  2  0  0  0  0
  7  8  2  0  0  0  0
  7 10  1  0  0  0  0
  7 13  1  0  0  0  0
  8 11  1  0  0  0  0
  9 10  2  0  0  0  0
  9 12  1  0  0  0  0
  9 14  1  0  0  0  0
 10 19  1  0  0  0  0
 11 12  2  0  0  0  0
 11 20  1  0  0  0  0
 12 21  1  0  0  0  0
 15 16  1  0  0  0  0
 16 22  1  0  0  0  0
 16 23  1  0  0  0  0
 16 24  1  0  0  0  0
 17 25  1  0  0  0  0
 17 26  1  0  0  0  0
 17 27  1  0  0  0  0
 18 28  1  0  0  0  0
 18 29  1  0  0  0  0
 18 30  1  0  0  0  0
M  END
> <PUBCHEM_COMPOUND_CID>
23512524

> <PUBCHEM_CONFORMER_RMSD>
0.8

> <PUBCHEM_CONFORMER_DIVERSEORDER>
1
28
31
36
32
8
27
2
24
33
29
42
37
19
13
43
34
41
11
12
38
30
17
5
21
39
25
7
6
20
16
40
10
14
22
3
35
18
15
4
23
9
26

> <PUBCHEM_MMFF94_PARTIAL_CHARGES>
21
1 -0.23
10 -0.15
11 -0.15
12 -0.15
13 0.63
14 0.63
15 0.66
16 0.06
17 0.28
18 0.28
19 0.15
2 -0.43
20 0.15
21 0.15
3 -0.43
4 -0.57
5 -0.57
6 -0.57
7 0.09
8 0.08
9 0.09

> <PUBCHEM_EFFECTIVE_ROTOR_COUNT>
6

> <PUBCHEM_PHARMACOPHORE_FEATURES>
4
1 4 acceptor
1 5 acceptor
1 6 acceptor
6 7 8 9 10 11 12 rings

> <PUBCHEM_HEAVY_ATOM_COUNT>
18

> <PUBCHEM_ATOM_DEF_STEREO_COUNT>
0

> <PUBCHEM_ATOM_UDEF_STEREO_COUNT>
0

> <PUBCHEM_BOND_DEF_STEREO_COUNT>
0

> <PUBCHEM_BOND_UDEF_STEREO_COUNT>
0

> <PUBCHEM_ISOTOPIC_ATOM_COUNT>
0

> <PUBCHEM_COMPONENT_COUNT>
1

> <PUBCHEM_CACTVS_TAUTO_COUNT>
1

> <PUBCHEM_CONFORMER_ID>
0166C5CC00000001

> <PUBCHEM_MMFF94_ENERGY>
57.5393

> <PUBCHEM_FEATURE_SELFOVERLAP>
20.297

> <PUBCHEM_SHAPE_FINGERPRINT>
10980938 120 18410290294240693217
12616999 72 18261386780449841575
13083527 12 17970606533675176314
13380535 76 18260831522403215018
13836976 161 18260828258328108517
14181834 199 18042407941561893302
14576447 43 18270387421558677119
15502722 9 18336551525222452735
16945 1 18336267932995871833
19591789 44 18050010192289117827
20281475 54 18270959025754986289
20344682 6 18335702766765478997
20645476 183 17897457305132363292
20645477 70 18335411323786631895
21054139 6 18269826678886286175
21452121 199 18121200005285559187
21501502 16 18338516309815450729
21524375 3 18114744948955176512
23114952 82 18043238046896896669
23402539 116 18343584070804120236
23419403 2 14204165702702974338
23559900 14 18053087433166678026
23598291 2 18200877249901652363
2748010 2 17832426771295893025
298252 57 18262520428451306434
3060560 45 18337945813382749461
3071541 250 18051422772614615242
3071541 37 18334859406865455922
43471831 8 18411135822956373250
4990 188 17918001593523537580
7364860 26 18267590100478713626
81228 2 17327174854383013138
81539 233 18040435499147617194

> <PUBCHEM_SHAPE_MULTIPOLES>
335.22
7.19
3.06
0.95
5.14
3.41
-0.21
-1.59
-2.06
-1.94
-0.02
-0.34
-0.07
-0.97

> <PUBCHEM_SHAPE_SELFOVERLAP>
700.133

> <PUBCHEM_SHAPE_VOLUME>
189.5

> <PUBCHEM_COORDINATE_TYPE>
2
5
10

$$$$
