68484
  -OEChem-06071920193D

 24 24  0     0  0  0  0  0  0999 V2000
   -1.4439   -0.5411   -0.7581 O   0  0  0  0  0  0  0  0  0  0  0  0
    2.4516   -0.7831    0.4838 O   0  0  0  0  0  0  0  0  0  0  0  0
    1.0331   -1.6583   -1.1038 O   0  0  0  0  0  0  0  0  0  0  0  0
   -1.7923   -0.9603    1.5185 O   0  0  0  0  0  0  0  0  0  0  0  0
    0.6383    0.5152   -0.2067 C   0  0  0  0  0  0  0  0  0  0  0  0
   -0.7390    0.5752   -0.4193 C   0  0  0  0  0  0  0  0  0  0  0  0
    1.3417    1.6695    0.1378 C   0  0  0  0  0  0  0  0  0  0  0  0
   -1.4128    1.7895   -0.2873 C   0  0  0  0  0  0  0  0  0  0  0  0
    0.6678    2.8837    0.2697 C   0  0  0  0  0  0  0  0  0  0  0  0
   -0.7094    2.9437    0.0571 C   0  0  0  0  0  0  0  0  0  0  0  0
    1.3612   -0.7418   -0.3405 C   0  0  0  0  0  0  0  0  0  0  0  0
   -1.9434   -1.2576    0.3410 C   0  0  0  0  0  0  0  0  0  0  0  0
   -2.7002   -2.4623   -0.1344 C   0  0  0  0  0  0  0  0  0  0  0  0
    3.2473   -1.9724    0.4423 C   0  0  0  0  0  0  0  0  0  0  0  0
    2.4169    1.6596    0.2964 H   0  0  0  0  0  0  0  0  0  0  0  0
   -2.4855    1.8443   -0.4525 H   0  0  0  0  0  0  0  0  0  0  0  0
    1.2156    3.7833    0.5346 H   0  0  0  0  0  0  0  0  0  0  0  0
   -1.2339    3.8893    0.1588 H   0  0  0  0  0  0  0  0  0  0  0  0
   -3.5414   -2.1478   -0.7568 H   0  0  0  0  0  0  0  0  0  0  0  0
   -3.0892   -3.0102    0.7284 H   0  0  0  0  0  0  0  0  0  0  0  0
   -2.0311   -3.1205   -0.6941 H   0  0  0  0  0  0  0  0  0  0  0  0
    3.6607   -2.1145   -0.5606 H   0  0  0  0  0  0  0  0  0  0  0  0
    2.6476   -2.8378    0.7394 H   0  0  0  0  0  0  0  0  0  0  0  0
    4.0721   -1.8554    1.1502 H   0  0  0  0  0  0  0  0  0  0  0  0
  1  6  1  0  0  0  0
  1 12  1  0  0  0  0
  2 11  1  0  0  0  0
  2 14  1  0  0  0  0
  3 11  2  0  0  0  0
  4 12  2  0  0  0  0
  5  6  1  0  0  0  0
  5  7  2  0  0  0  0
  5 11  1  0  0  0  0
  6  8  2  0  0  0  0
  7  9  1  0  0  0  0
  7 15  1  0  0  0  0
  8 10  1  0  0  0  0
  8 16  1  0  0  0  0
  9 10  2  0  0  0  0
  9 17  1  0  0  0  0
 10 18  1  0  0  0  0
 12 13  1  0  0  0  0
 13 19  1  0  0  0  0
 13 20  1  0  0  0  0
 13 21  1  0  0  0  0
 14 22  1  0  0  0  0
 14 23  1  0  0  0  0
 14 24  1  0  0  0  0
M  END
> <PUBCHEM_COMPOUND_CID>
68484

> <PUBCHEM_CONFORMER_RMSD>
0.6

> <PUBCHEM_CONFORMER_DIVERSEORDER>
2
12
16
24
42
33
6
23
34
3
5
11
25
13
35
41
26
14
4
15
36
29
32
30
31
39
38
17
10
22
40
1
9
37
21
18
7
8
20
19
28
27

> <PUBCHEM_MMFF94_PARTIAL_CHARGES>
18
1 -0.23
10 -0.15
11 0.63
12 0.66
13 0.06
14 0.28
15 0.15
16 0.15
17 0.15
18 0.15
2 -0.43
3 -0.57
4 -0.57
5 0.09
6 0.08
7 -0.15
8 -0.15
9 -0.15

> <PUBCHEM_EFFECTIVE_ROTOR_COUNT>
4

> <PUBCHEM_PHARMACOPHORE_FEATURES>
3
1 3 acceptor
1 4 acceptor
6 5 6 7 8 9 10 rings

> <PUBCHEM_HEAVY_ATOM_COUNT>
14

> <PUBCHEM_ATOM_DEF_STEREO_COUNT>
0

> <PUBCHEM_ATOM_UDEF_STEREO_COUNT>
0

> <PUBCHEM_BOND_DEF_STEREO_COUNT>
0

> <PUBCHEM_BOND_UDEF_STEREO_COUNT>
0

> <PUBCHEM_ISOTOPIC_ATOM_COUNT>
0

> <PUBCHEM_COMPONENT_COUNT>
1

> <PUBCHEM_CACTVS_TAUTO_COUNT>
1

> <PUBCHEM_CONFORMER_ID>
00010B8400000002

> <PUBCHEM_MMFF94_ENERGY>
42.8427

> <PUBCHEM_FEATURE_SELFOVERLAP>
15.223

> <PUBCHEM_SHAPE_FINGERPRINT>
1 1 17617658104100802829
13380535 76 17550374151675166646
14817 1 15553903168562407139
15309172 13 17183910705587450289
15490181 7 16683721391091110204
15502708 68 17618504728122690531
16945 1 16179038918096011029
17990270 104 18192423289178155579
193761 8 18410853278327590677
20645476 183 17540279556805513318
20645477 70 17904471154378954391
20871998 184 18127125282111197574
21501502 16 18410014368367224517
23402539 116 17908963444823898757
23728640 28 17760353405996038906
257057 1 18337943571415303299
2748010 2 18341880927070999660
3071541 236 17902787462309331594
3250762 1 18263063561378586301
528862 383 17836363018480514567
81228 2 18195252117689796353

> <PUBCHEM_SHAPE_MULTIPOLES>
264.64
3.62
3.54
0.89
0.05
3.93
0.11
-2.63
0.31
1.46
0.44
0.31
-0.06
-0.21

> <PUBCHEM_SHAPE_SELFOVERLAP>
550.807

> <PUBCHEM_SHAPE_VOLUME>
149.5

> <PUBCHEM_COORDINATE_TYPE>
2
5
10

$$$$
