PCCDB-ID:  43542
public computational chemistry database (PCCDB) project, http://pccdb.org

 25 25  0  0  0  0  0  0  0  0999 V2000
    5.1748    0.3495   -2.2068 C   0  0  0  0  0  0  0  0  0  0  0  0
    5.2354    5.0156    3.3915 C   0  0  0  0  0  0  0  0  0  0  0  0
    4.7085    0.2439   -0.9615 C   0  0  0  0  0  0  0  0  0  0  0  0
    6.8713   -0.5932    4.3319 C   0  0  0  0  0  0  0  0  0  0  0  0
    6.7739    0.7752    5.0544 C   0  0  0  0  0  0  0  0  0  0  0  0
    5.5709    0.0275    0.2449 C   0  0  0  0  0  0  0  0  0  0  0  0
    6.0983    0.8506    2.8173 C   0  0  0  0  0  0  0  0  0  0  0  0
    5.9935    2.9648    4.2546 C   0  0  0  0  0  0  0  0  0  0  0  0
    6.4378   -0.3763    2.9444 N   0  0  0  0  0  0  0  0  0  0  0  0
    6.2366    1.6362    3.9861 N   0  0  0  0  0  0  0  0  0  0  0  0
    6.1967    3.4678    5.3438 O   0  0  0  0  0  0  0  0  0  0  0  0
    5.5101    3.6219    3.1808 O   0  0  0  0  0  0  0  0  0  0  0  0
    5.4969    1.5481    1.3012 S   0  0  0  0  0  0  0  0  0  0  0  0
    4.5102    0.4905   -3.0546 H   0  0  0  0  0  0  0  0  0  0  0  0
    6.2389    0.2904   -2.4258 H   0  0  0  0  0  0  0  0  0  0  0  0
    4.8656    5.3819    2.4339 H   0  0  0  0  0  0  0  0  0  0  0  0
    6.1456    5.5457    3.6826 H   0  0  0  0  0  0  0  0  0  0  0  0
    4.4805    5.1433    4.1714 H   0  0  0  0  0  0  0  0  0  0  0  0
    3.6369    0.3157   -0.7772 H   0  0  0  0  0  0  0  0  0  0  0  0
    6.2301   -1.3508    4.7975 H   0  0  0  0  0  0  0  0  0  0  0  0
    7.8929   -0.9898    4.3367 H   0  0  0  0  0  0  0  0  0  0  0  0
    7.7400    1.1611    5.3933 H   0  0  0  0  0  0  0  0  0  0  0  0
    6.0940    0.7736    5.9107 H   0  0  0  0  0  0  0  0  0  0  0  0
    6.6117   -0.1637   -0.0280 H   0  0  0  0  0  0  0  0  0  0  0  0
    5.2223   -0.8040    0.8627 H   0  0  0  0  0  0  0  0  0  0  0  0
  1  3  2  0  0  0  0
  2 17  1  0  0  0  0
  2 18  1  0  0  0  0
  3 19  1  0  0  0  0
  3  6  1  0  0  0  0
  4 21  1  0  0  0  0
  4 20  1  0  0  0  0
  4  5  1  0  0  0  0
  5 22  1  0  0  0  0
  5 23  1  0  0  0  0
  6 25  1  0  0  0  0
  6 13  1  0  0  0  0
  7  9  2  0  0  0  0
  7 10  1  0  0  0  0
  8 11  2  0  0  0  0
  9  4  1  0  0  0  0
 10  8  1  0  0  0  0
 10  5  1  0  0  0  0
 12  2  1  0  0  0  0
 12  8  1  0  0  0  0
 13  7  1  0  0  0  0
 14  1  1  0  0  0  0
 15  1  1  0  0  0  0
 16  2  1  0  0  0  0
 24  6  1  0  0  0  0
M  END
>  <HBA>
5

>  <HBD>
0

>  <TPSA>
67.2

>  <cid>
43542

>  <dipole>
0.81

>  <excitation_energy_1>
5.166

>  <excitation_energy_2>
5.502

>  <excitation_energy_3>
5.616

>  <excitation_energy_4>
5.65

>  <homo_energy>
-6.142

>  <homo_lumo_gap>
6.09

>  <logP>
0.717

>  <lumo_energy>
-0.052

>  <melting_point>
26.33

>  <molecular_refractivity>
61.07

>  <oscillator_strength_1>
0.0266

>  <oscillator_strength_2>
0.0076

>  <oscillator_strength_3>
0.0971

>  <oscillator_strength_4>
0.0512

>  <open_babel_can_smiles>
C=CCSC1=NCCN1C(=O)OC

>  <mulliken_charges>
25
1   -0.326528
2   -0.211778
3   -0.060011
4   -0.172839
5   -0.13414
6   -0.459381
7   0.308787
8   0.806244
9   -0.454302
10   -0.540566
11   -0.511566
12   -0.466658
13   0.191139
14   0.147802
15   0.14508
16   0.172319
17   0.173715
18   0.173344
19   0.145328
20   0.16137
21   0.161677
22   0.175545
23   0.176736
24   0.186969
25   0.211712

>  <lowdin_charges>
25
1   -0.323647
2   -0.269995
3   -0.152303
4   -0.206508
5   -0.194822
6   -0.362741
7   -0.02359
8   0.209371
9   -0.238676
10   -0.094814
11   -0.297961
12   -0.18195
13   0.182806
14   0.163569
15   0.157417
16   0.16496
17   0.161961
18   0.161728
19   0.158055
20   0.155522
21   0.153961
22   0.160509
23   0.162693
24   0.168218
25   0.186236

$$$$

