PCCDB-ID:  10401
public computational chemistry database (PCCDB) project, http://pccdb.org

 18 18  0  0  0  0  0  0  0  0999 V2000
   -1.5509    0.7434    0.0308 C   0  0  0  0  0  0  0  0  0  0  0  0
   -0.2938    1.5395   -0.3424 C   0  0  0  0  0  0  0  0  0  0  0  0
   -1.4318   -0.7735   -0.1632 C   0  0  0  0  0  0  0  0  0  0  0  0
    0.9718    1.1408    0.4486 C   0  0  0  0  0  0  0  0  0  0  0  0
   -0.3021   -1.4274    0.6327 C   0  0  0  0  0  0  0  0  0  0  0  0
    1.6533   -0.1192   -0.0682 C   0  0  0  0  0  0  0  0  0  0  0  0
    2.7509   -0.1094   -0.5727 O   0  0  0  0  0  0  0  0  0  0  0  0
    0.9911   -1.3055    0.0140 O   0  0  0  0  0  0  0  0  0  0  0  0
   -2.3988    1.1157   -0.5580 H   0  0  0  0  0  0  0  0  0  0  0  0
   -1.7971    0.9459    1.0838 H   0  0  0  0  0  0  0  0  0  0  0  0
   -0.4858    2.6037   -0.1598 H   0  0  0  0  0  0  0  0  0  0  0  0
   -0.0906    1.4451   -1.4175 H   0  0  0  0  0  0  0  0  0  0  0  0
   -1.2877   -1.0209   -1.2233 H   0  0  0  0  0  0  0  0  0  0  0  0
   -2.3744   -1.2468    0.1428 H   0  0  0  0  0  0  0  0  0  0  0  0
    0.7249    1.0300    1.5136 H   0  0  0  0  0  0  0  0  0  0  0  0
    1.7272    1.9255    0.3699 H   0  0  0  0  0  0  0  0  0  0  0  0
   -0.4544   -2.5081    0.6868 H   0  0  0  0  0  0  0  0  0  0  0  0
   -0.2667   -1.0457    1.6619 H   0  0  0  0  0  0  0  0  0  0  0  0
  1 10  1  0  0  0  0
  2 11  1  0  0  0  0
  2  1  1  0  0  0  0
  2  4  1  0  0  0  0
  3  1  1  0  0  0  0
  3 14  1  0  0  0  0
  3  5  1  0  0  0  0
  4 15  1  0  0  0  0
  5 17  1  0  0  0  0
  5 18  1  0  0  0  0
  6  8  1  0  0  0  0
  6  4  1  0  0  0  0
  7  6  2  0  0  0  0
  8  5  1  0  0  0  0
  9  1  1  0  0  0  0
 12  2  1  0  0  0  0
 13  3  1  0  0  0  0
 16  4  1  0  0  0  0
M  END
>  <HBA>
2

>  <HBD>
0

>  <TPSA>
26.3

>  <cid>
10401

>  <dipole>
4.62

>  <excitation_energy_1>
5.504

>  <excitation_energy_2>
6.601

>  <excitation_energy_3>
7.036

>  <excitation_energy_4>
7.109

>  <homo_energy>
-7.01

>  <homo_lumo_gap>
7.404

>  <logP>
1.104

>  <lumo_energy>
0.395

>  <melting_point>
8.46

>  <molecular_refractivity>
30.13

>  <oscillator_strength_1>
0.0011

>  <oscillator_strength_2>
0.0028

>  <oscillator_strength_3>
0.0053

>  <oscillator_strength_4>
0.0047

>  <open_babel_can_smiles>
O=C1CCCCCO1

>  <mulliken_charges>
18
1   -0.262983
2   -0.269031
3   -0.282222
4   -0.367188
5   -0.049685
6   0.590346
7   -0.446478
8   -0.439002
9   0.143658
10   0.133566
11   0.149541
12   0.154649
13   0.158342
14   0.144176
15   0.15524
16   0.179166
17   0.165798
18   0.142105

>  <lowdin_charges>
18
1   -0.278383
2   -0.269995
3   -0.291998
4   -0.312312
5   -0.129114
6   0.189696
7   -0.244159
8   -0.193976
9   0.151347
10   0.138401
11   0.151999
12   0.149217
13   0.153697
14   0.154871
15   0.15597
16   0.175982
17   0.159878
18   0.13888

$$$$

