PCCDB-ID:  47805
public computational chemistry database (PCCDB) project, http://pccdb.org

 27 27  0  0  1  0  0  0  0  0999 V2000
    2.9653    0.0511    1.9826 C   0  0  0  0  0  0  0  0  0  0  0  0
    0.9729   -0.3862    0.5208 C   0  0  0  0  0  0  0  0  0  0  0  0
    2.7895    1.1735   -0.2550 C   0  0  0  0  0  0  0  0  0  0  0  0
    3.1720   -2.7340    0.3986 C   0  0  0  0  0  0  0  0  0  0  0  0
    4.7494   -1.3861   -0.2689 C   0  0  0  0  0  0  0  0  0  0  0  0
    4.6404   -2.9215   -0.1182 C   0  0  2  0  0  0  0  0  0  0  0  0
    3.1962   -1.2935   -0.1928 C   0  0  2  0  0  0  0  0  0  0  0  0
    4.7040   -3.6752   -1.4364 C   0  0  0  0  0  0  0  0  0  0  0  0
    2.4922   -0.1225    0.5262 C   0  0  0  0  0  0  0  0  0  0  0  0
    4.8963   -3.1817   -2.5197 O   0  0  0  0  0  0  0  0  0  0  0  0
    4.4949   -5.0202   -1.3329 O   0  0  0  0  0  0  0  0  0  0  0  0
    2.4406    0.8917    2.4519 H   0  0  0  0  0  0  0  0  0  0  0  0
    4.0388    0.2633    2.0434 H   0  0  0  0  0  0  0  0  0  0  0  0
    2.7614   -0.8382    2.5904 H   0  0  0  0  0  0  0  0  0  0  0  0
    0.4294    0.4411    0.9932 H   0  0  0  0  0  0  0  0  0  0  0  0
    0.7233   -1.3029    1.0692 H   0  0  0  0  0  0  0  0  0  0  0  0
    0.5926   -0.4945   -0.5024 H   0  0  0  0  0  0  0  0  0  0  0  0
    2.2812    2.0317    0.2011 H   0  0  0  0  0  0  0  0  0  0  0  0
    2.4493    1.0968   -1.2949 H   0  0  0  0  0  0  0  0  0  0  0  0
    3.8639    1.3925   -0.2701 H   0  0  0  0  0  0  0  0  0  0  0  0
    3.1386   -2.7473    1.4922 H   0  0  0  0  0  0  0  0  0  0  0  0
    2.4117   -3.4246    0.0177 H   0  0  0  0  0  0  0  0  0  0  0  0
    5.2267   -1.0363   -1.1867 H   0  0  0  0  0  0  0  0  0  0  0  0
    5.2459   -0.9381    0.5969 H   0  0  0  0  0  0  0  0  0  0  0  0
    5.3316   -3.3939    0.5921 H   0  0  0  0  0  0  0  0  0  0  0  0
    2.8051   -1.3378   -1.2173 H   0  0  0  0  0  0  0  0  0  0  0  0
    4.3382   -5.2555   -0.4031 H   0  0  0  0  0  0  0  0  0  0  0  0
  1 13  1  0  0  0  0
  1 12  1  0  0  0  0
  1 14  1  0  0  0  0
  2  9  1  0  0  0  0
  2 15  1  0  0  0  0
  2 16  1  0  0  0  0
  3 18  1  0  0  0  0
  3  9  1  0  0  0  0
  4 21  1  0  0  0  0
  5  7  1  0  0  0  0
  5  6  1  0  0  0  0
  5 24  1  0  0  0  0
  6  4  1  0  0  0  0
  6 25  1  1  0  0  0
  7 26  1  6  0  0  0
  7  4  1  0  0  0  0
  7  9  1  0  0  0  0
  8 11  1  0  0  0  0
  8  6  1  0  0  0  0
  9  1  1  0  0  0  0
 10  8  2  0  0  0  0
 11 27  1  0  0  0  0
 17  2  1  0  0  0  0
 19  3  1  0  0  0  0
 20  3  1  0  0  0  0
 22  4  1  0  0  0  0
 23  5  1  0  0  0  0
M  END
>  <HBA>
2

>  <HBD>
1

>  <TPSA>
37.3

>  <cid>
47805

>  <dipole>
4.18

>  <excitation_energy_1>
5.613

>  <excitation_energy_2>
6.373

>  <excitation_energy_3>
6.926

>  <excitation_energy_4>
7.075

>  <homo_energy>
-7.257

>  <homo_lumo_gap>
7.508

>  <logP>
2.143

>  <lumo_energy>
0.25

>  <melting_point>
89.87

>  <molecular_refractivity>
44.77

>  <oscillator_strength_1>
0.0016

>  <oscillator_strength_2>
0.0094

>  <oscillator_strength_3>
0.0083

>  <oscillator_strength_4>
0.006

>  <open_babel_can_smiles>
OC(=O)[C@@H]1C[C@H](C1)C(C)(C)C

>  <mulliken_charges>
27
1   -0.457215
2   -0.446837
3   -0.446736
4   -0.304216
5   -0.280669
6   -0.252366
7   -0.07051
8   0.601808
9   0.09062
10   -0.439942
11   -0.570512
12   0.143263
13   0.141724
14   0.137275
15   0.140579
16   0.139894
17   0.141406
18   0.139189
19   0.142914
20   0.145502
21   0.146813
22   0.149316
23   0.173135
24   0.137051
25   0.148019
26   0.141186
27   0.409309

>  <lowdin_charges>
27
1   -0.446819
2   -0.442884
3   -0.439459
4   -0.290166
5   -0.285927
6   -0.178601
7   -0.124075
8   0.195943
9   0.012362
10   -0.23975
11   -0.361008
12   0.151886
13   0.145343
14   0.145088
15   0.149469
16   0.147119
17   0.147605
18   0.148556
19   0.148132
20   0.148235
21   0.14859
22   0.1474
23   0.163629
24   0.149552
25   0.153302
26   0.150191
27   0.356286

$$$$

