PCCDB-ID:  14296
public computational chemistry database (PCCDB) project, http://pccdb.org

 22 22  0  0  0  0  0  0  0  0999 V2000
    0.9848    0.0653    0.0658 C   0  0  0  0  0  0  0  0  0  0  0  0
    2.6188   -2.6292    0.0655 C   0  0  0  0  0  0  0  0  0  0  0  0
    5.0806    2.5491    0.0678 C   0  0  0  0  0  0  0  0  0  0  0  0
    6.7146   -0.1455    0.0761 C   0  0  0  0  0  0  0  0  0  0  0  0
    2.4927   -0.0384    0.0645 C   0  0  0  0  0  0  0  0  0  0  0  0
    3.2241   -1.2442    0.0655 C   0  0  0  0  0  0  0  0  0  0  0  0
    4.4754    1.1641    0.0673 C   0  0  0  0  0  0  0  0  0  0  0  0
    5.2067   -0.0417    0.0700 C   0  0  0  0  0  0  0  0  0  0  0  0
    3.1366    1.1356    0.0646 N   0  0  0  0  0  0  0  0  0  0  0  0
    4.5628   -1.2157    0.0683 N   0  0  0  0  0  0  0  0  0  0  0  0
    0.4814   -0.9020    0.0323 H   0  0  0  0  0  0  0  0  0  0  0  0
    0.6528    0.6570   -0.7945 H   0  0  0  0  0  0  0  0  0  0  0  0
    0.6484    0.5958    0.9640 H   0  0  0  0  0  0  0  0  0  0  0  0
    1.5284   -2.6273    0.0322 H   0  0  0  0  0  0  0  0  0  0  0  0
    2.9338   -3.1740    0.9628 H   0  0  0  0  0  0  0  0  0  0  0  0
    2.9894   -3.1961   -0.7957 H   0  0  0  0  0  0  0  0  0  0  0  0
    6.1713    2.5472    0.0534 H   0  0  0  0  0  0  0  0  0  0  0  0
    4.7495    3.1001    0.9555 H   0  0  0  0  0  0  0  0  0  0  0  0
    4.7253    3.1101   -0.8039 H   0  0  0  0  0  0  0  0  0  0  0  0
    7.2181    0.8221    0.0597 H   0  0  0  0  0  0  0  0  0  0  0  0
    7.0507   -0.7235   -0.7920 H   0  0  0  0  0  0  0  0  0  0  0  0
    7.0467   -0.6903    0.9672 H   0  0  0  0  0  0  0  0  0  0  0  0
  1 13  1  0  0  0  0
  2  6  1  0  0  0  0
  2 15  1  0  0  0  0
  3 18  1  0  0  0  0
  4 22  1  0  0  0  0
  5  9  2  0  0  0  0
  5  6  1  0  0  0  0
  5  1  1  0  0  0  0
  6 10  2  0  0  0  0
  7  3  1  0  0  0  0
  7  8  2  0  0  0  0
  8  4  1  0  0  0  0
  9  7  1  0  0  0  0
 10  8  1  0  0  0  0
 11  1  1  0  0  0  0
 12  1  1  0  0  0  0
 14  2  1  0  0  0  0
 16  2  1  0  0  0  0
 17  3  1  0  0  0  0
 19  3  1  0  0  0  0
 20  4  1  0  0  0  0
 21  4  1  0  0  0  0
M  END
>  <HBA>
2

>  <HBD>
0

>  <TPSA>
25.78

>  <cid>
14296

>  <dipole>
0.02

>  <excitation_energy_1>
3.987

>  <excitation_energy_2>
4.791

>  <excitation_energy_3>
4.962

>  <excitation_energy_4>
5.314

>  <homo_energy>
-6.297

>  <homo_lumo_gap>
5.298

>  <logP>
1.71

>  <lumo_energy>
-0.999

>  <melting_point>
52.68

>  <molecular_refractivity>
41.9

>  <oscillator_strength_1>
0.0054

>  <oscillator_strength_2>
0.171

>  <oscillator_strength_3>
0.0

>  <oscillator_strength_4>
0.0

>  <open_babel_can_smiles>
Cc1nc(C)c(nc1C)C

>  <mulliken_charges>
22
1   -0.508643
2   -0.508591
3   -0.508544
4   -0.508654
5   0.257544
6   0.257331
7   0.257294
8   0.257559
9   -0.489132
10   -0.489126
11   0.15231
12   0.171926
13   0.17153
14   0.152304
15   0.171521
16   0.1719
17   0.152294
18   0.171604
19   0.171815
20   0.152301
21   0.171836
22   0.17162

>  <lowdin_charges>
22
1   -0.449135
2   -0.446621
3   -0.446611
4   -0.449135
5   0.027238
6   0.025346
7   0.025337
8   0.027233
9   -0.142427
10   -0.142427
11   0.154696
12   0.169768
13   0.169229
14   0.152939
15   0.169204
16   0.169771
17   0.152925
18   0.169348
19   0.169632
20   0.154684
21   0.169657
22   0.169348

$$$$

