PCCDB-ID:  21492
public computational chemistry database (PCCDB) project, http://pccdb.org

 14 13  0  0  0  0  0  0  0  0999 V2000
    1.7080   -0.1350    0.0016 C   0  0  0  0  0  0  0  0  0  0  0  0
    0.6437   -0.3418    1.0846 C   0  0  0  0  0  0  0  0  0  0  0  0
   -1.2052    0.9759    0.3124 C   0  0  0  0  0  0  0  0  0  0  0  0
   -0.4872    2.0295    0.2102 N   0  0  0  0  0  0  0  0  0  0  0  0
    2.1705    1.1881   -0.1162 O   0  0  0  0  0  0  0  0  0  0  0  0
   -2.5419    0.8490    0.1336 O   0  0  0  0  0  0  0  0  0  0  0  0
   -0.7280   -0.2244    0.6233 O   0  0  0  0  0  0  0  0  0  0  0  0
    1.3126   -0.5392   -0.9477 H   0  0  0  0  0  0  0  0  0  0  0  0
    2.5776   -0.7477    0.2709 H   0  0  0  0  0  0  0  0  0  0  0  0
    0.8071    0.3609    1.9081 H   0  0  0  0  0  0  0  0  0  0  0  0
    0.6740   -1.3660    1.4638 H   0  0  0  0  0  0  0  0  0  0  0  0
   -1.0275    2.8652   -0.0048 H   0  0  0  0  0  0  0  0  0  0  0  0
    1.3654    1.7495   -0.1246 H   0  0  0  0  0  0  0  0  0  0  0  0
   -2.8978    1.6952   -0.1786 H   0  0  0  0  0  0  0  0  0  0  0  0
  1  9  1  0  0  0  0
  1  2  1  0  0  0  0
  2 11  1  0  0  0  0
  2 10  1  0  0  0  0
  3  7  1  0  0  0  0
  4  3  2  0  0  0  0
  5  1  1  0  0  0  0
  6  3  1  0  0  0  0
  7  2  1  0  0  0  0
  8  1  1  0  0  0  0
 12  4  1  0  0  0  0
 13  5  1  0  0  0  0
 14  6  1  0  0  0  0
M  END
>  <HBA>
4

>  <HBD>
2

>  <TPSA>
72.55

>  <cid>
21492

>  <dipole>
3.0

>  <excitation_energy_1>
5.782

>  <excitation_energy_2>
6.089

>  <excitation_energy_3>
6.562

>  <excitation_energy_4>
6.619

>  <homo_energy>
-6.67

>  <homo_lumo_gap>
7.527

>  <logP>
-0.226

>  <lumo_energy>
0.857

>  <melting_point>
71.07

>  <molecular_refractivity>
22.08

>  <oscillator_strength_1>
0.0032

>  <oscillator_strength_2>
0.0041

>  <oscillator_strength_3>
0.009

>  <oscillator_strength_4>
0.0281

>  <open_babel_can_smiles>
OCCOC(=N)O

>  <mulliken_charges>
14
1   -0.030594
2   -0.073195
3   0.681657
4   -0.668989
5   -0.644285
6   -0.55992
7   -0.437669
8   0.12645
9   0.142263
10   0.173192
11   0.159816
12   0.288942
13   0.428889
14   0.413442

>  <lowdin_charges>
14
1   -0.146088
2   -0.139654
3   0.20303
4   -0.47582
5   -0.488718
6   -0.352312
7   -0.172542
8   0.130558
9   0.150414
10   0.160927
11   0.160299
12   0.264397
13   0.340738
14   0.364771

$$$$

