PCCDB-ID:  36225
public computational chemistry database (PCCDB) project, http://pccdb.org

 25 25  0  0  0  0  0  0  0  0999 V2000
    3.1399   -0.6205   -1.1889 C   0  0  0  0  0  0  0  0  0  0  0  0
    3.9898    5.7335    2.5755 C   0  0  0  0  0  0  0  0  0  0  0  0
    5.8490    2.4909    2.1171 C   0  0  0  0  0  0  0  0  0  0  0  0
    2.2666    0.1657   -0.1970 C   0  0  0  0  0  0  0  0  0  0  0  0
    4.6290    5.1663    1.2946 C   0  0  0  0  0  0  0  0  0  0  0  0
    2.3491    2.7151   -0.1717 C   0  0  0  0  0  0  0  0  0  0  0  0
    4.5890    2.5924    1.2917 C   0  0  0  0  0  0  0  0  0  0  0  0
    2.8878    1.4823    0.2046 C   0  0  0  0  0  0  0  0  0  0  0  0
    4.0356    3.8331    0.8982 C   0  0  0  0  0  0  0  0  0  0  0  0
    2.9141    3.8770    0.1672 N   0  0  0  0  0  0  0  0  0  0  0  0
    4.0123    1.4375    0.9374 N   0  0  0  0  0  0  0  0  0  0  0  0
    2.6841   -1.5881   -1.4264 H   0  0  0  0  0  0  0  0  0  0  0  0
    4.1308   -0.8005   -0.7606 H   0  0  0  0  0  0  0  0  0  0  0  0
    3.2703   -0.0668   -2.1257 H   0  0  0  0  0  0  0  0  0  0  0  0
    4.4132    6.7141    2.8195 H   0  0  0  0  0  0  0  0  0  0  0  0
    4.1533    5.0721    3.4344 H   0  0  0  0  0  0  0  0  0  0  0  0
    2.9093    5.8497    2.4414 H   0  0  0  0  0  0  0  0  0  0  0  0
    5.7655    3.0428    3.0608 H   0  0  0  0  0  0  0  0  0  0  0  0
    6.7160    2.8978    1.5814 H   0  0  0  0  0  0  0  0  0  0  0  0
    6.0437    1.4399    2.3413 H   0  0  0  0  0  0  0  0  0  0  0  0
    2.1185   -0.4383    0.7070 H   0  0  0  0  0  0  0  0  0  0  0  0
    1.2751    0.3465   -0.6296 H   0  0  0  0  0  0  0  0  0  0  0  0
    5.7130    5.0799    1.4288 H   0  0  0  0  0  0  0  0  0  0  0  0
    4.4564    5.8649    0.4690 H   0  0  0  0  0  0  0  0  0  0  0  0
    1.4376    2.7685   -0.7654 H   0  0  0  0  0  0  0  0  0  0  0  0
  1 13  1  0  0  0  0
  1  4  1  0  0  0  0
  2 15  1  0  0  0  0
  2 16  1  0  0  0  0
  3 20  1  0  0  0  0
  3 18  1  0  0  0  0
  4  8  1  0  0  0  0
  4 21  1  0  0  0  0
  5 23  1  0  0  0  0
  5  2  1  0  0  0  0
  6 10  2  0  0  0  0
  6  8  1  0  0  0  0
  7  3  1  0  0  0  0
  8 11  2  0  0  0  0
  9  7  2  0  0  0  0
  9  5  1  0  0  0  0
 10  9  1  0  0  0  0
 11  7  1  0  0  0  0
 12  1  1  0  0  0  0
 14  1  1  0  0  0  0
 17  2  1  0  0  0  0
 19  3  1  0  0  0  0
 22  4  1  0  0  0  0
 24  5  1  0  0  0  0
 25  6  1  0  0  0  0
M  END
>  <HBA>
2

>  <HBD>
0

>  <TPSA>
25.78

>  <cid>
36225

>  <dipole>
0.55

>  <excitation_energy_1>
4.055

>  <excitation_energy_2>
4.762

>  <excitation_energy_3>
4.972

>  <excitation_energy_4>
5.536

>  <homo_energy>
-6.411

>  <homo_lumo_gap>
5.407

>  <logP>
1.91

>  <lumo_energy>
-1.004

>  <melting_point>
46.51

>  <molecular_refractivity>
46.54

>  <oscillator_strength_1>
0.0053

>  <oscillator_strength_2>
0.0003

>  <oscillator_strength_3>
0.171

>  <oscillator_strength_4>
0.0001

>  <open_babel_can_smiles>
CCc1cnc(c(n1)C)CC

>  <mulliken_charges>
25
1   -0.441753
2   -0.445537
3   -0.529347
4   -0.318589
5   -0.313915
6   -0.016454
7   0.275631
8   0.302161
9   0.258003
10   -0.436776
11   -0.494238
12   0.144808
13   0.167638
14   0.145217
15   0.147877
16   0.145422
17   0.164708
18   0.163799
19   0.165376
20   0.177314
21   0.158606
22   0.140482
23   0.13974
24   0.161809
25   0.138018

>  <lowdin_charges>
25
1   -0.439651
2   -0.437965
3   -0.450405
4   -0.273167
5   -0.276036
6   -0.124404
7   0.034794
8   0.030817
9   0.023182
10   -0.129592
11   -0.142565
12   0.150651
13   0.159082
14   0.148895
15   0.151751
16   0.147572
17   0.156298
18   0.16191
19   0.163831
20   0.170569
21   0.160094
22   0.14719
23   0.147134
24   0.163135
25   0.15688

$$$$

