PCCDB-ID:  16070
public computational chemistry database (PCCDB) project, http://pccdb.org

 27 26  0  0  0  0  0  0  0  0999 V2000
    0.9457   -0.2009    0.4213 C   0  0  0  0  0  0  0  0  0  0  0  0
   -2.5999   -1.6034   -0.9028 C   0  0  0  0  0  0  0  0  0  0  0  0
    0.5134   -1.5159    1.0825 C   0  0  0  0  0  0  0  0  0  0  0  0
   -1.3251   -2.2804   -0.3843 C   0  0  0  0  0  0  0  0  0  0  0  0
   -1.5580   -2.4300    2.0580 C   0  0  0  0  0  0  0  0  0  0  0  0
   -1.0685   -3.8497    2.4047 C   0  0  0  0  0  0  0  0  0  0  0  0
    2.3849    0.0085    0.6159 N   0  0  0  0  0  0  0  0  0  0  0  0
   -2.9963   -2.1940   -2.1860 N   0  0  0  0  0  0  0  0  0  0  0  0
   -0.9187   -1.7667    0.9266 N   0  0  0  0  0  0  0  0  0  0  0  0
   -1.8249   -4.4140    3.4720 O   0  0  0  0  0  0  0  0  0  0  0  0
    0.3013    0.6070    0.8087 H   0  0  0  0  0  0  0  0  0  0  0  0
    0.7640   -0.2577   -0.6592 H   0  0  0  0  0  0  0  0  0  0  0  0
   -2.4285   -0.5130   -0.9275 H   0  0  0  0  0  0  0  0  0  0  0  0
   -3.4167   -1.7754   -0.1913 H   0  0  0  0  0  0  0  0  0  0  0  0
    0.7278   -1.4443    2.1575 H   0  0  0  0  0  0  0  0  0  0  0  0
    1.1479   -2.3300    0.6923 H   0  0  0  0  0  0  0  0  0  0  0  0
   -0.5137   -2.0907   -1.0980 H   0  0  0  0  0  0  0  0  0  0  0  0
   -1.4838   -3.3705   -0.3881 H   0  0  0  0  0  0  0  0  0  0  0  0
   -1.4310   -1.7923    2.9469 H   0  0  0  0  0  0  0  0  0  0  0  0
   -2.6372   -2.4857    1.8738 H   0  0  0  0  0  0  0  0  0  0  0  0
    0.0078   -3.8422    2.6392 H   0  0  0  0  0  0  0  0  0  0  0  0
   -1.2111   -4.5254    1.5561 H   0  0  0  0  0  0  0  0  0  0  0  0
    2.5693    0.2293    1.5941 H   0  0  0  0  0  0  0  0  0  0  0  0
    2.6910    0.8220    0.0854 H   0  0  0  0  0  0  0  0  0  0  0  0
   -2.3383   -1.9126   -2.9122 H   0  0  0  0  0  0  0  0  0  0  0  0
   -3.9017   -1.8265   -2.4721 H   0  0  0  0  0  0  0  0  0  0  0  0
   -1.6816   -3.8594    4.2549 H   0  0  0  0  0  0  0  0  0  0  0  0
  1  7  1  0  0  0  0
  1 11  1  0  0  0  0
  1  3  1  0  0  0  0
  2  4  1  0  0  0  0
  2 14  1  0  0  0  0
  3 15  1  0  0  0  0
  4  9  1  0  0  0  0
  5  6  1  0  0  0  0
  5 19  1  0  0  0  0
  6 21  1  0  0  0  0
  6 10  1  0  0  0  0
  7 23  1  0  0  0  0
  8  2  1  0  0  0  0
  9  3  1  0  0  0  0
  9  5  1  0  0  0  0
 10 27  1  0  0  0  0
 12  1  1  0  0  0  0
 13  2  1  0  0  0  0
 16  3  1  0  0  0  0
 17  4  1  0  0  0  0
 18  4  1  0  0  0  0
 20  5  1  0  0  0  0
 22  6  1  0  0  0  0
 24  7  1  0  0  0  0
 25  8  1  0  0  0  0
 26  8  1  0  0  0  0
M  END
>  <HBA>
4

>  <HBD>
3

>  <TPSA>
75.51

>  <cid>
16070

>  <dipole>
3.47

>  <excitation_energy_1>
4.767

>  <excitation_energy_2>
5.033

>  <excitation_energy_3>
5.148

>  <excitation_energy_4>
5.374

>  <homo_energy>
-5.393

>  <homo_lumo_gap>
7.317

>  <logP>
-0.401

>  <lumo_energy>
1.924

>  <melting_point>
103.19

>  <molecular_refractivity>
40.43

>  <oscillator_strength_1>
0.0055

>  <oscillator_strength_2>
0.0026

>  <oscillator_strength_3>
0.0022

>  <oscillator_strength_4>
0.0174

>  <open_babel_can_smiles>
NCCN(CCO)CCN

>  <mulliken_charges>
27
1   -0.136553
2   -0.133723
3   -0.120063
4   -0.129333
5   -0.168192
6   -0.041364
7   -0.719828
8   -0.719789
9   -0.387101
10   -0.613315
11   0.121461
12   0.136569
13   0.118824
14   0.141284
15   0.122964
16   0.137179
17   0.131816
18   0.142585
19   0.121074
20   0.152665
21   0.123631
22   0.154123
23   0.291943
24   0.297956
25   0.291559
26   0.297927
27   0.385701

>  <lowdin_charges>
27
1   -0.212637
2   -0.21045
3   -0.203512
4   -0.204051
5   -0.222366
6   -0.152437
7   -0.55844
8   -0.561566
9   -0.186895
10   -0.466354
11   0.123255
12   0.13788
13   0.117898
14   0.142932
15   0.135963
16   0.133287
17   0.142689
18   0.134107
19   0.133527
20   0.147721
21   0.124679
22   0.149808
23   0.249606
24   0.256626
25   0.251987
26   0.256455
27   0.34029

$$$$

