PCCDB-ID:  34143
public computational chemistry database (PCCDB) project, http://pccdb.org

 30 31  0  0  0  0  0  0  0  0999 V2000
    0.9210   -0.4599    0.0158 C   0  0  0  0  0  0  0  0  0  0  0  0
    9.2884    0.5713    0.1531 C   0  0  0  0  0  0  0  0  0  0  0  0
    6.8622   -0.8841    0.1002 C   0  0  0  0  0  0  0  0  0  0  0  0
    5.6438   -1.5700    0.0727 C   0  0  0  0  0  0  0  0  0  0  0  0
    2.5673    2.3995    0.1150 C   0  0  0  0  0  0  0  0  0  0  0  0
    2.6164    3.0391    1.5136 C   0  0  0  0  0  0  0  0  0  0  0  0
    5.7120    1.2734    0.1257 C   0  0  0  0  0  0  0  0  0  0  0  0
    2.3800   -0.1676    0.0477 C   0  0  0  0  0  0  0  0  0  0  0  0
    6.8939    0.5249    0.1256 C   0  0  0  0  0  0  0  0  0  0  0  0
    3.0954    0.9941    0.0814 C   0  0  0  0  0  0  0  0  0  0  0  0
    4.4901    0.5954    0.0994 C   0  0  0  0  0  0  0  0  0  0  0  0
    4.4866   -0.8107    0.0728 C   0  0  0  0  0  0  0  0  0  0  0  0
    2.0760    4.4025    1.4622 N   0  0  0  0  0  0  0  0  0  0  0  0
    8.0519    1.2606    0.1523 O   0  0  0  0  0  0  0  0  0  0  0  0
    3.1983   -1.2807    0.0417 O   0  0  0  0  0  0  0  0  0  0  0  0
    0.3445    0.4663   -0.0466 H   0  0  0  0  0  0  0  0  0  0  0  0
    0.6044   -1.0006    0.9168 H   0  0  0  0  0  0  0  0  0  0  0  0
    0.6653   -1.0873   -0.8467 H   0  0  0  0  0  0  0  0  0  0  0  0
   10.0615    1.3423    0.1765 H   0  0  0  0  0  0  0  0  0  0  0  0
    9.4160   -0.0386   -0.7518 H   0  0  0  0  0  0  0  0  0  0  0  0
    9.3958   -0.0727    1.0368 H   0  0  0  0  0  0  0  0  0  0  0  0
    7.7831   -1.4548    0.1008 H   0  0  0  0  0  0  0  0  0  0  0  0
    5.6094   -2.6545    0.0516 H   0  0  0  0  0  0  0  0  0  0  0  0
    3.1523    3.0224   -0.5781 H   0  0  0  0  0  0  0  0  0  0  0  0
    1.5319    2.4382   -0.2404 H   0  0  0  0  0  0  0  0  0  0  0  0
    3.6460    2.9728    1.9074 H   0  0  0  0  0  0  0  0  0  0  0  0
    1.9846    2.4530    2.1919 H   0  0  0  0  0  0  0  0  0  0  0  0
    5.7770    2.3567    0.1456 H   0  0  0  0  0  0  0  0  0  0  0  0
    2.7146    5.0026    0.9403 H   0  0  0  0  0  0  0  0  0  0  0  0
    2.0355    4.7917    2.4029 H   0  0  0  0  0  0  0  0  0  0  0  0
  1  8  1  0  0  0  0
  1 17  1  0  0  0  0
  2 19  1  0  0  0  0
  2 21  1  0  0  0  0
  3 22  1  0  0  0  0
  3  9  2  0  0  0  0
  4 12  2  0  0  0  0
  4  3  1  0  0  0  0
  5  6  1  0  0  0  0
  6 26  1  0  0  0  0
  6 27  1  0  0  0  0
  7 28  1  0  0  0  0
  8 10  2  0  0  0  0
  9  7  1  0  0  0  0
  9 14  1  0  0  0  0
 10 11  1  0  0  0  0
 10  5  1  0  0  0  0
 11  7  2  0  0  0  0
 12 11  1  0  0  0  0
 13  6  1  0  0  0  0
 13 30  1  0  0  0  0
 14  2  1  0  0  0  0
 15  8  1  0  0  0  0
 15 12  1  0  0  0  0
 16  1  1  0  0  0  0
 18  1  1  0  0  0  0
 20  2  1  0  0  0  0
 23  4  1  0  0  0  0
 24  5  1  0  0  0  0
 25  5  1  0  0  0  0
 29 13  1  0  0  0  0
M  END
>  <HBA>
3

>  <HBD>
1

>  <TPSA>
48.39

>  <cid>
34143

>  <dipole>
1.34

>  <excitation_energy_1>
4.538

>  <excitation_energy_2>
4.811

>  <excitation_energy_3>
5.173

>  <excitation_energy_4>
5.222

>  <homo_energy>
-5.529

>  <homo_lumo_gap>
5.227

>  <logP>
2.951

>  <lumo_energy>
-0.302

>  <melting_point>
116.25

>  <molecular_refractivity>
60.15

>  <oscillator_strength_1>
0.0708

>  <oscillator_strength_2>
0.157

>  <oscillator_strength_3>
0.0033

>  <oscillator_strength_4>
0.0025

>  <open_babel_can_smiles>
NCCc1c(C)oc2c1cc(OC)cc2

>  <mulliken_charges>
30
1   -0.537051
2   -0.211301
3   -0.213383
4   -0.200638
5   -0.339998
6   -0.133367
7   -0.275125
8   0.285446
9   0.377622
10   0.04972
11   0.102739
12   0.316262
13   -0.716377
14   -0.515141
15   -0.52394
16   0.171256
17   0.173345
18   0.173608
19   0.166092
20   0.148688
21   0.148277
22   0.129479
23   0.140852
24   0.140272
25   0.155407
26   0.126217
27   0.141502
28   0.130183
29   0.292443
30   0.29691

>  <lowdin_charges>
30
1   -0.444268
2   -0.279097
3   -0.216576
4   -0.166645
5   -0.27232
6   -0.203857
7   -0.194807
8   0.081339
9   0.09545
10   -0.070075
11   -0.025392
12   0.07003
13   -0.561323
14   -0.207756
15   -0.131129
16   0.169767
17   0.169024
18   0.169634
19   0.161539
20   0.143118
21   0.142977
22   0.163193
23   0.165583
24   0.149094
25   0.155791
26   0.122191
27   0.144769
28   0.162197
29   0.252719
30   0.25483

$$$$

