PCCDB-ID:  70
public computational chemistry database (PCCDB) project, http://pccdb.org

 19 18  0  0  0  0  0  0  0  0999 V2000
    1.0336    0.0606    0.5158 C   0  0  0  0  0  0  0  0  0  0  0  0
    2.4126   -0.5307   -1.5243 C   0  0  0  0  0  0  0  0  0  0  0  0
    3.1446    1.3458    0.0251 C   0  0  0  0  0  0  0  0  0  0  0  0
    2.4483   -0.0199   -0.0758 C   0  0  0  0  0  0  0  0  0  0  0  0
    4.6378    1.3113   -0.2138 C   0  0  0  0  0  0  0  0  0  0  0  0
    5.3160    2.7035   -0.2645 C   0  0  0  0  0  0  0  0  0  0  0  0
    5.3038    0.3075   -0.3395 O   0  0  0  0  0  0  0  0  0  0  0  0
    6.6441    2.6154   -0.4395 O   0  0  0  0  0  0  0  0  0  0  0  0
    4.7077    3.7459   -0.1562 O   0  0  0  0  0  0  0  0  0  0  0  0
    0.5338   -0.9134    0.4633 H   0  0  0  0  0  0  0  0  0  0  0  0
    0.4146    0.7809   -0.0347 H   0  0  0  0  0  0  0  0  0  0  0  0
    1.0530    0.3719    1.5672 H   0  0  0  0  0  0  0  0  0  0  0  0
    1.9291   -1.5129   -1.5762 H   0  0  0  0  0  0  0  0  0  0  0  0
    3.4205   -0.6323   -1.9372 H   0  0  0  0  0  0  0  0  0  0  0  0
    1.8428    0.1536   -2.1671 H   0  0  0  0  0  0  0  0  0  0  0  0
    3.0003    1.7901    1.0225 H   0  0  0  0  0  0  0  0  0  0  0  0
    2.6994    2.0782   -0.6627 H   0  0  0  0  0  0  0  0  0  0  0  0
    3.0335   -0.7338    0.5186 H   0  0  0  0  0  0  0  0  0  0  0  0
    6.9797    3.5320   -0.4586 H   0  0  0  0  0  0  0  0  0  0  0  0
  1 12  1  0  0  0  0
  2  4  1  0  0  0  0
  3 16  1  0  0  0  0
  4  3  1  0  0  0  0
  4  1  1  0  0  0  0
  4 18  1  0  0  0  0
  5  3  1  0  0  0  0
  6  5  1  0  0  0  0
  6  9  2  0  0  0  0
  7  5  2  0  0  0  0
  8  6  1  0  0  0  0
 10  1  1  0  0  0  0
 11  1  1  0  0  0  0
 13  2  1  0  0  0  0
 14  2  1  0  0  0  0
 15  2  1  0  0  0  0
 17  3  1  0  0  0  0
 19  8  1  0  0  0  0
M  END
>  <HBA>
3

>  <HBD>
1

>  <TPSA>
54.37

>  <cid>
70

>  <dipole>
1.02

>  <excitation_energy_1>
3.25

>  <excitation_energy_2>
5.054

>  <excitation_energy_3>
5.77

>  <excitation_energy_4>
5.929

>  <homo_energy>
-7.026

>  <homo_lumo_gap>
4.893

>  <logP>
0.686

>  <lumo_energy>
-2.133

>  <melting_point>
71.99

>  <molecular_refractivity>
32.93

>  <oscillator_strength_1>
0.0

>  <oscillator_strength_2>
0.0

>  <oscillator_strength_3>
0.0016

>  <oscillator_strength_4>
0.0063

>  <open_babel_can_smiles>
CC(CC(=O)C(=O)O)C

>  <mulliken_charges>
19
1   -0.446871
2   -0.453075
3   -0.351164
4   -0.064481
5   0.398429
6   0.526362
7   -0.415543
8   -0.5382
9   -0.446945
10   0.146681
11   0.141568
12   0.141373
13   0.145173
14   0.163938
15   0.13547
16   0.177078
17   0.17789
18   0.145818
19   0.416498

>  <lowdin_charges>
19
1   -0.443431
2   -0.448589
3   -0.305468
4   -0.11898
5   0.140178
6   0.161334
7   -0.185102
8   -0.320648
9   -0.246428
10   0.151586
11   0.148163
12   0.146669
13   0.151119
14   0.157976
15   0.144755
16   0.175389
17   0.175007
18   0.150348
19   0.366119

$$$$

