PCCDB-ID:  38619
public computational chemistry database (PCCDB) project, http://pccdb.org

 33 34  0  0  1  0  0  0  0  0999 V2000
    3.6167    2.2778    3.2334 C   0  0  0  0  0  0  0  0  0  0  0  0
    7.9132    0.1502   -1.5694 C   0  0  0  0  0  0  0  0  0  0  0  0
    4.1926    2.7398    2.0489 C   0  0  0  0  0  0  0  0  0  0  0  0
    2.7963    1.1483    3.2034 C   0  0  0  0  0  0  0  0  0  0  0  0
    7.6037   -0.5513   -0.4040 C   0  0  0  0  0  0  0  0  0  0  0  0
    6.8919    0.4806   -2.4627 C   0  0  0  0  0  0  0  0  0  0  0  0
    3.9510    2.0767    0.8444 C   0  0  0  0  0  0  0  0  0  0  0  0
    2.5565    0.4910    1.9967 C   0  0  0  0  0  0  0  0  0  0  0  0
    6.2838   -0.9200   -0.1371 C   0  0  0  0  0  0  0  0  0  0  0  0
    5.5748    0.1115   -2.1897 C   0  0  0  0  0  0  0  0  0  0  0  0
    2.8681    0.1986   -0.4928 C   0  0  0  0  0  0  0  0  0  0  0  0
    3.2587   -1.9279   -1.8461 C   0  0  0  0  0  0  0  0  0  0  0  0
    3.1299    0.9418    0.7985 C   0  0  0  0  0  0  0  0  0  0  0  0
    5.2477   -0.5974   -1.0226 C   0  0  0  0  0  0  0  0  0  0  0  0
    3.8138   -1.0120   -0.7316 C   0  0  1  0  0  0  0  0  0  0  0  0
    1.9663   -2.5027   -1.4541 N   0  0  0  0  0  0  0  0  0  0  0  0
    3.8014    2.7955    4.1711 H   0  0  0  0  0  0  0  0  0  0  0  0
    8.9395    0.4390   -1.7798 H   0  0  0  0  0  0  0  0  0  0  0  0
    4.8306    3.6200    2.0609 H   0  0  0  0  0  0  0  0  0  0  0  0
    2.3360    0.7838    4.1185 H   0  0  0  0  0  0  0  0  0  0  0  0
    8.3893   -0.8102    0.3012 H   0  0  0  0  0  0  0  0  0  0  0  0
    7.1214    1.0277   -3.3737 H   0  0  0  0  0  0  0  0  0  0  0  0
    4.4067    2.4420   -0.0726 H   0  0  0  0  0  0  0  0  0  0  0  0
    1.9067   -0.3820    1.9780 H   0  0  0  0  0  0  0  0  0  0  0  0
    6.0507   -1.4629    0.7760 H   0  0  0  0  0  0  0  0  0  0  0  0
    4.7919    0.3788   -2.8955 H   0  0  0  0  0  0  0  0  0  0  0  0
    2.9550    0.8839   -1.3455 H   0  0  0  0  0  0  0  0  0  0  0  0
    1.8451   -0.1918   -0.4962 H   0  0  0  0  0  0  0  0  0  0  0  0
    4.0251   -2.6817   -2.0955 H   0  0  0  0  0  0  0  0  0  0  0  0
    3.0941   -1.3368   -2.7559 H   0  0  0  0  0  0  0  0  0  0  0  0
    3.8225   -1.6060    0.1939 H   0  0  0  0  0  0  0  0  0  0  0  0
    2.1099   -3.2107   -0.7345 H   0  0  0  0  0  0  0  0  0  0  0  0
    1.5493   -2.9882   -2.2462 H   0  0  0  0  0  0  0  0  0  0  0  0
  1 17  1  0  0  0  0
  2  5  2  0  0  0  0
  3 19  1  0  0  0  0
  3  1  2  0  0  0  0
  4  1  1  0  0  0  0
  4 20  1  0  0  0  0
  5  9  1  0  0  0  0
  5 21  1  0  0  0  0
  6 10  2  0  0  0  0
  6  2  1  0  0  0  0
  7  3  1  0  0  0  0
  8  4  2  0  0  0  0
  9 25  1  0  0  0  0
 10 14  1  0  0  0  0
 11 13  1  0  0  0  0
 12 16  1  0  0  0  0
 12 15  1  0  0  0  0
 13  7  2  0  0  0  0
 13  8  1  0  0  0  0
 14 15  1  0  0  0  0
 14  9  2  0  0  0  0
 15 11  1  0  0  0  0
 15 31  1  1  0  0  0
 16 32  1  0  0  0  0
 18  2  1  0  0  0  0
 22  6  1  0  0  0  0
 23  7  1  0  0  0  0
 24  8  1  0  0  0  0
 26 10  1  0  0  0  0
 27 11  1  0  0  0  0
 28 11  1  0  0  0  0
 29 12  1  0  0  0  0
 30 12  1  0  0  0  0
 33 16  1  0  0  0  0
M  END
>  <HBA>
1

>  <HBD>
1

>  <TPSA>
26.02

>  <cid>
38619

>  <dipole>
1.82

>  <excitation_energy_1>
5.241

>  <excitation_energy_2>
5.267

>  <excitation_energy_3>
5.447

>  <excitation_energy_4>
5.471

>  <homo_energy>
-6.112

>  <homo_lumo_gap>
6.161

>  <logP>
3.672

>  <lumo_energy>
0.049

>  <melting_point>
90.46

>  <molecular_refractivity>
68.22

>  <oscillator_strength_1>
0.0012

>  <oscillator_strength_2>
0.0013

>  <oscillator_strength_3>
0.015

>  <oscillator_strength_4>
0.0027

>  <open_babel_can_smiles>
NC[C@@H](c1ccccc1)Cc1ccccc1

>  <mulliken_charges>
33
1   -0.132304
2   -0.131284
3   -0.129579
4   -0.128528
5   -0.126079
6   -0.131274
7   -0.178248
8   -0.185482
9   -0.188397
10   -0.18854
11   -0.355676
12   -0.142948
13   0.174102
14   0.182266
15   -0.167942
16   -0.718378
17   0.123196
18   0.126666
19   0.12472
20   0.123339
21   0.127719
22   0.126756
23   0.12745
24   0.122127
25   0.126637
26   0.12438
27   0.133775
28   0.176126
29   0.126754
30   0.138288
31   0.12506
32   0.294987
33   0.30031

>  <lowdin_charges>
33
1   -0.164768
2   -0.160659
3   -0.155704
4   -0.159272
5   -0.156143
6   -0.155738
7   -0.165548
8   -0.168706
9   -0.163775
10   -0.17204
11   -0.276254
12   -0.208077
13   -0.00074
14   0.000493
15   -0.125443
16   -0.557901
17   0.154817
18   0.155334
19   0.155177
20   0.154859
21   0.157904
22   0.156027
23   0.157314
24   0.153396
25   0.155809
26   0.154136
27   0.14614
28   0.165979
29   0.128133
30   0.141989
31   0.141162
32   0.253248
33   0.258851

$$$$

