PCCDB-ID:  37289
public computational chemistry database (PCCDB) project, http://pccdb.org

 39 38  0  0  1  0  0  0  0  0999 V2000
    7.2991    4.1702   -1.8608 C   0  0  0  0  0  0  0  0  0  0  0  0
    6.7121    2.8965   -1.2439 C   0  0  0  0  0  0  0  0  0  0  0  0
    7.2336    2.6140    0.1710 C   0  0  0  0  0  0  0  0  0  0  0  0
    6.6539    1.3395    0.7974 C   0  0  0  0  0  0  0  0  0  0  0  0
    7.1849    1.0596    2.2091 C   0  0  0  0  0  0  0  0  0  0  0  0
    7.0359   -2.0821    6.2662 C   0  0  0  0  0  0  0  0  0  0  0  0
    6.4503   -3.3703    6.8559 C   0  0  0  0  0  0  0  0  0  0  0  0
    6.6071   -0.2150    2.8358 C   0  0  0  0  0  0  0  0  0  0  0  0
    6.5309   -1.7815    4.8499 C   0  0  0  0  0  0  0  0  0  0  0  0
    6.9666   -3.6536    8.2818 C   0  0  0  0  0  0  0  0  0  0  0  0
    7.1824   -0.5398    4.2218 C   0  0  1  0  0  0  0  0  0  0  0  0
    6.4633   -4.9728    8.8516 C   0  0  0  0  0  0  0  0  0  0  0  0
    8.6085   -0.6696    4.1816 O   0  0  0  0  0  0  0  0  0  0  0  0
    7.1618   -5.9190    9.1119 O   0  0  0  0  0  0  0  0  0  0  0  0
    5.1140   -5.0528    9.0467 O   0  0  0  0  0  0  0  0  0  0  0  0
    6.9095    4.3432   -2.8705 H   0  0  0  0  0  0  0  0  0  0  0  0
    8.3921    4.1085   -1.9313 H   0  0  0  0  0  0  0  0  0  0  0  0
    7.0573    5.0521   -1.2547 H   0  0  0  0  0  0  0  0  0  0  0  0
    6.9392    2.0377   -1.8915 H   0  0  0  0  0  0  0  0  0  0  0  0
    5.6157    2.9744   -1.2171 H   0  0  0  0  0  0  0  0  0  0  0  0
    7.0059    3.4736    0.8190 H   0  0  0  0  0  0  0  0  0  0  0  0
    8.3309    2.5380    0.1446 H   0  0  0  0  0  0  0  0  0  0  0  0
    6.8801    0.4809    0.1470 H   0  0  0  0  0  0  0  0  0  0  0  0
    5.5565    1.4161    0.8259 H   0  0  0  0  0  0  0  0  0  0  0  0
    6.9566    1.9160    2.8608 H   0  0  0  0  0  0  0  0  0  0  0  0
    8.2789    0.9803    2.1870 H   0  0  0  0  0  0  0  0  0  0  0  0
    8.1301   -2.1492    6.2454 H   0  0  0  0  0  0  0  0  0  0  0  0
    6.7940   -1.2351    6.9252 H   0  0  0  0  0  0  0  0  0  0  0  0
    6.7030   -4.2217    6.2101 H   0  0  0  0  0  0  0  0  0  0  0  0
    5.3517   -3.3049    6.8554 H   0  0  0  0  0  0  0  0  0  0  0  0
    6.7927   -1.0732    2.1687 H   0  0  0  0  0  0  0  0  0  0  0  0
    5.5141   -0.1283    2.9164 H   0  0  0  0  0  0  0  0  0  0  0  0
    5.4400   -1.6456    4.8603 H   0  0  0  0  0  0  0  0  0  0  0  0
    6.7238   -2.6480    4.1971 H   0  0  0  0  0  0  0  0  0  0  0  0
    6.6708   -2.8330    8.9518 H   0  0  0  0  0  0  0  0  0  0  0  0
    8.0584   -3.7016    8.2859 H   0  0  0  0  0  0  0  0  0  0  0  0
    7.0158    0.3199    4.8848 H   0  0  0  0  0  0  0  0  0  0  0  0
    8.8130   -1.3887    3.5606 H   0  0  0  0  0  0  0  0  0  0  0  0
    4.6922   -4.2135    8.7997 H   0  0  0  0  0  0  0  0  0  0  0  0
  1 18  1  0  0  0  0
  1  2  1  0  0  0  0
  2 20  1  0  0  0  0
  2  3  1  0  0  0  0
  3  4  1  0  0  0  0
  3 21  1  0  0  0  0
  4 24  1  0  0  0  0
  4  5  1  0  0  0  0
  5  8  1  0  0  0  0
  5 25  1  0  0  0  0
  6  7  1  0  0  0  0
  6 28  1  0  0  0  0
  7 10  1  0  0  0  0
  8 32  1  0  0  0  0
  8 11  1  0  0  0  0
  9 33  1  0  0  0  0
  9  6  1  0  0  0  0
 10 36  1  0  0  0  0
 10 12  1  0  0  0  0
 10 35  1  0  0  0  0
 11  9  1  0  0  0  0
 11 37  1  1  0  0  0
 12 15  1  0  0  0  0
 12 14  2  0  0  0  0
 13 11  1  0  0  0  0
 16  1  1  0  0  0  0
 17  1  1  0  0  0  0
 19  2  1  0  0  0  0
 22  3  1  0  0  0  0
 23  4  1  0  0  0  0
 26  5  1  0  0  0  0
 27  6  1  0  0  0  0
 29  7  1  0  0  0  0
 30  7  1  0  0  0  0
 31  8  1  0  0  0  0
 34  9  1  0  0  0  0
 38 13  1  0  0  0  0
 39 15  1  0  0  0  0
M  END
>  <HBA>
3

>  <HBD>
2

>  <TPSA>
57.53

>  <cid>
37289

>  <dipole>
4.72

>  <excitation_energy_1>
5.603

>  <excitation_energy_2>
6.479

>  <excitation_energy_3>
6.624

>  <excitation_energy_4>
6.779

>  <homo_energy>
-7.151

>  <homo_lumo_gap>
7.464

>  <logP>
2.963

>  <lumo_energy>
0.313

>  <melting_point>
65.23

>  <molecular_refractivity>
62.73

>  <oscillator_strength_1>
0.0029

>  <oscillator_strength_2>
0.0101

>  <oscillator_strength_3>
0.0107

>  <oscillator_strength_4>
0.0167

>  <open_babel_can_smiles>
CCCCCC[C@@H](CCCCC(=O)O)O

>  <mulliken_charges>
39
1   -0.441219
2   -0.24694
3   -0.245345
4   -0.253584
5   -0.25119
6   -0.251484
7   -0.271382
8   -0.277528
9   -0.274535
10   -0.378638
11   0.134883
12   0.588538
13   -0.619299
14   -0.435308
15   -0.565066
16   0.141734
17   0.141765
18   0.141444
19   0.129494
20   0.129478
21   0.127186
22   0.12823
23   0.124787
24   0.125366
25   0.128077
26   0.144758
27   0.158505
28   0.130395
29   0.157849
30   0.121143
31   0.116985
32   0.130536
33   0.130203
34   0.121563
35   0.15477
36   0.181278
37   0.132415
38   0.382505
39   0.40763

>  <lowdin_charges>
39
1   -0.441954
2   -0.270567
3   -0.272665
4   -0.272605
5   -0.27446
6   -0.274442
7   -0.271158
8   -0.289129
9   -0.289241
10   -0.315676
11   -0.000567
12   0.198212
13   -0.463213
14   -0.237961
15   -0.366206
16   0.14855
17   0.144461
18   0.146719
19   0.138944
20   0.13615
21   0.138277
22   0.136009
23   0.136833
24   0.134073
25   0.139921
26   0.144905
27   0.151896
28   0.140941
29   0.152873
30   0.130192
31   0.134417
32   0.14234
33   0.141869
34   0.137071
35   0.157736
36   0.171777
37   0.141459
38   0.33863
39   0.355591

$$$$

