PCCDB-ID:  21863
public computational chemistry database (PCCDB) project, http://pccdb.org

 19 19  0  0  0  0  0  0  0  0999 V2000
   -2.4068   -1.1146   -2.1705 C   0  0  0  0  0  0  0  0  0  0  0  0
   -1.1643   -1.6410   -1.7057 C   0  0  0  0  0  0  0  0  0  0  0  0
   -2.4928    0.1537   -1.6748 C   0  0  0  0  0  0  0  0  0  0  0  0
    2.1740    0.6866    1.2436 C   0  0  0  0  0  0  0  0  0  0  0  0
   -0.5838   -0.6546   -0.9582 C   0  0  0  0  0  0  0  0  0  0  0  0
    3.5236    0.7574    0.4985 C   0  0  0  0  0  0  0  0  0  0  0  0
    0.6906   -0.6154   -0.2366 C   0  0  0  0  0  0  0  0  0  0  0  0
    1.0077    0.5538    0.3746 N   0  0  0  0  0  0  0  0  0  0  0  0
    4.2853    1.6839    0.6424 O   0  0  0  0  0  0  0  0  0  0  0  0
    3.8003   -0.2906   -0.2882 O   0  0  0  0  0  0  0  0  0  0  0  0
    1.4319   -1.6117   -0.1967 O   0  0  0  0  0  0  0  0  0  0  0  0
   -1.3941    0.4547   -0.9322 O   0  0  0  0  0  0  0  0  0  0  0  0
   -3.1386   -1.6121   -2.7908 H   0  0  0  0  0  0  0  0  0  0  0  0
   -0.7408   -2.6170   -1.8922 H   0  0  0  0  0  0  0  0  0  0  0  0
   -3.2341    0.9346   -1.7527 H   0  0  0  0  0  0  0  0  0  0  0  0
    2.0702    1.6036    1.8226 H   0  0  0  0  0  0  0  0  0  0  0  0
    2.1973   -0.1680    1.9318 H   0  0  0  0  0  0  0  0  0  0  0  0
    0.3935    1.3473    0.2539 H   0  0  0  0  0  0  0  0  0  0  0  0
    3.0577   -0.9473   -0.2529 H   0  0  0  0  0  0  0  0  0  0  0  0
  1  2  1  0  0  0  0
  1  3  2  0  0  0  0
  2  5  2  0  0  0  0
  3 12  1  0  0  0  0
  4 16  1  0  0  0  0
  4 17  1  0  0  0  0
  5 12  1  0  0  0  0
  5  7  1  0  0  0  0
  6  9  2  0  0  0  0
  6  4  1  0  0  0  0
  7 11  2  0  0  0  0
  7  8  1  0  0  0  0
  8  4  1  0  0  0  0
 10 19  1  0  0  0  0
 10  6  1  0  0  0  0
 13  1  1  0  0  0  0
 14  2  1  0  0  0  0
 15  3  1  0  0  0  0
 18  8  1  0  0  0  0
M  END
>  <HBA>
5

>  <HBD>
2

>  <TPSA>
79.54

>  <cid>
21863

>  <dipole>
7.08

>  <excitation_energy_1>
4.73

>  <excitation_energy_2>
4.985

>  <excitation_energy_3>
5.195

>  <excitation_energy_4>
5.442

>  <homo_energy>
-6.778

>  <homo_lumo_gap>
5.195

>  <logP>
0.485

>  <lumo_energy>
-1.584

>  <melting_point>
141.11

>  <molecular_refractivity>
38.28

>  <oscillator_strength_1>
0.2347

>  <oscillator_strength_2>
0.0141

>  <oscillator_strength_3>
0.2164

>  <oscillator_strength_4>
0.0004

>  <open_babel_can_smiles>
OC(=O)CNC(=O)c1ccco1

>  <mulliken_charges>
19
1   -0.188603
2   -0.156841
3   0.104842
4   -0.251367
5   0.294579
6   0.595384
7   0.57439
8   -0.602705
9   -0.445989
10   -0.582601
11   -0.575697
12   -0.466361
13   0.16099
14   0.178602
15   0.173307
16   0.186317
17   0.196763
18   0.357762
19   0.447228

>  <lowdin_charges>
19
1   -0.195861
2   -0.154251
3   -0.056862
4   -0.23399
5   0.028246
6   0.181518
7   0.165818
8   -0.256638
9   -0.250159
10   -0.360196
11   -0.33674
12   -0.100872
13   0.180178
14   0.189987
15   0.180545
16   0.178842
17   0.176405
18   0.299691
19   0.364341

$$$$

