PCCDB-ID:  61177
public computational chemistry database (PCCDB) project, http://pccdb.org

 23 22  0  0  0  0  0  0  0  0999 V2000
    0.3983   -2.2289   -2.9245 C   0  0  0  0  0  0  0  0  0  0  0  0
    1.6473   -1.8172   -2.1385 C   0  0  0  0  0  0  0  0  0  0  0  0
    2.6374   -0.9885   -2.9674 C   0  0  0  0  0  0  0  0  0  0  0  0
    3.8876   -0.5764   -2.1753 C   0  0  0  0  0  0  0  0  0  0  0  0
    4.8626    0.3387   -2.9355 C   0  0  0  0  0  0  0  0  0  0  0  0
    5.5168   -0.3403   -4.1357 C   0  0  0  0  0  0  0  0  0  0  0  0
    6.1932    1.4036   -5.6048 C   0  0  0  0  0  0  0  0  0  0  0  0
    5.0723    1.6012   -6.0078 O   0  0  0  0  0  0  0  0  0  0  0  0
    6.5683    0.4900   -4.6964 O   0  0  0  0  0  0  0  0  0  0  0  0
   -0.2885   -2.8164   -2.3047 H   0  0  0  0  0  0  0  0  0  0  0  0
    0.6615   -2.8376   -3.7983 H   0  0  0  0  0  0  0  0  0  0  0  0
   -0.1486   -1.3501   -3.2875 H   0  0  0  0  0  0  0  0  0  0  0  0
    2.1547   -2.7161   -1.7598 H   0  0  0  0  0  0  0  0  0  0  0  0
    1.3484   -1.2406   -1.2515 H   0  0  0  0  0  0  0  0  0  0  0  0
    2.1333   -0.0855   -3.3417 H   0  0  0  0  0  0  0  0  0  0  0  0
    2.9258   -1.5654   -3.8575 H   0  0  0  0  0  0  0  0  0  0  0  0
    4.4202   -1.4781   -1.8374 H   0  0  0  0  0  0  0  0  0  0  0  0
    3.5714   -0.0544   -1.2621 H   0  0  0  0  0  0  0  0  0  0  0  0
    5.6585    0.6690   -2.2561 H   0  0  0  0  0  0  0  0  0  0  0  0
    4.3393    1.2386   -3.2810 H   0  0  0  0  0  0  0  0  0  0  0  0
    4.7941   -0.5633   -4.9233 H   0  0  0  0  0  0  0  0  0  0  0  0
    6.0282   -1.2604   -3.8393 H   0  0  0  0  0  0  0  0  0  0  0  0
    7.0851    1.9556   -5.9401 H   0  0  0  0  0  0  0  0  0  0  0  0
  1 10  1  0  0  0  0
  1  2  1  0  0  0  0
  2 13  1  0  0  0  0
  2 14  1  0  0  0  0
  3  4  1  0  0  0  0
  3  2  1  0  0  0  0
  4 17  1  0  0  0  0
  4 18  1  0  0  0  0
  5 19  1  0  0  0  0
  5  4  1  0  0  0  0
  6 22  1  0  0  0  0
  6  5  1  0  0  0  0
  7  9  1  0  0  0  0
  8  7  2  0  0  0  0
  9  6  1  0  0  0  0
 11  1  1  0  0  0  0
 12  1  1  0  0  0  0
 15  3  1  0  0  0  0
 16  3  1  0  0  0  0
 20  5  1  0  0  0  0
 21  6  1  0  0  0  0
 23  7  1  0  0  0  0
M  END
>  <HBA>
2

>  <HBD>
0

>  <TPSA>
26.3

>  <cid>
61177

>  <dipole>
1.92

>  <excitation_energy_1>
5.809

>  <excitation_energy_2>
7.41

>  <excitation_energy_3>
7.572

>  <excitation_energy_4>
7.788

>  <homo_energy>
-7.611

>  <homo_lumo_gap>
7.859

>  <logP>
2.376

>  <lumo_energy>
0.248

>  <melting_point>
-42.46

>  <molecular_refractivity>
37.44

>  <oscillator_strength_1>
0.0013

>  <oscillator_strength_2>
0.0381

>  <oscillator_strength_3>
0.0574

>  <oscillator_strength_4>
0.0006

>  <open_babel_can_smiles>
CCCCCCOC=O

>  <mulliken_charges>
23
1   -0.442228
2   -0.248239
3   -0.250565
4   -0.267257
5   -0.280782
6   -0.053788
7   0.38858
8   -0.422624
9   -0.418113
10   0.142869
11   0.142358
12   0.144309
13   0.130419
14   0.131782
15   0.137582
16   0.131467
17   0.129636
18   0.138078
19   0.144881
20   0.160009
21   0.173671
22   0.152244
23   0.13571

>  <lowdin_charges>
23
1   -0.446846
2   -0.27299
3   -0.278917
4   -0.275847
5   -0.289112
6   -0.136678
7   0.086642
8   -0.256061
9   -0.184685
10   0.151339
11   0.147259
12   0.148521
13   0.139392
14   0.139842
15   0.143374
16   0.138693
17   0.139183
18   0.146814
19   0.15131
20   0.155648
21   0.160362
22   0.152825
23   0.139934

$$$$

