PCCDB-ID:  16054
public computational chemistry database (PCCDB) project, http://pccdb.org

 17 18  0  0  0  0  0  0  0  0999 V2000
    2.1488   -0.7073   -0.0969 C   0  0  0  0  0  0  0  0  0  0  0  0
    0.9542   -1.4177   -0.0485 C   0  0  0  0  0  0  0  0  0  0  0  0
   -1.6240    1.1380    0.0564 C   0  0  0  0  0  0  0  0  0  0  0  0
   -2.3801   -0.0051    0.0870 C   0  0  0  0  0  0  0  0  0  0  0  0
    0.9723    1.4309   -0.0485 C   0  0  0  0  0  0  0  0  0  0  0  0
   -0.2465    0.7341   -0.0001 C   0  0  0  0  0  0  0  0  0  0  0  0
    2.1561    0.7047   -0.0968 C   0  0  0  0  0  0  0  0  0  0  0  0
   -0.2358   -0.6897   -0.0005 C   0  0  0  0  0  0  0  0  0  0  0  0
   -1.5534   -1.1105    0.0543 N   0  0  0  0  0  0  0  0  0  0  0  0
    3.3339    1.4145   -0.1453 O   0  0  0  0  0  0  0  0  0  0  0  0
    3.0937   -1.2464   -0.1360 H   0  0  0  0  0  0  0  0  0  0  0  0
    0.9583   -2.5045   -0.0494 H   0  0  0  0  0  0  0  0  0  0  0  0
   -2.0031    2.1505    0.0705 H   0  0  0  0  0  0  0  0  0  0  0  0
   -3.4537   -0.1273    0.1307 H   0  0  0  0  0  0  0  0  0  0  0  0
    1.0117    2.5156   -0.0493 H   0  0  0  0  0  0  0  0  0  0  0  0
   -1.8621   -2.0695    0.0607 H   0  0  0  0  0  0  0  0  0  0  0  0
    4.0728    0.7880   -0.1656 H   0  0  0  0  0  0  0  0  0  0  0  0
  1  7  2  0  0  0  0
  1  2  1  0  0  0  0
  2  8  2  0  0  0  0
  3 13  1  0  0  0  0
  3  4  2  0  0  0  0
  4 14  1  0  0  0  0
  5  6  2  0  0  0  0
  6  3  1  0  0  0  0
  7  5  1  0  0  0  0
  8  6  1  0  0  0  0
  8  9  1  0  0  0  0
  9 16  1  0  0  0  0
  9  4  1  0  0  0  0
 10  7  1  0  0  0  0
 11  1  1  0  0  0  0
 12  2  1  0  0  0  0
 15  5  1  0  0  0  0
 17 10  1  0  0  0  0
M  END
>  <HBA>
1

>  <HBD>
2

>  <TPSA>
36.02

>  <cid>
16054

>  <dipole>
3.03

>  <excitation_energy_1>
4.401

>  <excitation_energy_2>
4.68

>  <excitation_energy_3>
4.778

>  <excitation_energy_4>
4.78

>  <homo_energy>
-5.187

>  <homo_lumo_gap>
5.064

>  <logP>
1.873

>  <lumo_energy>
-0.122

>  <melting_point>
135.9

>  <molecular_refractivity>
40.32

>  <oscillator_strength_1>
0.0534

>  <oscillator_strength_2>
0.0002

>  <oscillator_strength_3>
0.0402

>  <oscillator_strength_4>
0.0735

>  <open_babel_can_smiles>
Oc1ccc2c(c1)cc[nH]2

>  <mulliken_charges>
17
1   -0.219186
2   -0.16673
3   -0.23183
4   0.051767
5   -0.252161
6   0.123073
7   0.354337
8   0.30836
9   -0.682499
10   -0.655467
11   0.110897
12   0.122753
13   0.128635
14   0.148135
15   0.132401
16   0.325454
17   0.40206

>  <lowdin_charges>
17
1   -0.218277
2   -0.174126
3   -0.228061
4   -0.117744
5   -0.193708
6   -0.015185
7   0.090439
8   0.01476
9   -0.201476
10   -0.393516
11   0.150669
12   0.154121
13   0.162701
14   0.162359
15   0.163634
16   0.289029
17   0.354382

$$$$

