PCCDB-ID:  31289
public computational chemistry database (PCCDB) project, http://pccdb.org

 28 27  0  0  0  0  0  0  0  0999 V2000
    1.9343    0.1551    2.3202 C   0  0  0  0  0  0  0  0  0  0  0  0
    3.3135    0.0358    1.6632 C   0  0  0  0  0  0  0  0  0  0  0  0
    3.5339   -1.3078    0.9563 C   0  0  0  0  0  0  0  0  0  0  0  0
    4.9134   -1.4361    0.2978 C   0  0  0  0  0  0  0  0  0  0  0  0
    5.1312   -2.7779   -0.4133 C   0  0  0  0  0  0  0  0  0  0  0  0
    6.5118   -2.9038   -1.0696 C   0  0  0  0  0  0  0  0  0  0  0  0
    6.7202   -4.2503   -1.7768 C   0  0  0  0  0  0  0  0  0  0  0  0
    8.0970   -4.3974   -2.4318 C   0  0  0  0  0  0  0  0  0  0  0  0
    8.3016   -3.5713   -3.6828 C   0  0  0  0  0  0  0  0  0  0  0  0
    7.4523   -2.8940   -4.2198 O   0  0  0  0  0  0  0  0  0  0  0  0
    1.8080    1.1258    2.8132 H   0  0  0  0  0  0  0  0  0  0  0  0
    1.7872   -0.6250    3.0774 H   0  0  0  0  0  0  0  0  0  0  0  0
    1.1322    0.0510    1.5791 H   0  0  0  0  0  0  0  0  0  0  0  0
    4.0946    0.1769    2.4239 H   0  0  0  0  0  0  0  0  0  0  0  0
    3.4454    0.8515    0.9381 H   0  0  0  0  0  0  0  0  0  0  0  0
    2.7529   -1.4479    0.1941 H   0  0  0  0  0  0  0  0  0  0  0  0
    3.3990   -2.1245    1.6814 H   0  0  0  0  0  0  0  0  0  0  0  0
    5.6938   -1.2986    1.0612 H   0  0  0  0  0  0  0  0  0  0  0  0
    5.0486   -0.6179   -0.4248 H   0  0  0  0  0  0  0  0  0  0  0  0
    4.3540   -2.9128   -1.1797 H   0  0  0  0  0  0  0  0  0  0  0  0
    4.9931   -3.5977    0.3079 H   0  0  0  0  0  0  0  0  0  0  0  0
    7.2912   -2.7722   -0.3035 H   0  0  0  0  0  0  0  0  0  0  0  0
    6.6449   -2.0922   -1.7954 H   0  0  0  0  0  0  0  0  0  0  0  0
    5.9491   -4.3803   -2.5462 H   0  0  0  0  0  0  0  0  0  0  0  0
    6.5857   -5.0654   -1.0534 H   0  0  0  0  0  0  0  0  0  0  0  0
    8.2896   -5.4429   -2.7237 H   0  0  0  0  0  0  0  0  0  0  0  0
    8.9101   -4.1486   -1.7316 H   0  0  0  0  0  0  0  0  0  0  0  0
    9.3258   -3.6373   -4.1182 H   0  0  0  0  0  0  0  0  0  0  0  0
  1 11  1  0  0  0  0
  1 12  1  0  0  0  0
  2  1  1  0  0  0  0
  2 14  1  0  0  0  0
  3  2  1  0  0  0  0
  3 17  1  0  0  0  0
  4  3  1  0  0  0  0
  4 18  1  0  0  0  0
  5  4  1  0  0  0  0
  5 21  1  0  0  0  0
  6  5  1  0  0  0  0
  6 22  1  0  0  0  0
  7  6  1  0  0  0  0
  7 25  1  0  0  0  0
  8  7  1  0  0  0  0
  8 27  1  0  0  0  0
  9  8  1  0  0  0  0
 10  9  2  0  0  0  0
 13  1  1  0  0  0  0
 15  2  1  0  0  0  0
 16  3  1  0  0  0  0
 19  4  1  0  0  0  0
 20  5  1  0  0  0  0
 23  6  1  0  0  0  0
 24  7  1  0  0  0  0
 26  8  1  0  0  0  0
 28  9  1  0  0  0  0
M  END
>  <HBA>
1

>  <HBD>
0

>  <TPSA>
17.07

>  <cid>
31289

>  <dipole>
2.38

>  <excitation_energy_1>
4.322

>  <excitation_energy_2>
6.386

>  <excitation_energy_3>
6.699

>  <excitation_energy_4>
6.959

>  <homo_energy>
-6.876

>  <homo_lumo_gap>
6.338

>  <logP>
2.936

>  <lumo_energy>
-0.539

>  <melting_point>
3.17

>  <molecular_refractivity>
45.58

>  <oscillator_strength_1>
0.0001

>  <oscillator_strength_2>
0.027

>  <oscillator_strength_3>
0.0054

>  <oscillator_strength_4>
0.0235

>  <open_babel_can_smiles>
CCCCCCCCC=O

>  <mulliken_charges>
28
1   -0.441124
2   -0.246552
3   -0.245701
4   -0.25336
5   -0.254062
6   -0.258735
7   -0.25107
8   -0.350767
9   0.256055
10   -0.383374
11   0.140929
12   0.140266
13   0.14131
14   0.128817
15   0.130706
16   0.127304
17   0.124855
18   0.124674
19   0.130547
20   0.132517
21   0.123704
22   0.120382
23   0.153801
24   0.152479
25   0.130792
26   0.163473
27   0.158412
28   0.103724

>  <lowdin_charges>
28
1   -0.445416
2   -0.273395
3   -0.275763
4   -0.275347
5   -0.27451
6   -0.278972
7   -0.274628
8   -0.315206
9   0.059407
10   -0.221879
11   0.148577
12   0.146286
13   0.146779
14   0.138746
15   0.139631
16   0.138323
17   0.136987
18   0.137039
19   0.139955
20   0.141013
21   0.136102
22   0.134448
23   0.151094
24   0.153464
25   0.14403
26   0.166549
27   0.162681
28   0.114005

$$$$

