PCCDB-ID:  20627
public computational chemistry database (PCCDB) project, http://pccdb.org

 26 27  0  0  0  0  0  0  0  0999 V2000
    3.0148    3.6373   -1.2315 C   0  0  0  0  0  0  0  0  0  0  0  0
    2.5021    3.2759    0.0161 C   0  0  0  0  0  0  0  0  0  0  0  0
    3.5105    2.6427   -2.0759 C   0  0  0  0  0  0  0  0  0  0  0  0
    5.9049   -2.3976   -1.0269 C   0  0  0  0  0  0  0  0  0  0  0  0
    2.5046    1.9438    0.4223 C   0  0  0  0  0  0  0  0  0  0  0  0
    3.4990    1.3034   -1.6883 C   0  0  0  0  0  0  0  0  0  0  0  0
    5.0911   -1.2922   -0.7862 C   0  0  0  0  0  0  0  0  0  0  0  0
    5.4655   -3.6944   -0.7662 C   0  0  0  0  0  0  0  0  0  0  0  0
    3.3349   -2.7633   -0.0135 C   0  0  0  0  0  0  0  0  0  0  0  0
    3.0059    0.9411   -0.4241 C   0  0  0  0  0  0  0  0  0  0  0  0
    3.7851   -1.4595   -0.2825 C   0  0  0  0  0  0  0  0  0  0  0  0
    4.1788   -3.8402   -0.2528 C   0  0  0  0  0  0  0  0  0  0  0  0
    2.9356   -0.3957    0.0050 N   0  0  0  0  0  0  0  0  0  0  0  0
    3.6791   -5.1951    0.0440 N   0  0  0  0  0  0  0  0  0  0  0  0
    4.4210   -6.1447   -0.2037 O   0  0  0  0  0  0  0  0  0  0  0  0
    2.5496   -5.2991    0.5232 O   0  0  0  0  0  0  0  0  0  0  0  0
    3.0230    4.6776   -1.5425 H   0  0  0  0  0  0  0  0  0  0  0  0
    2.1071    4.0354    0.6854 H   0  0  0  0  0  0  0  0  0  0  0  0
    3.8961    2.9048   -3.0576 H   0  0  0  0  0  0  0  0  0  0  0  0
    6.9083   -2.2402   -1.4115 H   0  0  0  0  0  0  0  0  0  0  0  0
    2.1226    1.6713    1.4035 H   0  0  0  0  0  0  0  0  0  0  0  0
    3.8451    0.5382   -2.3746 H   0  0  0  0  0  0  0  0  0  0  0  0
    5.4735   -0.2947   -0.9674 H   0  0  0  0  0  0  0  0  0  0  0  0
    6.0844   -4.5643   -0.9411 H   0  0  0  0  0  0  0  0  0  0  0  0
    2.3394   -2.9466    0.3738 H   0  0  0  0  0  0  0  0  0  0  0  0
    2.1935   -0.6017    0.6590 H   0  0  0  0  0  0  0  0  0  0  0  0
  1  2  2  0  0  0  0
  2  5  1  0  0  0  0
  2 18  1  0  0  0  0
  3  6  2  0  0  0  0
  3  1  1  0  0  0  0
  4  7  2  0  0  0  0
  4  8  1  0  0  0  0
  5 21  1  0  0  0  0
  6 10  1  0  0  0  0
  7 11  1  0  0  0  0
  8 12  2  0  0  0  0
  9 25  1  0  0  0  0
 10 13  1  0  0  0  0
 10  5  2  0  0  0  0
 11  9  2  0  0  0  0
 11 13  1  0  0  0  0
 12  9  1  0  0  0  0
 12 14  1  0  0  0  0
 13 26  1  0  0  0  0
 14 16  2  0  0  0  0
 15 14  2  0  0  0  0
 17  1  1  0  0  0  0
 19  3  1  0  0  0  0
 20  4  1  0  0  0  0
 22  6  1  0  0  0  0
 23  7  1  0  0  0  0
 24  8  1  0  0  0  0
M  END
>  <HBA>
0

>  <HBD>
1

>  <TPSA>
57.85

>  <cid>
20627

>  <dipole>
5.05

>  <excitation_energy_1>
2.622

>  <excitation_energy_2>
3.744

>  <excitation_energy_3>
4.159

>  <excitation_energy_4>
4.244

>  <homo_energy>
-5.649

>  <homo_lumo_gap>
3.333

>  <logP>
3.935

>  <lumo_energy>
-2.316

>  <melting_point>
117.24

>  <molecular_refractivity>
64.81

>  <oscillator_strength_1>
0.0118

>  <oscillator_strength_2>
0.0001

>  <oscillator_strength_3>
0.0002

>  <oscillator_strength_4>
0.0273

>  <open_babel_can_smiles>
O=N(=O)c1cccc(c1)Nc1ccccc1

>  <mulliken_charges>
26
1   -0.130965
2   -0.132716
3   -0.140283
4   -0.150138
5   -0.186063
6   -0.171739
7   -0.15957
8   -0.159557
9   -0.235523
10   0.356661
11   0.378281
12   0.277629
13   -0.797312
14   0.378
15   -0.391963
16   -0.398357
17   0.131739
18   0.135203
19   0.135291
20   0.14744
21   0.127487
22   0.14583
23   0.158154
24   0.176616
25   0.173386
26   0.332467

>  <lowdin_charges>
26
1   -0.170923
2   -0.146059
3   -0.144625
4   -0.137666
5   -0.187477
6   -0.191355
7   -0.176143
8   -0.167328
9   -0.180584
10   0.055506
11   0.066418
12   0.01227
13   -0.249678
14   0.309237
15   -0.245406
16   -0.249538
17   0.158714
18   0.162216
19   0.160094
20   0.166488
21   0.156261
22   0.167268
23   0.173235
24   0.186809
25   0.182212
26   0.290054

$$$$

