PCCDB-ID:  11719
public computational chemistry database (PCCDB) project, http://pccdb.org

 11 10  0  0  0  0  0  0  0  0999 V2000
    1.0229    0.1015   -0.0024 C   0  0  0  0  0  0  0  0  0  0  0  0
    3.1076   -1.2382    0.2538 C   0  0  0  0  0  0  0  0  0  0  0  0
    4.3174   -1.4823    0.5947 N   0  0  0  0  0  0  0  0  0  0  0  0
    2.4721   -0.0271    0.0893 N   0  0  0  0  0  0  0  0  0  0  0  0
    2.2824   -2.2764   -0.0435 O   0  0  0  0  0  0  0  0  0  0  0  0
    0.7853    1.1220   -0.3158 H   0  0  0  0  0  0  0  0  0  0  0  0
    0.5075   -0.1063    0.9464 H   0  0  0  0  0  0  0  0  0  0  0  0
    0.6439   -0.5889   -0.7573 H   0  0  0  0  0  0  0  0  0  0  0  0
    4.8429   -0.6287    0.7833 H   0  0  0  0  0  0  0  0  0  0  0  0
    2.9581    0.7506    0.5124 H   0  0  0  0  0  0  0  0  0  0  0  0
    2.8447   -3.0649    0.0546 H   0  0  0  0  0  0  0  0  0  0  0  0
  1  4  1  0  0  0  0
  1  7  1  0  0  0  0
  2  3  2  0  0  0  0
  3  9  1  0  0  0  0
  4  2  1  0  0  0  0
  4 10  1  0  0  0  0
  5 11  1  0  0  0  0
  5  2  1  0  0  0  0
  6  1  1  0  0  0  0
  8  1  1  0  0  0  0
M  END
>  <HBA>
3

>  <HBD>
2

>  <TPSA>
55.12

>  <cid>
11719

>  <dipole>
2.46

>  <excitation_energy_1>
5.274

>  <excitation_energy_2>
6.2

>  <excitation_energy_3>
6.255

>  <excitation_energy_4>
6.567

>  <homo_energy>
-6.087

>  <homo_lumo_gap>
7.753

>  <logP>
0.376

>  <lumo_energy>
1.665

>  <melting_point>
89.25

>  <molecular_refractivity>
17.83

>  <oscillator_strength_1>
0.003

>  <oscillator_strength_2>
0.0083

>  <oscillator_strength_3>
0.004

>  <oscillator_strength_4>
0.0364

>  <open_babel_can_smiles>
CNC(=N)O

>  <mulliken_charges>
11
1   -0.297413
2   0.646998
3   -0.665894
4   -0.592786
5   -0.599424
6   0.153259
7   0.154366
8   0.189666
9   0.269459
10   0.320921
11   0.420849

>  <lowdin_charges>
11
1   -0.34864
2   0.158292
3   -0.498703
4   -0.306144
5   -0.377614
6   0.154609
7   0.143997
8   0.172454
9   0.252116
10   0.280829
11   0.368805

$$$$

