PCCDB-ID:  40140
public computational chemistry database (PCCDB) project, http://pccdb.org

 39 39  0  0  0  0  0  0  0  0999 V2000
    0.9970   -0.7685   -2.7785 C   0  0  0  0  0  0  0  0  0  0  0  0
    1.6759    1.7563    0.5927 C   0  0  0  0  0  0  0  0  0  0  0  0
    2.2730   -0.9505   -1.9542 C   0  0  0  0  0  0  0  0  0  0  0  0
    1.8041    0.3242    0.0703 C   0  0  0  0  0  0  0  0  0  0  0  0
    9.5900    5.7673   -3.8472 C   0  0  0  0  0  0  0  0  0  0  0  0
    8.7282    4.9309   -4.5627 C   0  0  0  0  0  0  0  0  0  0  0  0
    9.4783    5.8480   -2.4600 C   0  0  0  0  0  0  0  0  0  0  0  0
    7.7628    4.1811   -3.8939 C   0  0  0  0  0  0  0  0  0  0  0  0
    8.5078    5.0964   -1.7913 C   0  0  0  0  0  0  0  0  0  0  0  0
    4.8259    0.9697   -2.0275 C   0  0  0  0  0  0  0  0  0  0  0  0
    4.0518    0.3074   -0.8743 C   0  0  0  0  0  0  0  0  0  0  0  0
    6.5979    3.4212   -1.7724 C   0  0  0  0  0  0  0  0  0  0  0  0
    7.6368    4.2551   -2.4979 C   0  0  0  0  0  0  0  0  0  0  0  0
    6.9776    1.9393   -1.6506 C   0  0  0  0  0  0  0  0  0  0  0  0
    6.2464    0.9126   -1.7615 N   0  0  0  0  0  0  0  0  0  0  0  0
    2.6133    0.2311   -1.1507 N   0  0  0  0  0  0  0  0  0  0  0  0
    8.2866    1.7244   -1.3249 O   0  0  0  0  0  0  0  0  0  0  0  0
    0.8082   -1.6590   -3.3897 H   0  0  0  0  0  0  0  0  0  0  0  0
    1.0940    0.0972   -3.4420 H   0  0  0  0  0  0  0  0  0  0  0  0
    0.1149   -0.6107   -2.1480 H   0  0  0  0  0  0  0  0  0  0  0  0
    1.0415    1.7818    1.4866 H   0  0  0  0  0  0  0  0  0  0  0  0
    1.2299    2.4006   -0.1721 H   0  0  0  0  0  0  0  0  0  0  0  0
    2.6472    2.1829    0.8672 H   0  0  0  0  0  0  0  0  0  0  0  0
    3.1038   -1.1381   -2.6426 H   0  0  0  0  0  0  0  0  0  0  0  0
    2.1907   -1.8563   -1.3218 H   0  0  0  0  0  0  0  0  0  0  0  0
    0.8007   -0.0469   -0.1625 H   0  0  0  0  0  0  0  0  0  0  0  0
    2.1986   -0.3366    0.8671 H   0  0  0  0  0  0  0  0  0  0  0  0
   10.3414    6.3525   -4.3701 H   0  0  0  0  0  0  0  0  0  0  0  0
    8.8082    4.8643   -5.6444 H   0  0  0  0  0  0  0  0  0  0  0  0
   10.1394    6.4995   -1.8949 H   0  0  0  0  0  0  0  0  0  0  0  0
    7.0986    3.5288   -4.4561 H   0  0  0  0  0  0  0  0  0  0  0  0
    8.4154    5.1759   -0.7098 H   0  0  0  0  0  0  0  0  0  0  0  0
    4.4090    1.9774   -2.1788 H   0  0  0  0  0  0  0  0  0  0  0  0
    4.6381    0.4097   -2.9538 H   0  0  0  0  0  0  0  0  0  0  0  0
    4.2101    0.9111    0.0253 H   0  0  0  0  0  0  0  0  0  0  0  0
    4.4918   -0.6834   -0.6651 H   0  0  0  0  0  0  0  0  0  0  0  0
    5.6313    3.5081   -2.2740 H   0  0  0  0  0  0  0  0  0  0  0  0
    6.4625    3.8130   -0.7554 H   0  0  0  0  0  0  0  0  0  0  0  0
    8.7772    2.5562   -1.4366 H   0  0  0  0  0  0  0  0  0  0  0  0
  1 20  1  0  0  0  0
  1  3  1  0  0  0  0
  2 23  1  0  0  0  0
  2 21  1  0  0  0  0
  3 25  1  0  0  0  0
  3 16  1  0  0  0  0
  4  2  1  0  0  0  0
  4 27  1  0  0  0  0
  5  7  2  0  0  0  0
  6  8  2  0  0  0  0
  6  5  1  0  0  0  0
  7 30  1  0  0  0  0
  7  9  1  0  0  0  0
  8 13  1  0  0  0  0
  9 32  1  0  0  0  0
 10 15  1  0  0  0  0
 10 11  1  0  0  0  0
 11 36  1  0  0  0  0
 11 35  1  0  0  0  0
 12 14  1  0  0  0  0
 12 38  1  0  0  0  0
 13  9  2  0  0  0  0
 13 12  1  0  0  0  0
 14 17  1  0  0  0  0
 15 14  2  0  0  0  0
 16 11  1  0  0  0  0
 16  4  1  0  0  0  0
 18  1  1  0  0  0  0
 19  1  1  0  0  0  0
 22  2  1  0  0  0  0
 24  3  1  0  0  0  0
 26  4  1  0  0  0  0
 28  5  1  0  0  0  0
 29  6  1  0  0  0  0
 31  8  1  0  0  0  0
 33 10  1  0  0  0  0
 34 10  1  0  0  0  0
 37 12  1  0  0  0  0
 39 17  1  0  0  0  0
M  END
>  <HBA>
3

>  <HBD>
1

>  <TPSA>
32.34

>  <cid>
40140

>  <dipole>
3.23

>  <excitation_energy_1>
4.515

>  <excitation_energy_2>
4.554

>  <excitation_energy_3>
5.034

>  <excitation_energy_4>
5.082

>  <homo_energy>
-5.508

>  <homo_lumo_gap>
5.023

>  <logP>
2.078

>  <lumo_energy>
-0.484

>  <melting_point>
53.71

>  <molecular_refractivity>
70.95

>  <oscillator_strength_1>
0.0004

>  <oscillator_strength_2>
0.003

>  <oscillator_strength_3>
0.0039

>  <oscillator_strength_4>
0.0011

>  <open_babel_can_smiles>
CCN(CC/N=C(\Cc1ccccc1)/O)CC

>  <mulliken_charges>
39
1   -0.439663
2   -0.439157
3   -0.123384
4   -0.120756
5   -0.128507
6   -0.126687
7   -0.12232
8   -0.160013
9   -0.201622
10   -0.15069
11   -0.127464
12   -0.438437
13   0.113961
14   0.49678
15   -0.421234
16   -0.381267
17   -0.588934
18   0.138563
19   0.151303
20   0.144628
21   0.137933
22   0.151503
23   0.14295
24   0.141801
25   0.114131
26   0.136836
27   0.114618
28   0.137089
29   0.138917
30   0.137871
31   0.140686
32   0.135078
33   0.121745
34   0.144325
35   0.13455
36   0.135468
37   0.175952
38   0.175005
39   0.408439

>  <lowdin_charges>
39
1   -0.45105
2   -0.450743
3   -0.198166
4   -0.197544
5   -0.155318
6   -0.145445
7   -0.152876
8   -0.159441
9   -0.179408
10   -0.205239
11   -0.204429
12   -0.309421
13   -0.019184
14   0.126649
15   -0.204388
16   -0.194772
17   -0.373827
18   0.150054
19   0.152936
20   0.147032
21   0.149496
22   0.153793
23   0.145833
24   0.146705
25   0.119821
26   0.143676
27   0.1205
28   0.162728
29   0.160208
30   0.16309
31   0.163951
32   0.156241
33   0.124015
34   0.144612
35   0.144225
36   0.132532
37   0.171102
38   0.168596
39   0.353456

$$$$

