PCCDB-ID:  11657
public computational chemistry database (PCCDB) project, http://pccdb.org

 12 12  0  0  0  0  0  0  0  0999 V2000
    0.9509    0.0143   -0.1088 C   0  0  0  0  0  0  0  0  0  0  0  0
    3.2243    0.8542   -1.1190 C   0  0  0  0  0  0  0  0  0  0  0  0
    3.2585   -0.6564   -1.1642 C   0  0  0  0  0  0  0  0  0  0  0  0
    2.4644    0.0499   -0.0922 C   0  0  0  0  0  0  0  0  0  0  0  0
    0.5241    0.8655    0.4363 H   0  0  0  0  0  0  0  0  0  0  0  0
    0.5671   -0.9050    0.3510 H   0  0  0  0  0  0  0  0  0  0  0  0
    0.5692    0.0546   -1.1364 H   0  0  0  0  0  0  0  0  0  0  0  0
    2.6501    1.3719   -1.8839 H   0  0  0  0  0  0  0  0  0  0  0  0
    4.1220    1.3823   -0.8086 H   0  0  0  0  0  0  0  0  0  0  0  0
    4.1794   -1.1612   -0.8845 H   0  0  0  0  0  0  0  0  0  0  0  0
    2.7073   -1.1526   -1.9597 H   0  0  0  0  0  0  0  0  0  0  0  0
    2.9026    0.0302    0.9050 H   0  0  0  0  0  0  0  0  0  0  0  0
  1  4  1  0  0  0  0
  1  6  1  0  0  0  0
  1  5  1  0  0  0  0
  2  9  1  0  0  0  0
  2  4  1  0  0  0  0
  3  2  1  0  0  0  0
  3 10  1  0  0  0  0
  3  4  1  0  0  0  0
  4 12  1  0  0  0  0
  7  1  1  0  0  0  0
  8  2  1  0  0  0  0
 11  3  1  0  0  0  0
M  END
>  <HBA>
0

>  <HBD>
0

>  <TPSA>
0.0

>  <cid>
11657

>  <dipole>
0.11

>  <excitation_energy_1>
7.003

>  <excitation_energy_2>
7.268

>  <excitation_energy_3>
7.453

>  <excitation_energy_4>
7.517

>  <homo_energy>
-7.396

>  <homo_lumo_gap>
10.18

>  <logP>
1.416

>  <lumo_energy>
2.784

>  <melting_point>
-2.66

>  <molecular_refractivity>
19.23

>  <oscillator_strength_1>
0.0111

>  <oscillator_strength_2>
0.0042

>  <oscillator_strength_3>
0.0153

>  <oscillator_strength_4>
0.0001

>  <open_babel_can_smiles>
CC1CC1

>  <mulliken_charges>
12
1   -0.44661
2   -0.310547
3   -0.310644
4   -0.082536
5   0.145194
6   0.145283
7   0.138712
8   0.146026
9   0.146586
10   0.146603
11   0.146059
12   0.135873

>  <lowdin_charges>
12
1   -0.434584
2   -0.320499
3   -0.32033
4   -0.147403
5   0.150738
6   0.150176
7   0.147137
8   0.156047
9   0.156884
10   0.156726
11   0.155965
12   0.149143

$$$$

