PCCDB-ID:  37848
public computational chemistry database (PCCDB) project, http://pccdb.org

 35 37  0  0  1  0  0  0  0  0999 V2000
    2.6897    3.2026   -0.9767 C   0  0  0  0  0  0  0  0  0  0  0  0
    3.4550    3.8677    1.2075 C   0  0  0  0  0  0  0  0  0  0  0  0
   -2.1130    6.2161    1.1158 C   0  0  0  0  0  0  0  0  0  0  0  0
    3.9451    3.4767   -1.5054 C   0  0  0  0  0  0  0  0  0  0  0  0
    4.7168    4.1479    0.6876 C   0  0  0  0  0  0  0  0  0  0  0  0
   -0.6617    6.6230    0.6963 C   0  0  0  0  0  0  0  0  0  0  0  0
    1.0427    3.1082    0.9453 C   0  0  0  0  0  0  0  0  0  0  0  0
   -0.5512    5.3244    2.6996 C   0  0  0  0  0  0  0  0  0  0  0  0
   -1.4461    3.7921    1.1056 C   0  0  0  0  0  0  0  0  0  0  0  0
    2.4198    3.3945    0.3883 C   0  0  0  0  0  0  0  0  0  0  0  0
   -1.8834    4.9705    2.0043 C   0  0  2  0  0  0  0  0  0  0  0  0
    4.9705    3.9535   -0.6763 C   0  0  0  0  0  0  0  0  0  0  0  0
    0.2172    5.5467    1.3773 C   0  0  1  0  0  0  0  0  0  0  0  0
   -0.0076    4.2002    0.6323 C   0  0  1  0  0  0  0  0  0  0  0  0
    6.2947    4.2255   -1.2876 C   0  0  0  0  0  0  0  0  0  0  0  0
    7.2108    4.6880   -0.3951 O   0  0  0  0  0  0  0  0  0  0  0  0
    6.5700    4.0640   -2.4607 O   0  0  0  0  0  0  0  0  0  0  0  0
    1.9041    2.8269   -1.6284 H   0  0  0  0  0  0  0  0  0  0  0  0
    3.2697    4.0141    2.2689 H   0  0  0  0  0  0  0  0  0  0  0  0
   -2.7572    5.9959    0.2569 H   0  0  0  0  0  0  0  0  0  0  0  0
   -2.5984    7.0158    1.6869 H   0  0  0  0  0  0  0  0  0  0  0  0
    4.1571    3.3224   -2.5584 H   0  0  0  0  0  0  0  0  0  0  0  0
    5.5073    4.5111    1.3351 H   0  0  0  0  0  0  0  0  0  0  0  0
   -0.4091    7.6215    1.0709 H   0  0  0  0  0  0  0  0  0  0  0  0
   -0.5224    6.6404   -0.3904 H   0  0  0  0  0  0  0  0  0  0  0  0
    1.1063    2.9651    2.0314 H   0  0  0  0  0  0  0  0  0  0  0  0
    0.6773    2.1589    0.5301 H   0  0  0  0  0  0  0  0  0  0  0  0
   -0.1536    4.5072    3.3130 H   0  0  0  0  0  0  0  0  0  0  0  0
   -0.6079    6.2270    3.3198 H   0  0  0  0  0  0  0  0  0  0  0  0
   -2.1317    3.6259    0.2668 H   0  0  0  0  0  0  0  0  0  0  0  0
   -1.4115    2.8604    1.6849 H   0  0  0  0  0  0  0  0  0  0  0  0
   -2.7248    4.7337    2.6627 H   0  0  0  0  0  0  0  0  0  0  0  0
    1.2693    5.8315    1.4659 H   0  0  0  0  0  0  0  0  0  0  0  0
    0.0063    4.3727   -0.4513 H   0  0  0  0  0  0  0  0  0  0  0  0
    8.0276    4.8242   -0.9095 H   0  0  0  0  0  0  0  0  0  0  0  0
  1 10  1  0  0  0  0
  2 19  1  0  0  0  0
  3 21  1  0  0  0  0
  3 11  1  0  0  0  0
  4  1  2  0  0  0  0
  4 12  1  0  0  0  0
  5  2  1  0  0  0  0
  5 23  1  0  0  0  0
  6 24  1  0  0  0  0
  6  3  1  0  0  0  0
  6 13  1  0  0  0  0
  7 26  1  0  0  0  0
  8 28  1  0  0  0  0
  8 29  1  0  0  0  0
  9 31  1  0  0  0  0
  9 11  1  0  0  0  0
 10  7  1  0  0  0  0
 10  2  2  0  0  0  0
 11 32  1  1  0  0  0
 11  8  1  0  0  0  0
 12  5  2  0  0  0  0
 13 33  1  1  0  0  0
 13  8  1  0  0  0  0
 14 34  1  6  0  0  0
 14  7  1  0  0  0  0
 14  9  1  0  0  0  0
 14 13  1  0  0  0  0
 15 12  1  0  0  0  0
 15 16  1  0  0  0  0
 17 15  2  0  0  0  0
 18  1  1  0  0  0  0
 20  3  1  0  0  0  0
 22  4  1  0  0  0  0
 25  6  1  0  0  0  0
 27  7  1  0  0  0  0
 30  9  1  0  0  0  0
 35 16  1  0  0  0  0
M  END
>  <HBA>
2

>  <HBD>
1

>  <TPSA>
37.3

>  <cid>
37848

>  <dipole>
2.4

>  <excitation_energy_1>
4.848

>  <excitation_energy_2>
4.903

>  <excitation_energy_3>
5.1

>  <excitation_energy_4>
6.017

>  <homo_energy>
-6.773

>  <homo_lumo_gap>
5.567

>  <logP>
3.364

>  <lumo_energy>
-1.205

>  <melting_point>
139.99

>  <molecular_refractivity>
67.79

>  <oscillator_strength_1>
0.015

>  <oscillator_strength_2>
0.0005

>  <oscillator_strength_3>
0.4114

>  <oscillator_strength_4>
0.0032

>  <open_babel_can_smiles>
OC(=O)c1ccc(cc1)C[C@H]1C[C@H]2C[C@@H]1CC2

>  <mulliken_charges>
35
1   -0.187623
2   -0.192896
3   -0.269131
4   -0.155635
5   -0.161433
6   -0.274503
7   -0.372144
8   -0.276103
9   -0.280935
10   0.189831
11   -0.09836
12   0.069757
13   -0.105676
14   -0.071618
15   0.534582
16   -0.584945
17   -0.477505
18   0.131508
19   0.131153
20   0.131997
21   0.135014
22   0.163131
23   0.158974
24   0.135253
25   0.134611
26   0.142494
27   0.148223
28   0.12955
29   0.132297
30   0.132945
31   0.133478
32   0.115818
33   0.122898
34   0.124533
35   0.410462

>  <lowdin_charges>
35
1   -0.16762
2   -0.168695
3   -0.287714
4   -0.125451
5   -0.137699
6   -0.281636
7   -0.27491
8   -0.289137
9   -0.286221
10   0.018266
11   -0.133431
12   -0.053127
13   -0.137341
14   -0.126385
15   0.191835
16   -0.36255
17   -0.274982
18   0.159679
19   0.156584
20   0.142826
21   0.145431
22   0.17526
23   0.174347
24   0.144014
25   0.141221
26   0.146337
27   0.153796
28   0.141228
29   0.144068
30   0.144514
31   0.14332
32   0.141071
33   0.143149
34   0.137169
35   0.362782

$$$$

