PCCDB-ID:  47804
public computational chemistry database (PCCDB) project, http://pccdb.org

 27 27  0  0  0  0  0  0  0  0999 V2000
    3.2845   -1.0500   -0.8019 C   0  0  0  0  0  0  0  0  0  0  0  0
    3.0833   -0.4568    2.8666 C   0  0  0  0  0  0  0  0  0  0  0  0
    2.2481   -0.1419   -0.1298 C   0  0  0  0  0  0  0  0  0  0  0  0
    3.7448    0.5021    1.8698 C   0  0  0  0  0  0  0  0  0  0  0  0
    1.7396    2.0068    1.2019 C   0  0  0  0  0  0  0  0  0  0  0  0
    3.4911    2.1358   -0.1113 C   0  0  0  0  0  0  0  0  0  0  0  0
    2.3690    3.1298    0.3110 C   0  0  0  0  0  0  0  0  0  0  0  0
    2.8577    4.3290    1.1017 C   0  0  0  0  0  0  0  0  0  0  0  0
    2.8337    0.9920    0.7305 C   0  0  0  0  0  0  0  0  0  0  0  0
    3.7107    4.2615    1.9545 O   0  0  0  0  0  0  0  0  0  0  0  0
    2.2629    5.5255    0.8378 O   0  0  0  0  0  0  0  0  0  0  0  0
    2.7965   -1.7624   -1.4765 H   0  0  0  0  0  0  0  0  0  0  0  0
    3.8560   -1.6300   -0.0693 H   0  0  0  0  0  0  0  0  0  0  0  0
    4.0011   -0.4702   -1.3965 H   0  0  0  0  0  0  0  0  0  0  0  0
    3.7653   -0.6840    3.6935 H   0  0  0  0  0  0  0  0  0  0  0  0
    2.8041   -1.4086    2.4005 H   0  0  0  0  0  0  0  0  0  0  0  0
    2.1750   -0.0221    3.3020 H   0  0  0  0  0  0  0  0  0  0  0  0
    1.5738   -0.7508    0.4882 H   0  0  0  0  0  0  0  0  0  0  0  0
    1.6135    0.3088   -0.9069 H   0  0  0  0  0  0  0  0  0  0  0  0
    4.6345    0.0239    1.4369 H   0  0  0  0  0  0  0  0  0  0  0  0
    4.1093    1.3871    2.4067 H   0  0  0  0  0  0  0  0  0  0  0  0
    0.7119    1.7456    0.9290 H   0  0  0  0  0  0  0  0  0  0  0  0
    1.7714    2.2352    2.2709 H   0  0  0  0  0  0  0  0  0  0  0  0
    4.4786    2.4383    0.2464 H   0  0  0  0  0  0  0  0  0  0  0  0
    3.5427    1.9545   -1.1897 H   0  0  0  0  0  0  0  0  0  0  0  0
    1.7224    3.4317   -0.5209 H   0  0  0  0  0  0  0  0  0  0  0  0
    1.6077    5.4177    0.1296 H   0  0  0  0  0  0  0  0  0  0  0  0
  1  3  1  0  0  0  0
  1 13  1  0  0  0  0
  2 17  1  0  0  0  0
  2 15  1  0  0  0  0
  3 18  1  0  0  0  0
  3  9  1  0  0  0  0
  4 21  1  0  0  0  0
  4  2  1  0  0  0  0
  5 23  1  0  0  0  0
  6 24  1  0  0  0  0
  6  7  1  0  0  0  0
  6  9  1  0  0  0  0
  7  8  1  0  0  0  0
  7  5  1  0  0  0  0
  8 10  2  0  0  0  0
  9  5  1  0  0  0  0
  9  4  1  0  0  0  0
 11  8  1  0  0  0  0
 12  1  1  0  0  0  0
 14  1  1  0  0  0  0
 16  2  1  0  0  0  0
 19  3  1  0  0  0  0
 20  4  1  0  0  0  0
 22  5  1  0  0  0  0
 25  6  1  0  0  0  0
 26  7  1  0  0  0  0
 27 11  1  0  0  0  0
M  END
>  <HBA>
2

>  <HBD>
1

>  <TPSA>
37.3

>  <cid>
47804

>  <dipole>
4.05

>  <excitation_energy_1>
5.602

>  <excitation_energy_2>
6.305

>  <excitation_energy_3>
6.763

>  <excitation_energy_4>
6.861

>  <homo_energy>
-7.274

>  <homo_lumo_gap>
7.475

>  <logP>
2.287

>  <lumo_energy>
0.201

>  <melting_point>
89.87

>  <molecular_refractivity>
44.77

>  <oscillator_strength_1>
0.0004

>  <oscillator_strength_2>
0.014

>  <oscillator_strength_3>
0.0016

>  <oscillator_strength_4>
0.003

>  <open_babel_can_smiles>
CCC1(CC)CC(C1)C(=O)O

>  <mulliken_charges>
27
1   -0.453886
2   -0.455543
3   -0.279162
4   -0.289727
5   -0.299621
6   -0.297213
7   -0.210795
8   0.596757
9   0.14264
10   -0.449578
11   -0.568963
12   0.144628
13   0.151868
14   0.145892
15   0.147913
16   0.144304
17   0.144511
18   0.137701
19   0.121725
20   0.13385
21   0.158293
22   0.140666
23   0.162785
24   0.168106
25   0.139156
26   0.117096
27   0.406597

>  <lowdin_charges>
27
1   -0.452308
2   -0.4496
3   -0.278051
4   -0.281559
5   -0.275266
6   -0.277953
7   -0.172417
8   0.191233
9   0.009607
10   -0.25096
11   -0.355508
12   0.153104
13   0.151802
14   0.149298
15   0.154295
16   0.14602
17   0.147553
18   0.14516
19   0.137784
20   0.143077
21   0.155249
22   0.146998
23   0.157391
24   0.162737
25   0.145475
26   0.140603
27   0.356235

$$$$

