PCCDB-ID:  69122
public computational chemistry database (PCCDB) project, http://pccdb.org

 20 20  0  0  0  0  0  0  0  0999 V2000
   -1.2856    0.1238    0.2430 C   0  0  0  0  0  0  0  0  0  0  0  0
   -0.5644    1.3122    0.2560 C   0  0  0  0  0  0  0  0  0  0  0  0
    0.7562   -1.0963   -0.0973 C   0  0  0  0  0  0  0  0  0  0  0  0
   -0.6272   -1.0992    0.0760 C   0  0  0  0  0  0  0  0  0  0  0  0
    0.8253    1.3520    0.0658 C   0  0  0  0  0  0  0  0  0  0  0  0
    1.4634    0.1040   -0.1124 C   0  0  0  0  0  0  0  0  0  0  0  0
   -1.3253   -2.4322    0.0317 C   0  0  0  0  0  0  0  0  0  0  0  0
    1.4004    2.7693    0.1880 C   0  0  0  0  0  0  0  0  0  0  0  0
    2.9180   -0.0697   -0.3229 N   0  0  0  0  0  0  0  0  0  0  0  0
   -0.8374   -3.4015   -0.4946 O   0  0  0  0  0  0  0  0  0  0  0  0
   -2.5502   -2.5024    0.6088 O   0  0  0  0  0  0  0  0  0  0  0  0
    0.8126    3.5763    0.8722 O   0  0  0  0  0  0  0  0  0  0  0  0
    2.4864    3.1006   -0.5028 O   0  0  0  0  0  0  0  0  0  0  0  0
    3.4417   -1.0605    0.1600 O   0  0  0  0  0  0  0  0  0  0  0  0
    3.5283    0.7572   -1.0178 O   0  0  0  0  0  0  0  0  0  0  0  0
   -2.3670    0.1710    0.3443 H   0  0  0  0  0  0  0  0  0  0  0  0
   -1.0666    2.2567    0.4280 H   0  0  0  0  0  0  0  0  0  0  0  0
    1.2784   -2.0360   -0.2276 H   0  0  0  0  0  0  0  0  0  0  0  0
   -2.7361   -1.7046    1.1302 H   0  0  0  0  0  0  0  0  0  0  0  0
    2.8666    2.3145   -0.9569 H   0  0  0  0  0  0  0  0  0  0  0  0
  1  2  1  0  0  0  0
  1 16  1  0  0  0  0
  2 17  1  0  0  0  0
  3  4  1  0  0  0  0
  4  1  2  0  0  0  0
  5  8  1  0  0  0  0
  5  2  2  0  0  0  0
  6  3  2  0  0  0  0
  6  5  1  0  0  0  0
  7  4  1  0  0  0  0
  7 11  1  0  0  0  0
  8 12  2  0  0  0  0
  9  6  1  0  0  0  0
  9 14  2  0  0  0  0
 10  7  2  0  0  0  0
 11 19  1  0  0  0  0
 13  8  1  0  0  0  0
 15  9  2  0  0  0  0
 18  3  1  0  0  0  0
 20 13  1  0  0  0  0
M  END
>  <HBA>
4

>  <HBD>
2

>  <TPSA>
120.42

>  <cid>
69122

>  <dipole>
3.21

>  <excitation_energy_1>
3.561

>  <excitation_energy_2>
3.76

>  <excitation_energy_3>
3.92

>  <excitation_energy_4>
4.239

>  <homo_energy>
-7.935

>  <homo_lumo_gap>
4.354

>  <logP>
1.514

>  <lumo_energy>
-3.581

>  <melting_point>
226.77

>  <molecular_refractivity>
49.18

>  <oscillator_strength_1>
0.0194

>  <oscillator_strength_2>
0.0175

>  <oscillator_strength_3>
0.0097

>  <oscillator_strength_4>
0.0017

>  <open_babel_can_smiles>
O=N(=O)c1cc(ccc1C(=O)O)C(=O)O

>  <mulliken_charges>
20
1   -0.171983
2   -0.173392
3   -0.162227
4   0.045444
5   0.046281
6   0.201046
7   0.570173
8   0.569906
9   0.374322
10   -0.426254
11   -0.564764
12   -0.43727
13   -0.572735
14   -0.334422
15   -0.411671
16   0.159141
17   0.199716
18   0.218435
19   0.418129
20   0.452124

>  <lowdin_charges>
20
1   -0.138231
2   -0.116717
3   -0.109956
4   -0.041563
5   -0.032308
6   0.010525
7   0.198231
8   0.193265
9   0.317084
10   -0.220346
11   -0.342659
12   -0.238953
13   -0.335137
14   -0.189829
15   -0.251028
16   0.168417
17   0.196148
18   0.20686
19   0.362655
20   0.363542

$$$$

