PCCDB-ID:  46520
public computational chemistry database (PCCDB) project, http://pccdb.org

 35 35  0  0  1  0  0  0  0  0999 V2000
    1.3735    0.9828   -0.4895 C   0  0  0  0  0  0  0  0  0  0  0  0
    3.3935   -1.5103    4.0327 C   0  0  0  0  0  0  0  0  0  0  0  0
    4.1758    0.4258    5.4196 C   0  0  0  0  0  0  0  0  0  0  0  0
    5.4649    0.4736    0.4087 C   0  0  0  0  0  0  0  0  0  0  0  0
    2.4610   -0.0860   -0.2762 C   0  0  0  0  0  0  0  0  0  0  0  0
    3.0798    0.0015    1.0948 C   0  0  0  0  0  0  0  0  0  0  0  0
    3.7602   -0.0140    4.0041 C   0  0  0  0  0  0  0  0  0  0  0  0
    4.3656    0.2323    1.4262 C   0  0  0  0  0  0  0  0  0  0  0  0
    5.2304    1.8373    3.1127 C   0  0  0  0  0  0  0  0  0  0  0  0
    6.1126   -0.4493    3.1089 C   0  0  0  0  0  0  0  0  0  0  0  0
    7.2204    1.2942    4.1601 C   0  0  0  0  0  0  0  0  0  0  0  0
    4.8361    0.3671    2.8977 C   0  0  1  0  0  0  0  0  0  0  0  0
    6.2935    2.2540    3.6741 N   0  0  0  0  0  0  0  0  0  0  0  0
    7.1709   -0.0453    3.6869 N   0  0  0  0  0  0  0  0  0  0  0  0
    4.3271    2.7488    2.7029 O   0  0  0  0  0  0  0  0  0  0  0  0
    6.0989   -1.7220    2.6513 O   0  0  0  0  0  0  0  0  0  0  0  0
    8.0756    1.6238    4.9498 O   0  0  0  0  0  0  0  0  0  0  0  0
    0.8904    0.8549   -1.4639 H   0  0  0  0  0  0  0  0  0  0  0  0
    1.7989    1.9921   -0.4538 H   0  0  0  0  0  0  0  0  0  0  0  0
    0.5956    0.9186    0.2804 H   0  0  0  0  0  0  0  0  0  0  0  0
    2.5441   -1.6600    4.7076 H   0  0  0  0  0  0  0  0  0  0  0  0
    4.2229   -2.1142    4.4141 H   0  0  0  0  0  0  0  0  0  0  0  0
    3.1021   -1.9045    3.0537 H   0  0  0  0  0  0  0  0  0  0  0  0
    3.3897    0.1422    6.1274 H   0  0  0  0  0  0  0  0  0  0  0  0
    4.3194    1.5063    5.4989 H   0  0  0  0  0  0  0  0  0  0  0  0
    5.1010   -0.0655    5.7397 H   0  0  0  0  0  0  0  0  0  0  0  0
    5.0844    0.5170   -0.6124 H   0  0  0  0  0  0  0  0  0  0  0  0
    6.2252   -0.3146    0.4497 H   0  0  0  0  0  0  0  0  0  0  0  0
    5.9835    1.4188    0.6105 H   0  0  0  0  0  0  0  0  0  0  0  0
    3.2115   -0.0123   -1.0677 H   0  0  0  0  0  0  0  0  0  0  0  0
    2.0005   -1.0793   -0.3810 H   0  0  0  0  0  0  0  0  0  0  0  0
    2.3566   -0.1421    1.8950 H   0  0  0  0  0  0  0  0  0  0  0  0
    2.8594    0.5565    3.7446 H   0  0  0  0  0  0  0  0  0  0  0  0
    3.6453    2.2930    2.1753 H   0  0  0  0  0  0  0  0  0  0  0  0
    5.2455   -1.8957    2.2190 H   0  0  0  0  0  0  0  0  0  0  0  0
  1 19  1  0  0  0  0
  1  5  1  0  0  0  0
  1 20  1  0  0  0  0
  2 22  1  0  0  0  0
  2 21  1  0  0  0  0
  3 25  1  0  0  0  0
  3 26  1  0  0  0  0
  3 24  1  0  0  0  0
  4 28  1  0  0  0  0
  4 29  1  0  0  0  0
  4  8  1  0  0  0  0
  5  6  1  0  0  0  0
  6  8  2  0  0  0  0
  6 32  1  0  0  0  0
  7  2  1  0  0  0  0
  7  3  1  0  0  0  0
  9 13  2  0  0  0  0
 10 14  2  0  0  0  0
 11 17  2  0  0  0  0
 12  8  1  6  0  0  0
 12 10  1  0  0  0  0
 12  9  1  0  0  0  0
 12  7  1  0  0  0  0
 13 11  2  0  0  0  0
 14 11  1  0  0  0  0
 15  9  1  0  0  0  0
 16 10  1  0  0  0  0
 18  1  1  0  0  0  0
 23  2  1  0  0  0  0
 27  4  1  0  0  0  0
 30  5  1  0  0  0  0
 31  5  1  0  0  0  0
 33  7  1  0  0  0  0
 34 15  1  0  0  0  0
 35 16  1  0  0  0  0
M  END
>  <HBA>
5

>  <HBD>
2

>  <TPSA>
75.27

>  <cid>
46520

>  <dipole>
10.49

>  <excitation_energy_1>
4.0

>  <excitation_energy_2>
4.233

>  <excitation_energy_3>
5.077

>  <excitation_energy_4>
5.425

>  <homo_energy>
-6.757

>  <homo_lumo_gap>
5.344

>  <logP>
2.009

>  <lumo_energy>
-1.412

>  <melting_point>
152.79

>  <molecular_refractivity>
71.37

>  <oscillator_strength_1>
0.0005

>  <oscillator_strength_2>
0.0003

>  <oscillator_strength_3>
0.0394

>  <oscillator_strength_4>
0.0008

>  <open_babel_can_smiles>
CC/C=C(/[C@@]1(C(C)C)C(=N[C](=[N]=C1O)=O)O)\C

>  <mulliken_charges>
35
1   -0.44842
2   -0.486611
3   -0.481198
4   -0.535266
5   -0.301011
6   -0.173359
7   -0.080092
8   0.067981
9   0.541656
10   0.526923
11   0.615706
12   -0.159977
13   -0.46998
14   -0.468406
15   -0.581951
16   -0.578857
17   -0.433233
18   0.160891
19   0.154455
20   0.151157
21   0.16356
22   0.179592
23   0.140843
24   0.154725
25   0.18534
26   0.178115
27   0.168543
28   0.18686
29   0.190122
30   0.155575
31   0.157581
32   0.144802
33   0.137941
34   0.413005
35   0.422988

>  <lowdin_charges>
35
1   -0.4413
2   -0.463058
3   -0.453111
4   -0.455971
5   -0.273339
6   -0.182713
7   -0.116789
8   -0.046384
9   0.144337
10   0.144475
11   0.172017
12   -0.061644
13   -0.18736
14   -0.183566
15   -0.33177
16   -0.330439
17   -0.212412
18   0.159193
19   0.151474
20   0.151734
21   0.163309
22   0.165459
23   0.145294
24   0.159929
25   0.167686
26   0.165437
27   0.164349
28   0.174314
29   0.174582
30   0.154298
31   0.156976
32   0.160425
33   0.144474
34   0.359194
35   0.3609

$$$$

