PCCDB-ID:  69727
public computational chemistry database (PCCDB) project, http://pccdb.org

 27 28  0  0  0  0  0  0  0  0999 V2000
    0.3930    1.4470   -0.3270 C   0  0  0  0  0  0  0  0  0  0  0  0
   -1.0117    1.1527    0.2165 C   0  0  0  0  0  0  0  0  0  0  0  0
    1.4021    0.4454    0.2439 C   0  0  0  0  0  0  0  0  0  0  0  0
   -1.3365   -0.3196    0.2029 C   0  0  0  0  0  0  0  0  0  0  0  0
    1.0388   -0.9911   -0.1596 C   0  0  0  0  0  0  0  0  0  0  0  0
   -0.1048   -3.7733    0.4642 C   0  0  0  0  0  0  0  0  0  0  0  0
   -2.0748   -3.0789   -0.7137 C   0  0  0  0  0  0  0  0  0  0  0  0
   -0.5282   -5.0997    0.3959 C   0  0  0  0  0  0  0  0  0  0  0  0
   -2.5106   -4.3963   -0.7898 C   0  0  0  0  0  0  0  0  0  0  0  0
   -0.4393   -1.3045    0.0104 C   0  0  0  0  0  0  0  0  0  0  0  0
   -0.8689   -2.7262   -0.0763 C   0  0  0  0  0  0  0  0  0  0  0  0
   -1.7359   -5.4180   -0.2308 C   0  0  0  0  0  0  0  0  0  0  0  0
   -2.2038   -6.6998   -0.3364 O   0  0  0  0  0  0  0  0  0  0  0  0
    0.6863    2.4764   -0.0875 H   0  0  0  0  0  0  0  0  0  0  0  0
    0.3849    1.3655   -1.4229 H   0  0  0  0  0  0  0  0  0  0  0  0
   -1.7676    1.6994   -0.3654 H   0  0  0  0  0  0  0  0  0  0  0  0
   -1.1044    1.5378    1.2452 H   0  0  0  0  0  0  0  0  0  0  0  0
    1.4063    0.5253    1.3403 H   0  0  0  0  0  0  0  0  0  0  0  0
    2.4191    0.6800   -0.0937 H   0  0  0  0  0  0  0  0  0  0  0  0
   -2.3797   -0.5841    0.3707 H   0  0  0  0  0  0  0  0  0  0  0  0
    1.6451   -1.6955    0.4234 H   0  0  0  0  0  0  0  0  0  0  0  0
    1.3195   -1.1698   -1.2093 H   0  0  0  0  0  0  0  0  0  0  0  0
    0.8303   -3.5583    0.9723 H   0  0  0  0  0  0  0  0  0  0  0  0
   -2.6711   -2.2994   -1.1791 H   0  0  0  0  0  0  0  0  0  0  0  0
    0.0816   -5.8878    0.8353 H   0  0  0  0  0  0  0  0  0  0  0  0
   -3.4382   -4.6540   -1.2915 H   0  0  0  0  0  0  0  0  0  0  0  0
   -1.5690   -7.3004    0.0840 H   0  0  0  0  0  0  0  0  0  0  0  0
  1 14  1  0  0  0  0
  1  2  1  0  0  0  0
  1  3  1  0  0  0  0
  2 17  1  0  0  0  0
  3 18  1  0  0  0  0
  4  2  1  0  0  0  0
  4 20  1  0  0  0  0
  5 10  1  0  0  0  0
  5  3  1  0  0  0  0
  5 21  1  0  0  0  0
  6 23  1  0  0  0  0
  7 11  1  0  0  0  0
  8  6  1  0  0  0  0
  8 25  1  0  0  0  0
  9  7  2  0  0  0  0
  9 12  1  0  0  0  0
 10  4  2  0  0  0  0
 11 10  1  0  0  0  0
 11  6  2  0  0  0  0
 12  8  2  0  0  0  0
 13 12  1  0  0  0  0
 13 27  1  0  0  0  0
 15  1  1  0  0  0  0
 16  2  1  0  0  0  0
 19  3  1  0  0  0  0
 22  5  1  0  0  0  0
 24  7  1  0  0  0  0
 26  9  1  0  0  0  0
M  END
>  <HBA>
1

>  <HBD>
1

>  <TPSA>
20.23

>  <cid>
69727

>  <dipole>
1.44

>  <excitation_energy_1>
4.571

>  <excitation_energy_2>
4.828

>  <excitation_energy_3>
4.87

>  <excitation_energy_4>
5.117

>  <homo_energy>
-5.44

>  <homo_lumo_gap>
5.317

>  <logP>
3.35

>  <lumo_energy>
-0.122

>  <melting_point>
80.25

>  <molecular_refractivity>
55.67

>  <oscillator_strength_1>
0.0291

>  <oscillator_strength_2>
0.1021

>  <oscillator_strength_3>
0.2722

>  <oscillator_strength_4>
0.0127

>  <open_babel_can_smiles>
Oc1ccc(cc1)C1=CCCCC1

>  <mulliken_charges>
27
1   -0.262234
2   -0.295833
3   -0.263433
4   -0.173876
5   -0.329647
6   -0.190994
7   -0.183089
8   -0.197593
9   -0.1627
10   0.09965
11   0.106596
12   0.351582
13   -0.643544
14   0.130012
15   0.135399
16   0.139532
17   0.14308
18   0.135273
19   0.130033
20   0.120825
21   0.141479
22   0.148954
23   0.128441
24   0.131212
25   0.116092
26   0.138238
27   0.406547

>  <lowdin_charges>
27
1   -0.272334
2   -0.276042
3   -0.272509
4   -0.184691
5   -0.276385
6   -0.151938
7   -0.149268
8   -0.216713
9   -0.185389
10   -0.019678
11   -0.02155
12   0.10193
13   -0.381817
14   0.142486
15   0.13921
16   0.15046
17   0.146283
18   0.138976
19   0.14293
20   0.150043
21   0.1502
22   0.148891
23   0.156846
24   0.161713
25   0.153099
26   0.166647
27   0.358597

$$$$

