PCCDB-ID:  25733
public computational chemistry database (PCCDB) project, http://pccdb.org

 36 35  0  0  0  0  0  0  0  0999 V2000
   12.7414    1.7584   -2.1341 C   0  0  0  0  0  0  0  0  0  0  0  0
    3.7699    3.5938    1.5876 C   0  0  0  0  0  0  0  0  0  0  0  0
   11.1857    4.4579   -2.3551 C   0  0  0  0  0  0  0  0  0  0  0  0
    7.9971    5.7008    0.9785 C   0  0  0  0  0  0  0  0  0  0  0  0
    3.0903    4.5631    0.6173 C   0  0  0  0  0  0  0  0  0  0  0  0
   10.7269    2.9959   -2.4050 C   0  0  0  0  0  0  0  0  0  0  0  0
    5.2186    3.2942    1.2195 C   0  0  0  0  0  0  0  0  0  0  0  0
   11.0765    5.0683   -0.9629 C   0  0  0  0  0  0  0  0  0  0  0  0
    7.3238    4.3346    0.9241 C   0  0  0  0  0  0  0  0  0  0  0  0
    9.4937    5.6425    0.7018 C   0  0  0  0  0  0  0  0  0  0  0  0
    1.7466    4.8567    0.9844 O   0  0  0  0  0  0  0  0  0  0  0  0
   11.4971    2.1312   -1.5794 O   0  0  0  0  0  0  0  0  0  0  0  0
    5.9587    4.5004    1.2700 O   0  0  0  0  0  0  0  0  0  0  0  0
    9.7048    5.1445   -0.6085 O   0  0  0  0  0  0  0  0  0  0  0  0
   12.6170    1.2785   -3.1186 H   0  0  0  0  0  0  0  0  0  0  0  0
   13.1940    1.0394   -1.4457 H   0  0  0  0  0  0  0  0  0  0  0  0
   13.4304    2.6090   -2.2512 H   0  0  0  0  0  0  0  0  0  0  0  0
    3.2165    2.6428    1.6077 H   0  0  0  0  0  0  0  0  0  0  0  0
    3.7276    4.0140    2.5993 H   0  0  0  0  0  0  0  0  0  0  0  0
   10.5719    5.0442   -3.0512 H   0  0  0  0  0  0  0  0  0  0  0  0
   12.2247    4.5456   -2.6979 H   0  0  0  0  0  0  0  0  0  0  0  0
    7.8384    6.1345    1.9737 H   0  0  0  0  0  0  0  0  0  0  0  0
    7.5165    6.3682    0.2538 H   0  0  0  0  0  0  0  0  0  0  0  0
    3.1449    4.1640   -0.4104 H   0  0  0  0  0  0  0  0  0  0  0  0
    3.6175    5.5199    0.6221 H   0  0  0  0  0  0  0  0  0  0  0  0
   10.7337    2.6321   -3.4456 H   0  0  0  0  0  0  0  0  0  0  0  0
    9.7026    2.9261   -2.0276 H   0  0  0  0  0  0  0  0  0  0  0  0
    5.2769    2.8547    0.2074 H   0  0  0  0  0  0  0  0  0  0  0  0
    5.6447    2.5531    1.9173 H   0  0  0  0  0  0  0  0  0  0  0  0
   11.5266    6.0756   -0.9489 H   0  0  0  0  0  0  0  0  0  0  0  0
   11.6240    4.4469   -0.2365 H   0  0  0  0  0  0  0  0  0  0  0  0
    7.8133    3.6373    1.6274 H   0  0  0  0  0  0  0  0  0  0  0  0
    7.4170    3.9008   -0.0830 H   0  0  0  0  0  0  0  0  0  0  0  0
    9.9991    4.9939    1.4390 H   0  0  0  0  0  0  0  0  0  0  0  0
    9.9334    6.6494    0.8016 H   0  0  0  0  0  0  0  0  0  0  0  0
    1.2485    4.0250    0.9538 H   0  0  0  0  0  0  0  0  0  0  0  0
  1 12  1  0  0  0  0
  1 16  1  0  0  0  0
  2 18  1  0  0  0  0
  2 19  1  0  0  0  0
  3  8  1  0  0  0  0
  4 22  1  0  0  0  0
  5 25  1  0  0  0  0
  5 11  1  0  0  0  0
  5  2  1  0  0  0  0
  6  3  1  0  0  0  0
  6 27  1  0  0  0  0
  6 12  1  0  0  0  0
  7 13  1  0  0  0  0
  7  2  1  0  0  0  0
  7 29  1  0  0  0  0
  8 30  1  0  0  0  0
  8 14  1  0  0  0  0
  8 31  1  0  0  0  0
  9  4  1  0  0  0  0
  9 13  1  0  0  0  0
  9 32  1  0  0  0  0
 10 35  1  0  0  0  0
 10  4  1  0  0  0  0
 10 34  1  0  0  0  0
 14 10  1  0  0  0  0
 15  1  1  0  0  0  0
 17  1  1  0  0  0  0
 20  3  1  0  0  0  0
 21  3  1  0  0  0  0
 23  4  1  0  0  0  0
 24  5  1  0  0  0  0
 26  6  1  0  0  0  0
 28  7  1  0  0  0  0
 33  9  1  0  0  0  0
 36 11  1  0  0  0  0
M  END
>  <HBA>
4

>  <HBD>
1

>  <TPSA>
47.92

>  <cid>
25733

>  <dipole>
3.13

>  <excitation_energy_1>
6.361

>  <excitation_energy_2>
6.387

>  <excitation_energy_3>
6.436

>  <excitation_energy_4>
6.482

>  <homo_energy>
-6.746

>  <homo_lumo_gap>
8.89

>  <logP>
0.829

>  <lumo_energy>
2.144

>  <melting_point>
-37.45

>  <molecular_refractivity>
54.6

>  <oscillator_strength_1>
0.023

>  <oscillator_strength_2>
0.0013

>  <oscillator_strength_3>
0.0075

>  <oscillator_strength_4>
0.0371

>  <open_babel_can_smiles>
COCCCOCCCOCCCO

>  <mulliken_charges>
36
1   -0.197647
2   -0.297477
3   -0.298761
4   -0.293309
5   -0.025237
6   -0.027509
7   -0.010719
8   -0.004601
9   -0.001639
10   -0.016104
11   -0.615529
12   -0.459211
13   -0.48165
14   -0.481033
15   0.129242
16   0.157995
17   0.12926
18   0.119573
19   0.158731
20   0.147312
21   0.136538
22   0.147189
23   0.156704
24   0.111912
25   0.168306
26   0.117622
27   0.161958
28   0.115414
29   0.120974
30   0.11703
31   0.135434
32   0.114117
33   0.139348
34   0.120922
35   0.121798
36   0.383047

>  <lowdin_charges>
36
1   -0.282908
2   -0.299517
3   -0.300566
4   -0.28696
5   -0.134512
6   -0.132466
7   -0.128422
8   -0.13037
9   -0.128503
10   -0.127519
11   -0.468696
12   -0.273672
13   -0.277272
14   -0.280759
15   0.130551
16   0.156398
17   0.129959
18   0.139397
19   0.155115
20   0.156647
21   0.146578
22   0.154588
23   0.157122
24   0.120389
25   0.157047
26   0.126702
27   0.153368
28   0.122709
29   0.129952
30   0.126177
31   0.135942
32   0.125321
33   0.134385
34   0.127664
35   0.128393
36   0.337738

$$$$

