PCCDB-ID:  66837
public computational chemistry database (PCCDB) project, http://pccdb.org

 23 23  0  0  0  0  0  0  0  0999 V2000
    2.9728    1.0210    0.3548 C   0  0  0  0  0  0  0  0  0  0  0  0
    1.9314   -0.9460    1.4921 C   0  0  0  0  0  0  0  0  0  0  0  0
    3.2354   -3.4124   -1.6988 C   0  0  0  0  0  0  0  0  0  0  0  0
    3.9903   -2.9024   -2.7520 C   0  0  0  0  0  0  0  0  0  0  0  0
    2.7527   -2.5860   -0.6877 C   0  0  0  0  0  0  0  0  0  0  0  0
    3.7772   -0.6881   -1.7714 C   0  0  0  0  0  0  0  0  0  0  0  0
    4.2486   -1.5291   -2.7873 C   0  0  0  0  0  0  0  0  0  0  0  0
    3.0134   -1.1956   -0.6966 C   0  0  0  0  0  0  0  0  0  0  0  0
    5.0628   -0.9995   -3.9302 C   0  0  0  0  0  0  0  0  0  0  0  0
    2.5372   -0.3637    0.3061 N   0  0  0  0  0  0  0  0  0  0  0  0
    5.8421   -1.6673   -4.5672 O   0  0  0  0  0  0  0  0  0  0  0  0
    4.8831    0.3166   -4.2432 O   0  0  0  0  0  0  0  0  0  0  0  0
    2.4848    1.5205    1.1935 H   0  0  0  0  0  0  0  0  0  0  0  0
    2.6867    1.5575   -0.5589 H   0  0  0  0  0  0  0  0  0  0  0  0
    4.0626    1.1221    0.4813 H   0  0  0  0  0  0  0  0  0  0  0  0
    1.6112   -0.1438    2.1593 H   0  0  0  0  0  0  0  0  0  0  0  0
    2.6235   -1.5993    2.0464 H   0  0  0  0  0  0  0  0  0  0  0  0
    1.0423   -1.5343    1.2342 H   0  0  0  0  0  0  0  0  0  0  0  0
    3.0185   -4.4765   -1.6551 H   0  0  0  0  0  0  0  0  0  0  0  0
    4.3809   -3.5375   -3.5387 H   0  0  0  0  0  0  0  0  0  0  0  0
    2.1805   -3.0284    0.1187 H   0  0  0  0  0  0  0  0  0  0  0  0
    4.0561    0.3595   -1.7777 H   0  0  0  0  0  0  0  0  0  0  0  0
    4.1106    0.6573   -3.7632 H   0  0  0  0  0  0  0  0  0  0  0  0
  1 15  1  0  0  0  0
  1 13  1  0  0  0  0
  2 17  1  0  0  0  0
  2 16  1  0  0  0  0
  3 19  1  0  0  0  0
  3  5  2  0  0  0  0
  4  3  1  0  0  0  0
  5 21  1  0  0  0  0
  6  8  2  0  0  0  0
  7  4  2  0  0  0  0
  7  6  1  0  0  0  0
  8  5  1  0  0  0  0
  8 10  1  0  0  0  0
  9  7  1  0  0  0  0
 10  1  1  0  0  0  0
 10  2  1  0  0  0  0
 11  9  2  0  0  0  0
 12  9  1  0  0  0  0
 12 23  1  0  0  0  0
 14  1  1  0  0  0  0
 18  2  1  0  0  0  0
 20  4  1  0  0  0  0
 22  6  1  0  0  0  0
M  END
>  <HBA>
3

>  <HBD>
1

>  <TPSA>
40.54

>  <cid>
66837

>  <dipole>
6.71

>  <excitation_energy_1>
3.782

>  <excitation_energy_2>
4.612

>  <excitation_energy_3>
4.78

>  <excitation_energy_4>
5.011

>  <homo_energy>
-5.557

>  <homo_lumo_gap>
4.498

>  <logP>
1.451

>  <lumo_energy>
-1.059

>  <melting_point>
104.99

>  <molecular_refractivity>
47.61

>  <oscillator_strength_1>
0.0527

>  <oscillator_strength_2>
0.0314

>  <oscillator_strength_3>
0.0042

>  <oscillator_strength_4>
0.0925

>  <open_babel_can_smiles>
CN(c1cccc(c1)C(=O)O)C

>  <mulliken_charges>
23
1   -0.31239
2   -0.314068
3   -0.139573
4   -0.163947
5   -0.186139
6   -0.283086
7   0.058466
8   0.374993
9   0.542717
10   -0.476224
11   -0.447469
12   -0.576815
13   0.160789
14   0.157892
15   0.159253
16   0.158934
17   0.157667
18   0.165709
19   0.136473
20   0.157785
21   0.13211
22   0.130217
23   0.406706

>  <lowdin_charges>
23
1   -0.348988
2   -0.352669
3   -0.139054
4   -0.163885
5   -0.195206
6   -0.221382
7   -0.047365
8   0.061276
9   0.197757
10   -0.116076
11   -0.240951
12   -0.364856
13   0.161906
14   0.150529
15   0.143565
16   0.16099
17   0.147024
18   0.154246
19   0.15999
20   0.176842
21   0.164172
22   0.156558
23   0.355576

$$$$

