PCCDB-ID:  34770
public computational chemistry database (PCCDB) project, http://pccdb.org

 32 32  0  0  1  0  0  0  0  0999 V2000
    1.0466    0.1949    1.4826 C   0  0  0  0  0  0  0  0  0  0  0  0
    4.0077   -1.4493   -4.1926 C   0  0  0  0  0  0  0  0  0  0  0  0
    2.5712    0.2564    1.3485 C   0  0  0  0  0  0  0  0  0  0  0  0
    4.7439   -1.1706   -2.8787 C   0  0  0  0  0  0  0  0  0  0  0  0
    3.0468    1.4201    0.4703 C   0  0  0  0  0  0  0  0  0  0  0  0
    5.1978    0.2881   -2.7436 C   0  0  0  0  0  0  0  0  0  0  0  0
    5.0710    2.6418   -0.5767 C   0  0  0  0  0  0  0  0  0  0  0  0
    4.5642    1.4951    0.3140 C   0  0  2  0  0  0  0  0  0  0  0  0
    6.3313    2.0434   -1.2189 C   0  0  2  0  0  0  0  0  0  0  0  0
    5.9143    0.5760   -1.4194 C   0  0  1  0  0  0  0  0  0  0  0  0
    7.4748    2.1609   -0.3748 O   0  0  0  0  0  0  0  0  0  0  0  0
    5.0703    0.2814   -0.2881 O   0  0  0  0  0  0  0  0  0  0  0  0
    0.7356   -0.6428    2.1170 H   0  0  0  0  0  0  0  0  0  0  0  0
    0.5673    0.0663    0.5042 H   0  0  0  0  0  0  0  0  0  0  0  0
    0.6473    1.1153    1.9269 H   0  0  0  0  0  0  0  0  0  0  0  0
    3.6957   -2.4978   -4.2595 H   0  0  0  0  0  0  0  0  0  0  0  0
    4.6436   -1.2353   -5.0607 H   0  0  0  0  0  0  0  0  0  0  0  0
    3.1075   -0.8286   -4.2821 H   0  0  0  0  0  0  0  0  0  0  0  0
    2.9485   -0.6817    0.9250 H   0  0  0  0  0  0  0  0  0  0  0  0
    3.0243    0.3490    2.3462 H   0  0  0  0  0  0  0  0  0  0  0  0
    5.6218   -1.8281   -2.8022 H   0  0  0  0  0  0  0  0  0  0  0  0
    4.0996   -1.4184   -2.0272 H   0  0  0  0  0  0  0  0  0  0  0  0
    2.6993    2.3726    0.8979 H   0  0  0  0  0  0  0  0  0  0  0  0
    2.5963    1.3401   -0.5293 H   0  0  0  0  0  0  0  0  0  0  0  0
    4.3282    0.9535   -2.8426 H   0  0  0  0  0  0  0  0  0  0  0  0
    5.8817    0.5400   -3.5677 H   0  0  0  0  0  0  0  0  0  0  0  0
    5.2985    3.5535   -0.0180 H   0  0  0  0  0  0  0  0  0  0  0  0
    4.3283    2.8868   -1.3461 H   0  0  0  0  0  0  0  0  0  0  0  0
    5.0136    1.5736    1.3182 H   0  0  0  0  0  0  0  0  0  0  0  0
    6.6091    2.5365   -2.1542 H   0  0  0  0  0  0  0  0  0  0  0  0
    6.7979   -0.0717   -1.3415 H   0  0  0  0  0  0  0  0  0  0  0  0
    7.3215    1.5961    0.4000 H   0  0  0  0  0  0  0  0  0  0  0  0
  1 15  1  0  0  0  0
  1 13  1  0  0  0  0
  2  4  1  0  0  0  0
  3  1  1  0  0  0  0
  3 20  1  0  0  0  0
  4 21  1  0  0  0  0
  4  6  1  0  0  0  0
  4 22  1  0  0  0  0
  5 23  1  0  0  0  0
  5  3  1  0  0  0  0
  6 10  1  0  0  0  0
  7 27  1  0  0  0  0
  7  8  1  0  0  0  0
  8  5  1  0  0  0  0
  8 29  1  1  0  0  0
  9 30  1  6  0  0  0
  9  7  1  0  0  0  0
  9 11  1  0  0  0  0
 10 31  1  1  0  0  0
 10  9  1  0  0  0  0
 10 12  1  0  0  0  0
 11 32  1  0  0  0  0
 12  8  1  0  0  0  0
 14  1  1  0  0  0  0
 16  2  1  0  0  0  0
 17  2  1  0  0  0  0
 18  2  1  0  0  0  0
 19  3  1  0  0  0  0
 24  5  1  0  0  0  0
 25  6  1  0  0  0  0
 26  6  1  0  0  0  0
 28  7  1  0  0  0  0
M  END
>  <HBA>
2

>  <HBD>
1

>  <TPSA>
29.46

>  <cid>
34770

>  <dipole>
1.15

>  <excitation_energy_1>
6.133

>  <excitation_energy_2>
6.424

>  <excitation_energy_3>
6.659

>  <excitation_energy_4>
6.691

>  <homo_energy>
-6.637

>  <homo_lumo_gap>
8.634

>  <logP>
2.105

>  <lumo_energy>
1.997

>  <melting_point>
3.03

>  <molecular_refractivity>
50.32

>  <oscillator_strength_1>
0.0169

>  <oscillator_strength_2>
0.0179

>  <oscillator_strength_3>
0.0043

>  <oscillator_strength_4>
0.0468

>  <open_babel_can_smiles>
CCC[C@H]1O[C@H]([C@@H](C1)O)CCC

>  <mulliken_charges>
32
1   -0.442991
2   -0.443247
3   -0.253366
4   -0.251623
5   -0.260123
6   -0.26372
7   -0.32349
8   0.154714
9   0.113835
10   0.117727
11   -0.63678
12   -0.524726
13   0.143561
14   0.141518
15   0.139201
16   0.143769
17   0.140159
18   0.140082
19   0.156846
20   0.127565
21   0.130004
22   0.153987
23   0.127186
24   0.130345
25   0.12867
26   0.129238
27   0.156958
28   0.14226
29   0.112349
30   0.139622
31   0.132919
32   0.397553

>  <lowdin_charges>
32
1   -0.445272
2   -0.443727
3   -0.274138
4   -0.274486
5   -0.281404
6   -0.290105
7   -0.312159
8   0.000378
9   -0.014265
10   -0.016268
11   -0.459952
12   -0.294413
13   0.151039
14   0.146049
15   0.145217
16   0.14912
17   0.14576
18   0.14577
19   0.151701
20   0.137779
21   0.139899
22   0.150919
23   0.142863
24   0.140811
25   0.140018
26   0.143987
27   0.161738
28   0.151501
29   0.124051
30   0.150111
31   0.142228
32   0.345249

$$$$

