PCCDB-ID:  11981
public computational chemistry database (PCCDB) project, http://pccdb.org

 17 17  0  0  0  0  0  0  0  0999 V2000
    0.8900    0.2288    0.0445 C   0  0  0  0  0  0  0  0  0  0  0  0
    5.1968   -0.0517   -0.4398 C   0  0  0  0  0  0  0  0  0  0  0  0
    4.4280   -1.2004   -0.4100 C   0  0  0  0  0  0  0  0  0  0  0  0
    3.1724    1.2797   -0.1536 C   0  0  0  0  0  0  0  0  0  0  0  0
    2.3874    0.1306   -0.1222 C   0  0  0  0  0  0  0  0  0  0  0  0
    4.5625    1.1967   -0.3107 C   0  0  0  0  0  0  0  0  0  0  0  0
    3.0350   -1.1213   -0.2533 C   0  0  0  0  0  0  0  0  0  0  0  0
    2.2021   -2.2764   -0.2148 N   0  0  0  0  0  0  0  0  0  0  0  0
    5.2522    2.3660   -0.3312 O   0  0  0  0  0  0  0  0  0  0  0  0
    2.7835   -3.3525   -0.3348 O   0  0  0  0  0  0  0  0  0  0  0  0
    0.5824    1.2726    0.1543 H   0  0  0  0  0  0  0  0  0  0  0  0
    0.5499   -0.3300    0.9218 H   0  0  0  0  0  0  0  0  0  0  0  0
    0.3667   -0.1983   -0.8172 H   0  0  0  0  0  0  0  0  0  0  0  0
    6.2772   -0.1059   -0.5607 H   0  0  0  0  0  0  0  0  0  0  0  0
    4.8720   -2.1859   -0.5058 H   0  0  0  0  0  0  0  0  0  0  0  0
    2.7230    2.2632   -0.0567 H   0  0  0  0  0  0  0  0  0  0  0  0
    6.1985    2.1807   -0.4422 H   0  0  0  0  0  0  0  0  0  0  0  0
  1 11  1  0  0  0  0
  1 12  1  0  0  0  0
  2  3  2  0  0  0  0
  2  6  1  0  0  0  0
  3  7  1  0  0  0  0
  4  5  1  0  0  0  0
  4 16  1  0  0  0  0
  5  1  1  0  0  0  0
  6  4  2  0  0  0  0
  7  8  1  0  0  0  0
  7  5  2  0  0  0  0
  9  6  1  0  0  0  0
 10  8  2  0  0  0  0
 13  1  1  0  0  0  0
 14  2  1  0  0  0  0
 15  3  1  0  0  0  0
 17  9  1  0  0  0  0
M  END
>  <HBA>
3

>  <HBD>
1

>  <TPSA>
49.66

>  <cid>
11981

>  <dipole>
4.16

>  <excitation_energy_1>
1.512

>  <excitation_energy_2>
3.967

>  <excitation_energy_3>
4.037

>  <excitation_energy_4>
4.243

>  <homo_energy>
-5.616

>  <homo_lumo_gap>
3.222

>  <logP>
2.099

>  <lumo_energy>
-2.395

>  <melting_point>
76.22

>  <molecular_refractivity>
38.89

>  <oscillator_strength_1>
0.0002

>  <oscillator_strength_2>
0.0246

>  <oscillator_strength_3>
0.2784

>  <oscillator_strength_4>
0.0

>  <open_babel_can_smiles>
O=Nc1ccc(cc1C)O

>  <mulliken_charges>
17
1   -0.518249
2   -0.208585
3   -0.124829
4   -0.238406
5   0.171248
6   0.381967
7   0.166455
8   -0.071904
9   -0.625752
10   -0.312649
11   0.153251
12   0.182477
13   0.18156
14   0.133329
15   0.167373
16   0.1466
17   0.416112

>  <lowdin_charges>
17
1   -0.440261
2   -0.209845
3   -0.116817
4   -0.199034
5   0.038948
6   0.125672
7   -0.052603
8   0.033582
9   -0.35125
10   -0.203007
11   0.155414
12   0.175193
13   0.174934
14   0.157317
15   0.179152
16   0.170581
17   0.362025

$$$$

