PCCDB-ID:  15660
public computational chemistry database (PCCDB) project, http://pccdb.org

 41 42  0  0  1  0  0  0  0  0999 V2000
   -1.2145   -0.1131   -0.1202 C   0  0  0  0  0  0  0  0  0  0  0  0
   -0.7541    1.1739    1.9984 C   0  0  0  0  0  0  0  0  0  0  0  0
   -1.1347    4.9234   -0.5336 C   0  0  0  0  0  0  0  0  0  0  0  0
    1.1011    3.7992   -0.2252 C   0  0  0  0  0  0  0  0  0  0  0  0
   -0.7466   -1.4051    0.5668 C   0  0  0  0  0  0  0  0  0  0  0  0
   -0.2949   -0.1213    2.6859 C   0  0  0  0  0  0  0  0  0  0  0  0
   -0.4949    6.2813   -0.2069 C   0  0  0  0  0  0  0  0  0  0  0  0
    1.7412    5.1593    0.0938 C   0  0  0  0  0  0  0  0  0  0  0  0
   -1.0632    2.4113   -0.2322 C   0  0  0  0  0  0  0  0  0  0  0  0
   -0.5440    1.1424    0.4719 C   0  0  2  0  0  0  0  0  0  0  0  0
   -0.3956    3.7499    0.1392 C   0  0  2  0  0  0  0  0  0  0  0  0
   -0.9660   -1.3660    2.0915 C   0  0  2  0  0  0  0  0  0  0  0  0
    1.0004    6.3236   -0.5764 C   0  0  2  0  0  0  0  0  0  0  0  0
   -0.5104   -2.5622    2.8137 N   0  0  0  0  0  0  0  0  0  0  0  0
    1.6812    7.5868   -0.2580 N   0  0  0  0  0  0  0  0  0  0  0  0
   -2.3062   -0.0193   -0.0103 H   0  0  0  0  0  0  0  0  0  0  0  0
   -1.0183   -0.1672   -1.1994 H   0  0  0  0  0  0  0  0  0  0  0  0
   -0.2251    2.0265    2.4416 H   0  0  0  0  0  0  0  0  0  0  0  0
   -1.8240    1.3347    2.2038 H   0  0  0  0  0  0  0  0  0  0  0  0
   -1.1265    4.7716   -1.6242 H   0  0  0  0  0  0  0  0  0  0  0  0
   -2.1906    4.9217   -0.2315 H   0  0  0  0  0  0  0  0  0  0  0  0
    1.6505    3.0079    0.2993 H   0  0  0  0  0  0  0  0  0  0  0  0
    1.2104    3.5894   -1.3008 H   0  0  0  0  0  0  0  0  0  0  0  0
    0.3271   -1.5569    0.3725 H   0  0  0  0  0  0  0  0  0  0  0  0
   -1.2671   -2.2732    0.1380 H   0  0  0  0  0  0  0  0  0  0  0  0
   -0.4962   -0.0829    3.7626 H   0  0  0  0  0  0  0  0  0  0  0  0
    0.7967   -0.2244    2.5750 H   0  0  0  0  0  0  0  0  0  0  0  0
   -0.5938    6.4843    0.8713 H   0  0  0  0  0  0  0  0  0  0  0  0
   -1.0298    7.0887   -0.7267 H   0  0  0  0  0  0  0  0  0  0  0  0
    2.7927    5.1767   -0.2147 H   0  0  0  0  0  0  0  0  0  0  0  0
    1.7321    5.3184    1.1842 H   0  0  0  0  0  0  0  0  0  0  0  0
   -2.1433    2.4952   -0.0353 H   0  0  0  0  0  0  0  0  0  0  0  0
   -0.9678    2.2695   -1.3198 H   0  0  0  0  0  0  0  0  0  0  0  0
    0.5373    1.0526    0.2833 H   0  0  0  0  0  0  0  0  0  0  0  0
   -0.4798    3.8959    1.2275 H   0  0  0  0  0  0  0  0  0  0  0  0
   -2.0482   -1.2866    2.2772 H   0  0  0  0  0  0  0  0  0  0  0  0
    1.0846    6.1932   -1.6662 H   0  0  0  0  0  0  0  0  0  0  0  0
    0.4881   -2.6934    2.6441 H   0  0  0  0  0  0  0  0  0  0  0  0
   -0.9654   -3.3882    2.4239 H   0  0  0  0  0  0  0  0  0  0  0  0
    1.5956    7.7677    0.7435 H   0  0  0  0  0  0  0  0  0  0  0  0
    1.1973    8.3585   -0.7178 H   0  0  0  0  0  0  0  0  0  0  0  0
  1 16  1  0  0  0  0
  1 10  1  0  0  0  0
  1  5  1  0  0  0  0
  2 19  1  0  0  0  0
  2 18  1  0  0  0  0
  2  6  1  0  0  0  0
  3 21  1  0  0  0  0
  3  7  1  0  0  0  0
  3 11  1  0  0  0  0
  4  8  1  0  0  0  0
  4 11  1  0  0  0  0
  4 22  1  0  0  0  0
  5 12  1  0  0  0  0
  6 26  1  0  0  0  0
  7 28  1  0  0  0  0
  8 31  1  0  0  0  0
  9 32  1  0  0  0  0
  9 11  1  0  0  0  0
  9 10  1  0  0  0  0
 10 34  1  6  0  0  0
 10  2  1  0  0  0  0
 11 35  1  1  0  0  0
 12 36  1  1  0  0  0
 12  6  1  0  0  0  0
 12 14  1  0  0  0  0
 13 37  1  6  0  0  0
 13 15  1  0  0  0  0
 13  7  1  0  0  0  0
 13  8  1  0  0  0  0
 15 40  1  0  0  0  0
 17  1  1  0  0  0  0
 20  3  1  0  0  0  0
 23  4  1  0  0  0  0
 24  5  1  0  0  0  0
 25  5  1  0  0  0  0
 27  6  1  0  0  0  0
 29  7  1  0  0  0  0
 30  8  1  0  0  0  0
 33  9  1  0  0  0  0
 38 14  1  0  0  0  0
 39 14  1  0  0  0  0
 41 15  1  0  0  0  0
M  END
>  <HBA>
2

>  <HBD>
2

>  <TPSA>
52.04

>  <cid>
15660

>  <dipole>
1.33

>  <excitation_energy_1>
5.584

>  <excitation_energy_2>
5.586

>  <excitation_energy_3>
6.082

>  <excitation_energy_4>
6.086

>  <homo_energy>
-6.163

>  <homo_lumo_gap>
8.381

>  <logP>
3.812

>  <lumo_energy>
2.218

>  <melting_point>
122.44

>  <molecular_refractivity>
65.79

>  <oscillator_strength_1>
0.0271

>  <oscillator_strength_2>
0.0297

>  <oscillator_strength_3>
0.0002

>  <oscillator_strength_4>
0.0023

>  <open_babel_can_smiles>
N[C@@H]1CC[C@H](CC1)C[C@@H]1CC[C@H](CC1)N

>  <mulliken_charges>
41
1   -0.264913
2   -0.269759
3   -0.264861
4   -0.269793
5   -0.266945
6   -0.254138
7   -0.267014
8   -0.253791
9   -0.260571
10   -0.079626
11   -0.079623
12   0.027129
13   0.026789
14   -0.711961
15   -0.711753
16   0.125021
17   0.128172
18   0.134113
19   0.124814
20   0.125014
21   0.128145
22   0.134065
23   0.124772
24   0.116893
25   0.120301
26   0.145712
27   0.116663
28   0.11688
29   0.120354
30   0.14571
31   0.116677
32   0.12093
33   0.120968
34   0.118619
35   0.118664
36   0.123547
37   0.123504
38   0.285718
39   0.289956
40   0.2857
41   0.289921

>  <lowdin_charges>
41
1   -0.27387
2   -0.279293
3   -0.27425
4   -0.279547
5   -0.295304
6   -0.275892
7   -0.295533
8   -0.276291
9   -0.270012
10   -0.129054
11   -0.128929
12   -0.068696
13   -0.068435
14   -0.547919
15   -0.548356
16   0.13462
17   0.140573
18   0.144785
19   0.135287
20   0.134653
21   0.14093
22   0.145137
23   0.135138
24   0.131303
25   0.13884
26   0.150305
27   0.131361
28   0.131183
29   0.139271
30   0.150732
31   0.131429
32   0.135958
33   0.135877
34   0.131539
35   0.131428
36   0.132467
37   0.132332
38   0.246422
39   0.251596
40   0.246256
41   0.25196

$$$$

