PCCDB-ID:  48809
public computational chemistry database (PCCDB) project, http://pccdb.org

 37 37  0  0  1  0  0  0  0  0999 V2000
    4.6976   -2.8015   -0.2002 C   0  0  0  0  0  0  0  0  0  0  0  0
    8.6268    3.3806    3.3340 C   0  0  0  0  0  0  0  0  0  0  0  0
    3.3799    1.5670    0.2042 C   0  0  0  0  0  0  0  0  0  0  0  0
    4.6195   -1.2964   -0.4775 C   0  0  0  0  0  0  0  0  0  0  0  0
    7.1503    3.0389    3.1126 C   0  0  0  0  0  0  0  0  0  0  0  0
    4.8245   -0.4516    0.7883 C   0  0  0  0  0  0  0  0  0  0  0  0
    5.3152    1.8696    1.7837 C   0  0  0  0  0  0  0  0  0  0  0  0
    4.7947    1.0763    0.5576 C   0  0  2  0  0  0  0  0  0  0  0  0
    7.3053    2.8619    0.6146 C   0  0  0  0  0  0  0  0  0  0  0  0
    7.6727    0.8580    1.9487 C   0  0  0  0  0  0  0  0  0  0  0  0
    8.8439    1.2379   -0.0227 C   0  0  0  0  0  0  0  0  0  0  0  0
    6.8549    2.1404    1.8656 C   0  0  1  0  0  0  0  0  0  0  0  0
    8.1856    2.4846   -0.2283 N   0  0  0  0  0  0  0  0  0  0  0  0
    8.5537    0.4544    1.1206 N   0  0  0  0  0  0  0  0  0  0  0  0
    6.6703    4.0347    0.4259 O   0  0  0  0  0  0  0  0  0  0  0  0
    7.4587    0.0761    3.0309 O   0  0  0  0  0  0  0  0  0  0  0  0
    9.6559    0.8539   -0.8333 O   0  0  0  0  0  0  0  0  0  0  0  0
    4.5577   -3.3820   -1.1189 H   0  0  0  0  0  0  0  0  0  0  0  0
    3.9248   -3.1151    0.5128 H   0  0  0  0  0  0  0  0  0  0  0  0
    5.6714   -3.0755    0.2227 H   0  0  0  0  0  0  0  0  0  0  0  0
    8.7339    4.0212    4.2154 H   0  0  0  0  0  0  0  0  0  0  0  0
    9.0471    3.9207    2.4788 H   0  0  0  0  0  0  0  0  0  0  0  0
    9.2334    2.4835    3.4974 H   0  0  0  0  0  0  0  0  0  0  0  0
    2.9741    1.0383   -0.6636 H   0  0  0  0  0  0  0  0  0  0  0  0
    3.3817    2.6378   -0.0298 H   0  0  0  0  0  0  0  0  0  0  0  0
    2.6902    1.4069    1.0434 H   0  0  0  0  0  0  0  0  0  0  0  0
    3.6497   -1.0645   -0.9365 H   0  0  0  0  0  0  0  0  0  0  0  0
    5.3842   -1.0226   -1.2175 H   0  0  0  0  0  0  0  0  0  0  0  0
    6.5663    3.9571    2.9950 H   0  0  0  0  0  0  0  0  0  0  0  0
    6.7503    2.5371    4.0043 H   0  0  0  0  0  0  0  0  0  0  0  0
    5.7804   -0.7458    1.2371 H   0  0  0  0  0  0  0  0  0  0  0  0
    4.0501   -0.7086    1.5286 H   0  0  0  0  0  0  0  0  0  0  0  0
    4.9926    1.3666    2.7079 H   0  0  0  0  0  0  0  0  0  0  0  0
    4.8417    2.8565    1.8044 H   0  0  0  0  0  0  0  0  0  0  0  0
    5.4467    1.2989   -0.2996 H   0  0  0  0  0  0  0  0  0  0  0  0
    7.0401    4.4051   -0.3998 H   0  0  0  0  0  0  0  0  0  0  0  0
    6.7404    0.4438    3.5700 H   0  0  0  0  0  0  0  0  0  0  0  0
  1 20  1  0  0  0  0
  1 19  1  0  0  0  0
  2 23  1  0  0  0  0
  2 21  1  0  0  0  0
  3  8  1  0  0  0  0
  3 26  1  0  0  0  0
  4  1  1  0  0  0  0
  4  6  1  0  0  0  0
  5  2  1  0  0  0  0
  5 30  1  0  0  0  0
  6 31  1  0  0  0  0
  6 32  1  0  0  0  0
  7 34  1  0  0  0  0
  7 33  1  0  0  0  0
  8 35  1  6  0  0  0
  8  6  1  0  0  0  0
  8  7  1  0  0  0  0
  9 12  1  0  0  0  0
 10 16  1  0  0  0  0
 11 14  1  0  0  0  0
 12  7  1  6  0  0  0
 12 10  1  0  0  0  0
 12  5  1  0  0  0  0
 13 11  2  0  0  0  0
 13  9  2  0  0  0  0
 14 10  2  0  0  0  0
 15  9  1  0  0  0  0
 16 37  1  0  0  0  0
 17 11  2  0  0  0  0
 18  1  1  0  0  0  0
 22  2  1  0  0  0  0
 24  3  1  0  0  0  0
 25  3  1  0  0  0  0
 27  4  1  0  0  0  0
 28  4  1  0  0  0  0
 29  5  1  0  0  0  0
 36 15  1  0  0  0  0
M  END
>  <HBA>
5

>  <HBD>
2

>  <TPSA>
75.27

>  <cid>
48809

>  <dipole>
7.54

>  <excitation_energy_1>
4.058

>  <excitation_energy_2>
4.29

>  <excitation_energy_3>
5.354

>  <excitation_energy_4>
5.578

>  <homo_energy>
-6.936

>  <homo_lumo_gap>
5.448

>  <logP>
2.233

>  <lumo_energy>
-1.488

>  <melting_point>
139.58

>  <molecular_refractivity>
71.85

>  <oscillator_strength_1>
0.0

>  <oscillator_strength_2>
0.0

>  <oscillator_strength_3>
0.0003

>  <oscillator_strength_4>
0.0331

>  <open_babel_can_smiles>
CCC[C@H](C[C@@]1(CC)C(=N[C](=[N]=C1O)=O)O)C

>  <mulliken_charges>
37
1   -0.445623
2   -0.47016
3   -0.458902
4   -0.257356
5   -0.27117
6   -0.276128
7   -0.285201
8   -0.081986
9   0.571837
10   0.561808
11   0.621986
12   -0.119593
13   -0.523333
14   -0.475228
15   -0.602791
16   -0.586547
17   -0.437233
18   0.145757
19   0.13846
20   0.155168
21   0.159983
22   0.168776
23   0.175861
24   0.156665
25   0.147961
26   0.141493
27   0.133911
28   0.144588
29   0.176791
30   0.130337
31   0.159336
32   0.122012
33   0.123868
34   0.170724
35   0.141815
36   0.423169
37   0.418943

>  <lowdin_charges>
37
1   -0.444909
2   -0.454509
3   -0.445099
4   -0.27435
5   -0.268122
6   -0.286511
7   -0.269051
8   -0.130572
9   0.150898
10   0.15154
11   0.173585
12   -0.051224
13   -0.223013
14   -0.189893
15   -0.342249
16   -0.331038
17   -0.213894
18   0.152028
19   0.145774
20   0.15263
21   0.161954
22   0.161225
23   0.163652
24   0.156018
25   0.14953
26   0.147123
27   0.13907
28   0.146546
29   0.164798
30   0.141121
31   0.152427
32   0.135903
33   0.139071
34   0.16335
35   0.145733
36   0.370304
37   0.360153

$$$$

