PCCDB-ID:  39498
public computational chemistry database (PCCDB) project, http://pccdb.org

 30 32  0  0  1  0  0  0  0  0999 V2000
   -0.9156    1.3459    1.1302 C   0  0  0  0  0  0  0  0  0  0  0  0
   -0.9471    1.0927   -1.3766 C   0  0  0  0  0  0  0  0  0  0  0  0
    1.2244    1.5532   -0.1841 C   0  0  0  0  0  0  0  0  0  0  0  0
   -1.3380   -0.9142    0.0978 C   0  0  0  0  0  0  0  0  0  0  0  0
    0.8454   -0.4493    1.2999 C   0  0  0  0  0  0  0  0  0  0  0  0
    0.8012   -0.7114   -1.2032 C   0  0  0  0  0  0  0  0  0  0  0  0
   -1.5705    0.6041   -0.0541 C   0  0  1  0  0  0  0  0  0  0  0  0
    0.6023    1.0676    1.1409 C   0  0  2  0  0  0  0  0  0  0  0  0
    0.5682    0.8059   -1.3631 C   0  0  1  0  0  0  0  0  0  0  0  0
    0.1795   -1.2045    0.1253 C   0  0  2  0  0  0  0  0  0  0  0  0
    0.4426   -2.6621    0.1516 N   0  0  0  0  0  0  0  0  0  0  0  0
    0.2307   -3.4370    1.2750 N   0  0  0  0  0  0  0  0  0  0  0  0
    0.8694   -4.4887    1.3219 O   0  0  0  0  0  0  0  0  0  0  0  0
   -0.5971   -3.0564    2.1012 O   0  0  0  0  0  0  0  0  0  0  0  0
   -1.3656    1.0173    2.0765 H   0  0  0  0  0  0  0  0  0  0  0  0
   -1.0982    2.4257    1.0461 H   0  0  0  0  0  0  0  0  0  0  0  0
   -1.1227    2.1692   -1.5059 H   0  0  0  0  0  0  0  0  0  0  0  0
   -1.4211    0.5868   -2.2288 H   0  0  0  0  0  0  0  0  0  0  0  0
    2.3093    1.3786   -0.1804 H   0  0  0  0  0  0  0  0  0  0  0  0
    1.0762    2.6354   -0.2978 H   0  0  0  0  0  0  0  0  0  0  0  0
   -1.7900   -1.4601   -0.7404 H   0  0  0  0  0  0  0  0  0  0  0  0
   -1.8002   -1.2834    1.0163 H   0  0  0  0  0  0  0  0  0  0  0  0
    0.4337   -0.8048    2.2494 H   0  0  0  0  0  0  0  0  0  0  0  0
    1.9237   -0.6626    1.3063 H   0  0  0  0  0  0  0  0  0  0  0  0
    1.8803   -0.9261   -1.2104 H   0  0  0  0  0  0  0  0  0  0  0  0
    0.3526   -1.2586   -2.0426 H   0  0  0  0  0  0  0  0  0  0  0  0
   -2.6505    0.7981   -0.0605 H   0  0  0  0  0  0  0  0  0  0  0  0
    1.0696    1.5925    1.9837 H   0  0  0  0  0  0  0  0  0  0  0  0
    1.0182    1.1335   -2.3089 H   0  0  0  0  0  0  0  0  0  0  0  0
    1.3049   -2.9824   -0.2773 H   0  0  0  0  0  0  0  0  0  0  0  0
  1  8  1  0  0  0  0
  1 15  1  0  0  0  0
  2  9  1  0  0  0  0
  2  7  1  0  0  0  0
  3 19  1  0  0  0  0
  3  8  1  0  0  0  0
  4 10  1  0  0  0  0
  4 22  1  0  0  0  0
  5 24  1  0  0  0  0
  5 23  1  0  0  0  0
  6 10  1  0  0  0  0
  7 27  1  6  0  0  0
  7  4  1  0  0  0  0
  7  1  1  0  0  0  0
  8  5  1  0  0  0  0
  8 28  1  1  0  0  0
  9 29  1  6  0  0  0
  9  6  1  0  0  0  0
  9  3  1  0  0  0  0
 10 11  1  1  0  0  0
 10  5  1  0  0  0  0
 11 12  1  0  0  0  0
 12 13  2  0  0  0  0
 12 14  2  0  0  0  0
 16  1  1  0  0  0  0
 17  2  1  0  0  0  0
 18  2  1  0  0  0  0
 20  3  1  0  0  0  0
 21  4  1  0  0  0  0
 25  6  1  0  0  0  0
 26  6  1  0  0  0  0
 30 11  1  0  0  0  0
M  END
>  <HBA>
1

>  <HBD>
1

>  <TPSA>
57.85

>  <cid>
39498

>  <dipole>
4.72

>  <excitation_energy_1>
4.515

>  <excitation_energy_2>
5.127

>  <excitation_energy_3>
5.516

>  <excitation_energy_4>
5.862

>  <homo_energy>
-7.456

>  <homo_lumo_gap>
6.297

>  <logP>
2.651

>  <lumo_energy>
-1.159

>  <melting_point>
107.47

>  <molecular_refractivity>
54.79

>  <oscillator_strength_1>
0.0001

>  <oscillator_strength_2>
0.0188

>  <oscillator_strength_3>
0.0772

>  <oscillator_strength_4>
0.0001

>  <open_babel_can_smiles>
O=N(=O)N[C@]12C[C@H]3C[C@@H](C2)C[C@@H](C1)C3

>  <mulliken_charges>
30
1   -0.268311
2   -0.266745
3   -0.266958
4   -0.273324
5   -0.282065
6   -0.30315
7   -0.099656
8   -0.097419
9   -0.093418
10   0.205632
11   -0.434934
12   0.623443
13   -0.420706
14   -0.414615
15   0.137939
16   0.129858
17   0.131612
18   0.130809
19   0.128918
20   0.132864
21   0.136038
22   0.173309
23   0.167813
24   0.126418
25   0.129208
26   0.148361
27   0.125827
28   0.125973
29   0.125511
30   0.341769

>  <lowdin_charges>
30
1   -0.279639
2   -0.280847
3   -0.277824
4   -0.288607
5   -0.291817
6   -0.282642
7   -0.129062
8   -0.130399
9   -0.128039
10   0.059611
11   -0.236963
12   0.33908
13   -0.278135
14   -0.271449
15   0.145985
16   0.140748
17   0.141519
18   0.14304
19   0.139036
20   0.142084
21   0.148084
22   0.163833
23   0.160458
24   0.139444
25   0.138802
26   0.151177
27   0.142919
28   0.145708
29   0.144493
30   0.289402

$$$$

