PCCDB-ID:  23363
public computational chemistry database (PCCDB) project, http://pccdb.org

 17 18  0  0  0  0  0  0  0  0999 V2000
   -2.3624   -0.7454   -0.0204 C   0  0  0  0  0  0  0  0  0  0  0  0
   -2.3928    0.6695   -0.0305 C   0  0  0  0  0  0  0  0  0  0  0  0
   -1.1626   -1.4235   -0.0034 C   0  0  0  0  0  0  0  0  0  0  0  0
   -1.2197    1.3956   -0.0242 C   0  0  0  0  0  0  0  0  0  0  0  0
    2.3373   -0.6776    0.0271 C   0  0  0  0  0  0  0  0  0  0  0  0
    2.3642    0.7246    0.0185 C   0  0  0  0  0  0  0  0  0  0  0  0
    0.0670   -0.7159    0.0042 C   0  0  0  0  0  0  0  0  0  0  0  0
    0.0049    0.7053   -0.0055 C   0  0  0  0  0  0  0  0  0  0  0  0
    1.2413   -1.4128    0.0208 N   0  0  0  0  0  0  0  0  0  0  0  0
    1.2106    1.4326    0.0036 N   0  3  0  0  0  0  0  0  0  0  0  0
    1.1996    2.6982   -0.0021 O   0  5  0  0  0  0  0  0  0  0  0  0
   -3.2964   -1.3001   -0.0258 H   0  0  0  0  0  0  0  0  0  0  0  0
   -3.3473    1.1872   -0.0446 H   0  0  0  0  0  0  0  0  0  0  0  0
   -1.1138   -2.5074    0.0050 H   0  0  0  0  0  0  0  0  0  0  0  0
   -1.2006    2.4784   -0.0315 H   0  0  0  0  0  0  0  0  0  0  0  0
    3.2901   -1.2037    0.0403 H   0  0  0  0  0  0  0  0  0  0  0  0
    3.2655    1.3222    0.0246 H   0  0  0  0  0  0  0  0  0  0  0  0
  1  3  2  0  0  0  0
  2  4  2  0  0  0  0
  2  1  1  0  0  0  0
  3  7  1  0  0  0  0
  3 14  1  0  0  0  0
  4  8  1  0  0  0  0
  5 16  1  0  0  0  0
  6 17  1  0  0  0  0
  6  5  2  0  0  0  0
  7  9  2  0  0  0  0
  8 10  2  0  0  0  0
  8  7  1  0  0  0  0
  9  5  1  0  0  0  0
 10  6  1  0  0  0  0
 11 10  1  0  0  0  0
 12  1  1  0  0  0  0
 13  2  1  0  0  0  0
 15  4  1  0  0  0  0
M  CHG  2  10   1  11  -1
M  END
>  <HBA>
2

>  <HBD>
0

>  <TPSA>
38.35

>  <cid>
23363

>  <dipole>
1.57

>  <excitation_energy_1>
3.685

>  <excitation_energy_2>
3.848

>  <excitation_energy_3>
4.211

>  <excitation_energy_4>
4.239

>  <homo_energy>
-6.231

>  <homo_lumo_gap>
4.065

>  <logP>
1.663

>  <lumo_energy>
-2.166

>  <melting_point>
78.66

>  <molecular_refractivity>
42.91

>  <oscillator_strength_1>
0.0

>  <oscillator_strength_2>
0.1112

>  <oscillator_strength_3>
0.0026

>  <oscillator_strength_4>
0.0015

>  <open_babel_can_smiles>
[O-][n+]1ccnc2c1cccc2

>  <mulliken_charges>
17
1   -0.124469
2   -0.138345
3   -0.156856
4   -0.145799
5   0.020428
6   0.032511
7   0.251856
8   0.306029
9   -0.482018
10   -0.050096
11   -0.487191
12   0.145008
13   0.146908
14   0.1558
15   0.182265
16   0.159672
17   0.184297

>  <lowdin_charges>
17
1   -0.142868
2   -0.144937
3   -0.145371
4   -0.144833
5   -0.087611
6   -0.157783
7   0.039637
8   0.004001
9   -0.155782
10   0.228819
11   -0.344556
12   0.166466
13   0.166845
14   0.173604
15   0.186209
16   0.169446
17   0.188717

$$$$

