PCCDB-ID:  21860
public computational chemistry database (PCCDB) project, http://pccdb.org

 18 19  0  0  0  0  0  0  0  0999 V2000
    2.1441   -0.6696   -0.0156 C   0  0  0  0  0  0  0  0  0  0  0  0
    2.1053    0.7361    0.0330 C   0  0  0  0  0  0  0  0  0  0  0  0
    0.9743   -1.4227   -0.0410 C   0  0  0  0  0  0  0  0  0  0  0  0
    0.8911    1.4207    0.0561 C   0  0  0  0  0  0  0  0  0  0  0  0
   -0.2621   -0.7591   -0.0176 C   0  0  0  0  0  0  0  0  0  0  0  0
   -0.2802    0.6660    0.0304 C   0  0  0  0  0  0  0  0  0  0  0  0
   -1.6344   -1.1800   -0.0219 C   0  0  0  0  0  0  0  0  0  0  0  0
   -2.4088   -0.0485    0.0115 C   0  0  0  0  0  0  0  0  0  0  0  0
   -1.6092    1.0706    0.0472 N   0  0  0  0  0  0  0  0  0  0  0  0
   -2.1729   -2.4536   -0.1127 O   0  0  0  0  0  0  0  0  0  0  0  0
   -3.7533    0.0940    0.0041 O   0  0  0  0  0  0  0  0  0  0  0  0
    3.1062   -1.1743   -0.0385 H   0  0  0  0  0  0  0  0  0  0  0  0
    3.0345    1.2984    0.0514 H   0  0  0  0  0  0  0  0  0  0  0  0
    1.0140   -2.5078   -0.0908 H   0  0  0  0  0  0  0  0  0  0  0  0
    0.8590    2.5067    0.0928 H   0  0  0  0  0  0  0  0  0  0  0  0
   -1.9525    2.0176    0.0074 H   0  0  0  0  0  0  0  0  0  0  0  0
   -1.9229   -2.9492    0.6843 H   0  0  0  0  0  0  0  0  0  0  0  0
   -4.1191   -0.8046   -0.0698 H   0  0  0  0  0  0  0  0  0  0  0  0
  1  2  2  0  0  0  0
  2 13  1  0  0  0  0
  2  4  1  0  0  0  0
  3  5  2  0  0  0  0
  3  1  1  0  0  0  0
  4 15  1  0  0  0  0
  5  6  1  0  0  0  0
  6  9  1  0  0  0  0
  6  4  2  0  0  0  0
  7  5  1  0  0  0  0
  7  8  2  0  0  0  0
  8  9  1  0  0  0  0
 10  7  1  0  0  0  0
 10 17  1  0  0  0  0
 11  8  1  0  0  0  0
 12  1  1  0  0  0  0
 14  3  1  0  0  0  0
 16  9  1  0  0  0  0
 18 11  1  0  0  0  0
M  END
>  <HBA>
2

>  <HBD>
3

>  <TPSA>
56.25

>  <cid>
21860

>  <dipole>
1.67

>  <excitation_energy_1>
3.946

>  <excitation_energy_2>
4.459

>  <excitation_energy_3>
4.671

>  <excitation_energy_4>
4.823

>  <homo_energy>
-4.936

>  <homo_lumo_gap>
5.067

>  <logP>
1.579

>  <lumo_energy>
0.131

>  <melting_point>
176.88

>  <molecular_refractivity>
42.34

>  <oscillator_strength_1>
0.0033

>  <oscillator_strength_2>
0.0806

>  <oscillator_strength_3>
0.0089

>  <oscillator_strength_4>
0.0122

>  <open_babel_can_smiles>
Oc1[nH]c2c(c1O)cccc2

>  <mulliken_charges>
18
1   -0.138244
2   -0.15517
3   -0.212771
4   -0.171502
5   0.127404
6   0.313334
7   0.132185
8   0.520104
9   -0.745436
10   -0.678413
11   -0.639026
12   0.118303
13   0.119974
14   0.118602
15   0.120168
16   0.333951
17   0.407877
18   0.428661

>  <lowdin_charges>
18
1   -0.172769
2   -0.174508
3   -0.172433
4   -0.183498
5   -0.040833
6   0.034059
7   -0.038519
8   0.100663
9   -0.211196
10   -0.4191
11   -0.367118
12   0.153615
13   0.155012
14   0.152183
15   0.153021
16   0.297309
17   0.359397
18   0.374713

$$$$

