PCCDB-ID:  16695
public computational chemistry database (PCCDB) project, http://pccdb.org

 14 13  0  0  0  0  0  0  0  0999 V2000
    1.2090   -0.3098    0.4320 C   0  0  0  0  0  0  0  0  0  0  0  0
    6.2051    2.1307   -2.2227 C   0  0  0  0  0  0  0  0  0  0  0  0
    2.4918   -0.2347    0.0410 C   0  0  0  0  0  0  0  0  0  0  0  0
    4.9222    2.0552   -1.8322 C   0  0  0  0  0  0  0  0  0  0  0  0
    3.0612    0.8753   -0.6982 C   0  0  0  0  0  0  0  0  0  0  0  0
    4.3527    0.9451   -1.0933 C   0  0  0  0  0  0  0  0  0  0  0  0
    0.8293   -1.1641    0.9839 H   0  0  0  0  0  0  0  0  0  0  0  0
    0.4988    0.4837    0.2105 H   0  0  0  0  0  0  0  0  0  0  0  0
    6.5849    2.9851   -2.7742 H   0  0  0  0  0  0  0  0  0  0  0  0
    6.9153    1.3370   -2.0013 H   0  0  0  0  0  0  0  0  0  0  0  0
    3.1707   -1.0525    0.2848 H   0  0  0  0  0  0  0  0  0  0  0  0
    4.2434    2.8732   -2.0756 H   0  0  0  0  0  0  0  0  0  0  0  0
    2.3881    1.6981   -0.9431 H   0  0  0  0  0  0  0  0  0  0  0  0
    5.0258    0.1221   -0.8486 H   0  0  0  0  0  0  0  0  0  0  0  0
  1  7  1  0  0  0  0
  2 10  1  0  0  0  0
  2  4  2  0  0  0  0
  3 11  1  0  0  0  0
  3  1  2  0  0  0  0
  4  6  1  0  0  0  0
  5  3  1  0  0  0  0
  6 14  1  0  0  0  0
  6  5  2  0  0  0  0
  8  1  1  0  0  0  0
  9  2  1  0  0  0  0
 12  4  1  0  0  0  0
 13  5  1  0  0  0  0
M  END
>  <HBA>
0

>  <HBD>
0

>  <TPSA>
0.0

>  <cid>
16695

>  <dipole>
0.0

>  <excitation_energy_1>
4.647

>  <excitation_energy_2>
5.595

>  <excitation_energy_3>
5.621

>  <excitation_energy_4>
5.67

>  <homo_energy>
-5.693

>  <homo_lumo_gap>
4.484

>  <logP>
1.915

>  <lumo_energy>
-1.208

>  <melting_point>
-57.97

>  <molecular_refractivity>
29.53

>  <oscillator_strength_1>
1.0747

>  <oscillator_strength_2>
0.0

>  <oscillator_strength_3>
0.0134

>  <oscillator_strength_4>
0.0

>  <open_babel_can_smiles>
C=C/C=C/C=C

>  <mulliken_charges>
14
1   -0.355122
2   -0.355135
3   -0.060148
4   -0.06012
5   -0.121662
6   -0.121711
7   0.144664
8   0.14122
9   0.144665
10   0.141221
11   0.126822
12   0.126819
13   0.124241
14   0.124245

>  <lowdin_charges>
14
1   -0.333694
2   -0.333695
3   -0.142978
4   -0.142977
5   -0.153559
6   -0.15356
7   0.162857
8   0.158242
9   0.162856
10   0.158243
11   0.154921
12   0.15492
13   0.154212
14   0.154212

$$$$

