PCCDB-ID:  19540
public computational chemistry database (PCCDB) project, http://pccdb.org

 30 30  0  0  0  0  0  0  0  0999 V2000
    1.4841    0.6163    2.8845 C   0  0  0  0  0  0  0  0  0  0  0  0
    2.8569    0.5467    2.2074 C   0  0  0  0  0  0  0  0  0  0  0  0
    3.4187   -0.8782    2.1210 C   0  0  0  0  0  0  0  0  0  0  0  0
    4.7933   -0.9560    1.4435 C   0  0  0  0  0  0  0  0  0  0  0  0
    6.7112   -4.7086   -0.3218 C   0  0  0  0  0  0  0  0  0  0  0  0
    6.3361   -3.6607   -1.4117 C   0  0  0  0  0  0  0  0  0  0  0  0
    5.3580   -2.3816    1.3736 C   0  0  0  0  0  0  0  0  0  0  0  0
    7.3564   -3.8974    0.8264 C   0  0  0  0  0  0  0  0  0  0  0  0
    6.7183   -2.2788   -0.8203 C   0  0  0  0  0  0  0  0  0  0  0  0
    6.7476   -2.4828    0.7126 C   0  0  0  0  0  0  0  0  0  0  0  0
    1.1112    1.6459    2.9305 H   0  0  0  0  0  0  0  0  0  0  0  0
    1.5283    0.2319    3.9110 H   0  0  0  0  0  0  0  0  0  0  0  0
    0.7431    0.0176    2.3403 H   0  0  0  0  0  0  0  0  0  0  0  0
    3.5673    1.1832    2.7542 H   0  0  0  0  0  0  0  0  0  0  0  0
    2.7874    0.9701    1.1952 H   0  0  0  0  0  0  0  0  0  0  0  0
    2.7072   -1.5154    1.5747 H   0  0  0  0  0  0  0  0  0  0  0  0
    3.4876   -1.3017    3.1343 H   0  0  0  0  0  0  0  0  0  0  0  0
    5.5030   -0.3160    1.9889 H   0  0  0  0  0  0  0  0  0  0  0  0
    4.7190   -0.5319    0.4323 H   0  0  0  0  0  0  0  0  0  0  0  0
    7.3880   -5.4811   -0.7021 H   0  0  0  0  0  0  0  0  0  0  0  0
    5.8144   -5.2288    0.0333 H   0  0  0  0  0  0  0  0  0  0  0  0
    5.2643   -3.7051   -1.6348 H   0  0  0  0  0  0  0  0  0  0  0  0
    6.8555   -3.8461   -2.3580 H   0  0  0  0  0  0  0  0  0  0  0  0
    4.6430   -3.0293    0.8451 H   0  0  0  0  0  0  0  0  0  0  0  0
    5.4267   -2.7807    2.3963 H   0  0  0  0  0  0  0  0  0  0  0  0
    8.4416   -3.8343    0.6724 H   0  0  0  0  0  0  0  0  0  0  0  0
    7.1984   -4.3526    1.8112 H   0  0  0  0  0  0  0  0  0  0  0  0
    6.0364   -1.4830   -1.1391 H   0  0  0  0  0  0  0  0  0  0  0  0
    7.7206   -1.9904   -1.1620 H   0  0  0  0  0  0  0  0  0  0  0  0
    7.4026   -1.7412    1.1908 H   0  0  0  0  0  0  0  0  0  0  0  0
  1 11  1  0  0  0  0
  1 12  1  0  0  0  0
  2 14  1  0  0  0  0
  2  1  1  0  0  0  0
  3  2  1  0  0  0  0
  3 17  1  0  0  0  0
  4 18  1  0  0  0  0
  4  3  1  0  0  0  0
  5 21  1  0  0  0  0
  5  8  1  0  0  0  0
  6  9  1  0  0  0  0
  6  5  1  0  0  0  0
  7  4  1  0  0  0  0
  7 25  1  0  0  0  0
  8 27  1  0  0  0  0
  9 10  1  0  0  0  0
 10  8  1  0  0  0  0
 10 30  1  0  0  0  0
 10  7  1  0  0  0  0
 13  1  1  0  0  0  0
 15  2  1  0  0  0  0
 16  3  1  0  0  0  0
 19  4  1  0  0  0  0
 20  5  1  0  0  0  0
 22  6  1  0  0  0  0
 23  6  1  0  0  0  0
 24  7  1  0  0  0  0
 26  8  1  0  0  0  0
 28  9  1  0  0  0  0
 29  9  1  0  0  0  0
M  END
>  <HBA>
0

>  <HBD>
0

>  <TPSA>
0.0

>  <cid>
19540

>  <dipole>
0.06

>  <excitation_energy_1>
7.438

>  <excitation_energy_2>
7.651

>  <excitation_energy_3>
7.815

>  <excitation_energy_4>
7.863

>  <homo_energy>
-7.919

>  <homo_lumo_gap>
10.044

>  <logP>
3.757

>  <lumo_energy>
2.125

>  <melting_point>
-6.64

>  <molecular_refractivity>
48.07

>  <oscillator_strength_1>
0.013

>  <oscillator_strength_2>
0.0101

>  <oscillator_strength_3>
0.0018

>  <oscillator_strength_4>
0.0021

>  <open_babel_can_smiles>
CCCCCC1CCCC1

>  <mulliken_charges>
30
1   -0.441177
2   -0.246416
3   -0.245504
4   -0.257188
5   -0.271208
6   -0.271464
7   -0.257303
8   -0.270128
9   -0.273748
10   -0.087138
11   0.140865
12   0.140799
13   0.140695
14   0.129616
15   0.129336
16   0.125593
17   0.125794
18   0.126128
19   0.130335
20   0.133756
21   0.136765
22   0.135725
23   0.134484
24   0.127775
25   0.1253
26   0.129872
27   0.128765
28   0.133851
29   0.131347
30   0.114472

>  <lowdin_charges>
30
1   -0.44388
2   -0.272771
3   -0.274818
4   -0.276111
5   -0.288681
6   -0.286597
7   -0.277585
8   -0.280531
9   -0.286301
10   -0.132647
11   0.147874
12   0.144939
13   0.147113
14   0.139882
15   0.137503
16   0.138125
17   0.135978
18   0.138282
19   0.137241
20   0.145517
21   0.142807
22   0.140539
23   0.14465
24   0.139821
25   0.137869
26   0.138551
27   0.141354
28   0.143914
29   0.140942
30   0.137022

$$$$

