PCCDB-ID:  6973
public computational chemistry database (PCCDB) project, http://pccdb.org

 19 19  0  0  0  0  0  0  0  0999 V2000
    0.8644    0.1007    0.5785 C   0  0  0  0  0  0  0  0  0  0  0  0
    3.0737    1.1431   -0.1200 C   0  0  0  0  0  0  0  0  0  0  0  0
    4.4154    1.0450   -0.4843 C   0  0  0  0  0  0  0  0  0  0  0  0
    2.9558   -1.2370    0.0898 C   0  0  0  0  0  0  0  0  0  0  0  0
    2.3178    0.0028    0.1755 C   0  0  0  0  0  0  0  0  0  0  0  0
    4.3011   -1.3749   -0.2737 C   0  0  0  0  0  0  0  0  0  0  0  0
    5.0277   -0.2042   -0.5622 C   0  0  0  0  0  0  0  0  0  0  0  0
    4.8450   -2.7816   -0.3210 C   0  0  0  0  0  0  0  0  0  0  0  0
    6.3530   -0.3242   -0.9236 O   0  0  0  0  0  0  0  0  0  0  0  0
    4.1520   -3.7406   -0.0604 O   0  0  0  0  0  0  0  0  0  0  0  0
    6.1382   -2.9530   -0.6627 O   0  0  0  0  0  0  0  0  0  0  0  0
    0.5068    1.1342    0.5328 H   0  0  0  0  0  0  0  0  0  0  0  0
    0.7081   -0.2607    1.6022 H   0  0  0  0  0  0  0  0  0  0  0  0
    0.2263   -0.5036   -0.0769 H   0  0  0  0  0  0  0  0  0  0  0  0
    2.6119    2.1259   -0.0663 H   0  0  0  0  0  0  0  0  0  0  0  0
    4.9884    1.9424   -0.7109 H   0  0  0  0  0  0  0  0  0  0  0  0
    2.4158   -2.1536    0.3071 H   0  0  0  0  0  0  0  0  0  0  0  0
    6.7372    0.5502   -1.0897 H   0  0  0  0  0  0  0  0  0  0  0  0
    6.5623   -2.0927   -0.8472 H   0  0  0  0  0  0  0  0  0  0  0  0
  1 13  1  0  0  0  0
  2 15  1  0  0  0  0
  2  5  2  0  0  0  0
  3  2  1  0  0  0  0
  4  5  1  0  0  0  0
  4 17  1  0  0  0  0
  5  1  1  0  0  0  0
  6  4  2  0  0  0  0
  7  3  2  0  0  0  0
  7  6  1  0  0  0  0
  8  6  1  0  0  0  0
  8 10  2  0  0  0  0
  9  7  1  0  0  0  0
 11  8  1  0  0  0  0
 12  1  1  0  0  0  0
 14  1  1  0  0  0  0
 16  3  1  0  0  0  0
 18  9  1  0  0  0  0
 19 11  1  0  0  0  0
M  END
>  <HBA>
3

>  <HBD>
2

>  <TPSA>
57.53

>  <cid>
6973

>  <dipole>
6.44

>  <excitation_energy_1>
4.555

>  <excitation_energy_2>
4.672

>  <excitation_energy_3>
5.264

>  <excitation_energy_4>
5.447

>  <homo_energy>
-6.528

>  <homo_lumo_gap>
5.325

>  <logP>
1.399

>  <lumo_energy>
-1.203

>  <melting_point>
140.46

>  <molecular_refractivity>
40.39

>  <oscillator_strength_1>
0.0559

>  <oscillator_strength_2>
0.0

>  <oscillator_strength_3>
0.0001

>  <oscillator_strength_4>
0.0755

>  <open_babel_can_smiles>
Cc1ccc(c(c1)C(=O)O)O

>  <mulliken_charges>
19
1   -0.529178
2   -0.181787
3   -0.180816
4   -0.234316
5   0.181328
6   0.022711
7   0.302389
8   0.575581
9   -0.688343
10   -0.462011
11   -0.600722
12   0.15417
13   0.170554
14   0.169951
15   0.135304
16   0.126612
17   0.170738
18   0.426634
19   0.441201

>  <lowdin_charges>
19
1   -0.440777
2   -0.140604
3   -0.208612
4   -0.123862
5   -0.010977
6   -0.085958
7   0.103967
8   0.199437
9   -0.389208
10   -0.259051
11   -0.362135
12   0.155759
13   0.164112
14   0.166254
15   0.161149
16   0.158423
17   0.182699
18   0.369511
19   0.359873

$$$$

