PCCDB-ID:  17301
public computational chemistry database (PCCDB) project, http://pccdb.org

 27 29  0  0  0  0  0  0  0  0999 V2000
    3.1030   -1.1465   -0.0199 C   0  0  0  0  0  0  0  0  0  0  0  0
    6.9228    5.9992   -3.7825 C   0  0  0  0  0  0  0  0  0  0  0  0
    5.8627    6.6375   -3.1304 C   0  0  0  0  0  0  0  0  0  0  0  0
    7.0815    4.6112   -3.6875 C   0  0  0  0  0  0  0  0  0  0  0  0
    4.9450    5.9045   -2.3741 C   0  0  0  0  0  0  0  0  0  0  0  0
    2.6129    2.4638   -0.2177 C   0  0  0  0  0  0  0  0  0  0  0  0
    3.1632    3.6104   -0.7770 C   0  0  0  0  0  0  0  0  0  0  0  0
    6.1163    2.3840   -2.6754 C   0  0  0  0  0  0  0  0  0  0  0  0
    4.3488    1.0880   -1.2352 C   0  0  0  0  0  0  0  0  0  0  0  0
    6.1715    3.8771   -2.9368 C   0  0  0  0  0  0  0  0  0  0  0  0
    4.8925    2.2433   -1.7907 C   0  0  0  0  0  0  0  0  0  0  0  0
    3.1981    1.2046   -0.4418 C   0  0  0  0  0  0  0  0  0  0  0  0
    5.1015    4.5200   -2.2780 C   0  0  0  0  0  0  0  0  0  0  0  0
    4.3118    3.5051   -1.5698 C   0  0  0  0  0  0  0  0  0  0  0  0
    2.5660    0.1528    0.1605 O   0  0  0  0  0  0  0  0  0  0  0  0
    2.4529   -1.8204    0.5413 H   0  0  0  0  0  0  0  0  0  0  0  0
    4.1262   -1.2199    0.3727 H   0  0  0  0  0  0  0  0  0  0  0  0
    3.1033   -1.4416   -1.0779 H   0  0  0  0  0  0  0  0  0  0  0  0
    7.6281    6.5842   -4.3667 H   0  0  0  0  0  0  0  0  0  0  0  0
    5.7516    7.7156   -3.2126 H   0  0  0  0  0  0  0  0  0  0  0  0
    7.9075    4.1192   -4.1964 H   0  0  0  0  0  0  0  0  0  0  0  0
    4.1242    6.4086   -1.8701 H   0  0  0  0  0  0  0  0  0  0  0  0
    1.7230    2.5101    0.4022 H   0  0  0  0  0  0  0  0  0  0  0  0
    2.6977    4.5755   -0.5940 H   0  0  0  0  0  0  0  0  0  0  0  0
    7.0263    2.0188   -2.1787 H   0  0  0  0  0  0  0  0  0  0  0  0
    6.0185    1.8065   -3.6054 H   0  0  0  0  0  0  0  0  0  0  0  0
    4.8101    0.1230   -1.4167 H   0  0  0  0  0  0  0  0  0  0  0  0
  1 15  1  0  0  0  0
  1 17  1  0  0  0  0
  1 16  1  0  0  0  0
  2  4  2  0  0  0  0
  2  3  1  0  0  0  0
  3  5  2  0  0  0  0
  4 10  1  0  0  0  0
  5 13  1  0  0  0  0
  5 22  1  0  0  0  0
  6 23  1  0  0  0  0
  7 24  1  0  0  0  0
  7  6  2  0  0  0  0
  8 25  1  0  0  0  0
  8 11  1  0  0  0  0
  9 12  2  0  0  0  0
 10  8  1  0  0  0  0
 10 13  2  0  0  0  0
 11 14  2  0  0  0  0
 11  9  1  0  0  0  0
 12  6  1  0  0  0  0
 12 15  1  0  0  0  0
 13 14  1  0  0  0  0
 14  7  1  0  0  0  0
 18  1  1  0  0  0  0
 19  2  1  0  0  0  0
 20  3  1  0  0  0  0
 21  4  1  0  0  0  0
 26  8  1  0  0  0  0
 27  9  1  0  0  0  0
M  END
>  <HBA>
1

>  <HBD>
0

>  <TPSA>
9.23

>  <cid>
17301

>  <dipole>
1.84

>  <excitation_energy_1>
4.235

>  <excitation_energy_2>
4.439

>  <excitation_energy_3>
4.782

>  <excitation_energy_4>
5.027

>  <homo_energy>
-5.317

>  <homo_lumo_gap>
4.827

>  <logP>
3.266

>  <lumo_energy>
-0.49

>  <melting_point>
79.62

>  <molecular_refractivity>
61.38

>  <oscillator_strength_1>
0.0527

>  <oscillator_strength_2>
0.4961

>  <oscillator_strength_3>
0.0036

>  <oscillator_strength_4>
0.0036

>  <open_babel_can_smiles>
COc1ccc2c(c1)Cc1c2cccc1

>  <mulliken_charges>
27
1   -0.21192
2   -0.131413
3   -0.137282
4   -0.204618
5   -0.194596
6   -0.181822
7   -0.192726
8   -0.420881
9   -0.276173
10   0.107421
11   0.097563
12   0.383562
13   0.087797
14   0.082114
15   -0.510379
16   0.169585
17   0.150864
18   0.150838
19   0.124208
20   0.125415
21   0.121886
22   0.126132
23   0.136388
24   0.130762
25   0.170592
26   0.170677
27   0.126006

>  <lowdin_charges>
27
1   -0.275958
2   -0.164577
3   -0.154666
4   -0.165675
5   -0.167515
6   -0.181341
7   -0.151206
8   -0.276404
9   -0.221792
10   -0.0075
11   0.006345
12   0.102546
13   -0.008739
14   -0.03102
15   -0.199164
16   0.164194
17   0.143338
18   0.142991
19   0.157396
20   0.154167
21   0.15578
22   0.156892
23   0.166212
24   0.158745
25   0.168297
26   0.16805
27   0.160604

$$$$

