PCCDB-ID:  62817
public computational chemistry database (PCCDB) project, http://pccdb.org

 32 31  0  0  1  0  0  0  0  0999 V2000
    1.2021   -1.6931   -0.8416 C   0  0  0  0  0  0  0  0  0  0  0  0
   -0.1256    3.8370    0.9268 C   0  0  0  0  0  0  0  0  0  0  0  0
    2.0471    2.6304    1.3648 C   0  0  0  0  0  0  0  0  0  0  0  0
    0.3917    0.9607   -3.6379 C   0  0  0  0  0  0  0  0  0  0  0  0
    0.4484   -0.8677   -1.8907 C   0  0  0  0  0  0  0  0  0  0  0  0
    0.5844    1.9786   -0.6358 C   0  0  0  0  0  0  0  0  0  0  0  0
    1.6994    1.3526   -1.4881 C   0  0  0  0  0  0  0  0  0  0  0  0
    1.0710    3.1199    0.2839 C   0  0  0  0  0  0  0  0  0  0  0  0
    2.5317   -0.2549   -3.2043 C   0  0  0  0  0  0  0  0  0  0  0  0
    1.2520    0.2975   -2.5348 C   0  0  2  0  0  0  0  0  0  0  0  0
    3.6477    0.1518   -2.9959 O   0  0  0  0  0  0  0  0  0  0  0  0
    2.3565   -1.2656   -4.1045 O   0  0  0  0  0  0  0  0  0  0  0  0
    0.5635   -2.4954   -0.4563 H   0  0  0  0  0  0  0  0  0  0  0  0
    1.5119   -1.0789    0.0097 H   0  0  0  0  0  0  0  0  0  0  0  0
    2.1005   -2.1562   -1.2648 H   0  0  0  0  0  0  0  0  0  0  0  0
    0.2040    4.6656    1.5649 H   0  0  0  0  0  0  0  0  0  0  0  0
   -0.7064    3.1480    1.5543 H   0  0  0  0  0  0  0  0  0  0  0  0
   -0.8042    4.2477    0.1693 H   0  0  0  0  0  0  0  0  0  0  0  0
    2.3625    3.4598    2.0086 H   0  0  0  0  0  0  0  0  0  0  0  0
    2.9508    2.1857    0.9352 H   0  0  0  0  0  0  0  0  0  0  0  0
    1.5747    1.8750    2.0078 H   0  0  0  0  0  0  0  0  0  0  0  0
   -0.5430    1.3454   -3.2179 H   0  0  0  0  0  0  0  0  0  0  0  0
    0.1202    0.2563   -4.4340 H   0  0  0  0  0  0  0  0  0  0  0  0
    0.9271    1.7958   -4.1021 H   0  0  0  0  0  0  0  0  0  0  0  0
   -0.4594   -0.4432   -1.4467 H   0  0  0  0  0  0  0  0  0  0  0  0
    0.0823   -1.5430   -2.6793 H   0  0  0  0  0  0  0  0  0  0  0  0
    0.1051    1.2110   -0.0106 H   0  0  0  0  0  0  0  0  0  0  0  0
   -0.2049    2.3800   -1.2850 H   0  0  0  0  0  0  0  0  0  0  0  0
    2.4521    0.8968   -0.8383 H   0  0  0  0  0  0  0  0  0  0  0  0
    2.2312    2.1468   -2.0262 H   0  0  0  0  0  0  0  0  0  0  0  0
    1.6032    3.8499   -0.3456 H   0  0  0  0  0  0  0  0  0  0  0  0
    1.4165   -1.4990   -4.1707 H   0  0  0  0  0  0  0  0  0  0  0  0
  1 13  1  0  0  0  0
  1 14  1  0  0  0  0
  2 17  1  0  0  0  0
  2 16  1  0  0  0  0
  3 21  1  0  0  0  0
  3 19  1  0  0  0  0
  4 22  1  0  0  0  0
  4 10  1  0  0  0  0
  5 25  1  0  0  0  0
  5  1  1  0  0  0  0
  6 27  1  0  0  0  0
  6  8  1  0  0  0  0
  7 29  1  0  0  0  0
  7  6  1  0  0  0  0
  8  2  1  0  0  0  0
  8  3  1  0  0  0  0
  9 11  2  0  0  0  0
 10  9  1  6  0  0  0
 10  5  1  0  0  0  0
 10  7  1  0  0  0  0
 12  9  1  0  0  0  0
 15  1  1  0  0  0  0
 18  2  1  0  0  0  0
 20  3  1  0  0  0  0
 23  4  1  0  0  0  0
 24  4  1  0  0  0  0
 26  5  1  0  0  0  0
 28  6  1  0  0  0  0
 30  7  1  0  0  0  0
 31  8  1  0  0  0  0
 32 12  1  0  0  0  0
M  END
>  <HBA>
2

>  <HBD>
1

>  <TPSA>
37.3

>  <cid>
62817

>  <dipole>
4.09

>  <excitation_energy_1>
5.594

>  <excitation_energy_2>
6.344

>  <excitation_energy_3>
7.081

>  <excitation_energy_4>
7.165

>  <homo_energy>
-7.129

>  <homo_lumo_gap>
7.494

>  <logP>
2.924

>  <lumo_energy>
0.365

>  <melting_point>
66.63

>  <molecular_refractivity>
51.7

>  <oscillator_strength_1>
0.0017

>  <oscillator_strength_2>
0.0106

>  <oscillator_strength_3>
0.007

>  <oscillator_strength_4>
0.0136

>  <open_babel_can_smiles>
CC[C@](C(=O)O)(CCC(C)C)C

>  <mulliken_charges>
32
1   -0.458149
2   -0.443262
3   -0.449475
4   -0.460406
5   -0.275465
6   -0.267307
7   -0.265786
8   -0.065239
9   0.616295
10   -0.039796
11   -0.448792
12   -0.58393
13   0.149517
14   0.160297
15   0.164801
16   0.14174
17   0.137448
18   0.138206
19   0.142256
20   0.153785
21   0.135669
22   0.161413
23   0.130424
24   0.166242
25   0.15311
26   0.112154
27   0.127789
28   0.126669
29   0.158233
30   0.147318
31   0.124345
32   0.409895

>  <lowdin_charges>
32
1   -0.453278
2   -0.447552
3   -0.44997
4   -0.444076
5   -0.277804
6   -0.284327
7   -0.277806
8   -0.120067
9   0.1938
10   -0.03188
11   -0.237429
12   -0.359933
13   0.156355
14   0.156553
15   0.158415
16   0.149569
17   0.146115
18   0.1473
19   0.150584
20   0.153075
21   0.144927
22   0.157719
23   0.143552
24   0.162235
25   0.15268
26   0.131666
27   0.138544
28   0.140008
29   0.157116
30   0.154544
31   0.137986
32   0.351378

$$$$

