PCCDB-ID:  31463
public computational chemistry database (PCCDB) project, http://pccdb.org

 29 29  0  0  1  0  0  0  0  0999 V2000
    1.6862    1.2796    0.2711 C   0  0  0  0  0  0  0  0  0  0  0  0
    0.0910   -4.0280   -0.8094 C   0  0  0  0  0  0  0  0  0  0  0  0
    1.5844   -5.8325    0.1819 C   0  0  0  0  0  0  0  0  0  0  0  0
    2.2848   -0.0886   -0.0730 C   0  0  0  0  0  0  0  0  0  0  0  0
    3.5771   -2.1369    0.7246 C   0  0  0  0  0  0  0  0  0  0  0  0
    1.6748   -1.3532    2.0791 C   0  0  0  0  0  0  0  0  0  0  0  0
    0.7895   -4.5482    0.4550 C   0  0  0  0  0  0  0  0  0  0  0  0
    2.8008   -0.8785    1.1448 C   0  0  2  0  0  0  0  0  0  0  0  0
    1.6880   -3.4870    1.0902 C   0  0  1  0  0  0  0  0  0  0  0  0
    2.7011   -3.1190    0.1749 O   0  0  0  0  0  0  0  0  0  0  0  0
    0.8948   -2.3766    1.4620 O   0  0  0  0  0  0  0  0  0  0  0  0
    1.3787    1.8090   -0.6378 H   0  0  0  0  0  0  0  0  0  0  0  0
    2.4132    1.9141    0.7941 H   0  0  0  0  0  0  0  0  0  0  0  0
    0.7995    1.1937    0.9099 H   0  0  0  0  0  0  0  0  0  0  0  0
   -0.5949   -4.7862   -1.2044 H   0  0  0  0  0  0  0  0  0  0  0  0
    0.8235   -3.7918   -1.5882 H   0  0  0  0  0  0  0  0  0  0  0  0
   -0.4839   -3.1227   -0.5950 H   0  0  0  0  0  0  0  0  0  0  0  0
    0.9285   -6.6117   -0.2216 H   0  0  0  0  0  0  0  0  0  0  0  0
    2.0448   -6.2243    1.0975 H   0  0  0  0  0  0  0  0  0  0  0  0
    2.3825   -5.6471   -0.5443 H   0  0  0  0  0  0  0  0  0  0  0  0
    3.1217    0.0550   -0.7705 H   0  0  0  0  0  0  0  0  0  0  0  0
    1.5454   -0.6992   -0.6024 H   0  0  0  0  0  0  0  0  0  0  0  0
    4.1072   -2.5625    1.5942 H   0  0  0  0  0  0  0  0  0  0  0  0
    4.3161   -1.9183   -0.0527 H   0  0  0  0  0  0  0  0  0  0  0  0
    0.9776   -0.5507    2.3331 H   0  0  0  0  0  0  0  0  0  0  0  0
    2.1075   -1.7363    3.0195 H   0  0  0  0  0  0  0  0  0  0  0  0
    0.0223   -4.7640    1.2115 H   0  0  0  0  0  0  0  0  0  0  0  0
    3.4809   -0.2365    1.7257 H   0  0  0  0  0  0  0  0  0  0  0  0
    2.1736   -3.8877    2.0035 H   0  0  0  0  0  0  0  0  0  0  0  0
  1 13  1  0  0  0  0
  1 14  1  0  0  0  0
  2 17  1  0  0  0  0
  2  7  1  0  0  0  0
  3  7  1  0  0  0  0
  3 19  1  0  0  0  0
  4  1  1  0  0  0  0
  4  8  1  0  0  0  0
  5  8  1  0  0  0  0
  5 23  1  0  0  0  0
  6 25  1  0  0  0  0
  6 26  1  0  0  0  0
  7  9  1  0  0  0  0
  7 27  1  0  0  0  0
  8 28  1  1  0  0  0
  8  6  1  0  0  0  0
  9 11  1  0  0  0  0
  9 29  1  1  0  0  0
 10  5  1  0  0  0  0
 10  9  1  0  0  0  0
 11  6  1  0  0  0  0
 12  1  1  0  0  0  0
 15  2  1  0  0  0  0
 16  2  1  0  0  0  0
 18  3  1  0  0  0  0
 20  3  1  0  0  0  0
 21  4  1  0  0  0  0
 22  4  1  0  0  0  0
 24  5  1  0  0  0  0
M  END
>  <HBA>
2

>  <HBD>
0

>  <TPSA>
18.46

>  <cid>
31463

>  <dipole>
1.66

>  <excitation_energy_1>
6.421

>  <excitation_energy_2>
6.718

>  <excitation_energy_3>
6.861

>  <excitation_energy_4>
6.889

>  <homo_energy>
-6.909

>  <homo_lumo_gap>
9.129

>  <logP>
2.042

>  <lumo_energy>
2.22

>  <melting_point>
-23.88

>  <molecular_refractivity>
45.43

>  <oscillator_strength_1>
0.0024

>  <oscillator_strength_2>
0.0434

>  <oscillator_strength_3>
0.0059

>  <oscillator_strength_4>
0.0028

>  <open_babel_can_smiles>
CC[C@@H]1CO[C@@H](OC1)C(C)C

>  <mulliken_charges>
29
1   -0.452884
2   -0.451184
3   -0.450231
4   -0.250102
5   -0.044622
6   -0.047242
7   -0.107328
8   -0.108892
9   0.382544
10   -0.482967
11   -0.487795
12   0.147214
13   0.138786
14   0.147373
15   0.134335
16   0.156052
17   0.159471
18   0.141614
19   0.135058
20   0.161908
21   0.128255
22   0.162451
23   0.120428
24   0.146612
25   0.150834
26   0.120441
27   0.135651
28   0.120743
29   0.093477

>  <lowdin_charges>
29
1   -0.448881
2   -0.448788
3   -0.447054
4   -0.278718
5   -0.135292
6   -0.137289
7   -0.130749
8   -0.161288
9   0.093759
10   -0.265083
11   -0.264908
12   0.153405
13   0.145666
14   0.147731
15   0.147307
16   0.154869
17   0.157555
18   0.150858
19   0.145905
20   0.157449
21   0.14173
22   0.156785
23   0.128575
24   0.151179
25   0.152613
26   0.128278
27   0.148624
28   0.144835
29   0.110924

$$$$

