PCCDB-ID:  61210
public computational chemistry database (PCCDB) project, http://pccdb.org

 21 21  0  0  0  0  0  0  0  0999 V2000
    2.7734   -0.6284    1.5714 C   0  0  0  0  0  0  0  0  0  0  0  0
    2.8320    0.0893    0.2097 C   0  0  0  0  0  0  0  0  0  0  0  0
   -1.6916   -1.5443   -1.6532 C   0  0  0  0  0  0  0  0  0  0  0  0
   -0.4605   -1.9624   -2.2333 C   0  0  0  0  0  0  0  0  0  0  0  0
   -1.3560   -0.7434   -0.6001 C   0  0  0  0  0  0  0  0  0  0  0  0
    1.9740   -1.4757   -1.6410 C   0  0  0  0  0  0  0  0  0  0  0  0
    4.3430   -1.2272   -1.3604 C   0  0  0  0  0  0  0  0  0  0  0  0
    2.9728   -0.8696   -0.9466 C   0  0  0  0  0  0  0  0  0  0  0  0
    0.5504   -1.3846   -1.4963 C   0  0  0  0  0  0  0  0  0  0  0  0
    5.3595   -0.7966   -0.8431 O   0  0  0  0  0  0  0  0  0  0  0  0
   -0.0073   -0.6341   -0.4874 O   0  0  0  0  0  0  0  0  0  0  0  0
    2.7108    0.1021    2.3859 H   0  0  0  0  0  0  0  0  0  0  0  0
    3.6716   -1.2343    1.7297 H   0  0  0  0  0  0  0  0  0  0  0  0
    1.8984   -1.2839    1.6342 H   0  0  0  0  0  0  0  0  0  0  0  0
    3.7061    0.7490    0.1972 H   0  0  0  0  0  0  0  0  0  0  0  0
    1.9393    0.7067    0.0817 H   0  0  0  0  0  0  0  0  0  0  0  0
   -2.6914   -1.8046   -1.9705 H   0  0  0  0  0  0  0  0  0  0  0  0
   -0.3256   -2.6044   -3.0930 H   0  0  0  0  0  0  0  0  0  0  0  0
   -1.9319   -0.2022    0.1353 H   0  0  0  0  0  0  0  0  0  0  0  0
    2.2683   -2.1468   -2.4486 H   0  0  0  0  0  0  0  0  0  0  0  0
    4.4021   -1.9454   -2.2102 H   0  0  0  0  0  0  0  0  0  0  0  0
  1 14  1  0  0  0  0
  1 13  1  0  0  0  0
  1 12  1  0  0  0  0
  2  1  1  0  0  0  0
  3  5  2  0  0  0  0
  4  3  1  0  0  0  0
  4  9  2  0  0  0  0
  5 11  1  0  0  0  0
  5 19  1  0  0  0  0
  6  9  1  0  0  0  0
  6  8  2  0  0  0  0
  7  8  1  0  0  0  0
  7 10  2  0  0  0  0
  8  2  1  0  0  0  0
  9 11  1  0  0  0  0
 15  2  1  0  0  0  0
 16  2  1  0  0  0  0
 17  3  1  0  0  0  0
 18  4  1  0  0  0  0
 20  6  1  0  0  0  0
 21  7  1  0  0  0  0
M  END
>  <HBA>
2

>  <HBD>
0

>  <TPSA>
30.21

>  <cid>
61210

>  <dipole>
4.83

>  <excitation_energy_1>
3.474

>  <excitation_energy_2>
4.079

>  <excitation_energy_3>
5.335

>  <excitation_energy_4>
5.421

>  <homo_energy>
-6.025

>  <homo_lumo_gap>
4.109

>  <logP>
2.272

>  <lumo_energy>
-1.916

>  <melting_point>
59.22

>  <molecular_refractivity>
43.42

>  <oscillator_strength_1>
0.0009

>  <oscillator_strength_2>
0.6919

>  <oscillator_strength_3>
0.0294

>  <oscillator_strength_4>
0.0035

>  <open_babel_can_smiles>
CC/C(=C\c1ccco1)/C=O

>  <mulliken_charges>
21
1   -0.442798
2   -0.325704
3   -0.186558
4   -0.184806
5   0.102481
6   -0.236108
7   0.205708
8   0.108734
9   0.347322
10   -0.426241
11   -0.446732
12   0.14442
13   0.159762
14   0.147769
15   0.164469
16   0.154225
17   0.153273
18   0.153274
19   0.167061
20   0.145408
21   0.095043

>  <lowdin_charges>
21
1   -0.439251
2   -0.278479
3   -0.199409
4   -0.186691
5   -0.060054
6   -0.147681
7   0.031936
8   -0.040654
9   0.063787
10   -0.240163
11   -0.089571
12   0.151326
13   0.155878
14   0.14905
15   0.16383
16   0.156721
17   0.174584
18   0.174705
19   0.178364
20   0.16926
21   0.112509

$$$$

