PCCDB-ID:  18597
public computational chemistry database (PCCDB) project, http://pccdb.org

 25 25  0  0  0  0  0  0  0  0999 V2000
    0.7917   -0.0184    0.0959 C   0  0  0  0  0  0  0  0  0  0  0  0
    2.7182    0.9884   -1.2358 C   0  0  0  0  0  0  0  0  0  0  0  0
    1.9741    3.1623    1.0682 C   0  0  0  0  0  0  0  0  0  0  0  0
    4.1908    0.2305    3.3577 C   0  0  0  0  0  0  0  0  0  0  0  0
    3.6315   -0.1295    2.1327 C   0  0  0  0  0  0  0  0  0  0  0  0
    3.2794    2.4378    3.0543 C   0  0  0  0  0  0  0  0  0  0  0  0
    2.3166    0.2084    0.0314 C   0  0  0  0  0  0  0  0  0  0  0  0
    2.7192    2.0796    1.8239 C   0  0  0  0  0  0  0  0  0  0  0  0
    4.0117    1.5315    3.8233 C   0  0  0  0  0  0  0  0  0  0  0  0
    2.8927    0.7585    1.3391 C   0  0  0  0  0  0  0  0  0  0  0  0
    4.5209    1.9789    5.0139 O   0  0  0  0  0  0  0  0  0  0  0  0
    0.4432   -0.5272   -0.8115 H   0  0  0  0  0  0  0  0  0  0  0  0
    0.2347    0.9208    0.1791 H   0  0  0  0  0  0  0  0  0  0  0  0
    0.5257   -0.6399    0.9576 H   0  0  0  0  0  0  0  0  0  0  0  0
    2.4444    0.4137   -2.1290 H   0  0  0  0  0  0  0  0  0  0  0  0
    3.7995    1.1629   -1.2659 H   0  0  0  0  0  0  0  0  0  0  0  0
    2.2174    1.9580   -1.3086 H   0  0  0  0  0  0  0  0  0  0  0  0
    1.7458    4.0016    1.7325 H   0  0  0  0  0  0  0  0  0  0  0  0
    1.0295    2.8106    0.6447 H   0  0  0  0  0  0  0  0  0  0  0  0
    2.5727    3.5585    0.2390 H   0  0  0  0  0  0  0  0  0  0  0  0
    4.7569   -0.4951    3.9395 H   0  0  0  0  0  0  0  0  0  0  0  0
    3.7763   -1.1484    1.7801 H   0  0  0  0  0  0  0  0  0  0  0  0
    3.1514    3.4463    3.4372 H   0  0  0  0  0  0  0  0  0  0  0  0
    2.7627   -0.7891   -0.0811 H   0  0  0  0  0  0  0  0  0  0  0  0
    5.0030    1.2523    5.4380 H   0  0  0  0  0  0  0  0  0  0  0  0
  1 13  1  0  0  0  0
  1 14  1  0  0  0  0
  2  7  1  0  0  0  0
  3 18  1  0  0  0  0
  3  8  1  0  0  0  0
  4  9  1  0  0  0  0
  4 21  1  0  0  0  0
  5  4  2  0  0  0  0
  6 23  1  0  0  0  0
  6  9  2  0  0  0  0
  7  1  1  0  0  0  0
  7 10  1  0  0  0  0
  8  6  1  0  0  0  0
  9 11  1  0  0  0  0
 10  8  2  0  0  0  0
 10  5  1  0  0  0  0
 11 25  1  0  0  0  0
 12  1  1  0  0  0  0
 15  2  1  0  0  0  0
 16  2  1  0  0  0  0
 17  2  1  0  0  0  0
 19  3  1  0  0  0  0
 20  3  1  0  0  0  0
 22  5  1  0  0  0  0
 24  7  1  0  0  0  0
M  END
>  <HBA>
1

>  <HBD>
1

>  <TPSA>
20.23

>  <cid>
18597

>  <dipole>
1.18

>  <excitation_energy_1>
4.91

>  <excitation_energy_2>
5.027

>  <excitation_energy_3>
5.475

>  <excitation_energy_4>
5.608

>  <homo_energy>
-5.687

>  <homo_lumo_gap>
5.837

>  <logP>
2.824

>  <lumo_energy>
0.15

>  <melting_point>
51.64

>  <molecular_refractivity>
48.01

>  <oscillator_strength_1>
0.0316

>  <oscillator_strength_2>
0.0001

>  <oscillator_strength_3>
0.0037

>  <oscillator_strength_4>
0.0531

>  <open_babel_can_smiles>
Oc1ccc(c(c1)C)C(C)C

>  <mulliken_charges>
25
1   -0.44277
2   -0.44742
3   -0.541063
4   -0.19189
5   -0.207046
6   -0.220855
7   -0.155954
8   0.120824
9   0.355258
10   0.129829
11   -0.647008
12   0.138985
13   0.146462
14   0.14824
15   0.139066
16   0.147265
17   0.145509
18   0.155433
19   0.160938
20   0.167168
21   0.113513
22   0.122153
23   0.12928
24   0.12875
25   0.405333

>  <lowdin_charges>
25
1   -0.445792
2   -0.445514
3   -0.446081
4   -0.223065
5   -0.155882
6   -0.197071
7   -0.116144
8   0.005875
9   0.100991
10   -0.031909
11   -0.383735
12   0.147513
13   0.146825
14   0.152771
15   0.148401
16   0.149998
17   0.149033
18   0.157718
19   0.157114
20   0.162427
21   0.152773
22   0.152268
23   0.16161
24   0.142489
25   0.35739

$$$$

