PCCDB-ID:  8081
public computational chemistry database (PCCDB) project, http://pccdb.org

 12 12  0  0  0  0  0  0  0  0999 V2000
    0.6735    1.1523   -0.2619 C   0  0  0  0  0  0  0  0  0  0  0  0
    0.6727   -1.1538   -0.2607 C   0  0  0  0  0  0  0  0  0  0  0  0
   -1.3247   -0.0000   -0.2475 C   0  0  0  0  0  0  0  0  0  0  0  0
    1.3589   -0.0007    0.1762 O   0  0  0  0  0  0  0  0  0  0  0  0
   -0.6637    1.1679    0.1888 O   0  0  0  0  0  0  0  0  0  0  0  0
   -0.6645   -1.1680    0.1901 O   0  0  0  0  0  0  0  0  0  0  0  0
    0.6940    1.1994   -1.3674 H   0  0  0  0  0  0  0  0  0  0  0  0
    1.1762    2.0179    0.1693 H   0  0  0  0  0  0  0  0  0  0  0  0
    1.1748   -2.0193    0.1715 H   0  0  0  0  0  0  0  0  0  0  0  0
    0.6931   -1.2021   -1.3661 H   0  0  0  0  0  0  0  0  0  0  0  0
   -1.3887   -0.0006   -1.3524 H   0  0  0  0  0  0  0  0  0  0  0  0
   -2.3206    0.0006    0.1953 H   0  0  0  0  0  0  0  0  0  0  0  0
  1  8  1  0  0  0  0
  1  4  1  0  0  0  0
  1  5  1  0  0  0  0
  2  9  1  0  0  0  0
  2  4  1  0  0  0  0
  2  6  1  0  0  0  0
  3  5  1  0  0  0  0
  3  6  1  0  0  0  0
  3 12  1  0  0  0  0
  7  1  1  0  0  0  0
 10  2  1  0  0  0  0
 11  3  1  0  0  0  0
M  END
>  <HBA>
3

>  <HBD>
0

>  <TPSA>
27.69

>  <cid>
8081

>  <dipole>
1.91

>  <excitation_energy_1>
7.324

>  <excitation_energy_2>
7.6

>  <excitation_energy_3>
7.601

>  <excitation_energy_4>
7.843

>  <homo_energy>
-7.595

>  <homo_lumo_gap>
10.134

>  <logP>
-0.078

>  <lumo_energy>
2.539

>  <melting_point>
-28.84

>  <molecular_refractivity>
17.68

>  <oscillator_strength_1>
0.0655

>  <oscillator_strength_2>
0.0009

>  <oscillator_strength_3>
0.0009

>  <oscillator_strength_4>
0.1022

>  <open_babel_can_smiles>
O1COCOC1

>  <mulliken_charges>
12
1   0.162156
2   0.162112
3   0.162063
4   -0.449645
5   -0.449707
6   -0.449695
7   0.118541
8   0.169004
9   0.169013
10   0.118551
11   0.118586
12   0.169022

>  <lowdin_charges>
12
1   -0.020324
2   -0.020332
3   -0.019513
4   -0.256661
5   -0.257806
6   -0.257805
7   0.114695
8   0.1634
9   0.163402
10   0.114698
11   0.114725
12   0.161521

$$$$

