PCCDB-ID:  35115
public computational chemistry database (PCCDB) project, http://pccdb.org

 38 38  0  0  0  0  0  0  0  0999 V2000
    0.9113    0.9942    4.3228 C   0  0  0  0  0  0  0  0  0  0  0  0
   11.0674   -1.5595    4.5270 C   0  0  0  0  0  0  0  0  0  0  0  0
   11.0010    3.7885    2.2070 C   0  0  0  0  0  0  0  0  0  0  0  0
    2.4069    0.6641    4.3336 C   0  0  0  0  0  0  0  0  0  0  0  0
   10.5466   -1.4044    3.0899 C   0  0  0  0  0  0  0  0  0  0  0  0
   10.3634    3.5833    3.5883 C   0  0  0  0  0  0  0  0  0  0  0  0
    2.8966    0.0793    3.0024 C   0  0  0  0  0  0  0  0  0  0  0  0
    4.3752   -0.2737    2.9821 C   0  0  0  0  0  0  0  0  0  0  0  0
    8.4634   -0.2641    3.1364 C   0  0  0  0  0  0  0  0  0  0  0  0
    8.4345    2.2291    3.3674 C   0  0  0  0  0  0  0  0  0  0  0  0
    6.4548    0.8595    3.1612 C   0  0  0  0  0  0  0  0  0  0  0  0
    9.0967   -1.3689    3.0363 N   0  0  0  0  0  0  0  0  0  0  0  0
    8.9228    3.3999    3.5066 N   0  0  0  0  0  0  0  0  0  0  0  0
    9.0842    1.0061    3.2924 N   0  0  0  0  0  0  0  0  0  0  0  0
    7.0723   -0.2671    3.0884 N   0  0  0  0  0  0  0  0  0  0  0  0
    7.0482    2.0885    3.2799 N   0  0  0  0  0  0  0  0  0  0  0  0
    5.1223    0.9621    3.1223 O   0  0  0  0  0  0  0  0  0  0  0  0
    0.5894    1.4109    5.2836 H   0  0  0  0  0  0  0  0  0  0  0  0
    0.3068    0.0996    4.1285 H   0  0  0  0  0  0  0  0  0  0  0  0
    0.6730    1.7296    3.5446 H   0  0  0  0  0  0  0  0  0  0  0  0
   12.1571   -1.6794    4.5370 H   0  0  0  0  0  0  0  0  0  0  0  0
   10.6158   -2.4401    4.9943 H   0  0  0  0  0  0  0  0  0  0  0  0
   10.8126   -0.6892    5.1435 H   0  0  0  0  0  0  0  0  0  0  0  0
   12.0720    4.0033    2.2995 H   0  0  0  0  0  0  0  0  0  0  0  0
   10.5220    4.6272    1.6920 H   0  0  0  0  0  0  0  0  0  0  0  0
   10.8834    2.8992    1.5765 H   0  0  0  0  0  0  0  0  0  0  0  0
    2.6205   -0.0511    5.1405 H   0  0  0  0  0  0  0  0  0  0  0  0
    2.9832    1.5685    4.5637 H   0  0  0  0  0  0  0  0  0  0  0  0
   10.8716   -2.2726    2.5040 H   0  0  0  0  0  0  0  0  0  0  0  0
   11.0317   -0.5322    2.6100 H   0  0  0  0  0  0  0  0  0  0  0  0
   10.5428    4.4764    4.1983 H   0  0  0  0  0  0  0  0  0  0  0  0
   10.8760    2.7583    4.1163 H   0  0  0  0  0  0  0  0  0  0  0  0
    2.6853    0.7799    2.1832 H   0  0  0  0  0  0  0  0  0  0  0  0
    2.3412   -0.8415    2.7750 H   0  0  0  0  0  0  0  0  0  0  0  0
    4.6721   -0.7513    2.0437 H   0  0  0  0  0  0  0  0  0  0  0  0
    4.6536   -0.9438    3.8013 H   0  0  0  0  0  0  0  0  0  0  0  0
   10.0913    1.0292    3.3360 H   0  0  0  0  0  0  0  0  0  0  0  0
    6.4952    2.9322    3.3431 H   0  0  0  0  0  0  0  0  0  0  0  0
  1  4  1  0  0  0  0
  1 18  1  0  0  0  0
  2 21  1  0  0  0  0
  2 22  1  0  0  0  0
  2 23  1  0  0  0  0
  3 24  1  0  0  0  0
  3  6  1  0  0  0  0
  4 28  1  0  0  0  0
  4 27  1  0  0  0  0
  5  2  1  0  0  0  0
  6 32  1  0  0  0  0
  6 31  1  0  0  0  0
  7  4  1  0  0  0  0
  8  7  1  0  0  0  0
  8 17  1  0  0  0  0
  8 36  1  0  0  0  0
  9 14  1  0  0  0  0
 10 13  2  0  0  0  0
 11 16  1  0  0  0  0
 12  5  1  0  0  0  0
 12  9  1  0  0  0  0
 13  6  1  0  0  0  0
 14 37  1  0  0  0  0
 14 10  1  0  0  0  0
 15  9  2  0  0  0  0
 15 11  2  0  0  0  0
 16 38  1  0  0  0  0
 16 10  1  0  0  0  0
 17 11  1  0  0  0  0
 19  1  1  0  0  0  0
 20  1  1  0  0  0  0
 25  3  1  0  0  0  0
 26  3  1  0  0  0  0
 29  5  1  0  0  0  0
 30  5  1  0  0  0  0
 33  7  1  0  0  0  0
 34  7  1  0  0  0  0
 35  8  1  0  0  0  0
M  RAD  1  12   2
M  END
>  <HBA>
6

>  <HBD>
2

>  <TPSA>
71.96

>  <cid>
35115

>  <dipole>
1.61

>  <excitation_energy_1>
5.205

>  <excitation_energy_2>
5.308

>  <excitation_energy_3>
5.348

>  <excitation_energy_4>
5.431

>  <homo_energy>
-6.036

>  <homo_lumo_gap>
6.033

>  <logP>
2.06

>  <lumo_energy>
-0.003

>  <melting_point>
122.73

>  <molecular_refractivity>
68.97

>  <oscillator_strength_1>
0.0032

>  <oscillator_strength_2>
0.0035

>  <oscillator_strength_3>
0.1194

>  <oscillator_strength_4>
0.0612

>  <open_babel_can_smiles>
CCCCOC1=[N]=C(N/C(=N\CC)/N1)[N]CC

>  <mulliken_charges>
38
1   -0.442943
2   -0.441102
3   -0.439789
4   -0.249993
5   -0.163147
6   -0.1601
7   -0.277329
8   -0.034365
9   0.650028
10   0.748082
11   0.77875
12   -0.448636
13   -0.490685
14   -0.74496
15   -0.538108
16   -0.69892
17   -0.507351
18   0.146669
19   0.143109
20   0.144086
21   0.140211
22   0.16673
23   0.138341
24   0.142906
25   0.162723
26   0.142146
27   0.134329
28   0.14736
29   0.152615
30   0.101285
31   0.152346
32   0.111114
33   0.146306
34   0.143106
35   0.168036
36   0.168896
37   0.35275
38   0.355502

>  <lowdin_charges>
38
1   -0.445118
2   -0.450346
3   -0.450748
4   -0.275568
5   -0.205171
6   -0.200157
7   -0.28341
8   -0.118969
9   0.128427
10   0.137974
11   0.183068
12   -0.227765
13   -0.268562
14   -0.277256
15   -0.231779
16   -0.231019
17   -0.188214
18   0.152041
19   0.14746
20   0.148489
21   0.147696
22   0.161055
23   0.144162
24   0.149563
25   0.159265
26   0.146135
27   0.142125
28   0.147101
29   0.151476
30   0.112991
31   0.151081
32   0.119056
33   0.1498
34   0.152201
35   0.159242
36   0.158738
37   0.293085
38   0.311851

$$$$

