PCCDB-ID:  14584
public computational chemistry database (PCCDB) project, http://pccdb.org

 37 39  0  0  1  0  0  0  0  0999 V2000
    0.8798   -2.3130   -1.4055 C   0  0  0  0  0  0  0  0  0  0  0  0
    2.3374   -1.8656   -1.5080 C   0  0  0  0  0  0  0  0  0  0  0  0
    2.2064   -2.7980    4.4202 C   0  0  0  0  0  0  0  0  0  0  0  0
    2.0982   -1.5173    3.8715 C   0  0  0  0  0  0  0  0  0  0  0  0
    3.2092   -3.6514    3.9649 C   0  0  0  0  0  0  0  0  0  0  0  0
    2.9842   -1.1040    2.8798 C   0  0  0  0  0  0  0  0  0  0  0  0
    4.0967   -3.2301    2.9696 C   0  0  0  0  0  0  0  0  0  0  0  0
    7.2794   -1.3388    0.3932 C   0  0  0  0  0  0  0  0  0  0  0  0
    6.6912   -1.2692   -1.0529 C   0  0  0  0  0  0  0  0  0  0  0  0
    5.8881   -3.2479    0.0363 C   0  0  0  0  0  0  0  0  0  0  0  0
    4.0026   -1.9491    2.4093 C   0  0  0  0  0  0  0  0  0  0  0  0
    6.2650   -2.2350    1.1419 C   0  0  2  0  0  0  0  0  0  0  0  0
    5.4348   -2.1657   -0.9612 C   0  0  1  0  0  0  0  0  0  0  0  0
    4.9494   -1.4315    1.3346 C   0  0  1  0  0  0  0  0  0  0  0  0
    4.3449   -1.4025   -0.1433 C   0  0  2  0  0  0  0  0  0  0  0  0
    2.9855   -1.9191   -0.2021 N   0  0  0  0  0  0  0  0  0  0  0  0
    0.3790   -2.2368   -2.3772 H   0  0  0  0  0  0  0  0  0  0  0  0
    0.3392   -1.6976   -0.6794 H   0  0  0  0  0  0  0  0  0  0  0  0
    0.8104   -3.3583   -1.0783 H   0  0  0  0  0  0  0  0  0  0  0  0
    2.3795   -0.8230   -1.8527 H   0  0  0  0  0  0  0  0  0  0  0  0
    2.8481   -2.4649   -2.2852 H   0  0  0  0  0  0  0  0  0  0  0  0
    1.5177   -3.1234    5.1955 H   0  0  0  0  0  0  0  0  0  0  0  0
    1.3217   -0.8396    4.2174 H   0  0  0  0  0  0  0  0  0  0  0  0
    3.3102   -4.6489    4.3854 H   0  0  0  0  0  0  0  0  0  0  0  0
    2.8887   -0.1075    2.4560 H   0  0  0  0  0  0  0  0  0  0  0  0
    4.8750   -3.9120    2.6414 H   0  0  0  0  0  0  0  0  0  0  0  0
    7.3836   -0.3530    0.8598 H   0  0  0  0  0  0  0  0  0  0  0  0
    8.2718   -1.8039    0.3928 H   0  0  0  0  0  0  0  0  0  0  0  0
    7.4011   -1.6628   -1.7890 H   0  0  0  0  0  0  0  0  0  0  0  0
    6.4431   -0.2464   -1.3599 H   0  0  0  0  0  0  0  0  0  0  0  0
    5.0862   -3.9379    0.3209 H   0  0  0  0  0  0  0  0  0  0  0  0
    6.7415   -3.8384   -0.3179 H   0  0  0  0  0  0  0  0  0  0  0  0
    6.6619   -2.6504    2.0720 H   0  0  0  0  0  0  0  0  0  0  0  0
    5.0748   -2.5190   -1.9316 H   0  0  0  0  0  0  0  0  0  0  0  0
    5.1963   -0.4003    1.6140 H   0  0  0  0  0  0  0  0  0  0  0  0
    4.2879   -0.3643   -0.4973 H   0  0  0  0  0  0  0  0  0  0  0  0
    2.9315   -2.8582    0.1875 H   0  0  0  0  0  0  0  0  0  0  0  0
  1 19  1  0  0  0  0
  1 18  1  0  0  0  0
  2  1  1  0  0  0  0
  2 16  1  0  0  0  0
  3 22  1  0  0  0  0
  4 23  1  0  0  0  0
  4  3  2  0  0  0  0
  5 24  1  0  0  0  0
  5  3  1  0  0  0  0
  6  4  1  0  0  0  0
  7  5  2  0  0  0  0
  8 27  1  0  0  0  0
  8 12  1  0  0  0  0
  9 13  1  0  0  0  0
  9  8  1  0  0  0  0
 10 31  1  0  0  0  0
 10 12  1  0  0  0  0
 11  6  2  0  0  0  0
 11  7  1  0  0  0  0
 12 14  1  0  0  0  0
 12 33  1  1  0  0  0
 13 34  1  6  0  0  0
 13 15  1  0  0  0  0
 13 10  1  0  0  0  0
 14 35  1  1  0  0  0
 14 11  1  0  0  0  0
 15 36  1  6  0  0  0
 15 14  1  0  0  0  0
 16 15  1  0  0  0  0
 16 37  1  0  0  0  0
 17  1  1  0  0  0  0
 20  2  1  0  0  0  0
 21  2  1  0  0  0  0
 25  6  1  0  0  0  0
 26  7  1  0  0  0  0
 28  8  1  0  0  0  0
 29  9  1  0  0  0  0
 30  9  1  0  0  0  0
 32 10  1  0  0  0  0
M  END
>  <HBA>
1

>  <HBD>
1

>  <TPSA>
12.03

>  <cid>
14584

>  <dipole>
0.97

>  <excitation_energy_1>
4.837

>  <excitation_energy_2>
4.939

>  <excitation_energy_3>
5.151

>  <excitation_energy_4>
5.286

>  <homo_energy>
-5.587

>  <homo_lumo_gap>
5.78

>  <logP>
3.569

>  <lumo_energy>
0.193

>  <melting_point>
74.17

>  <molecular_refractivity>
68.44

>  <oscillator_strength_1>
0.0007

>  <oscillator_strength_2>
0.0176

>  <oscillator_strength_3>
0.0036

>  <oscillator_strength_4>
0.0002

>  <open_babel_can_smiles>
CCN[C@@H]1[C@H]2CC[C@@H]([C@@H]1c1ccccc1)C2

>  <mulliken_charges>
37
1   -0.447713
2   -0.106842
3   -0.129836
4   -0.13477
5   -0.135005
6   -0.147881
7   -0.198724
8   -0.273989
9   -0.273759
10   -0.282122
11   0.165802
12   -0.110836
13   -0.115017
14   -0.202099
15   0.054808
16   -0.560943
17   0.140303
18   0.159002
19   0.139396
20   0.135133
21   0.113852
22   0.123982
23   0.124949
24   0.123771
25   0.122266
26   0.127812
27   0.133461
28   0.134195
29   0.134899
30   0.131697
31   0.130309
32   0.132607
33   0.122651
34   0.119574
35   0.133742
36   0.119042
37   0.296283

>  <lowdin_charges>
37
1   -0.447595
2   -0.196567
3   -0.163549
4   -0.158708
5   -0.159756
6   -0.150935
7   -0.182117
8   -0.283114
9   -0.286158
10   -0.29246
11   0.001766
12   -0.136727
13   -0.153581
14   -0.136909
15   -0.067419
16   -0.350652
17   0.150139
18   0.157519
19   0.144495
20   0.138065
21   0.116648
22   0.155884
23   0.156484
24   0.153827
25   0.155104
26   0.157207
27   0.142392
28   0.143645
29   0.146085
30   0.140847
31   0.140771
32   0.144797
33   0.143956
34   0.141383
35   0.148749
36   0.133828
37   0.252657

$$$$

