PCCDB-ID:  12206
public computational chemistry database (PCCDB) project, http://pccdb.org

 20 19  0  0  0  0  0  0  0  0999 V2000
    0.9479   -0.1490    0.1338 C   0  0  0  0  0  0  0  0  0  0  0  0
    7.1398    0.9192   -3.8753 C   0  0  0  0  0  0  0  0  0  0  0  0
    2.4793   -0.1113    0.1098 C   0  0  0  0  0  0  0  0  0  0  0  0
    3.0460    0.2324   -1.2728 C   0  0  0  0  0  0  0  0  0  0  0  0
    4.5753    0.2639   -1.2949 C   0  0  0  0  0  0  0  0  0  0  0  0
    5.1446    0.6255   -2.6531 C   0  0  0  0  0  0  0  0  0  0  0  0
    4.5011    0.9210   -3.6366 O   0  0  0  0  0  0  0  0  0  0  0  0
    6.4983    0.5826   -2.6352 O   0  0  0  0  0  0  0  0  0  0  0  0
    0.5702   -0.3963    1.1323 H   0  0  0  0  0  0  0  0  0  0  0  0
    0.5593   -0.8992   -0.5657 H   0  0  0  0  0  0  0  0  0  0  0  0
    0.5237    0.8208   -0.1533 H   0  0  0  0  0  0  0  0  0  0  0  0
    8.2101    0.8316   -3.6852 H   0  0  0  0  0  0  0  0  0  0  0  0
    6.8859    1.9392   -4.1768 H   0  0  0  0  0  0  0  0  0  0  0  0
    6.8332    0.2309   -4.6676 H   0  0  0  0  0  0  0  0  0  0  0  0
    2.8744   -1.0841    0.4363 H   0  0  0  0  0  0  0  0  0  0  0  0
    2.8387    0.6236    0.8445 H   0  0  0  0  0  0  0  0  0  0  0  0
    2.6621    1.2058   -1.6028 H   0  0  0  0  0  0  0  0  0  0  0  0
    2.6896   -0.4951   -2.0132 H   0  0  0  0  0  0  0  0  0  0  0  0
    4.9993   -0.7045   -0.9975 H   0  0  0  0  0  0  0  0  0  0  0  0
    4.9663    0.9879   -0.5666 H   0  0  0  0  0  0  0  0  0  0  0  0
  1  9  1  0  0  0  0
  2 12  1  0  0  0  0
  2  8  1  0  0  0  0
  3  1  1  0  0  0  0
  3 15  1  0  0  0  0
  3 16  1  0  0  0  0
  4  3  1  0  0  0  0
  5  4  1  0  0  0  0
  5 19  1  0  0  0  0
  5 20  1  0  0  0  0
  6  8  1  0  0  0  0
  6  5  1  0  0  0  0
  7  6  2  0  0  0  0
 10  1  1  0  0  0  0
 11  1  1  0  0  0  0
 13  2  1  0  0  0  0
 14  2  1  0  0  0  0
 17  4  1  0  0  0  0
 18  4  1  0  0  0  0
M  END
>  <HBA>
2

>  <HBD>
0

>  <TPSA>
26.3

>  <cid>
12206

>  <dipole>
1.6

>  <excitation_energy_1>
5.85

>  <excitation_energy_2>
7.002

>  <excitation_energy_3>
7.499

>  <excitation_energy_4>
7.672

>  <homo_energy>
-7.301

>  <homo_lumo_gap>
7.753

>  <logP>
1.35

>  <lumo_energy>
0.452

>  <melting_point>
-14.12

>  <molecular_refractivity>
32.24

>  <oscillator_strength_1>
0.0007

>  <oscillator_strength_2>
0.0169

>  <oscillator_strength_3>
0.0054

>  <oscillator_strength_4>
0.0014

>  <open_babel_can_smiles>
CCCCC(=O)OC

>  <mulliken_charges>
20
1   -0.442015
2   -0.216956
3   -0.251664
4   -0.241507
5   -0.361857
6   0.618965
7   -0.478169
8   -0.454235
9   0.142607
10   0.144405
11   0.144672
12   0.162743
13   0.168604
14   0.16901
15   0.130263
16   0.130323
17   0.149319
18   0.146526
19   0.169054
20   0.169913

>  <lowdin_charges>
20
1   -0.444394
2   -0.277232
3   -0.273566
4   -0.271109
5   -0.302932
6   0.19954
7   -0.26514
8   -0.200166
9   0.149445
10   0.149079
11   0.148032
12   0.157612
13   0.157278
14   0.159371
15   0.138408
16   0.13968
17   0.150564
18   0.150355
19   0.166688
20   0.168487

$$$$

