PCCDB-ID:  30277
public computational chemistry database (PCCDB) project, http://pccdb.org

 38 38  0  0  0  0  0  0  0  0999 V2000
    5.0975   -1.9126   -1.4081 C   0  0  0  0  0  0  0  0  0  0  0  0
    4.5275   -0.0125    0.1766 C   0  0  0  0  0  0  0  0  0  0  0  0
    3.3782   -7.5794    0.0453 C   0  0  0  0  0  0  0  0  0  0  0  0
    3.1600   -6.7458    2.2851 C   0  0  0  0  0  0  0  0  0  0  0  0
    0.3537   -1.6376   -4.2428 C   0  0  0  0  0  0  0  0  0  0  0  0
    0.0884   -2.9729   -3.9412 C   0  0  0  0  0  0  0  0  0  0  0  0
    1.2908   -0.9501   -3.4821 C   0  0  0  0  0  0  0  0  0  0  0  0
    0.7564   -3.6043   -2.8945 C   0  0  0  0  0  0  0  0  0  0  0  0
    2.9824   -5.2126    0.4281 C   0  0  0  0  0  0  0  0  0  0  0  0
    2.1037   -4.8675   -0.7733 C   0  0  0  0  0  0  0  0  0  0  0  0
    3.9674   -1.1599   -0.6709 C   0  0  0  0  0  0  0  0  0  0  0  0
    1.9933   -1.5501   -2.4227 C   0  0  0  0  0  0  0  0  0  0  0  0
    1.7080   -2.9095   -2.1322 C   0  0  0  0  0  0  0  0  0  0  0  0
    2.9603   -0.6373   -1.6984 C   0  0  0  0  0  0  0  0  0  0  0  0
    2.7473   -6.5758    0.8964 N   0  0  0  0  0  0  0  0  0  0  0  0
    2.9574    0.5543   -1.9809 O   0  0  0  0  0  0  0  0  0  0  0  0
    2.3749   -3.5040   -1.1006 O   0  0  0  0  0  0  0  0  0  0  0  0
    5.8148   -2.3143   -0.6833 H   0  0  0  0  0  0  0  0  0  0  0  0
    5.6386   -1.2325   -2.0765 H   0  0  0  0  0  0  0  0  0  0  0  0
    4.7136   -2.7477   -2.0008 H   0  0  0  0  0  0  0  0  0  0  0  0
    5.2305   -0.4048    0.9207 H   0  0  0  0  0  0  0  0  0  0  0  0
    3.7293    0.5192    0.7048 H   0  0  0  0  0  0  0  0  0  0  0  0
    5.0508    0.7193   -0.4453 H   0  0  0  0  0  0  0  0  0  0  0  0
    3.1223   -8.5793    0.4110 H   0  0  0  0  0  0  0  0  0  0  0  0
    4.4827   -7.4937    0.0227 H   0  0  0  0  0  0  0  0  0  0  0  0
    3.0124   -7.5009   -0.9828 H   0  0  0  0  0  0  0  0  0  0  0  0
    2.9060   -7.7575    2.6193 H   0  0  0  0  0  0  0  0  0  0  0  0
    2.6248   -6.0340    2.9220 H   0  0  0  0  0  0  0  0  0  0  0  0
    4.2468   -6.5992    2.4403 H   0  0  0  0  0  0  0  0  0  0  0  0
   -0.1642   -1.1398   -5.0570 H   0  0  0  0  0  0  0  0  0  0  0  0
   -0.6419   -3.5340   -4.5185 H   0  0  0  0  0  0  0  0  0  0  0  0
    1.5125    0.0928   -3.6810 H   0  0  0  0  0  0  0  0  0  0  0  0
    0.5305   -4.6398   -2.6719 H   0  0  0  0  0  0  0  0  0  0  0  0
    2.7228   -4.5194    1.2354 H   0  0  0  0  0  0  0  0  0  0  0  0
    4.0433   -5.0262    0.1725 H   0  0  0  0  0  0  0  0  0  0  0  0
    1.0476   -5.0006   -0.5085 H   0  0  0  0  0  0  0  0  0  0  0  0
    2.3268   -5.5057   -1.6377 H   0  0  0  0  0  0  0  0  0  0  0  0
    3.4555   -1.8765   -0.0236 H   0  0  0  0  0  0  0  0  0  0  0  0
  1 18  1  0  0  0  0
  1 11  1  0  0  0  0
  2 22  1  0  0  0  0
  2 21  1  0  0  0  0
  3 24  1  0  0  0  0
  3 15  1  0  0  0  0
  4 29  1  0  0  0  0
  4 27  1  0  0  0  0
  4 28  1  0  0  0  0
  5  6  2  0  0  0  0
  5  7  1  0  0  0  0
  6  8  1  0  0  0  0
  7 12  2  0  0  0  0
  8 33  1  0  0  0  0
  8 13  2  0  0  0  0
  9 15  1  0  0  0  0
  9 34  1  0  0  0  0
 10 36  1  0  0  0  0
 10  9  1  0  0  0  0
 11 38  1  0  0  0  0
 11  2  1  0  0  0  0
 12 13  1  0  0  0  0
 12 14  1  0  0  0  0
 13 17  1  0  0  0  0
 14 11  1  0  0  0  0
 15  4  1  0  0  0  0
 16 14  2  0  0  0  0
 17 10  1  0  0  0  0
 19  1  1  0  0  0  0
 20  1  1  0  0  0  0
 23  2  1  0  0  0  0
 25  3  1  0  0  0  0
 26  3  1  0  0  0  0
 30  5  1  0  0  0  0
 31  6  1  0  0  0  0
 32  7  1  0  0  0  0
 35  9  1  0  0  0  0
 37 10  1  0  0  0  0
M  END
>  <HBA>
3

>  <HBD>
0

>  <TPSA>
29.54

>  <cid>
30277

>  <dipole>
4.59

>  <excitation_energy_1>
3.721

>  <excitation_energy_2>
4.222

>  <excitation_energy_3>
4.358

>  <excitation_energy_4>
5.089

>  <homo_energy>
-6.082

>  <homo_lumo_gap>
4.844

>  <logP>
2.466

>  <lumo_energy>
-1.238

>  <melting_point>
43.64

>  <molecular_refractivity>
70.06

>  <oscillator_strength_1>
0.0007

>  <oscillator_strength_2>
0.0704

>  <oscillator_strength_3>
0.0217

>  <oscillator_strength_4>
0.1582

>  <open_babel_can_smiles>
CN(CCOc1ccccc1C(=O)C(C)C)C

>  <mulliken_charges>
38
1   -0.452479
2   -0.434042
3   -0.304495
4   -0.296807
5   -0.130133
6   -0.129335
7   -0.169284
8   -0.198016
9   -0.142172
10   -0.034983
11   -0.158787
12   0.02474
13   0.328821
14   0.4089
15   -0.375596
16   -0.471928
17   -0.533294
18   0.145303
19   0.152451
20   0.154033
21   0.128802
22   0.147186
23   0.159173
24   0.154986
25   0.124175
26   0.150458
27   0.152123
28   0.153801
29   0.123147
30   0.132855
31   0.135798
32   0.167824
33   0.140822
34   0.154619
35   0.131374
36   0.157925
37   0.145261
38   0.156775

>  <lowdin_charges>
38
1   -0.442925
2   -0.443879
3   -0.354751
4   -0.353242
5   -0.178521
6   -0.13227
7   -0.11742
8   -0.215158
9   -0.205604
10   -0.12998
11   -0.157534
12   -0.081569
13   0.111034
14   0.165454
15   -0.184689
16   -0.25098
17   -0.192305
18   0.15223
19   0.153266
20   0.154596
21   0.144901
22   0.154447
23   0.158714
24   0.153112
25   0.121368
26   0.14763
27   0.1511
28   0.153404
29   0.121534
30   0.161398
31   0.161928
32   0.178226
33   0.164634
34   0.155659
35   0.127272
36   0.146972
37   0.141803
38   0.160146

$$$$

