PCCDB-ID:  66678
public computational chemistry database (PCCDB) project, http://pccdb.org

 24 25  0  0  0  0  0  0  0  0999 V2000
    0.9690   -0.0587   -0.0532 C   0  0  0  0  0  0  0  0  0  0  0  0
    6.8002   -2.5115   -0.2753 C   0  0  0  0  0  0  0  0  0  0  0  0
    5.3241   -2.6481    0.1232 C   0  0  0  0  0  0  0  0  0  0  0  0
    3.2190    1.1222    0.0102 C   0  0  0  0  0  0  0  0  0  0  0  0
    4.6099    1.1067    0.0530 C   0  0  0  0  0  0  0  0  0  0  0  0
    7.4290   -1.3171    0.4450 C   0  0  0  0  0  0  0  0  0  0  0  0
    3.1977   -1.2680    0.0123 C   0  0  0  0  0  0  0  0  0  0  0  0
    2.4801   -0.0661   -0.0128 C   0  0  0  0  0  0  0  0  0  0  0  0
    4.5916   -1.3184    0.0653 C   0  0  0  0  0  0  0  0  0  0  0  0
    5.3166   -0.1059    0.0801 C   0  0  0  0  0  0  0  0  0  0  0  0
    6.7162   -0.1050    0.0644 N   0  0  0  0  0  0  0  0  0  0  0  0
    0.5806    0.9572   -0.1813 H   0  0  0  0  0  0  0  0  0  0  0  0
    0.5338   -0.4619    0.8712 H   0  0  0  0  0  0  0  0  0  0  0  0
    0.5815   -0.6676   -0.8798 H   0  0  0  0  0  0  0  0  0  0  0  0
    6.8859   -2.3515   -1.3570 H   0  0  0  0  0  0  0  0  0  0  0  0
    7.3511   -3.4273   -0.0318 H   0  0  0  0  0  0  0  0  0  0  0  0
    5.2650   -3.0572    1.1432 H   0  0  0  0  0  0  0  0  0  0  0  0
    4.8233   -3.3798   -0.5233 H   0  0  0  0  0  0  0  0  0  0  0  0
    2.7001    2.0784   -0.0100 H   0  0  0  0  0  0  0  0  0  0  0  0
    5.1635    2.0439    0.0584 H   0  0  0  0  0  0  0  0  0  0  0  0
    8.4801   -1.2017    0.1570 H   0  0  0  0  0  0  0  0  0  0  0  0
    7.4040   -1.4938    1.5360 H   0  0  0  0  0  0  0  0  0  0  0  0
    2.6505   -2.2105   -0.0076 H   0  0  0  0  0  0  0  0  0  0  0  0
    7.1291    0.7530    0.4083 H   0  0  0  0  0  0  0  0  0  0  0  0
  1  8  1  0  0  0  0
  1 13  1  0  0  0  0
  2 16  1  0  0  0  0
  2  3  1  0  0  0  0
  2  6  1  0  0  0  0
  3 17  1  0  0  0  0
  4  5  1  0  0  0  0
  5 20  1  0  0  0  0
  5 10  2  0  0  0  0
  6 22  1  0  0  0  0
  7  9  2  0  0  0  0
  8  4  2  0  0  0  0
  8  7  1  0  0  0  0
  9 10  1  0  0  0  0
  9  3  1  0  0  0  0
 11 10  1  0  0  0  0
 11 24  1  0  0  0  0
 11  6  1  0  0  0  0
 12  1  1  0  0  0  0
 14  1  1  0  0  0  0
 15  2  1  0  0  0  0
 18  3  1  0  0  0  0
 19  4  1  0  0  0  0
 21  6  1  0  0  0  0
 23  7  1  0  0  0  0
M  END
>  <HBA>
1

>  <HBD>
1

>  <TPSA>
12.03

>  <cid>
66678

>  <dipole>
1.51

>  <excitation_energy_1>
4.252

>  <excitation_energy_2>
4.436

>  <excitation_energy_3>
4.776

>  <excitation_energy_4>
4.965

>  <homo_energy>
-4.912

>  <homo_lumo_gap>
5.211

>  <logP>
2.491

>  <lumo_energy>
0.299

>  <melting_point>
69.46

>  <molecular_refractivity>
51.31

>  <oscillator_strength_1>
0.0314

>  <oscillator_strength_2>
0.0253

>  <oscillator_strength_3>
0.0489

>  <oscillator_strength_4>
0.0051

>  <open_babel_can_smiles>
Cc1ccc2c(c1)CCCN2

>  <mulliken_charges>
24
1   -0.530228
2   -0.273167
3   -0.339291
4   -0.193581
5   -0.191665
6   -0.124698
7   -0.262388
8   0.184759
9   0.141811
10   0.292396
11   -0.653171
12   0.149037
13   0.155105
14   0.153938
15   0.153787
16   0.134761
17   0.148062
18   0.146273
19   0.11334
20   0.109686
21   0.140446
22   0.128463
23   0.107144
24   0.30918

>  <lowdin_charges>
24
1   -0.442085
2   -0.278107
3   -0.275221
4   -0.163768
5   -0.200706
6   -0.191465
7   -0.166763
8   -0.025228
9   -0.045112
10   0.046409
11   -0.311054
12   0.152849
13   0.155456
14   0.156045
15   0.149125
16   0.148463
17   0.147975
18   0.153965
19   0.151046
20   0.149344
21   0.145878
22   0.123742
23   0.148282
24   0.270931

$$$$

