PCCDB-ID:  7836
public computational chemistry database (PCCDB) project, http://pccdb.org

 17 17  0  0  1  0  0  0  0  0999 V2000
    3.1045    1.4643   -1.8211 C   0  0  0  0  0  0  0  0  0  0  0  0
    3.7016    0.7175   -0.8897 C   0  0  0  0  0  0  0  0  0  0  0  0
    8.2984    0.0258    1.6117 C   0  0  0  0  0  0  0  0  0  0  0  0
    5.8936    0.8780    2.0603 C   0  0  0  0  0  0  0  0  0  0  0  0
    7.3151    1.1159    1.6043 C   0  0  1  0  0  0  0  0  0  0  0  0
    4.5761    1.3417    0.1339 C   0  0  0  0  0  0  0  0  0  0  0  0
    4.8346    2.5256    0.2211 O   0  0  0  0  0  0  0  0  0  0  0  0
    8.2985    1.0223    2.6433 O   0  0  0  0  0  0  0  0  0  0  0  0
    5.0609    0.3992    0.9823 O   0  0  0  0  0  0  0  0  0  0  0  0
    2.4588    1.0265   -2.5763 H   0  0  0  0  0  0  0  0  0  0  0  0
    3.2534    2.5401   -1.8422 H   0  0  0  0  0  0  0  0  0  0  0  0
    3.5755   -0.3597   -0.8371 H   0  0  0  0  0  0  0  0  0  0  0  0
    9.1473    0.0606    0.9290 H   0  0  0  0  0  0  0  0  0  0  0  0
    7.9938   -0.9727    1.9270 H   0  0  0  0  0  0  0  0  0  0  0  0
    5.4621    1.7951    2.4702 H   0  0  0  0  0  0  0  0  0  0  0  0
    5.8724    0.0892    2.8150 H   0  0  0  0  0  0  0  0  0  0  0  0
    7.4550    1.9491    0.9166 H   0  0  0  0  0  0  0  0  0  0  0  0
  1  2  2  0  0  0  0
  2 12  1  0  0  0  0
  2  6  1  0  0  0  0
  3 14  1  0  0  0  0
  3  8  1  0  0  0  0
  4 15  1  0  0  0  0
  4 16  1  0  0  0  0
  5 17  1  6  0  0  0
  5  3  1  0  0  0  0
  5  4  1  0  0  0  0
  5  8  1  0  0  0  0
  6  7  2  0  0  0  0
  6  9  1  0  0  0  0
  9  4  1  0  0  0  0
 10  1  1  0  0  0  0
 11  1  1  0  0  0  0
 13  3  1  0  0  0  0
M  END
>  <HBA>
3

>  <HBD>
0

>  <TPSA>
38.83

>  <cid>
7836

>  <dipole>
2.93

>  <excitation_energy_1>
4.769

>  <excitation_energy_2>
5.372

>  <excitation_energy_3>
6.175

>  <excitation_energy_4>
6.279

>  <homo_energy>
-7.388

>  <homo_lumo_gap>
5.997

>  <logP>
0.114

>  <lumo_energy>
-1.391

>  <melting_point>
-21.09

>  <molecular_refractivity>
30.74

>  <oscillator_strength_1>
0.0004

>  <oscillator_strength_2>
0.021

>  <oscillator_strength_3>
0.2623

>  <oscillator_strength_4>
0.0184

>  <open_babel_can_smiles>
C=CC(=O)OC[C@@H]1CO1

>  <mulliken_charges>
17
1   -0.300709
2   -0.133922
3   -0.105438
4   -0.072962
5   0.081935
6   0.60713
7   -0.490022
8   -0.44039
9   -0.472485
10   0.160282
11   0.183
12   0.156285
13   0.156953
14   0.153513
15   0.179839
16   0.163666
17   0.173325

>  <lowdin_charges>
17
1   -0.260181
2   -0.184917
3   -0.162334
4   -0.136937
5   -0.034298
6   0.193011
7   -0.270316
8   -0.280381
9   -0.18933
10   0.171359
11   0.178912
12   0.169561
13   0.158102
14   0.153075
15   0.166799
16   0.163625
17   0.164249

$$$$

