PCCDB-ID:  50360
public computational chemistry database (PCCDB) project, http://pccdb.org

 27 28  0  0  0  0  0  0  0  0999 V2000
    0.8275    0.0739    0.2985 C   0  0  0  0  0  0  0  0  0  0  0  0
    6.4953    4.9719   -0.6217 C   0  0  0  0  0  0  0  0  0  0  0  0
    7.1164    3.8612   -0.0473 C   0  0  0  0  0  0  0  0  0  0  0  0
    5.1937    4.8560   -1.1135 C   0  0  0  0  0  0  0  0  0  0  0  0
    6.4425    2.6439    0.0332 C   0  0  0  0  0  0  0  0  0  0  0  0
    4.5184    3.6401   -1.0302 C   0  0  0  0  0  0  0  0  0  0  0  0
    5.0871   -0.0003   -0.5668 C   0  0  0  0  0  0  0  0  0  0  0  0
    4.3977   -1.1999   -0.4907 C   0  0  0  0  0  0  0  0  0  0  0  0
    3.0382    1.1732   -0.0998 C   0  0  0  0  0  0  0  0  0  0  0  0
    2.3038   -0.0156   -0.0074 C   0  0  0  0  0  0  0  0  0  0  0  0
    5.1312    2.5134   -0.4562 C   0  0  0  0  0  0  0  0  0  0  0  0
    4.4135    1.2178   -0.3727 C   0  0  0  0  0  0  0  0  0  0  0  0
    3.0278   -1.2086   -0.2120 C   0  0  0  0  0  0  0  0  0  0  0  0
    2.3848   -2.5300   -0.1452 N   0  0  0  0  0  0  0  0  0  0  0  0
    3.0470   -3.5106   -0.4903 O   0  0  0  0  0  0  0  0  0  0  0  0
    1.2212   -2.5968    0.2559 O   0  0  0  0  0  0  0  0  0  0  0  0
    0.5224    1.1243    0.3305 H   0  0  0  0  0  0  0  0  0  0  0  0
    0.5878   -0.3927    1.2580 H   0  0  0  0  0  0  0  0  0  0  0  0
    0.2249   -0.4456   -0.4515 H   0  0  0  0  0  0  0  0  0  0  0  0
    7.0213    5.9203   -0.6862 H   0  0  0  0  0  0  0  0  0  0  0  0
    8.1261    3.9439    0.3459 H   0  0  0  0  0  0  0  0  0  0  0  0
    4.7052    5.7120   -1.5711 H   0  0  0  0  0  0  0  0  0  0  0  0
    6.9258    1.7926    0.5043 H   0  0  0  0  0  0  0  0  0  0  0  0
    3.5162    3.5537   -1.4406 H   0  0  0  0  0  0  0  0  0  0  0  0
    6.1456   -0.0053   -0.8071 H   0  0  0  0  0  0  0  0  0  0  0  0
    4.8978   -2.1461   -0.6535 H   0  0  0  0  0  0  0  0  0  0  0  0
    2.5116    2.1067    0.0757 H   0  0  0  0  0  0  0  0  0  0  0  0
  1 17  1  0  0  0  0
  1 18  1  0  0  0  0
  2  3  2  0  0  0  0
  3  5  1  0  0  0  0
  3 21  1  0  0  0  0
  4  6  2  0  0  0  0
  4  2  1  0  0  0  0
  5 23  1  0  0  0  0
  6 11  1  0  0  0  0
  7  8  2  0  0  0  0
  7 12  1  0  0  0  0
  8 13  1  0  0  0  0
  9 10  1  0  0  0  0
  9 27  1  0  0  0  0
 10  1  1  0  0  0  0
 11 12  1  0  0  0  0
 11  5  2  0  0  0  0
 12  9  2  0  0  0  0
 13 14  1  0  0  0  0
 13 10  2  0  0  0  0
 14 16  2  0  0  0  0
 15 14  2  0  0  0  0
 19  1  1  0  0  0  0
 20  2  1  0  0  0  0
 22  4  1  0  0  0  0
 24  6  1  0  0  0  0
 25  7  1  0  0  0  0
 26  8  1  0  0  0  0
M  END
>  <HBA>
0

>  <HBD>
0

>  <TPSA>
45.82

>  <cid>
50360

>  <dipole>
5.19

>  <excitation_energy_1>
3.676

>  <excitation_energy_2>
3.8

>  <excitation_energy_3>
4.073

>  <excitation_energy_4>
4.184

>  <homo_energy>
-6.634

>  <homo_lumo_gap>
4.291

>  <logP>
4.093

>  <lumo_energy>
-2.343

>  <melting_point>
85.22

>  <molecular_refractivity>
65.67

>  <oscillator_strength_1>
0.0317

>  <oscillator_strength_2>
0.3754

>  <oscillator_strength_3>
0.0225

>  <oscillator_strength_4>
0.0032

>  <open_babel_can_smiles>
O=N(=O)c1ccc(cc1C)c1ccccc1

>  <mulliken_charges>
27
1   -0.50148
2   -0.123161
3   -0.133551
4   -0.133851
5   -0.170789
6   -0.169491
7   -0.190697
8   -0.155039
9   -0.260112
10   0.168588
11   0.083124
12   0.126271
13   0.216356
14   0.371778
15   -0.398745
16   -0.405196
17   0.146774
18   0.186941
19   0.18178
20   0.136762
21   0.137526
22   0.137235
23   0.13813
24   0.137649
25   0.147549
26   0.18473
27   0.140919

>  <lowdin_charges>
27
1   -0.438454
2   -0.150548
3   -0.14987
4   -0.152703
5   -0.158046
6   -0.155629
7   -0.159058
8   -0.135155
9   -0.169394
10   0.028033
11   -0.005808
12   0.021923
13   -0.011191
14   0.305973
15   -0.254731
16   -0.245128
17   0.150897
18   0.176568
19   0.175444
20   0.161517
21   0.160597
22   0.162374
23   0.162714
24   0.1607
25   0.165902
26   0.18851
27   0.164563

$$$$

