PCCDB-ID:  69597
public computational chemistry database (PCCDB) project, http://pccdb.org

 20 20  0  0  0  0  0  0  0  0999 V2000
    0.9557   -0.1250    0.4450 C   0  0  0  0  0  0  0  0  0  0  0  0
    3.0211    1.2681   -0.9303 C   0  0  0  0  0  0  0  0  0  0  0  0
    4.5171    1.2383    4.2488 C   0  0  0  0  0  0  0  0  0  0  0  0
    4.9311    0.0344    3.6795 C   0  0  0  0  0  0  0  0  0  0  0  0
    3.5705    2.0272    3.5897 C   0  0  0  0  0  0  0  0  0  0  0  0
    4.3993   -0.3784    2.4552 C   0  0  0  0  0  0  0  0  0  0  0  0
    3.0419    1.6105    2.3683 C   0  0  0  0  0  0  0  0  0  0  0  0
    3.4473    0.4010    1.7814 C   0  0  0  0  0  0  0  0  0  0  0  0
    2.7998   -0.2338    0.1601 P   0  0  0  0  0  0  0  0  0  0  0  0
    0.4384   -0.3535   -0.4936 H   0  0  0  0  0  0  0  0  0  0  0  0
    0.6267    0.8606    0.7941 H   0  0  0  0  0  0  0  0  0  0  0  0
    0.6566   -0.8748    1.1843 H   0  0  0  0  0  0  0  0  0  0  0  0
    2.5581    1.0683   -1.9033 H   0  0  0  0  0  0  0  0  0  0  0  0
    4.0886    1.4442   -1.0963 H   0  0  0  0  0  0  0  0  0  0  0  0
    2.5762    2.1792   -0.5139 H   0  0  0  0  0  0  0  0  0  0  0  0
    4.9280    1.5623    5.2015 H   0  0  0  0  0  0  0  0  0  0  0  0
    5.6660   -0.5851    4.1871 H   0  0  0  0  0  0  0  0  0  0  0  0
    3.2456    2.9676    4.0281 H   0  0  0  0  0  0  0  0  0  0  0  0
    4.7257   -1.3168    2.0134 H   0  0  0  0  0  0  0  0  0  0  0  0
    2.3044    2.2367    1.8716 H   0  0  0  0  0  0  0  0  0  0  0  0
  1 11  1  0  0  0  0
  1 12  1  0  0  0  0
  2 15  1  0  0  0  0
  2  9  1  0  0  0  0
  3 16  1  0  0  0  0
  4 17  1  0  0  0  0
  4  3  1  0  0  0  0
  5 18  1  0  0  0  0
  5  3  2  0  0  0  0
  6  4  2  0  0  0  0
  7  5  1  0  0  0  0
  8  7  2  0  0  0  0
  8  6  1  0  0  0  0
  9  1  1  0  0  0  0
  9  8  1  0  0  0  0
 10  1  1  0  0  0  0
 13  2  1  0  0  0  0
 14  2  1  0  0  0  0
 19  6  1  0  0  0  0
 20  7  1  0  0  0  0
M  END
>  <HBA>
0

>  <HBD>
0

>  <TPSA>
13.59

>  <cid>
69597

>  <dipole>
1.36

>  <excitation_energy_1>
4.669

>  <excitation_energy_2>
5.059

>  <excitation_energy_3>
5.256

>  <excitation_energy_4>
5.553

>  <homo_energy>
-6.098

>  <homo_lumo_gap>
5.733

>  <logP>
2.053

>  <lumo_energy>
-0.365

>  <melting_point>
5.98

>  <molecular_refractivity>
44.72

>  <oscillator_strength_1>
0.0065

>  <oscillator_strength_2>
0.0012

>  <oscillator_strength_3>
0.0051

>  <oscillator_strength_4>
0.036

>  <open_babel_can_smiles>
CP(c1ccccc1)C

>  <mulliken_charges>
20
1   -0.631514
2   -0.632267
3   -0.132297
4   -0.118093
5   -0.118288
6   -0.17076
7   -0.157755
8   -0.070105
9   0.378037
10   0.164132
11   0.159612
12   0.172971
13   0.164396
14   0.17312
15   0.159563
16   0.131601
17   0.131272
18   0.129695
19   0.141427
20   0.125253

>  <lowdin_charges>
20
1   -0.613274
2   -0.609746
3   -0.150772
4   -0.158718
5   -0.157038
6   -0.152253
7   -0.153094
8   -0.158119
9   0.369944
10   0.168054
11   0.154284
12   0.172871
13   0.168021
14   0.170721
15   0.154848
16   0.158001
17   0.159685
18   0.157305
19   0.164467
20   0.154813

$$$$

