PCCDB-ID:  25940
public computational chemistry database (PCCDB) project, http://pccdb.org

 26 27  0  0  1  0  0  0  0  0999 V2000
   -1.6945    0.3195   -2.0244 C   0  0  0  0  0  0  0  0  0  0  0  0
   -0.7124   -0.6681   -1.9499 C   0  0  0  0  0  0  0  0  0  0  0  0
   -1.4184    1.6070   -1.5575 C   0  0  0  0  0  0  0  0  0  0  0  0
    0.5452   -0.3733   -1.4155 C   0  0  0  0  0  0  0  0  0  0  0  0
   -0.1658    1.9030   -1.0238 C   0  0  0  0  0  0  0  0  0  0  0  0
    4.0118    0.6514   -1.8549 C   0  0  0  0  0  0  0  0  0  0  0  0
    0.8326    0.9196   -0.9559 C   0  0  0  0  0  0  0  0  0  0  0  0
    3.2343    1.8975   -1.4094 C   0  0  2  0  0  0  0  0  0  0  0  0
    3.8907   -0.2910   -0.6657 C   0  0  0  0  0  0  0  0  0  0  0  0
    2.1944    1.2899   -0.3954 C   0  0  2  0  0  0  0  0  0  0  0  0
    2.6914    2.7650   -2.5394 C   0  0  0  0  0  0  0  0  0  0  0  0
    2.9161    4.0044   -2.7048 N   0  0  0  0  0  0  0  0  0  0  0  0
    4.5420   -1.2663   -0.4092 O   0  0  0  0  0  0  0  0  0  0  0  0
    1.9615    2.1295   -3.4956 O   0  0  0  0  0  0  0  0  0  0  0  0
    2.8642    0.1317    0.1383 O   0  0  0  0  0  0  0  0  0  0  0  0
   -2.6717    0.0874   -2.4380 H   0  0  0  0  0  0  0  0  0  0  0  0
   -0.9235   -1.6752   -2.2982 H   0  0  0  0  0  0  0  0  0  0  0  0
   -2.1791    2.3807   -1.6067 H   0  0  0  0  0  0  0  0  0  0  0  0
    1.2887   -1.1590   -1.3261 H   0  0  0  0  0  0  0  0  0  0  0  0
    0.0437    2.9085   -0.6666 H   0  0  0  0  0  0  0  0  0  0  0  0
    5.0618    0.8417   -2.0863 H   0  0  0  0  0  0  0  0  0  0  0  0
    3.5667    0.1742   -2.7362 H   0  0  0  0  0  0  0  0  0  0  0  0
    3.9066    2.5264   -0.8167 H   0  0  0  0  0  0  0  0  0  0  0  0
    2.0556    1.9822    0.4394 H   0  0  0  0  0  0  0  0  0  0  0  0
    3.5269    4.3537   -1.9647 H   0  0  0  0  0  0  0  0  0  0  0  0
    1.5558    1.3264   -3.1266 H   0  0  0  0  0  0  0  0  0  0  0  0
  1  2  2  0  0  0  0
  1  3  1  0  0  0  0
  2  4  1  0  0  0  0
  3  5  2  0  0  0  0
  4 19  1  0  0  0  0
  4  7  2  0  0  0  0
  5  7  1  0  0  0  0
  5 20  1  0  0  0  0
  6  8  1  0  0  0  0
  6  9  1  0  0  0  0
  7 10  1  0  0  0  0
  8 23  1  1  0  0  0
  8 10  1  0  0  0  0
  9 13  2  0  0  0  0
  9 15  1  0  0  0  0
 10 15  1  0  0  0  0
 10 24  1  1  0  0  0
 11  8  1  0  0  0  0
 12 11  2  0  0  0  0
 12 25  1  0  0  0  0
 14 26  1  0  0  0  0
 14 11  1  0  0  0  0
 16  1  1  0  0  0  0
 17  2  1  0  0  0  0
 18  3  1  0  0  0  0
 21  6  1  0  0  0  0
 22  6  1  0  0  0  0
M  END
>  <HBA>
4

>  <HBD>
1

>  <TPSA>
69.39

>  <cid>
25940

>  <dipole>
2.32

>  <excitation_energy_1>
5.266

>  <excitation_energy_2>
5.533

>  <excitation_energy_3>
5.727

>  <excitation_energy_4>
5.8

>  <homo_energy>
-7.225

>  <homo_lumo_gap>
6.343

>  <logP>
1.476

>  <lumo_energy>
-0.882

>  <melting_point>
115.15

>  <molecular_refractivity>
52.71

>  <oscillator_strength_1>
0.0006

>  <oscillator_strength_2>
0.0025

>  <oscillator_strength_3>
0.0569

>  <oscillator_strength_4>
0.0015

>  <open_babel_can_smiles>
OC(=N)[C@@H]1CC(=O)O[C@@H]1c1ccccc1

>  <mulliken_charges>
26
1   -0.123968
2   -0.125614
3   -0.125223
4   -0.200741
5   -0.156745
6   -0.39415
7   0.080645
8   -0.229858
9   0.622459
10   0.052125
11   0.505172
12   -0.583984
13   -0.447599
14   -0.590973
15   -0.453152
16   0.144162
17   0.146347
18   0.147207
19   0.160004
20   0.144437
21   0.202255
22   0.190771
23   0.162189
24   0.170136
25   0.283708
26   0.420391

>  <lowdin_charges>
26
1   -0.146816
2   -0.147908
3   -0.144096
4   -0.176283
5   -0.156362
6   -0.312779
7   -0.044087
8   -0.172832
9   0.190073
10   0.001956
11   0.118494
12   -0.382736
13   -0.221426
14   -0.363197
15   -0.181565
16   0.164689
17   0.164927
18   0.167518
19   0.171721
20   0.164101
21   0.184856
22   0.178639
23   0.16505
24   0.165376
25   0.256129
26   0.356557

$$$$

