PCCDB-ID:  16840
public computational chemistry database (PCCDB) project, http://pccdb.org

 12 11  0  0  0  0  0  0  0  0999 V2000
    3.4801    0.8455   -0.6284 C   0  0  0  0  0  0  0  0  0  0  0  0
    5.3961   -0.4474    1.5431 C   0  0  0  0  0  0  0  0  0  0  0  0
    2.8993    0.8856    2.2226 C   0  0  0  0  0  0  0  0  0  0  0  0
    1.8617    1.3394    3.4216 S   0  0  0  0  0  0  0  0  0  0  0  0
    2.2205    0.4452    0.6473 S   0  0  0  0  0  0  0  0  0  0  0  0
    4.6359    0.8702    2.5741 S   0  0  0  0  0  0  0  0  0  0  0  0
    2.9100    1.1388   -1.5138 H   0  0  0  0  0  0  0  0  0  0  0  0
    4.1107   -0.0094   -0.8760 H   0  0  0  0  0  0  0  0  0  0  0  0
    4.0912    1.6910   -0.3054 H   0  0  0  0  0  0  0  0  0  0  0  0
    6.2031   -0.8619    2.1528 H   0  0  0  0  0  0  0  0  0  0  0  0
    5.8132   -0.0611    0.6120 H   0  0  0  0  0  0  0  0  0  0  0  0
    4.6685   -1.2354    1.3382 H   0  0  0  0  0  0  0  0  0  0  0  0
  1  9  1  0  0  0  0
  1  5  1  0  0  0  0
  2 10  1  0  0  0  0
  2  6  1  0  0  0  0
  3  6  1  0  0  0  0
  3  4  2  0  0  0  0
  5  3  1  0  0  0  0
  7  1  1  0  0  0  0
  8  1  1  0  0  0  0
 11  2  1  0  0  0  0
 12  2  1  0  0  0  0
M  END
>  <HBA>
3

>  <HBD>
0

>  <TPSA>
82.69

>  <cid>
16840

>  <dipole>
5.2

>  <excitation_energy_1>
2.566

>  <excitation_energy_2>
4.079

>  <excitation_energy_3>
4.291

>  <excitation_energy_4>
4.508

>  <homo_energy>
-5.948

>  <homo_lumo_gap>
3.84

>  <logP>
1.997

>  <lumo_energy>
-2.109

>  <melting_point>
23.73

>  <molecular_refractivity>
39.51

>  <oscillator_strength_1>
0.0019

>  <oscillator_strength_2>
0.126

>  <oscillator_strength_3>
0.0776

>  <oscillator_strength_4>
0.0016

>  <open_babel_can_smiles>
CSC(=S)SC

>  <mulliken_charges>
12
1   -0.622924
2   -0.622672
3   -0.350044
4   -0.08608
5   0.239995
6   0.23818
7   0.203947
8   0.189282
9   0.208548
10   0.20427
11   0.189267
12   0.208232

>  <lowdin_charges>
12
1   -0.55883
2   -0.558075
3   -0.352895
4   -0.064277
5   0.226925
6   0.225305
7   0.186391
8   0.169556
9   0.18509
10   0.186727
11   0.169105
12   0.184979

$$$$

