PCCDB-ID:  66325
public computational chemistry database (PCCDB) project, http://pccdb.org

 26 27  0  0  1  0  0  0  0  0999 V2000
    2.6781    0.6125   -0.7646 C   0  0  0  0  0  0  0  0  0  0  0  0
    2.8807   -5.1020   -1.3438 C   0  0  0  0  0  0  0  0  0  0  0  0
    2.1778   -4.0273   -1.9358 C   0  0  0  0  0  0  0  0  0  0  0  0
    3.7704   -2.3811    2.5843 C   0  0  0  0  0  0  0  0  0  0  0  0
    3.4331   -4.9479   -0.0933 C   0  0  0  0  0  0  0  0  0  0  0  0
    3.8913   -3.5699    1.9075 C   0  0  0  0  0  0  0  0  0  0  0  0
    2.0416   -2.8283   -1.2705 C   0  0  0  0  0  0  0  0  0  0  0  0
    3.0666   -1.2995    2.0056 C   0  0  0  0  0  0  0  0  0  0  0  0
    1.7548   -0.1929    0.1652 C   0  0  1  0  0  0  0  0  0  0  0  0
    3.3136   -3.7248    0.6191 C   0  0  0  0  0  0  0  0  0  0  0  0
    2.4820   -1.3978    0.7574 C   0  0  0  0  0  0  0  0  0  0  0  0
    2.5984   -2.6284    0.0254 C   0  0  0  0  0  0  0  0  0  0  0  0
    1.2854    0.7004    1.2376 N   0  0  0  0  0  0  0  0  0  0  0  0
    3.0775   -0.0163   -1.5660 H   0  0  0  0  0  0  0  0  0  0  0  0
    3.5160    1.0220   -0.1913 H   0  0  0  0  0  0  0  0  0  0  0  0
    2.1340    1.4473   -1.2254 H   0  0  0  0  0  0  0  0  0  0  0  0
    2.9813   -6.0438   -1.8763 H   0  0  0  0  0  0  0  0  0  0  0  0
    1.7416   -4.1485   -2.9239 H   0  0  0  0  0  0  0  0  0  0  0  0
    4.2143   -2.2623    3.5694 H   0  0  0  0  0  0  0  0  0  0  0  0
    3.9767   -5.7664    0.3734 H   0  0  0  0  0  0  0  0  0  0  0  0
    4.4290   -4.4081    2.3446 H   0  0  0  0  0  0  0  0  0  0  0  0
    1.4985   -2.0224   -1.7521 H   0  0  0  0  0  0  0  0  0  0  0  0
    2.9751   -0.3627    2.5454 H   0  0  0  0  0  0  0  0  0  0  0  0
    0.9132   -0.5672   -0.4411 H   0  0  0  0  0  0  0  0  0  0  0  0
    0.5980    0.2121    1.8108 H   0  0  0  0  0  0  0  0  0  0  0  0
    0.8014    1.4937    0.8195 H   0  0  0  0  0  0  0  0  0  0  0  0
  1 15  1  0  0  0  0
  1  9  1  0  0  0  0
  2  5  1  0  0  0  0
  3  2  2  0  0  0  0
  3  7  1  0  0  0  0
  4 19  1  0  0  0  0
  5 20  1  0  0  0  0
  5 10  2  0  0  0  0
  6 21  1  0  0  0  0
  6  4  2  0  0  0  0
  7 12  2  0  0  0  0
  8 23  1  0  0  0  0
  8  4  1  0  0  0  0
  9 24  1  6  0  0  0
  9 11  1  0  0  0  0
  9 13  1  0  0  0  0
 10  6  1  0  0  0  0
 11  8  2  0  0  0  0
 12 10  1  0  0  0  0
 12 11  1  0  0  0  0
 13 25  1  0  0  0  0
 14  1  1  0  0  0  0
 16  1  1  0  0  0  0
 17  2  1  0  0  0  0
 18  3  1  0  0  0  0
 22  7  1  0  0  0  0
 26 13  1  0  0  0  0
M  END
>  <HBA>
1

>  <HBD>
1

>  <TPSA>
26.02

>  <cid>
66325

>  <dipole>
1.34

>  <excitation_energy_1>
4.254

>  <excitation_energy_2>
4.408

>  <excitation_energy_3>
4.813

>  <excitation_energy_4>
5.156

>  <homo_energy>
-5.627

>  <homo_lumo_gap>
4.732

>  <logP>
3.56

>  <lumo_energy>
-0.895

>  <melting_point>
106.07

>  <molecular_refractivity>
56.43

>  <oscillator_strength_1>
0.0897

>  <oscillator_strength_2>
0.0001

>  <oscillator_strength_3>
0.0005

>  <oscillator_strength_4>
0.0007

>  <open_babel_can_smiles>
C[C@@H](c1cccc2c1cccc2)N

>  <mulliken_charges>
26
1   -0.43759
2   -0.133154
3   -0.137078
4   -0.131662
5   -0.195305
6   -0.191273
7   -0.199233
8   -0.197084
9   -0.029256
10   0.137726
11   0.078369
12   0.077034
13   -0.727292
14   0.153953
15   0.163642
16   0.133569
17   0.127879
18   0.12682
19   0.127383
20   0.128033
21   0.12588
22   0.128908
23   0.156556
24   0.117363
25   0.298891
26   0.296921

>  <lowdin_charges>
26
1   -0.44788
2   -0.161809
3   -0.15779
4   -0.157046
5   -0.156502
6   -0.161805
7   -0.169002
8   -0.168309
9   -0.063651
10   0.000935
11   -0.015365
12   -0.008421
13   -0.551646
14   0.157433
15   0.160914
16   0.14493
17   0.157715
18   0.156224
19   0.156416
20   0.157693
21   0.156747
22   0.158221
23   0.172015
24   0.126128
25   0.257183
26   0.256672

$$$$

