PCCDB-ID:  65272
public computational chemistry database (PCCDB) project, http://pccdb.org

 14 14  0  0  1  0  0  0  0  0999 V2000
   -1.3516   -0.5682    0.2771 C   0  0  0  0  0  0  0  0  0  0  0  0
   -0.7294    0.8532    0.2497 C   0  0  1  0  0  0  0  0  0  0  0  0
   -1.1542    1.6739    1.4768 C   0  0  0  0  0  0  0  0  0  0  0  0
    1.0995   -0.3723   -0.2785 C   0  0  0  0  0  0  0  0  0  0  0  0
    0.7278    0.7702    0.1513 N   0  0  0  0  0  0  0  0  0  0  0  0
   -2.2848    1.6671    1.8995 O   0  0  0  0  0  0  0  0  0  0  0  0
   -0.1732    2.4153    2.0182 O   0  0  0  0  0  0  0  0  0  0  0  0
    2.3661   -0.7160   -0.5332 O   0  0  0  0  0  0  0  0  0  0  0  0
   -0.1175   -1.6329   -0.5879 S   0  0  0  0  0  0  0  0  0  0  0  0
   -2.3093   -0.6091   -0.2415 H   0  0  0  0  0  0  0  0  0  0  0  0
   -1.4891   -0.9293    1.2989 H   0  0  0  0  0  0  0  0  0  0  0  0
   -1.1047    1.3976   -0.6302 H   0  0  0  0  0  0  0  0  0  0  0  0
    0.6514    2.1927    1.5342 H   0  0  0  0  0  0  0  0  0  0  0  0
    2.9140    0.0783   -0.3918 H   0  0  0  0  0  0  0  0  0  0  0  0
  1 11  1  0  0  0  0
  2 12  1  6  0  0  0
  2  1  1  0  0  0  0
  2  3  1  0  0  0  0
  3  6  2  0  0  0  0
  3  7  1  0  0  0  0
  4  5  2  0  0  0  0
  5  2  1  0  0  0  0
  8 14  1  0  0  0  0
  8  4  1  0  0  0  0
  9  4  1  0  0  0  0
  9  1  1  0  0  0  0
 10  1  1  0  0  0  0
 13  7  1  0  0  0  0
M  END
>  <HBA>
5

>  <HBD>
2

>  <TPSA>
91.7

>  <cid>
65272

>  <dipole>
3.49

>  <excitation_energy_1>
5.138

>  <excitation_energy_2>
5.48

>  <excitation_energy_3>
5.701

>  <excitation_energy_4>
5.805

>  <homo_energy>
-6.898

>  <homo_lumo_gap>
6.572

>  <logP>
0.225

>  <lumo_energy>
-0.327

>  <melting_point>
142.38

>  <molecular_refractivity>
35.9

>  <oscillator_strength_1>
0.0003

>  <oscillator_strength_2>
0.0108

>  <oscillator_strength_3>
0.0119

>  <oscillator_strength_4>
0.0647

>  <open_babel_can_smiles>
OC(=O)[C@@H]1CSC(=N1)O

>  <mulliken_charges>
14
1   -0.44454
2   -0.067678
3   0.599777
4   0.351315
5   -0.489269
6   -0.453293
7   -0.570783
8   -0.564314
9   0.17301
10   0.20518
11   0.210931
12   0.194944
13   0.42888
14   0.42584

>  <lowdin_charges>
14
1   -0.36475
2   -0.099592
3   0.180952
4   0.032938
5   -0.280144
6   -0.24669
7   -0.342972
8   -0.327834
9   0.175265
10   0.184824
11   0.177041
12   0.17497
13   0.361003
14   0.374987

$$$$

