PCCDB-ID:  9077
public computational chemistry database (PCCDB) project, http://pccdb.org

 24 25  0  0  0  0  0  0  0  0999 V2000
   -1.4123   -0.8626   -0.2498 C   0  0  0  0  0  0  0  0  0  0  0  0
   -0.9056    0.4379   -0.3200 C   0  0  0  0  0  0  0  0  0  0  0  0
   -0.5363   -1.9395   -0.0910 C   0  0  0  0  0  0  0  0  0  0  0  0
    0.4658    0.6606   -0.2340 C   0  0  0  0  0  0  0  0  0  0  0  0
    0.8385   -1.7259   -0.0241 C   0  0  0  0  0  0  0  0  0  0  0  0
    5.7175    0.4074    0.1913 C   0  0  0  0  0  0  0  0  0  0  0  0
    7.0887    0.1201   -0.0083 C   0  0  0  0  0  0  0  0  0  0  0  0
    3.5993   -0.9354   -0.4904 C   0  0  0  0  0  0  0  0  0  0  0  0
    1.3556   -0.4199   -0.1116 C   0  0  0  0  0  0  0  0  0  0  0  0
    5.0096   -0.6389   -0.3646 C   0  0  0  0  0  0  0  0  0  0  0  0
    7.1139   -1.0811   -0.6693 C   0  0  0  0  0  0  0  0  0  0  0  0
    2.7244   -0.1126   -0.0397 N   0  0  0  0  0  0  0  0  0  0  0  0
    8.2170   -1.8630   -1.1278 N   0  0  0  0  0  0  0  0  0  0  0  0
    9.3375   -1.3922   -0.9048 O   0  0  0  0  0  0  0  0  0  0  0  0
    7.9761   -2.9254   -1.6994 O   0  0  0  0  0  0  0  0  0  0  0  0
    5.8719   -1.5582   -0.8952 O   0  0  0  0  0  0  0  0  0  0  0  0
   -2.4836   -1.0349   -0.3013 H   0  0  0  0  0  0  0  0  0  0  0  0
   -1.5821    1.2808   -0.4307 H   0  0  0  0  0  0  0  0  0  0  0  0
   -0.9262   -2.9506   -0.0103 H   0  0  0  0  0  0  0  0  0  0  0  0
    0.8769    1.6645   -0.2750 H   0  0  0  0  0  0  0  0  0  0  0  0
    1.5093   -2.5651    0.1361 H   0  0  0  0  0  0  0  0  0  0  0  0
    5.2800    1.2664    0.6781 H   0  0  0  0  0  0  0  0  0  0  0  0
    7.9518    0.6981    0.2845 H   0  0  0  0  0  0  0  0  0  0  0  0
    3.3569   -1.8788   -0.9954 H   0  0  0  0  0  0  0  0  0  0  0  0
  1  3  1  0  0  0  0
  2  1  2  0  0  0  0
  2  4  1  0  0  0  0
  3  5  2  0  0  0  0
  3 19  1  0  0  0  0
  4  9  2  0  0  0  0
  5 21  1  0  0  0  0
  6 22  1  0  0  0  0
  7  6  1  0  0  0  0
  7 23  1  0  0  0  0
  8 10  1  0  0  0  0
  8 12  2  0  0  0  0
  9 12  1  0  0  0  0
  9  5  1  0  0  0  0
 10  6  2  0  0  0  0
 11  7  2  0  0  0  0
 13 14  2  0  0  0  0
 13 11  1  0  0  0  0
 15 13  2  0  0  0  0
 16 11  1  0  0  0  0
 16 10  1  0  0  0  0
 17  1  1  0  0  0  0
 18  2  1  0  0  0  0
 20  4  1  0  0  0  0
 24  8  1  0  0  0  0
M  END
>  <HBA>
2

>  <HBD>
0

>  <TPSA>
71.32

>  <cid>
9077

>  <dipole>
4.9

>  <excitation_energy_1>
3.039

>  <excitation_energy_2>
3.655

>  <excitation_energy_3>
3.675

>  <excitation_energy_4>
3.84

>  <homo_energy>
-6.37

>  <homo_lumo_gap>
3.48

>  <logP>
3.462

>  <lumo_energy>
-2.89

>  <melting_point>
97.97

>  <molecular_refractivity>
61.23

>  <oscillator_strength_1>
0.4479

>  <oscillator_strength_2>
0.0103

>  <oscillator_strength_3>
0.0001

>  <oscillator_strength_4>
0.2266

>  <open_babel_can_smiles>
O=N(=O)c1ccc(o1)/C=N/c1ccccc1

>  <mulliken_charges>
24
1   -0.122767
2   -0.135702
3   -0.14153
4   -0.147224
5   -0.153926
6   -0.18594
7   -0.144819
8   0.012582
9   0.273347
10   0.359071
11   0.536997
12   -0.46401
13   0.330501
14   -0.401836
15   -0.388296
16   -0.452946
17   0.136918
18   0.138244
19   0.138806
20   0.142625
21   0.138236
22   0.182564
23   0.192347
24   0.156757

>  <lowdin_charges>
24
1   -0.150475
2   -0.152029
3   -0.148642
4   -0.15293
5   -0.175009
6   -0.1688
7   -0.152307
8   -0.074749
9   0.035072
10   0.085632
11   0.073602
12   -0.128514
13   0.30169
14   -0.253211
15   -0.23573
16   -0.060674
17   0.15993
18   0.163043
19   0.161373
20   0.167304
21   0.162818
22   0.192121
23   0.197691
24   0.152795

$$$$

