PCCDB-ID:  21322
public computational chemistry database (PCCDB) project, http://pccdb.org

 23 23  0  0  0  0  0  0  0  0999 V2000
   -1.7586   -0.7325   -1.5453 C   0  0  0  0  0  0  0  0  0  0  0  0
   -1.2391   -1.5027   -0.5034 C   0  0  0  0  0  0  0  0  0  0  0  0
   -0.9418    0.1884   -2.2056 C   0  0  0  0  0  0  0  0  0  0  0  0
    0.0953   -1.3579   -0.1297 C   0  0  0  0  0  0  0  0  0  0  0  0
    0.3900    0.3479   -1.8292 C   0  0  0  0  0  0  0  0  0  0  0  0
    3.2320    3.0072   -0.1607 C   0  0  0  0  0  0  0  0  0  0  0  0
    0.9217   -0.4287   -0.7869 C   0  0  0  0  0  0  0  0  0  0  0  0
    4.6063    3.1852   -0.8285 C   0  0  0  0  0  0  0  0  0  0  0  0
    2.3444   -0.3358   -0.3841 C   0  0  0  0  0  0  0  0  0  0  0  0
    3.1034    0.6996   -0.3059 N   0  0  0  0  0  0  0  0  0  0  0  0
    5.0541    4.2885   -1.0347 O   0  0  0  0  0  0  0  0  0  0  0  0
    5.2864    2.0648   -1.1092 O   0  0  0  0  0  0  0  0  0  0  0  0
    2.9582   -1.4889   -0.0003 O   0  0  0  0  0  0  0  0  0  0  0  0
    2.4477    1.9039   -0.6268 O   0  0  0  0  0  0  0  0  0  0  0  0
   -2.7979   -0.8473   -1.8404 H   0  0  0  0  0  0  0  0  0  0  0  0
   -1.8718   -2.2131    0.0207 H   0  0  0  0  0  0  0  0  0  0  0  0
   -1.3432    0.7864   -3.0187 H   0  0  0  0  0  0  0  0  0  0  0  0
    0.4913   -1.9427    0.6964 H   0  0  0  0  0  0  0  0  0  0  0  0
    1.0207    1.0662   -2.3374 H   0  0  0  0  0  0  0  0  0  0  0  0
    2.6335    3.8901   -0.3855 H   0  0  0  0  0  0  0  0  0  0  0  0
    3.3727    2.9350    0.9265 H   0  0  0  0  0  0  0  0  0  0  0  0
    4.7578    1.2868   -0.8053 H   0  0  0  0  0  0  0  0  0  0  0  0
    2.4641   -2.2353   -0.3754 H   0  0  0  0  0  0  0  0  0  0  0  0
  1  2  2  0  0  0  0
  2  4  1  0  0  0  0
  2 16  1  0  0  0  0
  3  5  2  0  0  0  0
  3  1  1  0  0  0  0
  4 18  1  0  0  0  0
  5  7  1  0  0  0  0
  6 21  1  0  0  0  0
  7  9  1  0  0  0  0
  7  4  2  0  0  0  0
  8  6  1  0  0  0  0
  9 10  2  0  0  0  0
  9 13  1  0  0  0  0
 11  8  2  0  0  0  0
 12  8  1  0  0  0  0
 12 22  1  0  0  0  0
 14 10  1  0  0  0  0
 14  6  1  0  0  0  0
 15  1  1  0  0  0  0
 17  3  1  0  0  0  0
 19  5  1  0  0  0  0
 20  6  1  0  0  0  0
 23 13  1  0  0  0  0
M  END
>  <HBA>
5

>  <HBD>
2

>  <TPSA>
75.63

>  <cid>
21322

>  <dipole>
8.22

>  <excitation_energy_1>
4.391

>  <excitation_energy_2>
4.868

>  <excitation_energy_3>
5.086

>  <excitation_energy_4>
5.243

>  <homo_energy>
-6.534

>  <homo_lumo_gap>
4.906

>  <logP>
0.824

>  <lumo_energy>
-1.627

>  <melting_point>
135.28

>  <molecular_refractivity>
47.1

>  <oscillator_strength_1>
0.1463

>  <oscillator_strength_2>
0.0048

>  <oscillator_strength_3>
0.1059

>  <oscillator_strength_4>
0.0321

>  <open_babel_can_smiles>
O/C(=N/OCC(=O)O)/c1ccccc1

>  <mulliken_charges>
23
1   -0.116958
2   -0.1315
3   -0.137953
4   -0.191759
5   -0.137383
6   -0.125611
7   0.079687
8   0.571738
9   0.455124
10   -0.265994
11   -0.447924
12   -0.575444
13   -0.579213
14   -0.383083
15   0.146115
16   0.145863
17   0.148269
18   0.15119
19   0.171626
20   0.191982
21   0.176408
22   0.436369
23   0.418453

>  <lowdin_charges>
23
1   -0.136608
2   -0.152355
3   -0.1493
4   -0.162277
5   -0.134435
6   -0.174209
7   -0.044771
8   0.17608
9   0.125816
10   -0.102934
11   -0.251941
12   -0.357712
13   -0.352773
14   -0.19334
15   0.164583
16   0.167123
17   0.167772
18   0.166544
19   0.180636
20   0.181125
21   0.162273
22   0.354238
23   0.366465

$$$$

