PCCDB-ID:  70628
public computational chemistry database (PCCDB) project, http://pccdb.org

 21 22  0  0  0  0  0  0  0  0999 V2000
   -2.3011    0.1045   -0.1612 C   0  0  0  0  0  0  0  0  0  0  0  0
   -1.5832    1.3001   -0.1239 C   0  0  0  0  0  0  0  0  0  0  0  0
   -1.6137   -1.1106   -0.2152 C   0  0  0  0  0  0  0  0  0  0  0  0
   -0.1871    1.2777   -0.1402 C   0  0  0  0  0  0  0  0  0  0  0  0
   -0.2193   -1.1306   -0.2254 C   0  0  0  0  0  0  0  0  0  0  0  0
    3.9630   -0.8052   -1.4448 C   0  0  0  0  0  0  0  0  0  0  0  0
    2.8314   -0.6307   -2.4003 C   0  0  0  0  0  0  0  0  0  0  0  0
    2.0259    0.0488   -0.1524 C   0  0  0  0  0  0  0  0  0  0  0  0
    0.5100    0.0652   -0.1851 C   0  0  0  0  0  0  0  0  0  0  0  0
    2.5833   -0.9986   -1.0085 N   0  0  0  0  0  0  0  0  0  0  0  0
   -3.3878    0.1186   -0.1540 H   0  0  0  0  0  0  0  0  0  0  0  0
   -2.1081    2.2515   -0.0898 H   0  0  0  0  0  0  0  0  0  0  0  0
   -2.1662   -2.0463   -0.2490 H   0  0  0  0  0  0  0  0  0  0  0  0
    0.3674    2.2138   -0.1185 H   0  0  0  0  0  0  0  0  0  0  0  0
    0.3193   -2.0718   -0.2779 H   0  0  0  0  0  0  0  0  0  0  0  0
    4.4822    0.0972   -1.1185 H   0  0  0  0  0  0  0  0  0  0  0  0
    4.5818   -1.6998   -1.4711 H   0  0  0  0  0  0  0  0  0  0  0  0
    2.6055   -1.3953   -3.1402 H   0  0  0  0  0  0  0  0  0  0  0  0
    2.5934    0.3876   -2.7106 H   0  0  0  0  0  0  0  0  0  0  0  0
    2.3746   -0.1574    0.8696 H   0  0  0  0  0  0  0  0  0  0  0  0
    2.4097    1.0523   -0.4166 H   0  0  0  0  0  0  0  0  0  0  0  0
  1 11  1  0  0  0  0
  1  2  2  0  0  0  0
  2 12  1  0  0  0  0
  3  1  1  0  0  0  0
  4  2  1  0  0  0  0
  4 14  1  0  0  0  0
  5  3  2  0  0  0  0
  5  9  1  0  0  0  0
  6 16  1  0  0  0  0
  6 10  1  0  0  0  0
  7  6  1  0  0  0  0
  7 10  1  0  0  0  0
  8 20  1  0  0  0  0
  9  8  1  0  0  0  0
  9  4  2  0  0  0  0
 10  8  1  0  0  0  0
 13  3  1  0  0  0  0
 15  5  1  0  0  0  0
 17  6  1  0  0  0  0
 18  7  1  0  0  0  0
 19  7  1  0  0  0  0
 21  8  1  0  0  0  0
M  END
>  <HBA>
1

>  <HBD>
0

>  <TPSA>
3.01

>  <cid>
70628

>  <dipole>
1.19

>  <excitation_energy_1>
5.281

>  <excitation_energy_2>
5.49

>  <excitation_energy_3>
5.634

>  <excitation_energy_4>
5.914

>  <homo_energy>
-6.316

>  <homo_lumo_gap>
6.433

>  <logP>
1.44

>  <lumo_energy>
0.117

>  <melting_point>
17.11

>  <molecular_refractivity>
45.72

>  <oscillator_strength_1>
0.0001

>  <oscillator_strength_2>
0.0038

>  <oscillator_strength_3>
0.0056

>  <oscillator_strength_4>
0.019

>  <open_babel_can_smiles>
c1ccc(cc1)CN1CC1

>  <mulliken_charges>
21
1   -0.12912
2   -0.128909
3   -0.131937
4   -0.186403
5   -0.164716
6   -0.191737
7   -0.188687
8   -0.207536
9   0.152738
10   -0.352512
11   0.126013
12   0.12613
13   0.127314
14   0.118565
15   0.146953
16   0.143174
17   0.157807
18   0.158491
19   0.147638
20   0.160498
21   0.116235

>  <lowdin_charges>
21
1   -0.15798
2   -0.157641
3   -0.156121
4   -0.170212
5   -0.157891
6   -0.244233
7   -0.241461
8   -0.194784
9   -0.010412
10   -0.190616
11   0.153808
12   0.155992
13   0.15649
14   0.152286
15   0.167242
16   0.147798
17   0.159525
18   0.16085
19   0.148101
20   0.154516
21   0.124744

$$$$

