PCCDB-ID:  41088
public computational chemistry database (PCCDB) project, http://pccdb.org

 29 28  0  0  1  0  0  0  0  0999 V2000
    7.2218   -8.2552   -0.3685 C   0  0  0  0  0  0  0  0  0  0  0  0
    4.2164   -2.0914    5.9739 C   0  0  0  0  0  0  0  0  0  0  0  0
    6.4735   -7.1646   -1.1466 C   0  0  0  0  0  0  0  0  0  0  0  0
    5.9961   -5.9803   -0.2891 C   0  0  0  0  0  0  0  0  0  0  0  0
    7.1385   -5.1228    0.2670 C   0  0  0  0  0  0  0  0  0  0  0  0
    6.1619   -4.1069    2.1959 C   0  0  0  0  0  0  0  0  0  0  0  0
    5.8789   -2.7222    2.7597 C   0  0  0  0  0  0  0  0  0  0  0  0
    4.9656   -1.7028    4.7083 C   0  0  1  0  0  0  0  0  0  0  0  0
    6.0830   -0.8785    4.9739 O   0  0  0  0  0  0  0  0  0  0  0  0
    6.6941   -3.9283    0.8971 O   0  0  0  0  0  0  0  0  0  0  0  0
    5.3297   -2.9016    4.0612 O   0  0  0  0  0  0  0  0  0  0  0  0
    7.4944   -9.0888   -1.0257 H   0  0  0  0  0  0  0  0  0  0  0  0
    6.5994   -8.6589    0.4398 H   0  0  0  0  0  0  0  0  0  0  0  0
    8.1469   -7.8788    0.0827 H   0  0  0  0  0  0  0  0  0  0  0  0
    4.8621   -2.7020    6.6169 H   0  0  0  0  0  0  0  0  0  0  0  0
    3.3263   -2.6799    5.7326 H   0  0  0  0  0  0  0  0  0  0  0  0
    3.9169   -1.1939    6.5224 H   0  0  0  0  0  0  0  0  0  0  0  0
    5.5989   -7.6135   -1.6349 H   0  0  0  0  0  0  0  0  0  0  0  0
    7.1134   -6.7895   -1.9584 H   0  0  0  0  0  0  0  0  0  0  0  0
    5.3742   -6.3576    0.5340 H   0  0  0  0  0  0  0  0  0  0  0  0
    5.3556   -5.3247   -0.8929 H   0  0  0  0  0  0  0  0  0  0  0  0
    7.7819   -4.7926   -0.5575 H   0  0  0  0  0  0  0  0  0  0  0  0
    7.7643   -5.7010    0.9658 H   0  0  0  0  0  0  0  0  0  0  0  0
    5.2312   -4.6936    2.1859 H   0  0  0  0  0  0  0  0  0  0  0  0
    6.8797   -4.6339    2.8464 H   0  0  0  0  0  0  0  0  0  0  0  0
    5.1657   -2.1938    2.1085 H   0  0  0  0  0  0  0  0  0  0  0  0
    6.8016   -2.1313    2.7980 H   0  0  0  0  0  0  0  0  0  0  0  0
    4.3365   -1.0924    4.0444 H   0  0  0  0  0  0  0  0  0  0  0  0
    6.6567   -1.3718    5.5848 H   0  0  0  0  0  0  0  0  0  0  0  0
  1 14  1  0  0  0  0
  1 13  1  0  0  0  0
  2 17  1  0  0  0  0
  2 15  1  0  0  0  0
  3  1  1  0  0  0  0
  3  4  1  0  0  0  0
  4  5  1  0  0  0  0
  4 20  1  0  0  0  0
  5 10  1  0  0  0  0
  5 23  1  0  0  0  0
  6  7  1  0  0  0  0
  6 25  1  0  0  0  0
  7 27  1  0  0  0  0
  7 11  1  0  0  0  0
  8 28  1  6  0  0  0
  8  9  1  0  0  0  0
  8  2  1  0  0  0  0
  9 29  1  0  0  0  0
 10  6  1  0  0  0  0
 11  8  1  0  0  0  0
 12  1  1  0  0  0  0
 16  2  1  0  0  0  0
 18  3  1  0  0  0  0
 19  3  1  0  0  0  0
 21  4  1  0  0  0  0
 22  5  1  0  0  0  0
 24  6  1  0  0  0  0
 26  7  1  0  0  0  0
M  END
>  <HBA>
3

>  <HBD>
1

>  <TPSA>
38.69

>  <cid>
41088

>  <dipole>
1.73

>  <excitation_energy_1>
6.458

>  <excitation_energy_2>
6.681

>  <excitation_energy_3>
6.801

>  <excitation_energy_4>
6.902

>  <homo_energy>
-6.743

>  <homo_lumo_gap>
8.95

>  <logP>
1.158

>  <lumo_energy>
2.207

>  <melting_point>
-27.17

>  <molecular_refractivity>
43.9

>  <oscillator_strength_1>
0.0088

>  <oscillator_strength_2>
0.0033

>  <oscillator_strength_3>
0.0033

>  <oscillator_strength_4>
0.0211

>  <open_babel_can_smiles>
CCCCOCCO[C@H](O)C

>  <mulliken_charges>
29
1   -0.445096
2   -0.465192
3   -0.257253
4   -0.274438
5   -0.011672
6   -0.028342
7   -0.032832
8   0.333746
9   -0.603585
10   -0.484846
11   -0.48881
12   0.145275
13   0.143167
14   0.14633
15   0.145234
16   0.158965
17   0.158428
18   0.137264
19   0.132814
20   0.134615
21   0.143751
22   0.139653
23   0.120346
24   0.132074
25   0.124553
26   0.132943
27   0.151293
28   0.126264
29   0.385352

>  <lowdin_charges>
29
1   -0.449965
2   -0.463242
3   -0.274423
4   -0.29604
5   -0.135756
6   -0.135884
7   -0.136945
8   0.093222
9   -0.452632
10   -0.273041
11   -0.274917
12   0.152073
13   0.148042
14   0.146946
15   0.154407
16   0.162956
17   0.161441
18   0.146318
19   0.140887
20   0.142089
21   0.150977
22   0.14559
23   0.129098
24   0.131691
25   0.130982
26   0.137018
27   0.143935
28   0.132645
29   0.342528

$$$$

