PCCDB-ID:  15620
public computational chemistry database (PCCDB) project, http://pccdb.org

 21 20  0  0  0  0  0  0  0  0999 V2000
    1.2047   -0.7331    0.1978 C   0  0  0  0  0  0  0  0  0  0  0  0
    7.0814    3.2455   -0.3329 C   0  0  0  0  0  0  0  0  0  0  0  0
    2.7082   -0.4393    0.2186 C   0  0  0  0  0  0  0  0  0  0  0  0
    3.1311    0.6218   -0.8058 C   0  0  0  0  0  0  0  0  0  0  0  0
    4.6392    0.9131   -0.7909 C   0  0  0  0  0  0  0  0  0  0  0  0
    5.0415    1.9740   -1.8195 C   0  0  0  0  0  0  0  0  0  0  0  0
    6.8391    2.3455   -1.9051 S   0  0  0  0  0  0  0  0  0  0  0  0
    0.9359   -1.4935    0.9399 H   0  0  0  0  0  0  0  0  0  0  0  0
    0.8857   -1.1000   -0.7855 H   0  0  0  0  0  0  0  0  0  0  0  0
    0.6208    0.1689    0.4190 H   0  0  0  0  0  0  0  0  0  0  0  0
    8.1250    3.5709   -0.3146 H   0  0  0  0  0  0  0  0  0  0  0  0
    6.9007    2.6080    0.5370 H   0  0  0  0  0  0  0  0  0  0  0  0
    6.4380    4.1298   -0.2819 H   0  0  0  0  0  0  0  0  0  0  0  0
    3.2657   -1.3672    0.0285 H   0  0  0  0  0  0  0  0  0  0  0  0
    3.0029   -0.1088    1.2247 H   0  0  0  0  0  0  0  0  0  0  0  0
    2.5754    1.5520   -0.6148 H   0  0  0  0  0  0  0  0  0  0  0  0
    2.8338    0.2922   -1.8125 H   0  0  0  0  0  0  0  0  0  0  0  0
    5.1990   -0.0093   -0.9917 H   0  0  0  0  0  0  0  0  0  0  0  0
    4.9335    1.2409    0.2153 H   0  0  0  0  0  0  0  0  0  0  0  0
    4.4989    2.9123   -1.6482 H   0  0  0  0  0  0  0  0  0  0  0  0
    4.7839    1.6385   -2.8309 H   0  0  0  0  0  0  0  0  0  0  0  0
  1  3  1  0  0  0  0
  1 10  1  0  0  0  0
  1  8  1  0  0  0  0
  2 11  1  0  0  0  0
  2 13  1  0  0  0  0
  2 12  1  0  0  0  0
  3 15  1  0  0  0  0
  4  5  1  0  0  0  0
  4 16  1  0  0  0  0
  4  3  1  0  0  0  0
  5 19  1  0  0  0  0
  6 20  1  0  0  0  0
  6  5  1  0  0  0  0
  7  6  1  0  0  0  0
  7  2  1  0  0  0  0
  9  1  1  0  0  0  0
 14  3  1  0  0  0  0
 17  4  1  0  0  0  0
 18  5  1  0  0  0  0
 21  6  1  0  0  0  0
M  END
>  <HBA>
1

>  <HBD>
0

>  <TPSA>
25.3

>  <cid>
15620

>  <dipole>
1.83

>  <excitation_energy_1>
5.122

>  <excitation_energy_2>
5.494

>  <excitation_energy_3>
5.874

>  <excitation_energy_4>
5.97

>  <homo_energy>
-5.837

>  <homo_lumo_gap>
7.121

>  <logP>
2.54

>  <lumo_energy>
1.284

>  <melting_point>
-17.59

>  <molecular_refractivity>
38.55

>  <oscillator_strength_1>
0.0001

>  <oscillator_strength_2>
0.0106

>  <oscillator_strength_3>
0.0262

>  <oscillator_strength_4>
0.012

>  <open_babel_can_smiles>
CCCCCSC

>  <mulliken_charges>
21
1   -0.441614
2   -0.582526
3   -0.246765
4   -0.24947
5   -0.248324
6   -0.415795
7   0.083088
8   0.143448
9   0.142602
10   0.141667
11   0.182861
12   0.178129
13   0.173291
14   0.133664
15   0.131092
16   0.128041
17   0.130029
18   0.148579
19   0.135191
20   0.161942
21   0.170872

>  <lowdin_charges>
21
1   -0.44532
2   -0.547461
3   -0.270798
4   -0.27501
5   -0.279895
6   -0.375842
7   0.092111
8   0.151044
9   0.146647
10   0.146833
11   0.174674
12   0.16042
13   0.160003
14   0.140739
15   0.138567
16   0.137962
17   0.138083
18   0.149775
19   0.140681
20   0.152403
21   0.164384

$$$$

