PCCDB-ID:  5766
public computational chemistry database (PCCDB) project, http://pccdb.org

 17 18  0  0  0  0  0  0  0  0999 V2000
   -2.5136    0.6516   -0.0020 C   0  0  0  0  0  0  0  0  0  0  0  0
   -2.4862   -0.6928   -0.0012 C   0  0  0  0  0  0  0  0  0  0  0  0
    1.2385    1.4125   -0.0039 C   0  0  0  0  0  0  0  0  0  0  0  0
    2.4192    0.6692   -0.0008 C   0  0  0  0  0  0  0  0  0  0  0  0
    1.2930   -1.3226    0.0004 C   0  0  0  0  0  0  0  0  0  0  0  0
    0.0258    0.7249   -0.0039 C   0  0  0  0  0  0  0  0  0  0  0  0
    0.0487   -0.6791   -0.0024 C   0  0  0  0  0  0  0  0  0  0  0  0
   -1.2749    1.4670   -0.0060 C   0  0  0  0  0  0  0  0  0  0  0  0
   -1.2158   -1.4648   -0.0028 C   0  0  0  0  0  0  0  0  0  0  0  0
    2.4599   -0.6723    0.0014 N   0  0  0  0  0  0  0  0  0  0  0  0
   -1.3200    2.6897   -0.0110 O   0  0  0  0  0  0  0  0  0  0  0  0
   -1.2286   -2.6894   -0.0044 O   0  0  0  0  0  0  0  0  0  0  0  0
   -3.4435    1.2137   -0.0011 H   0  0  0  0  0  0  0  0  0  0  0  0
   -3.3933   -1.2911   -0.0001 H   0  0  0  0  0  0  0  0  0  0  0  0
    1.2449    2.4973   -0.0065 H   0  0  0  0  0  0  0  0  0  0  0  0
    3.3838    1.1731    0.0001 H   0  0  0  0  0  0  0  0  0  0  0  0
    1.3298   -2.4090    0.0020 H   0  0  0  0  0  0  0  0  0  0  0  0
  1  2  2  0  0  0  0
  1 13  1  0  0  0  0
  2 14  1  0  0  0  0
  3  6  2  0  0  0  0
  3  4  1  0  0  0  0
  4 16  1  0  0  0  0
  4 10  2  0  0  0  0
  5 10  1  0  0  0  0
  5 17  1  0  0  0  0
  6  7  1  0  0  0  0
  7  5  2  0  0  0  0
  8  6  1  0  0  0  0
  8  1  1  0  0  0  0
  9  7  1  0  0  0  0
  9  2  1  0  0  0  0
 11  8  2  0  0  0  0
 12  9  2  0  0  0  0
 15  3  1  0  0  0  0
M  END
>  <HBA>
3

>  <HBD>
0

>  <TPSA>
47.03

>  <cid>
5766

>  <dipole>
1.51

>  <excitation_energy_1>
2.544

>  <excitation_energy_2>
2.906

>  <excitation_energy_3>
3.343

>  <excitation_energy_4>
3.564

>  <homo_energy>
-7.206

>  <homo_lumo_gap>
3.676

>  <logP>
1.017

>  <lumo_energy>
-3.529

>  <melting_point>
121.98

>  <molecular_refractivity>
42.04

>  <oscillator_strength_1>
0.0001

>  <oscillator_strength_2>
0.0

>  <oscillator_strength_3>
0.0002

>  <oscillator_strength_4>
0.0446

>  <open_babel_can_smiles>
O=C1C=CC(=O)c2c1cncc2

>  <mulliken_charges>
17
1   -0.160301
2   -0.156706
3   -0.183635
4   0.051578
5   0.016236
6   0.067247
7   0.014157
8   0.406578
9   0.394307
10   -0.403185
11   -0.454248
12   -0.458115
13   0.173334
14   0.173902
15   0.175678
16   0.160471
17   0.182703

>  <lowdin_charges>
17
1   -0.148616
2   -0.142493
3   -0.143589
4   -0.070412
5   -0.056246
6   -0.014923
7   -0.05808
8   0.148117
9   0.146935
10   -0.130351
11   -0.20973
12   -0.214068
13   0.183497
14   0.183958
15   0.183137
16   0.166643
17   0.176221

$$$$

