PCCDB-ID:  25865
public computational chemistry database (PCCDB) project, http://pccdb.org

 35 35  0  0  1  0  0  0  0  0999 V2000
    3.2447   -5.5952   -1.0406 C   0  0  0  0  0  0  0  0  0  0  0  0
    7.6204   -0.3088   -2.2574 C   0  0  0  0  0  0  0  0  0  0  0  0
    6.0412   -1.1797   -5.6123 C   0  0  0  0  0  0  0  0  0  0  0  0
    4.5125   -4.8943   -1.5394 C   0  0  0  0  0  0  0  0  0  0  0  0
    4.2898   -3.4184   -1.8944 C   0  0  0  0  0  0  0  0  0  0  0  0
    5.5539   -2.7142   -2.4047 C   0  0  0  0  0  0  0  0  0  0  0  0
    5.3152   -1.2369   -2.7471 C   0  0  0  0  0  0  0  0  0  0  0  0
    9.1073   -1.3488   -6.0129 C   0  0  0  0  0  0  0  0  0  0  0  0
    9.6058   -1.0861   -4.6145 C   0  0  0  0  0  0  0  0  0  0  0  0
    6.5340   -0.4818   -3.3284 C   0  0  2  0  0  0  0  0  0  0  0  0
    8.2686   -0.5431   -5.0528 C   0  0  0  0  0  0  0  0  0  0  0  0
    7.0507   -1.1385   -4.5523 N   0  0  0  0  0  0  0  0  0  0  0  0
    3.4367   -6.6464   -0.7966 H   0  0  0  0  0  0  0  0  0  0  0  0
    2.4528   -5.5688   -1.7995 H   0  0  0  0  0  0  0  0  0  0  0  0
    2.8522   -5.1102   -0.1382 H   0  0  0  0  0  0  0  0  0  0  0  0
    7.1734    0.1262   -1.3565 H   0  0  0  0  0  0  0  0  0  0  0  0
    8.4199    0.3582   -2.5882 H   0  0  0  0  0  0  0  0  0  0  0  0
    8.0730   -1.2671   -1.9844 H   0  0  0  0  0  0  0  0  0  0  0  0
    5.2009   -1.8173   -5.3255 H   0  0  0  0  0  0  0  0  0  0  0  0
    6.4865   -1.6032   -6.5158 H   0  0  0  0  0  0  0  0  0  0  0  0
    5.6406   -0.1787   -5.8659 H   0  0  0  0  0  0  0  0  0  0  0  0
    4.9007   -5.4232   -2.4215 H   0  0  0  0  0  0  0  0  0  0  0  0
    5.2970   -4.9675   -0.7727 H   0  0  0  0  0  0  0  0  0  0  0  0
    3.9060   -2.8877   -1.0099 H   0  0  0  0  0  0  0  0  0  0  0  0
    3.4985   -3.3462   -2.6561 H   0  0  0  0  0  0  0  0  0  0  0  0
    5.9378   -3.2338   -3.2918 H   0  0  0  0  0  0  0  0  0  0  0  0
    6.3405   -2.7972   -1.6423 H   0  0  0  0  0  0  0  0  0  0  0  0
    5.0018   -0.6973   -1.8426 H   0  0  0  0  0  0  0  0  0  0  0  0
    4.4660   -1.1607   -3.4378 H   0  0  0  0  0  0  0  0  0  0  0  0
    8.7717   -2.3577   -6.2354 H   0  0  0  0  0  0  0  0  0  0  0  0
    9.5769   -0.8326   -6.8456 H   0  0  0  0  0  0  0  0  0  0  0  0
   10.4250   -0.3862   -4.4704 H   0  0  0  0  0  0  0  0  0  0  0  0
    9.5923   -1.9211   -3.9217 H   0  0  0  0  0  0  0  0  0  0  0  0
    6.1760    0.5363   -3.5920 H   0  0  0  0  0  0  0  0  0  0  0  0
    8.2293    0.5370   -5.2495 H   0  0  0  0  0  0  0  0  0  0  0  0
  1 13  1  0  0  0  0
  1 15  1  0  0  0  0
  2 18  1  0  0  0  0
  2 16  1  0  0  0  0
  3 19  1  0  0  0  0
  3 12  1  0  0  0  0
  4  1  1  0  0  0  0
  4 23  1  0  0  0  0
  5  4  1  0  0  0  0
  5 24  1  0  0  0  0
  6  5  1  0  0  0  0
  6 27  1  0  0  0  0
  7  6  1  0  0  0  0
  7 28  1  0  0  0  0
  8 11  1  0  0  0  0
  8  9  1  0  0  0  0
  9 32  1  0  0  0  0
  9 33  1  0  0  0  0
 10 34  1  6  0  0  0
 10  7  1  0  0  0  0
 10  2  1  0  0  0  0
 11  9  1  0  0  0  0
 11 12  1  0  0  0  0
 12 10  1  0  0  0  0
 14  1  1  0  0  0  0
 17  2  1  0  0  0  0
 20  3  1  0  0  0  0
 21  3  1  0  0  0  0
 22  4  1  0  0  0  0
 25  5  1  0  0  0  0
 26  6  1  0  0  0  0
 29  7  1  0  0  0  0
 30  8  1  0  0  0  0
 31  8  1  0  0  0  0
 35 11  1  0  0  0  0
M  END
>  <HBA>
1

>  <HBD>
0

>  <TPSA>
3.24

>  <cid>
25865

>  <dipole>
0.54

>  <excitation_energy_1>
5.398

>  <excitation_energy_2>
5.616

>  <excitation_energy_3>
5.686

>  <excitation_energy_4>
5.808

>  <homo_energy>
-5.701

>  <homo_lumo_gap>
8.003

>  <logP>
3.049

>  <lumo_energy>
2.302

>  <melting_point>
-4.67

>  <molecular_refractivity>
55.77

>  <oscillator_strength_1>
0.0663

>  <oscillator_strength_2>
0.0101

>  <oscillator_strength_3>
0.029

>  <oscillator_strength_4>
0.0332

>  <open_babel_can_smiles>
CCCCC[C@H](N(C1CC1)C)C

>  <mulliken_charges>
35
1   -0.440938
2   -0.457953
3   -0.301922
4   -0.246448
5   -0.246341
6   -0.252095
7   -0.286435
8   -0.325972
9   -0.305363
10   0.078537
11   0.040899
12   -0.398289
13   0.140439
14   0.140149
15   0.14026
16   0.137541
17   0.152613
18   0.152195
19   0.151028
20   0.152045
21   0.116204
22   0.130028
23   0.129196
24   0.123939
25   0.123094
26   0.146408
27   0.128381
28   0.127535
29   0.131425
30   0.157296
31   0.147721
32   0.144606
33   0.158764
34   0.095511
35   0.11594

>  <lowdin_charges>
35
1   -0.444161
2   -0.450203
3   -0.359461
4   -0.273473
5   -0.275308
6   -0.279383
7   -0.284966
8   -0.320736
9   -0.316179
10   -0.051342
11   -0.088622
12   -0.178092
13   0.147194
14   0.146094
15   0.146077
16   0.150057
17   0.156552
18   0.151945
19   0.149558
20   0.15445
21   0.120406
22   0.139449
23   0.138839
24   0.13622
25   0.135637
26   0.147726
27   0.139673
28   0.142768
29   0.14082
30   0.162175
31   0.158495
32   0.156218
33   0.164024
34   0.111915
35   0.125635

$$$$

