PCCDB-ID:  61780
public computational chemistry database (PCCDB) project, http://pccdb.org

 32 32  0  0  1  0  0  0  0  0999 V2000
    1.8585    0.6665   -0.8263 C   0  0  0  0  0  0  0  0  0  0  0  0
    0.4827   -1.2028    0.0303 C   0  0  0  0  0  0  0  0  0  0  0  0
    4.9751   -7.2719    2.5569 C   0  0  0  0  0  0  0  0  0  0  0  0
    2.3964   -2.8491    2.2353 C   0  0  0  0  0  0  0  0  0  0  0  0
    3.0693   -3.4532   -0.0943 C   0  0  0  0  0  0  0  0  0  0  0  0
    2.7911   -1.4026    2.0827 C   0  0  0  0  0  0  0  0  0  0  0  0
    3.7839   -2.0947   -0.1337 C   0  0  0  0  0  0  0  0  0  0  0  0
    2.0668   -5.1924    1.5124 C   0  0  0  0  0  0  0  0  0  0  0  0
    1.7902   -0.4538   -0.0968 C   0  0  0  0  0  0  0  0  0  0  0  0
    3.7972   -6.3330    2.6993 C   0  0  0  0  0  0  0  0  0  0  0  0
    2.5073   -3.7738    1.2722 C   0  0  0  0  0  0  0  0  0  0  0  0
    3.0408   -0.9622    0.6192 C   0  0  1  0  0  0  0  0  0  0  0  0
    3.4255   -5.8558    3.7493 O   0  0  0  0  0  0  0  0  0  0  0  0
    3.1999   -6.1097    1.5046 O   0  0  0  0  0  0  0  0  0  0  0  0
    0.9958    1.0556   -1.3619 H   0  0  0  0  0  0  0  0  0  0  0  0
    2.7805    1.2363   -0.9193 H   0  0  0  0  0  0  0  0  0  0  0  0
   -0.3194   -0.6716   -0.4916 H   0  0  0  0  0  0  0  0  0  0  0  0
    0.1843   -1.3176    1.0795 H   0  0  0  0  0  0  0  0  0  0  0  0
    0.5416   -2.2155   -0.3844 H   0  0  0  0  0  0  0  0  0  0  0  0
    4.7789   -8.1780    3.1393 H   0  0  0  0  0  0  0  0  0  0  0  0
    5.8625   -6.7954    2.9845 H   0  0  0  0  0  0  0  0  0  0  0  0
    5.1623   -7.5394    1.5159 H   0  0  0  0  0  0  0  0  0  0  0  0
    2.0176   -3.1498    3.2114 H   0  0  0  0  0  0  0  0  0  0  0  0
    3.7714   -4.2455   -0.3876 H   0  0  0  0  0  0  0  0  0  0  0  0
    2.2629   -3.4906   -0.8430 H   0  0  0  0  0  0  0  0  0  0  0  0
    3.7081   -1.2307    2.6674 H   0  0  0  0  0  0  0  0  0  0  0  0
    2.0325   -0.7595    2.5493 H   0  0  0  0  0  0  0  0  0  0  0  0
    3.9660   -1.7916   -1.1710 H   0  0  0  0  0  0  0  0  0  0  0  0
    4.7686   -2.2098    0.3402 H   0  0  0  0  0  0  0  0  0  0  0  0
    1.4351   -5.5579    0.6961 H   0  0  0  0  0  0  0  0  0  0  0  0
    1.5388   -5.2946    2.4619 H   0  0  0  0  0  0  0  0  0  0  0  0
    3.7314   -0.1107    0.6481 H   0  0  0  0  0  0  0  0  0  0  0  0
  1  9  2  0  0  0  0
  2 18  1  0  0  0  0
  3 10  1  0  0  0  0
  3 21  1  0  0  0  0
  3 20  1  0  0  0  0
  4 23  1  0  0  0  0
  5 11  1  0  0  0  0
  6  4  1  0  0  0  0
  6 27  1  0  0  0  0
  6 26  1  0  0  0  0
  7  5  1  0  0  0  0
  7 29  1  0  0  0  0
  7 12  1  0  0  0  0
  8 31  1  0  0  0  0
  9  2  1  0  0  0  0
  9 12  1  0  0  0  0
 10 13  2  0  0  0  0
 11  8  1  0  0  0  0
 11  4  2  0  0  0  0
 12 32  1  1  0  0  0
 12  6  1  0  0  0  0
 14  8  1  0  0  0  0
 14 10  1  0  0  0  0
 15  1  1  0  0  0  0
 16  1  1  0  0  0  0
 17  2  1  0  0  0  0
 19  2  1  0  0  0  0
 22  3  1  0  0  0  0
 24  5  1  0  0  0  0
 25  5  1  0  0  0  0
 28  7  1  0  0  0  0
 30  8  1  0  0  0  0
M  END
>  <HBA>
2

>  <HBD>
0

>  <TPSA>
26.3

>  <cid>
61780

>  <dipole>
1.41

>  <excitation_energy_1>
5.699

>  <excitation_energy_2>
5.749

>  <excitation_energy_3>
5.965

>  <excitation_energy_4>
6.049

>  <homo_energy>
-6.403

>  <homo_lumo_gap>
6.7

>  <logP>
2.852

>  <lumo_energy>
0.297

>  <melting_point>
0.5

>  <molecular_refractivity>
58.02

>  <oscillator_strength_1>
0.0247

>  <oscillator_strength_2>
0.0381

>  <oscillator_strength_3>
0.0093

>  <oscillator_strength_4>
0.0556

>  <open_babel_can_smiles>
CC(=O)OCC1=CC[C@@H](CC1)C(=C)C

>  <mulliken_charges>
32
1   -0.40618
2   -0.517134
3   -0.531013
4   -0.158522
5   -0.338861
6   -0.31967
7   -0.265037
8   -0.131554
9   0.237556
10   0.609003
11   0.163553
12   -0.16224
13   -0.466802
14   -0.455224
15   0.130432
16   0.130512
17   0.149094
18   0.157423
19   0.156314
20   0.185658
21   0.184783
22   0.174621
23   0.139876
24   0.15438
25   0.145953
26   0.154453
27   0.149614
28   0.138824
29   0.137559
30   0.149334
31   0.175227
32   0.128066

>  <lowdin_charges>
32
1   -0.367442
2   -0.441743
3   -0.467167
4   -0.165768
5   -0.283263
6   -0.281225
7   -0.270717
8   -0.131315
9   0.008132
10   0.202552
11   -0.042424
12   -0.126345
13   -0.27213
14   -0.19964
15   0.153334
16   0.151732
17   0.155976
18   0.15703
19   0.155581
20   0.180402
21   0.179847
22   0.168862
23   0.160153
24   0.15678
25   0.146832
26   0.157788
27   0.154754
28   0.147531
29   0.144299
30   0.154161
31   0.164493
32   0.148939

$$$$

