PCCDB-ID:  11492
public computational chemistry database (PCCDB) project, http://pccdb.org

 21 21  0  0  0  0  0  0  0  0999 V2000
   -0.6933    1.2517    0.0133 C   0  0  0  0  0  0  0  0  0  0  0  0
   -1.3496    0.0228   -0.0248 C   0  0  0  0  0  0  0  0  0  0  0  0
    0.7006    1.3147   -0.0070 C   0  0  0  0  0  0  0  0  0  0  0  0
   -1.3205   -2.5069   -0.1700 C   0  0  0  0  0  0  0  0  0  0  0  0
   -1.5954   -2.9372   -1.6210 C   0  0  0  0  0  0  0  0  0  0  0  0
    0.7816   -1.1059   -0.1019 C   0  0  0  0  0  0  0  0  0  0  0  0
   -0.6145   -1.1713   -0.0825 C   0  0  0  0  0  0  0  0  0  0  0  0
    1.4377    0.1282   -0.0643 C   0  0  0  0  0  0  0  0  0  0  0  0
   -2.3346   -4.2042   -1.6436 N   0  0  0  0  0  0  0  0  0  0  0  0
    2.8072    0.1103   -0.0834 O   0  0  0  0  0  0  0  0  0  0  0  0
   -1.2680    2.1729    0.0629 H   0  0  0  0  0  0  0  0  0  0  0  0
   -2.4357   -0.0153   -0.0030 H   0  0  0  0  0  0  0  0  0  0  0  0
    1.2116    2.2755    0.0264 H   0  0  0  0  0  0  0  0  0  0  0  0
   -0.7135   -3.2810    0.3197 H   0  0  0  0  0  0  0  0  0  0  0  0
   -2.2783   -2.4729    0.3613 H   0  0  0  0  0  0  0  0  0  0  0  0
   -0.6386   -2.9576   -2.1735 H   0  0  0  0  0  0  0  0  0  0  0  0
   -2.2186   -2.1759   -2.1062 H   0  0  0  0  0  0  0  0  0  0  0  0
    1.3818   -2.0109   -0.1393 H   0  0  0  0  0  0  0  0  0  0  0  0
   -1.7358   -4.9535   -1.2968 H   0  0  0  0  0  0  0  0  0  0  0  0
   -2.5615   -4.4521   -2.6055 H   0  0  0  0  0  0  0  0  0  0  0  0
    3.1318    1.0234   -0.0509 H   0  0  0  0  0  0  0  0  0  0  0  0
  1 11  1  0  0  0  0
  2 12  1  0  0  0  0
  2  1  2  0  0  0  0
  3  1  1  0  0  0  0
  3 13  1  0  0  0  0
  4  7  1  0  0  0  0
  4 14  1  0  0  0  0
  4 15  1  0  0  0  0
  5  4  1  0  0  0  0
  6  7  2  0  0  0  0
  6  8  1  0  0  0  0
  7  2  1  0  0  0  0
  8  3  2  0  0  0  0
  9  5  1  0  0  0  0
  9 19  1  0  0  0  0
 10  8  1  0  0  0  0
 10 21  1  0  0  0  0
 16  5  1  0  0  0  0
 17  5  1  0  0  0  0
 18  6  1  0  0  0  0
 20  9  1  0  0  0  0
M  END
>  <HBA>
2

>  <HBD>
2

>  <TPSA>
46.25

>  <cid>
11492

>  <dipole>
1.51

>  <excitation_energy_1>
5.013

>  <excitation_energy_2>
5.182

>  <excitation_energy_3>
5.592

>  <excitation_energy_4>
5.67

>  <homo_energy>
-5.872

>  <homo_lumo_gap>
5.946

>  <logP>
1.594

>  <lumo_energy>
0.073

>  <melting_point>
101.71

>  <molecular_refractivity>
40.95

>  <oscillator_strength_1>
0.0387

>  <oscillator_strength_2>
0.0001

>  <oscillator_strength_3>
0.0049

>  <oscillator_strength_4>
0.0086

>  <open_babel_can_smiles>
NCCc1cccc(c1)O

>  <mulliken_charges>
21
1   -0.132979
2   -0.186425
3   -0.197793
4   -0.340902
5   -0.130475
6   -0.215872
7   0.164254
8   0.353394
9   -0.714951
10   -0.645063
11   0.129016
12   0.12247
13   0.114829
14   0.135478
15   0.157088
16   0.120084
17   0.144338
18   0.129363
19   0.291819
20   0.296431
21   0.405898

>  <lowdin_charges>
21
1   -0.144799
2   -0.187844
3   -0.220986
4   -0.27696
5   -0.203117
6   -0.199924
7   0.011495
8   0.105932
9   -0.559172
10   -0.381938
11   0.158152
12   0.153503
13   0.151797
14   0.146379
15   0.157211
16   0.120327
17   0.145674
18   0.163172
19   0.251935
20   0.253968
21   0.355193

$$$$

