PCCDB-ID:  20223
public computational chemistry database (PCCDB) project, http://pccdb.org

 31 31  0  0  1  0  0  0  0  0999 V2000
    4.4601    0.7940   -1.0794 C   0  0  0  0  0  0  0  0  0  0  0  0
    4.7787    0.8113    0.4184 C   0  0  0  0  0  0  0  0  0  0  0  0
    9.7346    5.4498    1.4153 C   0  0  0  0  0  0  0  0  0  0  0  0
   10.4232    3.6430    2.8364 C   0  0  0  0  0  0  0  0  0  0  0  0
   10.9984    6.0277    1.5290 C   0  0  0  0  0  0  0  0  0  0  0  0
   11.6921    4.2011    2.9546 C   0  0  0  0  0  0  0  0  0  0  0  0
    6.1702    1.3676    0.7455 C   0  0  0  0  0  0  0  0  0  0  0  0
    7.6127    3.3544    0.4935 C   0  0  0  0  0  0  0  0  0  0  0  0
    9.4197    4.2488    2.0668 C   0  0  0  0  0  0  0  0  0  0  0  0
   11.9840    5.4017    2.2990 C   0  0  0  0  0  0  0  0  0  0  0  0
    8.0423    3.6273    1.9540 C   0  0  1  0  0  0  0  0  0  0  0  0
    6.2845    2.7717    0.3448 N   0  0  0  0  0  0  0  0  0  0  0  0
   13.2429    5.9132    2.4480 O   0  0  0  0  0  0  0  0  0  0  0  0
    7.0262    4.4108    2.6091 O   0  0  0  0  0  0  0  0  0  0  0  0
    3.4428    0.4307   -1.2651 H   0  0  0  0  0  0  0  0  0  0  0  0
    5.1533    0.1363   -1.6191 H   0  0  0  0  0  0  0  0  0  0  0  0
    4.5551    1.7970   -1.5053 H   0  0  0  0  0  0  0  0  0  0  0  0
    4.7068   -0.2043    0.8306 H   0  0  0  0  0  0  0  0  0  0  0  0
    4.0241    1.4077    0.9523 H   0  0  0  0  0  0  0  0  0  0  0  0
    8.9901    5.9533    0.8020 H   0  0  0  0  0  0  0  0  0  0  0  0
   10.2046    2.7133    3.3565 H   0  0  0  0  0  0  0  0  0  0  0  0
   11.2211    6.9601    1.0128 H   0  0  0  0  0  0  0  0  0  0  0  0
   12.4646    3.7260    3.5509 H   0  0  0  0  0  0  0  0  0  0  0  0
    6.9285    0.8016    0.1858 H   0  0  0  0  0  0  0  0  0  0  0  0
    6.3791    1.1972    1.8179 H   0  0  0  0  0  0  0  0  0  0  0  0
    8.3467    2.6959    0.0118 H   0  0  0  0  0  0  0  0  0  0  0  0
    7.6316    4.3040   -0.0606 H   0  0  0  0  0  0  0  0  0  0  0  0
    8.0429    2.6788    2.5015 H   0  0  0  0  0  0  0  0  0  0  0  0
    5.6425    3.3288    0.9094 H   0  0  0  0  0  0  0  0  0  0  0  0
   13.3100    6.7395    1.9447 H   0  0  0  0  0  0  0  0  0  0  0  0
    7.1929    5.3414    2.3907 H   0  0  0  0  0  0  0  0  0  0  0  0
  1  2  1  0  0  0  0
  2  7  1  0  0  0  0
  2 18  1  0  0  0  0
  2 19  1  0  0  0  0
  3  5  2  0  0  0  0
  3  9  1  0  0  0  0
  4  6  1  0  0  0  0
  4 21  1  0  0  0  0
  5 10  1  0  0  0  0
  6 23  1  0  0  0  0
  7 25  1  0  0  0  0
  8 11  1  0  0  0  0
  9  4  2  0  0  0  0
 10 13  1  0  0  0  0
 10  6  2  0  0  0  0
 11  9  1  0  0  0  0
 11 28  1  1  0  0  0
 11 14  1  0  0  0  0
 12  8  1  0  0  0  0
 12  7  1  0  0  0  0
 12 29  1  0  0  0  0
 15  1  1  0  0  0  0
 16  1  1  0  0  0  0
 17  1  1  0  0  0  0
 20  3  1  0  0  0  0
 22  5  1  0  0  0  0
 24  7  1  0  0  0  0
 26  8  1  0  0  0  0
 27  8  1  0  0  0  0
 30 13  1  0  0  0  0
 31 14  1  0  0  0  0
M  END
>  <HBA>
3

>  <HBD>
3

>  <TPSA>
52.49

>  <cid>
20223

>  <dipole>
2.4

>  <excitation_energy_1>
4.569

>  <excitation_energy_2>
4.923

>  <excitation_energy_3>
5.047

>  <excitation_energy_4>
5.057

>  <homo_energy>
-5.603

>  <homo_lumo_gap>
5.325

>  <logP>
1.816

>  <lumo_energy>
-0.278

>  <melting_point>
91.27

>  <molecular_refractivity>
56.62

>  <oscillator_strength_1>
0.0087

>  <oscillator_strength_2>
0.0942

>  <oscillator_strength_3>
0.0033

>  <oscillator_strength_4>
0.0232

>  <open_babel_can_smiles>
CCCNC[C@@H](c1ccc(cc1)O)O

>  <mulliken_charges>
31
1   -0.434648
2   -0.257386
3   -0.20808
4   -0.195528
5   -0.193628
6   -0.15645
7   -0.12075
8   -0.140164
9   0.170679
10   0.352337
11   0.022377
12   -0.541091
13   -0.640215
14   -0.625875
15   0.134458
16   0.134397
17   0.16437
18   0.12903
19   0.129381
20   0.127863
21   0.134275
22   0.121407
23   0.143639
24   0.130571
25   0.116447
26   0.139962
27   0.126728
28   0.141072
29   0.300426
30   0.408428
31   0.385966

>  <lowdin_charges>
31
1   -0.446572
2   -0.276562
3   -0.162534
4   -0.146229
5   -0.210907
6   -0.183813
7   -0.202214
8   -0.224389
9   -0.040242
10   0.104547
11   -0.016321
12   -0.361481
13   -0.376204
14   -0.465911
15   0.144721
16   0.144881
17   0.157215
18   0.140949
19   0.139975
20   0.155328
21   0.160083
22   0.154269
23   0.170605
24   0.138305
25   0.117219
26   0.149248
27   0.137757
28   0.146167
29   0.256486
30   0.358422
31   0.337203

$$$$

