PCCDB-ID:  66059
public computational chemistry database (PCCDB) project, http://pccdb.org

 12 12  0  0  0  0  0  0  0  0999 V2000
    1.0482    0.6671   -0.0467 C   0  0  0  0  0  0  0  0  0  0  0  0
    1.0475   -0.6660   -0.0357 C   0  0  0  0  0  0  0  0  0  0  0  0
   -0.3637    1.1935    0.1043 C   0  0  0  0  0  0  0  0  0  0  0  0
   -0.3650   -1.1884    0.1238 C   0  0  0  0  0  0  0  0  0  0  0  0
   -1.2371    0.0019   -0.0263 N   0  0  0  0  0  0  0  0  0  0  0  0
    1.9235    1.3081   -0.0934 H   0  0  0  0  0  0  0  0  0  0  0  0
    1.9222   -1.3086   -0.0719 H   0  0  0  0  0  0  0  0  0  0  0  0
   -0.6320    1.9557   -0.6391 H   0  0  0  0  0  0  0  0  0  0  0  0
   -0.4970    1.6637    1.0921 H   0  0  0  0  0  0  0  0  0  0  0  0
   -0.4987   -1.6424    1.1191 H   0  0  0  0  0  0  0  0  0  0  0  0
   -0.6340   -1.9623   -0.6071 H   0  0  0  0  0  0  0  0  0  0  0  0
   -1.6075   -0.0057   -0.9728 H   0  0  0  0  0  0  0  0  0  0  0  0
  1  2  2  0  0  0  0
  1  3  1  0  0  0  0
  2  4  1  0  0  0  0
  3  9  1  0  0  0  0
  4 10  1  0  0  0  0
  5  3  1  0  0  0  0
  5  4  1  0  0  0  0
  6  1  1  0  0  0  0
  7  2  1  0  0  0  0
  8  3  1  0  0  0  0
 11  4  1  0  0  0  0
 12  5  1  0  0  0  0
M  END
>  <HBA>
1

>  <HBD>
1

>  <TPSA>
12.03

>  <cid>
66059

>  <dipole>
1.34

>  <excitation_energy_1>
5.381

>  <excitation_energy_2>
5.466

>  <excitation_energy_3>
6.094

>  <excitation_energy_4>
6.247

>  <homo_energy>
-5.951

>  <homo_lumo_gap>
6.68

>  <logP>
0.475

>  <lumo_energy>
0.729

>  <melting_point>
34.31

>  <molecular_refractivity>
25.47

>  <oscillator_strength_1>
0.0106

>  <oscillator_strength_2>
0.0136

>  <oscillator_strength_3>
0.0014

>  <oscillator_strength_4>
0.0

>  <open_babel_can_smiles>
N1CC=CC1

>  <mulliken_charges>
12
1   -0.117984
2   -0.118229
3   -0.172964
4   -0.172905
5   -0.551402
6   0.129236
7   0.129242
8   0.137146
9   0.150814
10   0.150808
11   0.13715
12   0.299088

>  <lowdin_charges>
12
1   -0.185985
2   -0.185989
3   -0.202857
4   -0.202777
5   -0.367583
6   0.158426
7   0.158428
8   0.144011
9   0.143239
10   0.143145
11   0.144004
12   0.253937

$$$$

