PCCDB-ID:  14533
public computational chemistry database (PCCDB) project, http://pccdb.org

 20 20  0  0  0  0  0  0  0  0999 V2000
   -0.8888    0.9596    0.0488 C   0  0  0  0  0  0  0  0  0  0  0  0
    1.2863   -0.0335   -0.1460 C   0  0  0  0  0  0  0  0  0  0  0  0
   -1.4721   -0.3030    0.0619 C   0  0  0  0  0  0  0  0  0  0  0  0
    0.7161   -1.3024   -0.1328 C   0  0  0  0  0  0  0  0  0  0  0  0
    1.1292    2.5024   -0.0522 C   0  0  0  0  0  0  0  0  0  0  0  0
    0.5011    1.1275   -0.0557 C   0  0  0  0  0  0  0  0  0  0  0  0
   -0.6775   -1.4598   -0.0293 C   0  0  0  0  0  0  0  0  0  0  0  0
    1.5818    3.0496    1.3159 C   0  0  0  0  0  0  0  0  0  0  0  0
   -1.2503   -2.7275    0.0396 N   0  0  0  0  0  0  0  0  0  0  0  0
    2.0826    4.1397    1.4385 O   0  0  0  0  0  0  0  0  0  0  0  0
    1.3924    2.2439    2.3857 O   0  0  0  0  0  0  0  0  0  0  0  0
   -1.5290    1.8367    0.1141 H   0  0  0  0  0  0  0  0  0  0  0  0
    2.3668    0.0575   -0.2366 H   0  0  0  0  0  0  0  0  0  0  0  0
   -2.5524   -0.3994    0.1427 H   0  0  0  0  0  0  0  0  0  0  0  0
    1.3515   -2.1821   -0.2052 H   0  0  0  0  0  0  0  0  0  0  0  0
    0.4400    3.2506   -0.4600 H   0  0  0  0  0  0  0  0  0  0  0  0
    2.0176    2.5326   -0.6938 H   0  0  0  0  0  0  0  0  0  0  0  0
   -2.2245   -2.7818   -0.2290 H   0  0  0  0  0  0  0  0  0  0  0  0
   -0.7039   -3.4765   -0.3661 H   0  0  0  0  0  0  0  0  0  0  0  0
    0.9760    1.4144    2.0849 H   0  0  0  0  0  0  0  0  0  0  0  0
  1  3  1  0  0  0  0
  1 12  1  0  0  0  0
  2  4  2  0  0  0  0
  2  6  1  0  0  0  0
  3 14  1  0  0  0  0
  4  7  1  0  0  0  0
  5  8  1  0  0  0  0
  6  5  1  0  0  0  0
  6  1  2  0  0  0  0
  7  9  1  0  0  0  0
  7  3  2  0  0  0  0
  8 10  2  0  0  0  0
  8 11  1  0  0  0  0
 13  2  1  0  0  0  0
 15  4  1  0  0  0  0
 16  5  1  0  0  0  0
 17  5  1  0  0  0  0
 18  9  1  0  0  0  0
 19  9  1  0  0  0  0
 20 11  1  0  0  0  0
M  END
>  <HBA>
3

>  <HBD>
2

>  <TPSA>
63.32

>  <cid>
14533

>  <dipole>
7.03

>  <excitation_energy_1>
4.559

>  <excitation_energy_2>
4.898

>  <excitation_energy_3>
5.25

>  <excitation_energy_4>
5.399

>  <homo_energy>
-5.85

>  <homo_lumo_gap>
5.407

>  <logP>
1.477

>  <lumo_energy>
-0.444

>  <melting_point>
133.8

>  <molecular_refractivity>
42.39

>  <oscillator_strength_1>
0.0262

>  <oscillator_strength_2>
0.0216

>  <oscillator_strength_3>
0.2281

>  <oscillator_strength_4>
0.0012

>  <open_babel_can_smiles>
OC(=O)Cc1ccc(cc1)N

>  <mulliken_charges>
20
1   -0.175935
2   -0.180494
3   -0.169499
4   -0.168912
5   -0.452811
6   0.072361
7   0.318056
8   0.583383
9   -0.788257
10   -0.446814
11   -0.564946
12   0.136593
13   0.137371
14   0.126456
15   0.126702
16   0.188757
17   0.189388
18   0.325716
19   0.325679
20   0.417206

>  <lowdin_charges>
20
1   -0.154861
2   -0.154453
3   -0.193904
4   -0.1975
5   -0.315537
6   -0.06365
7   0.065178
8   0.184844
9   -0.48154
10   -0.25018
11   -0.35319
12   0.161305
13   0.158818
14   0.155388
15   0.158009
16   0.181164
17   0.180535
18   0.277991
19   0.280443
20   0.36114

$$$$

