PCCDB-ID:  73022
public computational chemistry database (PCCDB) project, http://pccdb.org

 20 20  0  0  0  0  0  0  0  0999 V2000
    0.7909    0.1364    0.1891 C   0  0  0  0  0  0  0  0  0  0  0  0
    4.6675   -4.7343   -0.3944 C   0  0  0  0  0  0  0  0  0  0  0  0
    4.4172    1.3025    0.0422 C   0  0  0  0  0  0  0  0  0  0  0  0
    3.0273    1.3485    0.1279 C   0  0  0  0  0  0  0  0  0  0  0  0
    5.0419    0.0651   -0.0803 C   0  0  0  0  0  0  0  0  0  0  0  0
    2.2966    0.1514    0.0905 C   0  0  0  0  0  0  0  0  0  0  0  0
    4.2324   -1.0753   -0.1106 C   0  0  0  0  0  0  0  0  0  0  0  0
    4.9149   -2.4091   -0.2461 C   0  0  0  0  0  0  0  0  0  0  0  0
    2.8971   -1.0417   -0.0283 N   0  0  0  0  0  0  0  0  0  0  0  0
    6.1230   -2.5311   -0.3274 O   0  0  0  0  0  0  0  0  0  0  0  0
    4.0571   -3.4414   -0.2659 O   0  0  0  0  0  0  0  0  0  0  0  0
    0.3732    1.1475    0.1829 H   0  0  0  0  0  0  0  0  0  0  0  0
    0.4743   -0.3635    1.1121 H   0  0  0  0  0  0  0  0  0  0  0  0
    0.3613   -0.4295   -0.6441 H   0  0  0  0  0  0  0  0  0  0  0  0
    3.8420   -5.4464   -0.3870 H   0  0  0  0  0  0  0  0  0  0  0  0
    5.3479   -4.9238    0.4403 H   0  0  0  0  0  0  0  0  0  0  0  0
    5.2283   -4.8041   -1.3306 H   0  0  0  0  0  0  0  0  0  0  0  0
    5.0024    2.2177    0.0693 H   0  0  0  0  0  0  0  0  0  0  0  0
    2.5086    2.2982    0.2227 H   0  0  0  0  0  0  0  0  0  0  0  0
    6.1181   -0.0407   -0.1507 H   0  0  0  0  0  0  0  0  0  0  0  0
  1 13  1  0  0  0  0
  2 15  1  0  0  0  0
  2 11  1  0  0  0  0
  2 16  1  0  0  0  0
  3 18  1  0  0  0  0
  3  4  2  0  0  0  0
  4 19  1  0  0  0  0
  5  3  1  0  0  0  0
  6  4  1  0  0  0  0
  6  1  1  0  0  0  0
  7  5  2  0  0  0  0
  7  9  1  0  0  0  0
  8  7  1  0  0  0  0
  9  6  2  0  0  0  0
 10  8  2  0  0  0  0
 11  8  1  0  0  0  0
 12  1  1  0  0  0  0
 14  1  1  0  0  0  0
 17  2  1  0  0  0  0
 20  5  1  0  0  0  0
M  END
>  <HBA>
3

>  <HBD>
0

>  <TPSA>
39.19

>  <cid>
73022

>  <dipole>
1.88

>  <excitation_energy_1>
4.156

>  <excitation_energy_2>
4.887

>  <excitation_energy_3>
4.959

>  <excitation_energy_4>
5.021

>  <homo_energy>
-6.857

>  <homo_lumo_gap>
5.45

>  <logP>
1.177

>  <lumo_energy>
-1.407

>  <melting_point>
49.61

>  <molecular_refractivity>
40.48

>  <oscillator_strength_1>
0.0012

>  <oscillator_strength_2>
0.0005

>  <oscillator_strength_3>
0.1233

>  <oscillator_strength_4>
0.0014

>  <open_babel_can_smiles>
COC(=O)c1cccc(n1)C

>  <mulliken_charges>
20
1   -0.505531
2   -0.218061
3   -0.104361
4   -0.165823
5   -0.147037
6   0.302003
7   0.212017
8   0.604173
9   -0.506979
10   -0.493536
11   -0.438556
12   0.148741
13   0.175273
14   0.176674
15   0.166729
16   0.16965
17   0.16935
18   0.147053
19   0.138419
20   0.169802

>  <lowdin_charges>
20
1   -0.445357
2   -0.277128
3   -0.127677
4   -0.172521
5   -0.152238
6   0.059504
7   0.012816
8   0.184534
9   -0.13766
10   -0.271085
11   -0.162715
12   0.153496
13   0.171013
14   0.172698
15   0.162298
16   0.159808
17   0.15894
18   0.166308
19   0.164138
20   0.180826

$$$$

