PCCDB-ID:  11864
public computational chemistry database (PCCDB) project, http://pccdb.org

 17 16  0  0  1  0  0  0  0  0999 V2000
    3.1092   -0.1636    1.2597 C   0  0  0  0  0  0  0  0  0  0  0  0
    2.7413    0.2651   -0.1639 C   0  0  0  0  0  0  0  0  0  0  0  0
    2.6707   -0.3435   -2.6527 C   0  0  0  0  0  0  0  0  0  0  0  0
    3.1622   -0.7339   -1.2425 C   0  0  1  0  0  0  0  0  0  0  0  0
    4.6721   -0.8388   -1.2970 N   0  0  0  0  0  0  0  0  0  0  0  0
    1.2554   -0.3459   -2.7175 O   0  0  0  0  0  0  0  0  0  0  0  0
    5.1779   -1.9397   -1.0982 O   0  0  0  0  0  0  0  0  0  0  0  0
    5.2913    0.1913   -1.5589 O   0  0  0  0  0  0  0  0  0  0  0  0
    2.7514    0.5743    1.9851 H   0  0  0  0  0  0  0  0  0  0  0  0
    4.1936   -0.2541    1.3882 H   0  0  0  0  0  0  0  0  0  0  0  0
    2.6592   -1.1302    1.5153 H   0  0  0  0  0  0  0  0  0  0  0  0
    3.1907    1.2358   -0.4024 H   0  0  0  0  0  0  0  0  0  0  0  0
    1.6564    0.3814   -0.2628 H   0  0  0  0  0  0  0  0  0  0  0  0
    3.1151   -1.0155   -3.4014 H   0  0  0  0  0  0  0  0  0  0  0  0
    2.9948    0.6751   -2.8778 H   0  0  0  0  0  0  0  0  0  0  0  0
    2.8332   -1.7469   -0.9953 H   0  0  0  0  0  0  0  0  0  0  0  0
    0.9544   -1.2677   -2.7400 H   0  0  0  0  0  0  0  0  0  0  0  0
  1 10  1  0  0  0  0
  1 11  1  0  0  0  0
  1  9  1  0  0  0  0
  2  1  1  0  0  0  0
  3  4  1  0  0  0  0
  4 16  1  1  0  0  0
  4  2  1  0  0  0  0
  5  4  1  0  0  0  0
  5  7  2  0  0  0  0
  6  3  1  0  0  0  0
  8  5  2  0  0  0  0
 12  2  1  0  0  0  0
 13  2  1  0  0  0  0
 14  3  1  0  0  0  0
 15  3  1  0  0  0  0
 17  6  1  0  0  0  0
M  END
>  <HBA>
1

>  <HBD>
1

>  <TPSA>
66.05

>  <cid>
11864

>  <dipole>
3.1

>  <excitation_energy_1>
4.098

>  <excitation_energy_2>
4.35

>  <excitation_energy_3>
5.339

>  <excitation_energy_4>
6.522

>  <homo_energy>
-7.834

>  <homo_lumo_gap>
5.989

>  <logP>
0.557

>  <lumo_energy>
-1.845

>  <melting_point>
24.14

>  <molecular_refractivity>
30.61

>  <oscillator_strength_1>
0.0003

>  <oscillator_strength_2>
0.0012

>  <oscillator_strength_3>
0.0275

>  <oscillator_strength_4>
0.0067

>  <open_babel_can_smiles>
CC[C@H](N(=O)=O)CO

>  <mulliken_charges>
17
1   -0.456951
2   -0.268942
3   -0.048197
4   -0.026992
5   0.450712
6   -0.59913
7   -0.377797
8   -0.378584
9   0.158042
10   0.165066
11   0.149939
12   0.169834
13   0.17095
14   0.149271
15   0.182458
16   0.162039
17   0.398282

>  <lowdin_charges>
17
1   -0.446601
2   -0.277836
3   -0.138444
4   -0.097372
5   0.293435
6   -0.448373
7   -0.242066
8   -0.250225
9   0.160346
10   0.155401
11   0.151155
12   0.161356
13   0.16377
14   0.144172
15   0.165155
16   0.1591
17   0.347028

$$$$

