PCCDB-ID:  10028
public computational chemistry database (PCCDB) project, http://pccdb.org

 14 13  0  0  0  0  0  0  0  0999 V2000
    1.0697    0.1141   -0.0787 C   0  0  0  0  0  0  0  0  0  0  0  0
   -0.1517    0.1335   -0.1198 C   0  0  0  0  0  0  0  0  0  0  0  0
    2.4216    0.0926   -0.0364 C   0  0  0  0  0  0  0  0  0  0  0  0
   -1.5611    0.1712   -0.1467 C   0  0  0  0  0  0  0  0  0  0  0  0
    3.6437    0.0743    0.0009 C   0  0  0  0  0  0  0  0  0  0  0  0
   -2.3197   -0.5826   -0.9722 C   0  0  0  0  0  0  0  0  0  0  0  0
    5.0060    0.0541    0.0414 C   0  0  0  0  0  0  0  0  0  0  0  0
   -3.8096   -0.6105   -0.9471 C   0  0  0  0  0  0  0  0  0  0  0  0
    6.1745    0.0392    0.0790 N   0  0  0  0  0  0  0  0  0  0  0  0
   -4.4320   -1.5941   -1.2659 O   0  0  0  0  0  0  0  0  0  0  0  0
   -4.4493    0.5103   -0.5177 O   0  0  0  0  0  0  0  0  0  0  0  0
   -2.0324    0.8368    0.5781 H   0  0  0  0  0  0  0  0  0  0  0  0
   -1.8651   -1.2990   -1.6490 H   0  0  0  0  0  0  0  0  0  0  0  0
   -3.8322    1.2596   -0.4854 H   0  0  0  0  0  0  0  0  0  0  0  0
  1  3  1  0  0  0  0
  2  1  3  0  0  0  0
  3  5  3  0  0  0  0
  4  2  1  0  0  0  0
  4 12  1  0  0  0  0
  5  7  1  0  0  0  0
  6  8  1  0  0  0  0
  6  4  2  0  0  0  0
  7  9  3  0  0  0  0
  8 11  1  0  0  0  0
 10  8  2  0  0  0  0
 11 14  1  0  0  0  0
 13  6  1  0  0  0  0
M  END
>  <HBA>
3

>  <HBD>
1

>  <TPSA>
61.09

>  <cid>
10028

>  <dipole>
3.0

>  <excitation_energy_1>
3.292

>  <excitation_energy_2>
3.569

>  <excitation_energy_3>
3.683

>  <excitation_energy_4>
3.884

>  <homo_energy>
-7.434

>  <homo_lumo_gap>
4.071

>  <logP>
0.158

>  <lumo_energy>
-3.363

>  <melting_point>
127.66

>  <molecular_refractivity>
37.94

>  <oscillator_strength_1>
0.0015

>  <oscillator_strength_2>
0.2256

>  <oscillator_strength_3>
0.0011

>  <oscillator_strength_4>
0.0012

>  <open_babel_can_smiles>
N#CC#CC#C/C=C/C(=O)O

>  <mulliken_charges>
14
1   0.867721
2   -0.875017
3   1.009802
4   -0.217291
5   -0.432111
6   -0.177247
7   -0.146273
8   0.60125
9   -0.433295
10   -0.430693
11   -0.563734
12   0.188485
13   0.19504
14   0.413363

>  <lowdin_charges>
14
1   -0.029103
2   0.009904
3   0.031804
4   -0.138226
5   -0.025511
6   -0.153783
7   0.003019
8   0.192631
9   -0.06237
10   -0.215406
11   -0.352249
12   0.182569
13   0.194868
14   0.361852

$$$$

