PCCDB-ID:  28021
public computational chemistry database (PCCDB) project, http://pccdb.org

 29 28  0  0  1  0  0  0  0  0999 V2000
    1.1014   -0.1309    0.3129 C   0  0  0  0  0  0  0  0  0  0  0  0
    5.5387   -1.2116    0.0901 C   0  0  0  0  0  0  0  0  0  0  0  0
    4.6870   -3.6307   -1.8784 C   0  0  0  0  0  0  0  0  0  0  0  0
    4.3062   -1.8293   -3.5881 C   0  0  0  0  0  0  0  0  0  0  0  0
    6.5507   -2.0950   -2.5529 C   0  0  0  0  0  0  0  0  0  0  0  0
    2.5754    0.0106   -0.0822 C   0  0  0  0  0  0  0  0  0  0  0  0
    3.1456   -1.2637   -0.7243 C   0  0  0  0  0  0  0  0  0  0  0  0
    4.6297   -1.1550   -1.1523 C   0  0  2  0  0  0  0  0  0  0  0  0
    5.0347   -2.1806   -2.2723 C   0  0  0  0  0  0  0  0  0  0  0  0
    0.7181    0.7909    0.7655 H   0  0  0  0  0  0  0  0  0  0  0  0
    0.9611   -0.9413    1.0389 H   0  0  0  0  0  0  0  0  0  0  0  0
    0.4763   -0.3585   -0.5595 H   0  0  0  0  0  0  0  0  0  0  0  0
    5.2031   -0.4967    0.8488 H   0  0  0  0  0  0  0  0  0  0  0  0
    6.5780   -0.9643   -0.1447 H   0  0  0  0  0  0  0  0  0  0  0  0
    5.5256   -2.2056    0.5542 H   0  0  0  0  0  0  0  0  0  0  0  0
    5.0181   -4.3270   -2.6587 H   0  0  0  0  0  0  0  0  0  0  0  0
    3.6083   -3.7717   -1.7491 H   0  0  0  0  0  0  0  0  0  0  0  0
    5.1794   -3.9283   -0.9452 H   0  0  0  0  0  0  0  0  0  0  0  0
    4.6121   -2.5128   -4.3894 H   0  0  0  0  0  0  0  0  0  0  0  0
    4.5478   -0.8089   -3.9116 H   0  0  0  0  0  0  0  0  0  0  0  0
    3.2173   -1.9028   -3.4986 H   0  0  0  0  0  0  0  0  0  0  0  0
    6.8111   -2.7089   -3.4237 H   0  0  0  0  0  0  0  0  0  0  0  0
    7.1494   -2.4551   -1.7100 H   0  0  0  0  0  0  0  0  0  0  0  0
    6.8590   -1.0642   -2.7703 H   0  0  0  0  0  0  0  0  0  0  0  0
    3.1595    0.2831    0.8064 H   0  0  0  0  0  0  0  0  0  0  0  0
    2.6856    0.8475   -0.7866 H   0  0  0  0  0  0  0  0  0  0  0  0
    2.5172   -1.5099   -1.5892 H   0  0  0  0  0  0  0  0  0  0  0  0
    3.0295   -2.1007   -0.0204 H   0  0  0  0  0  0  0  0  0  0  0  0
    4.7638   -0.1588   -1.6041 H   0  0  0  0  0  0  0  0  0  0  0  0
  1 10  1  0  0  0  0
  1 11  1  0  0  0  0
  2 15  1  0  0  0  0
  2 13  1  0  0  0  0
  3 17  1  0  0  0  0
  3 18  1  0  0  0  0
  4 21  1  0  0  0  0
  4  9  1  0  0  0  0
  5  9  1  0  0  0  0
  5 23  1  0  0  0  0
  6  1  1  0  0  0  0
  6 25  1  0  0  0  0
  7  6  1  0  0  0  0
  7 28  1  0  0  0  0
  8 29  1  6  0  0  0
  8  7  1  0  0  0  0
  8  2  1  0  0  0  0
  9  3  1  0  0  0  0
  9  8  1  0  0  0  0
 12  1  1  0  0  0  0
 14  2  1  0  0  0  0
 16  3  1  0  0  0  0
 19  4  1  0  0  0  0
 20  4  1  0  0  0  0
 22  5  1  0  0  0  0
 24  5  1  0  0  0  0
 26  6  1  0  0  0  0
 27  7  1  0  0  0  0
M  END
>  <HBA>
0

>  <HBD>
0

>  <TPSA>
0.0

>  <cid>
28021

>  <dipole>
0.05

>  <excitation_energy_1>
7.429

>  <excitation_energy_2>
7.599

>  <excitation_energy_3>
7.813

>  <excitation_energy_4>
7.838

>  <homo_energy>
-7.889

>  <homo_lumo_gap>
10.006

>  <logP>
3.469

>  <lumo_energy>
2.117

>  <melting_point>
-9.87

>  <molecular_refractivity>
45.12

>  <oscillator_strength_1>
0.0105

>  <oscillator_strength_2>
0.0063

>  <oscillator_strength_3>
0.0341

>  <oscillator_strength_4>
0.0065

>  <open_babel_can_smiles>
CCC[C@H](C(C)(C)C)C

>  <mulliken_charges>
29
1   -0.441926
2   -0.467207
3   -0.451703
4   -0.449918
5   -0.450903
6   -0.254913
7   -0.262196
8   -0.056788
9   0.102794
10   0.140982
11   0.141118
12   0.140562
13   0.143183
14   0.145699
15   0.14068
16   0.136228
17   0.142828
18   0.13944
19   0.136507
20   0.136389
21   0.141708
22   0.135496
23   0.143209
24   0.135887
25   0.134079
26   0.130162
27   0.129331
28   0.127865
29   0.111407

>  <lowdin_charges>
29
1   -0.44601
2   -0.449844
3   -0.445661
4   -0.44273
5   -0.444993
6   -0.274171
7   -0.281185
8   -0.123136
9   0.014097
10   0.149209
11   0.146599
12   0.146044
13   0.149974
14   0.149047
15   0.144547
16   0.148092
17   0.146768
18   0.14642
19   0.147231
20   0.144621
21   0.144184
22   0.146741
23   0.149061
24   0.14443
25   0.139632
26   0.138722
27   0.140738
28   0.138795
29   0.132779

$$$$

