PCCDB-ID:  14535
public computational chemistry database (PCCDB) project, http://pccdb.org

 21 22  0  0  0  0  0  0  0  0999 V2000
    2.4218    0.7467    0.0182 C   0  0  0  0  0  0  0  0  0  0  0  0
    2.4459   -0.6687    0.0033 C   0  0  0  0  0  0  0  0  0  0  0  0
    1.2173    1.4118    0.0079 C   0  0  0  0  0  0  0  0  0  0  0  0
    1.2705   -1.3864   -0.0023 C   0  0  0  0  0  0  0  0  0  0  0  0
   -1.2626    1.3794   -0.0363 C   0  0  0  0  0  0  0  0  0  0  0  0
   -2.4376    0.6609   -0.0497 C   0  0  0  0  0  0  0  0  0  0  0  0
   -0.0159    0.7057   -0.0035 C   0  0  0  0  0  0  0  0  0  0  0  0
    0.0089   -0.7298    0.0117 C   0  0  0  0  0  0  0  0  0  0  0  0
   -2.4183   -0.7473   -0.0069 C   0  0  0  0  0  0  0  0  0  0  0  0
   -1.2221   -1.4549    0.0356 C   0  0  0  0  0  0  0  0  0  0  0  0
   -1.2433   -2.8565    0.0463 N   0  0  0  0  0  0  0  0  0  0  0  0
   -3.5760   -1.4989    0.0103 O   0  0  0  0  0  0  0  0  0  0  0  0
    3.3547    1.3037    0.0271 H   0  0  0  0  0  0  0  0  0  0  0  0
    3.3987   -1.1912   -0.0149 H   0  0  0  0  0  0  0  0  0  0  0  0
    1.1896    2.4992    0.0044 H   0  0  0  0  0  0  0  0  0  0  0  0
    1.3073   -2.4705   -0.0532 H   0  0  0  0  0  0  0  0  0  0  0  0
   -1.2819    2.4654   -0.0553 H   0  0  0  0  0  0  0  0  0  0  0  0
   -3.3974    1.1750   -0.0761 H   0  0  0  0  0  0  0  0  0  0  0  0
   -0.5607   -3.2736    0.6688 H   0  0  0  0  0  0  0  0  0  0  0  0
   -2.1700   -3.2224    0.2328 H   0  0  0  0  0  0  0  0  0  0  0  0
   -4.3384   -0.9016    0.0169 H   0  0  0  0  0  0  0  0  0  0  0  0
  1 13  1  0  0  0  0
  2  1  2  0  0  0  0
  3  1  1  0  0  0  0
  4  2  1  0  0  0  0
  4  8  2  0  0  0  0
  5  7  1  0  0  0  0
  6  5  2  0  0  0  0
  6  9  1  0  0  0  0
  7  3  2  0  0  0  0
  7  8  1  0  0  0  0
  8 10  1  0  0  0  0
  9 12  1  0  0  0  0
  9 10  2  0  0  0  0
 10 11  1  0  0  0  0
 11 20  1  0  0  0  0
 11 19  1  0  0  0  0
 12 21  1  0  0  0  0
 14  2  1  0  0  0  0
 15  3  1  0  0  0  0
 16  4  1  0  0  0  0
 17  5  1  0  0  0  0
 18  6  1  0  0  0  0
M  END
>  <HBA>
2

>  <HBD>
2

>  <TPSA>
46.25

>  <cid>
14535

>  <dipole>
1.8

>  <excitation_energy_1>
3.644

>  <excitation_energy_2>
4.187

>  <excitation_energy_3>
4.216

>  <excitation_energy_4>
4.662

>  <homo_energy>
-4.868

>  <homo_lumo_gap>
4.161

>  <logP>
2.709

>  <lumo_energy>
-0.708

>  <melting_point>
138.78

>  <molecular_refractivity>
50.38

>  <oscillator_strength_1>
0.076

>  <oscillator_strength_2>
0.0186

>  <oscillator_strength_3>
0.0072

>  <oscillator_strength_4>
0.0038

>  <open_babel_can_smiles>
Oc1ccc2c(c1N)cccc2

>  <mulliken_charges>
21
1   -0.136344
2   -0.136019
3   -0.198411
4   -0.200136
5   -0.20971
6   -0.191854
7   0.136254
8   0.102112
9   0.309903
10   0.181174
11   -0.793924
12   -0.674191
13   0.125077
14   0.125257
15   0.125617
16   0.126919
17   0.124929
18   0.116355
19   0.317367
20   0.339362
21   0.410262

>  <lowdin_charges>
21
1   -0.167458
2   -0.159048
3   -0.151552
4   -0.1642
5   -0.173045
6   -0.196367
7   -0.004375
8   -0.019965
9   0.058576
10   0.023631
11   -0.492203
12   -0.400709
13   0.156769
14   0.15646
15   0.153507
16   0.154512
17   0.155163
18   0.152814
19   0.274589
20   0.28246
21   0.36044

$$$$

