PCCDB-ID:  28638
public computational chemistry database (PCCDB) project, http://pccdb.org

 28 28  0  0  1  0  0  0  0  0999 V2000
    1.5196   -0.2714   -0.9574 C   0  0  0  0  0  0  0  0  0  0  0  0
    4.1353   -0.2505   -2.6638 C   0  0  0  0  0  0  0  0  0  0  0  0
    7.5879    0.2317    1.6850 C   0  0  0  0  0  0  0  0  0  0  0  0
    6.4980    1.0256    2.0537 C   0  0  0  0  0  0  0  0  0  0  0  0
    7.3826   -0.9068    0.9064 C   0  0  0  0  0  0  0  0  0  0  0  0
    5.2105    0.6858    1.6435 C   0  0  0  0  0  0  0  0  0  0  0  0
    6.0907   -1.2468    0.4984 C   0  0  0  0  0  0  0  0  0  0  0  0
    2.8920    0.2091   -0.4703 C   0  0  1  0  0  0  0  0  0  0  0  0
    4.9941   -0.4537    0.8545 C   0  0  0  0  0  0  0  0  0  0  0  0
    3.5917   -0.8437    0.4230 C   0  0  1  0  0  0  0  0  0  0  0  0
    4.2036    1.9007   -1.6999 N   0  0  0  0  0  0  0  0  0  0  0  0
    3.7489    0.6353   -1.5814 N   0  0  0  0  0  0  0  0  0  0  0  0
    2.7155   -0.9986    1.5439 O   0  0  0  0  0  0  0  0  0  0  0  0
    3.8887    2.6763   -0.8049 O   0  0  0  0  0  0  0  0  0  0  0  0
    0.8847   -0.4819   -0.0937 H   0  0  0  0  0  0  0  0  0  0  0  0
    1.5927   -1.1901   -1.5516 H   0  0  0  0  0  0  0  0  0  0  0  0
    1.0386    0.4993   -1.5683 H   0  0  0  0  0  0  0  0  0  0  0  0
    4.7424   -1.0852   -2.2956 H   0  0  0  0  0  0  0  0  0  0  0  0
    4.7299    0.3402   -3.3633 H   0  0  0  0  0  0  0  0  0  0  0  0
    3.2579   -0.6510   -3.1837 H   0  0  0  0  0  0  0  0  0  0  0  0
    8.5907    0.5001    2.0061 H   0  0  0  0  0  0  0  0  0  0  0  0
    6.6531    1.9142    2.6596 H   0  0  0  0  0  0  0  0  0  0  0  0
    8.2232   -1.5336    0.6208 H   0  0  0  0  0  0  0  0  0  0  0  0
    4.3673    1.3059    1.9319 H   0  0  0  0  0  0  0  0  0  0  0  0
    5.9328   -2.1433   -0.0986 H   0  0  0  0  0  0  0  0  0  0  0  0
    2.7624    1.1132    0.1290 H   0  0  0  0  0  0  0  0  0  0  0  0
    3.6528   -1.7947   -0.1332 H   0  0  0  0  0  0  0  0  0  0  0  0
    3.1707   -1.5598    2.1909 H   0  0  0  0  0  0  0  0  0  0  0  0
  1  8  1  0  0  0  0
  1 15  1  0  0  0  0
  2 18  1  0  0  0  0
  2 12  1  0  0  0  0
  3 21  1  0  0  0  0
  3  4  1  0  0  0  0
  4 22  1  0  0  0  0
  5  3  2  0  0  0  0
  6 24  1  0  0  0  0
  6  4  2  0  0  0  0
  7  9  2  0  0  0  0
  7  5  1  0  0  0  0
  8 26  1  1  0  0  0
  8 10  1  0  0  0  0
  9  6  1  0  0  0  0
 10 27  1  6  0  0  0
 10  9  1  0  0  0  0
 10 13  1  0  0  0  0
 11 12  1  0  0  0  0
 11 14  2  0  0  0  0
 12  8  1  0  0  0  0
 13 28  1  0  0  0  0
 16  1  1  0  0  0  0
 17  1  1  0  0  0  0
 19  2  1  0  0  0  0
 20  2  1  0  0  0  0
 23  5  1  0  0  0  0
 25  7  1  0  0  0  0
M  END
>  <HBA>
4

>  <HBD>
1

>  <TPSA>
52.9

>  <cid>
28638

>  <dipole>
4.02

>  <excitation_energy_1>
3.402

>  <excitation_energy_2>
4.947

>  <excitation_energy_3>
5.117

>  <excitation_energy_4>
5.148

>  <homo_energy>
-5.968

>  <homo_lumo_gap>
5.244

>  <logP>
1.722

>  <lumo_energy>
-0.724

>  <melting_point>
45.46

>  <molecular_refractivity>
54.62

>  <oscillator_strength_1>
0.0006

>  <oscillator_strength_2>
0.0001

>  <oscillator_strength_3>
0.0045

>  <oscillator_strength_4>
0.0008

>  <open_babel_can_smiles>
O[C@@H]([C@@H](N(N=O)C)C)c1ccccc1

>  <mulliken_charges>
28
1   -0.456578
2   -0.314972
3   -0.126157
4   -0.129379
5   -0.128122
6   -0.161102
7   -0.196404
8   0.010099
9   0.12808
10   0.066501
11   0.160818
12   -0.229816
13   -0.627694
14   -0.377089
15   0.184972
16   0.139534
17   0.159245
18   0.162276
19   0.190526
20   0.165157
21   0.133404
22   0.137624
23   0.131423
24   0.15305
25   0.123254
26   0.195633
27   0.1103
28   0.395415

>  <lowdin_charges>
28
1   -0.45051
2   -0.361029
3   -0.15168
4   -0.148531
5   -0.157788
6   -0.149257
7   -0.170361
8   -0.08474
9   -0.035307
10   -0.003403
11   0.056231
12   -0.041095
13   -0.460008
14   -0.26904
15   0.174406
16   0.146482
17   0.160614
18   0.154089
19   0.178755
20   0.156542
21   0.158996
22   0.161658
23   0.159496
24   0.169791
25   0.152185
26   0.177773
27   0.1261
28   0.34963

$$$$

