PCCDB-ID:  70645
public computational chemistry database (PCCDB) project, http://pccdb.org

 25 25  0  0  0  0  0  0  0  0999 V2000
   -1.7355   -0.8762   -0.0222 C   0  0  0  0  0  0  0  0  0  0  0  0
   -0.5219   -1.5514    0.1181 C   0  0  0  0  0  0  0  0  0  0  0  0
   -1.7363    0.5100   -0.1352 C   0  0  0  0  0  0  0  0  0  0  0  0
    2.0318   -1.4314    0.2547 C   0  0  0  0  0  0  0  0  0  0  0  0
   -0.4558    2.7059   -0.2222 C   0  0  0  0  0  0  0  0  0  0  0  0
    2.9961   -0.8575   -0.8028 C   0  0  0  0  0  0  0  0  0  0  0  0
    0.9167    3.2752   -0.6105 C   0  0  0  0  0  0  0  0  0  0  0  0
    0.6557   -0.8047    0.1671 C   0  0  0  0  0  0  0  0  0  0  0  0
   -0.5160    1.1978   -0.0810 C   0  0  0  0  0  0  0  0  0  0  0  0
    0.6379    0.5417    0.0929 N   0  0  0  0  0  0  0  0  0  0  0  0
    3.2680    0.5237   -0.5911 O   0  0  0  0  0  0  0  0  0  0  0  0
    1.3755    2.8055   -1.8678 O   0  0  0  0  0  0  0  0  0  0  0  0
   -2.6694   -1.4307   -0.0630 H   0  0  0  0  0  0  0  0  0  0  0  0
   -0.4874   -2.6350    0.1776 H   0  0  0  0  0  0  0  0  0  0  0  0
   -2.6634    1.0592   -0.2719 H   0  0  0  0  0  0  0  0  0  0  0  0
    2.4614   -1.2418    1.2482 H   0  0  0  0  0  0  0  0  0  0  0  0
    1.9558   -2.5184    0.1356 H   0  0  0  0  0  0  0  0  0  0  0  0
   -1.1925    3.0131   -0.9748 H   0  0  0  0  0  0  0  0  0  0  0  0
   -0.7719    3.1717    0.7243 H   0  0  0  0  0  0  0  0  0  0  0  0
    2.5733   -1.0259   -1.8065 H   0  0  0  0  0  0  0  0  0  0  0  0
    3.9513   -1.3929   -0.7548 H   0  0  0  0  0  0  0  0  0  0  0  0
    1.6456    3.0745    0.1860 H   0  0  0  0  0  0  0  0  0  0  0  0
    0.8201    4.3649   -0.6893 H   0  0  0  0  0  0  0  0  0  0  0  0
    2.4482    0.8716   -0.1770 H   0  0  0  0  0  0  0  0  0  0  0  0
    1.9563    2.0414   -1.7153 H   0  0  0  0  0  0  0  0  0  0  0  0
  1  2  2  0  0  0  0
  2  8  1  0  0  0  0
  2 14  1  0  0  0  0
  3  9  2  0  0  0  0
  3  1  1  0  0  0  0
  4 16  1  0  0  0  0
  5  9  1  0  0  0  0
  5 19  1  0  0  0  0
  6 21  1  0  0  0  0
  6 11  1  0  0  0  0
  6  4  1  0  0  0  0
  7  5  1  0  0  0  0
  7 22  1  0  0  0  0
  8  4  1  0  0  0  0
  9 10  1  0  0  0  0
 10  8  2  0  0  0  0
 11 24  1  0  0  0  0
 12 25  1  0  0  0  0
 12  7  1  0  0  0  0
 13  1  1  0  0  0  0
 15  3  1  0  0  0  0
 17  4  1  0  0  0  0
 18  5  1  0  0  0  0
 20  6  1  0  0  0  0
 23  7  1  0  0  0  0
M  END
>  <HBA>
3

>  <HBD>
2

>  <TPSA>
53.35

>  <cid>
70645

>  <dipole>
4.58

>  <excitation_energy_1>
4.869

>  <excitation_energy_2>
5.156

>  <excitation_energy_3>
5.249

>  <excitation_energy_4>
5.312

>  <homo_energy>
-6.797

>  <homo_lumo_gap>
5.831

>  <logP>
0.151

>  <lumo_energy>
-0.966

>  <melting_point>
63.4

>  <molecular_refractivity>
46.11

>  <oscillator_strength_1>
0.0067

>  <oscillator_strength_2>
0.0567

>  <oscillator_strength_3>
0.0035

>  <oscillator_strength_4>
0.0103

>  <open_babel_can_smiles>
OCCc1cccc(n1)CCO

>  <mulliken_charges>
25
1   -0.091926
2   -0.190803
3   -0.188107
4   -0.374766
5   -0.351084
6   -0.008677
7   -0.033427
8   0.349914
9   0.357143
10   -0.602291
11   -0.658408
12   -0.633968
13   0.147004
14   0.139419
15   0.139667
16   0.17062
17   0.145433
18   0.161598
19   0.151788
20   0.12416
21   0.140743
22   0.136101
23   0.139801
24   0.427957
25   0.402107

>  <lowdin_charges>
25
1   -0.118599
2   -0.183556
3   -0.182307
4   -0.297393
5   -0.301112
6   -0.124505
7   -0.131212
8   0.059306
9   0.070435
10   -0.180178
11   -0.49649
12   -0.477733
13   0.166102
14   0.162886
15   0.165915
16   0.164278
17   0.154116
18   0.162013
19   0.160137
20   0.127478
21   0.144727
22   0.136228
23   0.142048
24   0.334993
25   0.342424

$$$$

