PCCDB-ID:  11758
public computational chemistry database (PCCDB) project, http://pccdb.org

 23 22  0  0  0  0  0  0  0  0999 V2000
    3.1733   -1.2629    0.5808 C   0  0  0  0  0  0  0  0  0  0  0  0
    2.0748    1.0330    0.7061 C   0  0  0  0  0  0  0  0  0  0  0  0
    2.0316   -1.6229   -2.9785 C   0  0  0  0  0  0  0  0  0  0  0  0
    0.9220    0.6746   -2.8529 C   0  0  0  0  0  0  0  0  0  0  0  0
    2.3181   -0.2179   -0.1488 C   0  0  0  0  0  0  0  0  0  0  0  0
    2.2298   -0.1200   -2.7428 C   0  0  0  0  0  0  0  0  0  0  0  0
    4.1182    0.7079   -1.3887 N   0  0  0  0  0  0  0  0  0  0  0  0
    2.9094    0.1372   -1.4577 N   0  0  0  0  0  0  0  0  0  0  0  0
    4.6450    1.0158   -2.4572 O   0  0  0  0  0  0  0  0  0  0  0  0
    2.6900   -1.5596    1.5185 H   0  0  0  0  0  0  0  0  0  0  0  0
    4.1603   -0.8526    0.8133 H   0  0  0  0  0  0  0  0  0  0  0  0
    3.3097   -2.1582   -0.0344 H   0  0  0  0  0  0  0  0  0  0  0  0
    1.5887    0.7589    1.6492 H   0  0  0  0  0  0  0  0  0  0  0  0
    1.4316    1.7479    0.1826 H   0  0  0  0  0  0  0  0  0  0  0  0
    3.0232    1.5278    0.9345 H   0  0  0  0  0  0  0  0  0  0  0  0
    1.5948   -1.7890   -3.9697 H   0  0  0  0  0  0  0  0  0  0  0  0
    1.3535   -2.0687   -2.2408 H   0  0  0  0  0  0  0  0  0  0  0  0
    2.9873   -2.1547   -2.9342 H   0  0  0  0  0  0  0  0  0  0  0  0
    0.4846    0.5328   -3.8477 H   0  0  0  0  0  0  0  0  0  0  0  0
    1.1019    1.7448   -2.7102 H   0  0  0  0  0  0  0  0  0  0  0  0
    0.1775    0.3475   -2.1169 H   0  0  0  0  0  0  0  0  0  0  0  0
    1.3496   -0.6691   -0.3869 H   0  0  0  0  0  0  0  0  0  0  0  0
    2.9384    0.2629   -3.4810 H   0  0  0  0  0  0  0  0  0  0  0  0
  1 11  1  0  0  0  0
  1 10  1  0  0  0  0
  2 15  1  0  0  0  0
  2 13  1  0  0  0  0
  3 18  1  0  0  0  0
  3  6  1  0  0  0  0
  3 17  1  0  0  0  0
  4  6  1  0  0  0  0
  4 20  1  0  0  0  0
  4 21  1  0  0  0  0
  5  1  1  0  0  0  0
  5  2  1  0  0  0  0
  6  8  1  0  0  0  0
  8  7  1  0  0  0  0
  8  5  1  0  0  0  0
  9  7  2  0  0  0  0
 12  1  1  0  0  0  0
 14  2  1  0  0  0  0
 16  3  1  0  0  0  0
 19  4  1  0  0  0  0
 22  5  1  0  0  0  0
 23  6  1  0  0  0  0
M  END
>  <HBA>
3

>  <HBD>
0

>  <TPSA>
32.67

>  <cid>
11758

>  <dipole>
3.99

>  <excitation_energy_1>
3.293

>  <excitation_energy_2>
5.42

>  <excitation_energy_3>
5.685

>  <excitation_energy_4>
5.952

>  <homo_energy>
-5.799

>  <homo_lumo_gap>
5.119

>  <logP>
1.787

>  <lumo_energy>
-0.68

>  <melting_point>
-4.88

>  <molecular_refractivity>
38.59

>  <oscillator_strength_1>
0.0008

>  <oscillator_strength_2>
0.0058

>  <oscillator_strength_3>
0.1361

>  <oscillator_strength_4>
0.0435

>  <open_babel_can_smiles>
CC(N(C(C)C)N=O)C

>  <mulliken_charges>
23
1   -0.444651
2   -0.444663
3   -0.446706
4   -0.447103
5   0.032942
6   0.014969
7   0.153222
8   -0.233133
9   -0.390411
10   0.145141
11   0.175564
12   0.15242
13   0.14518
14   0.152347
15   0.175682
16   0.154271
17   0.144451
18   0.163982
19   0.154439
20   0.163888
21   0.144448
22   0.144212
23   0.189508

>  <lowdin_charges>
23
1   -0.449689
2   -0.450934
3   -0.44915
4   -0.447228
5   -0.051317
6   -0.076362
7   0.051643
8   -0.048637
9   -0.279826
10   0.153217
11   0.164469
12   0.155028
13   0.153166
14   0.155961
15   0.165018
16   0.157722
17   0.148686
18   0.160299
19   0.157757
20   0.158692
21   0.148381
22   0.148233
23   0.174873

$$$$

