PCCDB-ID:  60024
public computational chemistry database (PCCDB) project, http://pccdb.org

 32 32  0  0  0  0  0  0  0  0999 V2000
    3.2999    4.6147   -1.3176 C   0  0  0  0  0  0  0  0  0  0  0  0
   10.7867    8.0710    1.6409 C   0  0  0  0  0  0  0  0  0  0  0  0
    4.5653    5.0340   -1.3492 C   0  0  0  0  0  0  0  0  0  0  0  0
    5.3218    5.6086   -0.1823 C   0  0  0  0  0  0  0  0  0  0  0  0
    6.5702    4.7826    0.1826 C   0  0  0  0  0  0  0  0  0  0  0  0
   11.1394    3.5727   -0.6098 C   0  0  0  0  0  0  0  0  0  0  0  0
    9.9816    3.5720    0.1697 C   0  0  0  0  0  0  0  0  0  0  0  0
    7.3495    5.4029    1.3419 C   0  0  0  0  0  0  0  0  0  0  0  0
   11.5590    5.8559    0.0690 C   0  0  0  0  0  0  0  0  0  0  0  0
   11.9380    4.7200   -0.6699 C   0  0  0  0  0  0  0  0  0  0  0  0
    9.5937    4.6889    0.9022 C   0  0  0  0  0  0  0  0  0  0  0  0
   10.4060    5.8446    0.8558 C   0  0  0  0  0  0  0  0  0  0  0  0
   13.1380    4.7292   -1.3986 N   0  0  0  0  0  0  0  0  0  0  0  0
    9.9864    6.9018    1.6148 O   0  0  0  0  0  0  0  0  0  0  0  0
    8.4896    4.6190    1.7251 O   0  0  0  0  0  0  0  0  0  0  0  0
    2.8105    4.2015   -2.1956 H   0  0  0  0  0  0  0  0  0  0  0  0
    2.7020    4.6711   -0.4099 H   0  0  0  0  0  0  0  0  0  0  0  0
   11.7930    7.8617    2.0270 H   0  0  0  0  0  0  0  0  0  0  0  0
   10.2794    8.7654    2.3135 H   0  0  0  0  0  0  0  0  0  0  0  0
   10.8715    8.5282    0.6456 H   0  0  0  0  0  0  0  0  0  0  0  0
    5.1264    4.9542   -2.2824 H   0  0  0  0  0  0  0  0  0  0  0  0
    4.6558    5.6832    0.6878 H   0  0  0  0  0  0  0  0  0  0  0  0
    5.6379    6.6353   -0.4253 H   0  0  0  0  0  0  0  0  0  0  0  0
    7.2289    4.7016   -0.6922 H   0  0  0  0  0  0  0  0  0  0  0  0
    6.2737    3.7615    0.4524 H   0  0  0  0  0  0  0  0  0  0  0  0
   11.4223    2.6828   -1.1664 H   0  0  0  0  0  0  0  0  0  0  0  0
    9.3568    2.6858    0.2286 H   0  0  0  0  0  0  0  0  0  0  0  0
    6.7262    5.4448    2.2418 H   0  0  0  0  0  0  0  0  0  0  0  0
    7.6597    6.4267    1.1014 H   0  0  0  0  0  0  0  0  0  0  0  0
   12.1911    6.7370    0.0345 H   0  0  0  0  0  0  0  0  0  0  0  0
   13.1683    4.0491   -2.1489 H   0  0  0  0  0  0  0  0  0  0  0  0
   13.4148    5.6436   -1.7359 H   0  0  0  0  0  0  0  0  0  0  0  0
  1 17  1  0  0  0  0
  2 18  1  0  0  0  0
  2 19  1  0  0  0  0
  3  1  2  0  0  0  0
  3  4  1  0  0  0  0
  4  5  1  0  0  0  0
  4 22  1  0  0  0  0
  5 25  1  0  0  0  0
  5  8  1  0  0  0  0
  6  7  1  0  0  0  0
  7 27  1  0  0  0  0
  7 11  2  0  0  0  0
  8 15  1  0  0  0  0
  8 28  1  0  0  0  0
  9 12  2  0  0  0  0
 10  6  2  0  0  0  0
 10  9  1  0  0  0  0
 11 15  1  0  0  0  0
 12 11  1  0  0  0  0
 12 14  1  0  0  0  0
 13 10  1  0  0  0  0
 14  2  1  0  0  0  0
 16  1  1  0  0  0  0
 20  2  1  0  0  0  0
 21  3  1  0  0  0  0
 23  4  1  0  0  0  0
 24  5  1  0  0  0  0
 26  6  1  0  0  0  0
 29  8  1  0  0  0  0
 30  9  1  0  0  0  0
 31 13  1  0  0  0  0
 32 13  1  0  0  0  0
M  END
>  <HBA>
3

>  <HBD>
1

>  <TPSA>
44.48

>  <cid>
60024

>  <dipole>
3.53

>  <excitation_energy_1>
4.411

>  <excitation_energy_2>
4.583

>  <excitation_energy_3>
4.946

>  <excitation_energy_4>
5.007

>  <homo_energy>
-5.037

>  <homo_lumo_gap>
5.442

>  <logP>
3.204

>  <lumo_energy>
0.405

>  <melting_point>
41.43

>  <molecular_refractivity>
62.58

>  <oscillator_strength_1>
0.0079

>  <oscillator_strength_2>
0.0511

>  <oscillator_strength_3>
0.0101

>  <oscillator_strength_4>
0.0152

>  <open_babel_can_smiles>
C=CCCCOc1ccc(cc1OC)N

>  <mulliken_charges>
32
1   -0.341867
2   -0.212571
3   -0.03832
4   -0.308594
5   -0.277085
6   -0.190237
7   -0.182274
8   -0.029499
9   -0.261598
10   0.310627
11   0.307669
12   0.344863
13   -0.788737
14   -0.509127
15   -0.539427
16   0.136854
17   0.133771
18   0.155041
19   0.169232
20   0.146798
21   0.123335
22   0.137952
23   0.1411
24   0.143036
25   0.147454
26   0.113631
27   0.133464
28   0.139455
29   0.143303
30   0.119885
31   0.31727
32   0.314596

>  <lowdin_charges>
32
1   -0.346487
2   -0.276831
3   -0.143093
4   -0.270365
5   -0.289932
6   -0.219408
7   -0.162599
8   -0.126729
9   -0.25378
10   0.061976
11   0.046109
12   0.088106
13   -0.493881
14   -0.194148
15   -0.226621
16   0.158102
17   0.15362
18   0.14603
19   0.163802
20   0.141662
21   0.148705
22   0.146193
23   0.146621
24   0.14759
25   0.147951
26   0.153076
27   0.165524
28   0.146007
29   0.139412
30   0.157968
31   0.273864
32   0.271559

$$$$

