PCCDB-ID:  9091
public computational chemistry database (PCCDB) project, http://pccdb.org

 24 25  0  0  0  0  0  0  0  0999 V2000
    2.6724   -0.1877    0.1355 C   0  0  0  0  0  0  0  0  0  0  0  0
    2.0458    0.9904   -0.6231 C   0  0  0  0  0  0  0  0  0  0  0  0
    1.6890   -1.3612    0.2478 C   0  0  0  0  0  0  0  0  0  0  0  0
    0.7140    1.4213    0.0128 C   0  0  0  0  0  0  0  0  0  0  0  0
    0.3492   -0.9303    0.8673 C   0  0  0  0  0  0  0  0  0  0  0  0
   -0.8474   -0.1284   -1.2583 C   0  0  0  0  0  0  0  0  0  0  0  0
   -1.5397    0.7797    0.9191 C   0  0  0  0  0  0  0  0  0  0  0  0
   -0.3125    0.2641    0.1384 C   0  0  0  0  0  0  0  0  0  0  0  0
   -2.3557   -1.1809   -1.1090 S   0  0  0  0  0  0  0  0  0  0  0  0
   -2.9264   -0.4290    0.8228 S   0  0  0  0  0  0  0  0  0  0  0  0
    2.9544    0.1453    1.1455 H   0  0  0  0  0  0  0  0  0  0  0  0
    3.5986   -0.5090   -0.3572 H   0  0  0  0  0  0  0  0  0  0  0  0
    1.8838    0.7082   -1.6730 H   0  0  0  0  0  0  0  0  0  0  0  0
    2.7341    1.8448   -0.6379 H   0  0  0  0  0  0  0  0  0  0  0  0
    2.1235   -2.1650    0.8547 H   0  0  0  0  0  0  0  0  0  0  0  0
    1.5205   -1.7944   -0.7483 H   0  0  0  0  0  0  0  0  0  0  0  0
    0.2700    2.2497   -0.5552 H   0  0  0  0  0  0  0  0  0  0  0  0
    0.9173    1.8088    1.0217 H   0  0  0  0  0  0  0  0  0  0  0  0
    0.5237   -0.6318    1.9111 H   0  0  0  0  0  0  0  0  0  0  0  0
   -0.3429   -1.7777    0.8967 H   0  0  0  0  0  0  0  0  0  0  0  0
   -0.1248   -0.7124   -1.8338 H   0  0  0  0  0  0  0  0  0  0  0  0
   -1.0989    0.7701   -1.8310 H   0  0  0  0  0  0  0  0  0  0  0  0
   -1.8741    1.7401    0.5127 H   0  0  0  0  0  0  0  0  0  0  0  0
   -1.3111    0.9119    1.9816 H   0  0  0  0  0  0  0  0  0  0  0  0
  1  3  1  0  0  0  0
  1 11  1  0  0  0  0
  2  4  1  0  0  0  0
  2  1  1  0  0  0  0
  3 15  1  0  0  0  0
  3  5  1  0  0  0  0
  4  8  1  0  0  0  0
  4 18  1  0  0  0  0
  5 20  1  0  0  0  0
  5 19  1  0  0  0  0
  6  9  1  0  0  0  0
  6  8  1  0  0  0  0
  7 24  1  0  0  0  0
  8  5  1  0  0  0  0
  8  7  1  0  0  0  0
  9 10  1  0  0  0  0
 10  7  1  0  0  0  0
 12  1  1  0  0  0  0
 13  2  1  0  0  0  0
 14  2  1  0  0  0  0
 16  3  1  0  0  0  0
 17  4  1  0  0  0  0
 21  6  1  0  0  0  0
 22  6  1  0  0  0  0
 23  7  1  0  0  0  0
M  END
>  <HBA>
2

>  <HBD>
0

>  <TPSA>
50.6

>  <cid>
9091

>  <dipole>
3.65

>  <excitation_energy_1>
2.953

>  <excitation_energy_2>
4.17

>  <excitation_energy_3>
4.759

>  <excitation_energy_4>
5.046

>  <homo_energy>
-5.287

>  <homo_lumo_gap>
4.275

>  <logP>
3.332

>  <lumo_energy>
-1.012

>  <melting_point>
53.89

>  <molecular_refractivity>
51.26

>  <oscillator_strength_1>
0.0011

>  <oscillator_strength_2>
0.0001

>  <oscillator_strength_3>
0.0003

>  <oscillator_strength_4>
0.003

>  <open_babel_can_smiles>
C1CCC2(CC1)CSSC2

>  <mulliken_charges>
24
1   -0.255953
2   -0.264249
3   -0.270772
4   -0.27
5   -0.259873
6   -0.428909
7   -0.427142
8   0.061348
9   0.002988
10   0.007136
11   0.13005
12   0.13512
13   0.132902
14   0.137885
15   0.139615
16   0.134589
17   0.133659
18   0.136197
19   0.12778
20   0.174522
21   0.187087
22   0.177347
23   0.177202
24   0.181472

>  <lowdin_charges>
24
1   -0.277738
2   -0.278064
3   -0.27988
4   -0.275821
5   -0.279995
6   -0.37717
7   -0.369666
8   -0.005059
9   0.009719
10   0.012042
11   0.138001
12   0.146227
13   0.138186
14   0.148426
15   0.150464
16   0.139037
17   0.145303
18   0.143779
19   0.140464
20   0.167816
21   0.173599
22   0.160505
23   0.159531
24   0.170294

$$$$

