PCCDB-ID:  20974
public computational chemistry database (PCCDB) project, http://pccdb.org

 20 20  0  0  0  0  0  0  0  0999 V2000
   -0.7406    1.0987   -0.1972 C   0  0  0  0  0  0  0  0  0  0  0  0
   -1.3673   -0.1410   -0.1237 C   0  0  0  0  0  0  0  0  0  0  0  0
    0.8095   -1.2094   -0.0136 C   0  0  0  0  0  0  0  0  0  0  0  0
    1.2440    2.6454   -0.2393 C   0  0  0  0  0  0  0  0  0  0  0  0
    0.6547    1.2401   -0.1701 C   0  0  0  0  0  0  0  0  0  0  0  0
   -0.5750   -1.2823   -0.0318 C   0  0  0  0  0  0  0  0  0  0  0  0
    1.4029    0.0497   -0.0703 C   0  0  0  0  0  0  0  0  0  0  0  0
   -1.2190   -2.6067    0.0417 N   0  0  0  0  0  0  0  0  0  0  0  0
    2.8783    0.0571   -0.0318 N   0  0  0  0  0  0  0  0  0  0  0  0
    1.6571    3.1179    1.0265 O   0  0  0  0  0  0  0  0  0  0  0  0
   -2.4477   -2.6363    0.0242 O   0  0  0  0  0  0  0  0  0  0  0  0
   -0.4866   -3.5902    0.1148 O   0  0  0  0  0  0  0  0  0  0  0  0
    3.4608   -0.9751   -0.3432 O   0  0  0  0  0  0  0  0  0  0  0  0
    3.4534    1.0931    0.3215 O   0  0  0  0  0  0  0  0  0  0  0  0
   -1.3485    1.9949   -0.2758 H   0  0  0  0  0  0  0  0  0  0  0  0
   -2.4461   -0.2365   -0.1379 H   0  0  0  0  0  0  0  0  0  0  0  0
    1.4123   -2.1055    0.0432 H   0  0  0  0  0  0  0  0  0  0  0  0
    0.4570    3.3248   -0.5785 H   0  0  0  0  0  0  0  0  0  0  0  0
    2.0556    2.6791   -0.9772 H   0  0  0  0  0  0  0  0  0  0  0  0
    2.4770    2.6353    1.2285 H   0  0  0  0  0  0  0  0  0  0  0  0
  1  5  2  0  0  0  0
  1  2  1  0  0  0  0
  2  6  2  0  0  0  0
  3 17  1  0  0  0  0
  4  5  1  0  0  0  0
  4 10  1  0  0  0  0
  5  7  1  0  0  0  0
  6  3  1  0  0  0  0
  6  8  1  0  0  0  0
  7  9  1  0  0  0  0
  7  3  2  0  0  0  0
  8 12  2  0  0  0  0
  9 14  2  0  0  0  0
 10 20  1  0  0  0  0
 11  8  2  0  0  0  0
 13  9  2  0  0  0  0
 15  1  1  0  0  0  0
 16  2  1  0  0  0  0
 18  4  1  0  0  0  0
 19  4  1  0  0  0  0
M  END
>  <HBA>
1

>  <HBD>
1

>  <TPSA>
111.87

>  <cid>
20974

>  <dipole>
3.12

>  <excitation_energy_1>
3.706

>  <excitation_energy_2>
3.731

>  <excitation_energy_3>
3.773

>  <excitation_energy_4>
4.185

>  <homo_energy>
-7.788

>  <homo_lumo_gap>
4.512

>  <logP>
2.042

>  <lumo_energy>
-3.276

>  <melting_point>
105.37

>  <molecular_refractivity>
50.21

>  <oscillator_strength_1>
0.0071

>  <oscillator_strength_2>
0.0001

>  <oscillator_strength_3>
0.0075

>  <oscillator_strength_4>
0.0018

>  <open_babel_can_smiles>
OCc1ccc(cc1N(=O)=O)N(=O)=O

>  <mulliken_charges>
20
1   -0.200905
2   -0.120262
3   -0.169126
4   -0.099244
5   0.16889
6   0.268483
7   0.209315
8   0.386428
9   0.375756
10   -0.614145
11   -0.383889
12   -0.380707
13   -0.360319
14   -0.408721
15   0.167805
16   0.199709
17   0.228936
18   0.157002
19   0.154467
20   0.420527

>  <lowdin_charges>
20
1   -0.142762
2   -0.110837
3   -0.118196
4   -0.134532
5   0.018486
6   0.007245
7   0.003684
8   0.306805
9   0.313371
10   -0.45588
11   -0.232353
12   -0.231319
13   -0.216376
14   -0.248798
15   0.178183
16   0.194946
17   0.213538
18   0.157922
19   0.149642
20   0.347231

$$$$

