PCCDB-ID:  72032
public computational chemistry database (PCCDB) project, http://pccdb.org

 19 19  0  0  1  0  0  0  0  0999 V2000
   -0.8320   -0.9529    0.2494 C   0  0  0  0  0  0  0  0  0  0  0  0
    0.6699   -1.1617   -0.0252 C   0  0  0  0  0  0  0  0  0  0  0  0
   -1.0511    0.4910   -0.2348 C   0  0  0  0  0  0  0  0  0  0  0  0
    2.1851    0.6006   -1.1259 C   0  0  0  0  0  0  0  0  0  0  0  0
    1.2953    0.2629    0.0735 C   0  0  1  0  0  0  0  0  0  0  0  0
    2.7689    1.9294   -0.9433 N   0  0  0  0  0  0  0  0  0  0  0  0
    0.1634    1.2302    0.1524 N   0  0  0  0  0  0  0  0  0  0  0  0
   -1.0412   -1.0205    1.3252 H   0  0  0  0  0  0  0  0  0  0  0  0
   -1.4678   -1.6861   -0.2592 H   0  0  0  0  0  0  0  0  0  0  0  0
    0.8151   -1.5662   -1.0353 H   0  0  0  0  0  0  0  0  0  0  0  0
    1.1342   -1.8658    0.6723 H   0  0  0  0  0  0  0  0  0  0  0  0
   -1.9410    0.9741    0.1818 H   0  0  0  0  0  0  0  0  0  0  0  0
   -1.1520    0.5096   -1.3286 H   0  0  0  0  0  0  0  0  0  0  0  0
    1.5793    0.4939   -2.0466 H   0  0  0  0  0  0  0  0  0  0  0  0
    2.9955   -0.1383   -1.1910 H   0  0  0  0  0  0  0  0  0  0  0  0
    1.9098    0.3711    0.9744 H   0  0  0  0  0  0  0  0  0  0  0  0
    1.9916    2.5831   -0.8443 H   0  0  0  0  0  0  0  0  0  0  0  0
    3.2778    2.2053   -1.7817 H   0  0  0  0  0  0  0  0  0  0  0  0
    0.0603    1.5305    1.1190 H   0  0  0  0  0  0  0  0  0  0  0  0
  1  8  1  0  0  0  0
  2  5  1  0  0  0  0
  2  1  1  0  0  0  0
  2 11  1  0  0  0  0
  3  7  1  0  0  0  0
  3 12  1  0  0  0  0
  3  1  1  0  0  0  0
  4  6  1  0  0  0  0
  4  5  1  0  0  0  0
  5  7  1  0  0  0  0
  5 16  1  1  0  0  0
  6 17  1  0  0  0  0
  7 19  1  0  0  0  0
  9  1  1  0  0  0  0
 10  2  1  0  0  0  0
 13  3  1  0  0  0  0
 14  4  1  0  0  0  0
 15  4  1  0  0  0  0
 18  6  1  0  0  0  0
M  END
>  <HBA>
2

>  <HBD>
2

>  <TPSA>
38.05

>  <cid>
72032

>  <dipole>
1.48

>  <excitation_energy_1>
5.349

>  <excitation_energy_2>
5.637

>  <excitation_energy_3>
5.898

>  <excitation_energy_4>
6.016

>  <homo_energy>
-5.845

>  <homo_lumo_gap>
7.804

>  <logP>
0.726

>  <lumo_energy>
1.959

>  <melting_point>
78.11

>  <molecular_refractivity>
33.46

>  <oscillator_strength_1>
0.0098

>  <oscillator_strength_2>
0.0097

>  <oscillator_strength_3>
0.015

>  <oscillator_strength_4>
0.003

>  <open_babel_can_smiles>
NC[C@@H]1CCCN1

>  <mulliken_charges>
19
1   -0.276543
2   -0.294733
3   -0.151336
4   -0.115403
5   0.028754
6   -0.728341
7   -0.553771
8   0.131584
9   0.135471
10   0.138911
11   0.141341
12   0.137884
13   0.142493
14   0.105409
15   0.130298
16   0.134983
17   0.307158
18   0.288871
19   0.296972

>  <lowdin_charges>
19
1   -0.295123
2   -0.296672
3   -0.209868
4   -0.211194
5   -0.075719
6   -0.565853
7   -0.368203
8   0.137771
9   0.148077
10   0.143858
11   0.151382
12   0.146
13   0.136594
14   0.114582
15   0.139384
16   0.143828
17   0.257303
18   0.250896
19   0.25296

$$$$

