PCCDB-ID:  29179
public computational chemistry database (PCCDB) project, http://pccdb.org

 24 23  0  0  1  0  0  0  0  0999 V2000
   -0.8502   -0.0879    0.3261 C   0  0  0  0  0  0  0  0  0  0  0  0
    3.5444    1.1896   -2.3330 C   0  0  0  0  0  0  0  0  0  0  0  0
    1.2584    1.3065   -3.4286 C   0  0  0  0  0  0  0  0  0  0  0  0
    1.9696   -1.4301    0.3789 C   0  0  0  0  0  0  0  0  0  0  0  0
    0.4637    0.6368    0.6364 C   0  0  0  0  0  0  0  0  0  0  0  0
    2.0285    1.2228   -2.1138 C   0  0  0  0  0  0  0  0  0  0  0  0
    1.7098    0.0192   -0.0277 C   0  0  2  0  0  0  0  0  0  0  0  0
    1.5879    0.0318   -1.4546 O   0  0  0  0  0  0  0  0  0  0  0  0
   -1.7037    0.4584    0.7427 H   0  0  0  0  0  0  0  0  0  0  0  0
   -0.8685   -1.0986    0.7487 H   0  0  0  0  0  0  0  0  0  0  0  0
   -0.9947   -0.1742   -0.7556 H   0  0  0  0  0  0  0  0  0  0  0  0
    3.8877    2.1026   -2.8340 H   0  0  0  0  0  0  0  0  0  0  0  0
    3.8146    0.3288   -2.9548 H   0  0  0  0  0  0  0  0  0  0  0  0
    4.0843    1.1070   -1.3832 H   0  0  0  0  0  0  0  0  0  0  0  0
    1.5472    2.1990   -3.9950 H   0  0  0  0  0  0  0  0  0  0  0  0
    0.1807    1.3441   -3.2411 H   0  0  0  0  0  0  0  0  0  0  0  0
    1.4671    0.4241   -4.0439 H   0  0  0  0  0  0  0  0  0  0  0  0
    2.0262   -1.5268    1.4693 H   0  0  0  0  0  0  0  0  0  0  0  0
    2.9130   -1.7795   -0.0522 H   0  0  0  0  0  0  0  0  0  0  0  0
    1.1717   -2.0844    0.0140 H   0  0  0  0  0  0  0  0  0  0  0  0
    0.6312    0.6676    1.7222 H   0  0  0  0  0  0  0  0  0  0  0  0
    0.3847    1.6832    0.3117 H   0  0  0  0  0  0  0  0  0  0  0  0
    1.7734    2.0993   -1.4967 H   0  0  0  0  0  0  0  0  0  0  0  0
    2.5823    0.6227    0.2684 H   0  0  0  0  0  0  0  0  0  0  0  0
  1  5  1  0  0  0  0
  1  9  1  0  0  0  0
  1 10  1  0  0  0  0
  2  6  1  0  0  0  0
  2 14  1  0  0  0  0
  3 16  1  0  0  0  0
  3  6  1  0  0  0  0
  4 18  1  0  0  0  0
  5 21  1  0  0  0  0
  6 23  1  0  0  0  0
  6  8  1  0  0  0  0
  7 24  1  1  0  0  0
  7  4  1  0  0  0  0
  7  5  1  0  0  0  0
  8  7  1  0  0  0  0
 11  1  1  0  0  0  0
 12  2  1  0  0  0  0
 13  2  1  0  0  0  0
 15  3  1  0  0  0  0
 17  3  1  0  0  0  0
 19  4  1  0  0  0  0
 20  4  1  0  0  0  0
 22  5  1  0  0  0  0
M  END
>  <HBA>
1

>  <HBD>
0

>  <TPSA>
9.23

>  <cid>
29179

>  <dipole>
1.09

>  <excitation_energy_1>
6.121

>  <excitation_energy_2>
6.628

>  <excitation_energy_3>
6.686

>  <excitation_energy_4>
6.745

>  <homo_energy>
-6.555

>  <homo_lumo_gap>
8.653

>  <logP>
2.21

>  <lumo_energy>
2.098

>  <melting_point>
-36.18

>  <molecular_refractivity>
36.85

>  <oscillator_strength_1>
0.0054

>  <oscillator_strength_2>
0.0037

>  <oscillator_strength_3>
0.0091

>  <oscillator_strength_4>
0.0106

>  <open_babel_can_smiles>
CC[C@H](OC(C)C)C

>  <mulliken_charges>
24
1   -0.449155
2   -0.44851
3   -0.446702
4   -0.453486
5   -0.25793
6   0.154747
7   0.154215
8   -0.494162
9   0.138535
10   0.143255
11   0.16063
12   0.137851
13   0.150904
14   0.14494
15   0.137471
16   0.151508
17   0.152472
18   0.136284
19   0.149626
20   0.15816
21   0.126463
22   0.131644
23   0.112108
24   0.109131

>  <lowdin_charges>
24
1   -0.447522
2   -0.459893
3   -0.447171
4   -0.449741
5   -0.284544
6   0.009097
7   0.006105
8   -0.28063
9   0.149533
10   0.146197
11   0.153688
12   0.150589
13   0.154252
14   0.149992
15   0.150543
16   0.153218
17   0.155118
18   0.147401
19   0.155228
20   0.157841
21   0.139757
22   0.140074
23   0.12449
24   0.126377

$$$$

