PCCDB-ID:  15637
public computational chemistry database (PCCDB) project, http://pccdb.org

 22 23  0  0  0  0  0  0  0  0999 V2000
    0.9221   -0.1891    0.4488 C   0  0  0  0  0  0  0  0  0  0  0  0
    4.5694   -1.2085    0.0302 C   0  0  0  0  0  0  0  0  0  0  0  0
    5.1948   -0.0023   -0.2831 C   0  0  0  0  0  0  0  0  0  0  0  0
    3.1943   -1.2356    0.2602 C   0  0  0  0  0  0  0  0  0  0  0  0
    4.4381    1.1612   -0.3629 C   0  0  0  0  0  0  0  0  0  0  0  0
    2.4038   -0.0831    0.1877 C   0  0  0  0  0  0  0  0  0  0  0  0
    3.0504    1.1383   -0.1310 C   0  0  0  0  0  0  0  0  0  0  0  0
    2.3287    2.4040   -0.2327 C   0  0  0  0  0  0  0  0  0  0  0  0
    2.1767    4.5958   -0.5673 C   0  0  0  0  0  0  0  0  0  0  0  0
    2.5785    5.7786   -0.7809 N   0  0  0  0  0  0  0  0  0  0  0  0
    1.0708    2.6482   -0.0498 N   0  0  0  0  0  0  0  0  0  0  0  0
    0.9464    3.9987   -0.3337 N   0  0  0  0  0  0  0  0  0  0  0  0
    3.0538    3.5258   -0.5697 O   0  0  0  0  0  0  0  0  0  0  0  0
    0.6455   -1.2293    0.6455 H   0  0  0  0  0  0  0  0  0  0  0  0
    0.3347    0.1762   -0.4001 H   0  0  0  0  0  0  0  0  0  0  0  0
    0.6183    0.4206    1.3067 H   0  0  0  0  0  0  0  0  0  0  0  0
    5.1468   -2.1268    0.0941 H   0  0  0  0  0  0  0  0  0  0  0  0
    6.2646    0.0349   -0.4669 H   0  0  0  0  0  0  0  0  0  0  0  0
    2.7114   -2.1789    0.5025 H   0  0  0  0  0  0  0  0  0  0  0  0
    4.9146    2.1038   -0.6067 H   0  0  0  0  0  0  0  0  0  0  0  0
    1.8032    6.4404   -0.7615 H   0  0  0  0  0  0  0  0  0  0  0  0
    0.1341    4.4802    0.0208 H   0  0  0  0  0  0  0  0  0  0  0  0
  1 14  1  0  0  0  0
  1 16  1  0  0  0  0
  2 17  1  0  0  0  0
  2  4  2  0  0  0  0
  3  2  1  0  0  0  0
  4 19  1  0  0  0  0
  5  3  2  0  0  0  0
  5  7  1  0  0  0  0
  6  4  1  0  0  0  0
  6  1  1  0  0  0  0
  7  6  2  0  0  0  0
  8  7  1  0  0  0  0
  8 11  2  0  0  0  0
  9 12  1  0  0  0  0
 10 21  1  0  0  0  0
 10  9  2  0  0  0  0
 12 11  1  0  0  0  0
 12 22  1  0  0  0  0
 13  9  1  0  0  0  0
 13  8  1  0  0  0  0
 15  1  1  0  0  0  0
 18  3  1  0  0  0  0
 20  5  1  0  0  0  0
M  END
>  <HBA>
4

>  <HBD>
1

>  <TPSA>
64.94

>  <cid>
15637

>  <dipole>
2.75

>  <excitation_energy_1>
4.223

>  <excitation_energy_2>
4.671

>  <excitation_energy_3>
4.944

>  <excitation_energy_4>
5.234

>  <homo_energy>
-5.829

>  <homo_lumo_gap>
4.607

>  <logP>
2.208

>  <lumo_energy>
-1.222

>  <melting_point>
125.83

>  <molecular_refractivity>
49.1

>  <oscillator_strength_1>
0.2748

>  <oscillator_strength_2>
0.0087

>  <oscillator_strength_3>
0.0012

>  <oscillator_strength_4>
0.06

>  <open_babel_can_smiles>
Cc1ccccc1c1n[nH]c(=N)o1

>  <mulliken_charges>
22
1   -0.512918
2   -0.113012
3   -0.137902
4   -0.195587
5   -0.175099
6   0.139792
7   0.035849
8   0.528969
9   0.714796
10   -0.658576
11   -0.350749
12   -0.492271
13   -0.490263
14   0.147301
15   0.177515
16   0.174598
17   0.135838
18   0.137983
19   0.129971
20   0.169634
21   0.283875
22   0.350256

>  <lowdin_charges>
22
1   -0.442112
2   -0.144574
3   -0.15607
4   -0.166023
5   -0.144598
6   0.02085
7   -0.034789
8   0.116852
9   0.152271
10   -0.437759
11   -0.135864
12   -0.216714
13   -0.129094
14   0.152458
15   0.171228
16   0.169563
17   0.161696
18   0.160581
19   0.158555
20   0.177031
21   0.265161
22   0.301353

$$$$

