PCCDB-ID:  33420
public computational chemistry database (PCCDB) project, http://pccdb.org

 31 31  0  0  1  0  0  0  0  0999 V2000
    2.7531   -2.3116    2.7367 C   0  0  0  0  0  0  0  0  0  0  0  0
    3.1995   -0.0564    3.8114 C   0  0  0  0  0  0  0  0  0  0  0  0
    6.4693   -4.0561   -0.3490 C   0  0  0  0  0  0  0  0  0  0  0  0
    9.2266    1.1048    2.1839 C   0  0  0  0  0  0  0  0  0  0  0  0
    3.3883   -0.3132    1.2568 C   0  0  0  0  0  0  0  0  0  0  0  0
    2.6874   -0.7884    2.5622 C   0  0  0  0  0  0  0  0  0  0  0  0
    4.8720   -0.5828    1.1851 C   0  0  2  0  0  0  0  0  0  0  0  0
    6.6797   -1.9323    0.6480 C   0  0  0  0  0  0  0  0  0  0  0  0
    7.0946    0.2792    1.6957 C   0  0  0  0  0  0  0  0  0  0  0  0
    7.2641   -2.9722    0.1966 N   0  0  0  0  0  0  0  0  0  0  0  0
    7.7807    1.2429    2.1771 N   0  0  0  0  0  0  0  0  0  0  0  0
    5.3038   -1.6980    0.6845 N   0  0  0  0  0  0  0  0  0  0  0  0
    5.6974    0.3938    1.6781 N   0  0  0  0  0  0  0  0  0  0  0  0
    7.5200   -0.9147    1.1622 N   0  0  0  0  0  0  0  0  0  0  0  0
    2.1724   -2.6203    3.6138 H   0  0  0  0  0  0  0  0  0  0  0  0
    3.7834   -2.6563    2.8729 H   0  0  0  0  0  0  0  0  0  0  0  0
    2.3481   -2.8310    1.8612 H   0  0  0  0  0  0  0  0  0  0  0  0
    2.6067   -0.3359    4.6896 H   0  0  0  0  0  0  0  0  0  0  0  0
    3.1280    1.0335    3.7008 H   0  0  0  0  0  0  0  0  0  0  0  0
    4.2445   -0.3068    4.0288 H   0  0  0  0  0  0  0  0  0  0  0  0
    6.6884   -4.9767    0.2079 H   0  0  0  0  0  0  0  0  0  0  0  0
    6.7763   -4.2375   -1.3875 H   0  0  0  0  0  0  0  0  0  0  0  0
    5.3883   -3.8762   -0.3252 H   0  0  0  0  0  0  0  0  0  0  0  0
    9.6679    2.0048    2.6208 H   0  0  0  0  0  0  0  0  0  0  0  0
    9.6486    0.9908    1.1714 H   0  0  0  0  0  0  0  0  0  0  0  0
    9.5694    0.2462    2.7852 H   0  0  0  0  0  0  0  0  0  0  0  0
    3.2097    0.7630    1.1302 H   0  0  0  0  0  0  0  0  0  0  0  0
    2.9337   -0.8263    0.4047 H   0  0  0  0  0  0  0  0  0  0  0  0
    1.6317   -0.5120    2.4285 H   0  0  0  0  0  0  0  0  0  0  0  0
    5.3350    1.2573    2.0588 H   0  0  0  0  0  0  0  0  0  0  0  0
    8.5098   -1.1141    1.1165 H   0  0  0  0  0  0  0  0  0  0  0  0
  1 16  1  0  0  0  0
  1 15  1  0  0  0  0
  2 20  1  0  0  0  0
  2 18  1  0  0  0  0
  3 23  1  0  0  0  0
  3 10  1  0  0  0  0
  3 21  1  0  0  0  0
  4 24  1  0  0  0  0
  4 26  1  0  0  0  0
  5  6  1  0  0  0  0
  6  1  1  0  0  0  0
  6  2  1  0  0  0  0
  7  5  1  1  0  0  0
  7 13  1  0  0  0  0
  8 12  2  0  0  0  0
  8 14  1  0  0  0  0
  9 11  2  0  0  0  0
 10  8  1  0  0  0  0
 11  4  1  0  0  0  0
 12  7  1  0  0  0  0
 13  9  1  0  0  0  0
 13 30  1  0  0  0  0
 14  9  1  0  0  0  0
 17  1  1  0  0  0  0
 19  2  1  0  0  0  0
 22  3  1  0  0  0  0
 25  4  1  0  0  0  0
 27  5  1  0  0  0  0
 28  5  1  0  0  0  0
 29  6  1  0  0  0  0
 31 14  1  0  0  0  0
M  RAD  2   7   2  10   2
M  END
>  <HBA>
5

>  <HBD>
2

>  <TPSA>
62.73

>  <cid>
33420

>  <dipole>
2.64

>  <excitation_energy_1>
4.654

>  <excitation_energy_2>
4.785

>  <excitation_energy_3>
4.802

>  <excitation_energy_4>
5.418

>  <homo_energy>
-5.984

>  <homo_lumo_gap>
5.306

>  <logP>
1.3

>  <lumo_energy>
-0.678

>  <melting_point>
122.79

>  <molecular_refractivity>
57.83

>  <oscillator_strength_1>
0.0551

>  <oscillator_strength_2>
0.0183

>  <oscillator_strength_3>
0.0778

>  <oscillator_strength_4>
0.0007

>  <open_babel_can_smiles>
C[N]C1=N[C](N/C(=N/C)/N1)CC(C)C

>  <mulliken_charges>
31
1   -0.438129
2   -0.458203
3   -0.320601
4   -0.341126
5   -0.346563
6   -0.071106
7   0.528923
8   0.64978
9   0.750645
10   -0.495263
11   -0.493057
12   -0.522228
13   -0.678127
14   -0.71106
15   0.140835
16   0.160661
17   0.149388
18   0.153294
19   0.134747
20   0.155578
21   0.145818
22   0.146493
23   0.158948
24   0.164464
25   0.14142
26   0.141242
27   0.142129
28   0.177718
29   0.136106
30   0.349478
31   0.347796

>  <lowdin_charges>
31
1   -0.446295
2   -0.449818
3   -0.355502
4   -0.363103
5   -0.28399
6   -0.110938
7   0.12313
8   0.11494
9   0.133082
10   -0.239026
11   -0.274714
12   -0.229223
13   -0.223946
14   -0.25131
15   0.149884
16   0.155893
17   0.154527
18   0.156364
19   0.142005
20   0.151016
21   0.147809
22   0.146897
23   0.144749
24   0.159026
25   0.137497
26   0.138669
27   0.149335
28   0.174875
29   0.142379
30   0.304526
31   0.301264

$$$$

