PCCDB-ID:  12276
public computational chemistry database (PCCDB) project, http://pccdb.org

 14 14  0  0  0  0  0  0  0  0999 V2000
   -0.7658    1.1722    0.0128 C   0  0  0  0  0  0  0  0  0  0  0  0
   -1.3980   -0.0689   -0.0125 C   0  0  0  0  0  0  0  0  0  0  0  0
    0.6244    1.2553   -0.0159 C   0  0  0  0  0  0  0  0  0  0  0  0
    0.7691   -1.1723   -0.0948 C   0  0  0  0  0  0  0  0  0  0  0  0
   -1.2784   -2.5245   -0.0924 C   0  0  0  0  0  0  0  0  0  0  0  0
    2.8272    0.1642   -0.0994 C   0  0  0  0  0  0  0  0  0  0  0  0
   -0.6299   -1.2446   -0.0663 C   0  0  0  0  0  0  0  0  0  0  0  0
    1.3949    0.0811   -0.0699 C   0  0  0  0  0  0  0  0  0  0  0  0
   -1.8079   -3.5595   -0.1134 N   0  0  0  0  0  0  0  0  0  0  0  0
    3.9875    0.2367   -0.1231 N   0  0  0  0  0  0  0  0  0  0  0  0
   -1.3599    2.0797    0.0553 H   0  0  0  0  0  0  0  0  0  0  0  0
   -2.4805   -0.1388    0.0089 H   0  0  0  0  0  0  0  0  0  0  0  0
    1.1214    2.2196    0.0031 H   0  0  0  0  0  0  0  0  0  0  0  0
    1.3625   -2.0787   -0.1356 H   0  0  0  0  0  0  0  0  0  0  0  0
  1 11  1  0  0  0  0
  2 12  1  0  0  0  0
  2  1  1  0  0  0  0
  3 13  1  0  0  0  0
  3  1  2  0  0  0  0
  4  8  2  0  0  0  0
  4  7  1  0  0  0  0
  5  7  1  0  0  0  0
  6  8  1  0  0  0  0
  7  2  2  0  0  0  0
  8  3  1  0  0  0  0
  9  5  3  0  0  0  0
 10  6  3  0  0  0  0
 14  4  1  0  0  0  0
M  END
>  <HBA>
2

>  <HBD>
0

>  <TPSA>
47.58

>  <cid>
12276

>  <dipole>
4.28

>  <excitation_energy_1>
4.793

>  <excitation_energy_2>
5.3

>  <excitation_energy_3>
5.918

>  <excitation_energy_4>
6.066

>  <homo_energy>
-7.834

>  <homo_lumo_gap>
5.595

>  <logP>
1.43

>  <lumo_energy>
-2.24

>  <melting_point>
79.79

>  <molecular_refractivity>
35.87

>  <oscillator_strength_1>
0.0032

>  <oscillator_strength_2>
0.119

>  <oscillator_strength_3>
0.8007

>  <oscillator_strength_4>
0.0

>  <open_babel_can_smiles>
N#Cc1cccc(c1)C#N

>  <mulliken_charges>
14
1   -0.136096
2   -0.123715
3   -0.123648
4   -0.148457
5   0.245665
6   0.245689
7   0.134517
8   0.134466
9   -0.465241
10   -0.465255
11   0.164136
12   0.174705
13   0.17468
14   0.188555

>  <lowdin_charges>
14
1   -0.14208
2   -0.113721
3   -0.116408
4   -0.110382
5   -0.013252
6   -0.014553
7   -0.011884
8   -0.009915
9   -0.098751
10   -0.098736
11   0.176485
12   0.180149
13   0.182109
14   0.190937

$$$$

