PCCDB-ID:  7433
public computational chemistry database (PCCDB) project, http://pccdb.org

 19 19  0  0  0  0  0  0  0  0999 V2000
   -0.6624    1.1681    0.0284 C   0  0  0  0  0  0  0  0  0  0  0  0
   -0.6288   -1.2504   -0.0007 C   0  0  0  0  0  0  0  0  0  0  0  0
    1.4710   -0.0121    0.0101 C   0  0  0  0  0  0  0  0  0  0  0  0
   -1.3494   -0.0527    0.0026 C   0  0  0  0  0  0  0  0  0  0  0  0
    0.7267    1.1637    0.0216 C   0  0  0  0  0  0  0  0  0  0  0  0
    0.7637   -1.2068    0.0039 C   0  0  0  0  0  0  0  0  0  0  0  0
   -2.8559    0.0042    0.0320 C   0  0  0  0  0  0  0  0  0  0  0  0
    1.4487    2.4555    0.0341 N   0  0  0  0  0  0  0  0  0  0  0  0
    1.5139   -2.4797    0.0050 N   0  0  0  0  0  0  0  0  0  0  0  0
   -3.4527    0.9805    0.4115 O   0  0  0  0  0  0  0  0  0  0  0  0
   -3.5245   -1.0994   -0.3790 O   0  0  0  0  0  0  0  0  0  0  0  0
    0.7704    3.4779    0.0296 O   0  0  0  0  0  0  0  0  0  0  0  0
    2.6757    2.4114    0.0472 O   0  0  0  0  0  0  0  0  0  0  0  0
    0.8560   -3.5182   -0.0059 O   0  0  0  0  0  0  0  0  0  0  0  0
    2.7387   -2.4127    0.0134 O   0  0  0  0  0  0  0  0  0  0  0  0
   -1.2129    2.1004    0.0564 H   0  0  0  0  0  0  0  0  0  0  0  0
   -1.1058   -2.2238    0.0288 H   0  0  0  0  0  0  0  0  0  0  0  0
    2.5527    0.0042    0.0105 H   0  0  0  0  0  0  0  0  0  0  0  0
   -2.9294   -1.7377   -0.8047 H   0  0  0  0  0  0  0  0  0  0  0  0
  1 16  1  0  0  0  0
  2  4  2  0  0  0  0
  2  6  1  0  0  0  0
  2 17  1  0  0  0  0
  3 18  1  0  0  0  0
  3  5  1  0  0  0  0
  4  1  1  0  0  0  0
  4  7  1  0  0  0  0
  5  1  2  0  0  0  0
  5  8  1  0  0  0  0
  6  9  1  0  0  0  0
  6  3  2  0  0  0  0
  7 10  2  0  0  0  0
  8 13  2  0  0  0  0
  9 15  2  0  0  0  0
 11  7  1  0  0  0  0
 12  8  2  0  0  0  0
 14  9  2  0  0  0  0
 19 11  1  0  0  0  0
M  END
>  <HBA>
2

>  <HBD>
1

>  <TPSA>
128.94

>  <cid>
7433

>  <dipole>
2.49

>  <excitation_energy_1>
3.702

>  <excitation_energy_2>
3.725

>  <excitation_energy_3>
4.043

>  <excitation_energy_4>
4.15

>  <homo_energy>
-8.349

>  <homo_lumo_gap>
4.797

>  <logP>
2.248

>  <lumo_energy>
-3.551

>  <melting_point>
174.24

>  <molecular_refractivity>
51.05

>  <oscillator_strength_1>
0.0

>  <oscillator_strength_2>
0.0001

>  <oscillator_strength_3>
0.0045

>  <oscillator_strength_4>
0.0009

>  <open_babel_can_smiles>
OC(=O)c1cc(cc(c1)N(=O)=O)N(=O)=O

>  <mulliken_charges>
19
1   -0.15387
2   -0.200327
3   -0.165082
4   0.023787
5   0.26653
6   0.26777
7   0.584062
8   0.393194
9   0.393056
10   -0.425158
11   -0.564591
12   -0.373657
13   -0.374891
14   -0.384082
15   -0.371241
16   0.229439
17   0.196802
18   0.236894
19   0.421365

>  <lowdin_charges>
19
1   -0.08942
2   -0.130511
3   -0.104255
4   -0.04334
5   0.012818
6   0.011847
7   0.198493
8   0.305799
9   0.306202
10   -0.217348
11   -0.340029
12   -0.222124
13   -0.223443
14   -0.233631
15   -0.218104
16   0.213916
17   0.191496
18   0.216054
19   0.365581

$$$$

