PCCDB-ID:  32240
public computational chemistry database (PCCDB) project, http://pccdb.org

 21 21  0  0  0  0  0  0  0  0999 V2000
    1.0689    0.0449    0.3582 C   0  0  0  0  0  0  0  0  0  0  0  0
    5.7598   -1.3068    0.5652 C   0  0  0  0  0  0  0  0  0  0  0  0
    5.2548   -1.0530   -1.8957 C   0  0  0  0  0  0  0  0  0  0  0  0
    3.3217    1.1780    0.0127 C   0  0  0  0  0  0  0  0  0  0  0  0
    3.3127   -1.1837   -0.2164 C   0  0  0  0  0  0  0  0  0  0  0  0
    2.5348    0.0863    0.0637 C   0  0  0  0  0  0  0  0  0  0  0  0
    4.7112    0.8068   -0.2996 C   0  0  0  0  0  0  0  0  0  0  0  0
    4.7753   -0.7336   -0.4688 C   0  0  0  0  0  0  0  0  0  0  0  0
    5.6695    1.5520   -0.4135 O   0  0  0  0  0  0  0  0  0  0  0  0
    0.6537    1.0439    0.5193 H   0  0  0  0  0  0  0  0  0  0  0  0
    0.8714   -0.5611    1.2529 H   0  0  0  0  0  0  0  0  0  0  0  0
    0.5203   -0.4309   -0.4658 H   0  0  0  0  0  0  0  0  0  0  0  0
    5.8648   -2.3917    0.4442 H   0  0  0  0  0  0  0  0  0  0  0  0
    5.4215   -1.1105    1.5897 H   0  0  0  0  0  0  0  0  0  0  0  0
    6.7444   -0.8449    0.4411 H   0  0  0  0  0  0  0  0  0  0  0  0
    5.3570   -2.1354   -2.0399 H   0  0  0  0  0  0  0  0  0  0  0  0
    6.2267   -0.5835   -2.0786 H   0  0  0  0  0  0  0  0  0  0  0  0
    4.5507   -0.6753   -2.6468 H   0  0  0  0  0  0  0  0  0  0  0  0
    3.0107    2.2048    0.1754 H   0  0  0  0  0  0  0  0  0  0  0  0
    2.8835   -1.7120   -1.0798 H   0  0  0  0  0  0  0  0  0  0  0  0
    3.2298   -1.8786    0.6315 H   0  0  0  0  0  0  0  0  0  0  0  0
  1 10  1  0  0  0  0
  1 11  1  0  0  0  0
  2 14  1  0  0  0  0
  3  8  1  0  0  0  0
  4  6  2  0  0  0  0
  4 19  1  0  0  0  0
  5  6  1  0  0  0  0
  5 21  1  0  0  0  0
  6  1  1  0  0  0  0
  7  4  1  0  0  0  0
  8  7  1  0  0  0  0
  8  5  1  0  0  0  0
  8  2  1  0  0  0  0
  9  7  2  0  0  0  0
 12  1  1  0  0  0  0
 13  2  1  0  0  0  0
 15  2  1  0  0  0  0
 16  3  1  0  0  0  0
 17  3  1  0  0  0  0
 18  3  1  0  0  0  0
 20  5  1  0  0  0  0
M  END
>  <HBA>
1

>  <HBD>
0

>  <TPSA>
17.07

>  <cid>
32240

>  <dipole>
3.98

>  <excitation_energy_1>
3.752

>  <excitation_energy_2>
5.833

>  <excitation_energy_3>
5.899

>  <excitation_energy_4>
6.253

>  <homo_energy>
-6.248

>  <homo_lumo_gap>
5.197

>  <logP>
1.932

>  <lumo_energy>
-1.05

>  <melting_point>
47.97

>  <molecular_refractivity>
37.92

>  <oscillator_strength_1>
0.0008

>  <oscillator_strength_2>
0.1853

>  <oscillator_strength_3>
0.165

>  <oscillator_strength_4>
0.0002

>  <open_babel_can_smiles>
CC1=CC(=O)C(C1)(C)C

>  <mulliken_charges>
21
1   -0.520721
2   -0.454293
3   -0.454045
4   -0.196852
5   -0.360492
6   0.164898
7   0.425869
8   0.031085
9   -0.49552
10   0.168343
11   0.168947
12   0.168072
13   0.141089
14   0.142782
15   0.169128
16   0.14119
17   0.169029
18   0.142779
19   0.138405
20   0.15507
21   0.155237

>  <lowdin_charges>
21
1   -0.443472
2   -0.433677
3   -0.435943
4   -0.218525
5   -0.283672
6   0.043676
7   0.146228
8   -0.015404
9   -0.255061
10   0.164332
11   0.167571
12   0.167579
13   0.146507
14   0.14827
15   0.162323
16   0.146617
17   0.162427
18   0.150237
19   0.165475
20   0.157407
21   0.157106

$$$$

