PCCDB-ID:  9473
public computational chemistry database (PCCDB) project, http://pccdb.org

 24 25  0  0  0  0  0  0  0  0999 V2000
    1.1504   -0.7300   -1.1221 C   0  0  0  0  0  0  0  0  0  0  0  0
    4.8275   -3.9162   -1.3619 C   0  0  0  0  0  0  0  0  0  0  0  0
    5.1647   -5.0212   -2.1630 C   0  0  0  0  0  0  0  0  0  0  0  0
    5.8880   -2.3705   -2.9210 C   0  0  0  0  0  0  0  0  0  0  0  0
    4.7882   -1.4474   -0.8479 C   0  0  0  0  0  0  0  0  0  0  0  0
    6.9707   -4.8676   -5.2733 C   0  0  0  0  0  0  0  0  0  0  0  0
    2.4086   -1.3880   -0.6043 C   0  0  0  0  0  0  0  0  0  0  0  0
    5.1783   -2.6107   -1.7235 C   0  0  0  0  0  0  0  0  0  0  0  0
    5.8596   -4.7596   -3.3274 C   0  0  0  0  0  0  0  0  0  0  0  0
    6.2115   -3.4635   -3.6968 C   0  0  0  0  0  0  0  0  0  0  0  0
    2.4449   -2.2499    0.2482 O   0  0  0  0  0  0  0  0  0  0  0  0
    3.4988   -0.8844   -1.2275 O   0  0  0  0  0  0  0  0  0  0  0  0
    6.3088   -5.6500   -4.2713 O   0  0  0  0  0  0  0  0  0  0  0  0
    6.8967   -3.4899   -4.8886 O   0  0  0  0  0  0  0  0  0  0  0  0
    0.2972   -1.0596   -0.5283 H   0  0  0  0  0  0  0  0  0  0  0  0
    0.9960   -1.0060   -2.1710 H   0  0  0  0  0  0  0  0  0  0  0  0
    1.2427    0.3595   -1.0808 H   0  0  0  0  0  0  0  0  0  0  0  0
    4.2711   -4.0736   -0.4438 H   0  0  0  0  0  0  0  0  0  0  0  0
    4.8967   -6.0336   -1.8812 H   0  0  0  0  0  0  0  0  0  0  0  0
    6.1711   -1.3662   -3.2202 H   0  0  0  0  0  0  0  0  0  0  0  0
    5.4841   -0.6139   -0.9670 H   0  0  0  0  0  0  0  0  0  0  0  0
    4.7400   -1.7385    0.2027 H   0  0  0  0  0  0  0  0  0  0  0  0
    6.4650   -5.0060   -6.2366 H   0  0  0  0  0  0  0  0  0  0  0  0
    8.0219   -5.1732   -5.3384 H   0  0  0  0  0  0  0  0  0  0  0  0
  1 17  1  0  0  0  0
  1  7  1  0  0  0  0
  1 15  1  0  0  0  0
  2 18  1  0  0  0  0
  3 19  1  0  0  0  0
  3  2  2  0  0  0  0
  4  8  2  0  0  0  0
  5 22  1  0  0  0  0
  6 14  1  0  0  0  0
  6 13  1  0  0  0  0
  7 11  2  0  0  0  0
  8  2  1  0  0  0  0
  8  5  1  0  0  0  0
  9  3  1  0  0  0  0
 10  9  2  0  0  0  0
 10  4  1  0  0  0  0
 12  5  1  0  0  0  0
 12  7  1  0  0  0  0
 13  9  1  0  0  0  0
 14 10  1  0  0  0  0
 16  1  1  0  0  0  0
 20  4  1  0  0  0  0
 21  5  1  0  0  0  0
 23  6  1  0  0  0  0
 24  6  1  0  0  0  0
M  END
>  <HBA>
4

>  <HBD>
0

>  <TPSA>
44.76

>  <cid>
9473

>  <dipole>
1.97

>  <excitation_energy_1>
4.741

>  <excitation_energy_2>
5.155

>  <excitation_energy_3>
5.278

>  <excitation_energy_4>
5.342

>  <homo_energy>
-5.66

>  <homo_lumo_gap>
5.521

>  <logP>
1.478

>  <lumo_energy>
-0.139

>  <melting_point>
53.72

>  <molecular_refractivity>
48.37

>  <oscillator_strength_1>
0.0934

>  <oscillator_strength_2>
0.042

>  <oscillator_strength_3>
0.0123

>  <oscillator_strength_4>
0.0082

>  <open_babel_can_smiles>
CC(=O)OCc1ccc2c(c1)OCO2

>  <mulliken_charges>
24
1   -0.522559
2   -0.1959
3   -0.183812
4   -0.228837
5   -0.145104
6   0.194666
7   0.606027
8   0.135326
9   0.334879
10   0.33321
11   -0.471197
12   -0.445994
13   -0.53047
14   -0.53417
15   0.181351
16   0.184818
17   0.179597
18   0.162165
19   0.148107
20   0.143551
21   0.15492
22   0.178017
23   0.160779
24   0.160632

>  <lowdin_charges>
24
1   -0.461495
2   -0.16096
3   -0.181785
4   -0.18525
5   -0.127713
6   0.021722
7   0.201573
8   -0.030157
9   0.073841
10   0.072339
11   -0.271224
12   -0.199672
13   -0.203065
14   -0.208373
15   0.175722
16   0.178566
17   0.174359
18   0.174405
19   0.171115
20   0.168989
21   0.157558
22   0.164628
23   0.148114
24   0.146763

$$$$

