PCCDB-ID:  69379
public computational chemistry database (PCCDB) project, http://pccdb.org

 16 15  0  0  0  0  0  0  0  0999 V2000
    1.5565   -0.7732   -1.1626 C   0  0  0  0  0  0  0  0  0  0  0  0
    2.2084   -1.0606    0.1798 C   0  0  0  0  0  0  0  0  0  0  0  0
    5.4151    0.7720    0.4645 C   0  0  0  0  0  0  0  0  0  0  0  0
    4.4646   -0.3246   -0.0110 C   0  0  0  0  0  0  0  0  0  0  0  0
    6.6578    0.7652   -0.3773 N   0  0  0  0  0  0  0  0  0  0  0  0
    4.7865   -1.2703   -0.6872 O   0  0  0  0  0  0  0  0  0  0  0  0
    6.5490    1.2302   -1.5060 O   0  0  0  0  0  0  0  0  0  0  0  0
    7.6734    0.2975    0.1226 O   0  0  0  0  0  0  0  0  0  0  0  0
    3.2414   -0.0789    0.4822 O   0  0  0  0  0  0  0  0  0  0  0  0
    0.7317   -1.4756   -1.3273 H   0  0  0  0  0  0  0  0  0  0  0  0
    2.2762   -0.8929   -1.9772 H   0  0  0  0  0  0  0  0  0  0  0  0
    1.1526    0.2439   -1.1912 H   0  0  0  0  0  0  0  0  0  0  0  0
    2.6592   -2.0553    0.2025 H   0  0  0  0  0  0  0  0  0  0  0  0
    1.5008   -0.9603    1.0055 H   0  0  0  0  0  0  0  0  0  0  0  0
    5.7150    0.5932    1.4982 H   0  0  0  0  0  0  0  0  0  0  0  0
    4.9558    1.7555    0.3624 H   0  0  0  0  0  0  0  0  0  0  0  0
  1  2  1  0  0  0  0
  2 13  1  0  0  0  0
  2  9  1  0  0  0  0
  2 14  1  0  0  0  0
  3 15  1  0  0  0  0
  4  3  1  0  0  0  0
  4  9  1  0  0  0  0
  5  8  2  0  0  0  0
  5  3  1  0  0  0  0
  6  4  2  0  0  0  0
  7  5  2  0  0  0  0
 10  1  1  0  0  0  0
 11  1  1  0  0  0  0
 12  1  1  0  0  0  0
 16  3  1  0  0  0  0
M  END
>  <HBA>
2

>  <HBD>
0

>  <TPSA>
72.12

>  <cid>
69379

>  <dipole>
5.19

>  <excitation_energy_1>
4.091

>  <excitation_energy_2>
4.472

>  <excitation_energy_3>
5.15

>  <excitation_energy_4>
5.876

>  <homo_energy>
-8.068

>  <homo_lumo_gap>
6.104

>  <logP>
0.349

>  <lumo_energy>
-1.965

>  <melting_point>
17.96

>  <molecular_refractivity>
30.73

>  <oscillator_strength_1>
0.0001

>  <oscillator_strength_2>
0.0001

>  <oscillator_strength_3>
0.0117

>  <oscillator_strength_4>
0.001

>  <open_babel_can_smiles>
CCOC(=O)CN(=O)=O

>  <mulliken_charges>
16
1   -0.46447
2   -0.053664
3   -0.251688
4   0.636822
5   0.471401
6   -0.445241
7   -0.366305
8   -0.365499
9   -0.456752
10   0.159237
11   0.184391
12   0.163434
13   0.179689
14   0.163591
15   0.22477
16   0.220283

>  <lowdin_charges>
16
1   -0.454114
2   -0.12467
3   -0.242997
4   0.194026
5   0.302793
6   -0.23678
7   -0.232383
8   -0.228188
9   -0.186069
10   0.164677
11   0.170216
12   0.158892
13   0.162795
14   0.158946
15   0.196472
16   0.196383

$$$$

