PCCDB-ID:  66549
public computational chemistry database (PCCDB) project, http://pccdb.org

 29 30  0  0  0  0  0  0  0  0999 V2000
    2.0995   -1.2828   -2.1277 C   0  0  0  0  0  0  0  0  0  0  0  0
    0.5500    0.0214   -5.7783 C   0  0  0  0  0  0  0  0  0  0  0  0
    3.0684    5.1450   -1.0467 C   0  0  0  0  0  0  0  0  0  0  0  0
    4.0190    4.1071   -0.8829 C   0  0  0  0  0  0  0  0  0  0  0  0
    2.0049    4.9733   -1.9019 C   0  0  0  0  0  0  0  0  0  0  0  0
    3.8821    2.9180   -1.5629 C   0  0  0  0  0  0  0  0  0  0  0  0
    0.7598    3.5660   -3.5258 C   0  0  0  0  0  0  0  0  0  0  0  0
    0.6258    2.3833   -4.2185 C   0  0  0  0  0  0  0  0  0  0  0  0
    3.3933   -0.6890   -2.6329 C   0  0  0  0  0  0  0  0  0  0  0  0
    1.8356    3.7617   -2.6260 C   0  0  0  0  0  0  0  0  0  0  0  0
    2.7878    2.7066   -2.4458 C   0  0  0  0  0  0  0  0  0  0  0  0
    1.5528    1.3294   -4.0350 C   0  0  0  0  0  0  0  0  0  0  0  0
    2.6232    1.4691   -3.1462 C   0  0  0  0  0  0  0  0  0  0  0  0
    3.6209    0.4965   -3.0242 N   0  0  0  0  0  0  0  0  0  0  0  0
    4.4573   -1.5422   -2.6566 O   0  0  0  0  0  0  0  0  0  0  0  0
    1.4648    0.1308   -4.7012 O   0  0  0  0  0  0  0  0  0  0  0  0
    1.3808   -0.4961   -1.8927 H   0  0  0  0  0  0  0  0  0  0  0  0
    2.2757   -1.8795   -1.2237 H   0  0  0  0  0  0  0  0  0  0  0  0
    1.6563   -1.9296   -2.8930 H   0  0  0  0  0  0  0  0  0  0  0  0
    0.7337   -0.9567   -6.2281 H   0  0  0  0  0  0  0  0  0  0  0  0
    0.7164    0.8025   -6.5314 H   0  0  0  0  0  0  0  0  0  0  0  0
   -0.4936    0.0678   -5.4379 H   0  0  0  0  0  0  0  0  0  0  0  0
    3.1864    6.0770   -0.5002 H   0  0  0  0  0  0  0  0  0  0  0  0
    4.8647    4.2543   -0.2161 H   0  0  0  0  0  0  0  0  0  0  0  0
    1.2740    5.7670   -2.0406 H   0  0  0  0  0  0  0  0  0  0  0  0
    4.6126    2.1243   -1.4495 H   0  0  0  0  0  0  0  0  0  0  0  0
    0.0364    4.3644   -3.6702 H   0  0  0  0  0  0  0  0  0  0  0  0
   -0.2044    2.2582   -4.9046 H   0  0  0  0  0  0  0  0  0  0  0  0
    4.1823   -2.4019   -2.3033 H   0  0  0  0  0  0  0  0  0  0  0  0
  1 17  1  0  0  0  0
  1 18  1  0  0  0  0
  2 22  1  0  0  0  0
  2 16  1  0  0  0  0
  3  4  1  0  0  0  0
  3 23  1  0  0  0  0
  4 24  1  0  0  0  0
  5  3  2  0  0  0  0
  6 26  1  0  0  0  0
  6  4  2  0  0  0  0
  7 10  2  0  0  0  0
  8 12  2  0  0  0  0
  8  7  1  0  0  0  0
  9  1  1  0  0  0  0
 10 11  1  0  0  0  0
 10  5  1  0  0  0  0
 11  6  1  0  0  0  0
 12 13  1  0  0  0  0
 13 14  1  0  0  0  0
 13 11  2  0  0  0  0
 14  9  2  0  0  0  0
 15  9  1  0  0  0  0
 15 29  1  0  0  0  0
 16 12  1  0  0  0  0
 19  1  1  0  0  0  0
 20  2  1  0  0  0  0
 21  2  1  0  0  0  0
 25  5  1  0  0  0  0
 27  7  1  0  0  0  0
 28  8  1  0  0  0  0
M  END
>  <HBA>
3

>  <HBD>
1

>  <TPSA>
38.33

>  <cid>
66549

>  <dipole>
4.19

>  <excitation_energy_1>
3.713

>  <excitation_energy_2>
4.234

>  <excitation_energy_3>
4.321

>  <excitation_energy_4>
4.497

>  <homo_energy>
-4.963

>  <homo_lumo_gap>
4.201

>  <logP>
2.88

>  <lumo_energy>
-0.762

>  <melting_point>
110.04

>  <molecular_refractivity>
64.75

>  <oscillator_strength_1>
0.1291

>  <oscillator_strength_2>
0.0102

>  <oscillator_strength_3>
0.0016

>  <oscillator_strength_4>
0.0332

>  <open_babel_can_smiles>
COc1ccc2c(c1/N=C(/O)\C)cccc2

>  <mulliken_charges>
29
1   -0.537577
2   -0.212851
3   -0.135473
4   -0.137499
5   -0.198584
6   -0.186347
7   -0.208576
8   -0.197466
9   0.49544
10   0.138174
11   0.08718
12   0.357501
13   0.115385
14   -0.466267
15   -0.572909
16   -0.525547
17   0.191469
18   0.153357
19   0.187356
20   0.166104
21   0.156297
22   0.147342
23   0.123427
24   0.124646
25   0.123284
26   0.150206
27   0.125185
28   0.129985
29   0.40676

>  <lowdin_charges>
29
1   -0.479349
2   -0.276119
3   -0.165589
4   -0.160015
5   -0.159259
6   -0.157418
7   -0.165426
8   -0.201234
9   0.152627
10   -0.00795
11   -0.009743
12   0.067604
13   0.014054
14   -0.167944
15   -0.357731
16   -0.207054
17   0.18223
18   0.158882
19   0.178003
20   0.160237
21   0.148643
22   0.139663
23   0.155525
24   0.1563
25   0.155201
26   0.170326
27   0.157243
28   0.162437
29   0.355856

$$$$

