PCCDB-ID:  33815
public computational chemistry database (PCCDB) project, http://pccdb.org

 34 34  0  0  1  0  0  0  0  0999 V2000
    2.8751    0.1528    2.3732 C   0  0  0  0  0  0  0  0  0  0  0  0
   10.3628   -4.3041    2.1950 C   0  0  0  0  0  0  0  0  0  0  0  0
    2.0213   -2.4555   -0.4231 C   0  0  0  0  0  0  0  0  0  0  0  0
    4.6037   -6.3134    2.6230 C   0  0  0  0  0  0  0  0  0  0  0  0
    2.2876   -0.4329    1.0878 C   0  0  0  0  0  0  0  0  0  0  0  0
    9.3023   -4.8629    1.2403 C   0  0  0  0  0  0  0  0  0  0  0  0
    2.7230   -1.8849    0.8210 C   0  0  2  0  0  0  0  0  0  0  0  0
    5.2595   -5.1294    1.9668 C   0  0  1  0  0  0  0  0  0  0  0  0
    7.1055   -3.9883    1.1569 C   0  0  0  0  0  0  0  0  0  0  0  0
    4.8662   -2.9211    0.9959 C   0  0  0  0  0  0  0  0  0  0  0  0
    8.3424   -3.8283    0.8891 N   0  0  0  0  0  0  0  0  0  0  0  0
    4.1687   -1.9136    0.6394 N   0  0  0  0  0  0  0  0  0  0  0  0
    6.5329   -5.1128    1.7719 N   0  0  0  0  0  0  0  0  0  0  0  0
    4.4095   -4.1042    1.6022 N   0  0  0  0  0  0  0  0  0  0  0  0
    6.2307   -2.9452    0.8060 N   0  0  0  0  0  0  0  0  0  0  0  0
    2.5547    1.1907    2.5178 H   0  0  0  0  0  0  0  0  0  0  0  0
    3.9689    0.1341    2.3390 H   0  0  0  0  0  0  0  0  0  0  0  0
    2.5547   -0.4186    3.2544 H   0  0  0  0  0  0  0  0  0  0  0  0
   11.1364   -5.0549    2.3955 H   0  0  0  0  0  0  0  0  0  0  0  0
    9.9114   -4.0143    3.1507 H   0  0  0  0  0  0  0  0  0  0  0  0
   10.8404   -3.4170    1.7654 H   0  0  0  0  0  0  0  0  0  0  0  0
    0.9310   -2.4092   -0.3175 H   0  0  0  0  0  0  0  0  0  0  0  0
    2.3056   -3.4999   -0.5982 H   0  0  0  0  0  0  0  0  0  0  0  0
    2.3092   -1.8807   -1.3098 H   0  0  0  0  0  0  0  0  0  0  0  0
    5.3665   -7.0533    2.8656 H   0  0  0  0  0  0  0  0  0  0  0  0
    3.8615   -6.7686    1.9557 H   0  0  0  0  0  0  0  0  0  0  0  0
    4.0874   -6.0140    3.5435 H   0  0  0  0  0  0  0  0  0  0  0  0
    2.5982    0.1745    0.2277 H   0  0  0  0  0  0  0  0  0  0  0  0
    1.1902   -0.3978    1.1263 H   0  0  0  0  0  0  0  0  0  0  0  0
    8.8275   -5.7496    1.6791 H   0  0  0  0  0  0  0  0  0  0  0  0
    9.7980   -5.1802    0.3116 H   0  0  0  0  0  0  0  0  0  0  0  0
    2.4007   -2.4744    1.7038 H   0  0  0  0  0  0  0  0  0  0  0  0
    3.4212   -4.1857    1.7877 H   0  0  0  0  0  0  0  0  0  0  0  0
    6.6411   -2.1304    0.3691 H   0  0  0  0  0  0  0  0  0  0  0  0
  1 16  1  0  0  0  0
  1 18  1  0  0  0  0
  2 19  1  0  0  0  0
  2 20  1  0  0  0  0
  3 22  1  0  0  0  0
  3  7  1  0  0  0  0
  4 25  1  0  0  0  0
  4 27  1  0  0  0  0
  5 29  1  0  0  0  0
  5  1  1  0  0  0  0
  6 30  1  0  0  0  0
  6  2  1  0  0  0  0
  7  5  1  0  0  0  0
  7 32  1  1  0  0  0
  8  4  1  6  0  0  0
  9 13  2  0  0  0  0
 10 14  1  0  0  0  0
 11  9  1  0  0  0  0
 11  6  1  0  0  0  0
 12  7  1  0  0  0  0
 12 10  2  0  0  0  0
 13  8  1  0  0  0  0
 14 33  1  0  0  0  0
 14  8  1  0  0  0  0
 15 10  1  0  0  0  0
 15  9  1  0  0  0  0
 17  1  1  0  0  0  0
 21  2  1  0  0  0  0
 23  3  1  0  0  0  0
 24  3  1  0  0  0  0
 26  4  1  0  0  0  0
 28  5  1  0  0  0  0
 31  6  1  0  0  0  0
 34 15  1  0  0  0  0
M  RAD  2   8   2  11   2
M  END
>  <HBA>
5

>  <HBD>
2

>  <TPSA>
62.73

>  <cid>
33815

>  <dipole>
4.6

>  <excitation_energy_1>
4.418

>  <excitation_energy_2>
4.65

>  <excitation_energy_3>
4.899

>  <excitation_energy_4>
4.992

>  <homo_energy>
-5.845

>  <homo_lumo_gap>
5.116

>  <logP>
1.968

>  <lumo_energy>
-0.729

>  <melting_point>
122.13

>  <molecular_refractivity>
62.63

>  <oscillator_strength_1>
0.0315

>  <oscillator_strength_2>
0.0029

>  <oscillator_strength_3>
0.0871

>  <oscillator_strength_4>
0.0524

>  <open_babel_can_smiles>
CC[N]C1=N[C](C)N/C(=N\[C@@H](CC)C)/N1

>  <mulliken_charges>
34
1   -0.447499
2   -0.432758
3   -0.437076
4   -0.538061
5   -0.236234
6   -0.138242
7   0.014397
8   0.522432
9   0.657289
10   0.749866
11   -0.496227
12   -0.493772
13   -0.505927
14   -0.69744
15   -0.692359
16   0.140979
17   0.163472
18   0.129371
19   0.132
20   0.141747
21   0.150442
22   0.139585
23   0.131733
24   0.161451
25   0.203275
26   0.175203
27   0.175115
28   0.142223
29   0.122351
30   0.147476
31   0.133982
32   0.083462
33   0.348868
34   0.348876

>  <lowdin_charges>
34
1   -0.444583
2   -0.447104
3   -0.446948
4   -0.453405
5   -0.271662
6   -0.198561
7   -0.057568
8   0.122435
9   0.112631
10   0.138279
11   -0.233747
12   -0.262167
13   -0.21428
14   -0.25062
15   -0.236951
16   0.148573
17   0.155166
18   0.140923
19   0.146224
20   0.146893
21   0.152231
22   0.14688
23   0.142287
24   0.159292
25   0.188175
26   0.171364
27   0.170442
28   0.148787
29   0.135849
30   0.140462
31   0.141074
32   0.106072
33   0.295858
34   0.307697

$$$$

