PCCDB-ID:  36463
public computational chemistry database (PCCDB) project, http://pccdb.org

 21 22  0  0  0  0  0  0  0  0999 V2000
   -1.4404   -0.0735    0.6634 C   0  0  0  0  0  0  0  0  0  0  0  0
    3.2779    3.6608   -0.8179 C   0  0  0  0  0  0  0  0  0  0  0  0
   -0.6741   -1.2092    0.4254 C   0  0  0  0  0  0  0  0  0  0  0  0
    2.6769    4.8955   -0.5514 C   0  0  0  0  0  0  0  0  0  0  0  0
   -0.8716    1.1909    0.5094 C   0  0  0  0  0  0  0  0  0  0  0  0
    2.5364    2.5132   -0.5914 C   0  0  0  0  0  0  0  0  0  0  0  0
    0.6535   -1.0217    0.0310 C   0  0  0  0  0  0  0  0  0  0  0  0
    1.3857    4.9295   -0.0775 C   0  0  0  0  0  0  0  0  0  0  0  0
    0.4739    1.2814    0.1100 C   0  0  0  0  0  0  0  0  0  0  0  0
    1.2196    2.5495   -0.1100 C   0  0  0  0  0  0  0  0  0  0  0  0
    1.2140    0.1740   -0.1239 N   0  0  0  0  0  0  0  0  0  0  0  0
    0.6502    3.7879    0.1483 N   0  3  0  0  0  0  0  0  0  0  0  0
   -0.5416    3.9341    0.5979 O   0  5  0  0  0  0  0  0  0  0  0  0
   -2.4794   -0.1596    0.9703 H   0  0  0  0  0  0  0  0  0  0  0  0
    4.2943    3.5991   -1.1919 H   0  0  0  0  0  0  0  0  0  0  0  0
   -1.0815   -2.2094    0.5378 H   0  0  0  0  0  0  0  0  0  0  0  0
    3.2002    5.8335   -0.7074 H   0  0  0  0  0  0  0  0  0  0  0  0
   -1.4354    2.0928    0.6878 H   0  0  0  0  0  0  0  0  0  0  0  0
    2.9445    1.5276   -0.7753 H   0  0  0  0  0  0  0  0  0  0  0  0
    1.2960   -1.8780   -0.1705 H   0  0  0  0  0  0  0  0  0  0  0  0
    0.8345    5.8291    0.1601 H   0  0  0  0  0  0  0  0  0  0  0  0
  1 14  1  0  0  0  0
  2  6  2  0  0  0  0
  2  4  1  0  0  0  0
  3 16  1  0  0  0  0
  3  1  2  0  0  0  0
  4  8  2  0  0  0  0
  5  1  1  0  0  0  0
  5 18  1  0  0  0  0
  6 10  1  0  0  0  0
  7  3  1  0  0  0  0
  8 12  1  0  0  0  0
  8 21  1  0  0  0  0
  9  5  2  0  0  0  0
 10  9  1  0  0  0  0
 10 12  2  0  0  0  0
 11  7  2  0  0  0  0
 11  9  1  0  0  0  0
 12 13  1  0  0  0  0
 15  2  1  0  0  0  0
 17  4  1  0  0  0  0
 19  6  1  0  0  0  0
 20  7  1  0  0  0  0
M  CHG  2  12   1  13  -1
M  END
>  <HBA>
2

>  <HBD>
0

>  <TPSA>
38.35

>  <cid>
36463

>  <dipole>
1.76

>  <excitation_energy_1>
3.701

>  <excitation_energy_2>
3.835

>  <excitation_energy_3>
4.301

>  <excitation_energy_4>
4.358

>  <homo_energy>
-5.791

>  <homo_lumo_gap>
4.196

>  <logP>
2.177

>  <lumo_energy>
-1.595

>  <melting_point>
71.6

>  <molecular_refractivity>
50.84

>  <oscillator_strength_1>
0.0885

>  <oscillator_strength_2>
0.0001

>  <oscillator_strength_3>
0.0041

>  <oscillator_strength_4>
0.1631

>  <open_babel_can_smiles>
[O-][n+]1ccccc1c1ccccn1

>  <mulliken_charges>
21
1   -0.104902
2   -0.102818
3   -0.142232
4   -0.166223
5   -0.161402
6   -0.186808
7   0.045255
8   0.066333
9   0.282615
10   0.295764
11   -0.498598
12   -0.10202
13   -0.52476
14   0.146395
15   0.146911
16   0.140025
17   0.154308
18   0.205168
19   0.1861
20   0.140298
21   0.180591

>  <lowdin_charges>
21
1   -0.124647
2   -0.161927
3   -0.172991
4   -0.150636
5   -0.171723
6   -0.139403
7   -0.088014
8   -0.119511
9   0.04806
10   0.01271
11   -0.156569
12   0.213528
13   -0.389896
14   0.163854
15   0.166821
16   0.164493
17   0.173562
18   0.199086
19   0.190868
20   0.157116
21   0.185217

$$$$

