PCCDB-ID:  57402
public computational chemistry database (PCCDB) project, http://pccdb.org

 20 21  0  0  1  0  0  0  0  0999 V2000
   -0.9675    0.1343    1.8580 C   0  0  0  0  0  0  0  0  0  0  0  0
    5.2479   -0.8361    6.2542 C   0  0  0  0  0  0  0  0  0  0  0  0
    1.4455    1.0151    2.2199 C   0  0  0  0  0  0  0  0  0  0  0  0
    4.7850   -0.1541    3.7892 C   0  0  0  0  0  0  0  0  0  0  0  0
    0.1522    0.4642    2.7676 C   0  0  1  0  0  0  0  0  0  0  0  0
    5.6049   -0.8995    4.8154 C   0  0  1  0  0  0  0  0  0  0  0  0
   -1.2802    1.6288    2.8862 S   0  0  0  0  0  0  0  0  0  0  0  0
    6.7813    0.0883    5.8396 S   0  0  0  0  0  0  0  0  0  0  0  0
    2.5952   -0.3102    1.6137 S   0  0  0  0  0  0  0  0  0  0  0  0
    3.3020   -1.1976    3.3596 S   0  0  0  0  0  0  0  0  0  0  0  0
   -1.5886   -0.7274    2.0891 H   0  0  0  0  0  0  0  0  0  0  0  0
   -0.8373    0.3242    0.7946 H   0  0  0  0  0  0  0  0  0  0  0  0
    5.3899   -1.7250    6.8635 H   0  0  0  0  0  0  0  0  0  0  0  0
    4.4010   -0.2181    6.5444 H   0  0  0  0  0  0  0  0  0  0  0  0
    1.9682    1.6242    2.9616 H   0  0  0  0  0  0  0  0  0  0  0  0
    1.2596    1.6420    1.3407 H   0  0  0  0  0  0  0  0  0  0  0  0
    5.3559    0.0121    2.8727 H   0  0  0  0  0  0  0  0  0  0  0  0
    4.4566    0.8104    4.1850 H   0  0  0  0  0  0  0  0  0  0  0  0
    0.2679   -0.1654    3.6475 H   0  0  0  0  0  0  0  0  0  0  0  0
    6.0267   -1.8387    4.4624 H   0  0  0  0  0  0  0  0  0  0  0  0
  1 11  1  0  0  0  0
  1  5  1  0  0  0  0
  1  7  1  0  0  0  0
  2 14  1  0  0  0  0
  2 13  1  0  0  0  0
  3  5  1  0  0  0  0
  3 15  1  0  0  0  0
  4 18  1  0  0  0  0
  4  6  1  0  0  0  0
  5  7  1  0  0  0  0
  5 19  1  1  0  0  0
  6 20  1  6  0  0  0
  6  8  1  0  0  0  0
  6  2  1  0  0  0  0
  8  2  1  0  0  0  0
  9  3  1  0  0  0  0
  9 10  1  0  0  0  0
 10  4  1  0  0  0  0
 12  1  1  0  0  0  0
 16  3  1  0  0  0  0
 17  4  1  0  0  0  0
M  END
>  <HBA>
4

>  <HBD>
0

>  <TPSA>
101.2

>  <cid>
57402

>  <dipole>
0.88

>  <excitation_energy_1>
4.277

>  <excitation_energy_2>
4.322

>  <excitation_energy_3>
4.584

>  <excitation_energy_4>
4.612

>  <homo_energy>
-6.289

>  <homo_lumo_gap>
5.108

>  <logP>
2.599

>  <lumo_energy>
-1.181

>  <melting_point>
54.47

>  <molecular_refractivity>
57.09

>  <oscillator_strength_1>
0.0062

>  <oscillator_strength_2>
0.0057

>  <oscillator_strength_3>
0.0042

>  <oscillator_strength_4>
0.0008

>  <open_babel_can_smiles>
S(C[C@H]1SC1)SC[C@H]1SC1

>  <mulliken_charges>
20
1   -0.372979
2   -0.375674
3   -0.425533
4   -0.40707
5   -0.181254
6   -0.20966
7   -0.022189
8   -0.004999
9   0.022456
10   0.009727
11   0.195196
12   0.190052
13   0.197078
14   0.194878
15   0.195404
16   0.197489
17   0.203947
18   0.189677
19   0.203022
20   0.20043

>  <lowdin_charges>
20
1   -0.343947
2   -0.349293
3   -0.377985
4   -0.372043
5   -0.201076
6   -0.201921
7   0.002185
8   0.016723
9   0.040311
10   0.017978
11   0.178394
12   0.172381
13   0.179121
14   0.176818
15   0.174057
16   0.182455
17   0.177982
18   0.16932
19   0.17958
20   0.17896

$$$$

