PCCDB-ID:  13201
public computational chemistry database (PCCDB) project, http://pccdb.org

 20 20  0  0  0  0  0  0  0  0999 V2000
    1.0135    0.0120    0.4039 C   0  0  0  0  0  0  0  0  0  0  0  0
    2.8384   -1.5563   -0.4194 C   0  0  0  0  0  0  0  0  0  0  0  0
    4.5947    1.4156   -2.3559 C   0  0  0  0  0  0  0  0  0  0  0  0
    3.3749    0.9224   -3.1416 C   0  0  0  0  0  0  0  0  0  0  0  0
    2.5104   -0.1534    0.1050 C   0  0  0  0  0  0  0  0  0  0  0  0
    2.9769    0.9389   -0.8582 C   0  0  0  0  0  0  0  0  0  0  0  0
    4.3733    0.8575   -1.0666 O   0  0  0  0  0  0  0  0  0  0  0  0
    2.3598    0.8149   -2.1438 O   0  0  0  0  0  0  0  0  0  0  0  0
    0.6824   -0.7305    1.1382 H   0  0  0  0  0  0  0  0  0  0  0  0
    0.4206   -0.1216   -0.5076 H   0  0  0  0  0  0  0  0  0  0  0  0
    0.7903    1.0067    0.8089 H   0  0  0  0  0  0  0  0  0  0  0  0
    2.5412   -2.3177    0.3106 H   0  0  0  0  0  0  0  0  0  0  0  0
    3.9101   -1.6635   -0.6104 H   0  0  0  0  0  0  0  0  0  0  0  0
    2.3003   -1.7541   -1.3530 H   0  0  0  0  0  0  0  0  0  0  0  0
    4.6206    2.5154   -2.3061 H   0  0  0  0  0  0  0  0  0  0  0  0
    5.5522    1.0488   -2.7335 H   0  0  0  0  0  0  0  0  0  0  0  0
    3.5578   -0.0604   -3.5966 H   0  0  0  0  0  0  0  0  0  0  0  0
    3.0508    1.6209   -3.9210 H   0  0  0  0  0  0  0  0  0  0  0  0
    3.0732    0.0170    1.0343 H   0  0  0  0  0  0  0  0  0  0  0  0
    2.7204    1.9364   -0.4563 H   0  0  0  0  0  0  0  0  0  0  0  0
  1 11  1  0  0  0  0
  1  9  1  0  0  0  0
  2  5  1  0  0  0  0
  2 12  1  0  0  0  0
  3 15  1  0  0  0  0
  3  7  1  0  0  0  0
  4  3  1  0  0  0  0
  4  8  1  0  0  0  0
  5  1  1  0  0  0  0
  5 19  1  0  0  0  0
  6 20  1  0  0  0  0
  6  5  1  0  0  0  0
  7  6  1  0  0  0  0
  8  6  1  0  0  0  0
 10  1  1  0  0  0  0
 13  2  1  0  0  0  0
 14  2  1  0  0  0  0
 16  3  1  0  0  0  0
 17  4  1  0  0  0  0
 18  4  1  0  0  0  0
M  END
>  <HBA>
2

>  <HBD>
0

>  <TPSA>
18.46

>  <cid>
13201

>  <dipole>
1.17

>  <excitation_energy_1>
6.4

>  <excitation_energy_2>
6.739

>  <excitation_energy_3>
6.875

>  <excitation_energy_4>
6.968

>  <homo_energy>
-6.776

>  <homo_lumo_gap>
9.168

>  <logP>
1.015

>  <lumo_energy>
2.392

>  <melting_point>
-21.88

>  <molecular_refractivity>
31.01

>  <oscillator_strength_1>
0.0234

>  <oscillator_strength_2>
0.0092

>  <oscillator_strength_3>
0.0064

>  <oscillator_strength_4>
0.0043

>  <open_babel_can_smiles>
CC(C1OCCO1)C

>  <mulliken_charges>
20
1   -0.453681
2   -0.455714
3   -0.064952
4   -0.028985
5   -0.097064
6   0.389761
7   -0.492925
8   -0.50926
9   0.143197
10   0.163105
11   0.138848
12   0.137925
13   0.155646
14   0.152937
15   0.137272
16   0.156694
17   0.141386
18   0.142447
19   0.135015
20   0.108348

>  <lowdin_charges>
20
1   -0.446112
2   -0.448019
3   -0.142686
4   -0.143217
5   -0.134634
6   0.107085
7   -0.26213
8   -0.284285
9   0.151657
10   0.157638
11   0.146871
12   0.149363
13   0.153915
14   0.15276
15   0.13239
16   0.156995
17   0.139018
18   0.147386
19   0.147644
20   0.118358

$$$$

