PCCDB-ID:  68157
public computational chemistry database (PCCDB) project, http://pccdb.org

 10 10  0  0  0  0  0  0  0  0999 V2000
   -0.3558    1.2115    0.1280 C   0  0  0  0  0  0  0  0  0  0  0  0
   -1.2600   -0.0135   -0.1735 C   0  0  0  0  0  0  0  0  0  0  0  0
    0.9008   -0.5744   -0.0394 C   0  0  0  0  0  0  0  0  0  0  0  0
    1.0168    0.6697    0.1817 N   0  0  0  0  0  0  0  0  0  0  0  0
   -0.3234   -1.1221   -0.2604 O   0  0  0  0  0  0  0  0  0  0  0  0
   -0.5993    1.6899    1.0832 H   0  0  0  0  0  0  0  0  0  0  0  0
   -0.4165    1.9813   -0.6493 H   0  0  0  0  0  0  0  0  0  0  0  0
   -1.7917    0.0533   -1.1270 H   0  0  0  0  0  0  0  0  0  0  0  0
   -1.9768   -0.2401    0.6209 H   0  0  0  0  0  0  0  0  0  0  0  0
    1.7194   -1.2867   -0.0727 H   0  0  0  0  0  0  0  0  0  0  0  0
  1  4  1  0  0  0  0
  1  6  1  0  0  0  0
  2  1  1  0  0  0  0
  2  9  1  0  0  0  0
  3  4  2  0  0  0  0
  5  2  1  0  0  0  0
  5  3  1  0  0  0  0
  7  1  1  0  0  0  0
  8  2  1  0  0  0  0
 10  3  1  0  0  0  0
M  END
>  <HBA>
2

>  <HBD>
0

>  <TPSA>
21.59

>  <cid>
68157

>  <dipole>
1.72

>  <excitation_energy_1>
6.304

>  <excitation_energy_2>
6.497

>  <excitation_energy_3>
6.624

>  <excitation_energy_4>
6.833

>  <homo_energy>
-6.765

>  <homo_lumo_gap>
7.423

>  <logP>
-0.519

>  <lumo_energy>
0.659

>  <melting_point>
6.92

>  <molecular_refractivity>
22.52

>  <oscillator_strength_1>
0.0017

>  <oscillator_strength_2>
0.0082

>  <oscillator_strength_3>
0.0788

>  <oscillator_strength_4>
0.0013

>  <open_babel_can_smiles>
C1COC=N1

>  <mulliken_charges>
10
1   -0.185582
2   -0.064072
3   0.277132
4   -0.396275
5   -0.444139
6   0.16205
7   0.161998
8   0.160572
9   0.160542
10   0.167773

>  <lowdin_charges>
10
1   -0.220499
2   -0.143576
3   -0.003422
4   -0.212526
5   -0.211514
6   0.155486
7   0.156055
8   0.153485
9   0.154316
10   0.172195

$$$$

