PCCDB-ID:  10883
public computational chemistry database (PCCDB) project, http://pccdb.org

 22 21  0  0  0  0  0  0  0  0999 V2000
    4.9347    1.9201    3.2610 C   0  0  0  0  0  0  0  0  0  0  0  0
    2.8311   -0.6266   -3.1572 C   0  0  0  0  0  0  0  0  0  0  0  0
    5.3332    2.4653    1.8979 C   0  0  0  0  0  0  0  0  0  0  0  0
    4.6687   -1.0920   -1.3941 C   0  0  0  0  0  0  0  0  0  0  0  0
    5.6583   -0.3655   -0.4896 C   0  0  0  0  0  0  0  0  0  0  0  0
    4.1303   -0.1937   -2.5076 C   0  0  0  0  0  0  0  0  0  0  0  0
    4.9649    0.6885    0.3547 C   0  0  0  0  0  0  0  0  0  0  0  0
    4.7230    0.8104   -2.8542 O   0  0  0  0  0  0  0  0  0  0  0  0
    3.7625    0.8475    0.4145 O   0  0  0  0  0  0  0  0  0  0  0  0
    5.8627    1.4221    1.0433 O   0  0  0  0  0  0  0  0  0  0  0  0
    4.6129    2.7422    3.9107 H   0  0  0  0  0  0  0  0  0  0  0  0
    5.7792    1.4142    3.7405 H   0  0  0  0  0  0  0  0  0  0  0  0
    4.1051    1.2138    3.1662 H   0  0  0  0  0  0  0  0  0  0  0  0
    2.0089   -0.4500   -2.4514 H   0  0  0  0  0  0  0  0  0  0  0  0
    2.8345   -1.6990   -3.3867 H   0  0  0  0  0  0  0  0  0  0  0  0
    2.6534   -0.0474   -4.0656 H   0  0  0  0  0  0  0  0  0  0  0  0
    6.1506    3.1860    1.9783 H   0  0  0  0  0  0  0  0  0  0  0  0
    4.4847    2.9345    1.3941 H   0  0  0  0  0  0  0  0  0  0  0  0
    3.8319   -1.4960   -0.8143 H   0  0  0  0  0  0  0  0  0  0  0  0
    5.1589   -1.9501   -1.8771 H   0  0  0  0  0  0  0  0  0  0  0  0
    6.4352    0.1260   -1.0826 H   0  0  0  0  0  0  0  0  0  0  0  0
    6.1656   -1.0651    0.1861 H   0  0  0  0  0  0  0  0  0  0  0  0
  1 12  1  0  0  0  0
  1 11  1  0  0  0  0
  2  6  1  0  0  0  0
  2 14  1  0  0  0  0
  3 17  1  0  0  0  0
  3  1  1  0  0  0  0
  4 19  1  0  0  0  0
  4  5  1  0  0  0  0
  5 22  1  0  0  0  0
  5  7  1  0  0  0  0
  6  4  1  0  0  0  0
  7  9  2  0  0  0  0
  7 10  1  0  0  0  0
  8  6  2  0  0  0  0
 10  3  1  0  0  0  0
 13  1  1  0  0  0  0
 15  2  1  0  0  0  0
 16  2  1  0  0  0  0
 18  3  1  0  0  0  0
 20  4  1  0  0  0  0
 21  5  1  0  0  0  0
M  END
>  <HBA>
3

>  <HBD>
0

>  <TPSA>
43.37

>  <cid>
10883

>  <dipole>
2.28

>  <excitation_energy_1>
4.505

>  <excitation_energy_2>
5.893

>  <excitation_energy_3>
6.073

>  <excitation_energy_4>
6.189

>  <homo_energy>
-6.648

>  <homo_lumo_gap>
6.43

>  <logP>
0.919

>  <lumo_energy>
-0.218

>  <melting_point>
6.61

>  <molecular_refractivity>
37.25

>  <oscillator_strength_1>
0.0

>  <oscillator_strength_2>
0.0005

>  <oscillator_strength_3>
0.0103

>  <oscillator_strength_4>
0.0141

>  <open_babel_can_smiles>
CCOC(=O)CCC(=O)C

>  <mulliken_charges>
22
1   -0.462744
2   -0.534471
3   -0.043617
4   -0.354819
5   -0.359541
6   0.475517
7   0.642121
8   -0.445723
9   -0.490346
10   -0.462107
11   0.150796
12   0.156063
13   0.174945
14   0.187689
15   0.159787
16   0.178208
17   0.154174
18   0.172665
19   0.170456
20   0.163585
21   0.197034
22   0.170329

>  <lowdin_charges>
22
1   -0.457812
2   -0.473725
3   -0.128643
4   -0.311507
5   -0.30286
6   0.174005
7   0.201162
8   -0.240607
9   -0.275854
10   -0.189495
11   0.159861
12   0.156352
13   0.165071
14   0.181271
15   0.162693
16   0.17258
17   0.153991
18   0.16093
19   0.167928
20   0.168498
21   0.184063
22   0.172097

$$$$

