PCCDB-ID:  21363
public computational chemistry database (PCCDB) project, http://pccdb.org

 24 24  0  0  0  0  0  0  0  0999 V2000
    0.7631    1.3553   -0.7836 C   0  0  0  0  0  0  0  0  0  0  0  0
    1.5813    0.1995   -0.1877 C   0  0  0  0  0  0  0  0  0  0  0  0
   -0.6273    1.4463   -0.1362 C   0  0  0  0  0  0  0  0  0  0  0  0
    0.8207   -1.1333   -0.2927 C   0  0  0  0  0  0  0  0  0  0  0  0
   -1.3845    0.1106   -0.2313 C   0  0  0  0  0  0  0  0  0  0  0  0
   -0.5205   -1.0640    1.8802 C   0  0  0  0  0  0  0  0  0  0  0  0
   -0.5860   -1.0826    0.3419 C   0  0  0  0  0  0  0  0  0  0  0  0
   -1.8479   -1.4085    2.5496 C   0  0  0  0  0  0  0  0  0  0  0  0
   -2.8273   -1.8228    1.9825 O   0  0  0  0  0  0  0  0  0  0  0  0
   -1.8719   -1.2439    3.9034 O   0  0  0  0  0  0  0  0  0  0  0  0
    0.6461    1.1902   -1.8651 H   0  0  0  0  0  0  0  0  0  0  0  0
    1.3020    2.3046   -0.6696 H   0  0  0  0  0  0  0  0  0  0  0  0
    1.8088    0.4198    0.8660 H   0  0  0  0  0  0  0  0  0  0  0  0
    2.5496    0.1152   -0.6971 H   0  0  0  0  0  0  0  0  0  0  0  0
   -1.2185    2.2390   -0.6117 H   0  0  0  0  0  0  0  0  0  0  0  0
   -0.5153    1.7444    0.9170 H   0  0  0  0  0  0  0  0  0  0  0  0
    1.4095   -1.9455    0.1553 H   0  0  0  0  0  0  0  0  0  0  0  0
    0.7058   -1.3860   -1.3564 H   0  0  0  0  0  0  0  0  0  0  0  0
   -1.5920   -0.0986   -1.2903 H   0  0  0  0  0  0  0  0  0  0  0  0
   -2.3594    0.1778    0.2638 H   0  0  0  0  0  0  0  0  0  0  0  0
   -0.1766   -0.0925    2.2605 H   0  0  0  0  0  0  0  0  0  0  0  0
    0.2170   -1.8017    2.2325 H   0  0  0  0  0  0  0  0  0  0  0  0
   -1.1205   -2.0012    0.0730 H   0  0  0  0  0  0  0  0  0  0  0  0
   -1.0134   -0.9082    4.2107 H   0  0  0  0  0  0  0  0  0  0  0  0
  1 12  1  0  0  0  0
  1  2  1  0  0  0  0
  1  3  1  0  0  0  0
  2 13  1  0  0  0  0
  3 16  1  0  0  0  0
  4  2  1  0  0  0  0
  4 17  1  0  0  0  0
  4  7  1  0  0  0  0
  5  3  1  0  0  0  0
  5 20  1  0  0  0  0
  5  7  1  0  0  0  0
  6 22  1  0  0  0  0
  6 21  1  0  0  0  0
  6  8  1  0  0  0  0
  7  6  1  0  0  0  0
  8 10  1  0  0  0  0
  9  8  2  0  0  0  0
 10 24  1  0  0  0  0
 11  1  1  0  0  0  0
 14  2  1  0  0  0  0
 15  3  1  0  0  0  0
 18  4  1  0  0  0  0
 19  5  1  0  0  0  0
 23  7  1  0  0  0  0
M  END
>  <HBA>
2

>  <HBD>
1

>  <TPSA>
37.3

>  <cid>
21363

>  <dipole>
4.03

>  <excitation_energy_1>
5.716

>  <excitation_energy_2>
6.383

>  <excitation_energy_3>
7.07

>  <excitation_energy_4>
7.089

>  <homo_energy>
-7.358

>  <homo_lumo_gap>
7.655

>  <logP>
2.041

>  <lumo_energy>
0.297

>  <melting_point>
71.85

>  <molecular_refractivity>
40.23

>  <oscillator_strength_1>
0.0004

>  <oscillator_strength_2>
0.0145

>  <oscillator_strength_3>
0.001

>  <oscillator_strength_4>
0.0036

>  <open_babel_can_smiles>
OC(=O)CC1CCCCC1

>  <mulliken_charges>
24
1   -0.253622
2   -0.26098
3   -0.263365
4   -0.272668
5   -0.274355
6   -0.412127
7   -0.069381
8   0.607547
9   -0.438391
10   -0.568854
11   0.129767
12   0.130227
13   0.123297
14   0.134048
15   0.136022
16   0.122344
17   0.125583
18   0.134403
19   0.132302
20   0.155096
21   0.156365
22   0.168436
23   0.151027
24   0.407281

>  <lowdin_charges>
24
1   -0.276218
2   -0.278509
3   -0.280625
4   -0.279226
5   -0.280124
6   -0.329295
7   -0.125142
8   0.199689
9   -0.238656
10   -0.362328
11   0.13664
12   0.143041
13   0.132165
14   0.144952
15   0.147958
16   0.131269
17   0.140931
18   0.141909
19   0.142191
20   0.154379
21   0.155182
22   0.166861
23   0.156803
24   0.356155

$$$$

