PCCDB-ID:  23577
public computational chemistry database (PCCDB) project, http://pccdb.org

 15 14  0  0  0  0  0  0  0  0999 V2000
    0.9068    0.0852    0.0479 C   0  0  0  0  0  0  0  0  0  0  0  0
    2.9762   -1.2490    0.6485 C   0  0  0  0  0  0  0  0  0  0  0  0
    2.9763    0.2319   -1.4081 C   0  0  0  0  0  0  0  0  0  0  0  0
    3.3201    2.0622    1.4718 C   0  0  0  0  0  0  0  0  0  0  0  0
    2.4463    0.0565    0.0270 C   0  0  0  0  0  0  0  0  0  0  0  0
    2.9276    1.1609    0.8224 N   0  0  0  0  0  0  0  0  0  0  0  0
    0.5128   -0.7441   -0.5491 H   0  0  0  0  0  0  0  0  0  0  0  0
    0.5309    1.0244   -0.3694 H   0  0  0  0  0  0  0  0  0  0  0  0
    0.5315   -0.0131    1.0712 H   0  0  0  0  0  0  0  0  0  0  0  0
    2.6258   -2.1065    0.0642 H   0  0  0  0  0  0  0  0  0  0  0  0
    2.6211   -1.3603    1.6777 H   0  0  0  0  0  0  0  0  0  0  0  0
    4.0705   -1.2573    0.6576 H   0  0  0  0  0  0  0  0  0  0  0  0
    2.6258   -0.5943   -2.0358 H   0  0  0  0  0  0  0  0  0  0  0  0
    4.0706    0.2380   -1.4192 H   0  0  0  0  0  0  0  0  0  0  0  0
    2.6214    1.1727   -1.8401 H   0  0  0  0  0  0  0  0  0  0  0  0
  1  9  1  0  0  0  0
  2 12  1  0  0  0  0
  2 11  1  0  0  0  0
  3  5  1  0  0  0  0
  5  1  1  0  0  0  0
  5  2  1  0  0  0  0
  5  6  1  0  0  0  0
  6  4  3  0  0  0  0
  7  1  1  0  0  0  0
  8  1  1  0  0  0  0
 10  2  1  0  0  0  0
 13  3  1  0  0  0  0
 14  3  1  0  0  0  0
 15  3  1  0  0  0  0
M  RAD  1   4   2
M  END
>  <HBA>
0

>  <HBD>
0

>  <TPSA>
0.0

>  <cid>
23577

>  <dipole>
3.79

>  <excitation_energy_1>
7.58

>  <excitation_energy_2>
7.735

>  <excitation_energy_3>
7.908

>  <excitation_energy_4>
7.909

>  <homo_energy>
-7.84

>  <homo_lumo_gap>
9.029

>  <logP>
0.935

>  <lumo_energy>
1.189

>  <melting_point>
31.3

>  <molecular_refractivity>
25.7

>  <oscillator_strength_1>
0.0002

>  <oscillator_strength_2>
0.0

>  <oscillator_strength_3>
0.076

>  <oscillator_strength_4>
0.0758

>  <open_babel_can_smiles>
CC([N]#[C])(C)C

>  <mulliken_charges>
15
1   -0.432264
2   -0.432203
3   -0.432229
4   -0.090471
5   0.142301
6   -0.185886
7   0.150962
8   0.162996
9   0.16299
10   0.150942
11   0.16298
12   0.162972
13   0.150969
14   0.162988
15   0.162955

>  <lowdin_charges>
15
1   -0.43896
2   -0.436467
3   -0.437674
4   -0.126862
5   0.07897
6   -0.072937
7   0.157232
8   0.16152
9   0.160516
10   0.15703
11   0.160361
12   0.159301
13   0.157204
14   0.159318
15   0.161449

$$$$

