PCCDB-ID:  7146
public computational chemistry database (PCCDB) project, http://pccdb.org

 20 20  0  0  1  0  0  0  0  0999 V2000
    1.0836   -0.0268    0.2977 C   0  0  0  0  0  0  0  0  0  0  0  0
    3.4806   -3.0294   -3.1228 C   0  0  0  0  0  0  0  0  0  0  0  0
    3.1275   -3.4052   -1.8250 C   0  0  0  0  0  0  0  0  0  0  0  0
    3.5391   -1.6759   -3.4570 C   0  0  0  0  0  0  0  0  0  0  0  0
    2.8330   -2.4327   -0.8696 C   0  0  0  0  0  0  0  0  0  0  0  0
    3.2461   -0.7047   -2.4980 C   0  0  0  0  0  0  0  0  0  0  0  0
    3.5041   -0.1778    1.0348 C   0  0  0  0  0  0  0  0  0  0  0  0
    2.5523   -0.0138   -0.1454 C   0  0  1  0  0  0  0  0  0  0  0  0
    2.8838   -1.0691   -1.1956 C   0  0  0  0  0  0  0  0  0  0  0  0
    3.1592   -0.3842    2.1772 O   0  0  0  0  0  0  0  0  0  0  0  0
    0.9017    0.7440    1.0528 H   0  0  0  0  0  0  0  0  0  0  0  0
    0.8159   -0.9905    0.7405 H   0  0  0  0  0  0  0  0  0  0  0  0
    0.4260    0.1536   -0.5582 H   0  0  0  0  0  0  0  0  0  0  0  0
    3.7100   -3.7867   -3.8676 H   0  0  0  0  0  0  0  0  0  0  0  0
    3.0841   -4.4569   -1.5545 H   0  0  0  0  0  0  0  0  0  0  0  0
    3.8140   -1.3738   -4.4642 H   0  0  0  0  0  0  0  0  0  0  0  0
    2.5626   -2.7340    0.1398 H   0  0  0  0  0  0  0  0  0  0  0  0
    3.2928    0.3487   -2.7656 H   0  0  0  0  0  0  0  0  0  0  0  0
    4.5825   -0.1085    0.7681 H   0  0  0  0  0  0  0  0  0  0  0  0
    2.7928    0.9680   -0.5825 H   0  0  0  0  0  0  0  0  0  0  0  0
  1 12  1  0  0  0  0
  1 11  1  0  0  0  0
  2  3  1  0  0  0  0
  3 15  1  0  0  0  0
  3  5  2  0  0  0  0
  4  2  2  0  0  0  0
  4  6  1  0  0  0  0
  5 17  1  0  0  0  0
  6  9  2  0  0  0  0
  7 10  2  0  0  0  0
  8 20  1  6  0  0  0
  8  1  1  0  0  0  0
  8  7  1  0  0  0  0
  9  5  1  0  0  0  0
  9  8  1  0  0  0  0
 13  1  1  0  0  0  0
 14  2  1  0  0  0  0
 16  4  1  0  0  0  0
 18  6  1  0  0  0  0
 19  7  1  0  0  0  0
M  END
>  <HBA>
1

>  <HBD>
0

>  <TPSA>
17.07

>  <cid>
7146

>  <dipole>
2.64

>  <excitation_energy_1>
4.207

>  <excitation_energy_2>
5.111

>  <excitation_energy_3>
5.34

>  <excitation_energy_4>
5.602

>  <homo_energy>
-6.623

>  <homo_lumo_gap>
5.84

>  <logP>
1.989

>  <lumo_energy>
-0.784

>  <melting_point>
37.55

>  <molecular_refractivity>
41.22

>  <oscillator_strength_1>
0.0047

>  <oscillator_strength_2>
0.017

>  <oscillator_strength_3>
0.0264

>  <oscillator_strength_4>
0.0472

>  <open_babel_can_smiles>
O=C[C@@H](c1ccccc1)C

>  <mulliken_charges>
20
1   -0.434183
2   -0.128577
3   -0.12792
4   -0.125529
5   -0.180191
6   -0.191669
7   0.255517
8   -0.243448
9   0.159543
10   -0.387574
11   0.159286
12   0.162399
13   0.148862
14   0.133171
15   0.13526
16   0.133131
17   0.143766
18   0.127318
19   0.111659
20   0.149181

>  <lowdin_charges>
20
1   -0.438368
2   -0.156866
3   -0.149431
4   -0.151769
5   -0.161511
6   -0.165673
7   0.053393
8   -0.155677
9   -0.005338
10   -0.217627
11   0.160579
12   0.159397
13   0.155496
14   0.16066
15   0.158889
16   0.15872
17   0.162098
18   0.154282
19   0.11901
20   0.159735

$$$$

