PCCDB-ID:  69847
public computational chemistry database (PCCDB) project, http://pccdb.org

 25 25  0  0  0  0  0  0  0  0999 V2000
    1.1576    0.2755   -0.0916 C   0  0  0  0  0  0  0  0  0  0  0  0
    2.7391   -2.5720   -0.0943 C   0  0  0  0  0  0  0  0  0  0  0  0
    3.4172    2.5495   -0.0999 C   0  0  0  0  0  0  0  0  0  0  0  0
    5.8729   -1.8369   -0.1073 C   0  0  0  0  0  0  0  0  0  0  0  0
    6.1301    1.1431   -0.1145 C   0  0  0  0  0  0  0  0  0  0  0  0
    2.6477    0.0610   -0.0968 C   0  0  0  0  0  0  0  0  0  0  0  0
    3.3427   -1.1930   -0.0984 C   0  0  0  0  0  0  0  0  0  0  0  0
    3.6022    1.0644   -0.1013 C   0  0  0  0  0  0  0  0  0  0  0  0
    4.6976   -0.9122   -0.1038 C   0  0  0  0  0  0  0  0  0  0  0  0
    4.8502    0.4634   -0.1050 N   0  0  0  0  0  0  0  0  0  0  0  0
    0.6187   -0.6771   -0.0945 H   0  0  0  0  0  0  0  0  0  0  0  0
    0.8140    0.8364   -0.9709 H   0  0  0  0  0  0  0  0  0  0  0  0
    0.8185    0.8284    0.7945 H   0  0  0  0  0  0  0  0  0  0  0  0
    1.6455   -2.5294   -0.0929 H   0  0  0  0  0  0  0  0  0  0  0  0
    3.0347   -3.1531    0.7895 H   0  0  0  0  0  0  0  0  0  0  0  0
    3.0325   -3.1573   -0.9760 H   0  0  0  0  0  0  0  0  0  0  0  0
    2.3488    2.7819   -0.0904 H   0  0  0  0  0  0  0  0  0  0  0  0
    3.8450    3.0360   -0.9883 H   0  0  0  0  0  0  0  0  0  0  0  0
    3.8607    3.0358    0.7808 H   0  0  0  0  0  0  0  0  0  0  0  0
    5.5276   -2.8744   -0.0994 H   0  0  0  0  0  0  0  0  0  0  0  0
    6.5220   -1.7035    0.7704 H   0  0  0  0  0  0  0  0  0  0  0  0
    6.5097   -1.7130   -0.9956 H   0  0  0  0  0  0  0  0  0  0  0  0
    5.9709    2.2221   -0.1211 H   0  0  0  0  0  0  0  0  0  0  0  0
    6.7142    0.8774   -1.0041 H   0  0  0  0  0  0  0  0  0  0  0  0
    6.7213    0.8890    0.7737 H   0  0  0  0  0  0  0  0  0  0  0  0
  1 13  1  0  0  0  0
  2 14  1  0  0  0  0
  2 15  1  0  0  0  0
  3 17  1  0  0  0  0
  3 19  1  0  0  0  0
  4  9  1  0  0  0  0
  4 20  1  0  0  0  0
  4 21  1  0  0  0  0
  5 10  1  0  0  0  0
  5 25  1  0  0  0  0
  6  1  1  0  0  0  0
  7  6  1  0  0  0  0
  7  2  1  0  0  0  0
  8  3  1  0  0  0  0
  8  6  2  0  0  0  0
  9  7  2  0  0  0  0
 10  9  1  0  0  0  0
 10  8  1  0  0  0  0
 11  1  1  0  0  0  0
 12  1  1  0  0  0  0
 16  2  1  0  0  0  0
 18  3  1  0  0  0  0
 22  4  1  0  0  0  0
 23  5  1  0  0  0  0
 24  5  1  0  0  0  0
M  END
>  <HBA>
1

>  <HBD>
0

>  <TPSA>
4.93

>  <cid>
69847

>  <dipole>
1.8

>  <excitation_energy_1>
4.161

>  <excitation_energy_2>
4.691

>  <excitation_energy_3>
4.776

>  <excitation_energy_4>
4.982

>  <homo_energy>
-4.699

>  <homo_lumo_gap>
5.997

>  <logP>
2.259

>  <lumo_energy>
1.298

>  <melting_point>
24.84

>  <molecular_refractivity>
45.56

>  <oscillator_strength_1>
0.0

>  <oscillator_strength_2>
0.0035

>  <oscillator_strength_3>
0.0

>  <oscillator_strength_4>
0.0043

>  <open_babel_can_smiles>
Cc1n(C)c(c(c1C)C)C

>  <mulliken_charges>
25
1   -0.540626
2   -0.540953
3   -0.535042
4   -0.53325
5   -0.322672
6   0.040672
7   0.043133
8   0.274771
9   0.273235
10   -0.483456
11   0.149948
12   0.148156
13   0.148153
14   0.150042
15   0.14839
16   0.148347
17   0.164973
18   0.151468
19   0.151542
20   0.163921
21   0.150712
22   0.150721
23   0.170236
24   0.163849
25   0.163731

>  <lowdin_charges>
25
1   -0.44373
2   -0.441544
3   -0.446863
4   -0.443865
5   -0.34805
6   -0.074852
7   -0.072909
8   -0.018678
9   -0.020327
10   -0.020992
11   0.154424
12   0.151608
13   0.151515
14   0.152436
15   0.151735
16   0.151748
17   0.166361
18   0.1525
19   0.152661
20   0.165841
21   0.152365
22   0.152234
23   0.165362
24   0.155584
25   0.155438

$$$$

