PCCDB-ID:  39390
public computational chemistry database (PCCDB) project, http://pccdb.org

 18 18  0  0  0  0  0  0  0  0999 V2000
    2.6439   -1.1916   -0.3373 C   0  0  0  0  0  0  0  0  0  0  0  0
    2.2839    0.0945   -0.2474 C   0  0  0  0  0  0  0  0  0  0  0  0
    3.2233    3.5967    0.8203 C   0  0  0  0  0  0  0  0  0  0  0  0
    2.5188    2.5001    0.3148 C   0  0  0  0  0  0  0  0  0  0  0  0
    4.5080    3.4277    1.3208 C   0  0  0  0  0  0  0  0  0  0  0  0
    4.3767    1.0572    0.8063 C   0  0  0  0  0  0  0  0  0  0  0  0
    6.4553    1.9451    1.8407 C   0  0  0  0  0  0  0  0  0  0  0  0
    3.0765    1.2102    0.2961 C   0  0  0  0  0  0  0  0  0  0  0  0
    5.0865    2.1475    1.3122 C   0  0  0  0  0  0  0  0  0  0  0  0
    7.1595    2.8255    2.2961 O   0  0  0  0  0  0  0  0  0  0  0  0
    1.9700   -1.9301   -0.7600 H   0  0  0  0  0  0  0  0  0  0  0  0
    3.6084   -1.5616   -0.0002 H   0  0  0  0  0  0  0  0  0  0  0  0
    1.2956    0.3775   -0.6089 H   0  0  0  0  0  0  0  0  0  0  0  0
    2.7613    4.5800    0.8192 H   0  0  0  0  0  0  0  0  0  0  0  0
    1.5136    2.6438   -0.0750 H   0  0  0  0  0  0  0  0  0  0  0  0
    5.0819    4.2576    1.7208 H   0  0  0  0  0  0  0  0  0  0  0  0
    4.8486    0.0773    0.8120 H   0  0  0  0  0  0  0  0  0  0  0  0
    6.8182    0.8937    1.7948 H   0  0  0  0  0  0  0  0  0  0  0  0
  1  2  2  0  0  0  0
  1 12  1  0  0  0  0
  2  8  1  0  0  0  0
  3  5  2  0  0  0  0
  4  3  1  0  0  0  0
  5 16  1  0  0  0  0
  6 17  1  0  0  0  0
  6  9  2  0  0  0  0
  7 10  2  0  0  0  0
  8  4  2  0  0  0  0
  8  6  1  0  0  0  0
  9  5  1  0  0  0  0
  9  7  1  0  0  0  0
 11  1  1  0  0  0  0
 13  2  1  0  0  0  0
 14  3  1  0  0  0  0
 15  4  1  0  0  0  0
 18  7  1  0  0  0  0
M  END
>  <HBA>
1

>  <HBD>
0

>  <TPSA>
17.07

>  <cid>
39390

>  <dipole>
3.29

>  <excitation_energy_1>
3.705

>  <excitation_energy_2>
4.031

>  <excitation_energy_3>
4.785

>  <excitation_energy_4>
4.972

>  <homo_energy>
-6.449

>  <homo_lumo_gap>
4.716

>  <logP>
2.142

>  <lumo_energy>
-1.733

>  <melting_point>
31.22

>  <molecular_refractivity>
41.92

>  <oscillator_strength_1>
0.0001

>  <oscillator_strength_2>
0.0251

>  <oscillator_strength_3>
0.208

>  <oscillator_strength_4>
0.0

>  <open_babel_can_smiles>
C=Cc1cccc(c1)C=O

>  <mulliken_charges>
18
1   -0.346454
2   -0.116525
3   -0.128411
4   -0.186192
5   -0.158656
6   -0.238647
7   0.199091
8   0.17035
9   0.097879
10   -0.407493
11   0.150912
12   0.145598
13   0.132413
14   0.14236
15   0.139151
16   0.164115
17   0.137871
18   0.102637

>  <lowdin_charges>
18
1   -0.325309
2   -0.147066
3   -0.150953
4   -0.139378
5   -0.128616
6   -0.138323
7   0.050431
8   -0.002607
9   -0.05255
10   -0.226382
11   0.167982
12   0.157843
13   0.156508
14   0.163685
15   0.160416
16   0.177755
17   0.160718
18   0.115846

$$$$

