PCCDB-ID:  70950
public computational chemistry database (PCCDB) project, http://pccdb.org

 22 22  0  0  0  0  0  0  0  0999 V2000
    1.3795   -0.4241    0.9603 C   0  0  0  0  0  0  0  0  0  0  0  0
    2.3280    0.0970   -0.1358 C   0  0  0  0  0  0  0  0  0  0  0  0
    4.2078    1.6361    0.5794 C   0  0  0  0  0  0  0  0  0  0  0  0
    4.7583    2.8783    0.8832 C   0  0  0  0  0  0  0  0  0  0  0  0
    2.6502    3.8984    0.3044 C   0  0  0  0  0  0  0  0  0  0  0  0
    2.8894    1.4753    0.1443 C   0  0  0  0  0  0  0  0  0  0  0  0
    3.9706    4.0318    0.7512 C   0  0  0  0  0  0  0  0  0  0  0  0
    2.1033    2.6434    0.0062 C   0  0  0  0  0  0  0  0  0  0  0  0
    4.4766    5.2905    1.1063 N   0  0  0  0  0  0  0  0  0  0  0  0
    0.7562    2.5572   -0.3807 N   0  0  0  0  0  0  0  0  0  0  0  0
    0.9956   -1.4202    0.7085 H   0  0  0  0  0  0  0  0  0  0  0  0
    0.5271    0.2491    1.0971 H   0  0  0  0  0  0  0  0  0  0  0  0
    1.9042   -0.4933    1.9195 H   0  0  0  0  0  0  0  0  0  0  0  0
    1.8015    0.0804   -1.1041 H   0  0  0  0  0  0  0  0  0  0  0  0
    3.1629   -0.6049   -0.2524 H   0  0  0  0  0  0  0  0  0  0  0  0
    4.8296    0.7487    0.6828 H   0  0  0  0  0  0  0  0  0  0  0  0
    5.7877    2.9564    1.2240 H   0  0  0  0  0  0  0  0  0  0  0  0
    2.0282    4.7866    0.1996 H   0  0  0  0  0  0  0  0  0  0  0  0
    5.4850    5.3636    1.0434 H   0  0  0  0  0  0  0  0  0  0  0  0
    4.0300    6.0690    0.6363 H   0  0  0  0  0  0  0  0  0  0  0  0
    0.3839    3.4172   -0.7659 H   0  0  0  0  0  0  0  0  0  0  0  0
    0.5384    1.7717   -0.9821 H   0  0  0  0  0  0  0  0  0  0  0  0
  1 12  1  0  0  0  0
  1 13  1  0  0  0  0
  2  6  1  0  0  0  0
  2  1  1  0  0  0  0
  3 16  1  0  0  0  0
  3  4  2  0  0  0  0
  4 17  1  0  0  0  0
  5  7  2  0  0  0  0
  6  3  1  0  0  0  0
  7  4  1  0  0  0  0
  7  9  1  0  0  0  0
  8  6  2  0  0  0  0
  8  5  1  0  0  0  0
 10  8  1  0  0  0  0
 11  1  1  0  0  0  0
 14  2  1  0  0  0  0
 15  2  1  0  0  0  0
 18  5  1  0  0  0  0
 19  9  1  0  0  0  0
 20  9  1  0  0  0  0
 21 10  1  0  0  0  0
 22 10  1  0  0  0  0
M  END
>  <HBA>
2

>  <HBD>
2

>  <TPSA>
52.04

>  <cid>
70950

>  <dipole>
2.55

>  <excitation_energy_1>
4.348

>  <excitation_energy_2>
4.576

>  <excitation_energy_3>
4.657

>  <excitation_energy_4>
4.953

>  <homo_energy>
-4.928

>  <homo_lumo_gap>
5.535

>  <logP>
2.576

>  <lumo_energy>
0.607

>  <melting_point>
106.8

>  <molecular_refractivity>
45.02

>  <oscillator_strength_1>
0.0262

>  <oscillator_strength_2>
0.029

>  <oscillator_strength_3>
0.0056

>  <oscillator_strength_4>
0.0137

>  <open_babel_can_smiles>
CCc1ccc(cc1N)N

>  <mulliken_charges>
22
1   -0.437112
2   -0.356767
3   -0.211597
4   -0.177075
5   -0.224511
6   0.155162
7   0.304969
8   0.238193
9   -0.789422
10   -0.792939
11   0.133805
12   0.162735
13   0.149353
14   0.121199
15   0.14122
16   0.114188
17   0.105998
18   0.098784
19   0.31589
20   0.313707
21   0.314681
22   0.319538

>  <lowdin_charges>
22
1   -0.446997
2   -0.270553
3   -0.149992
4   -0.227067
5   -0.246794
6   -0.066945
7   0.065947
8   0.062389
9   -0.491388
10   -0.494825
11   0.143599
12   0.156262
13   0.151195
14   0.132647
15   0.149356
16   0.151667
17   0.148003
18   0.145399
19   0.270563
20   0.272258
21   0.271854
22   0.273423

$$$$

