PCCDB-ID:  55189
public computational chemistry database (PCCDB) project, http://pccdb.org

 28 27  0  0  1  0  0  0  0  0999 V2000
    2.3472    2.0431   -0.2722 C   0  0  0  0  0  0  0  0  0  0  0  0
    3.7595    1.4683   -0.1234 C   0  0  0  0  0  0  0  0  0  0  0  0
    4.0416    0.3053   -1.0833 C   0  0  0  0  0  0  0  0  0  0  0  0
    5.4548   -0.2753   -0.9415 C   0  0  0  0  0  0  0  0  0  0  0  0
    8.2749   -2.2596    0.4237 C   0  0  0  0  0  0  0  0  0  0  0  0
    5.7166   -1.4384   -1.9077 C   0  0  0  0  0  0  0  0  0  0  0  0
    7.4372   -2.7039   -0.5250 C   0  0  0  0  0  0  0  0  0  0  0  0
    8.4984   -3.0191    1.6750 C   0  0  0  0  0  0  0  0  0  0  0  0
    7.1421   -2.0083   -1.8230 C   0  0  1  0  0  0  0  0  0  0  0  0
    7.9631   -4.0791    1.9447 O   0  0  0  0  0  0  0  0  0  0  0  0
    6.4884   -3.9831   -2.9129 O   0  0  0  0  0  0  0  0  0  0  0  0
    7.4361   -2.8735   -2.9378 O   0  0  0  0  0  0  0  0  0  0  0  0
    2.1771    2.8714    0.4251 H   0  0  0  0  0  0  0  0  0  0  0  0
    1.5857    1.2789   -0.0737 H   0  0  0  0  0  0  0  0  0  0  0  0
    2.1780    2.4223   -1.2875 H   0  0  0  0  0  0  0  0  0  0  0  0
    3.9098    1.1285    0.9111 H   0  0  0  0  0  0  0  0  0  0  0  0
    4.4989    2.2642   -0.2923 H   0  0  0  0  0  0  0  0  0  0  0  0
    3.8894    0.6444   -2.1185 H   0  0  0  0  0  0  0  0  0  0  0  0
    3.3035   -0.4925   -0.9139 H   0  0  0  0  0  0  0  0  0  0  0  0
    5.6078   -0.6094    0.0936 H   0  0  0  0  0  0  0  0  0  0  0  0
    6.1933    0.5215   -1.1177 H   0  0  0  0  0  0  0  0  0  0  0  0
    8.8236   -1.3259    0.3055 H   0  0  0  0  0  0  0  0  0  0  0  0
    5.5704   -1.1063   -2.9436 H   0  0  0  0  0  0  0  0  0  0  0  0
    4.9982   -2.2469   -1.7300 H   0  0  0  0  0  0  0  0  0  0  0  0
    6.9153   -3.6434   -0.3512 H   0  0  0  0  0  0  0  0  0  0  0  0
    9.2140   -2.5538    2.3868 H   0  0  0  0  0  0  0  0  0  0  0  0
    7.8676   -1.2006   -1.9904 H   0  0  0  0  0  0  0  0  0  0  0  0
    7.1110   -4.7227   -2.7950 H   0  0  0  0  0  0  0  0  0  0  0  0
  1  2  1  0  0  0  0
  1 14  1  0  0  0  0
  1 13  1  0  0  0  0
  2 16  1  0  0  0  0
  3  4  1  0  0  0  0
  3 19  1  0  0  0  0
  3  2  1  0  0  0  0
  4 20  1  0  0  0  0
  5  8  1  0  0  0  0
  6  9  1  0  0  0  0
  6 24  1  0  0  0  0
  6  4  1  0  0  0  0
  7 25  1  0  0  0  0
  7  5  2  0  0  0  0
  8 10  2  0  0  0  0
  8 26  1  0  0  0  0
  9 27  1  6  0  0  0
  9  7  1  0  0  0  0
 11 28  1  0  0  0  0
 12 11  1  0  0  0  0
 12  9  1  0  0  0  0
 15  1  1  0  0  0  0
 17  2  1  0  0  0  0
 18  3  1  0  0  0  0
 21  4  1  0  0  0  0
 22  5  1  0  0  0  0
 23  6  1  0  0  0  0
M  END
>  <HBA>
3

>  <HBD>
1

>  <TPSA>
46.53

>  <cid>
55189

>  <dipole>
2.11

>  <excitation_energy_1>
3.459

>  <excitation_energy_2>
4.485

>  <excitation_energy_3>
5.273

>  <excitation_energy_4>
5.438

>  <homo_energy>
-6.942

>  <homo_lumo_gap>
5.053

>  <logP>
2.18

>  <lumo_energy>
-1.888

>  <melting_point>
42.48

>  <molecular_refractivity>
47.76

>  <oscillator_strength_1>
0.0006

>  <oscillator_strength_2>
0.013

>  <oscillator_strength_3>
0.2174

>  <oscillator_strength_4>
0.0031

>  <open_babel_can_smiles>
CCCCC[C@@H](/C=C/C=O)OO

>  <mulliken_charges>
28
1   -0.441917
2   -0.24864
3   -0.245949
4   -0.265693
5   -0.180899
6   -0.280008
7   -0.070502
8   0.222972
9   0.110453
10   -0.40227
11   -0.410452
12   -0.308318
13   0.143069
14   0.143278
15   0.142373
16   0.132195
17   0.129978
18   0.130656
19   0.132337
20   0.139666
21   0.125917
22   0.13708
23   0.153044
24   0.160835
25   0.175345
26   0.10523
27   0.151109
28   0.419111

>  <lowdin_charges>
28
1   -0.444783
2   -0.271826
3   -0.272613
4   -0.277427
5   -0.219579
6   -0.284561
7   -0.099046
8   0.044841
9   -0.006487
10   -0.230114
11   -0.343449
12   -0.157598
13   0.150638
14   0.148011
15   0.146104
16   0.138587
17   0.139269
18   0.138106
19   0.141024
20   0.142847
21   0.137485
22   0.158421
23   0.155026
24   0.157549
25   0.176479
26   0.120313
27   0.15726
28   0.355522

$$$$

