PCCDB-ID:  6755
public computational chemistry database (PCCDB) project, http://pccdb.org

 19 20  0  0  0  0  0  0  0  0999 V2000
   -2.4385   -0.7313   -0.1236 C   0  0  0  0  0  0  0  0  0  0  0  0
   -2.4607    0.6650   -0.1430 C   0  0  0  0  0  0  0  0  0  0  0  0
   -1.2253   -1.4190   -0.0639 C   0  0  0  0  0  0  0  0  0  0  0  0
   -1.2626    1.3768   -0.1029 C   0  0  0  0  0  0  0  0  0  0  0  0
    2.4691   -0.7606    0.0776 C   0  0  0  0  0  0  0  0  0  0  0  0
   -0.0191   -0.7106   -0.0233 C   0  0  0  0  0  0  0  0  0  0  0  0
   -0.0418    0.7013   -0.0428 C   0  0  0  0  0  0  0  0  0  0  0  0
    1.2749   -1.4079    0.0393 C   0  0  0  0  0  0  0  0  0  0  0  0
    2.5611    0.6908    0.0622 C   0  0  0  0  0  0  0  0  0  0  0  0
    1.2265    1.4836   -0.0018 C   0  0  0  0  0  0  0  0  0  0  0  0
    1.1646   -2.7568    0.0560 O   0  0  0  0  0  0  0  0  0  0  0  0
    3.6188    1.3009    0.0978 O   0  0  0  0  0  0  0  0  0  0  0  0
    1.2452    2.6999   -0.0187 O   0  0  0  0  0  0  0  0  0  0  0  0
   -3.3691   -1.2909   -0.1558 H   0  0  0  0  0  0  0  0  0  0  0  0
   -3.4074    1.1954   -0.1897 H   0  0  0  0  0  0  0  0  0  0  0  0
   -1.2089   -2.5027   -0.0481 H   0  0  0  0  0  0  0  0  0  0  0  0
   -1.2462    2.4620   -0.1161 H   0  0  0  0  0  0  0  0  0  0  0  0
    3.4073   -1.3092    0.1218 H   0  0  0  0  0  0  0  0  0  0  0  0
    2.0527   -3.1491    0.0965 H   0  0  0  0  0  0  0  0  0  0  0  0
  1  3  1  0  0  0  0
  2  1  2  0  0  0  0
  2  4  1  0  0  0  0
  3 16  1  0  0  0  0
  3  6  2  0  0  0  0
  4  7  2  0  0  0  0
  5 18  1  0  0  0  0
  6  8  1  0  0  0  0
  7  6  1  0  0  0  0
  7 10  1  0  0  0  0
  8 11  1  0  0  0  0
  8  5  2  0  0  0  0
  9  5  1  0  0  0  0
  9 12  2  0  0  0  0
 10  9  1  0  0  0  0
 11 19  1  0  0  0  0
 13 10  2  0  0  0  0
 14  1  1  0  0  0  0
 15  2  1  0  0  0  0
 17  4  1  0  0  0  0
M  END
>  <HBA>
3

>  <HBD>
1

>  <TPSA>
54.37

>  <cid>
6755

>  <dipole>
6.12

>  <excitation_energy_1>
2.229

>  <excitation_energy_2>
3.058

>  <excitation_energy_3>
3.415

>  <excitation_energy_4>
3.867

>  <homo_energy>
-6.493

>  <homo_lumo_gap>
3.548

>  <logP>
1.351

>  <lumo_energy>
-2.944

>  <melting_point>
110.51

>  <molecular_refractivity>
46.39

>  <oscillator_strength_1>
0.0

>  <oscillator_strength_2>
0.04

>  <oscillator_strength_3>
0.0

>  <oscillator_strength_4>
0.0454

>  <open_babel_can_smiles>
O=C1C=C(O)c2c(C1=O)cccc2

>  <mulliken_charges>
19
1   -0.120737
2   -0.124804
3   -0.180441
4   -0.169658
5   -0.297899
6   0.080797
7   0.031917
8   0.354389
9   0.402175
10   0.334343
11   -0.621357
12   -0.460265
13   -0.428831
14   0.147553
15   0.148365
16   0.166454
17   0.173242
18   0.139973
19   0.424783

>  <lowdin_charges>
19
1   -0.134994
2   -0.143498
3   -0.141255
4   -0.116743
5   -0.273179
6   -0.014244
7   -0.042852
8   0.134621
9   0.118655
10   0.125282
11   -0.343432
12   -0.211713
13   -0.184199
14   0.167079
15   0.167303
16   0.174773
17   0.179459
18   0.170108
19   0.368829

$$$$

