PCCDB-ID:  8064
public computational chemistry database (PCCDB) project, http://pccdb.org

 16 15  0  0  0  0  0  0  0  0999 V2000
    1.2106    0.2647    0.0114 C   0  0  0  0  0  0  0  0  0  0  0  0
    1.9451    0.9734    1.1554 C   0  0  0  0  0  0  0  0  0  0  0  0
    2.1483   -0.3332   -1.0310 C   0  0  0  0  0  0  0  0  0  0  0  0
    0.9978    1.5204    2.2235 C   0  0  0  0  0  0  0  0  0  0  0  0
    2.9353   -1.3398   -0.3980 O   0  0  0  0  0  0  0  0  0  0  0  0
    1.6763    2.2188    3.2624 O   0  0  0  0  0  0  0  0  0  0  0  0
    0.5353    0.9677   -0.4966 H   0  0  0  0  0  0  0  0  0  0  0  0
    0.5838   -0.5437    0.4121 H   0  0  0  0  0  0  0  0  0  0  0  0
    2.5451    1.8052    0.7620 H   0  0  0  0  0  0  0  0  0  0  0  0
    2.6470    0.2657    1.6162 H   0  0  0  0  0  0  0  0  0  0  0  0
    2.7875    0.4593   -1.4548 H   0  0  0  0  0  0  0  0  0  0  0  0
    1.5579   -0.7593   -1.8585 H   0  0  0  0  0  0  0  0  0  0  0  0
    0.3805    0.7027    2.6333 H   0  0  0  0  0  0  0  0  0  0  0  0
    0.3102    2.2526    1.7846 H   0  0  0  0  0  0  0  0  0  0  0  0
    3.5830   -1.6627   -1.0419 H   0  0  0  0  0  0  0  0  0  0  0  0
    2.2778    1.5872    3.6865 H   0  0  0  0  0  0  0  0  0  0  0  0
  1  8  1  0  0  0  0
  1  2  1  0  0  0  0
  2 10  1  0  0  0  0
  2  4  1  0  0  0  0
  3  5  1  0  0  0  0
  3  1  1  0  0  0  0
  4 13  1  0  0  0  0
  4  6  1  0  0  0  0
  6 16  1  0  0  0  0
  7  1  1  0  0  0  0
  9  2  1  0  0  0  0
 11  3  1  0  0  0  0
 12  3  1  0  0  0  0
 14  4  1  0  0  0  0
 15  5  1  0  0  0  0
M  END
>  <HBA>
2

>  <HBD>
2

>  <TPSA>
40.46

>  <cid>
8064

>  <dipole>
2.46

>  <excitation_energy_1>
6.392

>  <excitation_energy_2>
6.497

>  <excitation_energy_3>
6.834

>  <excitation_energy_4>
7.192

>  <homo_energy>
-6.983

>  <homo_lumo_gap>
8.906

>  <logP>
-0.249

>  <lumo_energy>
1.924

>  <melting_point>
12.0

>  <molecular_refractivity>
23.67

>  <oscillator_strength_1>
0.0005

>  <oscillator_strength_2>
0.0095

>  <oscillator_strength_3>
0.0068

>  <oscillator_strength_4>
0.02

>  <open_babel_can_smiles>
OCCCCO

>  <mulliken_charges>
16
1   -0.270387
2   -0.277463
3   -0.031616
4   -0.026015
5   -0.617118
6   -0.616768
7   0.132734
8   0.145559
9   0.138423
10   0.147726
11   0.118258
12   0.120252
13   0.117392
14   0.140867
15   0.39287
16   0.385285

>  <lowdin_charges>
16
1   -0.284177
2   -0.297869
3   -0.134094
4   -0.138065
5   -0.477109
6   -0.470133
7   0.146859
8   0.149339
9   0.145636
10   0.149159
11   0.125888
12   0.12813
13   0.124418
14   0.144619
15   0.346279
16   0.341121

$$$$

