PCCDB-ID:  56081
public computational chemistry database (PCCDB) project, http://pccdb.org

 23 23  0  0  0  0  0  0  0  0999 V2000
    1.9075    0.1491   -0.3576 C   0  0  0  0  0  0  0  0  0  0  0  0
    3.5101   -2.7663   -1.4092 C   0  0  0  0  0  0  0  0  0  0  0  0
    5.2201    0.9713    1.3636 C   0  0  0  0  0  0  0  0  0  0  0  0
    3.8634    0.9591    1.0409 C   0  0  0  0  0  0  0  0  0  0  0  0
    6.1129    0.1892    0.6392 C   0  0  0  0  0  0  0  0  0  0  0  0
    3.3731    0.1565    0.0059 C   0  0  0  0  0  0  0  0  0  0  0  0
    5.6645   -0.6198   -0.4178 C   0  0  0  0  0  0  0  0  0  0  0  0
    4.2855   -0.6352   -0.7102 C   0  0  0  0  0  0  0  0  0  0  0  0
    6.6579   -1.3909   -1.2181 C   0  0  0  0  0  0  0  0  0  0  0  0
    6.5537   -1.8802   -2.3912 N   0  0  0  0  0  0  0  0  0  0  0  0
    7.8383   -1.5413   -0.5545 O   0  0  0  0  0  0  0  0  0  0  0  0
    3.7859   -1.4016   -1.7516 O   0  0  0  0  0  0  0  0  0  0  0  0
    1.3665    0.9152    0.2058 H   0  0  0  0  0  0  0  0  0  0  0  0
    1.4357   -0.8171   -0.1400 H   0  0  0  0  0  0  0  0  0  0  0  0
    1.7637    0.3365   -1.4266 H   0  0  0  0  0  0  0  0  0  0  0  0
    2.8026   -2.8262   -0.5734 H   0  0  0  0  0  0  0  0  0  0  0  0
    4.4300   -3.3015   -1.1491 H   0  0  0  0  0  0  0  0  0  0  0  0
    3.0643   -3.2194   -2.2972 H   0  0  0  0  0  0  0  0  0  0  0  0
    5.5820    1.5994    2.1726 H   0  0  0  0  0  0  0  0  0  0  0  0
    3.1681    1.5833    1.5973 H   0  0  0  0  0  0  0  0  0  0  0  0
    7.1708    0.2006    0.8732 H   0  0  0  0  0  0  0  0  0  0  0  0
    5.6307   -1.6815   -2.7758 H   0  0  0  0  0  0  0  0  0  0  0  0
    8.4183   -2.0066   -1.1855 H   0  0  0  0  0  0  0  0  0  0  0  0
  1 14  1  0  0  0  0
  1  6  1  0  0  0  0
  1 13  1  0  0  0  0
  2 17  1  0  0  0  0
  2 16  1  0  0  0  0
  3 19  1  0  0  0  0
  4  3  1  0  0  0  0
  4 20  1  0  0  0  0
  5 21  1  0  0  0  0
  5  3  2  0  0  0  0
  6  4  2  0  0  0  0
  7  5  1  0  0  0  0
  8  7  2  0  0  0  0
  8  6  1  0  0  0  0
  9 11  1  0  0  0  0
  9  7  1  0  0  0  0
 10  9  2  0  0  0  0
 12  2  1  0  0  0  0
 12  8  1  0  0  0  0
 15  1  1  0  0  0  0
 18  2  1  0  0  0  0
 22 10  1  0  0  0  0
 23 11  1  0  0  0  0
M  END
>  <HBA>
3

>  <HBD>
1

>  <TPSA>
52.32

>  <cid>
56081

>  <dipole>
2.42

>  <excitation_energy_1>
4.751

>  <excitation_energy_2>
5.018

>  <excitation_energy_3>
5.233

>  <excitation_energy_4>
5.746

>  <homo_energy>
-6.539

>  <homo_lumo_gap>
5.622

>  <logP>
1.803

>  <lumo_energy>
-0.917

>  <melting_point>
104.07

>  <molecular_refractivity>
45.99

>  <oscillator_strength_1>
0.0256

>  <oscillator_strength_2>
0.0015

>  <oscillator_strength_3>
0.1805

>  <oscillator_strength_4>
0.0163

>  <open_babel_can_smiles>
COc1c(C)cccc1C(=N)O

>  <mulliken_charges>
23
1   -0.5208
2   -0.219811
3   -0.118487
4   -0.194671
5   -0.192916
6   0.156578
7   0.107436
8   0.208192
9   0.427422
10   -0.647574
11   -0.60148
12   -0.533091
13   0.152896
14   0.159881
15   0.177045
16   0.150137
17   0.164545
18   0.167642
19   0.134251
20   0.129736
21   0.163765
22   0.317908
23   0.411396

>  <lowdin_charges>
23
1   -0.438074
2   -0.275874
3   -0.161236
4   -0.154939
5   -0.141594
6   -0.017423
7   -0.055337
8   0.088689
9   0.130131
10   -0.432039
11   -0.375745
12   -0.237144
13   0.158179
14   0.159133
15   0.167803
16   0.144899
17   0.152044
18   0.161667
19   0.161978
20   0.159943
21   0.174193
22   0.268863
23   0.361884

$$$$

