PCCDB-ID:  5665
public computational chemistry database (PCCDB) project, http://pccdb.org

 20 19  0  0  1  0  0  0  0  0999 V2000
   -0.2082    1.4956    1.4233 C   0  0  0  0  0  0  0  0  0  0  0  0
    0.8193    0.7767    1.8859 C   0  0  0  0  0  0  0  0  0  0  0  0
    1.9660   -1.4745    1.7809 C   0  0  0  0  0  0  0  0  0  0  0  0
    0.7231   -2.2311    2.3068 C   0  0  0  0  0  0  0  0  0  0  0  0
    1.7208   -0.1143    1.0581 C   0  0  1  0  0  0  0  0  0  0  0  0
   -0.2770   -2.6237    1.2267 C   0  0  0  0  0  0  0  0  0  0  0  0
    1.2697   -0.1870   -0.3321 N   0  0  0  0  0  0  0  0  0  0  0  0
   -0.2702   -3.6847    0.6544 O   0  0  0  0  0  0  0  0  0  0  0  0
   -1.2072   -1.6792    0.9005 O   0  0  0  0  0  0  0  0  0  0  0  0
   -0.8024    2.1224    2.0830 H   0  0  0  0  0  0  0  0  0  0  0  0
   -0.4485    1.5119    0.3642 H   0  0  0  0  0  0  0  0  0  0  0  0
    1.0614    0.8135    2.9494 H   0  0  0  0  0  0  0  0  0  0  0  0
    2.5225   -2.1303    1.1000 H   0  0  0  0  0  0  0  0  0  0  0  0
    2.6201   -1.2963    2.6453 H   0  0  0  0  0  0  0  0  0  0  0  0
    0.2233   -1.6339    3.0797 H   0  0  0  0  0  0  0  0  0  0  0  0
    1.0538   -3.1633    2.7724 H   0  0  0  0  0  0  0  0  0  0  0  0
    2.7051    0.3788    1.0284 H   0  0  0  0  0  0  0  0  0  0  0  0
    0.3872   -0.6884   -0.4101 H   0  0  0  0  0  0  0  0  0  0  0  0
    1.9502   -0.6959   -0.8918 H   0  0  0  0  0  0  0  0  0  0  0  0
   -1.0538   -0.8590    1.4099 H   0  0  0  0  0  0  0  0  0  0  0  0
  1  2  2  0  0  0  0
  1 10  1  0  0  0  0
  2 12  1  0  0  0  0
  3  4  1  0  0  0  0
  3 14  1  0  0  0  0
  4 16  1  0  0  0  0
  4 15  1  0  0  0  0
  5 17  1  6  0  0  0
  5  3  1  0  0  0  0
  5  2  1  0  0  0  0
  6  4  1  0  0  0  0
  7  5  1  0  0  0  0
  8  6  2  0  0  0  0
  9  6  1  0  0  0  0
  9 20  1  0  0  0  0
 11  1  1  0  0  0  0
 13  3  1  0  0  0  0
 18  7  1  0  0  0  0
 19  7  1  0  0  0  0
M  END
>  <HBA>
3

>  <HBD>
2

>  <TPSA>
63.32

>  <cid>
5665

>  <dipole>
4.01

>  <excitation_energy_1>
5.338

>  <excitation_energy_2>
5.539

>  <excitation_energy_3>
5.747

>  <excitation_energy_4>
5.993

>  <homo_energy>
-6.634

>  <homo_lumo_gap>
6.514

>  <logP>
1.065

>  <lumo_energy>
-0.12

>  <melting_point>
84.25

>  <molecular_refractivity>
34.96

>  <oscillator_strength_1>
0.0223

>  <oscillator_strength_2>
0.0008

>  <oscillator_strength_3>
0.0055

>  <oscillator_strength_4>
0.0057

>  <open_babel_can_smiles>
N[C@@H](C=C)CCC(=O)O

>  <mulliken_charges>
20
1   -0.357399
2   -0.085395
3   -0.278689
4   -0.367996
5   -0.017574
6   0.574258
7   -0.733427
8   -0.436681
9   -0.580758
10   0.148923
11   0.17922
12   0.134444
13   0.155431
14   0.144296
15   0.149897
16   0.181093
17   0.158292
18   0.318595
19   0.305512
20   0.407958

>  <lowdin_charges>
20
1   -0.343545
2   -0.159449
3   -0.289444
4   -0.320013
5   -0.072979
6   0.187968
7   -0.555052
8   -0.240667
9   -0.372106
10   0.16455
11   0.17442
12   0.152648
13   0.155615
14   0.151861
15   0.154967
16   0.177169
17   0.157528
18   0.262082
19   0.263825
20   0.350621

$$$$

