PCCDB-ID:  13067
public computational chemistry database (PCCDB) project, http://pccdb.org

 28 29  0  0  0  0  0  0  0  0999 V2000
    2.7855    1.8187    3.0704 C   0  0  0  0  0  0  0  0  0  0  0  0
    3.9603    0.8579    3.1627 C   0  0  0  0  0  0  0  0  0  0  0  0
    5.1222    4.9588   -0.1560 C   0  0  0  0  0  0  0  0  0  0  0  0
    4.4076    5.5356   -1.2265 C   0  0  0  0  0  0  0  0  0  0  0  0
    5.2393    3.5804   -0.0294 C   0  0  0  0  0  0  0  0  0  0  0  0
    3.7946    4.7450   -2.1913 C   0  0  0  0  0  0  0  0  0  0  0  0
    5.1507    0.2481   -0.3131 C   0  0  0  0  0  0  0  0  0  0  0  0
    3.8156    1.1227   -2.3214 C   0  0  0  0  0  0  0  0  0  0  0  0
    4.5569    1.3246   -1.1843 C   0  0  0  0  0  0  0  0  0  0  0  0
    4.6336    2.7532   -0.9922 C   0  0  0  0  0  0  0  0  0  0  0  0
    3.9175    3.3574   -2.0623 C   0  0  0  0  0  0  0  0  0  0  0  0
    4.3284    0.0373    0.9522 C   0  0  0  0  0  0  0  0  0  0  0  0
    3.4284    2.3373   -2.8532 N   0  0  0  0  0  0  0  0  0  0  0  0
    3.4140   -0.7505    1.0596 O   0  0  0  0  0  0  0  0  0  0  0  0
    4.7365    0.8696    1.9388 O   0  0  0  0  0  0  0  0  0  0  0  0
    2.2491    1.8452    4.0261 H   0  0  0  0  0  0  0  0  0  0  0  0
    2.0858    1.4947    2.2943 H   0  0  0  0  0  0  0  0  0  0  0  0
    3.1272    2.8314    2.8342 H   0  0  0  0  0  0  0  0  0  0  0  0
    3.6263   -0.1641    3.3555 H   0  0  0  0  0  0  0  0  0  0  0  0
    4.6711    1.1592    3.9365 H   0  0  0  0  0  0  0  0  0  0  0  0
    5.5868    5.6077    0.5815 H   0  0  0  0  0  0  0  0  0  0  0  0
    4.3325    6.6173   -1.2974 H   0  0  0  0  0  0  0  0  0  0  0  0
    5.7771    3.1423    0.8056 H   0  0  0  0  0  0  0  0  0  0  0  0
    3.2425    5.1892   -3.0156 H   0  0  0  0  0  0  0  0  0  0  0  0
    6.1799    0.5017   -0.0355 H   0  0  0  0  0  0  0  0  0  0  0  0
    5.1604   -0.7038   -0.8510 H   0  0  0  0  0  0  0  0  0  0  0  0
    3.5329    0.1962   -2.8025 H   0  0  0  0  0  0  0  0  0  0  0  0
    2.8882    2.4575   -3.6954 H   0  0  0  0  0  0  0  0  0  0  0  0
  1  2  1  0  0  0  0
  1 16  1  0  0  0  0
  2 19  1  0  0  0  0
  2 20  1  0  0  0  0
  3  5  1  0  0  0  0
  3 21  1  0  0  0  0
  4  3  2  0  0  0  0
  5 23  1  0  0  0  0
  6 11  2  0  0  0  0
  6  4  1  0  0  0  0
  7 25  1  0  0  0  0
  7 12  1  0  0  0  0
  8  9  2  0  0  0  0
  9 10  1  0  0  0  0
  9  7  1  0  0  0  0
 10  5  2  0  0  0  0
 11 10  1  0  0  0  0
 12 14  2  0  0  0  0
 12 15  1  0  0  0  0
 13  8  1  0  0  0  0
 13 11  1  0  0  0  0
 15  2  1  0  0  0  0
 17  1  1  0  0  0  0
 18  1  1  0  0  0  0
 22  4  1  0  0  0  0
 24  6  1  0  0  0  0
 26  7  1  0  0  0  0
 27  8  1  0  0  0  0
 28 13  1  0  0  0  0
M  END
>  <HBA>
2

>  <HBD>
1

>  <TPSA>
42.09

>  <cid>
13067

>  <dipole>
1.67

>  <excitation_energy_1>
4.544

>  <excitation_energy_2>
4.782

>  <excitation_energy_3>
4.826

>  <excitation_energy_4>
5.02

>  <homo_energy>
-5.421

>  <homo_lumo_gap>
5.206

>  <logP>
2.273

>  <lumo_energy>
-0.215

>  <melting_point>
110.21

>  <molecular_refractivity>
58.97

>  <oscillator_strength_1>
0.0798

>  <oscillator_strength_2>
0.0033

>  <oscillator_strength_3>
0.0222

>  <oscillator_strength_4>
0.0264

>  <open_babel_can_smiles>
CCOC(=O)Cc1c[nH]c2c1cccc2

>  <mulliken_charges>
28
1   -0.460835
2   -0.048134
3   -0.142976
4   -0.150229
5   -0.208036
6   -0.162862
7   -0.419181
8   0.011337
9   0.054049
10   0.08331
11   0.31454
12   0.618185
13   -0.690708
14   -0.475789
15   -0.451908
16   0.146903
17   0.175745
18   0.164511
19   0.171311
20   0.150003
21   0.119786
22   0.122523
23   0.13755
24   0.12075
25   0.16984
26   0.168202
27   0.154238
28   0.327876

>  <lowdin_charges>
28
1   -0.454277
2   -0.129004
3   -0.178594
4   -0.16182
5   -0.164345
6   -0.187721
7   -0.284752
8   -0.129019
9   -0.061607
10   -0.035066
11   0.030853
12   0.199298
13   -0.196004
14   -0.269417
15   -0.197033
16   0.156938
17   0.166452
18   0.159034
19   0.158224
20   0.152035
21   0.155536
22   0.153507
23   0.162579
24   0.15593
25   0.167033
26   0.171281
27   0.168096
28   0.291863

$$$$

