PCCDB-ID:  8008
public computational chemistry database (PCCDB) project, http://pccdb.org

 12 11  0  0  0  0  0  0  0  0999 V2000
    0.8468   -0.0621    0.0397 C   0  0  0  0  0  0  0  0  0  0  0  0
    2.3772   -0.0590    0.0450 C   0  0  0  0  0  0  0  0  0  0  0  0
    2.9555   -1.0536   -0.9843 C   0  0  0  0  0  0  0  0  0  0  0  0
    4.4214   -1.0705   -0.9963 C   0  0  0  0  0  0  0  0  0  0  0  0
    5.5823   -1.0701   -0.9911 N   0  0  0  0  0  0  0  0  0  0  0  0
    0.4541    0.6483    0.7746 H   0  0  0  0  0  0  0  0  0  0  0  0
    0.4486   -1.0532    0.2883 H   0  0  0  0  0  0  0  0  0  0  0  0
    0.4501    0.2209   -0.9427 H   0  0  0  0  0  0  0  0  0  0  0  0
    2.7532   -0.3193    1.0412 H   0  0  0  0  0  0  0  0  0  0  0  0
    2.7549    0.9452   -0.1801 H   0  0  0  0  0  0  0  0  0  0  0  0
    2.6034   -0.8025   -1.9931 H   0  0  0  0  0  0  0  0  0  0  0  0
    2.5988   -2.0696   -0.7711 H   0  0  0  0  0  0  0  0  0  0  0  0
  1  2  1  0  0  0  0
  1  7  1  0  0  0  0
  1  6  1  0  0  0  0
  2  9  1  0  0  0  0
  3 12  1  0  0  0  0
  3  2  1  0  0  0  0
  4  5  3  0  0  0  0
  4  3  1  0  0  0  0
  8  1  1  0  0  0  0
 10  2  1  0  0  0  0
 11  3  1  0  0  0  0
M  END
>  <HBA>
1

>  <HBD>
0

>  <TPSA>
23.79

>  <cid>
8008

>  <dipole>
4.05

>  <excitation_energy_1>
7.6

>  <excitation_energy_2>
7.834

>  <excitation_energy_3>
7.907

>  <excitation_energy_4>
8.127

>  <homo_energy>
-8.67

>  <homo_lumo_gap>
9.636

>  <logP>
1.31

>  <lumo_energy>
0.966

>  <melting_point>
8.67

>  <molecular_refractivity>
21.09

>  <oscillator_strength_1>
0.0

>  <oscillator_strength_2>
0.0173

>  <oscillator_strength_3>
0.0001

>  <oscillator_strength_4>
0.0006

>  <open_babel_can_smiles>
CCCC#N

>  <mulliken_charges>
12
1   -0.446674
2   -0.25712
3   -0.334591
4   0.347069
5   -0.472519
6   0.158889
7   0.150156
8   0.150145
9   0.161684
10   0.16165
11   0.19066
12   0.190651

>  <lowdin_charges>
12
1   -0.445219
2   -0.262374
3   -0.271274
4   -0.019413
5   -0.130062
6   0.1605
7   0.150776
8   0.150879
9   0.155106
10   0.154977
11   0.178104
12   0.178

$$$$

