PCCDB-ID:  52733
public computational chemistry database (PCCDB) project, http://pccdb.org

 19 19  0  0  0  0  0  0  0  0999 V2000
   -2.2403   -3.0169    0.2343 C   0  0  0  0  0  0  0  0  0  0  0  0
   -0.8381   -3.0243    0.0102 C   0  0  0  0  0  0  0  0  0  0  0  0
    3.4146   -1.7663   -0.4525 C   0  0  0  0  0  0  0  0  0  0  0  0
    4.3255   -2.6380    0.4213 C   0  0  0  0  0  0  0  0  0  0  0  0
   -2.7327   -1.7607    0.4836 C   0  0  0  0  0  0  0  0  0  0  0  0
    1.1254   -1.3846   -0.0767 C   0  0  0  0  0  0  0  0  0  0  0  0
   -0.2695   -1.7718    0.0904 C   0  0  0  0  0  0  0  0  0  0  0  0
    2.0473   -2.2374   -0.3058 N   0  0  0  0  0  0  0  0  0  0  0  0
    4.1919   -4.0059    0.0861 O   0  0  0  0  0  0  0  0  0  0  0  0
   -1.4856   -0.5638    0.4471 S   0  0  0  0  0  0  0  0  0  0  0  0
   -2.8614   -3.9057    0.2137 H   0  0  0  0  0  0  0  0  0  0  0  0
   -0.2508   -3.9085   -0.2076 H   0  0  0  0  0  0  0  0  0  0  0  0
    3.7107   -1.9087   -1.5008 H   0  0  0  0  0  0  0  0  0  0  0  0
    3.5333   -0.6980   -0.2011 H   0  0  0  0  0  0  0  0  0  0  0  0
    4.0888   -2.4565    1.4835 H   0  0  0  0  0  0  0  0  0  0  0  0
    5.3741   -2.3654    0.2601 H   0  0  0  0  0  0  0  0  0  0  0  0
   -3.7551   -1.4709    0.6859 H   0  0  0  0  0  0  0  0  0  0  0  0
    1.3425   -0.3071   -0.0002 H   0  0  0  0  0  0  0  0  0  0  0  0
    3.2326   -4.1571    0.0218 H   0  0  0  0  0  0  0  0  0  0  0  0
  1  5  2  0  0  0  0
  2  7  2  0  0  0  0
  2  1  1  0  0  0  0
  3  8  1  0  0  0  0
  3 14  1  0  0  0  0
  3  4  1  0  0  0  0
  4 15  1  0  0  0  0
  5 17  1  0  0  0  0
  6 18  1  0  0  0  0
  6  7  1  0  0  0  0
  7 10  1  0  0  0  0
  8  6  2  0  0  0  0
  9  4  1  0  0  0  0
 10  5  1  0  0  0  0
 11  1  1  0  0  0  0
 12  2  1  0  0  0  0
 13  3  1  0  0  0  0
 16  4  1  0  0  0  0
 19  9  1  0  0  0  0
M  END
>  <HBA>
3

>  <HBD>
1

>  <TPSA>
60.83

>  <cid>
52733

>  <dipole>
2.98

>  <excitation_energy_1>
4.429

>  <excitation_energy_2>
4.456

>  <excitation_energy_3>
4.892

>  <excitation_energy_4>
4.949

>  <homo_energy>
-6.324

>  <homo_lumo_gap>
4.765

>  <logP>
1.159

>  <lumo_energy>
-1.559

>  <melting_point>
41.53

>  <molecular_refractivity>
43.75

>  <oscillator_strength_1>
0.0227

>  <oscillator_strength_2>
0.4212

>  <oscillator_strength_3>
0.023

>  <oscillator_strength_4>
0.0459

>  <open_babel_can_smiles>
OCC/N=C/c1cccs1

>  <mulliken_charges>
19
1   -0.097285
2   -0.106301
3   -0.16054
4   -0.015518
5   -0.341494
6   0.066337
7   -0.148558
8   -0.392482
9   -0.624572
10   0.260741
11   0.149973
12   0.160362
13   0.162621
14   0.11975
15   0.120487
16   0.141002
17   0.180445
18   0.123513
19   0.401518

>  <lowdin_charges>
19
1   -0.175963
2   -0.157501
3   -0.217856
4   -0.132139
5   -0.309904
6   -0.065985
7   -0.174101
8   -0.181905
9   -0.468966
10   0.325207
11   0.170222
12   0.178196
13   0.155567
14   0.12866
15   0.123955
16   0.145328
17   0.185299
18   0.132405
19   0.339482

$$$$

