PCCDB-ID:  47917
public computational chemistry database (PCCDB) project, http://pccdb.org

 28 30  0  0  1  0  0  0  0  0999 V2000
   -0.7743    1.0613    1.2129 C   0  0  0  0  0  0  0  0  0  0  0  0
   -1.0077    0.7697   -1.2872 C   0  0  0  0  0  0  0  0  0  0  0  0
    0.9854   -0.7524    1.2599 C   0  0  0  0  0  0  0  0  0  0  0  0
    0.7524   -1.0434   -1.2399 C   0  0  0  0  0  0  0  0  0  0  0  0
   -1.5358    0.3061    0.0942 C   0  0  1  0  0  0  0  0  0  0  0  0
    0.7429    0.7697    1.1050 C   0  0  1  0  0  0  0  0  0  0  0  0
    0.5099    0.4787   -1.4042 C   0  0  2  0  0  0  0  0  0  0  0  0
    0.2311   -1.5128    0.1410 C   0  0  2  0  0  0  0  0  0  0  0  0
   -1.2404   -1.1724    0.2403 C   0  0  0  0  0  0  0  0  0  0  0  0
    1.2161    1.1915   -0.2698 C   0  0  0  0  0  0  0  0  0  0  0  0
   -2.0681   -2.1287    0.4326 N   0  0  0  0  0  0  0  0  0  0  0  0
    2.1351    2.0783   -0.3442 N   0  0  0  0  0  0  0  0  0  0  0  0
   -3.4082   -1.6702    0.5081 O   0  0  0  0  0  0  0  0  0  0  0  0
    2.4831    2.3782   -1.6862 O   0  0  0  0  0  0  0  0  0  0  0  0
   -1.1445    0.7510    2.1981 H   0  0  0  0  0  0  0  0  0  0  0  0
   -0.9572    2.1393    1.1190 H   0  0  0  0  0  0  0  0  0  0  0  0
   -1.1967    1.8435   -1.4111 H   0  0  0  0  0  0  0  0  0  0  0  0
   -1.5446    0.2498   -2.0906 H   0  0  0  0  0  0  0  0  0  0  0  0
    0.6357   -1.0878    2.2445 H   0  0  0  0  0  0  0  0  0  0  0  0
    2.0592   -0.9706    1.2001 H   0  0  0  0  0  0  0  0  0  0  0  0
    1.8227   -1.2680   -1.3301 H   0  0  0  0  0  0  0  0  0  0  0  0
    0.2350   -1.5867   -2.0409 H   0  0  0  0  0  0  0  0  0  0  0  0
   -2.6092    0.4878    0.1726 H   0  0  0  0  0  0  0  0  0  0  0  0
    1.2976    1.3284    1.8656 H   0  0  0  0  0  0  0  0  0  0  0  0
    0.8919    0.8253   -2.3661 H   0  0  0  0  0  0  0  0  0  0  0  0
    0.3605   -2.5940    0.2541 H   0  0  0  0  0  0  0  0  0  0  0  0
   -3.8886   -2.4999    0.6509 H   0  0  0  0  0  0  0  0  0  0  0  0
    3.1731    3.0475   -1.5621 H   0  0  0  0  0  0  0  0  0  0  0  0
  1 15  1  0  0  0  0
  2  5  1  0  0  0  0
  3 19  1  0  0  0  0
  4  8  1  0  0  0  0
  5 23  1  1  0  0  0
  5  9  1  0  0  0  0
  5  1  1  0  0  0  0
  6  1  1  0  0  0  0
  6  3  1  0  0  0  0
  6 24  1  1  0  0  0
  7 25  1  6  0  0  0
  7  2  1  0  0  0  0
  7  4  1  0  0  0  0
  7 10  1  0  0  0  0
  8  9  1  0  0  0  0
  8 26  1  1  0  0  0
  8  3  1  0  0  0  0
  9 11  2  0  0  0  0
 10  6  1  0  0  0  0
 11 13  1  0  0  0  0
 12 10  2  0  0  0  0
 13 27  1  0  0  0  0
 14 28  1  0  0  0  0
 14 12  1  0  0  0  0
 16  1  1  0  0  0  0
 17  2  1  0  0  0  0
 18  2  1  0  0  0  0
 20  3  1  0  0  0  0
 21  4  1  0  0  0  0
 22  4  1  0  0  0  0
M  END
>  <HBA>
4

>  <HBD>
2

>  <TPSA>
65.18

>  <cid>
47917

>  <dipole>
0.01

>  <excitation_energy_1>
5.942

>  <excitation_energy_2>
5.961

>  <excitation_energy_3>
6.045

>  <excitation_energy_4>
6.054

>  <homo_energy>
-6.509

>  <homo_lumo_gap>
6.852

>  <logP>
1.713

>  <lumo_energy>
0.343

>  <melting_point>
182.06

>  <molecular_refractivity>
52.67

>  <oscillator_strength_1>
0.0007

>  <oscillator_strength_2>
0.0007

>  <oscillator_strength_3>
0.0007

>  <oscillator_strength_4>
0.0007

>  <open_babel_can_smiles>
O/N=C/1\[C@@H]2C[C@@H]3C[C@H]1C[C@H](C2)/C/3=N/O

>  <mulliken_charges>
28
1   -0.278509
2   -0.279714
3   -0.277925
4   -0.278651
5   -0.161106
6   -0.154513
7   -0.161866
8   -0.153867
9   0.355549
10   0.356069
11   -0.278843
12   -0.278668
13   -0.517875
14   -0.51796
15   0.147923
16   0.146493
17   0.148391
18   0.148395
19   0.146076
20   0.146043
21   0.14793
22   0.146466
23   0.166574
24   0.145177
25   0.166691
26   0.145095
27   0.413306
28   0.413319

>  <lowdin_charges>
28
1   -0.270531
2   -0.269494
3   -0.273443
4   -0.272265
5   -0.143017
6   -0.131937
7   -0.145133
8   -0.128799
9   0.015105
10   0.015743
11   -0.076751
12   -0.077864
13   -0.396655
14   -0.396642
15   0.150468
16   0.148316
17   0.149311
18   0.152186
19   0.149592
20   0.148219
21   0.149198
22   0.151283
23   0.164913
24   0.159071
25   0.166697
26   0.155754
27   0.353063
28   0.353612

$$$$

