PCCDB-ID:  17816
public computational chemistry database (PCCDB) project, http://pccdb.org

 24 23  0  0  0  0  0  0  0  0999 V2000
    9.1682   -1.3736   -0.3342 C   0  0  0  0  0  0  0  0  0  0  0  0
    2.1020   -1.3824   -2.7581 C   0  0  0  0  0  0  0  0  0  0  0  0
    2.4176   -3.6179   -3.9071 C   0  0  0  0  0  0  0  0  0  0  0  0
    7.8368   -1.4104   -0.3819 C   0  0  0  0  0  0  0  0  0  0  0  0
    7.0067   -0.4404   -1.1691 C   0  0  0  0  0  0  0  0  0  0  0  0
    4.4252   -2.3746   -3.0227 C   0  0  0  0  0  0  0  0  0  0  0  0
    2.9319   -2.6734   -2.8117 C   0  0  0  0  0  0  0  0  0  0  0  0
    5.0871   -1.6859   -1.8439 C   0  0  0  0  0  0  0  0  0  0  0  0
    4.6645   -1.6723   -0.7059 O   0  0  0  0  0  0  0  0  0  0  0  0
    6.2498   -1.1034   -2.2184 O   0  0  0  0  0  0  0  0  0  0  0  0
    9.7390   -2.0763    0.2666 H   0  0  0  0  0  0  0  0  0  0  0  0
    9.7410   -0.6330   -0.8892 H   0  0  0  0  0  0  0  0  0  0  0  0
    1.0432   -1.6066   -2.5841 H   0  0  0  0  0  0  0  0  0  0  0  0
    2.1735   -0.8308   -3.7051 H   0  0  0  0  0  0  0  0  0  0  0  0
    2.4411   -0.7260   -1.9507 H   0  0  0  0  0  0  0  0  0  0  0  0
    1.3605   -3.8607   -3.7487 H   0  0  0  0  0  0  0  0  0  0  0  0
    2.9789   -4.5600   -3.9231 H   0  0  0  0  0  0  0  0  0  0  0  0
    2.5065   -3.1595   -4.9007 H   0  0  0  0  0  0  0  0  0  0  0  0
    7.2816   -2.1570    0.1824 H   0  0  0  0  0  0  0  0  0  0  0  0
    7.6339    0.2814   -1.6969 H   0  0  0  0  0  0  0  0  0  0  0  0
    6.3004    0.0874   -0.5210 H   0  0  0  0  0  0  0  0  0  0  0  0
    4.5879   -1.7701   -3.9234 H   0  0  0  0  0  0  0  0  0  0  0  0
    4.9799   -3.3102   -3.1867 H   0  0  0  0  0  0  0  0  0  0  0  0
    2.8359   -3.1776   -1.8418 H   0  0  0  0  0  0  0  0  0  0  0  0
  1 11  1  0  0  0  0
  2 13  1  0  0  0  0
  2 15  1  0  0  0  0
  3 16  1  0  0  0  0
  3  7  1  0  0  0  0
  4  1  2  0  0  0  0
  4 19  1  0  0  0  0
  5 21  1  0  0  0  0
  5  4  1  0  0  0  0
  6  7  1  0  0  0  0
  6  8  1  0  0  0  0
  7  2  1  0  0  0  0
  7 24  1  0  0  0  0
  8  9  2  0  0  0  0
 10  8  1  0  0  0  0
 10  5  1  0  0  0  0
 12  1  1  0  0  0  0
 14  2  1  0  0  0  0
 17  3  1  0  0  0  0
 18  3  1  0  0  0  0
 20  5  1  0  0  0  0
 22  6  1  0  0  0  0
 23  6  1  0  0  0  0
M  END
>  <HBA>
2

>  <HBD>
0

>  <TPSA>
26.3

>  <cid>
17816

>  <dipole>
1.45

>  <excitation_energy_1>
5.795

>  <excitation_energy_2>
6.473

>  <excitation_energy_3>
6.691

>  <excitation_energy_4>
6.934

>  <homo_energy>
-7.225

>  <homo_lumo_gap>
7.334

>  <logP>
1.762

>  <lumo_energy>
0.109

>  <melting_point>
-36.05

>  <molecular_refractivity>
41.38

>  <oscillator_strength_1>
0.0009

>  <oscillator_strength_2>
0.0221

>  <oscillator_strength_3>
0.047

>  <oscillator_strength_4>
0.1086

>  <open_babel_can_smiles>
C=CCOC(=O)CC(C)C

>  <mulliken_charges>
24
1   -0.330858
2   -0.451619
3   -0.446825
4   -0.061495
5   -0.094686
6   -0.35485
7   -0.062539
8   0.623652
9   -0.486196
10   -0.460617
11   0.149443
12   0.142312
13   0.142934
14   0.133813
15   0.161607
16   0.14524
17   0.139764
18   0.138995
19   0.157464
20   0.155487
21   0.175396
22   0.163187
23   0.171138
24   0.149253

>  <lowdin_charges>
24
1   -0.323799
2   -0.4475
3   -0.441858
4   -0.159902
5   -0.131554
6   -0.302477
7   -0.11671
8   0.199591
9   -0.273599
10   -0.194524
11   0.164802
12   0.158235
13   0.14897
14   0.142529
15   0.158758
16   0.14971
17   0.147067
18   0.144847
19   0.167262
20   0.158477
21   0.165879
22   0.164137
23   0.171148
24   0.150511

$$$$

