PCCDB-ID:  8862
public computational chemistry database (PCCDB) project, http://pccdb.org

 21 21  0  0  1  0  0  0  0  0999 V2000
    0.9540   -0.1904   -0.4425 C   0  0  0  0  0  0  0  0  0  0  0  0
    1.0403    1.4696    2.5028 C   0  0  0  0  0  0  0  0  0  0  0  0
    3.0191   -1.1919    0.6620 C   0  0  0  0  0  0  0  0  0  0  0  0
    3.0771   -0.0482    2.6964 C   0  0  0  0  0  0  0  0  0  0  0  0
    2.4446    0.0072   -0.1033 C   0  0  2  0  0  0  0  0  0  0  0  0
    2.5086    1.2430    2.0943 C   0  0  1  0  0  0  0  0  0  0  0  0
    2.7932    1.2224    0.6503 N   0  0  0  0  0  0  0  0  0  0  0  0
    2.5869   -1.1987    2.0177 O   0  0  0  0  0  0  0  0  0  0  0  0
    0.8374   -0.9809   -1.1950 H   0  0  0  0  0  0  0  0  0  0  0  0
    0.5218    0.7281   -0.8579 H   0  0  0  0  0  0  0  0  0  0  0  0
    0.3702   -0.4773    0.4364 H   0  0  0  0  0  0  0  0  0  0  0  0
    0.9742    1.6934    3.5753 H   0  0  0  0  0  0  0  0  0  0  0  0
    0.4226    0.5893    2.3062 H   0  0  0  0  0  0  0  0  0  0  0  0
    0.6100    2.3200    1.9600 H   0  0  0  0  0  0  0  0  0  0  0  0
    4.1200   -1.1592    0.6246 H   0  0  0  0  0  0  0  0  0  0  0  0
    2.6796   -2.1350    0.2228 H   0  0  0  0  0  0  0  0  0  0  0  0
    2.7794   -0.1550    3.7440 H   0  0  0  0  0  0  0  0  0  0  0  0
    4.1776   -0.0267    2.6409 H   0  0  0  0  0  0  0  0  0  0  0  0
    2.9916    0.0731   -1.0553 H   0  0  0  0  0  0  0  0  0  0  0  0
    3.0963    2.0760    2.5077 H   0  0  0  0  0  0  0  0  0  0  0  0
    2.3949    2.0433    0.2003 H   0  0  0  0  0  0  0  0  0  0  0  0
  1  5  1  0  0  0  0
  1 11  1  0  0  0  0
  2 12  1  0  0  0  0
  3  8  1  0  0  0  0
  4 17  1  0  0  0  0
  5 19  1  6  0  0  0
  5  7  1  0  0  0  0
  5  3  1  0  0  0  0
  6  2  1  0  0  0  0
  6 20  1  1  0  0  0
  6  4  1  0  0  0  0
  7  6  1  0  0  0  0
  8  4  1  0  0  0  0
  9  1  1  0  0  0  0
 10  1  1  0  0  0  0
 13  2  1  0  0  0  0
 14  2  1  0  0  0  0
 15  3  1  0  0  0  0
 16  3  1  0  0  0  0
 18  4  1  0  0  0  0
 21  7  1  0  0  0  0
M  END
>  <HBA>
2

>  <HBD>
1

>  <TPSA>
21.26

>  <cid>
8862

>  <dipole>
1.24

>  <excitation_energy_1>
5.152

>  <excitation_energy_2>
5.772

>  <excitation_energy_3>
5.879

>  <excitation_energy_4>
6.128

>  <homo_energy>
-5.793

>  <homo_lumo_gap>
7.75

>  <logP>
0.712

>  <lumo_energy>
1.957

>  <melting_point>
14.25

>  <molecular_refractivity>
36.64

>  <oscillator_strength_1>
0.018

>  <oscillator_strength_2>
0.0314

>  <oscillator_strength_3>
0.0015

>  <oscillator_strength_4>
0.0188

>  <open_babel_can_smiles>
C[C@@H]1COC[C@@H](N1)C

>  <mulliken_charges>
21
1   -0.455097
2   -0.454837
3   -0.032415
4   -0.032307
5   0.037598
6   0.037229
7   -0.57434
8   -0.472719
9   0.137201
10   0.133257
11   0.162669
12   0.137188
13   0.162594
14   0.133254
15   0.127624
16   0.140695
17   0.140669
18   0.127604
19   0.126818
20   0.126773
21   0.290541

>  <lowdin_charges>
21
1   -0.466479
2   -0.464474
3   -0.133232
4   -0.13202
5   -0.07561
6   -0.076406
7   -0.370805
8   -0.274906
9   0.148792
10   0.145606
11   0.156262
12   0.146649
13   0.156224
14   0.145997
15   0.13013
16   0.149399
17   0.147606
18   0.130086
19   0.141523
20   0.14259
21   0.253068

$$$$

