PCCDB-ID:  69274
public computational chemistry database (PCCDB) project, http://pccdb.org

 19 19  0  0  0  0  0  0  0  0999 V2000
    0.8385   -0.1252    0.1008 C   0  0  0  0  0  0  0  0  0  0  0  0
    3.0799   -1.2502   -0.2892 C   0  0  0  0  0  0  0  0  0  0  0  0
    3.0293    1.1383   -0.0195 C   0  0  0  0  0  0  0  0  0  0  0  0
    4.4622   -1.2065   -0.4500 C   0  0  0  0  0  0  0  0  0  0  0  0
    4.4121    1.1879   -0.1725 C   0  0  0  0  0  0  0  0  0  0  0  0
    2.3388   -0.0818   -0.0685 C   0  0  0  0  0  0  0  0  0  0  0  0
    5.1475    0.0116   -0.3810 C   0  0  0  0  0  0  0  0  0  0  0  0
    6.6376   -0.0170   -0.5539 C   0  0  0  0  0  0  0  0  0  0  0  0
    7.3215    1.1074   -0.1429 N   0  0  0  0  0  0  0  0  0  0  0  0
    7.2182   -0.9722   -1.0549 O   0  0  0  0  0  0  0  0  0  0  0  0
    0.4617   -1.1517    0.0640 H   0  0  0  0  0  0  0  0  0  0  0  0
    0.3319    0.4456   -0.6875 H   0  0  0  0  0  0  0  0  0  0  0  0
    0.5318    0.3111    1.0595 H   0  0  0  0  0  0  0  0  0  0  0  0
    2.5649   -2.2068   -0.3372 H   0  0  0  0  0  0  0  0  0  0  0  0
    2.4746    2.0617    0.1326 H   0  0  0  0  0  0  0  0  0  0  0  0
    5.0347   -2.1102   -0.6316 H   0  0  0  0  0  0  0  0  0  0  0  0
    4.9111    2.1533   -0.1644 H   0  0  0  0  0  0  0  0  0  0  0  0
    6.9276    1.7014    0.5727 H   0  0  0  0  0  0  0  0  0  0  0  0
    8.3287    1.0116   -0.1356 H   0  0  0  0  0  0  0  0  0  0  0  0
  1 13  1  0  0  0  0
  2  6  2  0  0  0  0
  3 15  1  0  0  0  0
  4  7  2  0  0  0  0
  4  2  1  0  0  0  0
  5 17  1  0  0  0  0
  5  3  2  0  0  0  0
  6  3  1  0  0  0  0
  6  1  1  0  0  0  0
  7  5  1  0  0  0  0
  8  7  1  0  0  0  0
  8  9  1  0  0  0  0
  9 19  1  0  0  0  0
  9 18  1  0  0  0  0
 10  8  2  0  0  0  0
 11  1  1  0  0  0  0
 12  1  1  0  0  0  0
 14  2  1  0  0  0  0
 16  4  1  0  0  0  0
M  END
>  <HBA>
2

>  <HBD>
1

>  <TPSA>
43.09

>  <cid>
69274

>  <dipole>
3.76

>  <excitation_energy_1>
4.562

>  <excitation_energy_2>
4.982

>  <excitation_energy_3>
5.293

>  <excitation_energy_4>
5.681

>  <homo_energy>
-6.591

>  <homo_lumo_gap>
5.693

>  <logP>
1.794

>  <lumo_energy>
-0.898

>  <melting_point>
97.96

>  <molecular_refractivity>
39.5

>  <oscillator_strength_1>
0.0043

>  <oscillator_strength_2>
0.0077

>  <oscillator_strength_3>
0.2506

>  <oscillator_strength_4>
0.0196

>  <open_babel_can_smiles>
NC(=O)c1ccc(cc1)C

>  <mulliken_charges>
19
1   -0.532026
2   -0.187142
3   -0.180258
4   -0.158063
5   -0.183976
6   0.183519
7   0.07765
8   0.524988
9   -0.752117
10   -0.502672
11   0.159384
12   0.167438
13   0.164899
14   0.129428
15   0.126066
16   0.163618
17   0.130649
18   0.329971
19   0.338644

>  <lowdin_charges>
19
1   -0.443154
2   -0.166652
3   -0.166701
4   -0.130132
5   -0.157583
6   0.013742
7   -0.049054
8   0.166858
9   -0.472256
10   -0.302368
11   0.158273
12   0.164954
13   0.162561
14   0.157784
15   0.156824
16   0.177788
17   0.157356
18   0.284269
19   0.287491

$$$$

