PCCDB-ID:  21078
public computational chemistry database (PCCDB) project, http://pccdb.org

 26 27  0  0  0  0  0  0  0  0999 V2000
   -1.5502   -0.1909    0.7464 C   0  0  0  0  0  0  0  0  0  0  0  0
   -0.6068   -0.9294    1.4633 C   0  0  0  0  0  0  0  0  0  0  0  0
   -1.1280    0.6449   -0.2893 C   0  0  0  0  0  0  0  0  0  0  0  0
    0.7469   -0.8347    1.1459 C   0  0  0  0  0  0  0  0  0  0  0  0
    0.2259    0.7425   -0.6046 C   0  0  0  0  0  0  0  0  0  0  0  0
    3.4708   -1.0218   -0.1556 C   0  0  0  0  0  0  0  0  0  0  0  0
    3.1932    1.3270   -0.6349 C   0  0  0  0  0  0  0  0  0  0  0  0
    4.8167   -0.9272   -0.4717 C   0  0  0  0  0  0  0  0  0  0  0  0
    4.5428    1.4305   -0.9551 C   0  0  0  0  0  0  0  0  0  0  0  0
    7.5646    1.5861   -1.6597 C   0  0  0  0  0  0  0  0  0  0  0  0
    1.1872    0.0036    0.1069 C   0  0  0  0  0  0  0  0  0  0  0  0
    2.6277    0.1052   -0.2302 C   0  0  0  0  0  0  0  0  0  0  0  0
    5.3756    0.2997   -0.8768 C   0  0  0  0  0  0  0  0  0  0  0  0
    6.8200    0.3175   -1.1996 C   0  0  0  0  0  0  0  0  0  0  0  0
    7.1056    2.6935   -1.8216 O   0  0  0  0  0  0  0  0  0  0  0  0
    7.5336   -0.6765   -1.1237 O   0  0  0  0  0  0  0  0  0  0  0  0
   -2.6057   -0.2661    0.9928 H   0  0  0  0  0  0  0  0  0  0  0  0
   -0.9242   -1.5755    2.2773 H   0  0  0  0  0  0  0  0  0  0  0  0
   -1.8552    1.2170   -0.8592 H   0  0  0  0  0  0  0  0  0  0  0  0
    1.4742   -1.3933    1.7281 H   0  0  0  0  0  0  0  0  0  0  0  0
    0.5404    1.3751   -1.4298 H   0  0  0  0  0  0  0  0  0  0  0  0
    3.0529   -1.9838    0.1260 H   0  0  0  0  0  0  0  0  0  0  0  0
    2.5711    2.2162   -0.6722 H   0  0  0  0  0  0  0  0  0  0  0  0
    5.4623   -1.7980   -0.4227 H   0  0  0  0  0  0  0  0  0  0  0  0
    4.9567    2.3840   -1.2568 H   0  0  0  0  0  0  0  0  0  0  0  0
    8.6353    1.3522   -1.8371 H   0  0  0  0  0  0  0  0  0  0  0  0
  1 17  1  0  0  0  0
  1  2  2  0  0  0  0
  2 18  1  0  0  0  0
  3  1  1  0  0  0  0
  4  2  1  0  0  0  0
  4 20  1  0  0  0  0
  5  3  2  0  0  0  0
  5 11  1  0  0  0  0
  6 22  1  0  0  0  0
  7 12  2  0  0  0  0
  8 24  1  0  0  0  0
  8  6  2  0  0  0  0
  9 13  2  0  0  0  0
  9  7  1  0  0  0  0
 10 14  1  0  0  0  0
 11  4  2  0  0  0  0
 12  6  1  0  0  0  0
 12 11  1  0  0  0  0
 13  8  1  0  0  0  0
 14 16  2  0  0  0  0
 14 13  1  0  0  0  0
 15 10  2  0  0  0  0
 19  3  1  0  0  0  0
 21  5  1  0  0  0  0
 23  7  1  0  0  0  0
 25  9  1  0  0  0  0
 26 10  1  0  0  0  0
M  END
>  <HBA>
2

>  <HBD>
0

>  <TPSA>
34.14

>  <cid>
21078

>  <dipole>
3.16

>  <excitation_energy_1>
2.571

>  <excitation_energy_2>
3.255

>  <excitation_energy_3>
3.661

>  <excitation_energy_4>
3.763

>  <homo_energy>
-6.482

>  <homo_lumo_gap>
3.684

>  <logP>
2.735

>  <lumo_energy>
-2.797

>  <melting_point>
108.21

>  <molecular_refractivity>
62.27

>  <oscillator_strength_1>
0.0002

>  <oscillator_strength_2>
0.2831

>  <oscillator_strength_3>
0.009

>  <oscillator_strength_4>
0.0025

>  <open_babel_can_smiles>
O=CC(=O)c1ccc(cc1)c1ccccc1

>  <mulliken_charges>
26
1   -0.123747
2   -0.133527
3   -0.133597
4   -0.171127
5   -0.170692
6   -0.178899
7   -0.185702
8   -0.15615
9   -0.182672
10   0.195808
11   0.086847
12   0.104651
13   0.065829
14   0.33704
15   -0.363754
16   -0.452144
17   0.135596
18   0.136177
19   0.136248
20   0.137603
21   0.137904
22   0.142894
23   0.143144
24   0.166337
25   0.183908
26   0.142025

>  <lowdin_charges>
26
1   -0.149662
2   -0.152195
3   -0.153829
4   -0.158764
5   -0.156767
6   -0.161195
7   -0.164117
8   -0.123236
9   -0.137842
10   0.037574
11   -0.005817
12   0.023779
13   -0.053158
14   0.119883
15   -0.184523
16   -0.219507
17   0.159422
18   0.161533
19   0.162437
20   0.163059
21   0.162359
22   0.16451
23   0.165184
24   0.17813
25   0.18358
26   0.139164

$$$$

