PCCDB-ID:  14530
public computational chemistry database (PCCDB) project, http://pccdb.org

 19 19  0  0  0  0  0  0  0  0999 V2000
    3.0006   -1.3987    0.5759 C   0  0  0  0  0  0  0  0  0  0  0  0
    2.5636    2.4264    0.2100 C   0  0  0  0  0  0  0  0  0  0  0  0
    3.3226    3.5906    0.1523 C   0  0  0  0  0  0  0  0  0  0  0  0
    4.5915    1.1357    0.4456 C   0  0  0  0  0  0  0  0  0  0  0  0
    2.3329   -0.0404    0.4132 C   0  0  0  0  0  0  0  0  0  0  0  0
    3.1877    1.1822    0.3575 C   0  0  0  0  0  0  0  0  0  0  0  0
    4.7158    3.5421    0.2406 C   0  0  0  0  0  0  0  0  0  0  0  0
    5.3577    2.2943    0.3892 C   0  0  0  0  0  0  0  0  0  0  0  0
    1.1155    0.0403    0.3264 O   0  0  0  0  0  0  0  0  0  0  0  0
    5.5107    4.6450    0.1914 O   0  0  0  0  0  0  0  0  0  0  0  0
    6.7214    2.3073    0.4701 O   0  0  0  0  0  0  0  0  0  0  0  0
    3.6052   -1.4394    1.4899 H   0  0  0  0  0  0  0  0  0  0  0  0
    3.6663   -1.6137   -0.2690 H   0  0  0  0  0  0  0  0  0  0  0  0
    2.2243   -2.1641    0.6235 H   0  0  0  0  0  0  0  0  0  0  0  0
    1.4819    2.4584    0.1420 H   0  0  0  0  0  0  0  0  0  0  0  0
    2.8353    4.5575    0.0375 H   0  0  0  0  0  0  0  0  0  0  0  0
    5.1036    0.1831    0.5603 H   0  0  0  0  0  0  0  0  0  0  0  0
    4.9483    5.4286    0.0868 H   0  0  0  0  0  0  0  0  0  0  0  0
    7.0340    1.3947    0.5694 H   0  0  0  0  0  0  0  0  0  0  0  0
  1 14  1  0  0  0  0
  1 12  1  0  0  0  0
  2  6  1  0  0  0  0
  3  2  2  0  0  0  0
  3  7  1  0  0  0  0
  4 17  1  0  0  0  0
  5  1  1  0  0  0  0
  6  5  1  0  0  0  0
  6  4  2  0  0  0  0
  7  8  2  0  0  0  0
  8  4  1  0  0  0  0
  8 11  1  0  0  0  0
  9  5  2  0  0  0  0
 10  7  1  0  0  0  0
 11 19  1  0  0  0  0
 13  1  1  0  0  0  0
 15  2  1  0  0  0  0
 16  3  1  0  0  0  0
 18 10  1  0  0  0  0
M  END
>  <HBA>
3

>  <HBD>
2

>  <TPSA>
57.53

>  <cid>
14530

>  <dipole>
2.15

>  <excitation_energy_1>
3.828

>  <excitation_energy_2>
4.216

>  <excitation_energy_3>
4.78

>  <excitation_energy_4>
4.986

>  <homo_energy>
-5.916

>  <homo_lumo_gap>
4.656

>  <logP>
1.3

>  <lumo_energy>
-1.26

>  <melting_point>
120.16

>  <molecular_refractivity>
40.68

>  <oscillator_strength_1>
0.0001

>  <oscillator_strength_2>
0.1449

>  <oscillator_strength_3>
0.0944

>  <oscillator_strength_4>
0.0001

>  <open_babel_can_smiles>
CC(=O)c1ccc(c(c1)O)O

>  <mulliken_charges>
19
1   -0.543183
2   -0.172623
3   -0.196294
4   -0.2645
5   0.40351
6   0.077289
7   0.327646
8   0.330762
9   -0.46048
10   -0.621423
11   -0.632659
12   0.166007
13   0.167624
14   0.18158
15   0.16361
16   0.127991
17   0.123204
18   0.41264
19   0.4093

>  <lowdin_charges>
19
1   -0.477076
2   -0.133485
3   -0.203823
4   -0.20172
5   0.15711
6   -0.060344
7   0.090722
8   0.077875
9   -0.250318
10   -0.35541
11   -0.36768
12   0.16673
13   0.168388
14   0.175665
15   0.176554
16   0.157856
17   0.157969
18   0.362776
19   0.358211

$$$$

