PCCDB-ID:  17140
public computational chemistry database (PCCDB) project, http://pccdb.org

  9  8  0  0  0  0  0  0  0  0999 V2000
    1.1033    0.0645    0.0379 C   0  0  0  0  0  0  0  0  0  0  0  0
    2.5627    0.0100   -0.0111 C   0  0  0  0  0  0  0  0  0  0  0  0
    3.7724   -0.0249   -0.0408 C   0  0  0  0  0  0  0  0  0  0  0  0
    5.1292   -0.1269   -0.1314 N   0  0  0  0  0  0  0  0  0  0  0  0
    0.6409   -0.4168   -0.8339 H   0  0  0  0  0  0  0  0  0  0  0  0
    0.7347    1.0977    0.0794 H   0  0  0  0  0  0  0  0  0  0  0  0
    0.7239   -0.4483    0.9309 H   0  0  0  0  0  0  0  0  0  0  0  0
    5.5761   -0.4200    0.7327 H   0  0  0  0  0  0  0  0  0  0  0  0
    5.5796    0.7101   -0.4898 H   0  0  0  0  0  0  0  0  0  0  0  0
  1  6  1  0  0  0  0
  1  7  1  0  0  0  0
  2  1  1  0  0  0  0
  3  2  3  0  0  0  0
  4  3  1  0  0  0  0
  4  8  1  0  0  0  0
  5  1  1  0  0  0  0
  9  4  1  0  0  0  0
M  END
>  <HBA>
1

>  <HBD>
1

>  <TPSA>
26.02

>  <cid>
17140

>  <dipole>
1.5

>  <excitation_energy_1>
4.636

>  <excitation_energy_2>
5.609

>  <excitation_energy_3>
5.767

>  <excitation_energy_4>
5.83

>  <homo_energy>
-5.478

>  <homo_lumo_gap>
7.361

>  <logP>
0.626

>  <lumo_energy>
1.883

>  <melting_point>
47.03

>  <molecular_refractivity>
17.4

>  <oscillator_strength_1>
0.0002

>  <oscillator_strength_2>
0.003

>  <oscillator_strength_3>
0.0005

>  <oscillator_strength_4>
0.0074

>  <open_babel_can_smiles>
CC#CN

>  <mulliken_charges>
9
1   -0.562904
2   0.280616
3   -0.04789
4   -0.846799
5   0.16971
6   0.168488
7   0.171723
8   0.333475
9   0.333582

>  <lowdin_charges>
9
1   -0.420463
2   -0.124214
3   -0.065504
4   -0.461914
5   0.165079
6   0.164649
7   0.170483
8   0.285778
9   0.286105

$$$$

