PCCDB-ID:  35349
public computational chemistry database (PCCDB) project, http://pccdb.org

 19 18  0  0  0  0  0  0  0  0999 V2000
   -0.8588    0.1764    0.8337 C   0  0  0  0  0  0  0  0  0  0  0  0
    4.3735    4.2325   -1.4943 C   0  0  0  0  0  0  0  0  0  0  0  0
    0.6015    0.1517    0.3656 C   0  0  0  0  0  0  0  0  0  0  0  0
    3.0721    3.5587   -1.9137 C   0  0  0  0  0  0  0  0  0  0  0  0
    1.3757    1.3839    0.8321 C   0  0  0  0  0  0  0  0  0  0  0  0
    3.0723    1.7172   -1.7385 S   0  0  0  0  0  0  0  0  0  0  0  0
    3.1525    1.4176    0.3239 S   0  0  0  0  0  0  0  0  0  0  0  0
   -1.3951   -0.7141    0.4876 H   0  0  0  0  0  0  0  0  0  0  0  0
   -1.3879    1.0551    0.4450 H   0  0  0  0  0  0  0  0  0  0  0  0
   -0.9290    0.2029    1.9280 H   0  0  0  0  0  0  0  0  0  0  0  0
    4.3016    5.3176   -1.6399 H   0  0  0  0  0  0  0  0  0  0  0  0
    5.2179    3.8598   -2.0826 H   0  0  0  0  0  0  0  0  0  0  0  0
    4.5839    4.0466   -0.4363 H   0  0  0  0  0  0  0  0  0  0  0  0
    0.6398    0.1010   -0.7292 H   0  0  0  0  0  0  0  0  0  0  0  0
    1.1028   -0.7490    0.7406 H   0  0  0  0  0  0  0  0  0  0  0  0
    2.8733    3.7073   -2.9824 H   0  0  0  0  0  0  0  0  0  0  0  0
    2.2152    3.9612   -1.3643 H   0  0  0  0  0  0  0  0  0  0  0  0
    1.4241    1.4264    1.9283 H   0  0  0  0  0  0  0  0  0  0  0  0
    0.8959    2.3086    0.4931 H   0  0  0  0  0  0  0  0  0  0  0  0
  1 10  1  0  0  0  0
  2 13  1  0  0  0  0
  3 15  1  0  0  0  0
  3  5  1  0  0  0  0
  3  1  1  0  0  0  0
  4  6  1  0  0  0  0
  4  2  1  0  0  0  0
  4 17  1  0  0  0  0
  5 18  1  0  0  0  0
  6  7  1  0  0  0  0
  7  5  1  0  0  0  0
  8  1  1  0  0  0  0
  9  1  1  0  0  0  0
 11  2  1  0  0  0  0
 12  2  1  0  0  0  0
 14  3  1  0  0  0  0
 16  4  1  0  0  0  0
 19  5  1  0  0  0  0
M  END
>  <HBA>
2

>  <HBD>
0

>  <TPSA>
50.6

>  <cid>
35349

>  <dipole>
2.22

>  <excitation_energy_1>
4.565

>  <excitation_energy_2>
4.641

>  <excitation_energy_3>
5.732

>  <excitation_energy_4>
5.816

>  <homo_energy>
-6.357

>  <homo_lumo_gap>
5.848

>  <logP>
2.798

>  <lumo_energy>
-0.509

>  <melting_point>
-7.96

>  <molecular_refractivity>
41.33

>  <oscillator_strength_1>
0.0103

>  <oscillator_strength_2>
0.0023

>  <oscillator_strength_3>
0.0025

>  <oscillator_strength_4>
0.0258

>  <open_babel_can_smiles>
CCCSSCC

>  <mulliken_charges>
19
1   -0.446311
2   -0.437385
3   -0.245005
4   -0.409558
5   -0.416158
6   0.006859
7   0.006616
8   0.151863
9   0.144623
10   0.14404
11   0.148826
12   0.162252
13   0.175537
14   0.163395
15   0.150523
16   0.177854
17   0.175575
18   0.174444
19   0.172009

>  <lowdin_charges>
19
1   -0.444308
2   -0.446261
3   -0.277069
4   -0.376822
5   -0.378948
6   0.022785
7   0.025021
8   0.155476
9   0.148606
10   0.145342
11   0.151718
12   0.159384
13   0.162269
14   0.153453
15   0.151079
16   0.16673
17   0.159459
18   0.164516
19   0.157571

$$$$

