PCCDB-ID:  19816
public computational chemistry database (PCCDB) project, http://pccdb.org

 26 25  0  0  0  0  0  0  0  0999 V2000
    3.3480   -0.8120   -1.1873 C   0  0  0  0  0  0  0  0  0  0  0  0
    2.8785    4.7893    5.2878 C   0  0  0  0  0  0  0  0  0  0  0  0
    5.0435    4.6449    6.3251 C   0  0  0  0  0  0  0  0  0  0  0  0
    2.8034    1.5572    3.2779 C   0  0  0  0  0  0  0  0  0  0  0  0
    2.1346    0.9196    2.1427 C   0  0  0  0  0  0  0  0  0  0  0  0
    3.3799    2.0760    4.2066 C   0  0  0  0  0  0  0  0  0  0  0  0
    3.1261    0.4081    1.0847 C   0  0  0  0  0  0  0  0  0  0  0  0
    4.0678    2.6776    5.3534 C   0  0  0  0  0  0  0  0  0  0  0  0
    2.4394   -0.2482   -0.1073 C   0  0  0  0  0  0  0  0  0  0  0  0
    4.1824    4.1378    5.2661 N   0  0  0  0  0  0  0  0  0  0  0  0
    1.2274   -0.3181   -0.1896 O   0  0  0  0  0  0  0  0  0  0  0  0
    3.9901   -1.5999   -0.7738 H   0  0  0  0  0  0  0  0  0  0  0  0
    4.0132   -0.0330   -1.5796 H   0  0  0  0  0  0  0  0  0  0  0  0
    2.7446   -1.2229   -1.9992 H   0  0  0  0  0  0  0  0  0  0  0  0
    3.0105    5.8691    5.1615 H   0  0  0  0  0  0  0  0  0  0  0  0
    2.3271    4.6171    6.2340 H   0  0  0  0  0  0  0  0  0  0  0  0
    2.2668    4.4168    4.4616 H   0  0  0  0  0  0  0  0  0  0  0  0
    5.1619    5.7276    6.2105 H   0  0  0  0  0  0  0  0  0  0  0  0
    6.0352    4.1847    6.2524 H   0  0  0  0  0  0  0  0  0  0  0  0
    4.6486    4.4517    7.3431 H   0  0  0  0  0  0  0  0  0  0  0  0
    1.4374    1.6233    1.6714 H   0  0  0  0  0  0  0  0  0  0  0  0
    1.5136    0.0837    2.4885 H   0  0  0  0  0  0  0  0  0  0  0  0
    3.8272   -0.3122    1.5289 H   0  0  0  0  0  0  0  0  0  0  0  0
    3.7545    1.2319    0.7181 H   0  0  0  0  0  0  0  0  0  0  0  0
    5.0855    2.2688    5.4140 H   0  0  0  0  0  0  0  0  0  0  0  0
    3.5547    2.3638    6.2876 H   0  0  0  0  0  0  0  0  0  0  0  0
  1 12  1  0  0  0  0
  1  9  1  0  0  0  0
  2 16  1  0  0  0  0
  3 20  1  0  0  0  0
  4  6  3  0  0  0  0
  5 22  1  0  0  0  0
  5  4  1  0  0  0  0
  6  8  1  0  0  0  0
  7 23  1  0  0  0  0
  7  5  1  0  0  0  0
  8 25  1  0  0  0  0
  8 26  1  0  0  0  0
  9  7  1  0  0  0  0
 10  2  1  0  0  0  0
 10  8  1  0  0  0  0
 10  3  1  0  0  0  0
 11  9  2  0  0  0  0
 13  1  1  0  0  0  0
 14  1  1  0  0  0  0
 15  2  1  0  0  0  0
 17  2  1  0  0  0  0
 18  3  1  0  0  0  0
 19  3  1  0  0  0  0
 21  5  1  0  0  0  0
 24  7  1  0  0  0  0
M  END
>  <HBA>
2

>  <HBD>
0

>  <TPSA>
20.31

>  <cid>
19816

>  <dipole>
2.4

>  <excitation_energy_1>
4.41

>  <excitation_energy_2>
4.892

>  <excitation_energy_3>
5.356

>  <excitation_energy_4>
5.621

>  <homo_energy>
-5.815

>  <homo_lumo_gap>
5.382

>  <logP>
0.921

>  <lumo_energy>
-0.433

>  <melting_point>
12.82

>  <molecular_refractivity>
46.63

>  <oscillator_strength_1>
0.0001

>  <oscillator_strength_2>
0.0003

>  <oscillator_strength_3>
0.0168

>  <oscillator_strength_4>
0.0

>  <open_babel_can_smiles>
CN(CC#CCCC(=O)C)C

>  <mulliken_charges>
26
1   -0.529566
2   -0.303028
3   -0.288156
4   0.039837
5   -0.402078
6   0.057562
7   -0.3588
8   -0.255687
9   0.463114
10   -0.363805
11   -0.436921
12   0.170404
13   0.169455
14   0.181657
15   0.147977
16   0.114709
17   0.167365
18   0.15271
19   0.147646
20   0.11637
21   0.184337
22   0.181992
23   0.168787
24   0.173301
25   0.163341
26   0.137477

>  <lowdin_charges>
26
1   -0.476983
2   -0.359432
3   -0.353344
4   -0.080544
5   -0.256427
6   -0.088237
7   -0.307075
8   -0.182189
9   0.164316
10   -0.177708
11   -0.234531
12   0.17189
13   0.171019
14   0.174936
15   0.148294
16   0.119362
17   0.162037
18   0.150511
19   0.148388
20   0.118677
21   0.176497
22   0.174327
23   0.16788
24   0.170129
25   0.162551
26   0.135655

$$$$

