PCCDB-ID:  34936
public computational chemistry database (PCCDB) project, http://pccdb.org

 26 26  0  0  0  0  0  0  0  0999 V2000
    0.9210   -0.7259   -1.1380 C   0  0  0  0  0  0  0  0  0  0  0  0
    5.6188   -2.5772   -1.1410 C   0  0  0  0  0  0  0  0  0  0  0  0
    4.3550    3.7268    1.6802 C   0  0  0  0  0  0  0  0  0  0  0  0
    2.2073   -0.0615   -0.7294 C   0  0  0  0  0  0  0  0  0  0  0  0
    5.8322   -1.9684    0.2250 C   0  0  0  0  0  0  0  0  0  0  0  0
    4.0281    3.9764    0.2267 C   0  0  0  0  0  0  0  0  0  0  0  0
    4.3034   -0.2006    0.1179 C   0  0  0  0  0  0  0  0  0  0  0  0
    3.4323    1.8139   -0.4341 C   0  0  0  0  0  0  0  0  0  0  0  0
    3.1956   -0.8545   -0.2835 N   0  0  0  0  0  0  0  0  0  0  0  0
    2.2654    1.2690   -0.8289 N   0  0  0  0  0  0  0  0  0  0  0  0
    5.3216   -0.9153    0.7193 N   0  0  0  0  0  0  0  0  0  0  0  0
    3.5641    3.1719   -0.6414 N   0  0  0  0  0  0  0  0  0  0  0  0
    4.4765    1.1289    0.0624 N   0  0  0  0  0  0  0  0  0  0  0  0
    6.7263   -2.6197    1.0121 O   0  0  0  0  0  0  0  0  0  0  0  0
    4.2241    5.2513   -0.1948 O   0  0  0  0  0  0  0  0  0  0  0  0
    1.0840   -1.7870   -1.3384 H   0  0  0  0  0  0  0  0  0  0  0  0
    0.4975   -0.2292   -2.0148 H   0  0  0  0  0  0  0  0  0  0  0  0
    0.1877   -0.6392   -0.3262 H   0  0  0  0  0  0  0  0  0  0  0  0
    6.5731   -2.6240   -1.6811 H   0  0  0  0  0  0  0  0  0  0  0  0
    4.8991   -2.0056   -1.7244 H   0  0  0  0  0  0  0  0  0  0  0  0
    5.2343   -3.5992   -1.0389 H   0  0  0  0  0  0  0  0  0  0  0  0
    4.1515    2.6967    1.9673 H   0  0  0  0  0  0  0  0  0  0  0  0
    3.7741    4.4084    2.3148 H   0  0  0  0  0  0  0  0  0  0  0  0
    5.4199    3.9178    1.8592 H   0  0  0  0  0  0  0  0  0  0  0  0
    7.0846   -3.3811    0.5296 H   0  0  0  0  0  0  0  0  0  0  0  0
    4.5415    5.7895    0.5472 H   0  0  0  0  0  0  0  0  0  0  0  0
  1  4  1  0  0  0  0
  1 18  1  0  0  0  0
  2 21  1  0  0  0  0
  2  5  1  0  0  0  0
  3 24  1  0  0  0  0
  3 22  1  0  0  0  0
  3 23  1  0  0  0  0
  4  9  2  0  0  0  0
  5 11  2  0  0  0  0
  5 14  1  0  0  0  0
  6  3  1  0  0  0  0
  7 11  1  0  0  0  0
  8 13  2  0  0  0  0
  9  7  2  0  0  0  0
 10  4  1  0  0  0  0
 10  8  2  0  0  0  0
 12  8  1  0  0  0  0
 12  6  2  0  0  0  0
 13  7  2  0  0  0  0
 15  6  1  0  0  0  0
 15 26  1  0  0  0  0
 16  1  1  0  0  0  0
 17  1  1  0  0  0  0
 19  2  1  0  0  0  0
 20  2  1  0  0  0  0
 25 14  1  0  0  0  0
M  END
>  <HBA>
7

>  <HBD>
2

>  <TPSA>
96.87

>  <cid>
34936

>  <dipole>
2.79

>  <excitation_energy_1>
4.587

>  <excitation_energy_2>
4.688

>  <excitation_energy_3>
4.722

>  <excitation_energy_4>
4.838

>  <homo_energy>
-6.705

>  <homo_lumo_gap>
5.769

>  <logP>
0.243

>  <lumo_energy>
-0.936

>  <melting_point>
166.24

>  <molecular_refractivity>
53.42

>  <oscillator_strength_1>
0.0031

>  <oscillator_strength_2>
0.0051

>  <oscillator_strength_3>
0.0022

>  <oscillator_strength_4>
0.0158

>  <open_babel_can_smiles>
C/C(=N\[C]1=NC(=[N]=[C](=[N]=1)/N=C(/O)\C)C)/O

>  <mulliken_charges>
26
1   -0.503003
2   -0.542808
3   -0.542334
4   0.432362
5   0.507587
6   0.507491
7   0.533324
8   0.536481
9   -0.476148
10   -0.456786
11   -0.442117
12   -0.440849
13   -0.462346
14   -0.560015
15   -0.558745
16   0.165157
17   0.176577
18   0.175808
19   0.171772
20   0.206254
21   0.181575
22   0.210941
23   0.167891
24   0.18535
25   0.413362
26   0.413218

>  <lowdin_charges>
26
1   -0.446879
2   -0.478133
3   -0.47727
4   0.1146
5   0.17322
6   0.178206
7   0.134613
8   0.136791
9   -0.225808
10   -0.195331
11   -0.158229
12   -0.158682
13   -0.207969
14   -0.344709
15   -0.345529
16   0.164089
17   0.173277
18   0.174702
19   0.168441
20   0.18985
21   0.174495
22   0.19014
23   0.167877
24   0.176324
25   0.361049
26   0.360867

$$$$

