PCCDB-ID:  41233
public computational chemistry database (PCCDB) project, http://pccdb.org

 28 30  0  0  0  0  0  0  0  0999 V2000
    4.2199   -0.7418   -0.6185 C   0  0  0  0  0  0  0  0  0  0  0  0
    4.4508   -2.1791    4.0084 C   0  0  0  0  0  0  0  0  0  0  0  0
    4.3159   -1.2690    5.0754 C   0  0  0  0  0  0  0  0  0  0  0  0
    4.0033   -1.8635    2.7316 C   0  0  0  0  0  0  0  0  0  0  0  0
    3.7233   -0.0268    4.8844 C   0  0  0  0  0  0  0  0  0  0  0  0
    0.3242   -0.1449   -1.3698 C   0  0  0  0  0  0  0  0  0  0  0  0
    0.2258   -1.1876   -0.2565 C   0  0  0  0  0  0  0  0  0  0  0  0
    2.3909    1.2765    1.7791 C   0  0  0  0  0  0  0  0  0  0  0  0
    3.4105   -0.6088    2.4986 C   0  0  0  0  0  0  0  0  0  0  0  0
    2.8388    0.0527    1.3391 C   0  0  0  0  0  0  0  0  0  0  0  0
    3.2763    0.2851    3.5965 C   0  0  0  0  0  0  0  0  0  0  0  0
    2.8045   -0.4796   -0.0749 C   0  0  0  0  0  0  0  0  0  0  0  0
    2.6518    1.4218    3.1250 N   0  0  0  0  0  0  0  0  0  0  0  0
    1.9477    0.7229   -1.2413 S   0  0  0  0  0  0  0  0  0  0  0  0
    1.8244   -2.0655   -0.1840 S   0  0  0  0  0  0  0  0  0  0  0  0
    4.7847    0.1960   -0.6439 H   0  0  0  0  0  0  0  0  0  0  0  0
    4.1755   -1.1570   -1.6282 H   0  0  0  0  0  0  0  0  0  0  0  0
    4.7630   -1.4340    0.0321 H   0  0  0  0  0  0  0  0  0  0  0  0
    4.9085   -3.1476    4.1902 H   0  0  0  0  0  0  0  0  0  0  0  0
    4.6753   -1.5435    6.0633 H   0  0  0  0  0  0  0  0  0  0  0  0
    4.0976   -2.5885    1.9295 H   0  0  0  0  0  0  0  0  0  0  0  0
    3.6090    0.6758    5.7059 H   0  0  0  0  0  0  0  0  0  0  0  0
   -0.4738    0.6004   -1.2846 H   0  0  0  0  0  0  0  0  0  0  0  0
    0.2596   -0.6229   -2.3506 H   0  0  0  0  0  0  0  0  0  0  0  0
   -0.5590   -1.9223   -0.4621 H   0  0  0  0  0  0  0  0  0  0  0  0
    0.0250   -0.7154    0.7104 H   0  0  0  0  0  0  0  0  0  0  0  0
    1.9137    2.0656    1.2185 H   0  0  0  0  0  0  0  0  0  0  0  0
    2.4214    2.2341    3.6752 H   0  0  0  0  0  0  0  0  0  0  0  0
  1 12  1  0  0  0  0
  1 18  1  0  0  0  0
  2 19  1  0  0  0  0
  2  3  2  0  0  0  0
  3 20  1  0  0  0  0
  4  2  1  0  0  0  0
  5  3  1  0  0  0  0
  5 22  1  0  0  0  0
  6 23  1  0  0  0  0
  6 14  1  0  0  0  0
  6  7  1  0  0  0  0
  7 15  1  0  0  0  0
  7 26  1  0  0  0  0
  8 13  1  0  0  0  0
  9  4  2  0  0  0  0
  9 11  1  0  0  0  0
 10  8  2  0  0  0  0
 10  9  1  0  0  0  0
 11  5  2  0  0  0  0
 12 10  1  0  0  0  0
 13 11  1  0  0  0  0
 13 28  1  0  0  0  0
 14 12  1  0  0  0  0
 15 12  1  0  0  0  0
 16  1  1  0  0  0  0
 17  1  1  0  0  0  0
 21  4  1  0  0  0  0
 24  6  1  0  0  0  0
 25  7  1  0  0  0  0
 27  8  1  0  0  0  0
M  END
>  <HBA>
2

>  <HBD>
1

>  <TPSA>
66.39

>  <cid>
41233

>  <dipole>
2.95

>  <excitation_energy_1>
4.543

>  <excitation_energy_2>
4.574

>  <excitation_energy_3>
4.71

>  <excitation_energy_4>
4.786

>  <homo_energy>
-5.448

>  <homo_lumo_gap>
5.244

>  <logP>
3.821

>  <lumo_energy>
-0.204

>  <melting_point>
145.24

>  <molecular_refractivity>
70.64

>  <oscillator_strength_1>
0.0304

>  <oscillator_strength_2>
0.0394

>  <oscillator_strength_3>
0.0223

>  <oscillator_strength_4>
0.0031

>  <open_babel_can_smiles>
CC1(SCCS1)c1c[nH]c2c1cccc2

>  <mulliken_charges>
28
1   -0.443585
2   -0.14212
3   -0.150073
4   -0.203592
5   -0.163335
6   -0.405252
7   -0.417182
8   0.008739
9   0.089134
10   0.107954
11   0.313502
12   -0.355738
13   -0.693994
14   0.092329
15   0.120736
16   0.165688
17   0.174284
18   0.165005
19   0.121894
20   0.123355
21   0.136407
22   0.120804
23   0.175787
24   0.188054
25   0.181636
26   0.187932
27   0.173989
28   0.327641

>  <lowdin_charges>
28
1   -0.44201
2   -0.174449
3   -0.161894
4   -0.161211
5   -0.189623
6   -0.374866
7   -0.377118
8   -0.13389
9   -0.030303
10   -0.081205
11   0.033887
12   -0.153989
13   -0.200907
14   0.081382
15   0.104858
16   0.16293
17   0.166162
18   0.161818
19   0.15501
20   0.155456
21   0.161802
22   0.156058
23   0.16643
24   0.165444
25   0.174512
26   0.164807
27   0.178349
28   0.292557

$$$$

