PCCDB-ID:  56392
public computational chemistry database (PCCDB) project, http://pccdb.org

 40 40  0  0  1  0  0  0  0  0999 V2000
    3.9960    1.5100    0.5406 C   0  0  0  0  0  0  0  0  0  0  0  0
    5.9888    1.3543    2.1064 C   0  0  0  0  0  0  0  0  0  0  0  0
    4.0448   -0.9869    2.3251 C   0  0  0  0  0  0  0  0  0  0  0  0
   10.7101   -7.8408   -0.1107 C   0  0  0  0  0  0  0  0  0  0  0  0
   10.3103   -7.2619   -1.3166 C   0  0  0  0  0  0  0  0  0  0  0  0
   10.4787   -7.1656    1.0893 C   0  0  0  0  0  0  0  0  0  0  0  0
    9.6766   -6.0185   -1.3255 C   0  0  0  0  0  0  0  0  0  0  0  0
    9.8520   -5.9192    1.0788 C   0  0  0  0  0  0  0  0  0  0  0  0
    4.6555   -1.5296    0.0496 C   0  0  0  0  0  0  0  0  0  0  0  0
    5.1897   -2.9578    0.1210 C   0  0  0  0  0  0  0  0  0  0  0  0
    7.2070   -4.2133    0.1230 C   0  0  0  0  0  0  0  0  0  0  0  0
    5.2374    0.6891    0.9459 C   0  0  0  0  0  0  0  0  0  0  0  0
    9.4408   -5.3367   -0.1263 C   0  0  0  0  0  0  0  0  0  0  0  0
    8.7083   -4.0111   -0.1164 C   0  0  1  0  0  0  0  0  0  0  0  0
    4.9737   -0.7352    1.2320 N   0  0  0  0  0  0  0  0  0  0  0  0
    8.8950   -3.3421   -1.3553 O   0  0  0  0  0  0  0  0  0  0  0  0
    6.6048   -2.9316    0.0335 O   0  0  0  0  0  0  0  0  0  0  0  0
    4.2868    2.5243    0.2432 H   0  0  0  0  0  0  0  0  0  0  0  0
    3.2862    1.6007    1.3710 H   0  0  0  0  0  0  0  0  0  0  0  0
    3.4694    1.0535   -0.3056 H   0  0  0  0  0  0  0  0  0  0  0  0
    6.3530    2.3419    1.8014 H   0  0  0  0  0  0  0  0  0  0  0  0
    6.8463    0.7427    2.4041 H   0  0  0  0  0  0  0  0  0  0  0  0
    5.3490    1.5033    2.9840 H   0  0  0  0  0  0  0  0  0  0  0  0
    4.0423   -2.0548    2.5680 H   0  0  0  0  0  0  0  0  0  0  0  0
    2.9998   -0.6972    2.1027 H   0  0  0  0  0  0  0  0  0  0  0  0
    4.3624   -0.4553    3.2262 H   0  0  0  0  0  0  0  0  0  0  0  0
   11.2063   -8.8078   -0.1061 H   0  0  0  0  0  0  0  0  0  0  0  0
   10.4962   -7.7781   -2.2552 H   0  0  0  0  0  0  0  0  0  0  0  0
   10.7947   -7.6039    2.0325 H   0  0  0  0  0  0  0  0  0  0  0  0
    9.3744   -5.5564   -2.2593 H   0  0  0  0  0  0  0  0  0  0  0  0
    9.6875   -5.3895    2.0153 H   0  0  0  0  0  0  0  0  0  0  0  0
    3.5666   -1.5833   -0.1479 H   0  0  0  0  0  0  0  0  0  0  0  0
    5.1107   -1.0562   -0.8277 H   0  0  0  0  0  0  0  0  0  0  0  0
    4.7686   -3.5469   -0.7116 H   0  0  0  0  0  0  0  0  0  0  0  0
    4.8812   -3.4498    1.0567 H   0  0  0  0  0  0  0  0  0  0  0  0
    7.0254   -4.6664    1.1101 H   0  0  0  0  0  0  0  0  0  0  0  0
    6.8003   -4.8885   -0.6474 H   0  0  0  0  0  0  0  0  0  0  0  0
    5.9247    0.6801    0.0900 H   0  0  0  0  0  0  0  0  0  0  0  0
    9.0935   -3.3910    0.7102 H   0  0  0  0  0  0  0  0  0  0  0  0
    8.2047   -2.6568   -1.3743 H   0  0  0  0  0  0  0  0  0  0  0  0
  1 12  1  0  0  0  0
  1 19  1  0  0  0  0
  2 22  1  0  0  0  0
  2 23  1  0  0  0  0
  3 24  1  0  0  0  0
  3 26  1  0  0  0  0
  4 27  1  0  0  0  0
  4  6  2  0  0  0  0
  5  4  1  0  0  0  0
  6 29  1  0  0  0  0
  7  5  2  0  0  0  0
  7 13  1  0  0  0  0
  8  6  1  0  0  0  0
  8 31  1  0  0  0  0
  9 10  1  0  0  0  0
  9 15  1  0  0  0  0
 10 35  1  0  0  0  0
 11 36  1  0  0  0  0
 12 15  1  0  0  0  0
 12  2  1  0  0  0  0
 13 14  1  0  0  0  0
 13  8  2  0  0  0  0
 14 11  1  0  0  0  0
 14 39  1  1  0  0  0
 15  3  1  0  0  0  0
 16 14  1  0  0  0  0
 17 10  1  0  0  0  0
 17 11  1  0  0  0  0
 18  1  1  0  0  0  0
 20  1  1  0  0  0  0
 21  2  1  0  0  0  0
 25  3  1  0  0  0  0
 28  5  1  0  0  0  0
 30  7  1  0  0  0  0
 32  9  1  0  0  0  0
 33  9  1  0  0  0  0
 34 10  1  0  0  0  0
 37 11  1  0  0  0  0
 38 12  1  0  0  0  0
 40 16  1  0  0  0  0
M  END
>  <HBA>
3

>  <HBD>
1

>  <TPSA>
32.7

>  <cid>
56392

>  <dipole>
2.75

>  <excitation_energy_1>
4.953

>  <excitation_energy_2>
5.059

>  <excitation_energy_3>
5.155

>  <excitation_energy_4>
5.307

>  <homo_energy>
-5.557

>  <homo_lumo_gap>
5.649

>  <logP>
2.077

>  <lumo_energy>
0.093

>  <melting_point>
14.81

>  <molecular_refractivity>
70.2

>  <oscillator_strength_1>
0.0108

>  <oscillator_strength_2>
0.0024

>  <oscillator_strength_3>
0.0014

>  <oscillator_strength_4>
0.0004

>  <open_babel_can_smiles>
O[C@H](c1ccccc1)COCCN(C(C)C)C

>  <mulliken_charges>
40
1   -0.455214
2   -0.451318
3   -0.312304
4   -0.127217
5   -0.132565
6   -0.132426
7   -0.16755
8   -0.179431
9   -0.141779
10   -0.002142
11   -0.023964
12   0.049481
13   0.128985
14   0.065366
15   -0.364121
16   -0.645393
17   -0.489291
18   0.143017
19   0.144828
20   0.144063
21   0.141453
22   0.158788
23   0.139984
24   0.147175
25   0.120804
26   0.154584
27   0.126522
28   0.127966
29   0.127119
30   0.150215
31   0.122741
32   0.115855
33   0.145497
34   0.120117
35   0.125953
36   0.127464
37   0.12963
38   0.131472
39   0.130954
40   0.404679

>  <lowdin_charges>
40
1   -0.464267
2   -0.450739
3   -0.358073
4   -0.158058
5   -0.15599
6   -0.157649
7   -0.157472
8   -0.168338
9   -0.204526
10   -0.132529
11   -0.150034
12   -0.055919
13   -0.010904
14   -0.004179
15   -0.184707
16   -0.462523
17   -0.277109
18   0.151726
19   0.149346
20   0.149682
21   0.151357
22   0.159048
23   0.14575
24   0.146218
25   0.119371
26   0.153804
27   0.155601
28   0.156768
29   0.15656
30   0.169367
31   0.154054
32   0.122671
33   0.152256
34   0.130235
35   0.132039
36   0.13548
37   0.135523
38   0.141556
39   0.138204
40   0.3464

$$$$

