PCCDB-ID:  69821
public computational chemistry database (PCCDB) project, http://pccdb.org

 34 33  0  0  0  0  0  0  0  0999 V2000
    6.7161   -3.9514   -0.8589 C   0  0  0  0  0  0  0  0  0  0  0  0
   10.3301    7.3155   -4.6859 C   0  0  0  0  0  0  0  0  0  0  0  0
    6.3356   -3.1618   -1.6898 C   0  0  0  0  0  0  0  0  0  0  0  0
    9.8069    5.8759   -4.6984 C   0  0  0  0  0  0  0  0  0  0  0  0
    5.8883   -2.1904   -2.6890 C   0  0  0  0  0  0  0  0  0  0  0  0
    8.3340    5.7723   -4.2752 C   0  0  0  0  0  0  0  0  0  0  0  0
    6.3730   -0.7528   -2.4029 C   0  0  0  0  0  0  0  0  0  0  0  0
    7.7451    4.3518   -4.3311 C   0  0  0  0  0  0  0  0  0  0  0  0
    5.8852    0.2413   -3.4647 C   0  0  0  0  0  0  0  0  0  0  0  0
    8.2890    3.3948   -3.2585 C   0  0  0  0  0  0  0  0  0  0  0  0
    6.3296    1.6971   -3.2396 C   0  0  0  0  0  0  0  0  0  0  0  0
    7.8382    1.9323   -3.4171 C   0  0  0  0  0  0  0  0  0  0  0  0
    7.0487   -4.6505   -0.1261 H   0  0  0  0  0  0  0  0  0  0  0  0
   11.3791    7.3658   -4.9999 H   0  0  0  0  0  0  0  0  0  0  0  0
   10.2625    7.7518   -3.6817 H   0  0  0  0  0  0  0  0  0  0  0  0
    9.7500    7.9547   -5.3632 H   0  0  0  0  0  0  0  0  0  0  0  0
   10.4320    5.2605   -4.0379 H   0  0  0  0  0  0  0  0  0  0  0  0
    9.9207    5.4509   -5.7060 H   0  0  0  0  0  0  0  0  0  0  0  0
    4.7903   -2.2013   -2.7422 H   0  0  0  0  0  0  0  0  0  0  0  0
    6.2431   -2.5004   -3.6821 H   0  0  0  0  0  0  0  0  0  0  0  0
    7.7385    6.4278   -4.9267 H   0  0  0  0  0  0  0  0  0  0  0  0
    8.2196    6.1752   -3.2576 H   0  0  0  0  0  0  0  0  0  0  0  0
    7.4679   -0.7561   -2.3502 H   0  0  0  0  0  0  0  0  0  0  0  0
    6.0145   -0.4449   -1.4122 H   0  0  0  0  0  0  0  0  0  0  0  0
    7.9352    3.9224   -5.3269 H   0  0  0  0  0  0  0  0  0  0  0  0
    6.6537    4.4227   -4.2370 H   0  0  0  0  0  0  0  0  0  0  0  0
    4.7869    0.2078   -3.5007 H   0  0  0  0  0  0  0  0  0  0  0  0
    6.2302   -0.0876   -4.4564 H   0  0  0  0  0  0  0  0  0  0  0  0
    7.9943    3.7620   -2.2638 H   0  0  0  0  0  0  0  0  0  0  0  0
    9.3863    3.4161   -3.2754 H   0  0  0  0  0  0  0  0  0  0  0  0
    6.0254    2.0209   -2.2331 H   0  0  0  0  0  0  0  0  0  0  0  0
    5.7764    2.3331   -3.9425 H   0  0  0  0  0  0  0  0  0  0  0  0
    8.3910    1.3190   -2.6934 H   0  0  0  0  0  0  0  0  0  0  0  0
    8.1412    1.5720   -4.4122 H   0  0  0  0  0  0  0  0  0  0  0  0
  1 13  1  0  0  0  0
  2 15  1  0  0  0  0
  3  1  3  0  0  0  0
  4  2  1  0  0  0  0
  4  6  1  0  0  0  0
  4 17  1  0  0  0  0
  5  7  1  0  0  0  0
  5  3  1  0  0  0  0
  6 22  1  0  0  0  0
  7 23  1  0  0  0  0
  7 24  1  0  0  0  0
  8  6  1  0  0  0  0
  8 26  1  0  0  0  0
  8 10  1  0  0  0  0
  9 11  1  0  0  0  0
  9  7  1  0  0  0  0
 10 29  1  0  0  0  0
 11 31  1  0  0  0  0
 12 10  1  0  0  0  0
 12 11  1  0  0  0  0
 12 33  1  0  0  0  0
 14  2  1  0  0  0  0
 16  2  1  0  0  0  0
 18  4  1  0  0  0  0
 19  5  1  0  0  0  0
 20  5  1  0  0  0  0
 21  6  1  0  0  0  0
 25  8  1  0  0  0  0
 27  9  1  0  0  0  0
 28  9  1  0  0  0  0
 30 10  1  0  0  0  0
 32 11  1  0  0  0  0
 34 12  1  0  0  0  0
M  END
>  <HBA>
0

>  <HBD>
0

>  <TPSA>
0.0

>  <cid>
69821

>  <dipole>
0.85

>  <excitation_energy_1>
6.482

>  <excitation_energy_2>
6.617

>  <excitation_energy_3>
6.66

>  <excitation_energy_4>
6.868

>  <homo_energy>
-6.969

>  <homo_lumo_gap>
8.583

>  <logP>
4.15

>  <lumo_energy>
1.614

>  <melting_point>
-13.2

>  <molecular_refractivity>
57.96

>  <oscillator_strength_1>
0.0006

>  <oscillator_strength_2>
0.0207

>  <oscillator_strength_3>
0.0

>  <oscillator_strength_4>
0.0313

>  <open_babel_can_smiles>
CCCCCCCCCCC#C

>  <mulliken_charges>
34
1   -0.528064
2   -0.441337
3   0.364503
4   -0.249037
5   -0.403709
6   -0.248154
7   -0.258922
8   -0.256714
9   -0.253725
10   -0.256864
11   -0.25755
12   -0.258058
13   0.18394
14   0.141208
15   0.141473
16   0.140826
17   0.135241
18   0.129211
19   0.165982
20   0.16662
21   0.126199
22   0.126126
23   0.150948
24   0.144467
25   0.124547
26   0.132082
27   0.128754
28   0.128319
29   0.12668
30   0.132889
31   0.127837
32   0.135361
33   0.133215
34   0.12571

>  <lowdin_charges>
34
1   -0.26893
2   -0.443723
3   -0.037973
4   -0.275492
5   -0.259268
6   -0.276179
7   -0.26717
8   -0.275301
9   -0.273486
10   -0.274624
11   -0.278247
12   -0.278308
13   0.20288
14   0.147601
15   0.145751
16   0.147109
17   0.141017
18   0.137393
19   0.161807
20   0.163952
21   0.141197
22   0.136729
23   0.146631
24   0.146757
25   0.135773
26   0.139113
27   0.138598
28   0.137822
29   0.137019
30   0.13963
31   0.137793
32   0.144736
33   0.143165
34   0.136228

$$$$

