PCCDB-ID:  40638
public computational chemistry database (PCCDB) project, http://pccdb.org

 23 24  0  0  1  0  0  0  0  0999 V2000
    1.0325    0.1306   -0.0667 C   0  0  0  0  0  0  0  0  0  0  0  0
    3.0395   -2.0690   -1.3075 C   0  0  0  0  0  0  0  0  0  0  0  0
    7.1531    0.8155   -0.0620 C   0  0  0  0  0  0  0  0  0  0  0  0
    7.1799   -0.5818   -0.0895 C   0  0  0  0  0  0  0  0  0  0  0  0
    5.9375    1.5077   -0.0489 C   0  0  0  0  0  0  0  0  0  0  0  0
    5.9855   -1.3165   -0.1042 C   0  0  0  0  0  0  0  0  0  0  0  0
    3.3482    1.2013   -0.0559 C   0  0  0  0  0  0  0  0  0  0  0  0
    2.5294    0.1279   -0.0768 C   0  0  0  0  0  0  0  0  0  0  0  0
    3.3521   -1.1569   -0.1053 C   0  0  2  0  0  0  0  0  0  0  0  0
    4.7490    0.7763   -0.0643 C   0  0  0  0  0  0  0  0  0  0  0  0
    4.7768   -0.6346   -0.0899 C   0  0  0  0  0  0  0  0  0  0  0  0
    0.6379    1.1508   -0.0250 H   0  0  0  0  0  0  0  0  0  0  0  0
    0.6346   -0.4209    0.7968 H   0  0  0  0  0  0  0  0  0  0  0  0
    0.6188   -0.3531   -0.9623 H   0  0  0  0  0  0  0  0  0  0  0  0
    1.9986   -2.4109   -1.2838 H   0  0  0  0  0  0  0  0  0  0  0  0
    3.6824   -2.9559   -1.3009 H   0  0  0  0  0  0  0  0  0  0  0  0
    3.2060   -1.5365   -2.2500 H   0  0  0  0  0  0  0  0  0  0  0  0
    8.0875    1.3708   -0.0512 H   0  0  0  0  0  0  0  0  0  0  0  0
    8.1334   -1.1031   -0.0988 H   0  0  0  0  0  0  0  0  0  0  0  0
    5.9230    2.5947   -0.0289 H   0  0  0  0  0  0  0  0  0  0  0  0
    6.0149   -2.4040   -0.1230 H   0  0  0  0  0  0  0  0  0  0  0  0
    3.0241    2.2379   -0.0288 H   0  0  0  0  0  0  0  0  0  0  0  0
    3.1531   -1.7305    0.8150 H   0  0  0  0  0  0  0  0  0  0  0  0
  1 12  1  0  0  0  0
  1 13  1  0  0  0  0
  2 16  1  0  0  0  0
  2 15  1  0  0  0  0
  2  9  1  0  0  0  0
  3 18  1  0  0  0  0
  3  5  1  0  0  0  0
  4  3  2  0  0  0  0
  5 20  1  0  0  0  0
  6 11  2  0  0  0  0
  6  4  1  0  0  0  0
  7 22  1  0  0  0  0
  8  1  1  0  0  0  0
  8  7  2  0  0  0  0
  9 11  1  0  0  0  0
  9  8  1  0  0  0  0
  9 23  1  1  0  0  0
 10  7  1  0  0  0  0
 10  5  2  0  0  0  0
 11 10  1  0  0  0  0
 14  1  1  0  0  0  0
 17  2  1  0  0  0  0
 19  4  1  0  0  0  0
 21  6  1  0  0  0  0
M  END
>  <HBA>
0

>  <HBD>
0

>  <TPSA>
0.0

>  <cid>
40638

>  <dipole>
1.07

>  <excitation_energy_1>
4.529

>  <excitation_energy_2>
4.779

>  <excitation_energy_3>
5.252

>  <excitation_energy_4>
5.492

>  <homo_energy>
-5.543

>  <homo_lumo_gap>
5.14

>  <logP>
3.207

>  <lumo_energy>
-0.403

>  <melting_point>
56.35

>  <molecular_refractivity>
49.0

>  <oscillator_strength_1>
0.0827

>  <oscillator_strength_2>
0.1178

>  <oscillator_strength_3>
0.0411

>  <oscillator_strength_4>
0.0058

>  <open_babel_can_smiles>
CC1=Cc2c([C@@H]1C)cccc2

>  <mulliken_charges>
23
1   -0.526214
2   -0.442559
3   -0.132041
4   -0.137903
5   -0.207047
6   -0.196113
7   -0.206048
8   0.150692
9   -0.226695
10   0.127467
11   0.106517
12   0.158349
13   0.156302
14   0.159379
15   0.144773
16   0.149831
17   0.158043
18   0.123224
19   0.122335
20   0.123048
21   0.120188
22   0.121273
23   0.153198

>  <lowdin_charges>
23
1   -0.441823
2   -0.433925
3   -0.15888
4   -0.166636
5   -0.169381
6   -0.162552
7   -0.184598
8   -0.003848
9   -0.122514
10   -0.007772
11   -0.010717
12   0.159579
13   0.158567
14   0.159189
15   0.148279
16   0.153245
17   0.156221
18   0.155278
19   0.154885
20   0.152939
21   0.151255
22   0.153339
23   0.159871

$$$$

