PCCDB-ID:  69988
public computational chemistry database (PCCDB) project, http://pccdb.org

 18 18  0  0  0  0  0  0  0  0999 V2000
    1.4328   -0.9351    0.2026 C   0  0  0  0  0  0  0  0  0  0  0  0
    4.4244    1.3822    3.4862 C   0  0  0  0  0  0  0  0  0  0  0  0
    4.4585    0.0160    3.1898 C   0  0  0  0  0  0  0  0  0  0  0  0
    3.0950    1.7536    1.5042 C   0  0  0  0  0  0  0  0  0  0  0  0
    3.7458    2.2551    2.6361 C   0  0  0  0  0  0  0  0  0  0  0  0
    3.8275   -0.4909    2.0566 C   0  0  0  0  0  0  0  0  0  0  0  0
    3.1294    0.3939    1.2082 C   0  0  0  0  0  0  0  0  0  0  0  0
    3.6693    3.6072    2.8567 O   0  0  0  0  0  0  0  0  0  0  0  0
    3.8594   -1.8219    1.7122 O   0  0  0  0  0  0  0  0  0  0  0  0
    2.5319   -0.0332    0.0491 O   0  0  0  0  0  0  0  0  0  0  0  0
    1.0465   -1.1089   -0.8043 H   0  0  0  0  0  0  0  0  0  0  0  0
    0.6439   -0.4851    0.8201 H   0  0  0  0  0  0  0  0  0  0  0  0
    1.7486   -1.8846    0.6447 H   0  0  0  0  0  0  0  0  0  0  0  0
    4.9322    1.7562    4.3726 H   0  0  0  0  0  0  0  0  0  0  0  0
    4.9980   -0.6614    3.8497 H   0  0  0  0  0  0  0  0  0  0  0  0
    2.5623    2.4248    0.8396 H   0  0  0  0  0  0  0  0  0  0  0  0
    4.1545    3.8179    3.6691 H   0  0  0  0  0  0  0  0  0  0  0  0
    4.3994   -2.2939    2.3644 H   0  0  0  0  0  0  0  0  0  0  0  0
  1 13  1  0  0  0  0
  1 12  1  0  0  0  0
  2 14  1  0  0  0  0
  3  2  1  0  0  0  0
  3 15  1  0  0  0  0
  4  5  1  0  0  0  0
  5  8  1  0  0  0  0
  5  2  2  0  0  0  0
  6  3  2  0  0  0  0
  7  4  2  0  0  0  0
  7  6  1  0  0  0  0
  8 17  1  0  0  0  0
  9  6  1  0  0  0  0
  9 18  1  0  0  0  0
 10  1  1  0  0  0  0
 10  7  1  0  0  0  0
 11  1  1  0  0  0  0
 16  4  1  0  0  0  0
M  END
>  <HBA>
3

>  <HBD>
2

>  <TPSA>
49.69

>  <cid>
69988

>  <dipole>
3.28

>  <excitation_energy_1>
4.657

>  <excitation_energy_2>
4.713

>  <excitation_energy_3>
4.83

>  <excitation_energy_4>
5.476

>  <homo_energy>
-5.396

>  <homo_lumo_gap>
5.45

>  <logP>
1.106

>  <lumo_energy>
0.054

>  <melting_point>
90.37

>  <molecular_refractivity>
36.98

>  <oscillator_strength_1>
0.0692

>  <oscillator_strength_2>
0.0013

>  <oscillator_strength_3>
0.0007

>  <oscillator_strength_4>
0.0113

>  <open_babel_can_smiles>
COc1cc(O)ccc1O

>  <mulliken_charges>
18
1   -0.214455
2   -0.199839
3   -0.205026
4   -0.218958
5   0.35002
6   0.310708
7   0.332538
8   -0.65027
9   -0.648695
10   -0.520346
11   0.158195
12   0.139089
13   0.16979
14   0.117115
15   0.120156
16   0.147914
17   0.404995
18   0.407067

>  <lowdin_charges>
18
1   -0.276189
2   -0.21796
3   -0.200818
4   -0.198344
5   0.09351
6   0.061341
7   0.079515
8   -0.386209
9   -0.386942
10   -0.220278
11   0.155521
12   0.13992
13   0.152921
14   0.154506
15   0.155799
16   0.178125
17   0.356372
18   0.35921

$$$$

