PCCDB-ID:  9102
public computational chemistry database (PCCDB) project, http://pccdb.org

 17 19  0  0  1  0  0  0  0  0999 V2000
   -1.3687    0.6653   -0.0742 C   0  0  0  0  0  0  0  0  0  0  0  0
    1.0566    1.2014    0.8138 C   0  0  0  0  0  0  0  0  0  0  0  0
   -0.2619   -1.5355    0.8642 C   0  0  0  0  0  0  0  0  0  0  0  0
   -0.0206    1.3842   -0.2276 C   0  0  1  0  0  0  0  0  0  0  0  0
   -1.0911   -0.8404   -0.1881 C   0  0  2  0  0  0  0  0  0  0  0  0
    1.0601    0.3345   -0.4243 C   0  0  2  0  0  0  0  0  0  0  0  0
    0.4008   -1.0356   -0.3988 C   0  0  1  0  0  0  0  0  0  0  0  0
   -2.0304    0.9695   -0.8942 H   0  0  0  0  0  0  0  0  0  0  0  0
   -1.8829    0.9291    0.8597 H   0  0  0  0  0  0  0  0  0  0  0  0
    0.8093    0.7681    1.7789 H   0  0  0  0  0  0  0  0  0  0  0  0
    1.8164    1.9772    0.8752 H   0  0  0  0  0  0  0  0  0  0  0  0
   -0.3922   -2.6110    0.9613 H   0  0  0  0  0  0  0  0  0  0  0  0
   -0.0655   -1.0411    1.8113 H   0  0  0  0  0  0  0  0  0  0  0  0
   -0.0100    2.3100   -0.7984 H   0  0  0  0  0  0  0  0  0  0  0  0
   -1.8153   -1.4431   -0.7315 H   0  0  0  0  0  0  0  0  0  0  0  0
    1.8600    0.4788   -1.1456 H   0  0  0  0  0  0  0  0  0  0  0  0
    0.7774   -1.7725   -1.1029 H   0  0  0  0  0  0  0  0  0  0  0  0
  1  9  1  0  0  0  0
  2 11  1  0  0  0  0
  2 10  1  0  0  0  0
  3 12  1  0  0  0  0
  3 13  1  0  0  0  0
  4 14  1  6  0  0  0
  4  1  1  0  0  0  0
  4  2  1  0  0  0  0
  5 15  1  6  0  0  0
  5  1  1  0  0  0  0
  5  3  1  0  0  0  0
  6 16  1  6  0  0  0
  6  7  1  0  0  0  0
  6  4  1  0  0  0  0
  6  2  1  0  0  0  0
  7 17  1  6  0  0  0
  7  5  1  0  0  0  0
  7  3  1  0  0  0  0
  8  1  1  0  0  0  0
M  END
>  <HBA>
0

>  <HBD>
0

>  <TPSA>
0.0

>  <cid>
9102

>  <dipole>
0.33

>  <excitation_energy_1>
6.0

>  <excitation_energy_2>
6.428

>  <excitation_energy_3>
6.512

>  <excitation_energy_4>
6.601

>  <homo_energy>
-6.523

>  <homo_lumo_gap>
8.729

>  <logP>
1.662

>  <lumo_energy>
2.207

>  <melting_point>
40.51

>  <molecular_refractivity>
29.42

>  <oscillator_strength_1>
0.0003

>  <oscillator_strength_2>
0.0154

>  <oscillator_strength_3>
0.0116

>  <oscillator_strength_4>
0.0035

>  <open_babel_can_smiles>
C1[C@@H]2[C@H]1[C@H]1[C@@H](C2)C1

>  <mulliken_charges>
17
1   -0.262255
2   -0.322746
3   -0.322922
4   -0.138795
5   -0.138584
6   -0.105313
7   -0.104602
8   0.137755
9   0.141019
10   0.146348
11   0.144366
12   0.14431
13   0.14634
14   0.135033
15   0.134992
16   0.132592
17   0.132462

>  <lowdin_charges>
17
1   -0.268889
2   -0.317421
3   -0.315783
4   -0.162022
5   -0.163905
6   -0.154748
7   -0.154965
8   0.152411
9   0.146802
10   0.154202
11   0.158809
12   0.156537
13   0.154382
14   0.150978
15   0.152377
16   0.155379
17   0.155857

$$$$

