PCCDB-ID:  19352
public computational chemistry database (PCCDB) project, http://pccdb.org

 30 32  0  0  0  0  0  0  0  0999 V2000
    3.6653   -0.1269   -1.1481 C   0  0  0  0  0  0  0  0  0  0  0  0
    2.6005   -0.0926   -0.0349 C   0  0  0  0  0  0  0  0  0  0  0  0
    4.7346   -1.2997    5.6850 C   0  0  0  0  0  0  0  0  0  0  0  0
    4.5787   -2.6985    5.6716 C   0  0  0  0  0  0  0  0  0  0  0  0
    1.9888   -4.4123   -0.0967 C   0  0  0  0  0  0  0  0  0  0  0  0
    2.3469   -5.2097    1.0029 C   0  0  0  0  0  0  0  0  0  0  0  0
    4.3614   -0.5631    4.5785 C   0  0  0  0  0  0  0  0  0  0  0  0
    2.1824   -3.0454   -0.0432 C   0  0  0  0  0  0  0  0  0  0  0  0
    4.0543   -3.3335    4.5601 C   0  0  0  0  0  0  0  0  0  0  0  0
    2.8860   -4.6238    2.1327 C   0  0  0  0  0  0  0  0  0  0  0  0
    3.4455   -0.4217    2.2847 C   0  0  0  0  0  0  0  0  0  0  0  0
    2.9311   -0.9785    1.1498 C   0  0  0  0  0  0  0  0  0  0  0  0
    3.8246   -1.1921    3.4307 C   0  0  0  0  0  0  0  0  0  0  0  0
    2.7365   -2.4159    1.0988 C   0  0  0  0  0  0  0  0  0  0  0  0
    3.6610   -2.6062    3.4120 C   0  0  0  0  0  0  0  0  0  0  0  0
    3.0974   -3.2278    2.2203 C   0  0  0  0  0  0  0  0  0  0  0  0
    3.3903    0.5468   -1.9679 H   0  0  0  0  0  0  0  0  0  0  0  0
    3.7865   -1.1332   -1.5620 H   0  0  0  0  0  0  0  0  0  0  0  0
    4.6393    0.1896   -0.7592 H   0  0  0  0  0  0  0  0  0  0  0  0
    1.6230   -0.3624   -0.4543 H   0  0  0  0  0  0  0  0  0  0  0  0
    2.4993    0.9389    0.3224 H   0  0  0  0  0  0  0  0  0  0  0  0
    5.1462   -0.8050    6.5605 H   0  0  0  0  0  0  0  0  0  0  0  0
    4.8710   -3.2850    6.5385 H   0  0  0  0  0  0  0  0  0  0  0  0
    1.5609   -4.8670   -0.9861 H   0  0  0  0  0  0  0  0  0  0  0  0
    2.1981   -6.2856    0.9695 H   0  0  0  0  0  0  0  0  0  0  0  0
    4.4768    0.5183    4.5729 H   0  0  0  0  0  0  0  0  0  0  0  0
    1.8991   -2.4408   -0.8978 H   0  0  0  0  0  0  0  0  0  0  0  0
    3.9485   -4.4126    4.5828 H   0  0  0  0  0  0  0  0  0  0  0  0
    3.1490   -5.2601    2.9704 H   0  0  0  0  0  0  0  0  0  0  0  0
    3.5847    0.6568    2.3344 H   0  0  0  0  0  0  0  0  0  0  0  0
  1 19  1  0  0  0  0
  1  2  1  0  0  0  0
  2 21  1  0  0  0  0
  2 12  1  0  0  0  0
  3 22  1  0  0  0  0
  4  3  1  0  0  0  0
  4 23  1  0  0  0  0
  5  8  2  0  0  0  0
  5  6  1  0  0  0  0
  6 10  2  0  0  0  0
  7  3  2  0  0  0  0
  8 14  1  0  0  0  0
  9 28  1  0  0  0  0
  9  4  2  0  0  0  0
 10 16  1  0  0  0  0
 10 29  1  0  0  0  0
 11 30  1  0  0  0  0
 11 13  2  0  0  0  0
 12 11  1  0  0  0  0
 13  7  1  0  0  0  0
 14 12  2  0  0  0  0
 14 16  1  0  0  0  0
 15 13  1  0  0  0  0
 15  9  1  0  0  0  0
 16 15  2  0  0  0  0
 17  1  1  0  0  0  0
 18  1  1  0  0  0  0
 20  2  1  0  0  0  0
 24  5  1  0  0  0  0
 25  6  1  0  0  0  0
 26  7  1  0  0  0  0
 27  8  1  0  0  0  0
M  END
>  <HBA>
0

>  <HBD>
0

>  <TPSA>
0.0

>  <cid>
19352

>  <dipole>
0.31

>  <excitation_energy_1>
3.911

>  <excitation_energy_2>
4.146

>  <excitation_energy_3>
4.649

>  <excitation_energy_4>
4.866

>  <homo_energy>
-5.627

>  <homo_lumo_gap>
4.683

>  <logP>
4.555

>  <lumo_energy>
-0.944

>  <melting_point>
97.16

>  <molecular_refractivity>
71.23

>  <oscillator_strength_1>
0.0043

>  <oscillator_strength_2>
0.0862

>  <oscillator_strength_3>
0.1134

>  <oscillator_strength_4>
0.6374

>  <open_babel_can_smiles>
CCc1cc2ccccc2c2c1cccc2

>  <mulliken_charges>
30
1   -0.439361
2   -0.348442
3   -0.129742
4   -0.138751
5   -0.127693
6   -0.137072
7   -0.207203
8   -0.216318
9   -0.190358
10   -0.189622
11   -0.290143
12   0.145512
13   0.161273
14   0.085052
15   0.06002
16   0.062093
17   0.143967
18   0.153925
19   0.151585
20   0.146353
21   0.145101
22   0.128726
23   0.12796
24   0.128279
25   0.128633
26   0.128183
27   0.131471
28   0.132645
29   0.132843
30   0.121085

>  <lowdin_charges>
30
1   -0.443447
2   -0.271481
3   -0.15837
4   -0.159779
5   -0.158132
6   -0.155517
7   -0.156056
8   -0.164694
9   -0.155354
10   -0.157928
11   -0.169252
12   -0.003202
13   -0.001063
14   -0.006413
15   -0.004637
16   -0.000896
17   0.150623
18   0.151451
19   0.152223
20   0.148377
21   0.150165
22   0.158859
23   0.158448
24   0.158474
25   0.156013
26   0.154519
27   0.161094
28   0.155396
29   0.158736
30   0.151843

$$$$

