PCCDB-ID:  31594
public computational chemistry database (PCCDB) project, http://pccdb.org

 20 20  0  0  0  0  0  0  0  0999 V2000
   -0.6954    1.1063   -0.0946 C   0  0  0  0  0  0  0  0  0  0  0  0
   -1.3475   -0.1160    0.0075 C   0  0  0  0  0  0  0  0  0  0  0  0
    0.7822   -1.2280    0.0705 C   0  0  0  0  0  0  0  0  0  0  0  0
    1.3184    2.6137   -0.2427 C   0  0  0  0  0  0  0  0  0  0  0  0
    0.7009    1.2277   -0.1284 C   0  0  0  0  0  0  0  0  0  0  0  0
   -0.6149   -1.3137    0.0918 C   0  0  0  0  0  0  0  0  0  0  0  0
    1.4067    0.0131   -0.0458 C   0  0  0  0  0  0  0  0  0  0  0  0
   -1.2530   -2.5380    0.2522 N   0  0  0  0  0  0  0  0  0  0  0  0
    2.8786   -0.0249   -0.0775 N   0  0  0  0  0  0  0  0  0  0  0  0
    1.7750    2.9219   -1.5484 O   0  0  0  0  0  0  0  0  0  0  0  0
    3.4416   -1.0266    0.3571 O   0  0  0  0  0  0  0  0  0  0  0  0
    3.4882    0.9441   -0.5491 O   0  0  0  0  0  0  0  0  0  0  0  0
   -1.2902    2.0139   -0.1531 H   0  0  0  0  0  0  0  0  0  0  0  0
   -2.4342   -0.1486    0.0288 H   0  0  0  0  0  0  0  0  0  0  0  0
    1.3967   -2.1174    0.1445 H   0  0  0  0  0  0  0  0  0  0  0  0
    2.1177    2.7367    0.5005 H   0  0  0  0  0  0  0  0  0  0  0  0
    0.5406    3.3489   -0.0152 H   0  0  0  0  0  0  0  0  0  0  0  0
   -2.2052   -2.5869   -0.0862 H   0  0  0  0  0  0  0  0  0  0  0  0
   -0.7128   -3.3541   -0.0046 H   0  0  0  0  0  0  0  0  0  0  0  0
    2.5632    2.3665   -1.6747 H   0  0  0  0  0  0  0  0  0  0  0  0
  1  2  1  0  0  0  0
  2 14  1  0  0  0  0
  2  6  2  0  0  0  0
  3  6  1  0  0  0  0
  3 15  1  0  0  0  0
  4  5  1  0  0  0  0
  4 17  1  0  0  0  0
  4 16  1  0  0  0  0
  5  1  2  0  0  0  0
  5  7  1  0  0  0  0
  6  8  1  0  0  0  0
  7  3  2  0  0  0  0
  9  7  1  0  0  0  0
  9 11  2  0  0  0  0
 10  4  1  0  0  0  0
 12  9  2  0  0  0  0
 13  1  1  0  0  0  0
 18  8  1  0  0  0  0
 19  8  1  0  0  0  0
 20 10  1  0  0  0  0
M  END
>  <HBA>
2

>  <HBD>
2

>  <TPSA>
92.07

>  <cid>
31594

>  <dipole>
5.53

>  <excitation_energy_1>
2.954

>  <excitation_energy_2>
3.702

>  <excitation_energy_3>
3.797

>  <excitation_energy_4>
4.354

>  <homo_energy>
-6.18

>  <homo_lumo_gap>
3.663

>  <logP>
1.774

>  <lumo_energy>
-2.517

>  <melting_point>
115.73

>  <molecular_refractivity>
45.8

>  <oscillator_strength_1>
0.0296

>  <oscillator_strength_2>
0.0084

>  <oscillator_strength_3>
0.0019

>  <oscillator_strength_4>
0.0126

>  <open_babel_can_smiles>
OCc1ccc(cc1N(=O)=O)N

>  <mulliken_charges>
20
1   -0.199413
2   -0.14498
3   -0.203642
4   -0.099615
5   0.143948
6   0.322351
7   0.21136
8   -0.792248
9   0.367486
10   -0.623999
11   -0.379836
12   -0.416885
13   0.146458
14   0.13575
15   0.171265
16   0.141949
17   0.144748
18   0.329626
19   0.331867
20   0.413808

>  <lowdin_charges>
20
1   -0.140902
2   -0.17077
3   -0.185388
4   -0.135679
5   -0.027768
6   0.066064
7   0.008767
8   -0.477206
9   0.313968
10   -0.468751
11   -0.236725
12   -0.258696
13   0.167719
14   0.160439
15   0.182882
16   0.142495
17   0.151404
18   0.281257
19   0.283919
20   0.342972

$$$$

