PCCDB-ID:  70469
public computational chemistry database (PCCDB) project, http://pccdb.org

 16 15  0  0  0  0  0  0  0  0999 V2000
    0.8494   -0.3252    0.5743 C   0  0  0  0  0  0  0  0  0  0  0  0
    2.3257   -0.2074    0.1758 C   0  0  0  0  0  0  0  0  0  0  0  0
    3.1942   -1.1399    1.0093 C   0  0  0  0  0  0  0  0  0  0  0  0
    5.3554    1.2268    0.1823 O   0  0  0  0  0  0  0  0  0  0  0  0
    5.2038    0.3530    2.4707 O   0  0  0  0  0  0  0  0  0  0  0  0
    6.9382   -0.5866    0.8455 O   0  0  0  0  0  0  0  0  0  0  0  0
    4.5872   -1.1585    0.5568 O   0  0  0  0  0  0  0  0  0  0  0  0
    5.6199   -0.0669    1.1486 S   0  0  0  0  0  0  0  0  0  0  0  0
    0.2320    0.3487   -0.0279 H   0  0  0  0  0  0  0  0  0  0  0  0
    0.6972   -0.0625    1.6278 H   0  0  0  0  0  0  0  0  0  0  0  0
    0.4733   -1.3443    0.4250 H   0  0  0  0  0  0  0  0  0  0  0  0
    2.6686    0.8251    0.3046 H   0  0  0  0  0  0  0  0  0  0  0  0
    2.4540   -0.4584   -0.8842 H   0  0  0  0  0  0  0  0  0  0  0  0
    2.8869   -2.1826    0.8935 H   0  0  0  0  0  0  0  0  0  0  0  0
    3.1768   -0.8807    2.0708 H   0  0  0  0  0  0  0  0  0  0  0  0
    5.8943    1.1047   -0.6223 H   0  0  0  0  0  0  0  0  0  0  0  0
  1 10  1  0  0  0  0
  2 12  1  0  0  0  0
  2  1  1  0  0  0  0
  2  3  1  0  0  0  0
  3 15  1  0  0  0  0
  4  8  1  0  0  0  0
  6  8  2  0  0  0  0
  7  3  1  0  0  0  0
  7  8  1  0  0  0  0
  8  5  2  0  0  0  0
  9  1  1  0  0  0  0
 11  1  1  0  0  0  0
 13  2  1  0  0  0  0
 14  3  1  0  0  0  0
 16  4  1  0  0  0  0
M  END
>  <HBA>
4

>  <HBD>
1

>  <TPSA>
71.98

>  <cid>
70469

>  <dipole>
3.93

>  <excitation_energy_1>
7.203

>  <excitation_energy_2>
7.416

>  <excitation_energy_3>
7.748

>  <excitation_energy_4>
8.097

>  <homo_energy>
-8.61

>  <homo_lumo_gap>
9.064

>  <logP>
1.297

>  <lumo_energy>
0.454

>  <melting_point>
49.81

>  <molecular_refractivity>
28.16

>  <oscillator_strength_1>
0.0002

>  <oscillator_strength_2>
0.0034

>  <oscillator_strength_3>
0.0007

>  <oscillator_strength_4>
0.0068

>  <open_babel_can_smiles>
CCCOS(=O)(=O)O

>  <mulliken_charges>
16
1   -0.456722
2   -0.27716
3   -0.064439
4   -0.626622
5   -0.493727
6   -0.481567
7   -0.512842
8   1.319281
9   0.159771
10   0.156276
11   0.14961
12   0.172355
13   0.151413
14   0.171099
15   0.189545
16   0.443729

>  <lowdin_charges>
16
1   -0.443391
2   -0.2857
3   -0.122966
4   -0.566709
5   -0.542606
6   -0.546153
7   -0.401168
8   1.422496
9   0.161679
10   0.152628
11   0.1499
12   0.158947
13   0.149894
14   0.161428
15   0.165781
16   0.385939

$$$$

