PCCDB-ID:  6570
public computational chemistry database (PCCDB) project, http://pccdb.org

 11 10  0  0  0  0  0  0  0  0999 V2000
    0.9528   -0.4754   -0.1418 C   0  0  0  0  0  0  0  0  0  0  0  0
    2.5046    0.4581   -2.5577 C   0  0  0  0  0  0  0  0  0  0  0  0
    2.2228   -0.0711   -0.0300 C   0  0  0  0  0  0  0  0  0  0  0  0
    3.0803    0.4033   -1.1514 C   0  0  0  0  0  0  0  0  0  0  0  0
    4.2324    0.7409   -0.9246 O   0  0  0  0  0  0  0  0  0  0  0  0
    0.3866   -0.8103    0.7230 H   0  0  0  0  0  0  0  0  0  0  0  0
    0.4284   -0.4896   -1.0935 H   0  0  0  0  0  0  0  0  0  0  0  0
    1.6305    1.1186   -2.6001 H   0  0  0  0  0  0  0  0  0  0  0  0
    2.1815   -0.5358   -2.8892 H   0  0  0  0  0  0  0  0  0  0  0  0
    3.2728    0.8324   -3.2365 H   0  0  0  0  0  0  0  0  0  0  0  0
    2.7259   -0.0671    0.9347 H   0  0  0  0  0  0  0  0  0  0  0  0
  1  3  2  0  0  0  0
  1  6  1  0  0  0  0
  2  4  1  0  0  0  0
  3 11  1  0  0  0  0
  4  5  2  0  0  0  0
  4  3  1  0  0  0  0
  7  1  1  0  0  0  0
  8  2  1  0  0  0  0
  9  2  1  0  0  0  0
 10  2  1  0  0  0  0
M  END
>  <HBA>
1

>  <HBD>
0

>  <TPSA>
17.07

>  <cid>
6570

>  <dipole>
3.11

>  <excitation_energy_1>
3.609

>  <excitation_energy_2>
6.071

>  <excitation_energy_3>
6.482

>  <excitation_energy_4>
6.762

>  <homo_energy>
-6.746

>  <homo_lumo_gap>
5.195

>  <logP>
0.761

>  <lumo_energy>
-1.551

>  <melting_point>
-24.44

>  <molecular_refractivity>
21.07

>  <oscillator_strength_1>
0.0002

>  <oscillator_strength_2>
0.309

>  <oscillator_strength_3>
0.0583

>  <oscillator_strength_4>
0.0001

>  <open_babel_can_smiles>
CC(=O)C=C

>  <mulliken_charges>
11
1   -0.324963
2   -0.543014
3   -0.118564
4   0.44286
5   -0.449608
6   0.162618
7   0.156258
8   0.169489
9   0.169657
10   0.182335
11   0.152933

>  <lowdin_charges>
11
1   -0.291241
2   -0.477179
3   -0.176213
4   0.156175
5   -0.234129
6   0.1716
7   0.165067
8   0.169752
9   0.169183
10   0.176557
11   0.170429

$$$$

