PCCDB-ID:  25118
public computational chemistry database (PCCDB) project, http://pccdb.org

 29 30  0  0  0  0  0  0  0  0999 V2000
    0.9852    0.2425    0.1733 C   0  0  0  0  0  0  0  0  0  0  0  0
    2.9908    0.7640    1.3785 C   0  0  0  0  0  0  0  0  0  0  0  0
    5.1378   -4.8120    2.8150 C   0  0  0  0  0  0  0  0  0  0  0  0
    5.4294   -6.0839    2.2909 C   0  0  0  0  0  0  0  0  0  0  0  0
    4.8751   -3.7402    1.9724 C   0  0  0  0  0  0  0  0  0  0  0  0
    5.4645   -6.2937    0.9167 C   0  0  0  0  0  0  0  0  0  0  0  0
    4.3097   -1.5073   -0.2392 C   0  0  0  0  0  0  0  0  0  0  0  0
    2.8241   -1.3154    0.1268 C   0  0  0  0  0  0  0  0  0  0  0  0
    4.7977   -3.5139   -1.7104 C   0  0  0  0  0  0  0  0  0  0  0  0
    4.6689   -2.9527   -0.4772 C   0  0  0  0  0  0  0  0  0  0  0  0
    4.9009   -3.9231    0.5767 C   0  0  0  0  0  0  0  0  0  0  0  0
    5.2006   -5.2121    0.0707 C   0  0  0  0  0  0  0  0  0  0  0  0
    2.4346    0.0919    0.2113 N   0  0  0  0  0  0  0  0  0  0  0  0
    5.1946   -5.2191   -1.6864 S   0  0  0  0  0  0  0  0  0  0  0  0
    0.7271    1.3073    0.1629 H   0  0  0  0  0  0  0  0  0  0  0  0
    0.4708   -0.2232    1.0377 H   0  0  0  0  0  0  0  0  0  0  0  0
    0.5887   -0.2111   -0.7414 H   0  0  0  0  0  0  0  0  0  0  0  0
    2.6845    1.8156    1.3739 H   0  0  0  0  0  0  0  0  0  0  0  0
    4.0842    0.7401    1.3530 H   0  0  0  0  0  0  0  0  0  0  0  0
    2.6587    0.3154    2.3369 H   0  0  0  0  0  0  0  0  0  0  0  0
    5.1170   -4.6680    3.8917 H   0  0  0  0  0  0  0  0  0  0  0  0
    5.6305   -6.9119    2.9650 H   0  0  0  0  0  0  0  0  0  0  0  0
    4.6492   -2.7619    2.3878 H   0  0  0  0  0  0  0  0  0  0  0  0
    5.6922   -7.2751    0.5103 H   0  0  0  0  0  0  0  0  0  0  0  0
    4.9516   -1.1030    0.5536 H   0  0  0  0  0  0  0  0  0  0  0  0
    4.5139   -0.9172   -1.1393 H   0  0  0  0  0  0  0  0  0  0  0  0
    2.5914   -1.8645    1.0616 H   0  0  0  0  0  0  0  0  0  0  0  0
    2.2221   -1.7788   -0.6630 H   0  0  0  0  0  0  0  0  0  0  0  0
    4.6837   -3.0153   -2.6650 H   0  0  0  0  0  0  0  0  0  0  0  0
  1 13  1  0  0  0  0
  1 16  1  0  0  0  0
  2 20  1  0  0  0  0
  3 21  1  0  0  0  0
  4  3  1  0  0  0  0
  4 22  1  0  0  0  0
  5 23  1  0  0  0  0
  5  3  2  0  0  0  0
  6  4  2  0  0  0  0
  7  8  1  0  0  0  0
  7 25  1  0  0  0  0
  8 13  1  0  0  0  0
  8 27  1  0  0  0  0
  9 14  1  0  0  0  0
  9 10  2  0  0  0  0
 10  7  1  0  0  0  0
 10 11  1  0  0  0  0
 11  5  1  0  0  0  0
 12 11  2  0  0  0  0
 12  6  1  0  0  0  0
 13  2  1  0  0  0  0
 14 12  1  0  0  0  0
 15  1  1  0  0  0  0
 17  1  1  0  0  0  0
 18  2  1  0  0  0  0
 19  2  1  0  0  0  0
 24  6  1  0  0  0  0
 26  7  1  0  0  0  0
 28  8  1  0  0  0  0
 29  9  1  0  0  0  0
M  END
>  <HBA>
2

>  <HBD>
0

>  <TPSA>
31.48

>  <cid>
25118

>  <dipole>
1.23

>  <excitation_energy_1>
4.448

>  <excitation_energy_2>
4.627

>  <excitation_energy_3>
4.724

>  <excitation_energy_4>
4.987

>  <homo_energy>
-5.649

>  <homo_lumo_gap>
5.056

>  <logP>
3.005

>  <lumo_energy>
-0.593

>  <melting_point>
52.36

>  <molecular_refractivity>
64.11

>  <oscillator_strength_1>
0.0497

>  <oscillator_strength_2>
0.0229

>  <oscillator_strength_3>
0.0061

>  <oscillator_strength_4>
0.0003

>  <open_babel_can_smiles>
CN(CCc1csc2c1cccc2)C

>  <mulliken_charges>
29
1   -0.294844
2   -0.302511
3   -0.142856
4   -0.121795
5   -0.180544
6   -0.166162
7   -0.349577
8   -0.1101
9   -0.415513
10   0.160059
11   0.118845
12   -0.149812
13   -0.366599
14   0.223377
15   0.14785
16   0.118298
17   0.149671
18   0.150093
19   0.152974
20   0.115972
21   0.129387
22   0.13067
23   0.129807
24   0.139989
25   0.148753
26   0.155653
27   0.117546
28   0.142167
29   0.1692

>  <lowdin_charges>
29
1   -0.355337
2   -0.355417
3   -0.160089
4   -0.160197
5   -0.16223
6   -0.160838
7   -0.276161
8   -0.200261
9   -0.316348
10   -0.02726
11   -0.023558
12   -0.134593
13   -0.184511
14   0.280358
15   0.147937
16   0.121389
17   0.150434
18   0.150052
19   0.147855
20   0.118901
21   0.156363
22   0.160475
23   0.158483
24   0.163835
25   0.151823
26   0.159514
27   0.120361
28   0.149301
29   0.17972

$$$$

