PCCDB-ID:  10317
public computational chemistry database (PCCDB) project, http://pccdb.org

 28 29  0  0  0  0  0  0  0  0999 V2000
   -0.7471   -0.6373    0.7819 C   0  0  0  0  0  0  0  0  0  0  0  0
   -0.1935   -1.9111    0.6391 C   0  0  0  0  0  0  0  0  0  0  0  0
    0.0712    0.4925    0.6612 C   0  0  0  0  0  0  0  0  0  0  0  0
    1.1675   -2.0535    0.3769 C   0  0  0  0  0  0  0  0  0  0  0  0
    1.4295    0.3564    0.3969 C   0  0  0  0  0  0  0  0  0  0  0  0
    7.3452   -1.8539   -0.8922 C   0  0  0  0  0  0  0  0  0  0  0  0
    6.0110   -1.6967   -0.5848 C   0  0  0  0  0  0  0  0  0  0  0  0
    7.5996    0.5648   -0.9805 C   0  0  0  0  0  0  0  0  0  0  0  0
    8.1589   -0.7115   -1.0990 C   0  0  0  0  0  0  0  0  0  0  0  0
    1.9912   -0.9247    0.2488 C   0  0  0  0  0  0  0  0  0  0  0  0
    6.2459    0.7329   -0.6566 C   0  0  0  0  0  0  0  0  0  0  0  0
    5.4272   -0.4188   -0.4673 C   0  0  0  0  0  0  0  0  0  0  0  0
    9.5112   -0.8691   -1.3644 N   0  0  0  0  0  0  0  0  0  0  0  0
    5.7087    1.9900   -0.4825 N   0  0  0  0  0  0  0  0  0  0  0  0
    3.3536   -1.1981   -0.0158 N   0  0  0  0  0  0  0  0  0  0  0  0
    4.0820   -0.1754   -0.2011 N   0  0  0  0  0  0  0  0  0  0  0  0
   -1.8077   -0.5221    0.9890 H   0  0  0  0  0  0  0  0  0  0  0  0
   -0.8217   -2.7929    0.7335 H   0  0  0  0  0  0  0  0  0  0  0  0
   -0.3574    1.4850    0.7770 H   0  0  0  0  0  0  0  0  0  0  0  0
    1.6229   -3.0328    0.2638 H   0  0  0  0  0  0  0  0  0  0  0  0
    2.0709    1.2256    0.3065 H   0  0  0  0  0  0  0  0  0  0  0  0
    7.7822   -2.8458   -0.9762 H   0  0  0  0  0  0  0  0  0  0  0  0
    5.3675   -2.5569   -0.4352 H   0  0  0  0  0  0  0  0  0  0  0  0
    8.2265    1.4433   -1.1203 H   0  0  0  0  0  0  0  0  0  0  0  0
    9.7865   -1.7587   -1.7590 H   0  0  0  0  0  0  0  0  0  0  0  0
    9.9791   -0.0854   -1.8002 H   0  0  0  0  0  0  0  0  0  0  0  0
    6.1502    2.7537   -0.9748 H   0  0  0  0  0  0  0  0  0  0  0  0
    4.6971    2.0121   -0.4641 H   0  0  0  0  0  0  0  0  0  0  0  0
  1 17  1  0  0  0  0
  2 18  1  0  0  0  0
  2  1  2  0  0  0  0
  3 19  1  0  0  0  0
  3  1  1  0  0  0  0
  4  2  1  0  0  0  0
  5  3  2  0  0  0  0
  6  7  2  0  0  0  0
  7 12  1  0  0  0  0
  7 23  1  0  0  0  0
  8 11  1  0  0  0  0
  9  8  2  0  0  0  0
  9  6  1  0  0  0  0
 10  4  2  0  0  0  0
 10  5  1  0  0  0  0
 11 14  1  0  0  0  0
 11 12  2  0  0  0  0
 12 16  1  0  0  0  0
 13  9  1  0  0  0  0
 14 28  1  0  0  0  0
 15 10  1  0  0  0  0
 16 15  2  0  0  0  0
 20  4  1  0  0  0  0
 21  5  1  0  0  0  0
 22  6  1  0  0  0  0
 24  8  1  0  0  0  0
 25 13  1  0  0  0  0
 26 13  1  0  0  0  0
 27 14  1  0  0  0  0
M  END
>  <HBA>
4

>  <HBD>
2

>  <TPSA>
76.76

>  <cid>
10317

>  <dipole>
3.77

>  <excitation_energy_1>
2.717

>  <excitation_energy_2>
2.992

>  <excitation_energy_3>
3.467

>  <excitation_energy_4>
4.114

>  <homo_energy>
-5.037

>  <homo_lumo_gap>
3.317

>  <logP>
4.429

>  <lumo_energy>
-1.72

>  <melting_point>
161.13

>  <molecular_refractivity>
65.87

>  <oscillator_strength_1>
0.0015

>  <oscillator_strength_2>
0.5639

>  <oscillator_strength_3>
0.283

>  <oscillator_strength_4>
0.0053

>  <open_babel_can_smiles>
Nc1ccc(c(c1)N)/N=N/c1ccccc1

>  <mulliken_charges>
28
1   -0.122949
2   -0.138274
3   -0.145418
4   -0.145466
5   -0.129466
6   -0.196567
7   -0.141899
8   -0.250195
9   0.342041
10   0.280149
11   0.315734
12   0.25934
13   -0.792686
14   -0.801227
15   -0.335832
16   -0.355827
17   0.127556
18   0.129164
19   0.128089
20   0.135093
21   0.135597
22   0.118122
23   0.15597
24   0.107656
25   0.327842
26   0.32562
27   0.320372
28   0.347463

>  <lowdin_charges>
28
1   -0.154673
2   -0.158796
3   -0.154702
4   -0.153595
5   -0.162924
6   -0.219787
7   -0.129705
8   -0.255992
9   0.086476
10   0.017939
11   0.083641
12   -0.051587
13   -0.473536
14   -0.468707
15   -0.111922
16   -0.091094
17   0.15525
18   0.158295
19   0.155766
20   0.164031
21   0.16318
22   0.153424
23   0.175365
24   0.15051
25   0.280853
26   0.280379
27   0.279229
28   0.282682

$$$$

