PCCDB-ID:  55097
public computational chemistry database (PCCDB) project, http://pccdb.org

 25 24  0  0  1  0  0  0  0  0999 V2000
    3.0675    1.4362    0.2739 C   0  0  0  0  0  0  0  0  0  0  0  0
    7.4168   -1.6523   -1.9606 C   0  0  0  0  0  0  0  0  0  0  0  0
    2.3063    0.4213   -0.1383 C   0  0  0  0  0  0  0  0  0  0  0  0
    6.3964   -1.5736   -1.1075 C   0  0  0  0  0  0  0  0  0  0  0  0
    2.2993   -0.7859   -2.3129 C   0  0  0  0  0  0  0  0  0  0  0  0
    4.5170   -3.2549   -1.1307 C   0  0  0  0  0  0  0  0  0  0  0  0
    2.8077   -0.8110   -0.8520 C   0  0  1  0  0  0  0  0  0  0  0  0
    4.9508   -1.8123   -1.4704 C   0  0  1  0  0  0  0  0  0  0  0  0
    2.9117    0.2289   -3.0822 O   0  0  0  0  0  0  0  0  0  0  0  0
    4.5427   -3.5541    0.2537 O   0  0  0  0  0  0  0  0  0  0  0  0
    4.2212   -0.8202   -0.7519 O   0  0  0  0  0  0  0  0  0  0  0  0
    2.6326    2.3069    0.7568 H   0  0  0  0  0  0  0  0  0  0  0  0
    4.1466    1.4071    0.1661 H   0  0  0  0  0  0  0  0  0  0  0  0
    8.4436   -1.5031   -1.6382 H   0  0  0  0  0  0  0  0  0  0  0  0
    7.2664   -1.8634   -3.0175 H   0  0  0  0  0  0  0  0  0  0  0  0
    1.2246    0.4601   -0.0087 H   0  0  0  0  0  0  0  0  0  0  0  0
    6.5718   -1.3322   -0.0591 H   0  0  0  0  0  0  0  0  0  0  0  0
    1.2007   -0.6849   -2.2890 H   0  0  0  0  0  0  0  0  0  0  0  0
    2.5204   -1.7306   -2.8201 H   0  0  0  0  0  0  0  0  0  0  0  0
    5.1527   -3.9393   -1.7152 H   0  0  0  0  0  0  0  0  0  0  0  0
    3.4830   -3.4272   -1.4455 H   0  0  0  0  0  0  0  0  0  0  0  0
    2.3785   -1.7008   -0.3608 H   0  0  0  0  0  0  0  0  0  0  0  0
    4.8226   -1.6725   -2.5544 H   0  0  0  0  0  0  0  0  0  0  0  0
    2.9593    1.0208   -2.5190 H   0  0  0  0  0  0  0  0  0  0  0  0
    5.4564   -3.4477    0.5616 H   0  0  0  0  0  0  0  0  0  0  0  0
  1 12  1  0  0  0  0
  2 14  1  0  0  0  0
  2  4  2  0  0  0  0
  3 16  1  0  0  0  0
  3  1  2  0  0  0  0
  4 17  1  0  0  0  0
  5 18  1  0  0  0  0
  5  7  1  0  0  0  0
  6 10  1  0  0  0  0
  7 11  1  0  0  0  0
  7 22  1  1  0  0  0
  7  3  1  0  0  0  0
  8 23  1  6  0  0  0
  8  6  1  0  0  0  0
  8  4  1  0  0  0  0
  8 11  1  0  0  0  0
  9 24  1  0  0  0  0
  9  5  1  0  0  0  0
 10 25  1  0  0  0  0
 13  1  1  0  0  0  0
 15  2  1  0  0  0  0
 19  5  1  0  0  0  0
 20  6  1  0  0  0  0
 21  6  1  0  0  0  0
M  END
>  <HBA>
3

>  <HBD>
2

>  <TPSA>
49.69

>  <cid>
55097

>  <dipole>
0.59

>  <excitation_energy_1>
5.711

>  <excitation_energy_2>
6.034

>  <excitation_energy_3>
6.221

>  <excitation_energy_4>
6.321

>  <homo_energy>
-6.672

>  <homo_lumo_gap>
6.732

>  <logP>
0.097

>  <lumo_energy>
0.06

>  <melting_point>
-40.8

>  <molecular_refractivity>
43.03

>  <oscillator_strength_1>
0.0096

>  <oscillator_strength_2>
0.0279

>  <oscillator_strength_3>
0.009

>  <oscillator_strength_4>
0.0162

>  <open_babel_can_smiles>
OC[C@@H](O[C@@H](C=C)CO)C=C

>  <mulliken_charges>
25
1   -0.332018
2   -0.336742
3   -0.113918
4   -0.087163
5   -0.046213
6   -0.059883
7   0.107693
8   0.107438
9   -0.616805
10   -0.611268
11   -0.510473
12   0.141913
13   0.168518
14   0.147104
15   0.145597
16   0.134453
17   0.141755
18   0.124392
19   0.143711
20   0.129902
21   0.145756
22   0.142747
23   0.144384
24   0.394245
25   0.394875

>  <lowdin_charges>
25
1   -0.333592
2   -0.324122
3   -0.164498
4   -0.157777
5   -0.148734
6   -0.153745
7   -0.018476
8   -0.014389
9   -0.463434
10   -0.460178
11   -0.256762
12   0.16117
13   0.169884
14   0.161789
15   0.157398
16   0.15392
17   0.156602
18   0.129579
19   0.143548
20   0.137621
21   0.144868
22   0.146499
23   0.144916
24   0.345175
25   0.342738

$$$$

