PCCDB-ID:  11554
public computational chemistry database (PCCDB) project, http://pccdb.org

 12 11  0  0  0  0  0  0  0  0999 V2000
    1.0046   -0.2712   -0.1419 C   0  0  0  0  0  0  0  0  0  0  0  0
    1.9748    1.7045    1.5213 C   0  0  0  0  0  0  0  0  0  0  0  0
    2.9480    0.8032    0.9119 N   0  0  0  0  0  0  0  0  0  0  0  0
    2.4723   -0.1147    0.1577 N   0  0  0  0  0  0  0  0  0  0  0  0
    1.1997    1.0984    2.5468 O   0  0  0  0  0  0  0  0  0  0  0  0
    3.2096   -0.9464   -0.3985 O   0  0  0  0  0  0  0  0  0  0  0  0
    0.4366   -0.1841    0.7832 H   0  0  0  0  0  0  0  0  0  0  0  0
    0.9029   -1.2511   -0.5997 H   0  0  0  0  0  0  0  0  0  0  0  0
    0.7128    0.5111   -0.8474 H   0  0  0  0  0  0  0  0  0  0  0  0
    1.2485    2.1101    0.8068 H   0  0  0  0  0  0  0  0  0  0  0  0
    2.5688    2.5369    1.9145 H   0  0  0  0  0  0  0  0  0  0  0  0
    1.8242    0.7437    3.2013 H   0  0  0  0  0  0  0  0  0  0  0  0
  1  4  1  0  0  0  0
  1  7  1  0  0  0  0
  2 11  1  0  0  0  0
  2  5  1  0  0  0  0
  3  2  1  0  0  0  0
  4  3  1  0  0  0  0
  5 12  1  0  0  0  0
  6  4  1  0  0  0  0
  8  1  1  0  0  0  0
  9  1  1  0  0  0  0
 10  2  1  0  0  0  0
M  RAD  2   3   2   6   2
M  END
>  <HBA>
3

>  <HBD>
1

>  <TPSA>
61.34

>  <cid>
11554

>  <dipole>
3.0

>  <excitation_energy_1>
4.031

>  <excitation_energy_2>
4.689

>  <excitation_energy_3>
5.507

>  <excitation_energy_4>
5.827

>  <homo_energy>
-7.021

>  <homo_lumo_gap>
5.557

>  <logP>
0.052

>  <lumo_energy>
-1.464

>  <melting_point>
21.94

>  <molecular_refractivity>
21.11

>  <oscillator_strength_1>
0.0001

>  <oscillator_strength_2>
0.0019

>  <oscillator_strength_3>
0.1774

>  <oscillator_strength_4>
0.0727

>  <open_babel_can_smiles>
OC[N]N([O])C

>  <mulliken_charges>
12
1   -0.365974
2   0.030381
3   -0.254339
4   0.258666
5   -0.600482
6   -0.411423
7   0.22084
8   0.208002
9   0.195804
10   0.152718
11   0.164505
12   0.401302

>  <lowdin_charges>
12
1   -0.391765
2   -0.106686
3   -0.208426
4   0.252597
5   -0.461952
6   -0.291327
7   0.190405
8   0.188134
9   0.180211
10   0.144896
11   0.152439
12   0.351473

$$$$

