PCCDB-ID:  5961
public computational chemistry database (PCCDB) project, http://pccdb.org

 20 19  0  0  1  0  0  0  0  0999 V2000
    1.0651   -0.2197   -0.0971 C   0  0  0  0  0  0  0  0  0  0  0  0
    0.5099   -1.4682    0.6137 C   0  0  0  0  0  0  0  0  0  0  0  0
    2.5518    0.0317    0.2524 C   0  0  1  0  0  0  0  0  0  0  0  0
   -1.0025   -1.5700    0.5180 C   0  0  0  0  0  0  0  0  0  0  0  0
    3.1066    1.1602   -0.6393 C   0  0  0  0  0  0  0  0  0  0  0  0
    2.6798    0.3380    1.6732 N   0  0  0  0  0  0  0  0  0  0  0  0
   -1.6933   -2.3993   -0.1499 N   0  0  0  0  0  0  0  0  0  0  0  0
   -1.6827   -0.6136    1.2175 O   0  0  0  0  0  0  0  0  0  0  0  0
    3.3239    2.2744   -0.2322 O   0  0  0  0  0  0  0  0  0  0  0  0
    3.3079    0.8557   -1.9472 O   0  0  0  0  0  0  0  0  0  0  0  0
    0.4960    0.6703    0.2008 H   0  0  0  0  0  0  0  0  0  0  0  0
    0.9294   -0.3182   -1.1816 H   0  0  0  0  0  0  0  0  0  0  0  0
    0.8134   -1.4236    1.6678 H   0  0  0  0  0  0  0  0  0  0  0  0
    0.9589   -2.3727    0.1881 H   0  0  0  0  0  0  0  0  0  0  0  0
    3.1189   -0.8873    0.0442 H   0  0  0  0  0  0  0  0  0  0  0  0
    2.5286    1.3424    1.7831 H   0  0  0  0  0  0  0  0  0  0  0  0
    3.6411    0.1828    1.9722 H   0  0  0  0  0  0  0  0  0  0  0  0
   -1.0760   -3.0437   -0.6458 H   0  0  0  0  0  0  0  0  0  0  0  0
   -1.0642   -0.1266    1.7833 H   0  0  0  0  0  0  0  0  0  0  0  0
    3.1025   -0.0799   -2.1110 H   0  0  0  0  0  0  0  0  0  0  0  0
  1 11  1  0  0  0  0
  1  3  1  0  0  0  0
  1  2  1  0  0  0  0
  2 13  1  0  0  0  0
  3 15  1  6  0  0  0
  3  6  1  0  0  0  0
  4  2  1  0  0  0  0
  4  8  1  0  0  0  0
  5  9  2  0  0  0  0
  5  3  1  0  0  0  0
  6 16  1  0  0  0  0
  6 17  1  0  0  0  0
  7  4  2  0  0  0  0
  8 19  1  0  0  0  0
 10  5  1  0  0  0  0
 12  1  1  0  0  0  0
 14  2  1  0  0  0  0
 18  7  1  0  0  0  0
 20 10  1  0  0  0  0
M  END
>  <HBA>
5

>  <HBD>
3

>  <TPSA>
106.41

>  <cid>
5961

>  <dipole>
4.49

>  <excitation_energy_1>
5.571

>  <excitation_energy_2>
5.925

>  <excitation_energy_3>
5.956

>  <excitation_energy_4>
6.07

>  <homo_energy>
-7.138

>  <homo_lumo_gap>
6.83

>  <logP>
0.064

>  <lumo_energy>
-0.307

>  <melting_point>
181.15

>  <molecular_refractivity>
33.54

>  <oscillator_strength_1>
0.0107

>  <oscillator_strength_2>
0.0017

>  <oscillator_strength_3>
0.0039

>  <oscillator_strength_4>
0.0013

>  <open_babel_can_smiles>
OC(=N)CC[C@@H](C(=O)O)N

>  <mulliken_charges>
20
1   -0.260334
2   -0.361163
3   -0.112062
4   0.47618
5   0.58987
6   -0.704638
7   -0.577346
8   -0.572323
9   -0.43918
10   -0.558151
11   0.159877
12   0.147279
13   0.186302
14   0.144754
15   0.143653
16   0.321335
17   0.312964
18   0.279361
19   0.410292
20   0.413332

>  <lowdin_charges>
20
1   -0.276196
2   -0.312382
3   -0.113525
4   0.125154
5   0.178446
6   -0.533143
7   -0.396396
8   -0.3671
9   -0.237294
10   -0.346581
11   0.155885
12   0.146932
13   0.169593
14   0.153828
15   0.1487
16   0.266101
17   0.264574
18   0.255888
19   0.359001
20   0.358516

$$$$

