PCCDB-ID:  61291
public computational chemistry database (PCCDB) project, http://pccdb.org

 16 16  0  0  0  0  0  0  0  0999 V2000
   -0.7147    1.1944    0.2569 C   0  0  0  0  0  0  0  0  0  0  0  0
   -1.4341    0.0057    0.2617 C   0  0  0  0  0  0  0  0  0  0  0  0
    1.3604   -0.0546    0.2096 C   0  0  0  0  0  0  0  0  0  0  0  0
    0.6410   -1.2433    0.2149 C   0  0  0  0  0  0  0  0  0  0  0  0
    0.6852    1.1744    0.2306 C   0  0  0  0  0  0  0  0  0  0  0  0
   -0.7589   -1.2233    0.2409 C   0  0  0  0  0  0  0  0  0  0  0  0
    3.6921    2.6481    0.1817 N   0  0  0  0  0  0  0  0  0  0  0  0
   -3.7659   -2.6969    0.2844 N   0  0  0  0  0  0  0  0  0  0  0  0
    1.3276    2.4389    0.2259 N   0  0  0  0  0  0  0  0  0  0  0  0
   -1.4014   -2.4878    0.2425 N   0  0  0  0  0  0  0  0  0  0  0  0
    2.5645    2.4715    0.2024 N   0  0  0  0  0  0  0  0  0  0  0  0
   -2.6383   -2.5203    0.2651 N   0  0  0  0  0  0  0  0  0  0  0  0
   -1.2268    2.1509    0.2737 H   0  0  0  0  0  0  0  0  0  0  0  0
   -2.5199    0.0353    0.2829 H   0  0  0  0  0  0  0  0  0  0  0  0
    2.4462   -0.0842    0.1901 H   0  0  0  0  0  0  0  0  0  0  0  0
    1.1531   -2.1998    0.1994 H   0  0  0  0  0  0  0  0  0  0  0  0
  1  2  1  0  0  0  0
  1 13  1  0  0  0  0
  2 14  1  0  0  0  0
  3  4  2  0  0  0  0
  3  5  1  0  0  0  0
  4  6  1  0  0  0  0
  5  1  2  0  0  0  0
  6 10  1  0  0  0  0
  6  2  2  0  0  0  0
  7 11  2  0  0  0  0
  9  5  1  0  0  0  0
 10 12  2  0  0  0  0
 11  9  2  0  0  0  0
 12  8  2  0  0  0  0
 15  3  1  0  0  0  0
 16  4  1  0  0  0  0
M  RAD  2   7   2   8   2
M  END
>  <HBA>
4

>  <HBD>
0

>  <TPSA>
65.23

>  <cid>
61291

>  <dipole>
0.0

>  <excitation_energy_1>
3.514

>  <excitation_energy_2>
3.596

>  <excitation_energy_3>
4.233

>  <excitation_energy_4>
4.56

>  <homo_energy>
-5.992

>  <homo_lumo_gap>
4.596

>  <logP>
1.699

>  <lumo_energy>
-1.396

>  <melting_point>
95.6

>  <molecular_refractivity>
44.02

>  <oscillator_strength_1>
0.0

>  <oscillator_strength_2>
0.0003

>  <oscillator_strength_3>
0.408

>  <oscillator_strength_4>
0.2117

>  <open_babel_can_smiles>
[N]=[N]=Nc1ccc(cc1)N=[N]=[N]

>  <mulliken_charges>
16
1   -0.162451
2   -0.162679
3   -0.162572
4   -0.162615
5   0.3005
6   0.300625
7   -0.244818
8   -0.244816
9   -0.469162
10   -0.46915
11   0.433688
12   0.433665
13   0.156706
14   0.148185
15   0.148186
16   0.156706

>  <lowdin_charges>
16
1   -0.151441
2   -0.17395
3   -0.173949
4   -0.151447
5   0.038776
6   0.03878
7   -0.083475
8   -0.08349
9   -0.158176
10   -0.158165
11   0.187689
12   0.187687
13   0.175048
14   0.165532
15   0.165532
16   0.17505

$$$$

