PCCDB-ID:  65473
public computational chemistry database (PCCDB) project, http://pccdb.org

 24 25  0  0  1  0  0  0  0  0999 V2000
    2.0970    0.3664    0.7323 C   0  0  0  0  0  0  0  0  0  0  0  0
    2.0527   -1.1687    0.7577 C   0  0  0  0  0  0  0  0  0  0  0  0
   -1.6173    0.9518   -0.1039 C   0  0  0  0  0  0  0  0  0  0  0  0
   -2.6499    0.1522    0.3168 C   0  0  0  0  0  0  0  0  0  0  0  0
   -0.3435    0.3725    0.1610 C   0  0  0  0  0  0  0  0  0  0  0  0
    1.0034    0.9713   -0.1764 C   0  0  2  0  0  0  0  0  0  0  0  0
    0.6852   -1.7217    1.1522 C   0  0  0  0  0  0  0  0  0  0  0  0
   -0.4441   -0.8643    0.7704 C   0  0  0  0  0  0  0  0  0  0  0  0
    2.0364    1.6398   -2.3433 C   0  0  0  0  0  0  0  0  0  0  0  0
    2.7698    2.6244   -1.9834 N   0  0  0  0  0  0  0  0  0  0  0  0
    1.2827    0.7644   -1.5980 N   0  0  0  0  0  0  0  0  0  0  0  0
    0.5388   -2.7990    1.7100 O   0  0  0  0  0  0  0  0  0  0  0  0
    1.9343    1.3256   -3.6629 O   0  0  0  0  0  0  0  0  0  0  0  0
   -2.1027   -1.3214    1.0394 S   0  0  0  0  0  0  0  0  0  0  0  0
    3.0793    0.7078    0.3889 H   0  0  0  0  0  0  0  0  0  0  0  0
    1.9535    0.7567    1.7482 H   0  0  0  0  0  0  0  0  0  0  0  0
    2.7966   -1.5864    1.4423 H   0  0  0  0  0  0  0  0  0  0  0  0
    2.2847   -1.5594   -0.2435 H   0  0  0  0  0  0  0  0  0  0  0  0
   -1.7582    1.9180   -0.5768 H   0  0  0  0  0  0  0  0  0  0  0  0
   -3.7104    0.3565    0.2461 H   0  0  0  0  0  0  0  0  0  0  0  0
    0.9593    2.0556    0.0000 H   0  0  0  0  0  0  0  0  0  0  0  0
    2.7867    2.7575   -0.9743 H   0  0  0  0  0  0  0  0  0  0  0  0
    0.6731    0.1513   -2.1208 H   0  0  0  0  0  0  0  0  0  0  0  0
    2.5145    1.9625   -4.1155 H   0  0  0  0  0  0  0  0  0  0  0  0
  1  2  1  0  0  0  0
  1 16  1  0  0  0  0
  2  7  1  0  0  0  0
  2 17  1  0  0  0  0
  3  5  1  0  0  0  0
  3  4  2  0  0  0  0
  4 14  1  0  0  0  0
  5  8  2  0  0  0  0
  6 21  1  1  0  0  0
  6  5  1  0  0  0  0
  6  1  1  0  0  0  0
  7 12  2  0  0  0  0
  8 14  1  0  0  0  0
  8  7  1  0  0  0  0
  9 10  2  0  0  0  0
  9 11  1  0  0  0  0
 10 22  1  0  0  0  0
 11  6  1  0  0  0  0
 13  9  1  0  0  0  0
 15  1  1  0  0  0  0
 18  2  1  0  0  0  0
 19  3  1  0  0  0  0
 20  4  1  0  0  0  0
 23 11  1  0  0  0  0
 24 13  1  0  0  0  0
M  END
>  <HBA>
5

>  <HBD>
2

>  <TPSA>
100.43

>  <cid>
65473

>  <dipole>
2.71

>  <excitation_energy_1>
3.581

>  <excitation_energy_2>
3.971

>  <excitation_energy_3>
4.672

>  <excitation_energy_4>
4.832

>  <homo_energy>
-6.468

>  <homo_lumo_gap>
4.523

>  <logP>
2.525

>  <lumo_energy>
-1.946

>  <melting_point>
176.68

>  <molecular_refractivity>
53.08

>  <oscillator_strength_1>
0.0003

>  <oscillator_strength_2>
0.0221

>  <oscillator_strength_3>
0.1528

>  <oscillator_strength_4>
0.1336

>  <open_babel_can_smiles>
OC(=N)N[C@@H]1CCC(=O)c2c1ccs2

>  <mulliken_charges>
24
1   -0.279296
2   -0.363375
3   -0.125171
4   -0.341923
5   0.107091
6   -0.029808
7   0.449865
8   -0.242255
9   0.65523
10   -0.667188
11   -0.606516
12   -0.468829
13   -0.61083
14   0.308973
15   0.156862
16   0.152648
17   0.176035
18   0.181619
19   0.156164
20   0.185989
21   0.152927
22   0.286402
23   0.343484
24   0.421901

>  <lowdin_charges>
24
1   -0.282644
2   -0.303262
3   -0.186783
4   -0.292426
5   -0.024471
6   -0.046753
7   0.148172
8   -0.209307
9   0.163702
10   -0.495607
11   -0.302024
12   -0.240522
13   -0.384918
14   0.372182
15   0.15772
16   0.151861
17   0.17374
18   0.172674
19   0.17192
20   0.186681
21   0.15002
22   0.254412
23   0.29531
24   0.370324

$$$$

