PCCDB-ID:  36082
public computational chemistry database (PCCDB) project, http://pccdb.org

 34 36  0  0  1  0  0  0  0  0999 V2000
    3.0715   -1.2130    0.4725 C   0  0  0  0  0  0  0  0  0  0  0  0
    0.9678   -0.1277    0.7063 C   0  0  0  0  0  0  0  0  0  0  0  0
    8.7944    3.0480   -0.4828 C   0  0  0  0  0  0  0  0  0  0  0  0
    8.7880    4.4548   -0.4061 C   0  0  0  0  0  0  0  0  0  0  0  0
    7.6105    2.3212   -0.4247 C   0  0  0  0  0  0  0  0  0  0  0  0
    7.5978    5.1630   -0.2682 C   0  0  0  0  0  0  0  0  0  0  0  0
    2.1933    2.4113   -0.3042 C   0  0  0  0  0  0  0  0  0  0  0  0
    2.7809    3.7825    0.0840 C   0  0  0  0  0  0  0  0  0  0  0  0
    4.4162    1.2227   -0.1962 C   0  0  0  0  0  0  0  0  0  0  0  0
    2.9631    1.2344    0.3380 C   0  0  2  0  0  0  0  0  0  0  0  0
    6.3921    3.0063   -0.2852 C   0  0  0  0  0  0  0  0  0  0  0  0
    5.0133    2.6006   -0.1878 C   0  0  0  0  0  0  0  0  0  0  0  0
    6.4107    4.4287   -0.2080 C   0  0  0  0  0  0  0  0  0  0  0  0
    4.2660    3.7422   -0.0615 C   0  0  0  0  0  0  0  0  0  0  0  0
    5.1005    4.8486   -0.0690 N   0  0  0  0  0  0  0  0  0  0  0  0
    2.2825   -0.0489    0.0734 N   0  0  0  0  0  0  0  0  0  0  0  0
    2.4913   -2.1191    0.2702 H   0  0  0  0  0  0  0  0  0  0  0  0
    3.3373   -1.2161    1.5487 H   0  0  0  0  0  0  0  0  0  0  0  0
    3.9934   -1.2802   -0.1081 H   0  0  0  0  0  0  0  0  0  0  0  0
    0.5281   -1.1080    0.4964 H   0  0  0  0  0  0  0  0  0  0  0  0
    0.2856    0.6242    0.3037 H   0  0  0  0  0  0  0  0  0  0  0  0
    1.0072   -0.0026    1.8072 H   0  0  0  0  0  0  0  0  0  0  0  0
    9.7413    2.5259   -0.5909 H   0  0  0  0  0  0  0  0  0  0  0  0
    9.7280    4.9975   -0.4559 H   0  0  0  0  0  0  0  0  0  0  0  0
    7.6276    1.2359   -0.4879 H   0  0  0  0  0  0  0  0  0  0  0  0
    7.5944    6.2487   -0.2092 H   0  0  0  0  0  0  0  0  0  0  0  0
    2.2282    2.2864   -1.3939 H   0  0  0  0  0  0  0  0  0  0  0  0
    1.1393    2.3971   -0.0157 H   0  0  0  0  0  0  0  0  0  0  0  0
    2.5000    4.0316    1.1194 H   0  0  0  0  0  0  0  0  0  0  0  0
    2.3386    4.5654   -0.5484 H   0  0  0  0  0  0  0  0  0  0  0  0
    4.4087    0.8002   -1.2128 H   0  0  0  0  0  0  0  0  0  0  0  0
    5.0365    0.5547    0.4128 H   0  0  0  0  0  0  0  0  0  0  0  0
    3.0132    1.4167    1.4336 H   0  0  0  0  0  0  0  0  0  0  0  0
    4.7978    5.8078   -0.0010 H   0  0  0  0  0  0  0  0  0  0  0  0
  1 18  1  0  0  0  0
  2 22  1  0  0  0  0
  3  5  2  0  0  0  0
  3  4  1  0  0  0  0
  4  6  2  0  0  0  0
  5 11  1  0  0  0  0
  6 26  1  0  0  0  0
  6 13  1  0  0  0  0
  7 28  1  0  0  0  0
  7  8  1  0  0  0  0
  7 10  1  0  0  0  0
  8 29  1  0  0  0  0
  9 12  1  0  0  0  0
  9 10  1  0  0  0  0
  9 32  1  0  0  0  0
 10 33  1  1  0  0  0
 11 13  2  0  0  0  0
 11 12  1  0  0  0  0
 12 14  2  0  0  0  0
 13 15  1  0  0  0  0
 14  8  1  0  0  0  0
 15 14  1  0  0  0  0
 15 34  1  0  0  0  0
 16 10  1  0  0  0  0
 16  1  1  0  0  0  0
 16  2  1  0  0  0  0
 17  1  1  0  0  0  0
 19  1  1  0  0  0  0
 20  2  1  0  0  0  0
 21  2  1  0  0  0  0
 23  3  1  0  0  0  0
 24  4  1  0  0  0  0
 25  5  1  0  0  0  0
 27  7  1  0  0  0  0
 30  8  1  0  0  0  0
 31  9  1  0  0  0  0
M  END
>  <HBA>
1

>  <HBD>
1

>  <TPSA>
19.03

>  <cid>
36082

>  <dipole>
2.37

>  <excitation_energy_1>
4.525

>  <excitation_energy_2>
4.561

>  <excitation_energy_3>
4.775

>  <excitation_energy_4>
4.969

>  <homo_energy>
-5.124

>  <homo_lumo_gap>
5.162

>  <logP>
2.587

>  <lumo_energy>
0.038

>  <melting_point>
127.16

>  <molecular_refractivity>
68.24

>  <oscillator_strength_1>
0.0649

>  <oscillator_strength_2>
0.0266

>  <oscillator_strength_3>
0.0105

>  <oscillator_strength_4>
0.0088

>  <open_babel_can_smiles>
CN([C@@H]1CCc2c(C1)c1ccccc1[nH]2)C

>  <mulliken_charges>
34
1   -0.299275
2   -0.301274
3   -0.143219
4   -0.149627
5   -0.208757
6   -0.174896
7   -0.278908
8   -0.353481
9   -0.365001
10   0.075922
11   0.062646
12   0.044622
13   0.329595
14   0.312821
15   -0.773891
16   -0.393185
17   0.145514
18   0.116729
19   0.159878
20   0.147406
21   0.153086
22   0.115994
23   0.116766
24   0.118779
25   0.119186
26   0.116786
27   0.152055
28   0.136101
29   0.152182
30   0.143969
31   0.153983
32   0.147829
33   0.10146
34   0.318205

>  <lowdin_charges>
34
1   -0.357023
2   -0.357137
3   -0.178006
4   -0.168197
5   -0.163507
6   -0.187311
7   -0.272621
8   -0.27799
9   -0.275713
10   -0.053077
11   -0.033382
12   -0.078285
13   0.034201
14   0.014031
15   -0.209076
16   -0.187682
17   0.149768
18   0.118168
19   0.153937
20   0.150206
21   0.150609
22   0.117306
23   0.152953
24   0.154058
25   0.151881
26   0.151131
27   0.149298
28   0.146277
29   0.149833
30   0.152539
31   0.151248
32   0.153603
33   0.111298
34   0.286663

$$$$

