PCCDB-ID:  69214
public computational chemistry database (PCCDB) project, http://pccdb.org

 26 25  0  0  0  0  0  0  0  0999 V2000
    7.2054    1.3384    0.4208 C   0  0  0  0  0  0  0  0  0  0  0  0
    1.3314   -5.5136   -4.8305 C   0  0  0  0  0  0  0  0  0  0  0  0
    6.4231    0.6447   -0.7000 C   0  0  0  0  0  0  0  0  0  0  0  0
    2.1234   -4.8167   -3.7186 C   0  0  0  0  0  0  0  0  0  0  0  0
    5.2301   -0.1338   -0.1559 C   0  0  0  0  0  0  0  0  0  0  0  0
    3.3995   -4.1763   -4.2536 C   0  0  0  0  0  0  0  0  0  0  0  0
    4.8295   -1.9013   -1.6816 C   0  0  0  0  0  0  0  0  0  0  0  0
    3.8893   -2.3550   -2.8197 C   0  0  0  0  0  0  0  0  0  0  0  0
    5.7673   -2.5489   -1.2785 O   0  0  0  0  0  0  0  0  0  0  0  0
    3.0247   -1.6603   -3.3004 O   0  0  0  0  0  0  0  0  0  0  0  0
    4.4411   -0.7045   -1.2301 O   0  0  0  0  0  0  0  0  0  0  0  0
    4.1928   -3.6054   -3.1821 O   0  0  0  0  0  0  0  0  0  0  0  0
    8.0497    1.9027    0.0116 H   0  0  0  0  0  0  0  0  0  0  0  0
    7.6069    0.6124    1.1375 H   0  0  0  0  0  0  0  0  0  0  0  0
    6.5733    2.0423    0.9759 H   0  0  0  0  0  0  0  0  0  0  0  0
    0.4182   -5.9661   -4.4306 H   0  0  0  0  0  0  0  0  0  0  0  0
    1.9181   -6.3108   -5.3030 H   0  0  0  0  0  0  0  0  0  0  0  0
    1.0355   -4.8063   -5.6146 H   0  0  0  0  0  0  0  0  0  0  0  0
    7.0783   -0.0468   -1.2421 H   0  0  0  0  0  0  0  0  0  0  0  0
    6.0601    1.3846   -1.4237 H   0  0  0  0  0  0  0  0  0  0  0  0
    2.3925   -5.5365   -2.9356 H   0  0  0  0  0  0  0  0  0  0  0  0
    1.5084   -4.0401   -3.2500 H   0  0  0  0  0  0  0  0  0  0  0  0
    4.5325    0.5224    0.3709 H   0  0  0  0  0  0  0  0  0  0  0  0
    5.5514   -0.9373    0.5128 H   0  0  0  0  0  0  0  0  0  0  0  0
    3.1745   -3.3925   -4.9825 H   0  0  0  0  0  0  0  0  0  0  0  0
    4.0586   -4.9198   -4.7089 H   0  0  0  0  0  0  0  0  0  0  0  0
  1 15  1  0  0  0  0
  1 14  1  0  0  0  0
  2 16  1  0  0  0  0
  2  4  1  0  0  0  0
  3  5  1  0  0  0  0
  3  1  1  0  0  0  0
  4 22  1  0  0  0  0
  4 21  1  0  0  0  0
  5 23  1  0  0  0  0
  5 24  1  0  0  0  0
  6  4  1  0  0  0  0
  6 12  1  0  0  0  0
  7  9  2  0  0  0  0
  7 11  1  0  0  0  0
  8  7  1  0  0  0  0
 10  8  2  0  0  0  0
 11  5  1  0  0  0  0
 12  8  1  0  0  0  0
 13  1  1  0  0  0  0
 17  2  1  0  0  0  0
 18  2  1  0  0  0  0
 19  3  1  0  0  0  0
 20  3  1  0  0  0  0
 25  6  1  0  0  0  0
 26  6  1  0  0  0  0
M  END
>  <HBA>
4

>  <HBD>
0

>  <TPSA>
52.6

>  <cid>
69214

>  <dipole>
0.2

>  <excitation_energy_1>
4.128

>  <excitation_energy_2>
5.583

>  <excitation_energy_3>
6.058

>  <excitation_energy_4>
6.22

>  <homo_energy>
-7.168

>  <homo_lumo_gap>
5.693

>  <logP>
0.893

>  <lumo_energy>
-1.475

>  <melting_point>
-3.01

>  <molecular_refractivity>
43.14

>  <oscillator_strength_1>
0.0002

>  <oscillator_strength_2>
0.0006

>  <oscillator_strength_3>
0.0003

>  <oscillator_strength_4>
0.146

>  <open_babel_can_smiles>
CCCOC(=O)C(=O)OCCC

>  <mulliken_charges>
26
1   -0.454539
2   -0.454345
3   -0.276087
4   -0.276354
5   -0.044951
6   -0.044509
7   0.571922
8   0.572062
9   -0.457555
10   -0.457878
11   -0.440639
12   -0.440879
13   0.156093
14   0.153356
15   0.146851
16   0.156053
17   0.147104
18   0.153218
19   0.164321
20   0.15361
21   0.1525
22   0.164593
23   0.157971
24   0.169785
25   0.169749
26   0.158545

>  <lowdin_charges>
26
1   -0.44721
2   -0.446114
3   -0.286756
4   -0.28634
5   -0.13286
6   -0.132471
7   0.164957
8   0.165916
9   -0.232874
10   -0.233304
11   -0.156742
12   -0.157311
13   0.158934
14   0.153436
15   0.150474
16   0.158481
17   0.150344
18   0.15311
19   0.15871
20   0.152826
21   0.152032
22   0.158555
23   0.157528
24   0.159579
25   0.15949
26   0.157612

$$$$

