PCCDB-ID:  72584
public computational chemistry database (PCCDB) project, http://pccdb.org

 24 26  0  0  0  0  0  0  0  0999 V2000
    0.9878   -0.0616   -0.0026 C   0  0  0  0  0  0  0  0  0  0  0  0
    6.6123   -4.5300    0.0002 C   0  0  0  0  0  0  0  0  0  0  0  0
    5.5158   -5.3986   -0.0003 C   0  0  0  0  0  0  0  0  0  0  0  0
    6.4382   -3.1377    0.0007 C   0  0  0  0  0  0  0  0  0  0  0  0
    4.2077   -4.8946   -0.0002 C   0  0  0  0  0  0  0  0  0  0  0  0
    3.2710    1.0791   -0.0011 C   0  0  0  0  0  0  0  0  0  0  0  0
    4.6642    1.0022    0.0002 C   0  0  0  0  0  0  0  0  0  0  0  0
    2.4923   -0.0924   -0.0021 C   0  0  0  0  0  0  0  0  0  0  0  0
    5.1413   -2.6431    0.0011 C   0  0  0  0  0  0  0  0  0  0  0  0
    4.0389   -3.5179    0.0005 C   0  0  0  0  0  0  0  0  0  0  0  0
    3.2203   -1.2817   -0.0011 C   0  0  0  0  0  0  0  0  0  0  0  0
    4.6292   -1.2514    0.0005 C   0  0  0  0  0  0  0  0  0  0  0  0
    2.7739   -2.7107   -0.0004 C   0  0  0  0  0  0  0  0  0  0  0  0
    5.3691   -0.1464    0.0014 N   0  0  0  0  0  0  0  0  0  0  0  0
    1.6289   -3.1314    0.0002 O   0  0  0  0  0  0  0  0  0  0  0  0
    0.6128    0.9662   -0.0023 H   0  0  0  0  0  0  0  0  0  0  0  0
    0.5861   -0.5845    0.8721 H   0  0  0  0  0  0  0  0  0  0  0  0
    0.5866   -0.5837   -0.8780 H   0  0  0  0  0  0  0  0  0  0  0  0
    7.6181   -4.9419    0.0003 H   0  0  0  0  0  0  0  0  0  0  0  0
    5.6818   -6.4723   -0.0006 H   0  0  0  0  0  0  0  0  0  0  0  0
    7.2889   -2.4632    0.0009 H   0  0  0  0  0  0  0  0  0  0  0  0
    3.3442   -5.5536   -0.0007 H   0  0  0  0  0  0  0  0  0  0  0  0
    2.7894    2.0531   -0.0004 H   0  0  0  0  0  0  0  0  0  0  0  0
    5.2542    1.9170    0.0001 H   0  0  0  0  0  0  0  0  0  0  0  0
  1 16  1  0  0  0  0
  1  8  1  0  0  0  0
  1 17  1  0  0  0  0
  2 19  1  0  0  0  0
  2  4  2  0  0  0  0
  3  5  2  0  0  0  0
  3  2  1  0  0  0  0
  4 21  1  0  0  0  0
  4  9  1  0  0  0  0
  5 10  1  0  0  0  0
  6 23  1  0  0  0  0
  6  7  1  0  0  0  0
  7 14  2  0  0  0  0
  8  6  2  0  0  0  0
  8 11  1  0  0  0  0
 10  9  2  0  0  0  0
 11 13  1  0  0  0  0
 11 12  2  0  0  0  0
 12  9  1  0  0  0  0
 12 14  1  0  0  0  0
 13 15  2  0  0  0  0
 13 10  1  0  0  0  0
 18  1  1  0  0  0  0
 20  3  1  0  0  0  0
 22  5  1  0  0  0  0
 24  7  1  0  0  0  0
M  END
>  <HBA>
2

>  <HBD>
0

>  <TPSA>
29.96

>  <cid>
72584

>  <dipole>
1.0

>  <excitation_energy_1>
3.062

>  <excitation_energy_2>
3.18

>  <excitation_energy_3>
4.021

>  <excitation_energy_4>
4.04

>  <homo_energy>
-6.408

>  <homo_lumo_gap>
4.044

>  <logP>
2.601

>  <lumo_energy>
-2.365

>  <melting_point>
120.06

>  <molecular_refractivity>
58.07

>  <oscillator_strength_1>
0.0

>  <oscillator_strength_2>
0.0011

>  <oscillator_strength_3>
0.0

>  <oscillator_strength_4>
0.015

>  <open_babel_can_smiles>
Cc1ccnc2c1C(=O)c1c2cccc1

>  <mulliken_charges>
24
1   -0.514338
2   -0.128618
3   -0.133542
4   -0.187782
5   -0.176647
6   -0.209929
7   0.049949
8   0.166282
9   0.121177
10   0.036426
11   0.018055
12   0.200093
13   0.342848
14   -0.511019
15   -0.475185
16   0.151612
17   0.186507
18   0.186409
19   0.140991
20   0.139631
21   0.157766
22   0.156763
23   0.136625
24   0.145927

>  <lowdin_charges>
24
1   -0.44024
2   -0.135893
3   -0.14995
4   -0.145998
5   -0.128683
6   -0.190071
7   -0.070687
8   0.051888
9   -0.002164
10   -0.046461
11   -0.078457
12   0.054027
13   0.153708
14   -0.154641
15   -0.226321
16   0.155567
17   0.178506
18   0.178451
19   0.162689
20   0.16113
21   0.174393
22   0.173796
23   0.164467
24   0.160942

$$$$

