PCCDB-ID:  33690
public computational chemistry database (PCCDB) project, http://pccdb.org

 40 40  0  0  1  0  0  0  0  0999 V2000
    3.3621   -1.4670   -2.7166 C   0  0  0  0  0  0  0  0  0  0  0  0
    0.6402    0.5745   -1.3157 C   0  0  0  0  0  0  0  0  0  0  0  0
    3.1316    0.0403   -2.9279 C   0  0  0  0  0  0  0  0  0  0  0  0
    2.0589    0.5057   -0.7480 C   0  0  0  0  0  0  0  0  0  0  0  0
    9.3105    3.9840    3.0222 C   0  0  0  0  0  0  0  0  0  0  0  0
    8.0023    4.0773    2.5503 C   0  0  0  0  0  0  0  0  0  0  0  0
   10.3465    3.7039    2.1269 C   0  0  0  0  0  0  0  0  0  0  0  0
    7.7273    3.8990    1.1911 C   0  0  0  0  0  0  0  0  0  0  0  0
   10.0698    3.5279    0.7732 C   0  0  0  0  0  0  0  0  0  0  0  0
    4.4030    1.1219   -1.1344 C   0  0  0  0  0  0  0  0  0  0  0  0
    5.0774    2.3346   -1.7764 C   0  0  0  0  0  0  0  0  0  0  0  0
    7.1098    3.5704   -1.7151 C   0  0  0  0  0  0  0  0  0  0  0  0
    8.7588    3.6305    0.2843 C   0  0  0  0  0  0  0  0  0  0  0  0
    8.5489    3.4416   -1.2177 C   0  0  1  0  0  0  0  0  0  0  0  0
    3.0862    0.8805   -1.7239 N   0  0  0  0  0  0  0  0  0  0  0  0
    9.0873    2.1972   -1.6669 O   0  0  0  0  0  0  0  0  0  0  0  0
    6.3710    2.4707   -1.2063 O   0  0  0  0  0  0  0  0  0  0  0  0
    3.4376   -1.9730   -3.6862 H   0  0  0  0  0  0  0  0  0  0  0  0
    2.5385   -1.9330   -2.1644 H   0  0  0  0  0  0  0  0  0  0  0  0
    4.2885   -1.6668   -2.1662 H   0  0  0  0  0  0  0  0  0  0  0  0
   -0.0900    0.4232   -0.5127 H   0  0  0  0  0  0  0  0  0  0  0  0
    0.4563   -0.1948   -2.0732 H   0  0  0  0  0  0  0  0  0  0  0  0
    0.4573    1.5536   -1.7717 H   0  0  0  0  0  0  0  0  0  0  0  0
    2.1988    0.1876   -3.4842 H   0  0  0  0  0  0  0  0  0  0  0  0
    3.9262    0.4360   -3.5709 H   0  0  0  0  0  0  0  0  0  0  0  0
    2.2286   -0.4967   -0.3102 H   0  0  0  0  0  0  0  0  0  0  0  0
    2.1338    1.2176    0.0823 H   0  0  0  0  0  0  0  0  0  0  0  0
    9.5234    4.1248    4.0788 H   0  0  0  0  0  0  0  0  0  0  0  0
    7.1879    4.2857    3.2396 H   0  0  0  0  0  0  0  0  0  0  0  0
   11.3701    3.6250    2.4845 H   0  0  0  0  0  0  0  0  0  0  0  0
    6.7004    3.9503    0.8459 H   0  0  0  0  0  0  0  0  0  0  0  0
   10.8731    3.2971    0.0786 H   0  0  0  0  0  0  0  0  0  0  0  0
    4.2895    1.3249   -0.0644 H   0  0  0  0  0  0  0  0  0  0  0  0
    5.0815    0.2559   -1.2118 H   0  0  0  0  0  0  0  0  0  0  0  0
    4.4724    3.2356   -1.5925 H   0  0  0  0  0  0  0  0  0  0  0  0
    5.1574    2.2101   -2.8685 H   0  0  0  0  0  0  0  0  0  0  0  0
    7.1216    3.5381   -2.8152 H   0  0  0  0  0  0  0  0  0  0  0  0
    6.6571    4.5268   -1.4075 H   0  0  0  0  0  0  0  0  0  0  0  0
    9.1394    4.2048   -1.7408 H   0  0  0  0  0  0  0  0  0  0  0  0
    8.4730    1.5211   -1.3326 H   0  0  0  0  0  0  0  0  0  0  0  0
  1 20  1  0  0  0  0
  1 19  1  0  0  0  0
  2  4  1  0  0  0  0
  2 21  1  0  0  0  0
  3  1  1  0  0  0  0
  3 15  1  0  0  0  0
  4 26  1  0  0  0  0
  4 27  1  0  0  0  0
  5 28  1  0  0  0  0
  6  5  1  0  0  0  0
  6 29  1  0  0  0  0
  7 30  1  0  0  0  0
  7  5  2  0  0  0  0
  8  6  2  0  0  0  0
  9  7  1  0  0  0  0
 10 33  1  0  0  0  0
 11 35  1  0  0  0  0
 11 17  1  0  0  0  0
 11 10  1  0  0  0  0
 12 38  1  0  0  0  0
 12 14  1  0  0  0  0
 12 17  1  0  0  0  0
 13  9  2  0  0  0  0
 13  8  1  0  0  0  0
 14 39  1  6  0  0  0
 14 13  1  0  0  0  0
 15 10  1  0  0  0  0
 15  4  1  0  0  0  0
 16 40  1  0  0  0  0
 16 14  1  0  0  0  0
 18  1  1  0  0  0  0
 22  2  1  0  0  0  0
 23  2  1  0  0  0  0
 24  3  1  0  0  0  0
 25  3  1  0  0  0  0
 31  8  1  0  0  0  0
 32  9  1  0  0  0  0
 34 10  1  0  0  0  0
 36 11  1  0  0  0  0
 37 12  1  0  0  0  0
M  END
>  <HBA>
3

>  <HBD>
1

>  <TPSA>
32.7

>  <cid>
33690

>  <dipole>
2.14

>  <excitation_energy_1>
4.994

>  <excitation_energy_2>
5.08

>  <excitation_energy_3>
5.205

>  <excitation_energy_4>
5.275

>  <homo_energy>
-5.614

>  <homo_lumo_gap>
5.644

>  <logP>
2.078

>  <lumo_energy>
0.03

>  <melting_point>
14.81

>  <molecular_refractivity>
70.2

>  <oscillator_strength_1>
0.0007

>  <oscillator_strength_2>
0.0074

>  <oscillator_strength_3>
0.0013

>  <oscillator_strength_4>
0.0002

>  <open_babel_can_smiles>
CCN(CCOC[C@@H](c1ccccc1)O)CC

>  <mulliken_charges>
40
1   -0.458782
2   -0.456274
3   -0.138886
4   -0.111972
5   -0.127068
6   -0.136002
7   -0.132184
8   -0.172147
9   -0.16596
10   -0.150669
11   0.001768
12   -0.037764
13   0.127747
14   0.04191
15   -0.385924
16   -0.624666
17   -0.498671
18   0.144921
19   0.149859
20   0.150467
21   0.144369
22   0.148677
23   0.155355
24   0.145512
25   0.138375
26   0.11708
27   0.138478
28   0.126193
29   0.125201
30   0.127483
31   0.133282
32   0.139199
33   0.147097
34   0.132159
35   0.129008
36   0.126237
37   0.136897
38   0.125716
39   0.146357
40   0.397621

>  <lowdin_charges>
40
1   -0.466911
2   -0.453246
3   -0.204693
4   -0.196602
5   -0.156487
6   -0.160915
7   -0.156811
8   -0.164563
9   -0.154927
10   -0.20554
11   -0.131645
12   -0.14431
13   -0.025358
14   -0.00973
15   -0.192561
16   -0.46199
17   -0.281327
18   0.154043
19   0.150708
20   0.150129
21   0.154638
22   0.14954
23   0.15421
24   0.145439
25   0.144661
26   0.118112
27   0.144692
28   0.154485
29   0.156376
30   0.155539
31   0.159719
32   0.164008
33   0.149573
34   0.132022
35   0.132795
36   0.126919
37   0.13749
38   0.132477
39   0.155297
40   0.344742

$$$$

