PCCDB-ID:  61006
public computational chemistry database (PCCDB) project, http://pccdb.org

 20 20  0  0  0  0  0  0  0  0999 V2000
    0.7459    0.0269    0.2632 C   0  0  0  0  0  0  0  0  0  0  0  0
    2.9293   -1.1639   -0.2368 C   0  0  0  0  0  0  0  0  0  0  0  0
    2.9910    1.2001    0.1703 C   0  0  0  0  0  0  0  0  0  0  0  0
    4.3095   -1.1649   -0.4435 C   0  0  0  0  0  0  0  0  0  0  0  0
    4.3688    1.2021   -0.0321 C   0  0  0  0  0  0  0  0  0  0  0  0
    6.5569    0.0250   -0.5198 C   0  0  0  0  0  0  0  0  0  0  0  0
    7.2528   -0.0112    0.8336 C   0  0  0  0  0  0  0  0  0  0  0  0
    2.2445    0.0173    0.0697 C   0  0  0  0  0  0  0  0  0  0  0  0
    5.0499    0.0180   -0.3481 C   0  0  0  0  0  0  0  0  0  0  0  0
    8.0252    0.8315    1.2304 O   0  0  0  0  0  0  0  0  0  0  0  0
    0.3646   -0.9747    0.4866 H   0  0  0  0  0  0  0  0  0  0  0  0
    0.2298    0.3802   -0.6395 H   0  0  0  0  0  0  0  0  0  0  0  0
    0.4517    0.6914    1.0832 H   0  0  0  0  0  0  0  0  0  0  0  0
    2.3761   -2.0969   -0.3189 H   0  0  0  0  0  0  0  0  0  0  0  0
    2.4854    2.1325    0.4124 H   0  0  0  0  0  0  0  0  0  0  0  0
    4.8138   -2.0978   -0.6869 H   0  0  0  0  0  0  0  0  0  0  0  0
    4.9255    2.1322    0.0574 H   0  0  0  0  0  0  0  0  0  0  0  0
    6.8729   -0.8632   -1.0846 H   0  0  0  0  0  0  0  0  0  0  0  0
    6.9051    0.9146   -1.0539 H   0  0  0  0  0  0  0  0  0  0  0  0
    6.9827   -0.8863    1.4667 H   0  0  0  0  0  0  0  0  0  0  0  0
  1 11  1  0  0  0  0
  1 13  1  0  0  0  0
  2  8  2  0  0  0  0
  3 15  1  0  0  0  0
  4  9  2  0  0  0  0
  4  2  1  0  0  0  0
  5 17  1  0  0  0  0
  5  3  2  0  0  0  0
  6  9  1  0  0  0  0
  6  7  1  0  0  0  0
  7 10  2  0  0  0  0
  7 20  1  0  0  0  0
  8  3  1  0  0  0  0
  8  1  1  0  0  0  0
  9  5  1  0  0  0  0
 12  1  1  0  0  0  0
 14  2  1  0  0  0  0
 16  4  1  0  0  0  0
 18  6  1  0  0  0  0
 19  6  1  0  0  0  0
M  END
>  <HBA>
1

>  <HBD>
0

>  <TPSA>
17.07

>  <cid>
61006

>  <dipole>
2.99

>  <excitation_energy_1>
4.148

>  <excitation_energy_2>
5.002

>  <excitation_energy_3>
5.131

>  <excitation_energy_4>
5.503

>  <homo_energy>
-6.387

>  <homo_lumo_gap>
5.608

>  <logP>
1.736

>  <lumo_energy>
-0.778

>  <melting_point>
43.05

>  <molecular_refractivity>
41.38

>  <oscillator_strength_1>
0.0137

>  <oscillator_strength_2>
0.0261

>  <oscillator_strength_3>
0.0311

>  <oscillator_strength_4>
0.028

>  <open_babel_can_smiles>
O=CCc1ccc(cc1)C

>  <mulliken_charges>
20
1   -0.530187
2   -0.178121
3   -0.175692
4   -0.179246
5   -0.169821
6   -0.418971
7   0.266084
8   0.177168
9   0.143061
10   -0.380645
11   0.157061
12   0.167367
13   0.160822
14   0.125039
15   0.126753
16   0.124506
17   0.137914
18   0.165195
19   0.173119
20   0.108594

>  <lowdin_charges>
20
1   -0.443181
2   -0.164874
3   -0.161798
4   -0.167163
5   -0.158961
6   -0.307303
7   0.057461
8   0.003524
9   -0.011269
10   -0.214919
11   0.157601
12   0.163457
13   0.161035
14   0.156177
15   0.157124
16   0.155123
17   0.16159
18   0.168404
19   0.169514
20   0.11846

$$$$

