PCCDB-ID:  33722
public computational chemistry database (PCCDB) project, http://pccdb.org

 16 16  0  0  0  0  0  0  0  0999 V2000
    0.7236    1.2802   -0.2410 C   0  0  0  0  0  0  0  0  0  0  0  0
    1.4961    0.0141    0.1858 C   0  0  0  0  0  0  0  0  0  0  0  0
   -0.7391    1.2116    0.2258 C   0  0  0  0  0  0  0  0  0  0  0  0
   -0.7592   -1.2276    0.1983 C   0  0  0  0  0  0  0  0  0  0  0  0
    0.7316   -1.2609   -0.1512 C   0  0  0  0  0  0  0  0  0  0  0  0
   -1.4432    0.0049   -0.2194 N   0  0  0  0  0  0  0  0  0  0  0  0
    1.2602   -2.2324   -0.6578 O   0  0  0  0  0  0  0  0  0  0  0  0
    0.7455    1.3666   -1.3366 H   0  0  0  0  0  0  0  0  0  0  0  0
    1.2171    2.1774    0.1552 H   0  0  0  0  0  0  0  0  0  0  0  0
    1.6302    0.0297    1.2791 H   0  0  0  0  0  0  0  0  0  0  0  0
    2.4909   -0.0422   -0.2665 H   0  0  0  0  0  0  0  0  0  0  0  0
   -1.2982    2.0856   -0.1275 H   0  0  0  0  0  0  0  0  0  0  0  0
   -0.7802    1.2312    1.3246 H   0  0  0  0  0  0  0  0  0  0  0  0
   -0.8597   -1.3163    1.2915 H   0  0  0  0  0  0  0  0  0  0  0  0
   -1.2476   -2.0978   -0.2493 H   0  0  0  0  0  0  0  0  0  0  0  0
   -1.5113    0.0148   -1.2369 H   0  0  0  0  0  0  0  0  0  0  0  0
  1  9  1  0  0  0  0
  1  2  1  0  0  0  0
  1  3  1  0  0  0  0
  2 10  1  0  0  0  0
  3 13  1  0  0  0  0
  4 14  1  0  0  0  0
  5  2  1  0  0  0  0
  5  4  1  0  0  0  0
  6  4  1  0  0  0  0
  6  3  1  0  0  0  0
  7  5  2  0  0  0  0
  8  1  1  0  0  0  0
 11  2  1  0  0  0  0
 12  3  1  0  0  0  0
 15  4  1  0  0  0  0
 16  6  1  0  0  0  0
M  END
>  <HBA>
2

>  <HBD>
1

>  <TPSA>
29.1

>  <cid>
33722

>  <dipole>
2.57

>  <excitation_energy_1>
3.785

>  <excitation_energy_2>
5.228

>  <excitation_energy_3>
5.422

>  <excitation_energy_4>
5.645

>  <homo_energy>
-5.796

>  <homo_lumo_gap>
5.304

>  <logP>
0.268

>  <lumo_energy>
-0.493

>  <melting_point>
45.25

>  <molecular_refractivity>
30.95

>  <oscillator_strength_1>
0.0026

>  <oscillator_strength_2>
0.0086

>  <oscillator_strength_3>
0.011

>  <oscillator_strength_4>
0.0146

>  <open_babel_can_smiles>
O=C1CCCNC1

>  <mulliken_charges>
16
1   -0.273262
2   -0.345864
3   -0.154606
4   -0.227788
5   0.440269
6   -0.52388
7   -0.443511
8   0.140822
9   0.141246
10   0.158107
11   0.166248
12   0.149306
13   0.143702
14   0.160446
15   0.170053
16   0.29871

>  <lowdin_charges>
16
1   -0.289913
2   -0.306692
3   -0.209106
4   -0.236958
5   0.141941
6   -0.349582
7   -0.232788
8   0.140997
9   0.150596
10   0.159999
11   0.163989
12   0.152478
13   0.140069
14   0.156289
15   0.166385
16   0.252295

$$$$

