PCCDB-ID:  19895
public computational chemistry database (PCCDB) project, http://pccdb.org

 14 14  0  0  0  0  0  0  0  0999 V2000
    0.9064   -0.0625   -0.1184 C   0  0  0  0  0  0  0  0  0  0  0  0
    4.3621   -0.6319    0.1461 C   0  0  0  0  0  0  0  0  0  0  0  0
    3.0947    1.1836   -0.1504 C   0  0  0  0  0  0  0  0  0  0  0  0
    4.4113    0.7678   -0.0263 C   0  0  0  0  0  0  0  0  0  0  0  0
    3.1057   -1.0571    0.1296 N   0  0  0  0  0  0  0  0  0  0  0  0
    2.3530    0.0637   -0.0508 N   0  0  0  0  0  0  0  0  0  0  0  0
    5.5660    1.6073   -0.0667 N   0  0  0  0  0  0  0  0  0  0  0  0
    6.6656    1.0642    0.0625 O   0  0  0  0  0  0  0  0  0  0  0  0
    5.3844    2.8183   -0.2284 O   0  0  0  0  0  0  0  0  0  0  0  0
    0.4707    0.9300   -0.2443 H   0  0  0  0  0  0  0  0  0  0  0  0
    0.5345   -0.5144    0.8045 H   0  0  0  0  0  0  0  0  0  0  0  0
    0.6305   -0.6967   -0.9647 H   0  0  0  0  0  0  0  0  0  0  0  0
    5.1856   -1.3183    0.2779 H   0  0  0  0  0  0  0  0  0  0  0  0
    2.6760    2.1673   -0.2969 H   0  0  0  0  0  0  0  0  0  0  0  0
  1  6  1  0  0  0  0
  1 11  1  0  0  0  0
  2 13  1  0  0  0  0
  3  6  1  0  0  0  0
  3  4  2  0  0  0  0
  4  2  1  0  0  0  0
  5  2  2  0  0  0  0
  6  5  1  0  0  0  0
  7  4  1  0  0  0  0
  7  8  2  0  0  0  0
  9  7  2  0  0  0  0
 10  1  1  0  0  0  0
 12  1  1  0  0  0  0
 14  3  1  0  0  0  0
M  END
>  <HBA>
2

>  <HBD>
0

>  <TPSA>
63.64

>  <cid>
19895

>  <dipole>
5.44

>  <excitation_energy_1>
3.853

>  <excitation_energy_2>
4.337

>  <excitation_energy_3>
4.754

>  <excitation_energy_4>
4.821

>  <homo_energy>
-7.597

>  <homo_lumo_gap>
5.505

>  <logP>
0.852

>  <lumo_energy>
-2.093

>  <melting_point>
60.78

>  <molecular_refractivity>
32.31

>  <oscillator_strength_1>
0.0

>  <oscillator_strength_2>
0.0004

>  <oscillator_strength_3>
0.0191

>  <oscillator_strength_4>
0.2381

>  <open_babel_can_smiles>
Cn1ncc(c1)N(=O)=O

>  <mulliken_charges>
14
1   -0.307853
2   0.074398
3   0.104699
4   0.176691
5   -0.288121
6   -0.237769
7   0.335294
8   -0.404374
9   -0.412197
10   0.176813
11   0.197366
12   0.196827
13   0.185815
14   0.202412

>  <lowdin_charges>
14
1   -0.342602
2   -0.116524
3   -0.10872
4   -0.062174
5   -0.140725
6   0.062607
7   0.312738
8   -0.252868
9   -0.261543
10   0.170305
11   0.177748
12   0.177429
13   0.189506
14   0.194822

$$$$

