PCCDB-ID:  43967
public computational chemistry database (PCCDB) project, http://pccdb.org

 21 20  0  0  1  0  0  0  0  0999 V2000
    3.6807   -0.2145   -1.9502 C   0  0  0  0  0  0  0  0  0  0  0  0
    2.7943   -3.4349    2.5426 C   0  0  0  0  0  0  0  0  0  0  0  0
    4.2891    0.0725   -0.5664 C   0  0  0  0  0  0  0  0  0  0  0  0
    3.4327   -0.4448    0.5575 C   0  0  0  0  0  0  0  0  0  0  0  0
    3.7955   -1.3798    1.4455 C   0  0  0  0  0  0  0  0  0  0  0  0
    2.9230   -1.9056    2.5613 C   0  0  2  0  0  0  0  0  0  0  0  0
    3.4108   -1.4231    3.9465 C   0  0  0  0  0  0  0  0  0  0  0  0
    3.3217   -2.0736    4.9581 O   0  0  0  0  0  0  0  0  0  0  0  0
    3.9181   -0.1668    3.9725 O   0  0  0  0  0  0  0  0  0  0  0  0
    4.3099    0.1998   -2.7455 H   0  0  0  0  0  0  0  0  0  0  0  0
    2.6837    0.2317   -2.0456 H   0  0  0  0  0  0  0  0  0  0  0  0
    3.5822   -1.2922   -2.1193 H   0  0  0  0  0  0  0  0  0  0  0  0
    2.3232   -3.7660    1.6119 H   0  0  0  0  0  0  0  0  0  0  0  0
    2.1962   -3.7749    3.3910 H   0  0  0  0  0  0  0  0  0  0  0  0
    3.7786   -3.9100    2.6186 H   0  0  0  0  0  0  0  0  0  0  0  0
    4.4156    1.1595   -0.4551 H   0  0  0  0  0  0  0  0  0  0  0  0
    5.2917   -0.3680   -0.4998 H   0  0  0  0  0  0  0  0  0  0  0  0
    2.4216   -0.0326    0.6136 H   0  0  0  0  0  0  0  0  0  0  0  0
    4.7972   -1.8110    1.3833 H   0  0  0  0  0  0  0  0  0  0  0  0
    1.9208   -1.4637    2.4465 H   0  0  0  0  0  0  0  0  0  0  0  0
    3.9605    0.1669    3.0561 H   0  0  0  0  0  0  0  0  0  0  0  0
  1  3  1  0  0  0  0
  2  6  1  0  0  0  0
  2 15  1  0  0  0  0
  2 14  1  0  0  0  0
  3 17  1  0  0  0  0
  3 16  1  0  0  0  0
  3  4  1  0  0  0  0
  4 18  1  0  0  0  0
  4  5  2  0  0  0  0
  5  6  1  0  0  0  0
  6 20  1  6  0  0  0
  6  7  1  0  0  0  0
  7  9  1  0  0  0  0
  7  8  2  0  0  0  0
 10  1  1  0  0  0  0
 11  1  1  0  0  0  0
 12  1  1  0  0  0  0
 13  2  1  0  0  0  0
 19  5  1  0  0  0  0
 21  9  1  0  0  0  0
M  END
>  <HBA>
2

>  <HBD>
1

>  <TPSA>
37.3

>  <cid>
43967

>  <dipole>
4.93

>  <excitation_energy_1>
5.449

>  <excitation_energy_2>
6.163

>  <excitation_energy_3>
6.309

>  <excitation_energy_4>
6.665

>  <homo_energy>
-6.874

>  <homo_lumo_gap>
6.683

>  <logP>
1.673

>  <lumo_energy>
-0.19

>  <melting_point>
59.72

>  <molecular_refractivity>
37.06

>  <oscillator_strength_1>
0.014

>  <oscillator_strength_2>
0.0847

>  <oscillator_strength_3>
0.0867

>  <oscillator_strength_4>
0.0131

>  <open_babel_can_smiles>
C[C@@H](C(=O)O)/C=C/CC

>  <mulliken_charges>
21
1   -0.442111
2   -0.441224
3   -0.299923
4   -0.09631
5   -0.141599
6   -0.240282
7   0.603132
8   -0.447804
9   -0.571626
10   0.152091
11   0.148328
12   0.15522
13   0.146673
14   0.178406
15   0.154768
16   0.149934
17   0.147539
18   0.131538
19   0.139307
20   0.16855
21   0.405393

>  <lowdin_charges>
21
1   -0.440409
2   -0.437246
3   -0.267763
4   -0.161324
5   -0.183636
6   -0.163171
7   0.191215
8   -0.241956
9   -0.357203
10   0.155714
11   0.149629
12   0.151742
13   0.153393
14   0.17121
15   0.155448
16   0.150458
17   0.14942
18   0.149659
19   0.155492
20   0.16515
21   0.354177

$$$$

