PCCDB-ID:  70640
public computational chemistry database (PCCDB) project, http://pccdb.org

 22 22  0  0  0  0  0  0  0  0999 V2000
    3.2800    1.6388    1.7368 C   0  0  0  0  0  0  0  0  0  0  0  0
    2.9091    0.7638   -0.5369 C   0  0  0  0  0  0  0  0  0  0  0  0
    0.5933   -0.6503    5.3685 C   0  0  0  0  0  0  0  0  0  0  0  0
    1.3653   -1.6995    4.8742 C   0  0  0  0  0  0  0  0  0  0  0  0
    0.3555    0.4482    4.5451 C   0  0  0  0  0  0  0  0  0  0  0  0
    1.8574   -1.6227    3.5702 C   0  0  0  0  0  0  0  0  0  0  0  0
    1.5559   -0.4757    2.8069 C   0  0  0  0  0  0  0  0  0  0  0  0
    1.9114   -0.4233    1.3335 C   0  0  0  0  0  0  0  0  0  0  0  0
    0.8303    0.5353    3.2968 N   0  0  0  0  0  0  0  0  0  0  0  0
    2.6820    0.6186    0.8928 N   0  0  0  0  0  0  0  0  0  0  0  0
    2.6404   -2.5839    3.0125 O   0  0  0  0  0  0  0  0  0  0  0  0
    1.4628   -1.2915    0.5905 O   0  0  0  0  0  0  0  0  0  0  0  0
    4.3429    1.7460    1.4836 H   0  0  0  0  0  0  0  0  0  0  0  0
    3.1980    1.3688    2.7879 H   0  0  0  0  0  0  0  0  0  0  0  0
    2.7904    2.6113    1.5919 H   0  0  0  0  0  0  0  0  0  0  0  0
    3.9839    0.7355   -0.7591 H   0  0  0  0  0  0  0  0  0  0  0  0
    2.5077    1.7220   -0.8936 H   0  0  0  0  0  0  0  0  0  0  0  0
    2.4087   -0.0564   -1.0501 H   0  0  0  0  0  0  0  0  0  0  0  0
    0.1923   -0.6841    6.3771 H   0  0  0  0  0  0  0  0  0  0  0  0
    1.5862   -2.5696    5.4902 H   0  0  0  0  0  0  0  0  0  0  0  0
   -0.2353    1.2917    4.8954 H   0  0  0  0  0  0  0  0  0  0  0  0
    2.7440   -3.3162    3.6405 H   0  0  0  0  0  0  0  0  0  0  0  0
  1 14  1  0  0  0  0
  2 10  1  0  0  0  0
  3 19  1  0  0  0  0
  4  3  1  0  0  0  0
  4 20  1  0  0  0  0
  5 21  1  0  0  0  0
  5  3  2  0  0  0  0
  6  4  2  0  0  0  0
  7  9  2  0  0  0  0
  7  6  1  0  0  0  0
  8  7  1  0  0  0  0
  9  5  1  0  0  0  0
 10  8  1  0  0  0  0
 10  1  1  0  0  0  0
 11  6  1  0  0  0  0
 11 22  1  0  0  0  0
 12  8  2  0  0  0  0
 13  1  1  0  0  0  0
 15  1  1  0  0  0  0
 16  2  1  0  0  0  0
 17  2  1  0  0  0  0
 18  2  1  0  0  0  0
M  END
>  <HBA>
4

>  <HBD>
1

>  <TPSA>
53.43

>  <cid>
70640

>  <dipole>
4.15

>  <excitation_energy_1>
4.393

>  <excitation_energy_2>
4.518

>  <excitation_energy_3>
4.81

>  <excitation_energy_4>
5.016

>  <homo_energy>
-6.169

>  <homo_lumo_gap>
5.295

>  <logP>
0.489

>  <lumo_energy>
-0.873

>  <melting_point>
96.66

>  <molecular_refractivity>
44.16

>  <oscillator_strength_1>
0.0437

>  <oscillator_strength_2>
0.0147

>  <oscillator_strength_3>
0.09

>  <oscillator_strength_4>
0.0022

>  <open_babel_can_smiles>
CN(C(=O)c1ncccc1O)C

>  <mulliken_charges>
22
1   -0.300621
2   -0.32139
3   -0.140397
4   -0.164118
5   0.024497
6   0.340623
7   0.13833
8   0.58659
9   -0.457115
10   -0.398821
11   -0.621152
12   -0.508253
13   0.148148
14   0.178281
15   0.160355
16   0.149335
17   0.152421
18   0.205304
19   0.141847
20   0.134166
21   0.141296
22   0.410673

>  <lowdin_charges>
22
1   -0.345059
2   -0.354019
3   -0.159613
4   -0.187754
5   -0.11364
6   0.095863
7   -0.005171
8   0.162057
9   -0.137452
10   -0.093435
11   -0.354998
12   -0.300829
13   0.145526
14   0.169122
15   0.151319
16   0.146147
17   0.148865
18   0.185958
19   0.165822
20   0.16059
21   0.159044
22   0.361658

$$$$

