PCCDB-ID:  37881
public computational chemistry database (PCCDB) project, http://pccdb.org

 26 27  0  0  0  0  0  0  0  0999 V2000
   -1.0508    1.2843    1.8240 C   0  0  0  0  0  0  0  0  0  0  0  0
   -0.8468    0.4369    0.7305 C   0  0  0  0  0  0  0  0  0  0  0  0
   -0.0106    2.0947    2.2809 C   0  0  0  0  0  0  0  0  0  0  0  0
    0.3926    0.4016    0.0989 C   0  0  0  0  0  0  0  0  0  0  0  0
    1.2269    2.0755    1.6360 C   0  0  0  0  0  0  0  0  0  0  0  0
    3.2654    3.6012   -0.2238 C   0  0  0  0  0  0  0  0  0  0  0  0
    5.0702    1.9851   -0.3765 C   0  0  0  0  0  0  0  0  0  0  0  0
    5.5583    4.3603   -0.4892 C   0  0  0  0  0  0  0  0  0  0  0  0
    1.4375    1.2334    0.5331 C   0  0  0  0  0  0  0  0  0  0  0  0
    3.7082    2.2717   -0.2266 C   0  0  0  0  0  0  0  0  0  0  0  0
    4.1972    4.6370   -0.3643 C   0  0  0  0  0  0  0  0  0  0  0  0
    5.9878    3.0305   -0.4957 C   0  0  0  0  0  0  0  0  0  0  0  0
    2.7644    1.1049   -0.1563 C   0  0  0  0  0  0  0  0  0  0  0  0
    3.8274    5.9524   -0.3856 O   0  0  0  0  0  0  0  0  0  0  0  0
    7.3297    2.8158   -0.6265 O   0  0  0  0  0  0  0  0  0  0  0  0
    3.0806    0.0362   -0.6675 O   0  0  0  0  0  0  0  0  0  0  0  0
   -2.0164    1.3060    2.3224 H   0  0  0  0  0  0  0  0  0  0  0  0
   -1.6535   -0.1998    0.3777 H   0  0  0  0  0  0  0  0  0  0  0  0
   -0.1597    2.7391    3.1431 H   0  0  0  0  0  0  0  0  0  0  0  0
    0.5768   -0.2669   -0.7359 H   0  0  0  0  0  0  0  0  0  0  0  0
    2.0373    2.6954    2.0056 H   0  0  0  0  0  0  0  0  0  0  0  0
    2.2065    3.8297   -0.1462 H   0  0  0  0  0  0  0  0  0  0  0  0
    5.3867    0.9464   -0.4072 H   0  0  0  0  0  0  0  0  0  0  0  0
    6.2747    5.1678   -0.5898 H   0  0  0  0  0  0  0  0  0  0  0  0
    2.8630    6.0100   -0.3028 H   0  0  0  0  0  0  0  0  0  0  0  0
    7.4939    1.8598   -0.6361 H   0  0  0  0  0  0  0  0  0  0  0  0
  1  3  1  0  0  0  0
  1 17  1  0  0  0  0
  2  1  2  0  0  0  0
  3 19  1  0  0  0  0
  4  9  2  0  0  0  0
  4  2  1  0  0  0  0
  5 21  1  0  0  0  0
  5  3  2  0  0  0  0
  6 22  1  0  0  0  0
  7 10  2  0  0  0  0
  8 11  1  0  0  0  0
  9  5  1  0  0  0  0
 10  6  1  0  0  0  0
 10 13  1  0  0  0  0
 11  6  2  0  0  0  0
 12  8  2  0  0  0  0
 12  7  1  0  0  0  0
 13  9  1  0  0  0  0
 14 11  1  0  0  0  0
 14 25  1  0  0  0  0
 15 12  1  0  0  0  0
 16 13  2  0  0  0  0
 18  2  1  0  0  0  0
 20  4  1  0  0  0  0
 23  7  1  0  0  0  0
 24  8  1  0  0  0  0
 26 15  1  0  0  0  0
M  END
>  <HBA>
3

>  <HBD>
2

>  <TPSA>
57.53

>  <cid>
37881

>  <dipole>
2.81

>  <excitation_energy_1>
3.539

>  <excitation_energy_2>
3.711

>  <excitation_energy_3>
4.27

>  <excitation_energy_4>
4.524

>  <homo_energy>
-6.095

>  <homo_lumo_gap>
4.327

>  <logP>
2.329

>  <lumo_energy>
-1.769

>  <melting_point>
145.7

>  <molecular_refractivity>
60.36

>  <oscillator_strength_1>
0.0017

>  <oscillator_strength_2>
0.0167

>  <oscillator_strength_3>
0.1705

>  <oscillator_strength_4>
0.0095

>  <open_babel_can_smiles>
Oc1cc(O)cc(c1)C(=O)c1ccccc1

>  <mulliken_charges>
26
1   -0.119154
2   -0.135618
3   -0.137923
4   -0.150234
5   -0.177044
6   -0.26106
7   -0.237982
8   -0.193239
9   0.070801
10   0.070934
11   0.358138
12   0.360473
13   0.319626
14   -0.643471
15   -0.643751
16   -0.464882
17   0.137734
18   0.138919
19   0.136557
20   0.159604
21   0.150362
22   0.135531
23   0.14622
24   0.156142
25   0.410438
26   0.41288

>  <lowdin_charges>
26
1   -0.141665
2   -0.155892
3   -0.158535
4   -0.129602
5   -0.154349
6   -0.229904
7   -0.211309
8   -0.202675
9   -0.043785
10   -0.023576
11   0.111234
12   0.114094
13   0.158588
14   -0.372501
15   -0.371453
16   -0.245128
17   0.161211
18   0.163081
19   0.16101
20   0.174974
21   0.168142
22   0.16103
23   0.169772
24   0.180969
25   0.357139
26   0.359131

$$$$

