PCCDB-ID:  27478
public computational chemistry database (PCCDB) project, http://pccdb.org

 20 21  0  0  0  0  0  0  0  0999 V2000
   -1.6089   -0.1454   -0.0446 C   0  0  0  0  0  0  0  0  0  0  0  0
   -0.6797   -1.0046    0.6316 C   0  0  0  0  0  0  0  0  0  0  0  0
    1.6578    5.0758   -1.2687 C   0  0  0  0  0  0  0  0  0  0  0  0
    0.4435    5.0670   -0.5043 C   0  0  0  0  0  0  0  0  0  0  0  0
   -0.9260    0.9611   -0.4652 C   0  0  0  0  0  0  0  0  0  0  0  0
    0.5465   -0.4047    0.5892 C   0  0  0  0  0  0  0  0  0  0  0  0
    2.1381    3.7976   -1.2992 C   0  0  0  0  0  0  0  0  0  0  0  0
    0.2098    3.7812   -0.1047 C   0  0  0  0  0  0  0  0  0  0  0  0
    1.5188    1.6256   -0.3639 C   0  0  0  0  0  0  0  0  0  0  0  0
    0.4080    0.8183   -0.0653 N   0  0  0  0  0  0  0  0  0  0  0  0
    1.2459    2.9829   -0.6038 N   0  0  0  0  0  0  0  0  0  0  0  0
    2.6449    1.1778   -0.4113 O   0  0  0  0  0  0  0  0  0  0  0  0
   -2.6611   -0.3336   -0.2108 H   0  0  0  0  0  0  0  0  0  0  0  0
   -0.8997   -1.9570    1.0944 H   0  0  0  0  0  0  0  0  0  0  0  0
    2.1183    5.9335   -1.7397 H   0  0  0  0  0  0  0  0  0  0  0  0
   -0.1781    5.9200   -0.2675 H   0  0  0  0  0  0  0  0  0  0  0  0
   -1.2402    1.8085   -1.0523 H   0  0  0  0  0  0  0  0  0  0  0  0
    1.5144   -0.7029    0.9595 H   0  0  0  0  0  0  0  0  0  0  0  0
    3.0177    3.3626   -1.7464 H   0  0  0  0  0  0  0  0  0  0  0  0
   -0.5569    3.3622    0.5261 H   0  0  0  0  0  0  0  0  0  0  0  0
  1  2  1  0  0  0  0
  2 14  1  0  0  0  0
  3  4  1  0  0  0  0
  4 16  1  0  0  0  0
  4  8  2  0  0  0  0
  5 10  1  0  0  0  0
  5  1  2  0  0  0  0
  6  2  2  0  0  0  0
  6 18  1  0  0  0  0
  7  3  2  0  0  0  0
  7 11  1  0  0  0  0
  8 20  1  0  0  0  0
  9 10  1  0  0  0  0
 10  6  1  0  0  0  0
 11  9  1  0  0  0  0
 11  8  1  0  0  0  0
 12  9  2  0  0  0  0
 13  1  1  0  0  0  0
 15  3  1  0  0  0  0
 17  5  1  0  0  0  0
 19  7  1  0  0  0  0
M  END
>  <HBA>
3

>  <HBD>
0

>  <TPSA>
26.93

>  <cid>
27478

>  <dipole>
2.14

>  <excitation_energy_1>
4.175

>  <excitation_energy_2>
4.296

>  <excitation_energy_3>
5.112

>  <excitation_energy_4>
5.198

>  <homo_energy>
-6.161

>  <homo_lumo_gap>
5.001

>  <logP>
1.806

>  <lumo_energy>
-1.159

>  <melting_point>
55.59

>  <molecular_refractivity>
45.06

>  <oscillator_strength_1>
0.006

>  <oscillator_strength_2>
0.0029

>  <oscillator_strength_3>
0.3151

>  <oscillator_strength_4>
0.0278

>  <open_babel_can_smiles>
O=C(n1cccc1)n1cccc1

>  <mulliken_charges>
20
1   -0.184915
2   -0.19296
3   -0.19266
4   -0.185008
5   0.017278
6   0.056264
7   0.056094
8   0.017263
9   0.754292
10   -0.47965
11   -0.479751
12   -0.464757
13   0.140431
14   0.140947
15   0.14093
16   0.140417
17   0.178297
18   0.179528
19   0.179566
20   0.178396

>  <lowdin_charges>
20
1   -0.190325
2   -0.192796
3   -0.194341
4   -0.192896
5   -0.152949
6   -0.128056
7   -0.13032
8   -0.155874
9   0.209201
10   -0.009857
11   -0.006467
12   -0.250452
13   0.165734
14   0.167291
15   0.16842
16   0.167887
17   0.179096
18   0.183109
19   0.183923
20   0.179672

$$$$

