PCCDB-ID:  7738
public computational chemistry database (PCCDB) project, http://pccdb.org

 20 20  0  0  0  0  0  0  0  0999 V2000
    2.6726   -1.3949   -0.1631 C   0  0  0  0  0  0  0  0  0  0  0  0
    3.5320    2.7137    2.1779 C   0  0  0  0  0  0  0  0  0  0  0  0
    4.6771    0.7300    2.8988 C   0  0  0  0  0  0  0  0  0  0  0  0
    2.8891    1.9904    1.1806 C   0  0  0  0  0  0  0  0  0  0  0  0
    4.0346   -0.0151    1.9073 C   0  0  0  0  0  0  0  0  0  0  0  0
    5.1691    2.8949    4.1149 C   0  0  0  0  0  0  0  0  0  0  0  0
    4.4416    2.0991    3.0504 C   0  0  0  0  0  0  0  0  0  0  0  0
    3.1379    0.6178    1.0377 C   0  0  0  0  0  0  0  0  0  0  0  0
    5.3614    2.1764    5.3299 O   0  0  0  0  0  0  0  0  0  0  0  0
    2.4555   -0.0073    0.0328 O   0  0  0  0  0  0  0  0  0  0  0  0
    2.0444   -1.6800   -1.0091 H   0  0  0  0  0  0  0  0  0  0  0  0
    2.3784   -1.9795    0.7188 H   0  0  0  0  0  0  0  0  0  0  0  0
    3.7224   -1.6103   -0.4030 H   0  0  0  0  0  0  0  0  0  0  0  0
    3.3217    3.7763    2.2821 H   0  0  0  0  0  0  0  0  0  0  0  0
    5.3695    0.2372    3.5757 H   0  0  0  0  0  0  0  0  0  0  0  0
    2.1833    2.4632    0.5048 H   0  0  0  0  0  0  0  0  0  0  0  0
    4.2407   -1.0761    1.8215 H   0  0  0  0  0  0  0  0  0  0  0  0
    4.6404    3.8459    4.2914 H   0  0  0  0  0  0  0  0  0  0  0  0
    6.1821    3.1534    3.7831 H   0  0  0  0  0  0  0  0  0  0  0  0
    4.4869    1.8696    5.6187 H   0  0  0  0  0  0  0  0  0  0  0  0
  1 10  1  0  0  0  0
  1 12  1  0  0  0  0
  2 14  1  0  0  0  0
  2  7  2  0  0  0  0
  3  7  1  0  0  0  0
  3 15  1  0  0  0  0
  4  2  1  0  0  0  0
  5  3  2  0  0  0  0
  6 18  1  0  0  0  0
  6  9  1  0  0  0  0
  7  6  1  0  0  0  0
  8  4  2  0  0  0  0
  8  5  1  0  0  0  0
  9 20  1  0  0  0  0
 10  8  1  0  0  0  0
 11  1  1  0  0  0  0
 13  1  1  0  0  0  0
 16  4  1  0  0  0  0
 17  5  1  0  0  0  0
 19  6  1  0  0  0  0
M  END
>  <HBA>
2

>  <HBD>
1

>  <TPSA>
29.46

>  <cid>
7738

>  <dipole>
1.82

>  <excitation_energy_1>
4.911

>  <excitation_energy_2>
5.411

>  <excitation_energy_3>
5.526

>  <excitation_energy_4>
5.778

>  <homo_energy>
-5.84

>  <homo_lumo_gap>
5.807

>  <logP>
1.188

>  <lumo_energy>
-0.033

>  <melting_point>
31.88

>  <molecular_refractivity>
39.06

>  <oscillator_strength_1>
0.03

>  <oscillator_strength_2>
0.0883

>  <oscillator_strength_3>
0.089

>  <oscillator_strength_4>
0.0117

>  <open_babel_can_smiles>
OCc1ccc(cc1)OC

>  <mulliken_charges>
20
1   -0.214744
2   -0.18595
3   -0.184377
4   -0.171577
5   -0.194597
6   -0.0915
7   0.100976
8   0.37548
9   -0.610455
10   -0.507124
11   0.169677
12   0.151331
13   0.15246
14   0.124722
15   0.142908
16   0.137599
17   0.131521
18   0.126295
19   0.160777
20   0.386578

>  <lowdin_charges>
20
1   -0.276702
2   -0.155061
3   -0.153375
4   -0.182512
5   -0.211193
6   -0.130206
7   -0.053805
8   0.100696
9   -0.46386
10   -0.199984
11   0.163486
12   0.145391
13   0.144054
14   0.154034
15   0.165804
16   0.167493
17   0.160297
18   0.13069
19   0.154473
20   0.340281

$$$$

