PCCDB-ID:  40060
public computational chemistry database (PCCDB) project, http://pccdb.org

 36 36  0  0  0  0  0  0  0  0999 V2000
    2.8064    2.0125    3.2652 C   0  0  0  0  0  0  0  0  0  0  0  0
    8.4389   -0.9116    3.1489 C   0  0  0  0  0  0  0  0  0  0  0  0
    2.5433    1.0690    2.0882 C   0  0  0  0  0  0  0  0  0  0  0  0
    7.6737   -1.6820    2.0689 C   0  0  0  0  0  0  0  0  0  0  0  0
    3.1801    1.5322    0.7591 C   0  0  0  0  0  0  0  0  0  0  0  0
    7.5929   -0.9574    0.7064 C   0  0  0  0  0  0  0  0  0  0  0  0
    5.4391    0.3761    0.7141 C   0  0  0  0  0  0  0  0  0  0  0  0
    5.4057    2.7642    0.8323 C   0  0  0  0  0  0  0  0  0  0  0  0
    7.5465    4.1149    0.8140 C   0  0  0  0  0  0  0  0  0  0  0  0
    4.6951    1.5625    0.7682 C   0  0  0  0  0  0  0  0  0  0  0  0
    6.8353    0.3537    0.7454 C   0  0  0  0  0  0  0  0  0  0  0  0
    6.8031    2.7972    0.8417 C   0  0  0  0  0  0  0  0  0  0  0  0
    7.5198    1.5826    0.8156 C   0  0  0  0  0  0  0  0  0  0  0  0
    8.6859    4.1031    1.7604 N   0  0  0  0  0  0  0  0  0  0  0  0
    8.8826    1.5678    0.8381 O   0  0  0  0  0  0  0  0  0  0  0  0
    2.3377    1.6400    4.1833 H   0  0  0  0  0  0  0  0  0  0  0  0
    2.4014    3.0132    3.0672 H   0  0  0  0  0  0  0  0  0  0  0  0
    3.8799    2.1200    3.4550 H   0  0  0  0  0  0  0  0  0  0  0  0
    8.4807   -1.4843    4.0830 H   0  0  0  0  0  0  0  0  0  0  0  0
    7.9585    0.0488    3.3654 H   0  0  0  0  0  0  0  0  0  0  0  0
    9.4661   -0.7007    2.8313 H   0  0  0  0  0  0  0  0  0  0  0  0
    1.4600    0.9660    1.9370 H   0  0  0  0  0  0  0  0  0  0  0  0
    2.9168    0.0653    2.3322 H   0  0  0  0  0  0  0  0  0  0  0  0
    6.6548   -1.8933    2.4226 H   0  0  0  0  0  0  0  0  0  0  0  0
    8.1522   -2.6581    1.9084 H   0  0  0  0  0  0  0  0  0  0  0  0
    2.7965    2.5314    0.5117 H   0  0  0  0  0  0  0  0  0  0  0  0
    2.8341    0.8635   -0.0410 H   0  0  0  0  0  0  0  0  0  0  0  0
    7.1000   -1.6276   -0.0106 H   0  0  0  0  0  0  0  0  0  0  0  0
    8.6069   -0.7813    0.3340 H   0  0  0  0  0  0  0  0  0  0  0  0
    4.9109   -0.5748    0.6460 H   0  0  0  0  0  0  0  0  0  0  0  0
    4.8599    3.7066    0.8587 H   0  0  0  0  0  0  0  0  0  0  0  0
    6.8438    4.9421    0.9943 H   0  0  0  0  0  0  0  0  0  0  0  0
    7.9809    4.2779   -0.1825 H   0  0  0  0  0  0  0  0  0  0  0  0
    8.3435    4.0631    2.7194 H   0  0  0  0  0  0  0  0  0  0  0  0
    9.2407    4.9520    1.6692 H   0  0  0  0  0  0  0  0  0  0  0  0
    9.1692    2.4542    1.1838 H   0  0  0  0  0  0  0  0  0  0  0  0
  1 18  1  0  0  0  0
  1 16  1  0  0  0  0
  2 20  1  0  0  0  0
  2 19  1  0  0  0  0
  3 23  1  0  0  0  0
  3  1  1  0  0  0  0
  4 24  1  0  0  0  0
  4  2  1  0  0  0  0
  5 10  1  0  0  0  0
  5  3  1  0  0  0  0
  6 11  1  0  0  0  0
  6  4  1  0  0  0  0
  7 11  2  0  0  0  0
  7 10  1  0  0  0  0
  8 12  1  0  0  0  0
  8 31  1  0  0  0  0
  9 12  1  0  0  0  0
  9 32  1  0  0  0  0
  9 14  1  0  0  0  0
 10  8  2  0  0  0  0
 11 13  1  0  0  0  0
 13 15  1  0  0  0  0
 13 12  2  0  0  0  0
 14 34  1  0  0  0  0
 15 36  1  0  0  0  0
 17  1  1  0  0  0  0
 21  2  1  0  0  0  0
 22  3  1  0  0  0  0
 25  4  1  0  0  0  0
 26  5  1  0  0  0  0
 27  5  1  0  0  0  0
 28  6  1  0  0  0  0
 29  6  1  0  0  0  0
 30  7  1  0  0  0  0
 33  9  1  0  0  0  0
 35 14  1  0  0  0  0
M  END
>  <HBA>
2

>  <HBD>
2

>  <TPSA>
46.25

>  <cid>
40060

>  <dipole>
3.17

>  <excitation_energy_1>
4.494

>  <excitation_energy_2>
4.819

>  <excitation_energy_3>
5.131

>  <excitation_energy_4>
5.391

>  <homo_energy>
-5.317

>  <homo_lumo_gap>
5.459

>  <logP>
3.456

>  <lumo_energy>
0.142

>  <melting_point>
109.4

>  <molecular_refractivity>
65.3

>  <oscillator_strength_1>
0.0436

>  <oscillator_strength_2>
0.0209

>  <oscillator_strength_3>
0.037

>  <oscillator_strength_4>
0.0022

>  <open_babel_can_smiles>
CCCc1cc(CCC)c(c(c1)CN)O

>  <mulliken_charges>
36
1   -0.441661
2   -0.434182
3   -0.241637
4   -0.242564
5   -0.345838
6   -0.335939
7   -0.264174
8   -0.278259
9   -0.232056
10   0.199021
11   0.150475
12   0.13228
13   0.228485
14   -0.758412
15   -0.684654
16   0.139659
17   0.134349
18   0.152927
19   0.131322
20   0.145177
21   0.148959
22   0.128435
23   0.135611
24   0.128089
25   0.127509
26   0.131725
27   0.139009
28   0.132125
29   0.161918
30   0.112323
31   0.108151
32   0.141821
33   0.168214
34   0.320573
35   0.317738
36   0.443481

>  <lowdin_charges>
36
1   -0.446173
2   -0.444772
3   -0.267491
4   -0.265469
5   -0.274037
6   -0.275629
7   -0.167755
8   -0.177648
9   -0.202677
10   -0.024422
11   -0.03086
12   -0.072944
13   0.089726
14   -0.542215
15   -0.412472
16   0.148679
17   0.142088
18   0.150855
19   0.143836
20   0.149094
21   0.149658
22   0.137575
23   0.140403
24   0.136078
25   0.138477
26   0.142425
27   0.149643
28   0.14802
29   0.15912
30   0.149918
31   0.147739
32   0.139331
33   0.154893
34   0.266408
35   0.266686
36   0.353911

$$$$

