PCCDB-ID:  17277
public computational chemistry database (PCCDB) project, http://pccdb.org

 34 34  0  0  1  0  0  0  0  0999 V2000
    1.4328    2.2009    0.1007 C   0  0  0  0  0  0  0  0  0  0  0  0
    6.0638    1.1885    0.8803 C   0  0  0  0  0  0  0  0  0  0  0  0
    1.7979    0.9693   -0.7138 C   0  0  0  0  0  0  0  0  0  0  0  0
    5.2340   -0.8923   -3.3544 C   0  0  0  0  0  0  0  0  0  0  0  0
    4.7909   -1.8841   -4.2343 C   0  0  0  0  0  0  0  0  0  0  0  0
    6.1569   -2.5982   -1.9342 C   0  0  0  0  0  0  0  0  0  0  0  0
    6.4069   -0.1793   -1.2155 C   0  0  0  0  0  0  0  0  0  0  0  0
    5.9236   -1.2357   -2.1880 C   0  0  0  0  0  0  0  0  0  0  0  0
    5.0250   -3.2330   -3.9767 C   0  0  0  0  0  0  0  0  0  0  0  0
    5.7194   -3.5932   -2.8055 C   0  0  0  0  0  0  0  0  0  0  0  0
    4.1786    0.8554   -0.6894 C   0  0  0  0  0  0  0  0  0  0  0  0
    5.4134    0.1614   -0.0676 C   0  0  2  0  0  0  0  0  0  0  0  0
    5.1262   -1.0525    0.6965 N   0  0  0  0  0  0  0  0  0  0  0  0
    4.6217   -4.2450   -4.8035 O   0  0  0  0  0  0  0  0  0  0  0  0
    5.9334   -4.9266   -2.5909 O   0  0  0  0  0  0  0  0  0  0  0  0
    4.2443    1.7725   -1.4839 O   0  0  0  0  0  0  0  0  0  0  0  0
    3.0145    0.3536   -0.2215 O   0  0  0  0  0  0  0  0  0  0  0  0
    0.4733    2.6033   -0.2440 H   0  0  0  0  0  0  0  0  0  0  0  0
    2.1928    2.9783   -0.0169 H   0  0  0  0  0  0  0  0  0  0  0  0
    1.3389    1.9529    1.1632 H   0  0  0  0  0  0  0  0  0  0  0  0
    5.3854    1.4442    1.7037 H   0  0  0  0  0  0  0  0  0  0  0  0
    6.3134    2.1088    0.3452 H   0  0  0  0  0  0  0  0  0  0  0  0
    6.9726    0.7576    1.3112 H   0  0  0  0  0  0  0  0  0  0  0  0
    1.9351    1.2179   -1.7687 H   0  0  0  0  0  0  0  0  0  0  0  0
    1.0422    0.1857   -0.6190 H   0  0  0  0  0  0  0  0  0  0  0  0
    5.0381    0.1519   -3.5781 H   0  0  0  0  0  0  0  0  0  0  0  0
    4.2594   -1.6051   -5.1432 H   0  0  0  0  0  0  0  0  0  0  0  0
    6.6940   -2.8873   -1.0318 H   0  0  0  0  0  0  0  0  0  0  0  0
    6.6227    0.7472   -1.7551 H   0  0  0  0  0  0  0  0  0  0  0  0
    7.3339   -0.5130   -0.7367 H   0  0  0  0  0  0  0  0  0  0  0  0
    4.6438   -1.7203    0.0966 H   0  0  0  0  0  0  0  0  0  0  0  0
    4.4687   -0.8315    1.4428 H   0  0  0  0  0  0  0  0  0  0  0  0
    4.1747   -3.8523   -5.5693 H   0  0  0  0  0  0  0  0  0  0  0  0
    6.4309   -5.0253   -1.7643 H   0  0  0  0  0  0  0  0  0  0  0  0
  1 20  1  0  0  0  0
  2 23  1  0  0  0  0
  2 21  1  0  0  0  0
  3 25  1  0  0  0  0
  3 17  1  0  0  0  0
  3  1  1  0  0  0  0
  4  8  2  0  0  0  0
  5  9  2  0  0  0  0
  5  4  1  0  0  0  0
  6 28  1  0  0  0  0
  7 30  1  0  0  0  0
  7 12  1  0  0  0  0
  8  6  1  0  0  0  0
  8  7  1  0  0  0  0
  9 10  1  0  0  0  0
 10 15  1  0  0  0  0
 10  6  2  0  0  0  0
 11 17  1  0  0  0  0
 12 11  1  6  0  0  0
 12 13  1  0  0  0  0
 12  2  1  0  0  0  0
 13 32  1  0  0  0  0
 14  9  1  0  0  0  0
 15 34  1  0  0  0  0
 16 11  2  0  0  0  0
 18  1  1  0  0  0  0
 19  1  1  0  0  0  0
 22  2  1  0  0  0  0
 24  3  1  0  0  0  0
 26  4  1  0  0  0  0
 27  5  1  0  0  0  0
 29  7  1  0  0  0  0
 31 13  1  0  0  0  0
 33 14  1  0  0  0  0
M  END
>  <HBA>
5

>  <HBD>
3

>  <TPSA>
92.78

>  <cid>
17277

>  <dipole>
2.2

>  <excitation_energy_1>
4.762

>  <excitation_energy_2>
4.777

>  <excitation_energy_3>
4.989

>  <excitation_energy_4>
5.061

>  <homo_energy>
-5.47

>  <homo_lumo_gap>
5.597

>  <logP>
1.621

>  <lumo_energy>
0.128

>  <melting_point>
163.49

>  <molecular_refractivity>
63.52

>  <oscillator_strength_1>
0.0549

>  <oscillator_strength_2>
0.0034

>  <oscillator_strength_3>
0.0089

>  <oscillator_strength_4>
0.0024

>  <open_babel_can_smiles>
CCOC(=O)[C@](Cc1ccc(c(c1)O)O)(N)C

>  <mulliken_charges>
34
1   -0.462944
2   -0.448749
3   -0.044461
4   -0.202954
5   -0.199846
6   -0.271105
7   -0.336313
8   0.134392
9   0.317636
10   0.329765
11   0.636474
12   0.090116
13   -0.718236
14   -0.633331
15   -0.635263
16   -0.500028
17   -0.46966
18   0.152054
19   0.177692
20   0.155129
21   0.142108
22   0.166783
23   0.163495
24   0.171897
25   0.153235
26   0.146753
27   0.117833
28   0.130041
29   0.164324
30   0.149278
31   0.309315
32   0.300653
33   0.40629
34   0.407626

>  <lowdin_charges>
34
1   -0.454126
2   -0.440185
3   -0.126544
4   -0.179243
5   -0.205558
6   -0.219311
7   -0.270229
8   -0.021844
9   0.073119
10   0.076719
11   0.18436
12   0.037109
13   -0.541059
14   -0.371062
15   -0.371512
16   -0.280418
17   -0.193588
18   0.159794
19   0.166632
20   0.153501
21   0.150625
22   0.163265
23   0.161779
24   0.158106
25   0.153495
26   0.165425
27   0.153532
28   0.158878
29   0.165018
30   0.157275
31   0.26152
32   0.257551
33   0.358769
34   0.35821

$$$$

