PCCDB-ID:  20373
public computational chemistry database (PCCDB) project, http://pccdb.org

 25 26  0  0  1  0  0  0  0  0999 V2000
    0.5520   -0.1794    0.0593 C   0  0  0  0  0  0  0  0  0  0  0  0
    3.7806    0.8403    3.1239 C   0  0  0  0  0  0  0  0  0  0  0  0
    3.2343   -0.0324    2.1339 C   0  0  0  0  0  0  0  0  0  0  0  0
    3.6951    2.1581    2.7685 C   0  0  0  0  0  0  0  0  0  0  0  0
    2.7896    0.1149   -3.4894 C   0  0  0  0  0  0  0  0  0  0  0  0
    3.7755   -0.8559   -1.3196 C   0  0  0  0  0  0  0  0  0  0  0  0
    3.3232    0.4002   -2.0877 C   0  0  2  0  0  0  0  0  0  0  0  0
    2.7448    0.6328    1.0407 C   0  0  0  0  0  0  0  0  0  0  0  0
    2.0408    0.0404   -0.1705 C   0  0  1  0  0  0  0  0  0  0  0  0
    2.1664    1.2556   -4.0458 O   0  0  0  0  0  0  0  0  0  0  0  0
    2.6335   -1.1947   -0.5330 O   0  0  0  0  0  0  0  0  0  0  0  0
    2.2219    0.9035   -1.3012 O   0  0  0  0  0  0  0  0  0  0  0  0
    2.9543    2.3568    1.2117 S   0  0  0  0  0  0  0  0  0  0  0  0
    0.4008   -0.8580    0.9031 H   0  0  0  0  0  0  0  0  0  0  0  0
    0.1062   -0.6127   -0.8405 H   0  0  0  0  0  0  0  0  0  0  0  0
    0.0645    0.7728    0.2855 H   0  0  0  0  0  0  0  0  0  0  0  0
    4.2219    0.4977    4.0540 H   0  0  0  0  0  0  0  0  0  0  0  0
    3.2072   -1.1133    2.2194 H   0  0  0  0  0  0  0  0  0  0  0  0
    4.0351    3.0244    3.3204 H   0  0  0  0  0  0  0  0  0  0  0  0
    2.0992   -0.7440   -3.4367 H   0  0  0  0  0  0  0  0  0  0  0  0
    3.6154   -0.1544   -4.1580 H   0  0  0  0  0  0  0  0  0  0  0  0
    4.6436   -0.6499   -0.6812 H   0  0  0  0  0  0  0  0  0  0  0  0
    3.9959   -1.7082   -1.9687 H   0  0  0  0  0  0  0  0  0  0  0  0
    4.1019    1.1697   -2.1295 H   0  0  0  0  0  0  0  0  0  0  0  0
    1.5276    1.5557   -3.3771 H   0  0  0  0  0  0  0  0  0  0  0  0
  1 16  1  0  0  0  0
  1 14  1  0  0  0  0
  2 17  1  0  0  0  0
  3 18  1  0  0  0  0
  3  2  1  0  0  0  0
  4  2  2  0  0  0  0
  4 19  1  0  0  0  0
  5 20  1  0  0  0  0
  5  7  1  0  0  0  0
  6 22  1  0  0  0  0
  6 11  1  0  0  0  0
  7 24  1  6  0  0  0
  7  6  1  0  0  0  0
  7 12  1  0  0  0  0
  8 13  1  0  0  0  0
  8  3  2  0  0  0  0
  9  1  1  1  0  0  0
  9  8  1  0  0  0  0
 10  5  1  0  0  0  0
 10 25  1  0  0  0  0
 11  9  1  0  0  0  0
 12  9  1  0  0  0  0
 13  4  1  0  0  0  0
 15  1  1  0  0  0  0
 21  5  1  0  0  0  0
 23  6  1  0  0  0  0
M  END
>  <HBA>
4

>  <HBD>
1

>  <TPSA>
66.93

>  <cid>
20373

>  <dipole>
2.28

>  <excitation_energy_1>
5.46

>  <excitation_energy_2>
5.673

>  <excitation_energy_3>
5.761

>  <excitation_energy_4>
5.878

>  <homo_energy>
-6.321

>  <homo_lumo_gap>
5.916

>  <logP>
1.329

>  <lumo_energy>
-0.405

>  <melting_point>
33.97

>  <molecular_refractivity>
49.61

>  <oscillator_strength_1>
0.1408

>  <oscillator_strength_2>
0.082

>  <oscillator_strength_3>
0.006

>  <oscillator_strength_4>
0.0019

>  <open_babel_can_smiles>
OC[C@@H]1CO[C@@](O1)(C)c1cccs1

>  <mulliken_charges>
25
1   -0.446944
2   -0.101371
3   -0.116907
4   -0.347195
5   -0.031708
6   -0.081246
7   0.110468
8   -0.177055
9   0.494293
10   -0.620805
11   -0.488026
12   -0.542201
13   0.26156
14   0.163071
15   0.160181
16   0.164626
17   0.141043
18   0.147847
19   0.171668
20   0.128129
21   0.14116
22   0.154612
23   0.160137
24   0.151813
25   0.40285

>  <lowdin_charges>
25
1   -0.443782
2   -0.181363
3   -0.185767
4   -0.324217
5   -0.147785
6   -0.147583
7   -0.029149
8   -0.193166
9   0.219269
10   -0.463462
11   -0.249797
12   -0.272535
13   0.321278
14   0.166935
15   0.162822
16   0.167016
17   0.165071
18   0.168177
19   0.182401
20   0.131454
21   0.148651
22   0.147735
23   0.159573
24   0.15116
25   0.347061

$$$$

