PCCDB-ID:  65266
public computational chemistry database (PCCDB) project, http://pccdb.org

 17 17  0  0  0  0  0  0  0  0999 V2000
    1.0067    0.1340    0.0794 C   0  0  0  0  0  0  0  0  0  0  0  0
    3.2212    1.2885   -0.0662 C   0  0  0  0  0  0  0  0  0  0  0  0
    2.5040    0.1455   -0.0453 C   0  0  0  0  0  0  0  0  0  0  0  0
    3.2322   -1.1299   -0.1498 C   0  0  0  0  0  0  0  0  0  0  0  0
    5.3769    0.1536   -0.2808 C   0  0  0  0  0  0  0  0  0  0  0  0
    2.7550   -2.3233   -0.1535 N   0  0  0  0  0  0  0  0  0  0  0  0
    6.6525    0.0849   -0.3871 N   0  0  0  0  0  0  0  0  0  0  0  0
    4.5983    1.3102   -0.1771 N   0  0  0  0  0  0  0  0  0  0  0  0
    4.6197   -1.0011   -0.2597 N   0  0  0  0  0  0  0  0  0  0  0  0
    0.6112    1.1515    0.1570 H   0  0  0  0  0  0  0  0  0  0  0  0
    0.6799   -0.4190    0.9701 H   0  0  0  0  0  0  0  0  0  0  0  0
    0.5315   -0.3428   -0.7882 H   0  0  0  0  0  0  0  0  0  0  0  0
    2.7548    2.2662    0.0051 H   0  0  0  0  0  0  0  0  0  0  0  0
    1.7386   -2.3007   -0.0699 H   0  0  0  0  0  0  0  0  0  0  0  0
    7.0797    1.0114   -0.3896 H   0  0  0  0  0  0  0  0  0  0  0  0
    5.0822    2.1947   -0.1914 H   0  0  0  0  0  0  0  0  0  0  0  0
    5.1430   -1.8650   -0.3312 H   0  0  0  0  0  0  0  0  0  0  0  0
  1 10  1  0  0  0  0
  1 11  1  0  0  0  0
  2  3  2  0  0  0  0
  2 13  1  0  0  0  0
  3  1  1  0  0  0  0
  4  3  1  0  0  0  0
  5  9  1  0  0  0  0
  5  8  1  0  0  0  0
  6  4  2  0  0  0  0
  6 14  1  0  0  0  0
  7  5  2  0  0  0  0
  8  2  1  0  0  0  0
  9  4  1  0  0  0  0
 12  1  1  0  0  0  0
 15  7  1  0  0  0  0
 16  8  1  0  0  0  0
 17  9  1  0  0  0  0
M  END
>  <HBA>
4

>  <HBD>
2

>  <TPSA>
77.82

>  <cid>
65266

>  <dipole>
5.42

>  <excitation_energy_1>
4.575

>  <excitation_energy_2>
4.708

>  <excitation_energy_3>
5.001

>  <excitation_energy_4>
5.222

>  <homo_energy>
-5.842

>  <homo_lumo_gap>
5.314

>  <logP>
1.112

>  <lumo_energy>
-0.528

>  <melting_point>
138.48

>  <molecular_refractivity>
35.81

>  <oscillator_strength_1>
0.0525

>  <oscillator_strength_2>
0.0008

>  <oscillator_strength_3>
0.1294

>  <oscillator_strength_4>
0.0027

>  <open_babel_can_smiles>
Cc1c[nH]c(=N)[nH]c1=N

>  <mulliken_charges>
17
1   -0.547481
2   0.03407
3   0.107283
4   0.464365
5   0.688773
6   -0.650977
7   -0.649356
8   -0.665488
9   -0.674447
10   0.156196
11   0.167958
12   0.16803
13   0.158508
14   0.285077
15   0.269238
16   0.335797
17   0.352454

>  <lowdin_charges>
17
1   -0.437535
2   -0.088519
3   -0.082877
4   0.09562
5   0.132819
6   -0.437678
7   -0.469306
8   -0.243414
9   -0.224836
10   0.159507
11   0.161179
12   0.161399
13   0.167707
14   0.252675
15   0.249583
16   0.2951
17   0.308575

$$$$

