PCCDB-ID:  32383
public computational chemistry database (PCCDB) project, http://pccdb.org

 27 27  0  0  1  0  0  0  0  0999 V2000
    1.5406    1.5295   -1.2259 C   0  0  0  0  0  0  0  0  0  0  0  0
    2.5136    0.3664   -0.9802 C   0  0  0  0  0  0  0  0  0  0  0  0
   -2.1539   -1.2062    1.0747 C   0  0  0  0  0  0  0  0  0  0  0  0
    0.4057    1.5249   -0.1892 C   0  0  0  0  0  0  0  0  0  0  0  0
   -1.3929    0.1233    0.9464 C   0  0  0  0  0  0  0  0  0  0  0  0
    1.7484   -0.9644   -0.8909 C   0  0  0  0  0  0  0  0  0  0  0  0
   -2.8623   -1.6505   -0.1994 C   0  0  0  0  0  0  0  0  0  0  0  0
   -0.2936    0.1511   -0.1242 C   0  0  2  0  0  0  0  0  0  0  0  0
    0.6514   -0.9606    0.0843 N   0  0  0  0  0  0  0  0  0  0  0  0
   -3.7488   -0.6102   -0.6136 O   0  0  0  0  0  0  0  0  0  0  0  0
    1.1094    1.4301   -2.2334 H   0  0  0  0  0  0  0  0  0  0  0  0
    2.0725    2.4891   -1.2087 H   0  0  0  0  0  0  0  0  0  0  0  0
    3.0553    0.5334   -0.0369 H   0  0  0  0  0  0  0  0  0  0  0  0
    3.2707    0.3174   -1.7746 H   0  0  0  0  0  0  0  0  0  0  0  0
   -2.9002   -1.1084    1.8739 H   0  0  0  0  0  0  0  0  0  0  0  0
   -1.4624   -2.0049    1.3656 H   0  0  0  0  0  0  0  0  0  0  0  0
   -0.3277    2.3093   -0.4194 H   0  0  0  0  0  0  0  0  0  0  0  0
    0.8164    1.7592    0.8056 H   0  0  0  0  0  0  0  0  0  0  0  0
   -0.9421    0.3649    1.9215 H   0  0  0  0  0  0  0  0  0  0  0  0
   -2.1062    0.9258    0.7276 H   0  0  0  0  0  0  0  0  0  0  0  0
    2.4266   -1.7896   -0.6418 H   0  0  0  0  0  0  0  0  0  0  0  0
    1.3132   -1.1996   -1.8732 H   0  0  0  0  0  0  0  0  0  0  0  0
   -3.4164   -2.5823   -0.0007 H   0  0  0  0  0  0  0  0  0  0  0  0
   -2.1196   -1.8713   -0.9813 H   0  0  0  0  0  0  0  0  0  0  0  0
   -0.7602   -0.0274   -1.1051 H   0  0  0  0  0  0  0  0  0  0  0  0
    1.0472   -0.8723    1.0224 H   0  0  0  0  0  0  0  0  0  0  0  0
   -4.1829   -0.8981   -1.4304 H   0  0  0  0  0  0  0  0  0  0  0  0
  1 12  1  0  0  0  0
  1  2  1  0  0  0  0
  1  4  1  0  0  0  0
  2  6  1  0  0  0  0
  2 13  1  0  0  0  0
  3 16  1  0  0  0  0
  3 15  1  0  0  0  0
  4  8  1  0  0  0  0
  4 18  1  0  0  0  0
  5  3  1  0  0  0  0
  5 19  1  0  0  0  0
  6 21  1  0  0  0  0
  6  9  1  0  0  0  0
  7 23  1  0  0  0  0
  7  3  1  0  0  0  0
  8 25  1  6  0  0  0
  8  9  1  0  0  0  0
  8  5  1  0  0  0  0
  9 26  1  0  0  0  0
 10  7  1  0  0  0  0
 11  1  1  0  0  0  0
 14  2  1  0  0  0  0
 17  4  1  0  0  0  0
 20  5  1  0  0  0  0
 22  6  1  0  0  0  0
 24  7  1  0  0  0  0
 27 10  1  0  0  0  0
M  END
>  <HBA>
2

>  <HBD>
2

>  <TPSA>
32.26

>  <cid>
32383

>  <dipole>
1.05

>  <excitation_energy_1>
5.215

>  <excitation_energy_2>
5.352

>  <excitation_energy_3>
5.625

>  <excitation_energy_4>
5.815

>  <homo_energy>
-5.679

>  <homo_lumo_gap>
7.679

>  <logP>
1.23

>  <lumo_energy>
2.0

>  <melting_point>
40.48

>  <molecular_refractivity>
46.33

>  <oscillator_strength_1>
0.0077

>  <oscillator_strength_2>
0.0092

>  <oscillator_strength_3>
0.0097

>  <oscillator_strength_4>
0.0054

>  <open_babel_can_smiles>
OCCC[C@H]1CCCCN1

>  <mulliken_charges>
27
1   -0.262028
2   -0.260387
3   -0.25597
4   -0.259367
5   -0.269678
6   -0.140061
7   -0.040492
8   0.028925
9   -0.541528
10   -0.621562
11   0.127738
12   0.131495
13   0.122621
14   0.127718
15   0.134208
16   0.144278
17   0.130928
18   0.117266
19   0.115379
20   0.155622
21   0.134425
22   0.134185
23   0.115365
24   0.130826
25   0.129811
26   0.280709
27   0.389572

>  <lowdin_charges>
27
1   -0.278582
2   -0.295185
3   -0.28424
4   -0.292547
5   -0.281485
6   -0.210092
7   -0.137209
8   -0.0698
9   -0.361816
10   -0.480328
11   0.136755
12   0.143262
13   0.134843
14   0.144127
15   0.146011
16   0.153653
17   0.145895
18   0.132953
19   0.135269
20   0.156952
21   0.144184
22   0.137762
23   0.125757
24   0.130085
25   0.136081
26   0.244549
27   0.343147

$$$$

