PCCDB-ID:  18303
public computational chemistry database (PCCDB) project, http://pccdb.org

 12 12  0  0  1  0  0  0  0  0999 V2000
    0.9770   -0.1144   -0.0539 C   0  0  0  0  0  0  0  0  0  0  0  0
    3.1863    1.1545   -0.6870 C   0  0  0  0  0  0  0  0  0  0  0  0
    2.4568    0.1036    0.1727 C   0  0  2  0  0  0  0  0  0  0  0  0
    3.9409   -0.0558   -1.2378 C   0  0  0  0  0  0  0  0  0  0  0  0
    4.8050   -0.2741   -2.0341 O   0  0  0  0  0  0  0  0  0  0  0  0
    3.2686   -0.9633   -0.4545 O   0  0  0  0  0  0  0  0  0  0  0  0
    0.4019    0.7041    0.3945 H   0  0  0  0  0  0  0  0  0  0  0  0
    0.6512   -1.0537    0.4044 H   0  0  0  0  0  0  0  0  0  0  0  0
    0.7484   -0.1556   -1.1243 H   0  0  0  0  0  0  0  0  0  0  0  0
    3.8174    1.8712   -0.1554 H   0  0  0  0  0  0  0  0  0  0  0  0
    2.5744    1.6788   -1.4262 H   0  0  0  0  0  0  0  0  0  0  0  0
    2.7026    0.1476    1.2378 H   0  0  0  0  0  0  0  0  0  0  0  0
  1  3  1  0  0  0  0
  1  7  1  0  0  0  0
  1  8  1  0  0  0  0
  2 10  1  0  0  0  0
  2  3  1  0  0  0  0
  3 12  1  1  0  0  0
  4  2  1  0  0  0  0
  4  6  1  0  0  0  0
  5  4  2  0  0  0  0
  6  3  1  0  0  0  0
  9  1  1  0  0  0  0
 11  2  1  0  0  0  0
M  END
>  <HBA>
2

>  <HBD>
0

>  <TPSA>
26.3

>  <cid>
18303

>  <dipole>
4.3

>  <excitation_energy_1>
5.859

>  <excitation_energy_2>
6.947

>  <excitation_energy_3>
7.524

>  <excitation_energy_4>
7.616

>  <homo_energy>
-7.475

>  <homo_lumo_gap>
7.731

>  <logP>
0.322

>  <lumo_energy>
0.256

>  <melting_point>
9.78

>  <molecular_refractivity>
20.51

>  <oscillator_strength_1>
0.0006

>  <oscillator_strength_2>
0.0235

>  <oscillator_strength_3>
0.0296

>  <oscillator_strength_4>
0.011

>  <open_babel_can_smiles>
C[C@@H]1CC(=O)O1

>  <mulliken_charges>
12
1   -0.45547
2   -0.444194
3   0.143329
4   0.623146
5   -0.433842
6   -0.452682
7   0.157041
8   0.172818
9   0.16018
10   0.188255
11   0.186295
12   0.155124

>  <lowdin_charges>
12
1   -0.449355
2   -0.331465
3   0.018673
4   0.191104
5   -0.212296
6   -0.212973
7   0.162967
8   0.167545
9   0.158534
10   0.179982
11   0.178139
12   0.149144

$$$$

