PCCDB-ID:  8073
public computational chemistry database (PCCDB) project, http://pccdb.org

 14 13  0  0  0  0  0  0  0  0999 V2000
    0.5851    0.5992   -0.8845 C   0  0  0  0  0  0  0  0  0  0  0  0
    2.0733    0.4143   -0.5671 C   0  0  0  0  0  0  0  0  0  0  0  0
    2.2863   -0.5637    0.5832 C   0  0  0  0  0  0  0  0  0  0  0  0
    4.4262   -1.5449    0.2523 C   0  0  0  0  0  0  0  0  0  0  0  0
    4.0406   -2.2667   -0.6354 O   0  0  0  0  0  0  0  0  0  0  0  0
    3.6883   -0.6628    0.9445 O   0  0  0  0  0  0  0  0  0  0  0  0
    0.4483    1.3060   -1.7094 H   0  0  0  0  0  0  0  0  0  0  0  0
    0.0354    0.9881   -0.0186 H   0  0  0  0  0  0  0  0  0  0  0  0
    0.1193   -0.3487   -1.1788 H   0  0  0  0  0  0  0  0  0  0  0  0
    2.5272    1.3771   -0.3015 H   0  0  0  0  0  0  0  0  0  0  0  0
    2.6017    0.0383   -1.4504 H   0  0  0  0  0  0  0  0  0  0  0  0
    1.9157   -1.5605    0.3288 H   0  0  0  0  0  0  0  0  0  0  0  0
    1.7947   -0.2171    1.4963 H   0  0  0  0  0  0  0  0  0  0  0  0
    5.4602   -1.5137    0.6296 H   0  0  0  0  0  0  0  0  0  0  0  0
  1  2  1  0  0  0  0
  1  8  1  0  0  0  0
  2 10  1  0  0  0  0
  2  3  1  0  0  0  0
  3  6  1  0  0  0  0
  3 13  1  0  0  0  0
  4 14  1  0  0  0  0
  4  6  1  0  0  0  0
  5  4  2  0  0  0  0
  7  1  1  0  0  0  0
  9  1  1  0  0  0  0
 11  2  1  0  0  0  0
 12  3  1  0  0  0  0
M  END
>  <HBA>
2

>  <HBD>
0

>  <TPSA>
26.3

>  <cid>
8073

>  <dipole>
1.91

>  <excitation_energy_1>
5.809

>  <excitation_energy_2>
7.475

>  <excitation_energy_3>
7.643

>  <excitation_energy_4>
7.808

>  <homo_energy>
-7.636

>  <homo_lumo_gap>
7.859

>  <logP>
1.205

>  <lumo_energy>
0.223

>  <melting_point>
-40.46

>  <molecular_refractivity>
23.02

>  <oscillator_strength_1>
0.0014

>  <oscillator_strength_2>
0.0323

>  <oscillator_strength_3>
0.0575

>  <oscillator_strength_4>
0.0429

>  <open_babel_can_smiles>
CCCOC=O

>  <mulliken_charges>
14
1   -0.453875
2   -0.272761
3   -0.048702
4   0.388758
5   -0.422151
6   -0.416924
7   0.155216
8   0.14579
9   0.153298
10   0.147961
11   0.164499
12   0.169416
13   0.153199
14   0.136277

>  <lowdin_charges>
14
1   -0.445513
2   -0.284704
3   -0.132344
4   0.088548
5   -0.255522
6   -0.186193
7   0.158132
8   0.149322
9   0.152424
10   0.14888
11   0.157997
12   0.157495
13   0.153651
14   0.137825

$$$$

