PCCDB-ID:  29373
public computational chemistry database (PCCDB) project, http://pccdb.org

 21 20  0  0  0  0  0  0  0  0999 V2000
    0.5507   -0.6941   -0.5269 C   0  0  0  0  0  0  0  0  0  0  0  0
    2.0284   -0.5390   -0.1538 C   0  0  0  0  0  0  0  0  0  0  0  0
    2.9700   -1.2691   -1.1200 C   0  0  0  0  0  0  0  0  0  0  0  0
    4.4572   -1.1074   -0.7451 C   0  0  0  0  0  0  0  0  0  0  0  0
    5.3736   -1.8628   -1.6627 C   0  0  0  0  0  0  0  0  0  0  0  0
    6.3083   -1.3114   -2.4488 C   0  0  0  0  0  0  0  0  0  0  0  0
    7.1646   -2.0434   -3.4225 C   0  0  0  0  0  0  0  0  0  0  0  0
    7.6714   -1.5038   -4.3776 O   0  0  0  0  0  0  0  0  0  0  0  0
    7.3559   -3.3775   -3.2108 O   0  0  0  0  0  0  0  0  0  0  0  0
   -0.0954   -0.1610    0.1793 H   0  0  0  0  0  0  0  0  0  0  0  0
    0.2489   -1.7486   -0.5241 H   0  0  0  0  0  0  0  0  0  0  0  0
    0.3508   -0.2947   -1.5285 H   0  0  0  0  0  0  0  0  0  0  0  0
    2.1922   -0.9162    0.8656 H   0  0  0  0  0  0  0  0  0  0  0  0
    2.2910    0.5279   -0.1300 H   0  0  0  0  0  0  0  0  0  0  0  0
    2.8150   -0.8950   -2.1410 H   0  0  0  0  0  0  0  0  0  0  0  0
    2.7129   -2.3381   -1.1422 H   0  0  0  0  0  0  0  0  0  0  0  0
    4.6009   -1.4732    0.2833 H   0  0  0  0  0  0  0  0  0  0  0  0
    4.7278   -0.0443   -0.7426 H   0  0  0  0  0  0  0  0  0  0  0  0
    5.2047   -2.9423   -1.6989 H   0  0  0  0  0  0  0  0  0  0  0  0
    6.4433   -0.2331   -2.4760 H   0  0  0  0  0  0  0  0  0  0  0  0
    7.0234   -3.6196   -2.3314 H   0  0  0  0  0  0  0  0  0  0  0  0
  1 11  1  0  0  0  0
  1  2  1  0  0  0  0
  1 10  1  0  0  0  0
  2 14  1  0  0  0  0
  2 13  1  0  0  0  0
  3  4  1  0  0  0  0
  3  2  1  0  0  0  0
  4 18  1  0  0  0  0
  4 17  1  0  0  0  0
  5  4  1  0  0  0  0
  6  5  2  0  0  0  0
  7  9  1  0  0  0  0
  7  6  1  0  0  0  0
  8  7  2  0  0  0  0
  9 21  1  0  0  0  0
 12  1  1  0  0  0  0
 15  3  1  0  0  0  0
 16  3  1  0  0  0  0
 19  5  1  0  0  0  0
 20  6  1  0  0  0  0
M  END
>  <HBA>
2

>  <HBD>
1

>  <TPSA>
37.3

>  <cid>
29373

>  <dipole>
5.38

>  <excitation_energy_1>
4.652

>  <excitation_energy_2>
6.073

>  <excitation_energy_3>
6.483

>  <excitation_energy_4>
6.629

>  <homo_energy>
-7.225

>  <homo_lumo_gap>
5.989

>  <logP>
1.817

>  <lumo_energy>
-1.235

>  <melting_point>
59.72

>  <molecular_refractivity>
37.06

>  <oscillator_strength_1>
0.0073

>  <oscillator_strength_2>
0.4434

>  <oscillator_strength_3>
0.0481

>  <oscillator_strength_4>
0.0431

>  <open_babel_can_smiles>
CCCC/C=C/C(=O)O

>  <mulliken_charges>
21
1   -0.443193
2   -0.249474
3   -0.252672
4   -0.311108
5   -0.094249
6   -0.18894
7   0.573356
8   -0.448773
9   -0.573562
10   0.147412
11   0.144211
12   0.14687
13   0.133493
14   0.136651
15   0.1471
16   0.134032
17   0.151441
18   0.152204
19   0.129512
20   0.160373
21   0.405315

>  <lowdin_charges>
21
1   -0.443335
2   -0.269458
3   -0.26963
4   -0.269064
5   -0.125565
6   -0.209087
7   0.192558
8   -0.238152
9   -0.364082
10   0.153896
11   0.146627
12   0.148707
13   0.139364
14   0.140391
15   0.146412
16   0.139249
17   0.154008
18   0.151651
19   0.146703
20   0.17437
21   0.354435

$$$$

