PCCDB-ID:  3848
public computational chemistry database (PCCDB) project, http://pccdb.org

 22 22  0  0  1  0  0  0  0  0999 V2000
   -2.2187   -1.8405    0.4592 C   0  0  0  0  0  0  0  0  0  0  0  0
   -1.8012   -1.0507   -0.6114 C   0  0  0  0  0  0  0  0  0  0  0  0
   -1.2780   -2.3134    1.3783 C   0  0  0  0  0  0  0  0  0  0  0  0
   -0.4476   -0.7352   -0.7601 C   0  0  0  0  0  0  0  0  0  0  0  0
    0.0728   -2.0020    1.2280 C   0  0  0  0  0  0  0  0  0  0  0  0
    1.9770   -0.8974   -0.0440 C   0  0  0  0  0  0  0  0  0  0  0  0
    0.5068   -1.2050    0.1562 C   0  0  0  0  0  0  0  0  0  0  0  0
    2.7129   -1.9973   -0.8347 C   0  0  1  0  0  0  0  0  0  0  0  0
    2.9233   -3.2741    0.0086 C   0  0  0  0  0  0  0  0  0  0  0  0
    2.0789   -2.3234   -2.0759 O   0  0  0  0  0  0  0  0  0  0  0  0
    3.2677   -3.2530    1.1674 O   0  0  0  0  0  0  0  0  0  0  0  0
    2.7302   -4.4112   -0.6780 O   0  0  0  0  0  0  0  0  0  0  0  0
   -3.2707   -2.0833    0.5812 H   0  0  0  0  0  0  0  0  0  0  0  0
   -2.5259   -0.6710   -1.3267 H   0  0  0  0  0  0  0  0  0  0  0  0
   -1.5978   -2.9258    2.2170 H   0  0  0  0  0  0  0  0  0  0  0  0
   -0.1305   -0.0956   -1.5819 H   0  0  0  0  0  0  0  0  0  0  0  0
    0.8021   -2.3788    1.9393 H   0  0  0  0  0  0  0  0  0  0  0  0
    2.4881   -0.7950    0.9175 H   0  0  0  0  0  0  0  0  0  0  0  0
    2.0908    0.0463   -0.5884 H   0  0  0  0  0  0  0  0  0  0  0  0
    3.7138   -1.6344   -1.0978 H   0  0  0  0  0  0  0  0  0  0  0  0
    1.1167   -2.2477   -1.9339 H   0  0  0  0  0  0  0  0  0  0  0  0
    2.4477   -4.1321   -1.5771 H   0  0  0  0  0  0  0  0  0  0  0  0
  1 13  1  0  0  0  0
  1  3  2  0  0  0  0
  2  1  1  0  0  0  0
  3 15  1  0  0  0  0
  4  2  2  0  0  0  0
  4  7  1  0  0  0  0
  5  3  1  0  0  0  0
  5 17  1  0  0  0  0
  6  7  1  0  0  0  0
  6 18  1  0  0  0  0
  7  5  2  0  0  0  0
  8 20  1  6  0  0  0
  8  6  1  0  0  0  0
  8  9  1  0  0  0  0
  9 11  2  0  0  0  0
 10 21  1  0  0  0  0
 10  8  1  0  0  0  0
 12  9  1  0  0  0  0
 14  2  1  0  0  0  0
 16  4  1  0  0  0  0
 19  6  1  0  0  0  0
 22 12  1  0  0  0  0
M  END
>  <HBA>
3

>  <HBD>
2

>  <TPSA>
57.53

>  <cid>
3848

>  <dipole>
3.87

>  <excitation_energy_1>
5.289

>  <excitation_energy_2>
5.447

>  <excitation_energy_3>
5.836

>  <excitation_energy_4>
5.985

>  <homo_energy>
-6.961

>  <homo_lumo_gap>
6.465

>  <logP>
0.675

>  <lumo_energy>
-0.495

>  <melting_point>
101.6

>  <molecular_refractivity>
43.96

>  <oscillator_strength_1>
0.0003

>  <oscillator_strength_2>
0.0014

>  <oscillator_strength_3>
0.0227

>  <oscillator_strength_4>
0.0017

>  <open_babel_can_smiles>
O[C@H](C(=O)O)Cc1ccccc1

>  <mulliken_charges>
22
1   -0.127629
2   -0.124163
3   -0.1282
4   -0.210618
5   -0.17951
6   -0.366962
7   0.114679
8   0.029014
9   0.594357
10   -0.650753
11   -0.465793
12   -0.573292
13   0.136966
14   0.137194
15   0.141527
16   0.137491
17   0.166681
18   0.188735
19   0.158816
20   0.184473
21   0.409674
22   0.427314

>  <lowdin_charges>
22
1   -0.152508
2   -0.155477
3   -0.147246
4   -0.1861
5   -0.162925
6   -0.284665
7   -0.020712
8   -0.040574
9   0.166009
10   -0.45775
11   -0.256994
12   -0.3421
13   0.159897
14   0.162411
15   0.163909
16   0.159056
17   0.175557
18   0.179252
19   0.159645
20   0.170886
21   0.348272
22   0.362159

$$$$

