PCCDB-ID:  36571
public computational chemistry database (PCCDB) project, http://pccdb.org

 21 21  0  0  1  0  0  0  0  0999 V2000
    1.3781    0.5603    1.0272 C   0  0  0  0  0  0  0  0  0  0  0  0
    2.8880    3.1997   -1.9143 C   0  0  0  0  0  0  0  0  0  0  0  0
    4.6304    1.5987   -2.3603 C   0  0  0  0  0  0  0  0  0  0  0  0
    2.3527    2.3633   -0.9344 C   0  0  0  0  0  0  0  0  0  0  0  0
    4.1097    0.7581   -1.3846 C   0  0  0  0  0  0  0  0  0  0  0  0
    5.5969    3.1958   -4.5504 C   0  0  0  0  0  0  0  0  0  0  0  0
    4.0264    2.8327   -2.6382 C   0  0  0  0  0  0  0  0  0  0  0  0
    2.9663    1.1327   -0.6642 C   0  0  0  0  0  0  0  0  0  0  0  0
    4.5670    3.8118   -3.6766 C   0  0  2  0  0  0  0  0  0  0  0  0
    6.3852    2.7176   -5.2553 N   0  0  0  0  0  0  0  0  0  0  0  0
    3.5418    4.4075   -4.4637 O   0  0  0  0  0  0  0  0  0  0  0  0
    2.5328    0.2379    0.2663 O   0  0  0  0  0  0  0  0  0  0  0  0
    1.2169   -0.2857    1.6974 H   0  0  0  0  0  0  0  0  0  0  0  0
    0.4960    0.6886    0.3863 H   0  0  0  0  0  0  0  0  0  0  0  0
    1.5285    1.4708    1.6217 H   0  0  0  0  0  0  0  0  0  0  0  0
    2.4064    4.1502   -2.1247 H   0  0  0  0  0  0  0  0  0  0  0  0
    5.5126    1.2881   -2.9127 H   0  0  0  0  0  0  0  0  0  0  0  0
    1.4679    2.6785   -0.3935 H   0  0  0  0  0  0  0  0  0  0  0  0
    4.5689   -0.2009   -1.1674 H   0  0  0  0  0  0  0  0  0  0  0  0
    5.0450    4.6619   -3.1738 H   0  0  0  0  0  0  0  0  0  0  0  0
    3.0053    3.6846   -4.8310 H   0  0  0  0  0  0  0  0  0  0  0  0
  1 15  1  0  0  0  0
  1 13  1  0  0  0  0
  2  4  2  0  0  0  0
  3  5  1  0  0  0  0
  4  8  1  0  0  0  0
  4 18  1  0  0  0  0
  5 19  1  0  0  0  0
  5  8  2  0  0  0  0
  6  9  1  0  0  0  0
  7  3  2  0  0  0  0
  7  2  1  0  0  0  0
  8 12  1  0  0  0  0
  9 20  1  1  0  0  0
  9  7  1  0  0  0  0
 10  6  3  0  0  0  0
 11  9  1  0  0  0  0
 12  1  1  0  0  0  0
 14  1  1  0  0  0  0
 16  2  1  0  0  0  0
 17  3  1  0  0  0  0
 21 11  1  0  0  0  0
M  END
>  <HBA>
3

>  <HBD>
1

>  <TPSA>
53.25

>  <cid>
36571

>  <dipole>
5.2

>  <excitation_energy_1>
4.917

>  <excitation_energy_2>
5.243

>  <excitation_energy_3>
5.713

>  <excitation_energy_4>
5.868

>  <homo_energy>
-6.294

>  <homo_lumo_gap>
5.758

>  <logP>
1.252

>  <lumo_energy>
-0.536

>  <melting_point>
65.11

>  <molecular_refractivity>
43.62

>  <oscillator_strength_1>
0.0456

>  <oscillator_strength_2>
0.1418

>  <oscillator_strength_3>
0.0157

>  <oscillator_strength_4>
0.0164

>  <open_babel_can_smiles>
COc1ccc(cc1)[C@@H](C#N)O

>  <mulliken_charges>
21
1   -0.218271
2   -0.173561
3   -0.170875
4   -0.19789
5   -0.182414
6   0.352018
7   0.073756
8   0.386352
9   0.023579
10   -0.481589
11   -0.593267
12   -0.503808
13   0.175082
14   0.154787
15   0.155374
16   0.149512
17   0.160325
18   0.138526
19   0.148372
20   0.203905
21   0.400087

>  <lowdin_charges>
21
1   -0.278497
2   -0.147232
3   -0.151069
4   -0.209992
5   -0.177196
6   -0.027727
7   -0.058415
8   0.107093
9   0.004676
10   -0.114958
11   -0.431498
12   -0.192607
13   0.16649
14   0.147287
15   0.147277
16   0.167822
17   0.174905
18   0.165806
19   0.171391
20   0.184312
21   0.352133

$$$$

