PCCDB-ID:  32829
public computational chemistry database (PCCDB) project, http://pccdb.org

 36 36  0  0  0  0  0  0  0  0999 V2000
    1.6929   -0.9866   -0.9763 C   0  0  0  0  0  0  0  0  0  0  0  0
    3.8062   -0.7473    0.4154 C   0  0  0  0  0  0  0  0  0  0  0  0
    3.9861    2.4578   -5.2287 C   0  0  0  0  0  0  0  0  0  0  0  0
    6.1546    2.6087   -3.9129 C   0  0  0  0  0  0  0  0  0  0  0  0
    3.8374    5.6880   -0.5263 C   0  0  0  0  0  0  0  0  0  0  0  0
    1.6335    5.4863   -1.7752 C   0  0  0  0  0  0  0  0  0  0  0  0
    2.5564   -0.0321   -0.1320 C   0  0  0  0  0  0  0  0  0  0  0  0
    4.7831    1.9183   -4.0268 C   0  0  0  0  0  0  0  0  0  0  0  0
    2.5866    4.8228   -0.7634 C   0  0  0  0  0  0  0  0  0  0  0  0
    2.9564    1.1860   -0.9384 C   0  0  0  0  0  0  0  0  0  0  0  0
    3.9933    2.0855   -2.7447 C   0  0  0  0  0  0  0  0  0  0  0  0
    2.9733    3.4350   -1.2321 C   0  0  0  0  0  0  0  0  0  0  0  0
    3.6629    0.9819   -2.0618 N   0  0  0  0  0  0  0  0  0  0  0  0
    2.5868    2.3907   -0.4809 N   0  0  0  0  0  0  0  0  0  0  0  0
    3.6716    3.3327   -2.3698 N   0  0  0  0  0  0  0  0  0  0  0  0
    1.4018   -1.8595   -0.3811 H   0  0  0  0  0  0  0  0  0  0  0  0
    2.2489   -1.3332   -1.8530 H   0  0  0  0  0  0  0  0  0  0  0  0
    0.7777   -0.4945   -1.3245 H   0  0  0  0  0  0  0  0  0  0  0  0
    3.5124   -1.6175    1.0132 H   0  0  0  0  0  0  0  0  0  0  0  0
    4.3987   -0.0826    1.0542 H   0  0  0  0  0  0  0  0  0  0  0  0
    4.4439   -1.0906   -0.4058 H   0  0  0  0  0  0  0  0  0  0  0  0
    4.5573    2.3194   -6.1537 H   0  0  0  0  0  0  0  0  0  0  0  0
    3.7800    3.5259   -5.1051 H   0  0  0  0  0  0  0  0  0  0  0  0
    3.0292    1.9357   -5.3406 H   0  0  0  0  0  0  0  0  0  0  0  0
    6.7254    2.4706   -4.8380 H   0  0  0  0  0  0  0  0  0  0  0  0
    6.7433    2.1940   -3.0868 H   0  0  0  0  0  0  0  0  0  0  0  0
    6.0307    3.6824   -3.7390 H   0  0  0  0  0  0  0  0  0  0  0  0
    3.5468    6.6843   -0.1745 H   0  0  0  0  0  0  0  0  0  0  0  0
    4.4092    5.8004   -1.4530 H   0  0  0  0  0  0  0  0  0  0  0  0
    4.4948    5.2414    0.2284 H   0  0  0  0  0  0  0  0  0  0  0  0
    1.3447    6.4837   -1.4251 H   0  0  0  0  0  0  0  0  0  0  0  0
    0.7195    4.8967   -1.9089 H   0  0  0  0  0  0  0  0  0  0  0  0
    2.1202    5.5891   -2.7505 H   0  0  0  0  0  0  0  0  0  0  0  0
    1.9628    0.3405    0.7097 H   0  0  0  0  0  0  0  0  0  0  0  0
    4.9347    0.8410   -4.1533 H   0  0  0  0  0  0  0  0  0  0  0  0
    2.0588    4.6876    0.1867 H   0  0  0  0  0  0  0  0  0  0  0  0
  1 16  1  0  0  0  0
  1  7  1  0  0  0  0
  2 19  1  0  0  0  0
  2 20  1  0  0  0  0
  3 23  1  0  0  0  0
  3  8  1  0  0  0  0
  4 27  1  0  0  0  0
  4 26  1  0  0  0  0
  5 28  1  0  0  0  0
  5 30  1  0  0  0  0
  6 31  1  0  0  0  0
  6  9  1  0  0  0  0
  7  2  1  0  0  0  0
  7 34  1  0  0  0  0
  8  4  1  0  0  0  0
  8 11  1  0  0  0  0
  9  5  1  0  0  0  0
  9 36  1  0  0  0  0
 10 14  1  0  0  0  0
 10  7  1  0  0  0  0
 11 15  1  0  0  0  0
 11 13  2  0  0  0  0
 12  9  1  0  0  0  0
 12 14  2  0  0  0  0
 13 10  2  0  0  0  0
 15 12  1  0  0  0  0
 17  1  1  0  0  0  0
 18  1  1  0  0  0  0
 21  2  1  0  0  0  0
 22  3  1  0  0  0  0
 24  3  1  0  0  0  0
 25  4  1  0  0  0  0
 29  5  1  0  0  0  0
 32  6  1  0  0  0  0
 33  6  1  0  0  0  0
 35  8  1  0  0  0  0
M  RAD  1  15   2
M  END
>  <HBA>
3

>  <HBD>
0

>  <TPSA>
38.67

>  <cid>
32829

>  <dipole>
0.25

>  <excitation_energy_1>
4.534

>  <excitation_energy_2>
4.621

>  <excitation_energy_3>
4.697

>  <excitation_energy_4>
4.724

>  <homo_energy>
-6.914

>  <homo_lumo_gap>
5.919

>  <logP>
3.242

>  <lumo_energy>
-0.996

>  <melting_point>
59.36

>  <molecular_refractivity>
63.57

>  <oscillator_strength_1>
0.0

>  <oscillator_strength_2>
0.0059

>  <oscillator_strength_3>
0.0002

>  <oscillator_strength_4>
0.0078

>  <open_babel_can_smiles>
CC(C1=NC(=[N]=C([N]1)C(C)C)C(C)C)C

>  <mulliken_charges>
36
1   -0.450932
2   -0.451619
3   -0.450974
4   -0.450909
5   -0.450553
6   -0.45117
7   -0.130019
8   -0.130238
9   -0.130621
10   0.44417
11   0.438421
12   0.441732
13   -0.476423
14   -0.48213
15   -0.471223
16   0.144554
17   0.166726
18   0.147541
19   0.145804
20   0.148844
21   0.165216
22   0.145333
23   0.164784
24   0.148567
25   0.145393
26   0.14868
27   0.164675
28   0.144915
29   0.164813
30   0.148134
31   0.145809
32   0.149286
33   0.163875
34   0.1501
35   0.148898
36   0.150543

>  <lowdin_charges>
36
1   -0.442091
2   -0.442922
3   -0.438701
4   -0.439641
5   -0.441247
6   -0.439236
7   -0.12799
8   -0.126366
9   -0.127192
10   0.116808
11   0.117111
12   0.11628
13   -0.187364
14   -0.188941
15   -0.185499
16   0.151763
17   0.160138
18   0.151714
19   0.152235
20   0.15333
21   0.1596
22   0.151623
23   0.156823
24   0.151662
25   0.151703
26   0.152827
27   0.156645
28   0.150826
29   0.158581
30   0.152807
31   0.151157
32   0.152334
33   0.157518
34   0.155982
35   0.152526
36   0.155198

$$$$

