PCCDB-ID:  65725
public computational chemistry database (PCCDB) project, http://pccdb.org

 13 13  0  0  0  0  0  0  0  0999 V2000
   -0.7394   -1.0863    0.2582 C   0  0  0  0  0  0  0  0  0  0  0  0
    0.7119   -1.0089   -0.2341 C   0  0  0  0  0  0  0  0  0  0  0  0
   -0.0879    1.1244   -0.0559 C   0  0  0  0  0  0  0  0  0  0  0  0
   -2.4223    0.7160    0.3954 N   0  0  0  0  0  0  0  0  0  0  0  0
   -1.1736    0.2618   -0.0825 N   0  0  0  0  0  0  0  0  0  0  0  0
   -0.1257    2.3293    0.0296 O   0  0  0  0  0  0  0  0  0  0  0  0
    1.0596    0.3879   -0.1148 O   0  0  0  0  0  0  0  0  0  0  0  0
   -0.8117   -1.2676    1.3403 H   0  0  0  0  0  0  0  0  0  0  0  0
   -1.3257   -1.8462   -0.2651 H   0  0  0  0  0  0  0  0  0  0  0  0
    0.7989   -1.3009   -1.2865 H   0  0  0  0  0  0  0  0  0  0  0  0
    1.4171   -1.5869    0.3653 H   0  0  0  0  0  0  0  0  0  0  0  0
   -2.9364    1.0844   -0.4043 H   0  0  0  0  0  0  0  0  0  0  0  0
   -2.2412    1.5180    1.0039 H   0  0  0  0  0  0  0  0  0  0  0  0
  1  8  1  0  0  0  0
  2  7  1  0  0  0  0
  2  1  1  0  0  0  0
  2 11  1  0  0  0  0
  3  6  2  0  0  0  0
  4 13  1  0  0  0  0
  5  3  1  0  0  0  0
  5  1  1  0  0  0  0
  5  4  1  0  0  0  0
  7  3  1  0  0  0  0
  9  1  1  0  0  0  0
 10  2  1  0  0  0  0
 12  4  1  0  0  0  0
M  END
>  <HBA>
4

>  <HBD>
1

>  <TPSA>
55.56

>  <cid>
65725

>  <dipole>
3.61

>  <excitation_energy_1>
6.226

>  <excitation_energy_2>
6.608

>  <excitation_energy_3>
6.707

>  <excitation_energy_4>
6.862

>  <homo_energy>
-6.874

>  <homo_lumo_gap>
7.97

>  <logP>
-0.05

>  <lumo_energy>
1.097

>  <melting_point>
77.67

>  <molecular_refractivity>
25.61

>  <oscillator_strength_1>
0.0216

>  <oscillator_strength_2>
0.0012

>  <oscillator_strength_3>
0.0014

>  <oscillator_strength_4>
0.0767

>  <open_babel_can_smiles>
O=C1OCCN1N

>  <mulliken_charges>
13
1   -0.129375
2   -0.055482
3   0.761357
4   -0.566908
5   -0.362863
6   -0.501074
7   -0.467877
8   0.160166
9   0.167753
10   0.166495
11   0.170669
12   0.331124
13   0.326016

>  <lowdin_charges>
13
1   -0.200654
2   -0.125296
3   0.183877
4   -0.449549
5   -0.097793
6   -0.276597
7   -0.196308
8   0.144847
9   0.161978
10   0.151985
11   0.164113
12   0.27155
13   0.267848

$$$$

