PCCDB-ID:  10629
public computational chemistry database (PCCDB) project, http://pccdb.org

 16 17  0  0  0  0  0  0  0  0999 V2000
   -2.1230   -0.7608   -0.0005 C   0  0  0  0  0  0  0  0  0  0  0  0
   -2.1969    0.6447    0.0019 C   0  0  0  0  0  0  0  0  0  0  0  0
   -0.8939   -1.4059   -0.0014 C   0  0  0  0  0  0  0  0  0  0  0  0
   -1.0435    1.4219    0.0038 C   0  0  0  0  0  0  0  0  0  0  0  0
    2.5562   -0.0662    0.0028 C   0  0  0  0  0  0  0  0  0  0  0  0
    0.2817   -0.6371    0.0009 C   0  0  0  0  0  0  0  0  0  0  0  0
    1.6542   -1.0848    0.0003 C   0  0  0  0  0  0  0  0  0  0  0  0
    0.1956    0.7731    0.0036 C   0  0  0  0  0  0  0  0  0  0  0  0
    1.9065   -2.4270   -0.0027 O   0  0  0  0  0  0  0  0  0  0  0  0
    1.7896    1.5163    0.0060 S   0  0  0  0  0  0  0  0  0  0  0  0
   -3.0389   -1.3451   -0.0014 H   0  0  0  0  0  0  0  0  0  0  0  0
   -3.1682    1.1316    0.0022 H   0  0  0  0  0  0  0  0  0  0  0  0
   -0.8271   -2.4895   -0.0043 H   0  0  0  0  0  0  0  0  0  0  0  0
   -1.1037    2.5065    0.0043 H   0  0  0  0  0  0  0  0  0  0  0  0
    3.6362   -0.1385    0.0022 H   0  0  0  0  0  0  0  0  0  0  0  0
    2.8656   -2.5693    0.0015 H   0  0  0  0  0  0  0  0  0  0  0  0
  1  2  1  0  0  0  0
  2 12  1  0  0  0  0
  2  4  2  0  0  0  0
  3  1  2  0  0  0  0
  3  6  1  0  0  0  0
  4 14  1  0  0  0  0
  5 10  1  0  0  0  0
  6  8  2  0  0  0  0
  7  6  1  0  0  0  0
  7  5  2  0  0  0  0
  8  4  1  0  0  0  0
  8 10  1  0  0  0  0
  9  7  1  0  0  0  0
  9 16  1  0  0  0  0
 11  1  1  0  0  0  0
 13  3  1  0  0  0  0
 15  5  1  0  0  0  0
M  END
>  <HBA>
2

>  <HBD>
1

>  <TPSA>
48.47

>  <cid>
10629

>  <dipole>
1.16

>  <excitation_energy_1>
4.353

>  <excitation_energy_2>
4.457

>  <excitation_energy_3>
4.594

>  <excitation_energy_4>
4.851

>  <homo_energy>
-5.497

>  <homo_lumo_gap>
4.953

>  <logP>
2.607

>  <lumo_energy>
-0.544

>  <melting_point>
87.85

>  <molecular_refractivity>
43.85

>  <oscillator_strength_1>
0.0793

>  <oscillator_strength_2>
0.0002

>  <oscillator_strength_3>
0.0158

>  <oscillator_strength_4>
0.0

>  <open_babel_can_smiles>
Oc1csc2c1cccc2

>  <mulliken_charges>
16
1   -0.144458
2   -0.11967
3   -0.164309
4   -0.169681
5   -0.421996
6   0.130333
7   0.329097
8   -0.150594
9   -0.635064
10   0.225891
11   0.131341
12   0.131595
13   0.147688
14   0.14039
15   0.157604
16   0.411833

>  <lowdin_charges>
16
1   -0.162713
2   -0.156226
3   -0.146989
4   -0.158471
5   -0.379198
6   -0.032441
7   0.07597
8   -0.130585
9   -0.37353
10   0.278208
11   0.159572
12   0.15975
13   0.167065
14   0.16241
15   0.17569
16   0.36149

$$$$

