PCCDB-ID:  66084
public computational chemistry database (PCCDB) project, http://pccdb.org

 22 21  0  0  0  0  0  0  0  0999 V2000
    2.0251    0.6157   -2.0181 C   0  0  0  0  0  0  0  0  0  0  0  0
    8.9557   -3.4375    0.6275 C   0  0  0  0  0  0  0  0  0  0  0  0
    2.8309    0.2911   -0.9963 C   0  0  0  0  0  0  0  0  0  0  0  0
    7.4411   -3.6547    0.5516 C   0  0  0  0  0  0  0  0  0  0  0  0
    3.5577   -0.9654   -0.8824 C   0  0  0  0  0  0  0  0  0  0  0  0
    6.6550   -2.3520    0.3568 C   0  0  0  0  0  0  0  0  0  0  0  0
    4.3603   -1.2859    0.1463 C   0  0  0  0  0  0  0  0  0  0  0  0
    5.1300   -2.5676    0.2849 C   0  0  0  0  0  0  0  0  0  0  0  0
    1.5045    1.5678   -2.0560 H   0  0  0  0  0  0  0  0  0  0  0  0
    1.8606   -0.0634   -2.8520 H   0  0  0  0  0  0  0  0  0  0  0  0
    9.4895   -4.3848    0.7649 H   0  0  0  0  0  0  0  0  0  0  0  0
    9.2205   -2.7812    1.4657 H   0  0  0  0  0  0  0  0  0  0  0  0
    9.3355   -2.9710   -0.2898 H   0  0  0  0  0  0  0  0  0  0  0  0
    2.9678    1.0021   -0.1806 H   0  0  0  0  0  0  0  0  0  0  0  0
    7.0949   -4.1523    1.4687 H   0  0  0  0  0  0  0  0  0  0  0  0
    7.2104   -4.3437   -0.2733 H   0  0  0  0  0  0  0  0  0  0  0  0
    3.4259   -1.6792   -1.6975 H   0  0  0  0  0  0  0  0  0  0  0  0
    6.9901   -1.8516   -0.5622 H   0  0  0  0  0  0  0  0  0  0  0  0
    6.8849   -1.6612    1.1813 H   0  0  0  0  0  0  0  0  0  0  0  0
    4.4857   -0.5623    0.9551 H   0  0  0  0  0  0  0  0  0  0  0  0
    4.8106   -3.0885    1.2017 H   0  0  0  0  0  0  0  0  0  0  0  0
    4.8916   -3.2371   -0.5523 H   0  0  0  0  0  0  0  0  0  0  0  0
  1  3  2  0  0  0  0
  2 11  1  0  0  0  0
  2 12  1  0  0  0  0
  3  5  1  0  0  0  0
  3 14  1  0  0  0  0
  4  2  1  0  0  0  0
  4 15  1  0  0  0  0
  5  7  2  0  0  0  0
  6  4  1  0  0  0  0
  6 19  1  0  0  0  0
  7  8  1  0  0  0  0
  7 20  1  0  0  0  0
  8  6  1  0  0  0  0
  8 21  1  0  0  0  0
  9  1  1  0  0  0  0
 10  1  1  0  0  0  0
 13  2  1  0  0  0  0
 16  4  1  0  0  0  0
 17  5  1  0  0  0  0
 18  6  1  0  0  0  0
 22  8  1  0  0  0  0
M  END
>  <HBA>
0

>  <HBD>
0

>  <TPSA>
0.0

>  <cid>
66084

>  <dipole>
0.63

>  <excitation_energy_1>
5.462

>  <excitation_energy_2>
5.754

>  <excitation_energy_3>
5.877

>  <excitation_energy_4>
6.011

>  <homo_energy>
-5.902

>  <homo_lumo_gap>
5.478

>  <logP>
2.919

>  <lumo_energy>
-0.425

>  <melting_point>
-38.7

>  <molecular_refractivity>
39.62

>  <oscillator_strength_1>
0.8636

>  <oscillator_strength_2>
0.0069

>  <oscillator_strength_3>
0.0012

>  <oscillator_strength_4>
0.0135

>  <open_babel_can_smiles>
CCCC/C=C/C=C

>  <mulliken_charges>
22
1   -0.359529
2   -0.441742
3   -0.058165
4   -0.247132
5   -0.108714
6   -0.246851
7   -0.106583
8   -0.305814
9   0.140556
10   0.137405
11   0.142692
12   0.141924
13   0.143044
14   0.122622
15   0.130848
16   0.131787
17   0.117061
18   0.137475
19   0.129295
20   0.120795
21   0.141306
22   0.13772

>  <lowdin_charges>
22
1   -0.341091
2   -0.445356
3   -0.141543
4   -0.273463
5   -0.166831
6   -0.274238
7   -0.154154
8   -0.271866
9   0.159722
10   0.155968
11   0.149846
12   0.14727
13   0.147581
14   0.152585
15   0.139384
16   0.140248
17   0.150375
18   0.143141
19   0.139365
20   0.148259
21   0.148566
22   0.146233

$$$$

