PCCDB-ID:  33403
public computational chemistry database (PCCDB) project, http://pccdb.org

 25 25  0  0  1  0  0  0  0  0999 V2000
    3.8229    0.3404    0.7630 C   0  0  0  0  0  0  0  0  0  0  0  0
    2.1063   -5.0294   -0.9581 C   0  0  0  0  0  0  0  0  0  0  0  0
    4.8430   -1.4960   -5.5073 C   0  0  0  0  0  0  0  0  0  0  0  0
    2.5781   -0.0224   -0.0680 C   0  0  0  0  0  0  0  0  0  0  0  0
    2.8905   -0.9937   -1.1797 C   0  0  2  0  0  0  0  0  0  0  0  0
    2.9489   -3.1312   -2.0697 C   0  0  0  0  0  0  0  0  0  0  0  0
    3.8908   -1.2483   -3.3863 C   0  0  0  0  0  0  0  0  0  0  0  0
    2.7483   -4.3903   -2.0911 N   0  0  0  0  0  0  0  0  0  0  0  0
    4.4557   -0.6719   -4.3759 N   0  0  0  0  0  0  0  0  0  0  0  0
    2.6111   -2.2501   -1.0395 N   0  0  0  0  0  0  0  0  0  0  0  0
    3.5049   -0.4695   -2.2866 N   0  0  0  0  0  0  0  0  0  0  0  0
    3.5790   -2.5764   -3.2103 N   0  0  0  0  0  0  0  0  0  0  0  0
    3.5511    1.0270    1.5712 H   0  0  0  0  0  0  0  0  0  0  0  0
    4.5925    0.8266    0.1530 H   0  0  0  0  0  0  0  0  0  0  0  0
    4.2618   -0.5572    1.2099 H   0  0  0  0  0  0  0  0  0  0  0  0
    1.2044   -5.5505   -1.3052 H   0  0  0  0  0  0  0  0  0  0  0  0
    1.8293   -4.3403   -0.1520 H   0  0  0  0  0  0  0  0  0  0  0  0
    2.7770   -5.7986   -0.5530 H   0  0  0  0  0  0  0  0  0  0  0  0
    5.2785   -0.8571   -6.2805 H   0  0  0  0  0  0  0  0  0  0  0  0
    3.9897   -2.0263   -5.9627 H   0  0  0  0  0  0  0  0  0  0  0  0
    5.6002   -2.2524   -5.2417 H   0  0  0  0  0  0  0  0  0  0  0  0
    2.1326    0.8880   -0.4909 H   0  0  0  0  0  0  0  0  0  0  0  0
    1.8272   -0.4966    0.5680 H   0  0  0  0  0  0  0  0  0  0  0  0
    3.6996    0.5189   -2.3744 H   0  0  0  0  0  0  0  0  0  0  0  0
    3.8132   -3.2417   -3.9342 H   0  0  0  0  0  0  0  0  0  0  0  0
  1 15  1  0  0  0  0
  1 13  1  0  0  0  0
  2 18  1  0  0  0  0
  2 17  1  0  0  0  0
  3 21  1  0  0  0  0
  3  9  1  0  0  0  0
  4 23  1  0  0  0  0
  4  1  1  0  0  0  0
  5 10  1  0  0  0  0
  5  4  1  1  0  0  0
  6 10  2  0  0  0  0
  7 12  1  0  0  0  0
  7 11  1  0  0  0  0
  8  6  1  0  0  0  0
  8  2  1  0  0  0  0
  9  7  2  0  0  0  0
 11  5  1  0  0  0  0
 12  6  1  0  0  0  0
 14  1  1  0  0  0  0
 16  2  1  0  0  0  0
 19  3  1  0  0  0  0
 20  3  1  0  0  0  0
 22  4  1  0  0  0  0
 24 11  1  0  0  0  0
 25 12  1  0  0  0  0
M  RAD  2   5   2   8   2
M  END
>  <HBA>
5

>  <HBD>
2

>  <TPSA>
62.73

>  <cid>
33403

>  <dipole>
2.64

>  <excitation_energy_1>
4.7

>  <excitation_energy_2>
4.818

>  <excitation_energy_3>
4.853

>  <excitation_energy_4>
5.456

>  <homo_energy>
-6.0

>  <homo_lumo_gap>
5.35

>  <logP>
0.663

>  <lumo_energy>
-0.65

>  <melting_point>
124.12

>  <molecular_refractivity>
48.21

>  <oscillator_strength_1>
0.0438

>  <oscillator_strength_2>
0.0049

>  <oscillator_strength_3>
0.1103

>  <oscillator_strength_4>
0.0004

>  <open_babel_can_smiles>
CC[C]1N/C(=N/C)/NC(=N1)[N]C

>  <mulliken_charges>
25
1   -0.448457
2   -0.320056
3   -0.340958
4   -0.339861
5   0.525763
6   0.652366
7   0.752454
8   -0.49473
9   -0.493486
10   -0.52041
11   -0.676049
12   -0.711196
13   0.16109
14   0.150006
15   0.172433
16   0.146555
17   0.159111
18   0.146186
19   0.164412
20   0.140406
21   0.142341
22   0.151681
23   0.184691
24   0.34784
25   0.347867

>  <lowdin_charges>
25
1   -0.441441
2   -0.360819
3   -0.365162
4   -0.281391
5   0.123322
6   0.114281
7   0.131955
8   -0.236361
9   -0.274807
10   -0.227817
11   -0.223166
12   -0.254234
13   0.160275
14   0.151482
15   0.163319
16   0.14854
17   0.147819
18   0.149134
19   0.159528
20   0.138396
21   0.139403
22   0.154857
23   0.176553
24   0.302274
25   0.304061

$$$$

