PCCDB-ID:  66024
public computational chemistry database (PCCDB) project, http://pccdb.org

 26 26  0  0  0  0  0  0  0  0999 V2000
    3.4868   -1.4426    0.0201 C   0  0  0  0  0  0  0  0  0  0  0  0
    1.3219   -0.2343   -0.4431 C   0  0  0  0  0  0  0  0  0  0  0  0
    4.9683    4.2742    4.0747 C   0  0  0  0  0  0  0  0  0  0  0  0
    4.1966    3.1293    4.2874 C   0  0  0  0  0  0  0  0  0  0  0  0
    5.5610    4.4828    2.8290 C   0  0  0  0  0  0  0  0  0  0  0  0
    4.0233    2.1974    3.2640 C   0  0  0  0  0  0  0  0  0  0  0  0
    5.3821    3.5506    1.8047 C   0  0  0  0  0  0  0  0  0  0  0  0
    4.4587    1.3696    0.9052 C   0  0  0  0  0  0  0  0  0  0  0  0
    2.8358   -0.0840   -0.2675 C   0  0  0  0  0  0  0  0  0  0  0  0
    4.6178    2.3965    2.0098 C   0  0  0  0  0  0  0  0  0  0  0  0
    3.0893    0.8576    0.8329 N   0  0  0  0  0  0  0  0  0  0  0  0
    3.2793   -2.1461   -0.7943 H   0  0  0  0  0  0  0  0  0  0  0  0
    3.0908   -1.8597    0.9529 H   0  0  0  0  0  0  0  0  0  0  0  0
    4.5749   -1.3666    0.1174 H   0  0  0  0  0  0  0  0  0  0  0  0
    1.0906   -0.9329   -1.2542 H   0  0  0  0  0  0  0  0  0  0  0  0
    0.8522    0.7273   -0.6871 H   0  0  0  0  0  0  0  0  0  0  0  0
    0.8666   -0.6104    0.4800 H   0  0  0  0  0  0  0  0  0  0  0  0
    5.1035    4.9996    4.8729 H   0  0  0  0  0  0  0  0  0  0  0  0
    3.7300    2.9606    5.2549 H   0  0  0  0  0  0  0  0  0  0  0  0
    6.1576    5.3737    2.6501 H   0  0  0  0  0  0  0  0  0  0  0  0
    3.4173    1.3101    3.4206 H   0  0  0  0  0  0  0  0  0  0  0  0
    5.8406    3.7220    0.8330 H   0  0  0  0  0  0  0  0  0  0  0  0
    5.1273    0.5220    1.1060 H   0  0  0  0  0  0  0  0  0  0  0  0
    4.8029    1.8082   -0.0519 H   0  0  0  0  0  0  0  0  0  0  0  0
    3.2549    0.2996   -1.2196 H   0  0  0  0  0  0  0  0  0  0  0  0
    2.4629    1.6554    0.7308 H   0  0  0  0  0  0  0  0  0  0  0  0
  1 14  1  0  0  0  0
  1 13  1  0  0  0  0
  2  9  1  0  0  0  0
  2 17  1  0  0  0  0
  3  4  1  0  0  0  0
  3 18  1  0  0  0  0
  4 19  1  0  0  0  0
  5  3  2  0  0  0  0
  6 21  1  0  0  0  0
  6  4  2  0  0  0  0
  7 10  2  0  0  0  0
  7  5  1  0  0  0  0
  8 23  1  0  0  0  0
  8 10  1  0  0  0  0
  9  1  1  0  0  0  0
  9 11  1  0  0  0  0
 10  6  1  0  0  0  0
 11  8  1  0  0  0  0
 12  1  1  0  0  0  0
 15  2  1  0  0  0  0
 16  2  1  0  0  0  0
 20  5  1  0  0  0  0
 22  7  1  0  0  0  0
 24  8  1  0  0  0  0
 25  9  1  0  0  0  0
 26 11  1  0  0  0  0
M  END
>  <HBA>
1

>  <HBD>
1

>  <TPSA>
12.03

>  <cid>
66024

>  <dipole>
0.93

>  <excitation_energy_1>
5.118

>  <excitation_energy_2>
5.174

>  <excitation_energy_3>
5.397

>  <excitation_energy_4>
5.609

>  <homo_energy>
-5.976

>  <homo_lumo_gap>
6.09

>  <logP>
2.575

>  <lumo_energy>
0.114

>  <melting_point>
32.34

>  <molecular_refractivity>
48.63

>  <oscillator_strength_1>
0.0013

>  <oscillator_strength_2>
0.0039

>  <oscillator_strength_3>
0.0054

>  <oscillator_strength_4>
0.0166

>  <open_babel_can_smiles>
CC(NCc1ccccc1)C

>  <mulliken_charges>
26
1   -0.438771
2   -0.457537
3   -0.129431
4   -0.131459
5   -0.128797
6   -0.165378
7   -0.185906
8   -0.186538
9   0.072643
10   0.12552
11   -0.560177
12   0.138553
13   0.15156
14   0.144361
15   0.145197
16   0.136808
17   0.155492
18   0.125999
19   0.127115
20   0.126237
21   0.143748
22   0.120618
23   0.158696
24   0.11575
25   0.101803
26   0.293893

>  <lowdin_charges>
26
1   -0.448665
2   -0.449085
3   -0.162377
4   -0.15569
5   -0.157
6   -0.160552
7   -0.168955
8   -0.200093
9   -0.054012
10   -0.014208
11   -0.363702
12   0.150371
13   0.153659
14   0.147005
15   0.153722
16   0.145642
17   0.154896
18   0.156665
19   0.155709
20   0.156088
21   0.165889
22   0.152622
23   0.152958
24   0.121635
25   0.113358
26   0.254122

$$$$

