PCCDB-ID:  15195
public computational chemistry database (PCCDB) project, http://pccdb.org

 16 15  0  0  0  0  0  0  0  0999 V2000
    1.2761   -1.1413   -0.0933 C   0  0  0  0  0  0  0  0  0  0  0  0
    5.5014    4.6628    0.0919 C   0  0  0  0  0  0  0  0  0  0  0  0
    2.4244   -0.5567    0.2798 C   0  0  0  0  0  0  0  0  0  0  0  0
    2.7696    0.8269    0.0027 C   0  0  0  0  0  0  0  0  0  0  0  0
    3.9288    1.3744    0.3905 C   0  0  0  0  0  0  0  0  0  0  0  0
    5.3966    3.2189    0.5097 C   0  0  0  0  0  0  0  0  0  0  0  0
    6.2265    2.5881    1.1185 O   0  0  0  0  0  0  0  0  0  0  0  0
    4.1966    2.6964    0.0957 O   0  0  0  0  0  0  0  0  0  0  0  0
    1.0644   -2.1803    0.1385 H   0  0  0  0  0  0  0  0  0  0  0  0
    0.5111   -0.5971   -0.6423 H   0  0  0  0  0  0  0  0  0  0  0  0
    6.4583    5.0667    0.4232 H   0  0  0  0  0  0  0  0  0  0  0  0
    4.6804    5.2413    0.5283 H   0  0  0  0  0  0  0  0  0  0  0  0
    5.4166    4.7469   -0.9966 H   0  0  0  0  0  0  0  0  0  0  0  0
    3.1640   -1.1399    0.8289 H   0  0  0  0  0  0  0  0  0  0  0  0
    2.0532    1.4375   -0.5436 H   0  0  0  0  0  0  0  0  0  0  0  0
    4.7116    0.8615    0.9377 H   0  0  0  0  0  0  0  0  0  0  0  0
  1  9  1  0  0  0  0
  1  3  2  0  0  0  0
  2 11  1  0  0  0  0
  2  6  1  0  0  0  0
  2 12  1  0  0  0  0
  3 14  1  0  0  0  0
  4  3  1  0  0  0  0
  4  5  2  0  0  0  0
  5 16  1  0  0  0  0
  6  7  2  0  0  0  0
  8  5  1  0  0  0  0
  8  6  1  0  0  0  0
 10  1  1  0  0  0  0
 13  2  1  0  0  0  0
 15  4  1  0  0  0  0
M  END
>  <HBA>
2

>  <HBD>
0

>  <TPSA>
26.3

>  <cid>
15195

>  <dipole>
1.7

>  <excitation_energy_1>
4.947

>  <excitation_energy_2>
5.547

>  <excitation_energy_3>
5.725

>  <excitation_energy_4>
5.833

>  <homo_energy>
-5.965

>  <homo_lumo_gap>
5.143

>  <logP>
1.249

>  <lumo_energy>
-0.822

>  <melting_point>
-24.93

>  <molecular_refractivity>
31.29

>  <oscillator_strength_1>
0.6792

>  <oscillator_strength_2>
0.0008

>  <oscillator_strength_3>
0.0014

>  <oscillator_strength_4>
0.2149

>  <open_babel_can_smiles>
CC(=O)O/C=C/C=C

>  <mulliken_charges>
16
1   -0.359578
2   -0.529821
3   -0.054683
4   -0.164361
5   0.100896
6   0.609294
7   -0.450102
8   -0.453298
9   0.144374
10   0.140091
11   0.187477
12   0.188154
13   0.188069
14   0.129538
15   0.140499
16   0.18345

>  <lowdin_charges>
16
1   -0.33883
2   -0.462547
3   -0.139138
4   -0.179293
5   -0.050297
6   0.21102
7   -0.245792
8   -0.15387
9   0.161082
10   0.158101
11   0.178759
12   0.182406
13   0.179674
14   0.156856
15   0.16594
16   0.175928

$$$$

