PCCDB-ID:  9287
public computational chemistry database (PCCDB) project, http://pccdb.org

 27 28  0  0  1  0  0  0  0  0999 V2000
    0.8381   -0.7473   -0.2305 C   0  0  0  0  0  0  0  0  0  0  0  0
    1.7893    1.9487    4.9699 C   0  0  0  0  0  0  0  0  0  0  0  0
    1.2728    1.1425    6.0050 C   0  0  0  0  0  0  0  0  0  0  0  0
    2.1953    1.3926    3.7633 C   0  0  0  0  0  0  0  0  0  0  0  0
    1.1558   -0.2345    5.8546 C   0  0  0  0  0  0  0  0  0  0  0  0
    2.9789   -0.5116    1.1502 C   0  0  0  0  0  0  0  0  0  0  0  0
    2.0882   -2.1525    2.9234 C   0  0  0  0  0  0  0  0  0  0  0  0
    1.9828    0.1811    0.1770 C   0  0  1  0  0  0  0  0  0  0  0  0
    2.4148   -0.8915    2.4896 C   0  0  0  0  0  0  0  0  0  0  0  0
    2.0880    0.0028    3.5770 C   0  0  0  0  0  0  0  0  0  0  0  0
    1.5678   -0.7892    4.6383 C   0  0  0  0  0  0  0  0  0  0  0  0
    2.6263    0.7001   -1.0393 N   0  0  0  0  0  0  0  0  0  0  0  0
    1.5781   -2.0999    4.2087 N   0  0  0  0  0  0  0  0  0  0  0  0
    0.2993   -1.1178    0.6466 H   0  0  0  0  0  0  0  0  0  0  0  0
    1.2239   -1.6180   -0.7800 H   0  0  0  0  0  0  0  0  0  0  0  0
    0.1369   -0.2206   -0.8845 H   0  0  0  0  0  0  0  0  0  0  0  0
    1.8693    3.0217    5.1216 H   0  0  0  0  0  0  0  0  0  0  0  0
    0.9609    1.6051    6.9375 H   0  0  0  0  0  0  0  0  0  0  0  0
    2.5927    2.0256    2.9739 H   0  0  0  0  0  0  0  0  0  0  0  0
    0.7588   -0.8557    6.6536 H   0  0  0  0  0  0  0  0  0  0  0  0
    3.8324    0.1679    1.2943 H   0  0  0  0  0  0  0  0  0  0  0  0
    3.3809   -1.4053    0.6507 H   0  0  0  0  0  0  0  0  0  0  0  0
    2.1845   -3.1009    2.4118 H   0  0  0  0  0  0  0  0  0  0  0  0
    1.5528    1.0483    0.6963 H   0  0  0  0  0  0  0  0  0  0  0  0
    3.0530   -0.0754   -1.5490 H   0  0  0  0  0  0  0  0  0  0  0  0
    3.3963    1.3188   -0.7833 H   0  0  0  0  0  0  0  0  0  0  0  0
    1.2779   -2.8954    4.7495 H   0  0  0  0  0  0  0  0  0  0  0  0
  1  8  1  0  0  0  0
  1 14  1  0  0  0  0
  2 17  1  0  0  0  0
  2  3  2  0  0  0  0
  3 18  1  0  0  0  0
  4  2  1  0  0  0  0
  5  3  1  0  0  0  0
  5 20  1  0  0  0  0
  6 21  1  0  0  0  0
  6  9  1  0  0  0  0
  7 13  1  0  0  0  0
  8 24  1  1  0  0  0
  8  6  1  0  0  0  0
  9  7  2  0  0  0  0
  9 10  1  0  0  0  0
 10  4  2  0  0  0  0
 10 11  1  0  0  0  0
 11  5  2  0  0  0  0
 12 26  1  0  0  0  0
 12  8  1  0  0  0  0
 13 11  1  0  0  0  0
 13 27  1  0  0  0  0
 15  1  1  0  0  0  0
 16  1  1  0  0  0  0
 19  4  1  0  0  0  0
 22  6  1  0  0  0  0
 23  7  1  0  0  0  0
 25 12  1  0  0  0  0
M  END
>  <HBA>
1

>  <HBD>
2

>  <TPSA>
41.81

>  <cid>
9287

>  <dipole>
2.89

>  <excitation_energy_1>
4.487

>  <excitation_energy_2>
4.673

>  <excitation_energy_3>
4.808

>  <excitation_energy_4>
4.977

>  <homo_energy>
-5.271

>  <homo_lumo_gap>
5.157

>  <logP>
2.758

>  <lumo_energy>
-0.114

>  <melting_point>
152.68

>  <molecular_refractivity>
55.59

>  <oscillator_strength_1>
0.0656

>  <oscillator_strength_2>
0.0005

>  <oscillator_strength_3>
0.0157

>  <oscillator_strength_4>
0.0262

>  <open_babel_can_smiles>
C[C@@H](Cc1c[nH]c2c1cccc2)N

>  <mulliken_charges>
27
1   -0.438476
2   -0.140269
3   -0.151308
4   -0.209401
5   -0.163005
6   -0.351922
7   -0.00688
8   0.028002
9   0.082795
10   0.076916
11   0.313353
12   -0.70274
13   -0.691125
14   0.152406
15   0.123416
16   0.158074
17   0.119717
18   0.121948
19   0.121742
20   0.119631
21   0.130221
22   0.123072
23   0.145135
24   0.139146
25   0.284727
26   0.289357
27   0.325467

>  <lowdin_charges>
27
1   -0.451686
2   -0.174733
3   -0.164348
4   -0.165949
5   -0.189834
6   -0.288519
7   -0.138254
8   -0.065909
9   -0.060992
10   -0.035717
11   0.033073
12   -0.550808
13   -0.20475
14   0.1568
15   0.139362
16   0.159837
17   0.152473
18   0.155445
19   0.155601
20   0.155735
21   0.144188
22   0.142722
23   0.162891
24   0.142634
25   0.24889
26   0.250355
27   0.291492

$$$$

