PCCDB-ID:  12685
public computational chemistry database (PCCDB) project, http://pccdb.org

 22 21  0  0  0  0  0  0  0  0999 V2000
    1.6822   -0.7741   -0.7499 C   0  0  0  0  0  0  0  0  0  0  0  0
    7.6259   -0.2381   -0.6366 C   0  0  0  0  0  0  0  0  0  0  0  0
    4.6829    0.1723    3.0387 C   0  0  0  0  0  0  0  0  0  0  0  0
    2.9376   -1.4377   -0.2151 C   0  0  0  0  0  0  0  0  0  0  0  0
    6.4680    0.1393    0.2707 C   0  0  0  0  0  0  0  0  0  0  0  0
    4.4103   -2.5181    2.2844 O   0  0  0  0  0  0  0  0  0  0  0  0
    3.5301   -0.5512    0.7679 O   0  0  0  0  0  0  0  0  0  0  0  0
    6.0552   -1.0445    0.9830 O   0  0  0  0  0  0  0  0  0  0  0  0
    4.6482   -1.1427    1.7901 P   0  0  0  0  0  0  0  0  0  0  0  0
    1.2191   -1.4095   -1.5132 H   0  0  0  0  0  0  0  0  0  0  0  0
    1.9153    0.1952   -1.2027 H   0  0  0  0  0  0  0  0  0  0  0  0
    0.9573   -0.6147    0.0546 H   0  0  0  0  0  0  0  0  0  0  0  0
    7.9774    0.6434   -1.1846 H   0  0  0  0  0  0  0  0  0  0  0  0
    7.3165   -0.9986   -1.3603 H   0  0  0  0  0  0  0  0  0  0  0  0
    8.4586   -0.6395   -0.0510 H   0  0  0  0  0  0  0  0  0  0  0  0
    3.7390    0.1636    3.5896 H   0  0  0  0  0  0  0  0  0  0  0  0
    4.8185    1.1584    2.5856 H   0  0  0  0  0  0  0  0  0  0  0  0
    5.5019   -0.0229    3.7365 H   0  0  0  0  0  0  0  0  0  0  0  0
    3.6672   -1.6112   -1.0156 H   0  0  0  0  0  0  0  0  0  0  0  0
    2.7175   -2.3974    0.2617 H   0  0  0  0  0  0  0  0  0  0  0  0
    5.6242    0.5357   -0.3056 H   0  0  0  0  0  0  0  0  0  0  0  0
    6.7777    0.9051    0.9944 H   0  0  0  0  0  0  0  0  0  0  0  0
  1  4  1  0  0  0  0
  1 12  1  0  0  0  0
  2 15  1  0  0  0  0
  2  5  1  0  0  0  0
  3 16  1  0  0  0  0
  3 18  1  0  0  0  0
  4 20  1  0  0  0  0
  4  7  1  0  0  0  0
  5  8  1  0  0  0  0
  5 22  1  0  0  0  0
  7  9  1  0  0  0  0
  8  9  1  0  0  0  0
  9  6  2  0  0  0  0
  9  3  1  0  0  0  0
 10  1  1  0  0  0  0
 11  1  1  0  0  0  0
 13  2  1  0  0  0  0
 14  2  1  0  0  0  0
 17  3  1  0  0  0  0
 19  4  1  0  0  0  0
 21  5  1  0  0  0  0
M  END
>  <HBA>
3

>  <HBD>
0

>  <TPSA>
45.34

>  <cid>
12685

>  <dipole>
4.27

>  <excitation_energy_1>
6.963

>  <excitation_energy_2>
7.03

>  <excitation_energy_3>
7.438

>  <excitation_energy_4>
7.498

>  <homo_energy>
-7.505

>  <homo_lumo_gap>
9.295

>  <logP>
1.882

>  <lumo_energy>
1.791

>  <melting_point>
-28.37

>  <molecular_refractivity>
36.98

>  <oscillator_strength_1>
0.0349

>  <oscillator_strength_2>
0.0139

>  <oscillator_strength_3>
0.0038

>  <oscillator_strength_4>
0.0019

>  <open_babel_can_smiles>
CCOP(=O)(OCC)C

>  <mulliken_charges>
22
1   -0.453511
2   -0.451059
3   -0.672856
4   -0.038519
5   -0.046671
6   -0.545806
7   -0.562996
8   -0.52815
9   1.147149
10   0.151105
11   0.1565
12   0.164469
13   0.14703
14   0.164804
15   0.168104
16   0.200475
17   0.18147
18   0.195941
19   0.147077
20   0.180312
21   0.154038
22   0.141093

>  <lowdin_charges>
22
1   -0.449011
2   -0.448938
3   -0.63009
4   -0.119517
5   -0.123165
6   -0.58734
7   -0.417559
8   -0.406321
9   1.061513
10   0.159856
11   0.155796
12   0.160878
13   0.157162
14   0.161413
15   0.163237
16   0.193319
17   0.180965
18   0.190841
19   0.144465
20   0.163632
21   0.148435
22   0.140428

$$$$

