PCCDB-ID:  10442
public computational chemistry database (PCCDB) project, http://pccdb.org

 13 12  0  0  0  0  0  0  0  0999 V2000
    1.0224    0.0962   -0.1065 C   0  0  0  0  0  0  0  0  0  0  0  0
    0.5301    1.5472   -0.0350 C   0  0  0  0  0  0  0  0  0  0  0  0
    2.5480   -0.0211   -0.1008 C   0  0  0  0  0  0  0  0  0  0  0  0
    0.8661    2.2997   -1.1892 O   0  0  0  0  0  0  0  0  0  0  0  0
    3.1714    0.6939   -1.1803 O   0  0  0  0  0  0  0  0  0  0  0  0
    0.6171   -0.3724   -1.0150 H   0  0  0  0  0  0  0  0  0  0  0  0
    0.6278   -0.4724    0.7477 H   0  0  0  0  0  0  0  0  0  0  0  0
    0.9269    2.0192    0.8821 H   0  0  0  0  0  0  0  0  0  0  0  0
   -0.5626    1.5682    0.0406 H   0  0  0  0  0  0  0  0  0  0  0  0
    2.8586   -1.0763   -0.1134 H   0  0  0  0  0  0  0  0  0  0  0  0
    2.9600    0.4315    0.8076 H   0  0  0  0  0  0  0  0  0  0  0  0
    1.8264    2.1822   -1.3070 H   0  0  0  0  0  0  0  0  0  0  0  0
    2.8862    0.2751   -2.0087 H   0  0  0  0  0  0  0  0  0  0  0  0
  1  3  1  0  0  0  0
  1  2  1  0  0  0  0
  1  7  1  0  0  0  0
  2  9  1  0  0  0  0
  2  8  1  0  0  0  0
  3 11  1  0  0  0  0
  4  2  1  0  0  0  0
  5  3  1  0  0  0  0
  6  1  1  0  0  0  0
 10  3  1  0  0  0  0
 12  4  1  0  0  0  0
 13  5  1  0  0  0  0
M  END
>  <HBA>
2

>  <HBD>
2

>  <TPSA>
40.46

>  <cid>
10442

>  <dipole>
2.62

>  <excitation_energy_1>
6.332

>  <excitation_energy_2>
6.741

>  <excitation_energy_3>
6.869

>  <excitation_energy_4>
7.169

>  <homo_energy>
-6.836

>  <homo_lumo_gap>
8.463

>  <logP>
-0.639

>  <lumo_energy>
1.627

>  <melting_point>
12.67

>  <molecular_refractivity>
18.86

>  <oscillator_strength_1>
0.0069

>  <oscillator_strength_2>
0.0077

>  <oscillator_strength_3>
0.0193

>  <oscillator_strength_4>
0.0088

>  <open_babel_can_smiles>
OCCCO

>  <mulliken_charges>
13
1   -0.303429
2   -0.014684
3   -0.047214
4   -0.639761
5   -0.616623
6   0.138915
7   0.135404
8   0.11367
9   0.141409
10   0.13565
11   0.155397
12   0.403216
13   0.39805

>  <lowdin_charges>
13
1   -0.316283
2   -0.128845
3   -0.137102
4   -0.484454
5   -0.464171
6   0.144762
7   0.153722
8   0.121852
9   0.14288
10   0.134253
11   0.150377
12   0.335886
13   0.347124

$$$$

