PCCDB-ID:  70715
public computational chemistry database (PCCDB) project, http://pccdb.org

 11 11  0  0  0  0  0  0  0  0999 V2000
   -1.1958   -0.7009   -0.0980 C   0  0  0  0  0  0  0  0  0  0  0  0
   -0.0028   -1.3426   -0.0262 C   0  0  0  0  0  0  0  0  0  0  0  0
    0.0010    1.4061   -0.0428 C   0  0  0  0  0  0  0  0  0  0  0  0
    0.0937    2.6802   -0.0478 N   0  0  0  0  0  0  0  0  0  0  0  0
   -1.1979    0.6592   -0.1062 N   0  0  0  0  0  0  0  0  0  0  0  0
    1.1869   -0.6306    0.0393 N   0  0  0  0  0  0  0  0  0  0  0  0
    1.2064    0.6447    0.0328 N   0  0  0  0  0  0  0  0  0  0  0  0
   -2.1578   -1.2007   -0.1491 H   0  0  0  0  0  0  0  0  0  0  0  0
    0.0867   -2.4206   -0.0151 H   0  0  0  0  0  0  0  0  0  0  0  0
   -0.8265    3.1253   -0.1060 H   0  0  0  0  0  0  0  0  0  0  0  0
   -2.0738    1.1644   -0.1597 H   0  0  0  0  0  0  0  0  0  0  0  0
  1  2  2  0  0  0  0
  2  9  1  0  0  0  0
  2  6  1  0  0  0  0
  3  7  2  0  0  0  0
  4  3  1  0  0  0  0
  5  1  1  0  0  0  0
  5  3  1  0  0  0  0
  7  6  1  0  0  0  0
  8  1  1  0  0  0  0
 10  4  1  0  0  0  0
 11  5  1  0  0  0  0
M  RAD  2   4   2   6   2
M  END
>  <HBA>
4

>  <HBD>
1

>  <TPSA>
64.69

>  <cid>
70715

>  <dipole>
7.02

>  <excitation_energy_1>
2.671

>  <excitation_energy_2>
3.38

>  <excitation_energy_3>
4.421

>  <excitation_energy_4>
4.766

>  <homo_energy>
-6.207

>  <homo_lumo_gap>
4.046

>  <logP>
0.035

>  <lumo_energy>
-2.161

>  <melting_point>
98.99

>  <molecular_refractivity>
24.23

>  <oscillator_strength_1>
0.0027

>  <oscillator_strength_2>
0.0454

>  <oscillator_strength_3>
0.0008

>  <oscillator_strength_4>
0.0027

>  <open_babel_can_smiles>
[NH]c1n[n]cc[nH]1

>  <mulliken_charges>
11
1   0.122412
2   -0.038918
3   0.589377
4   -0.58356
5   -0.617506
6   -0.191045
7   -0.235082
8   0.182375
9   0.165295
10   0.265735
11   0.340917

>  <lowdin_charges>
11
1   -0.058874
2   -0.189606
3   0.090003
4   -0.401325
5   -0.207262
6   -0.049023
7   -0.080916
8   0.179656
9   0.175468
10   0.245313
11   0.296567

$$$$

