PCCDB-ID:  25600
public computational chemistry database (PCCDB) project, http://pccdb.org

 24 25  0  0  0  0  0  0  0  0999 V2000
   -2.2530    0.6766    0.0321 C   0  0  0  0  0  0  0  0  0  0  0  0
   -1.1199    1.4813    0.0016 C   0  0  0  0  0  0  0  0  0  0  0  0
    2.1186   -2.3910    0.0387 C   0  0  0  0  0  0  0  0  0  0  0  0
    2.0496   -3.0124    1.4449 C   0  0  0  0  0  0  0  0  0  0  0  0
   -0.8808   -1.3329    0.0445 C   0  0  0  0  0  0  0  0  0  0  0  0
    2.5080    0.1130   -0.0463 C   0  0  0  0  0  0  0  0  0  0  0  0
    1.6643   -0.9547   -0.0047 C   0  0  0  0  0  0  0  0  0  0  0  0
   -2.1323   -0.7265    0.0518 C   0  0  0  0  0  0  0  0  0  0  0  0
    0.2750   -0.5346    0.0174 C   0  0  0  0  0  0  0  0  0  0  0  0
    0.1378    0.8756   -0.0065 C   0  0  0  0  0  0  0  0  0  0  0  0
    2.5299   -4.3983    1.4038 N   0  0  0  0  0  0  0  0  0  0  0  0
   -3.2304   -1.5469    0.0787 O   0  0  0  0  0  0  0  0  0  0  0  0
    1.7069    1.6687   -0.0563 S   0  0  0  0  0  0  0  0  0  0  0  0
   -3.2411    1.1329    0.0393 H   0  0  0  0  0  0  0  0  0  0  0  0
   -1.2204    2.5626   -0.0167 H   0  0  0  0  0  0  0  0  0  0  0  0
    1.5034   -2.9920   -0.6473 H   0  0  0  0  0  0  0  0  0  0  0  0
    3.1502   -2.4742   -0.3192 H   0  0  0  0  0  0  0  0  0  0  0  0
    1.0273   -2.8982    1.8463 H   0  0  0  0  0  0  0  0  0  0  0  0
    2.7111   -2.4464    2.1115 H   0  0  0  0  0  0  0  0  0  0  0  0
   -0.8219   -2.4165    0.0587 H   0  0  0  0  0  0  0  0  0  0  0  0
    3.5901    0.0809   -0.0763 H   0  0  0  0  0  0  0  0  0  0  0  0
    1.8640   -4.9749    0.8896 H   0  0  0  0  0  0  0  0  0  0  0  0
    2.5570   -4.7803    2.3479 H   0  0  0  0  0  0  0  0  0  0  0  0
   -4.0309   -1.0003    0.0790 H   0  0  0  0  0  0  0  0  0  0  0  0
  1 14  1  0  0  0  0
  1  8  2  0  0  0  0
  2  1  1  0  0  0  0
  3  4  1  0  0  0  0
  4 18  1  0  0  0  0
  4 19  1  0  0  0  0
  5  8  1  0  0  0  0
  5 20  1  0  0  0  0
  6  7  2  0  0  0  0
  7  9  1  0  0  0  0
  7  3  1  0  0  0  0
  8 12  1  0  0  0  0
  9  5  2  0  0  0  0
 10  2  2  0  0  0  0
 10  9  1  0  0  0  0
 11  4  1  0  0  0  0
 11 23  1  0  0  0  0
 12 24  1  0  0  0  0
 13  6  1  0  0  0  0
 13 10  1  0  0  0  0
 15  2  1  0  0  0  0
 16  3  1  0  0  0  0
 17  3  1  0  0  0  0
 21  6  1  0  0  0  0
 22 11  1  0  0  0  0
M  END
>  <HBA>
3

>  <HBD>
2

>  <TPSA>
74.49

>  <cid>
25600

>  <dipole>
2.12

>  <excitation_energy_1>
4.264

>  <excitation_energy_2>
4.673

>  <excitation_energy_3>
4.819

>  <excitation_energy_4>
4.995

>  <homo_energy>
-5.562

>  <homo_lumo_gap>
4.92

>  <logP>
2.808

>  <lumo_energy>
-0.642

>  <melting_point>
146.28

>  <molecular_refractivity>
56.33

>  <oscillator_strength_1>
0.067

>  <oscillator_strength_2>
0.0336

>  <oscillator_strength_3>
0.0005

>  <oscillator_strength_4>
0.0008

>  <open_babel_can_smiles>
NCCc1csc2c1cc(O)cc2

>  <mulliken_charges>
24
1   -0.186275
2   -0.171018
3   -0.33165
4   -0.136405
5   -0.226576
6   -0.413013
7   0.15793
8   0.3493
9   0.121528
10   -0.154423
11   -0.715534
12   -0.648364
13   0.2191
14   0.119529
15   0.142396
16   0.140838
17   0.158245
18   0.126504
19   0.145786
20   0.135119
21   0.169896
22   0.292471
23   0.297766
24   0.406849

>  <lowdin_charges>
24
1   -0.212417
2   -0.14658
3   -0.273478
4   -0.204374
5   -0.195546
6   -0.309473
7   -0.029416
8   0.099288
9   -0.01156
10   -0.15304
11   -0.56017
12   -0.38362
13   0.275547
14   0.154514
15   0.163725
16   0.148992
17   0.159463
18   0.122242
19   0.146998
20   0.164989
21   0.178315
22   0.25266
23   0.255301
24   0.35764

$$$$

