PCCDB-ID:  45056
public computational chemistry database (PCCDB) project, http://pccdb.org

 31 31  0  0  1  0  0  0  0  0999 V2000
    4.4356   -2.3235   -2.7208 C   0  0  0  0  0  0  0  0  0  0  0  0
    3.9873    0.0971   -2.2472 C   0  0  0  0  0  0  0  0  0  0  0  0
    4.1073   -5.8508    0.6209 C   0  0  0  0  0  0  0  0  0  0  0  0
    2.4919   -4.0947   -0.2691 C   0  0  0  0  0  0  0  0  0  0  0  0
    2.0687   -2.6191   -0.2140 C   0  0  0  0  0  0  0  0  0  0  0  0
    4.8325   -3.4284    0.3960 C   0  0  0  0  0  0  0  0  0  0  0  0
    3.4961   -1.3434   -1.9977 C   0  0  0  0  0  0  0  0  0  0  0  0
    3.6628   -4.3855    0.6853 C   0  0  2  0  0  0  0  0  0  0  0  0
    3.2092   -1.6011   -0.4810 C   0  0  2  0  0  0  0  0  0  0  0  0
    4.4070   -1.9572    0.4420 C   0  0  2  0  0  0  0  0  0  0  0  0
    5.5801   -1.1794    0.1882 O   0  0  0  0  0  0  0  0  0  0  0  0
    4.4808   -2.0700   -3.7874 H   0  0  0  0  0  0  0  0  0  0  0  0
    4.1018   -3.3628   -2.6490 H   0  0  0  0  0  0  0  0  0  0  0  0
    5.4517   -2.2573   -2.3205 H   0  0  0  0  0  0  0  0  0  0  0  0
    4.0258    0.3115   -3.3222 H   0  0  0  0  0  0  0  0  0  0  0  0
    4.9946    0.2467   -1.8468 H   0  0  0  0  0  0  0  0  0  0  0  0
    3.3187    0.8361   -1.7877 H   0  0  0  0  0  0  0  0  0  0  0  0
    4.9192   -6.0529    1.3298 H   0  0  0  0  0  0  0  0  0  0  0  0
    4.4713   -6.1069   -0.3824 H   0  0  0  0  0  0  0  0  0  0  0  0
    3.2791   -6.5298    0.8576 H   0  0  0  0  0  0  0  0  0  0  0  0
    2.7773   -4.3771   -1.2915 H   0  0  0  0  0  0  0  0  0  0  0  0
    1.6340   -4.7288   -0.0067 H   0  0  0  0  0  0  0  0  0  0  0  0
    1.6643   -2.4232    0.7903 H   0  0  0  0  0  0  0  0  0  0  0  0
    1.2434   -2.4314   -0.9127 H   0  0  0  0  0  0  0  0  0  0  0  0
    5.2657   -3.6618   -0.5828 H   0  0  0  0  0  0  0  0  0  0  0  0
    5.6338   -3.5713    1.1318 H   0  0  0  0  0  0  0  0  0  0  0  0
    2.5126   -1.4193   -2.4862 H   0  0  0  0  0  0  0  0  0  0  0  0
    3.3082   -4.1831    1.7092 H   0  0  0  0  0  0  0  0  0  0  0  0
    2.8242   -0.6362   -0.1132 H   0  0  0  0  0  0  0  0  0  0  0  0
    4.0628   -1.7623    1.4737 H   0  0  0  0  0  0  0  0  0  0  0  0
    5.3502   -0.2483    0.3319 H   0  0  0  0  0  0  0  0  0  0  0  0
  1 13  1  0  0  0  0
  1 14  1  0  0  0  0
  1  7  1  0  0  0  0
  2  7  1  0  0  0  0
  2 16  1  0  0  0  0
  2 17  1  0  0  0  0
  3  8  1  0  0  0  0
  3 20  1  0  0  0  0
  3 18  1  0  0  0  0
  4  5  1  0  0  0  0
  4 22  1  0  0  0  0
  4  8  1  0  0  0  0
  5 23  1  0  0  0  0
  6 10  1  0  0  0  0
  6  8  1  0  0  0  0
  6 26  1  0  0  0  0
  7  9  1  0  0  0  0
  8 28  1  1  0  0  0
  9  5  1  0  0  0  0
  9 29  1  1  0  0  0
  9 10  1  0  0  0  0
 10 30  1  1  0  0  0
 11 31  1  0  0  0  0
 11 10  1  0  0  0  0
 12  1  1  0  0  0  0
 15  2  1  0  0  0  0
 19  3  1  0  0  0  0
 21  4  1  0  0  0  0
 24  5  1  0  0  0  0
 25  6  1  0  0  0  0
 27  7  1  0  0  0  0
M  END
>  <HBA>
1

>  <HBD>
1

>  <TPSA>
20.23

>  <cid>
45056

>  <dipole>
1.46

>  <excitation_energy_1>
6.066

>  <excitation_energy_2>
6.687

>  <excitation_energy_3>
6.824

>  <excitation_energy_4>
6.976

>  <homo_energy>
-6.863

>  <homo_lumo_gap>
8.623

>  <logP>
2.439

>  <lumo_energy>
1.761

>  <melting_point>
11.98

>  <molecular_refractivity>
49.23

>  <oscillator_strength_1>
0.0043

>  <oscillator_strength_2>
0.0157

>  <oscillator_strength_3>
0.0082

>  <oscillator_strength_4>
0.0136

>  <open_babel_can_smiles>
C[C@@H]1CC[C@@H]([C@@H](C1)O)C(C)C

>  <mulliken_charges>
31
1   -0.461684
2   -0.460918
3   -0.44545
4   -0.258393
5   -0.283453
6   -0.266964
7   -0.053399
8   -0.079471
9   -0.111078
10   0.134453
11   -0.630725
12   0.133755
13   0.142103
14   0.169464
15   0.139116
16   0.147567
17   0.131632
18   0.141378
19   0.139597
20   0.138843
21   0.135019
22   0.127509
23   0.126531
24   0.131353
25   0.14353
26   0.138477
27   0.117841
28   0.115143
29   0.106228
30   0.103743
31   0.388252

>  <lowdin_charges>
31
1   -0.449312
2   -0.451311
3   -0.443616
4   -0.28099
5   -0.279005
6   -0.286547
7   -0.117678
8   -0.123492
9   -0.150433
10   -0.005326
11   -0.461884
12   0.14446
13   0.143363
14   0.157118
15   0.145691
16   0.148139
17   0.142399
18   0.149569
19   0.145437
20   0.14818
21   0.138733
22   0.143311
23   0.138173
24   0.144274
25   0.15049
26   0.150149
27   0.135178
28   0.130682
29   0.134688
30   0.120189
31   0.339372

$$$$

