PCCDB-ID:  12190
public computational chemistry database (PCCDB) project, http://pccdb.org

 20 19  0  0  0  0  0  0  0  0999 V2000
    2.6275    0.1018    4.4319 C   0  0  0  0  0  0  0  0  0  0  0  0
    2.8132    1.9207   -1.8137 C   0  0  0  0  0  0  0  0  0  0  0  0
    3.2200    0.6897    2.2163 C   0  0  0  0  0  0  0  0  0  0  0  0
    4.2186    1.2798   -0.0373 C   0  0  0  0  0  0  0  0  0  0  0  0
    4.2791    0.3536    1.1713 C   0  0  0  0  0  0  0  0  0  0  0  0
    5.5785    0.4938    1.7282 O   0  0  0  0  0  0  0  0  0  0  0  0
    3.4728   -0.1570    3.3302 O   0  0  0  0  0  0  0  0  0  0  0  0
    2.9611    1.1149   -0.6645 O   0  0  0  0  0  0  0  0  0  0  0  0
    2.9109   -0.5924    5.2274 H   0  0  0  0  0  0  0  0  0  0  0  0
    1.5693   -0.0606    4.1751 H   0  0  0  0  0  0  0  0  0  0  0  0
    2.7421    1.1345    4.7979 H   0  0  0  0  0  0  0  0  0  0  0  0
    3.5711    1.6828   -2.5772 H   0  0  0  0  0  0  0  0  0  0  0  0
    2.8906    2.9933   -1.5728 H   0  0  0  0  0  0  0  0  0  0  0  0
    1.8201    1.7193   -2.2241 H   0  0  0  0  0  0  0  0  0  0  0  0
    2.2096    0.5279    1.8149 H   0  0  0  0  0  0  0  0  0  0  0  0
    3.3129    1.7477    2.5154 H   0  0  0  0  0  0  0  0  0  0  0  0
    5.0426    1.0279   -0.7239 H   0  0  0  0  0  0  0  0  0  0  0  0
    4.3656    2.3237    0.2878 H   0  0  0  0  0  0  0  0  0  0  0  0
    4.1100   -0.6808    0.8310 H   0  0  0  0  0  0  0  0  0  0  0  0
    5.5231    0.0856    2.6090 H   0  0  0  0  0  0  0  0  0  0  0  0
  1 11  1  0  0  0  0
  1  9  1  0  0  0  0
  2 13  1  0  0  0  0
  2  8  1  0  0  0  0
  3 16  1  0  0  0  0
  3  7  1  0  0  0  0
  4 18  1  0  0  0  0
  4  5  1  0  0  0  0
  5  6  1  0  0  0  0
  5  3  1  0  0  0  0
  6 20  1  0  0  0  0
  7  1  1  0  0  0  0
  8  4  1  0  0  0  0
 10  1  1  0  0  0  0
 12  2  1  0  0  0  0
 14  2  1  0  0  0  0
 15  3  1  0  0  0  0
 17  4  1  0  0  0  0
 19  5  1  0  0  0  0
M  END
>  <HBA>
3

>  <HBD>
1

>  <TPSA>
38.69

>  <cid>
12190

>  <dipole>
1.81

>  <excitation_energy_1>
6.622

>  <excitation_energy_2>
6.739

>  <excitation_energy_3>
6.899

>  <excitation_energy_4>
7.029

>  <homo_energy>
-6.925

>  <homo_lumo_gap>
9.004

>  <logP>
-0.36

>  <lumo_energy>
2.079

>  <melting_point>
-25.18

>  <molecular_refractivity>
29.48

>  <oscillator_strength_1>
0.016

>  <oscillator_strength_2>
0.0152

>  <oscillator_strength_3>
0.0078

>  <oscillator_strength_4>
0.0221

>  <open_babel_can_smiles>
COCC(COC)O

>  <mulliken_charges>
20
1   -0.191221
2   -0.189552
3   -0.030219
4   -0.023695
5   0.114651
6   -0.648934
7   -0.484944
8   -0.469662
9   0.159836
10   0.136814
11   0.13483
12   0.133535
13   0.131299
14   0.15824
15   0.145206
16   0.120696
17   0.137987
18   0.125478
19   0.132683
20   0.406973

>  <lowdin_charges>
20
1   -0.275925
2   -0.275755
3   -0.147802
4   -0.133851
5   -0.011406
6   -0.466801
7   -0.280151
8   -0.273607
9   0.156798
10   0.134188
11   0.133422
12   0.134381
13   0.130369
14   0.154634
15   0.143338
16   0.127921
17   0.139517
18   0.128865
19   0.134464
20   0.347402

$$$$

