PCCDB-ID:  31494
public computational chemistry database (PCCDB) project, http://pccdb.org

 30 31  0  0  0  0  0  0  0  0999 V2000
    3.1808    1.4470    0.2944 C   0  0  0  0  0  0  0  0  0  0  0  0
    2.8678   -5.2830   -8.6988 C   0  0  0  0  0  0  0  0  0  0  0  0
    3.9887   -5.7834   -8.0280 C   0  0  0  0  0  0  0  0  0  0  0  0
    2.3862   -4.0069   -8.4012 C   0  0  0  0  0  0  0  0  0  0  0  0
    4.6215   -5.0090   -7.0620 C   0  0  0  0  0  0  0  0  0  0  0  0
    3.0196   -3.2255   -7.4361 C   0  0  0  0  0  0  0  0  0  0  0  0
    3.8512    0.2125   -3.6914 C   0  0  0  0  0  0  0  0  0  0  0  0
    4.3221   -2.0066   -2.8524 C   0  0  0  0  0  0  0  0  0  0  0  0
    3.6186    0.6684   -2.4000 C   0  0  0  0  0  0  0  0  0  0  0  0
    4.0892   -1.5646   -1.5606 C   0  0  0  0  0  0  0  0  0  0  0  0
    4.1445   -3.7222   -6.7572 C   0  0  0  0  0  0  0  0  0  0  0  0
    4.2063   -1.1222   -3.9442 C   0  0  0  0  0  0  0  0  0  0  0  0
    3.7371   -0.2250   -1.3226 C   0  0  0  0  0  0  0  0  0  0  0  0
    4.8443   -2.9649   -5.6819 C   0  0  0  0  0  0  0  0  0  0  0  0
    4.3965   -1.5262   -5.3546 C   0  0  0  0  0  0  0  0  0  0  0  0
    5.8090   -3.4199   -5.0810 O   0  0  0  0  0  0  0  0  0  0  0  0
    4.2684   -0.7453   -6.2922 O   0  0  0  0  0  0  0  0  0  0  0  0
    3.5312    0.1054   -0.0228 O   0  0  0  0  0  0  0  0  0  0  0  0
    3.0742    1.4765    1.3798 H   0  0  0  0  0  0  0  0  0  0  0  0
    2.2304    1.7337   -0.1727 H   0  0  0  0  0  0  0  0  0  0  0  0
    3.9652    2.1493   -0.0141 H   0  0  0  0  0  0  0  0  0  0  0  0
    2.3712   -5.8879   -9.4531 H   0  0  0  0  0  0  0  0  0  0  0  0
    4.3639   -6.7765   -8.2594 H   0  0  0  0  0  0  0  0  0  0  0  0
    1.5179   -3.6167   -8.9248 H   0  0  0  0  0  0  0  0  0  0  0  0
    5.4898   -5.3779   -6.5255 H   0  0  0  0  0  0  0  0  0  0  0  0
    2.6538   -2.2285   -7.2226 H   0  0  0  0  0  0  0  0  0  0  0  0
    3.7602    0.8884   -4.5358 H   0  0  0  0  0  0  0  0  0  0  0  0
    4.6116   -3.0375   -3.0167 H   0  0  0  0  0  0  0  0  0  0  0  0
    3.3480    1.7054   -2.2384 H   0  0  0  0  0  0  0  0  0  0  0  0
    4.1779   -2.2336   -0.7108 H   0  0  0  0  0  0  0  0  0  0  0  0
  1 19  1  0  0  0  0
  2  4  2  0  0  0  0
  2  3  1  0  0  0  0
  3  5  2  0  0  0  0
  4  6  1  0  0  0  0
  5 11  1  0  0  0  0
  5 25  1  0  0  0  0
  6 26  1  0  0  0  0
  6 11  2  0  0  0  0
  7  9  1  0  0  0  0
  8 10  2  0  0  0  0
  9 29  1  0  0  0  0
  9 13  2  0  0  0  0
 10 13  1  0  0  0  0
 10 30  1  0  0  0  0
 11 14  1  0  0  0  0
 12  7  2  0  0  0  0
 12  8  1  0  0  0  0
 13 18  1  0  0  0  0
 14 15  1  0  0  0  0
 14 16  2  0  0  0  0
 15 12  1  0  0  0  0
 17 15  2  0  0  0  0
 18  1  1  0  0  0  0
 20  1  1  0  0  0  0
 21  1  1  0  0  0  0
 22  2  1  0  0  0  0
 23  3  1  0  0  0  0
 24  4  1  0  0  0  0
 27  7  1  0  0  0  0
 28  8  1  0  0  0  0
M  END
>  <HBA>
3

>  <HBD>
0

>  <TPSA>
43.37

>  <cid>
31494

>  <dipole>
3.39

>  <excitation_energy_1>
2.811

>  <excitation_energy_2>
3.659

>  <excitation_energy_3>
3.831

>  <excitation_energy_4>
4.153

>  <homo_energy>
-6.226

>  <homo_lumo_gap>
4.112

>  <logP>
2.761

>  <lumo_energy>
-2.114

>  <melting_point>
106.44

>  <molecular_refractivity>
68.04

>  <oscillator_strength_1>
0.0005

>  <oscillator_strength_2>
0.1534

>  <oscillator_strength_3>
0.023

>  <oscillator_strength_4>
0.0089

>  <open_babel_can_smiles>
COc1ccc(cc1)C(=O)C(=O)c1ccccc1

>  <mulliken_charges>
30
1   -0.220868
2   -0.115235
3   -0.134205
4   -0.139505
5   -0.154325
6   -0.162278
7   -0.164845
8   -0.166495
9   -0.197722
10   -0.183411
11   0.076916
12   0.076433
13   0.391268
14   0.338349
15   0.333724
16   -0.462984
17   -0.47406
18   -0.498113
19   0.176907
20   0.158866
21   0.160282
22   0.138774
23   0.138809
24   0.138927
25   0.163033
26   0.164088
27   0.165297
28   0.164388
29   0.140324
30   0.147662

>  <lowdin_charges>
30
1   -0.27601
2   -0.135673
3   -0.155317
4   -0.158008
5   -0.126762
6   -0.133682
7   -0.11406
8   -0.124272
9   -0.211029
10   -0.18462
11   -0.046981
12   -0.067199
13   0.120336
14   0.139439
15   0.138713
16   -0.230866
17   -0.244149
18   -0.18526
19   0.164821
20   0.149474
21   0.151392
22   0.163123
23   0.161333
24   0.162677
25   0.176253
26   0.175557
27   0.177869
28   0.175895
29   0.164968
30   0.172037

$$$$

