PCCDB-ID:  61337
public computational chemistry database (PCCDB) project, http://pccdb.org

 19 19  0  0  0  0  0  0  0  0999 V2000
    4.9977    0.2225    1.4655 C   0  0  0  0  0  0  0  0  0  0  0  0
    4.6440   -0.4034    0.3436 C   0  0  0  0  0  0  0  0  0  0  0  0
    3.5090    3.1331   -5.0485 C   0  0  0  0  0  0  0  0  0  0  0  0
    4.3937    3.1748   -3.9321 C   0  0  0  0  0  0  0  0  0  0  0  0
    5.5274   -0.5079   -0.8650 C   0  0  0  0  0  0  0  0  0  0  0  0
    3.0416    1.8505   -5.1081 C   0  0  0  0  0  0  0  0  0  0  0  0
    4.3991    1.9144   -3.3959 C   0  0  0  0  0  0  0  0  0  0  0  0
    5.1312    1.3938   -2.2374 C   0  0  0  0  0  0  0  0  0  0  0  0
    5.8762    2.0833   -1.5677 O   0  0  0  0  0  0  0  0  0  0  0  0
    3.5689    1.0954   -4.1145 O   0  0  0  0  0  0  0  0  0  0  0  0
    4.8862    0.0809   -2.0269 O   0  0  0  0  0  0  0  0  0  0  0  0
    4.3394    0.2626    2.3293 H   0  0  0  0  0  0  0  0  0  0  0  0
    5.9589    0.7221    1.5597 H   0  0  0  0  0  0  0  0  0  0  0  0
    3.6687   -0.8821    0.2618 H   0  0  0  0  0  0  0  0  0  0  0  0
    3.2520    3.9436   -5.7159 H   0  0  0  0  0  0  0  0  0  0  0  0
    4.9599    4.0154   -3.5581 H   0  0  0  0  0  0  0  0  0  0  0  0
    5.6858   -1.5513   -1.1543 H   0  0  0  0  0  0  0  0  0  0  0  0
    6.4903   -0.0213   -0.6975 H   0  0  0  0  0  0  0  0  0  0  0  0
    2.3569    1.3408   -5.7694 H   0  0  0  0  0  0  0  0  0  0  0  0
  1 13  1  0  0  0  0
  1 12  1  0  0  0  0
  2  1  2  0  0  0  0
  3  4  1  0  0  0  0
  4 16  1  0  0  0  0
  4  7  2  0  0  0  0
  5 18  1  0  0  0  0
  5  2  1  0  0  0  0
  6  3  2  0  0  0  0
  6 10  1  0  0  0  0
  7  8  1  0  0  0  0
  8 11  1  0  0  0  0
  8  9  2  0  0  0  0
 10  7  1  0  0  0  0
 11  5  1  0  0  0  0
 14  2  1  0  0  0  0
 15  3  1  0  0  0  0
 17  5  1  0  0  0  0
 19  6  1  0  0  0  0
M  END
>  <HBA>
3

>  <HBD>
0

>  <TPSA>
39.44

>  <cid>
61337

>  <dipole>
1.65

>  <excitation_energy_1>
4.967

>  <excitation_energy_2>
5.108

>  <excitation_energy_3>
5.542

>  <excitation_energy_4>
5.864

>  <homo_energy>
-6.514

>  <homo_lumo_gap>
5.472

>  <logP>
1.622

>  <lumo_energy>
-1.042

>  <melting_point>
6.56

>  <molecular_refractivity>
39.13

>  <oscillator_strength_1>
0.0026

>  <oscillator_strength_2>
0.4249

>  <oscillator_strength_3>
0.0036

>  <oscillator_strength_4>
0.0007

>  <open_babel_can_smiles>
C=CCOC(=O)c1ccco1

>  <mulliken_charges>
19
1   -0.318498
2   -0.064172
3   -0.188967
4   -0.160974
5   -0.096003
6   0.100493
7   0.278134
8   0.578676
9   -0.494901
10   -0.428738
11   -0.471922
12   0.14723
13   0.155986
14   0.140758
15   0.151353
16   0.16875
17   0.160417
18   0.177542
19   0.164836

>  <lowdin_charges>
19
1   -0.310721
2   -0.162653
3   -0.204408
4   -0.162487
5   -0.125899
6   -0.061057
7   0.024227
8   0.192069
9   -0.272929
10   -0.072209
11   -0.188343
12   0.162973
13   0.164421
14   0.156928
15   0.174917
16   0.185923
17   0.157752
18   0.164594
19   0.176902

$$$$

