PCCDB-ID:  7834
public computational chemistry database (PCCDB) project, http://pccdb.org

 13 13  0  0  1  0  0  0  0  0999 V2000
    0.9544    0.1669   -0.0397 C   0  0  0  0  0  0  0  0  0  0  0  0
    2.3987   -0.2461    0.2691 C   0  0  0  0  0  0  0  0  0  0  0  0
    4.2992   -1.3133   -1.1766 C   0  0  0  0  0  0  0  0  0  0  0  0
    2.9127   -1.2942   -0.6902 C   0  0  2  0  0  0  0  0  0  0  0  0
    3.2369   -0.8418   -2.0154 O   0  0  0  0  0  0  0  0  0  0  0  0
    0.6024    0.9294    0.6634 H   0  0  0  0  0  0  0  0  0  0  0  0
    0.2726   -0.6897    0.0273 H   0  0  0  0  0  0  0  0  0  0  0  0
    0.8809    0.5756   -1.0529 H   0  0  0  0  0  0  0  0  0  0  0  0
    2.4674   -0.6415    1.2925 H   0  0  0  0  0  0  0  0  0  0  0  0
    3.0571    0.6301    0.2205 H   0  0  0  0  0  0  0  0  0  0  0  0
    4.7578   -2.2538   -1.4846 H   0  0  0  0  0  0  0  0  0  0  0  0
    4.9987   -0.5487   -0.8358 H   0  0  0  0  0  0  0  0  0  0  0  0
    2.3697   -2.2437   -0.6785 H   0  0  0  0  0  0  0  0  0  0  0  0
  1  7  1  0  0  0  0
  1  2  1  0  0  0  0
  1  6  1  0  0  0  0
  2  9  1  0  0  0  0
  3 12  1  0  0  0  0
  3  4  1  0  0  0  0
  4 13  1  1  0  0  0
  4  2  1  0  0  0  0
  5  3  1  0  0  0  0
  5  4  1  0  0  0  0
  8  1  1  0  0  0  0
 10  2  1  0  0  0  0
 11  3  1  0  0  0  0
M  END
>  <HBA>
1

>  <HBD>
0

>  <TPSA>
12.53

>  <cid>
7834

>  <dipole>
1.9

>  <excitation_energy_1>
6.898

>  <excitation_energy_2>
7.137

>  <excitation_energy_3>
7.266

>  <excitation_energy_4>
7.34

>  <homo_energy>
-7.119

>  <homo_lumo_gap>
9.791

>  <logP>
0.795

>  <lumo_energy>
2.672

>  <melting_point>
-11.61

>  <molecular_refractivity>
20.31

>  <oscillator_strength_1>
0.025

>  <oscillator_strength_2>
0.0077

>  <oscillator_strength_3>
0.003

>  <oscillator_strength_4>
0.0226

>  <open_babel_can_smiles>
CC[C@@H]1CO1

>  <mulliken_charges>
13
1   -0.447476
2   -0.271869
3   -0.113129
4   0.109931
5   -0.444012
6   0.145647
7   0.143027
8   0.166346
9   0.137534
10   0.143296
11   0.147238
12   0.146344
13   0.137122

>  <lowdin_charges>
13
1   -0.444947
2   -0.276824
3   -0.170215
4   -0.019896
5   -0.293629
6   0.152649
7   0.148099
8   0.158104
9   0.14721
10   0.151277
11   0.151967
12   0.151785
13   0.144421

$$$$

