PCCDB-ID:  8127
public computational chemistry database (PCCDB) project, http://pccdb.org

 25 24  0  0  0  0  0  0  0  0999 V2000
    2.1538    1.0467   -2.4047 C   0  0  0  0  0  0  0  0  0  0  0  0
    3.3742    1.3367   -1.5250 C   0  0  0  0  0  0  0  0  0  0  0  0
    3.0566    1.3261   -0.0234 C   0  0  0  0  0  0  0  0  0  0  0  0
    4.2778    1.6391    0.8526 C   0  0  0  0  0  0  0  0  0  0  0  0
    4.0656    1.5298    2.3734 C   0  0  0  0  0  0  0  0  0  0  0  0
    3.0627    2.5334    2.9823 C   0  0  0  0  0  0  0  0  0  0  0  0
    1.6225    2.0179    3.1202 C   0  0  0  0  0  0  0  0  0  0  0  0
    1.5663    0.8700    4.0347 N   0  0  0  0  0  0  0  0  0  0  0  0
    2.4145    1.0576   -3.4693 H   0  0  0  0  0  0  0  0  0  0  0  0
    1.3654    1.7933   -2.2476 H   0  0  0  0  0  0  0  0  0  0  0  0
    1.7260    0.0625   -2.1768 H   0  0  0  0  0  0  0  0  0  0  0  0
    3.7982    2.3139   -1.7978 H   0  0  0  0  0  0  0  0  0  0  0  0
    4.1603    0.5968   -1.7328 H   0  0  0  0  0  0  0  0  0  0  0  0
    2.6505    0.3422    0.2550 H   0  0  0  0  0  0  0  0  0  0  0  0
    2.2572    2.0545    0.1724 H   0  0  0  0  0  0  0  0  0  0  0  0
    4.6400    2.6503    0.6114 H   0  0  0  0  0  0  0  0  0  0  0  0
    5.0912    0.9545    0.5706 H   0  0  0  0  0  0  0  0  0  0  0  0
    5.0434    1.6751    2.8514 H   0  0  0  0  0  0  0  0  0  0  0  0
    3.7460    0.5145    2.6393 H   0  0  0  0  0  0  0  0  0  0  0  0
    3.0505    3.4618    2.3935 H   0  0  0  0  0  0  0  0  0  0  0  0
    3.4051    2.8252    3.9862 H   0  0  0  0  0  0  0  0  0  0  0  0
    1.2485    1.6779    2.1480 H   0  0  0  0  0  0  0  0  0  0  0  0
    0.9759    2.8609    3.4273 H   0  0  0  0  0  0  0  0  0  0  0  0
    1.7830    1.1787    4.9823 H   0  0  0  0  0  0  0  0  0  0  0  0
    0.6184    0.4987    4.0684 H   0  0  0  0  0  0  0  0  0  0  0  0
  1 10  1  0  0  0  0
  1 11  1  0  0  0  0
  1  2  1  0  0  0  0
  2  3  1  0  0  0  0
  3 15  1  0  0  0  0
  3 14  1  0  0  0  0
  3  4  1  0  0  0  0
  4  5  1  0  0  0  0
  5 19  1  0  0  0  0
  5 18  1  0  0  0  0
  5  6  1  0  0  0  0
  6  7  1  0  0  0  0
  6 21  1  0  0  0  0
  7 23  1  0  0  0  0
  7  8  1  0  0  0  0
  8 25  1  0  0  0  0
  8 24  1  0  0  0  0
  9  1  1  0  0  0  0
 12  2  1  0  0  0  0
 13  2  1  0  0  0  0
 16  4  1  0  0  0  0
 17  4  1  0  0  0  0
 20  6  1  0  0  0  0
 22  7  1  0  0  0  0
M  END
>  <HBA>
1

>  <HBD>
1

>  <TPSA>
26.02

>  <cid>
8127

>  <dipole>
1.36

>  <excitation_energy_1>
5.583

>  <excitation_energy_2>
6.286

>  <excitation_energy_3>
6.351

>  <excitation_energy_4>
6.603

>  <homo_energy>
-6.215

>  <homo_lumo_gap>
8.43

>  <logP>
2.616

>  <lumo_energy>
2.215

>  <melting_point>
27.02

>  <molecular_refractivity>
38.47

>  <oscillator_strength_1>
0.0081

>  <oscillator_strength_2>
0.0006

>  <oscillator_strength_3>
0.0365

>  <oscillator_strength_4>
0.0072

>  <open_babel_can_smiles>
CCCCCCCN

>  <mulliken_charges>
25
1   -0.441334
2   -0.246882
3   -0.246479
4   -0.25629
5   -0.258137
6   -0.253834
7   -0.142346
8   -0.711584
9   0.140268
10   0.139028
11   0.140884
12   0.128455
13   0.129745
14   0.130244
15   0.128404
16   0.121824
17   0.124967
18   0.121932
19   0.161415
20   0.12746
21   0.122458
22   0.144906
23   0.10932
24   0.290264
25   0.295312

>  <lowdin_charges>
25
1   -0.443255
2   -0.27296
3   -0.278921
4   -0.274681
5   -0.281199
6   -0.280781
7   -0.209451
8   -0.556508
9   0.14684
10   0.145565
11   0.145574
12   0.1377
13   0.139133
14   0.138522
15   0.136944
16   0.133194
17   0.139455
18   0.140327
19   0.154247
20   0.140717
21   0.137323
22   0.142635
23   0.117659
24   0.24892
25   0.253003

$$$$

