PCCDB-ID:  27790
public computational chemistry database (PCCDB) project, http://pccdb.org

 17 17  0  0  1  0  0  0  0  0999 V2000
    2.1505    0.5677    0.9116 C   0  0  0  0  0  0  0  0  0  0  0  0
    2.6359   -3.7547    0.7048 C   0  0  0  0  0  0  0  0  0  0  0  0
    3.3085   -3.9266    1.8416 C   0  0  0  0  0  0  0  0  0  0  0  0
    2.0921   -0.4088   -0.2440 C   0  0  0  0  0  0  0  0  0  0  0  0
    1.7257   -2.5492    0.8196 C   0  0  2  0  0  0  0  0  0  0  0  0
    2.9227   -2.8552    2.7921 C   0  0  0  0  0  0  0  0  0  0  0  0
    1.9234   -1.6640   -0.2737 N   0  0  0  0  0  0  0  0  0  0  0  0
    2.2461    0.1783   -1.4694 O   0  0  0  0  0  0  0  0  0  0  0  0
    3.2990   -2.6455    3.9167 O   0  0  0  0  0  0  0  0  0  0  0  0
    1.9891   -2.0562    2.1637 O   0  0  0  0  0  0  0  0  0  0  0  0
    1.9346    0.0888    1.8626 H   0  0  0  0  0  0  0  0  0  0  0  0
    1.4289    1.3771    0.7407 H   0  0  0  0  0  0  0  0  0  0  0  0
    3.1499    1.0185    0.9665 H   0  0  0  0  0  0  0  0  0  0  0  0
    2.6896   -4.3332   -0.2094 H   0  0  0  0  0  0  0  0  0  0  0  0
    4.0409   -4.6820    2.0943 H   0  0  0  0  0  0  0  0  0  0  0  0
    0.6712   -2.8627    0.8187 H   0  0  0  0  0  0  0  0  0  0  0  0
    2.3700    1.1326   -1.3499 H   0  0  0  0  0  0  0  0  0  0  0  0
  1 13  1  0  0  0  0
  1 11  1  0  0  0  0
  2  5  1  0  0  0  0
  2  3  2  0  0  0  0
  3 15  1  0  0  0  0
  3  6  1  0  0  0  0
  4  1  1  0  0  0  0
  5 16  1  6  0  0  0
  5 10  1  0  0  0  0
  6  9  2  0  0  0  0
  7  4  2  0  0  0  0
  7  5  1  0  0  0  0
  8 17  1  0  0  0  0
  8  4  1  0  0  0  0
 10  6  1  0  0  0  0
 12  1  1  0  0  0  0
 14  2  1  0  0  0  0
M  END
>  <HBA>
4

>  <HBD>
1

>  <TPSA>
55.4

>  <cid>
27790

>  <dipole>
2.61

>  <excitation_energy_1>
4.652

>  <excitation_energy_2>
4.976

>  <excitation_energy_3>
5.327

>  <excitation_energy_4>
5.977

>  <homo_energy>
-7.157

>  <homo_lumo_gap>
5.856

>  <logP>
-0.048

>  <lumo_energy>
-1.301

>  <melting_point>
66.82

>  <molecular_refractivity>
32.65

>  <oscillator_strength_1>
0.0008

>  <oscillator_strength_2>
0.0029

>  <oscillator_strength_3>
0.013

>  <oscillator_strength_4>
0.0091

>  <open_babel_can_smiles>
C/C(=N\[C@@H]1OC(=O)C=C1)/O

>  <mulliken_charges>
17
1   -0.564414
2   -0.105854
3   -0.175105
4   0.501501
5   0.19247
6   0.59692
7   -0.428562
8   -0.56879
9   -0.461869
10   -0.488185
11   0.230285
12   0.165899
13   0.178354
14   0.175683
15   0.166755
16   0.175655
17   0.409255

>  <lowdin_charges>
17
1   -0.489009
2   -0.119893
3   -0.193485
4   0.152487
5   0.061194
6   0.190204
7   -0.205091
8   -0.360811
9   -0.233013
10   -0.218146
11   0.196138
12   0.166088
13   0.17222
14   0.182047
15   0.183302
16   0.161227
17   0.354541

$$$$

