PCCDB-ID:  12873
public computational chemistry database (PCCDB) project, http://pccdb.org

 29 30  0  0  0  0  0  0  0  0999 V2000
    3.4188   -6.1637    2.9876 C   0  0  0  0  0  0  0  0  0  0  0  0
    0.9759   -4.3980    0.6377 C   0  0  0  0  0  0  0  0  0  0  0  0
    1.4875   -5.2094    1.6504 C   0  0  0  0  0  0  0  0  0  0  0  0
    1.8404   -3.6687   -0.1755 C   0  0  0  0  0  0  0  0  0  0  0  0
    8.3272   -1.6407   -2.1119 C   0  0  0  0  0  0  0  0  0  0  0  0
    6.4471   -0.7608   -3.3670 C   0  0  0  0  0  0  0  0  0  0  0  0
    7.4449   -2.3561   -1.3150 C   0  0  0  0  0  0  0  0  0  0  0  0
    5.5723   -1.4756   -2.5687 C   0  0  0  0  0  0  0  0  0  0  0  0
    3.7310   -4.5723    1.0494 C   0  0  0  0  0  0  0  0  0  0  0  0
    2.8727   -5.3041    1.8696 C   0  0  0  0  0  0  0  0  0  0  0  0
    7.8421   -0.8293   -3.1542 C   0  0  0  0  0  0  0  0  0  0  0  0
    6.0593   -2.2869   -1.5252 C   0  0  0  0  0  0  0  0  0  0  0  0
    3.2240   -3.7524    0.0274 C   0  0  0  0  0  0  0  0  0  0  0  0
    8.7153   -0.1513   -3.9940 N   0  0  0  0  0  0  0  0  0  0  0  0
    5.2628   -3.0521   -0.6532 N   0  0  0  0  0  0  0  0  0  0  0  0
    4.0169   -2.9757   -0.8552 N   0  0  0  0  0  0  0  0  0  0  0  0
    2.7600   -7.0128    3.1993 H   0  0  0  0  0  0  0  0  0  0  0  0
    3.5176   -5.5891    3.9184 H   0  0  0  0  0  0  0  0  0  0  0  0
    4.4110   -6.5563    2.7420 H   0  0  0  0  0  0  0  0  0  0  0  0
   -0.0979   -4.3389    0.4808 H   0  0  0  0  0  0  0  0  0  0  0  0
    0.8079   -5.7808    2.2789 H   0  0  0  0  0  0  0  0  0  0  0  0
    1.4725   -3.0317   -0.9740 H   0  0  0  0  0  0  0  0  0  0  0  0
    9.3988   -1.7089   -1.9392 H   0  0  0  0  0  0  0  0  0  0  0  0
    6.0636   -0.1412   -4.1750 H   0  0  0  0  0  0  0  0  0  0  0  0
    7.8094   -2.9838   -0.5073 H   0  0  0  0  0  0  0  0  0  0  0  0
    4.5012   -1.4228   -2.7293 H   0  0  0  0  0  0  0  0  0  0  0  0
    4.8068   -4.6239    1.1829 H   0  0  0  0  0  0  0  0  0  0  0  0
    9.6394    0.0296   -3.6245 H   0  0  0  0  0  0  0  0  0  0  0  0
    8.3318    0.6435   -4.4885 H   0  0  0  0  0  0  0  0  0  0  0  0
  1 17  1  0  0  0  0
  1 18  1  0  0  0  0
  2  3  2  0  0  0  0
  3 10  1  0  0  0  0
  3 21  1  0  0  0  0
  4 13  2  0  0  0  0
  4  2  1  0  0  0  0
  5 23  1  0  0  0  0
  5  7  2  0  0  0  0
  6 11  2  0  0  0  0
  6  8  1  0  0  0  0
  7 25  1  0  0  0  0
  8 12  2  0  0  0  0
  9 27  1  0  0  0  0
  9 10  2  0  0  0  0
 10  1  1  0  0  0  0
 11  5  1  0  0  0  0
 12  7  1  0  0  0  0
 12 15  1  0  0  0  0
 13  9  1  0  0  0  0
 14 28  1  0  0  0  0
 14 11  1  0  0  0  0
 16 15  1  0  0  0  0
 16 13  1  0  0  0  0
 19  1  1  0  0  0  0
 20  2  1  0  0  0  0
 22  4  1  0  0  0  0
 24  6  1  0  0  0  0
 26  8  1  0  0  0  0
 29 14  1  0  0  0  0
M  RAD  2  15   2  16   2
M  END
>  <HBA>
3

>  <HBD>
1

>  <TPSA>
50.74

>  <cid>
12873

>  <dipole>
2.89

>  <excitation_energy_1>
2.673

>  <excitation_energy_2>
3.294

>  <excitation_energy_3>
3.926

>  <excitation_energy_4>
4.22

>  <homo_energy>
-5.333

>  <homo_lumo_gap>
3.551

>  <logP>
4.574

>  <lumo_energy>
-1.782

>  <melting_point>
115.81

>  <molecular_refractivity>
66.43

>  <oscillator_strength_1>
0.0001

>  <oscillator_strength_2>
0.8715

>  <oscillator_strength_3>
0.0107

>  <oscillator_strength_4>
0.0003

>  <open_babel_can_smiles>
Nc1ccc(cc1)[N][N]c1cccc(c1)C

>  <mulliken_charges>
29
1   -0.526828
2   -0.136529
3   -0.169591
4   -0.14649
5   -0.185109
6   -0.188845
7   -0.145205
8   -0.129762
9   -0.18555
10   0.162598
11   0.335258
12   0.267164
13   0.276984
14   -0.789525
15   -0.314188
16   -0.326335
17   0.154335
18   0.165508
19   0.159665
20   0.129006
21   0.121369
22   0.133816
23   0.122014
24   0.123777
25   0.13924
26   0.155299
27   0.142965
28   0.32739
29   0.32757

>  <lowdin_charges>
29
1   -0.442442
2   -0.154969
3   -0.164395
4   -0.157045
5   -0.203309
6   -0.19478
7   -0.134145
8   -0.135044
9   -0.165073
10   0.003669
11   0.072105
12   -0.015431
13   0.014982
14   -0.472733
15   -0.082285
16   -0.099895
17   0.157267
18   0.161913
19   0.159062
20   0.15595
21   0.155871
22   0.164865
23   0.15337
24   0.155587
25   0.167548
26   0.172376
27   0.166148
28   0.279896
29   0.280939

$$$$

