PCCDB-ID:  69375
public computational chemistry database (PCCDB) project, http://pccdb.org

 20 20  0  0  0  0  0  0  0  0999 V2000
   -0.8385    1.3181    0.0757 C   0  0  0  0  0  0  0  0  0  0  0  0
   -1.5194    0.1026    0.0119 C   0  0  0  0  0  0  0  0  0  0  0  0
    0.5537    1.3466    0.0028 C   0  0  0  0  0  0  0  0  0  0  0  0
   -1.5449   -2.4276   -0.1844 C   0  0  0  0  0  0  0  0  0  0  0  0
    2.7958    0.1802   -0.2272 C   0  0  0  0  0  0  0  0  0  0  0  0
   -1.6950   -3.0473    1.1402 C   0  0  0  0  0  0  0  0  0  0  0  0
    3.2737    0.2850   -1.6135 C   0  0  0  0  0  0  0  0  0  0  0  0
    0.5855   -1.0571   -0.1974 C   0  0  0  0  0  0  0  0  0  0  0  0
   -0.8100   -1.0941   -0.1268 C   0  0  0  0  0  0  0  0  0  0  0  0
    1.2752    0.1566   -0.1331 C   0  0  0  0  0  0  0  0  0  0  0  0
   -1.8051   -3.5283    2.1908 N   0  0  0  0  0  0  0  0  0  0  0  0
    3.6387    0.3664   -2.7123 N   0  0  0  0  0  0  0  0  0  0  0  0
   -1.3943    2.2451    0.1825 H   0  0  0  0  0  0  0  0  0  0  0  0
   -2.6046    0.0841    0.0729 H   0  0  0  0  0  0  0  0  0  0  0  0
    1.0807    2.2963    0.0487 H   0  0  0  0  0  0  0  0  0  0  0  0
   -2.5437   -2.2959   -0.6168 H   0  0  0  0  0  0  0  0  0  0  0  0
   -1.0111   -3.1326   -0.8329 H   0  0  0  0  0  0  0  0  0  0  0  0
    3.2015    1.0261    0.3402 H   0  0  0  0  0  0  0  0  0  0  0  0
    3.2221   -0.7286    0.2141 H   0  0  0  0  0  0  0  0  0  0  0  0
    1.1421   -1.9859   -0.3035 H   0  0  0  0  0  0  0  0  0  0  0  0
  1 13  1  0  0  0  0
  2 14  1  0  0  0  0
  2  1  1  0  0  0  0
  3 15  1  0  0  0  0
  3  1  2  0  0  0  0
  4  9  1  0  0  0  0
  4  6  1  0  0  0  0
  5 10  1  0  0  0  0
  5 19  1  0  0  0  0
  5 18  1  0  0  0  0
  6 11  3  0  0  0  0
  7  5  1  0  0  0  0
  8 10  2  0  0  0  0
  8  9  1  0  0  0  0
  9  2  2  0  0  0  0
 10  3  1  0  0  0  0
 12  7  3  0  0  0  0
 16  4  1  0  0  0  0
 17  4  1  0  0  0  0
 20  8  1  0  0  0  0
M  END
>  <HBA>
2

>  <HBD>
0

>  <TPSA>
47.58

>  <cid>
69375

>  <dipole>
2.08

>  <excitation_energy_1>
5.224

>  <excitation_energy_2>
5.803

>  <excitation_energy_3>
6.317

>  <excitation_energy_4>
6.341

>  <homo_energy>
-7.402

>  <homo_lumo_gap>
6.455

>  <logP>
1.819

>  <lumo_energy>
-0.947

>  <melting_point>
78.46

>  <molecular_refractivity>
45.49

>  <oscillator_strength_1>
0.0

>  <oscillator_strength_2>
0.0103

>  <oscillator_strength_3>
0.0763

>  <oscillator_strength_4>
0.1942

>  <open_babel_can_smiles>
N#CCc1cccc(c1)CC#N

>  <mulliken_charges>
20
1   -0.125391
2   -0.164339
3   -0.163614
4   -0.44282
5   -0.442922
6   0.366972
7   0.367097
8   -0.206037
9   0.165394
10   0.165078
11   -0.460278
12   -0.460259
13   0.146831
14   0.142182
15   0.142346
16   0.20644
17   0.208108
18   0.206662
19   0.2079
20   0.140649

>  <lowdin_charges>
20
1   -0.142649
2   -0.151431
3   -0.154307
4   -0.268627
5   -0.269474
6   -0.017022
7   -0.017186
8   -0.160918
9   0.003857
10   0.005261
11   -0.121243
12   -0.12121
13   0.167104
14   0.161968
15   0.164273
16   0.18829
17   0.190739
18   0.189798
19   0.189763
20   0.163015

$$$$

