PCCDB-ID:  3242
public computational chemistry database (PCCDB) project, http://pccdb.org

 31 32  0  0  0  0  0  0  0  0999 V2000
    0.5182   -0.9911   -0.6642 C   0  0  0  0  0  0  0  0  0  0  0  0
    8.4560   -3.3715   -0.2013 C   0  0  0  0  0  0  0  0  0  0  0  0
    5.5060    2.3189    0.7051 C   0  0  0  0  0  0  0  0  0  0  0  0
    3.5075   -5.6507    0.4907 C   0  0  0  0  0  0  0  0  0  0  0  0
    2.3359    0.6801   -0.1017 C   0  0  0  0  0  0  0  0  0  0  0  0
    6.0424   -4.3577    0.0852 C   0  0  0  0  0  0  0  0  0  0  0  0
    1.9437   -0.6269   -0.3473 C   0  0  0  0  0  0  0  0  0  0  0  0
    6.9656   -3.2860   -0.0789 C   0  0  0  0  0  0  0  0  0  0  0  0
    3.6992    0.8762    0.1812 C   0  0  0  0  0  0  0  0  0  0  0  0
    4.8072   -3.7490    0.1292 C   0  0  0  0  0  0  0  0  0  0  0  0
    4.0805   -1.3339   -0.0344 C   0  0  0  0  0  0  0  0  0  0  0  0
    2.8262   -1.6502   -0.3280 N   0  0  0  0  0  0  0  0  0  0  0  0
    4.5751   -0.1182    0.2318 N   0  0  0  0  0  0  0  0  0  0  0  0
    6.3625   -2.1114   -0.1276 N   0  0  0  0  0  0  0  0  0  0  0  0
    5.0170   -2.3892   -0.0032 N   0  0  0  0  0  0  0  0  0  0  0  0
    4.1114    2.1317    0.4176 O   0  0  0  0  0  0  0  0  0  0  0  0
    3.5723   -4.2394    0.3074 O   0  0  0  0  0  0  0  0  0  0  0  0
   -0.1342   -0.1134   -0.6688 H   0  0  0  0  0  0  0  0  0  0  0  0
    0.1417   -1.7095    0.0726 H   0  0  0  0  0  0  0  0  0  0  0  0
    0.4637   -1.4798   -1.6433 H   0  0  0  0  0  0  0  0  0  0  0  0
    8.7515   -3.9736   -1.0693 H   0  0  0  0  0  0  0  0  0  0  0  0
    8.9032   -3.8372    0.6856 H   0  0  0  0  0  0  0  0  0  0  0  0
    8.8753   -2.3686   -0.3154 H   0  0  0  0  0  0  0  0  0  0  0  0
    5.6219    3.3935    0.8536 H   0  0  0  0  0  0  0  0  0  0  0  0
    6.1247    1.9737   -0.1272 H   0  0  0  0  0  0  0  0  0  0  0  0
    5.7944    1.7716    1.6063 H   0  0  0  0  0  0  0  0  0  0  0  0
    2.4511   -5.8857    0.6266 H   0  0  0  0  0  0  0  0  0  0  0  0
    4.0748   -5.9589    1.3779 H   0  0  0  0  0  0  0  0  0  0  0  0
    3.8941   -6.1784   -0.3899 H   0  0  0  0  0  0  0  0  0  0  0  0
    1.6469    1.5157   -0.1241 H   0  0  0  0  0  0  0  0  0  0  0  0
    6.2582   -5.4119    0.1701 H   0  0  0  0  0  0  0  0  0  0  0  0
  1  7  1  0  0  0  0
  1 19  1  0  0  0  0
  2  8  1  0  0  0  0
  2 22  1  0  0  0  0
  3 24  1  0  0  0  0
  3 26  1  0  0  0  0
  4 27  1  0  0  0  0
  4 28  1  0  0  0  0
  5  9  1  0  0  0  0
  6 10  2  0  0  0  0
  6 31  1  0  0  0  0
  7 12  1  0  0  0  0
  7  5  2  0  0  0  0
  8  6  1  0  0  0  0
  9 13  2  0  0  0  0
  9 16  1  0  0  0  0
 10 17  1  0  0  0  0
 11 15  1  0  0  0  0
 11 13  1  0  0  0  0
 12 11  2  0  0  0  0
 14  8  2  0  0  0  0
 14 15  1  0  0  0  0
 15 10  1  0  0  0  0
 16  3  1  0  0  0  0
 17  4  1  0  0  0  0
 18  1  1  0  0  0  0
 20  1  1  0  0  0  0
 21  2  1  0  0  0  0
 23  2  1  0  0  0  0
 25  3  1  0  0  0  0
 29  4  1  0  0  0  0
 30  5  1  0  0  0  0
M  END
>  <HBA>
6

>  <HBD>
0

>  <TPSA>
62.06

>  <cid>
3242

>  <dipole>
1.95

>  <excitation_energy_1>
4.514

>  <excitation_energy_2>
4.774

>  <excitation_energy_3>
4.805

>  <excitation_energy_4>
4.935

>  <homo_energy>
-5.782

>  <homo_lumo_gap>
5.203

>  <logP>
1.296

>  <lumo_energy>
-0.58

>  <melting_point>
106.14

>  <molecular_refractivity>
62.07

>  <oscillator_strength_1>
0.0595

>  <oscillator_strength_2>
0.0011

>  <oscillator_strength_3>
0.0203

>  <oscillator_strength_4>
0.2346

>  <open_babel_can_smiles>
COc1cc(C)nc(n1)n1nc(cc1OC)C

>  <mulliken_charges>
31
1   -0.509152
2   -0.524845
3   -0.21184
4   -0.217952
5   -0.2387
6   -0.336638
7   0.328688
8   0.347789
9   0.586784
10   0.623203
11   0.646134
12   -0.503316
13   -0.521533
14   -0.334931
15   -0.44031
16   -0.496735
17   -0.47106
18   0.153253
19   0.175903
20   0.176874
21   0.158738
22   0.157842
23   0.174777
24   0.160168
25   0.178169
26   0.172724
27   0.175077
28   0.156962
29   0.158738
30   0.144948
31   0.130239

>  <lowdin_charges>
31
1   -0.443597
2   -0.443458
3   -0.273449
4   -0.269319
5   -0.241669
6   -0.297335
7   0.086765
8   0.025601
9   0.159194
10   0.128295
11   0.137293
12   -0.189804
13   -0.18603
14   -0.15517
15   0.027866
16   -0.181631
17   -0.163521
18   0.156942
19   0.173229
20   0.172389
21   0.160681
22   0.160386
23   0.170174
24   0.155966
25   0.164309
26   0.161006
27   0.164516
28   0.149787
29   0.150904
30   0.17458
31   0.165103

$$$$

