PCCDB-ID:  70357
public computational chemistry database (PCCDB) project, http://pccdb.org

 25 26  0  0  0  0  0  0  0  0999 V2000
   -2.1345    1.6409   -1.1861 C   0  0  0  0  0  0  0  0  0  0  0  0
   -1.2017    2.4158   -1.8792 C   0  0  0  0  0  0  0  0  0  0  0  0
   -1.6957    0.6158   -0.3471 C   0  0  0  0  0  0  0  0  0  0  0  0
    3.8293   -0.8442   -1.1346 C   0  0  0  0  0  0  0  0  0  0  0  0
    4.8000    0.0814   -0.7497 C   0  0  0  0  0  0  0  0  0  0  0  0
    0.1625    2.1683   -1.7351 C   0  0  0  0  0  0  0  0  0  0  0  0
   -0.3305    0.3632   -0.2044 C   0  0  0  0  0  0  0  0  0  0  0  0
    2.4873   -0.4717   -1.1542 C   0  0  0  0  0  0  0  0  0  0  0  0
    4.4124    1.3629   -0.3740 C   0  0  0  0  0  0  0  0  0  0  0  0
    0.6195    1.1370   -0.8942 C   0  0  0  0  0  0  0  0  0  0  0  0
    2.0760    0.8187   -0.7824 C   0  0  0  0  0  0  0  0  0  0  0  0
    3.0619    1.7448   -0.3655 C   0  0  0  0  0  0  0  0  0  0  0  0
    2.8116    3.1427    0.1518 C   0  0  0  0  0  0  0  0  0  0  0  0
    3.6762    3.9899    0.1561 O   0  0  0  0  0  0  0  0  0  0  0  0
    1.5988    3.4274    0.6802 O   0  0  0  0  0  0  0  0  0  0  0  0
   -3.1972    1.8367   -1.2985 H   0  0  0  0  0  0  0  0  0  0  0  0
   -1.5356    3.2131   -2.5372 H   0  0  0  0  0  0  0  0  0  0  0  0
   -2.4146    0.0118    0.1995 H   0  0  0  0  0  0  0  0  0  0  0  0
    4.1145   -1.8498   -1.4316 H   0  0  0  0  0  0  0  0  0  0  0  0
    5.8507   -0.1938   -0.7389 H   0  0  0  0  0  0  0  0  0  0  0  0
    0.8834    2.7679   -2.2835 H   0  0  0  0  0  0  0  0  0  0  0  0
    0.0094   -0.4340    0.4512 H   0  0  0  0  0  0  0  0  0  0  0  0
    1.7344   -1.1796   -1.4892 H   0  0  0  0  0  0  0  0  0  0  0  0
    5.1458    2.0992   -0.0640 H   0  0  0  0  0  0  0  0  0  0  0  0
    0.9932    2.6709    0.5862 H   0  0  0  0  0  0  0  0  0  0  0  0
  1  3  2  0  0  0  0
  2  6  2  0  0  0  0
  2  1  1  0  0  0  0
  3  7  1  0  0  0  0
  3 18  1  0  0  0  0
  4  5  1  0  0  0  0
  5 20  1  0  0  0  0
  5  9  2  0  0  0  0
  6 10  1  0  0  0  0
  7 22  1  0  0  0  0
  8  4  2  0  0  0  0
  8 11  1  0  0  0  0
  9 12  1  0  0  0  0
  9 24  1  0  0  0  0
 10 11  1  0  0  0  0
 10  7  2  0  0  0  0
 11 12  2  0  0  0  0
 12 13  1  0  0  0  0
 13 14  2  0  0  0  0
 13 15  1  0  0  0  0
 16  1  1  0  0  0  0
 17  2  1  0  0  0  0
 19  4  1  0  0  0  0
 21  6  1  0  0  0  0
 23  8  1  0  0  0  0
 25 15  1  0  0  0  0
M  END
>  <HBA>
2

>  <HBD>
1

>  <TPSA>
37.3

>  <cid>
70357

>  <dipole>
5.11

>  <excitation_energy_1>
4.615

>  <excitation_energy_2>
4.654

>  <excitation_energy_3>
5.014

>  <excitation_energy_4>
5.085

>  <homo_energy>
-6.8

>  <homo_lumo_gap>
5.41

>  <logP>
3.052

>  <lumo_energy>
-1.391

>  <melting_point>
132.92

>  <molecular_refractivity>
58.84

>  <oscillator_strength_1>
0.061

>  <oscillator_strength_2>
0.0502

>  <oscillator_strength_3>
0.0215

>  <oscillator_strength_4>
0.0762

>  <open_babel_can_smiles>
OC(=O)c1ccccc1c1ccccc1

>  <mulliken_charges>
25
1   -0.123244
2   -0.127514
3   -0.129884
4   -0.123465
5   -0.127135
6   -0.140517
7   -0.158077
8   -0.165954
9   -0.164906
10   -0.063799
11   0.052507
12   0.017563
13   0.541989
14   -0.451718
15   -0.580145
16   0.141089
17   0.144819
18   0.141136
19   0.14114
20   0.142157
21   0.153173
22   0.143811
23   0.14191
24   0.173876
25   0.421189

>  <lowdin_charges>
25
1   -0.146841
2   -0.148749
3   -0.153827
4   -0.139102
5   -0.15195
6   -0.15516
7   -0.16451
8   -0.159709
9   -0.127997
10   -0.036062
11   -0.0049
12   -0.063789
13   0.194732
14   -0.251271
15   -0.35309
16   0.161929
17   0.166061
18   0.164839
19   0.162781
20   0.162964
21   0.17063
22   0.165323
23   0.165574
24   0.183155
25   0.358967

$$$$

