PCCDB-ID:  39442
public computational chemistry database (PCCDB) project, http://pccdb.org

 26 26  0  0  0  0  0  0  0  0999 V2000
   -0.8209   -1.2497   -0.4716 C   0  0  0  0  0  0  0  0  0  0  0  0
   -0.4879   -1.2426   -1.8267 C   0  0  0  0  0  0  0  0  0  0  0  0
    0.1957   -1.2122    0.4847 C   0  0  0  0  0  0  0  0  0  0  0  0
    0.8495   -1.2113   -2.2225 C   0  0  0  0  0  0  0  0  0  0  0  0
    1.5354   -1.1550    0.0988 C   0  0  0  0  0  0  0  0  0  0  0  0
    5.7383   -1.2925   -0.1174 C   0  0  0  0  0  0  0  0  0  0  0  0
    4.5459   -2.0655   -0.6992 C   0  0  0  0  0  0  0  0  0  0  0  0
    1.8704   -1.1643   -1.2627 C   0  0  0  0  0  0  0  0  0  0  0  0
    4.8374   -0.2466    1.9157 C   0  0  0  0  0  0  0  0  0  0  0  0
    4.6764   -1.4087    2.4442 N   0  0  0  0  0  0  0  0  0  0  0  0
    4.4747    0.9905    2.4644 N   0  0  0  0  0  0  0  0  0  0  0  0
    5.4002   -0.1051    0.6534 N   0  0  0  0  0  0  0  0  0  0  0  0
    3.5536   -1.0333   -1.8691 S   0  0  0  0  0  0  0  0  0  0  0  0
   -1.8620   -1.2852   -0.1628 H   0  0  0  0  0  0  0  0  0  0  0  0
   -1.2689   -1.2783   -2.5819 H   0  0  0  0  0  0  0  0  0  0  0  0
   -0.0530   -1.2137    1.5430 H   0  0  0  0  0  0  0  0  0  0  0  0
    1.1067   -1.2341   -3.2777 H   0  0  0  0  0  0  0  0  0  0  0  0
    2.3092   -1.1085    0.8589 H   0  0  0  0  0  0  0  0  0  0  0  0
    6.4134   -0.9784   -0.9217 H   0  0  0  0  0  0  0  0  0  0  0  0
    6.2905   -1.9684    0.5416 H   0  0  0  0  0  0  0  0  0  0  0  0
    3.9000   -2.4113    0.1083 H   0  0  0  0  0  0  0  0  0  0  0  0
    4.9079   -2.9402   -1.2498 H   0  0  0  0  0  0  0  0  0  0  0  0
    4.3784   -1.3294    3.4180 H   0  0  0  0  0  0  0  0  0  0  0  0
    4.2294    0.9527    3.4459 H   0  0  0  0  0  0  0  0  0  0  0  0
    5.1257    1.7430    2.2669 H   0  0  0  0  0  0  0  0  0  0  0  0
    4.9674    0.6258    0.0977 H   0  0  0  0  0  0  0  0  0  0  0  0
  1 14  1  0  0  0  0
  1  3  2  0  0  0  0
  2  1  1  0  0  0  0
  3 16  1  0  0  0  0
  4  2  2  0  0  0  0
  4  8  1  0  0  0  0
  5  3  1  0  0  0  0
  5 18  1  0  0  0  0
  6 20  1  0  0  0  0
  6 12  1  0  0  0  0
  7  6  1  0  0  0  0
  7 21  1  0  0  0  0
  8  5  2  0  0  0  0
  9 10  1  0  0  0  0
  9 11  2  0  0  0  0
 10 23  1  0  0  0  0
 11 24  1  0  0  0  0
 12  9  1  0  0  0  0
 13  8  1  0  0  0  0
 13  7  1  0  0  0  0
 15  2  1  0  0  0  0
 17  4  1  0  0  0  0
 19  6  1  0  0  0  0
 22  7  1  0  0  0  0
 25 11  1  0  0  0  0
 26 12  1  0  0  0  0
M  RAD  1  10   2
M  END
>  <HBA>
4

>  <HBD>
2

>  <TPSA>
89.7

>  <cid>
39442

>  <dipole>
2.72

>  <excitation_energy_1>
4.633

>  <excitation_energy_2>
4.775

>  <excitation_energy_3>
5.025

>  <excitation_energy_4>
5.288

>  <homo_energy>
-5.633

>  <homo_lumo_gap>
5.554

>  <logP>
2.453

>  <lumo_energy>
-0.079

>  <melting_point>
141.16

>  <molecular_refractivity>
56.88

>  <oscillator_strength_1>
0.037

>  <oscillator_strength_2>
0.1087

>  <oscillator_strength_3>
0.0035

>  <oscillator_strength_4>
0.0145

>  <open_babel_can_smiles>
[NH]C(=[NH2])NCCSc1ccccc1

>  <mulliken_charges>
26
1   -0.134121
2   -0.119617
3   -0.123242
4   -0.156409
5   -0.166864
6   -0.128354
7   -0.431953
8   -0.071382
9   0.589262
10   -0.653461
11   -0.753013
12   -0.586841
13   0.070916
14   0.128281
15   0.130443
16   0.12953
17   0.14204
18   0.162998
19   0.149752
20   0.182701
21   0.218925
22   0.173349
23   0.265408
24   0.320458
25   0.326386
26   0.334807

>  <lowdin_charges>
26
1   -0.161705
2   -0.154335
3   -0.149351
4   -0.163994
5   -0.171594
6   -0.203514
7   -0.389137
8   -0.116866
9   0.126243
10   -0.487891
11   -0.505498
12   -0.307016
13   0.11424
14   0.156071
15   0.159414
16   0.156381
17   0.163747
18   0.173322
19   0.150913
20   0.173604
21   0.187004
22   0.165222
23   0.245822
24   0.274866
25   0.28122
26   0.282834

$$$$

