PCCDB-ID:  8785
public computational chemistry database (PCCDB) project, http://pccdb.org

 21 21  0  0  0  0  0  0  0  0999 V2000
    1.4562    0.8918    2.3897 C   0  0  0  0  0  0  0  0  0  0  0  0
    6.4793    4.9906    3.7237 C   0  0  0  0  0  0  0  0  0  0  0  0
    6.4757    3.6314    4.0450 C   0  0  0  0  0  0  0  0  0  0  0  0
    5.9039    5.4226    2.5273 C   0  0  0  0  0  0  0  0  0  0  0  0
    5.8988    2.7065    3.1745 C   0  0  0  0  0  0  0  0  0  0  0  0
    5.3278    4.4964    1.6574 C   0  0  0  0  0  0  0  0  0  0  0  0
    4.6834    2.1386    1.0300 C   0  0  0  0  0  0  0  0  0  0  0  0
    2.9517    0.9544    2.1817 C   0  0  0  0  0  0  0  0  0  0  0  0
    5.3195    3.1316    1.9709 C   0  0  0  0  0  0  0  0  0  0  0  0
    3.7616    0.2206    2.7071 O   0  0  0  0  0  0  0  0  0  0  0  0
    3.2690    1.9470    1.3183 O   0  0  0  0  0  0  0  0  0  0  0  0
    1.2150    0.0525    3.0428 H   0  0  0  0  0  0  0  0  0  0  0  0
    0.9435    0.7802    1.4291 H   0  0  0  0  0  0  0  0  0  0  0  0
    1.1048    1.8257    2.8412 H   0  0  0  0  0  0  0  0  0  0  0  0
    6.9322    5.7099    4.4010 H   0  0  0  0  0  0  0  0  0  0  0  0
    6.9229    3.2905    4.9751 H   0  0  0  0  0  0  0  0  0  0  0  0
    5.9071    6.4785    2.2699 H   0  0  0  0  0  0  0  0  0  0  0  0
    5.8849    1.6499    3.4248 H   0  0  0  0  0  0  0  0  0  0  0  0
    4.8821    4.8343    0.7243 H   0  0  0  0  0  0  0  0  0  0  0  0
    5.1800    1.1676    1.0775 H   0  0  0  0  0  0  0  0  0  0  0  0
    4.6953    2.5087    0.0024 H   0  0  0  0  0  0  0  0  0  0  0  0
  1 14  1  0  0  0  0
  1 12  1  0  0  0  0
  2  3  1  0  0  0  0
  2 15  1  0  0  0  0
  3 16  1  0  0  0  0
  4  2  2  0  0  0  0
  5 18  1  0  0  0  0
  5  3  2  0  0  0  0
  6  9  2  0  0  0  0
  6  4  1  0  0  0  0
  7 20  1  0  0  0  0
  7 11  1  0  0  0  0
  7  9  1  0  0  0  0
  8  1  1  0  0  0  0
  8 10  2  0  0  0  0
  9  5  1  0  0  0  0
 11  8  1  0  0  0  0
 13  1  1  0  0  0  0
 17  4  1  0  0  0  0
 19  6  1  0  0  0  0
 21  7  1  0  0  0  0
M  END
>  <HBA>
2

>  <HBD>
0

>  <TPSA>
26.3

>  <cid>
8785

>  <dipole>
1.68

>  <excitation_energy_1>
5.295

>  <excitation_energy_2>
5.771

>  <excitation_energy_3>
5.892

>  <excitation_energy_4>
6.255

>  <homo_energy>
-6.746

>  <homo_lumo_gap>
6.465

>  <logP>
1.75

>  <lumo_energy>
-0.28

>  <melting_point>
18.26

>  <molecular_refractivity>
42.31

>  <oscillator_strength_1>
0.0016

>  <oscillator_strength_2>
0.0053

>  <oscillator_strength_3>
0.0597

>  <oscillator_strength_4>
0.001

>  <open_babel_can_smiles>
CC(=O)OCc1ccccc1

>  <mulliken_charges>
21
1   -0.522442
2   -0.126239
3   -0.13101
4   -0.129308
5   -0.177414
6   -0.172212
7   -0.142481
8   0.6059
9   0.146559
10   -0.470546
11   -0.445783
12   0.181678
13   0.180551
14   0.184771
15   0.131441
16   0.13361
17   0.131124
18   0.160832
19   0.128441
20   0.177352
21   0.155178

>  <lowdin_charges>
21
1   -0.465219
2   -0.153975
3   -0.154808
4   -0.15534
5   -0.152961
6   -0.156893
7   -0.127083
8   0.20524
9   -0.023994
10   -0.271738
11   -0.2002
12   0.175864
13   0.176816
14   0.179694
15   0.159886
16   0.159485
17   0.156885
18   0.170259
19   0.156734
20   0.16549
21   0.155858

$$$$

