PCCDB-ID:  61061
public computational chemistry database (PCCDB) project, http://pccdb.org

 34 35  0  0  1  0  0  0  0  0999 V2000
    7.6320   17.2825   -4.8690 C   0  0  0  0  0  0  0  0  0  0  0  0
   10.2556   11.3153   -2.9086 C   0  0  0  0  0  0  0  0  0  0  0  0
    9.0091   12.6315   -4.5829 C   0  0  0  0  0  0  0  0  0  0  0  0
    8.9963   14.0259   -1.6194 C   0  0  0  0  0  0  0  0  0  0  0  0
   12.4893   13.2290   -3.0222 C   0  0  0  0  0  0  0  0  0  0  0  0
   11.5522   13.7677   -1.8968 C   0  0  0  0  0  0  0  0  0  0  0  0
   11.2413   14.5960   -4.6794 C   0  0  0  0  0  0  0  0  0  0  0  0
    9.0330   16.9056   -4.4430 C   0  0  0  0  0  0  0  0  0  0  0  0
   11.5375   13.1434   -4.2387 C   0  0  2  0  0  0  0  0  0  0  0  0
   10.3535   15.1393   -3.5252 C   0  0  2  0  0  0  0  0  0  0  0  0
   10.1888   12.6943   -3.5935 C   0  0  0  0  0  0  0  0  0  0  0  0
   10.1634   13.9129   -2.5915 C   0  0  2  0  0  0  0  0  0  0  0  0
    9.9988   17.6360   -4.4891 O   0  0  0  0  0  0  0  0  0  0  0  0
    9.0692   15.6274   -3.9967 O   0  0  0  0  0  0  0  0  0  0  0  0
    6.9312   17.1349   -4.0411 H   0  0  0  0  0  0  0  0  0  0  0  0
    7.6179   18.3250   -5.1885 H   0  0  0  0  0  0  0  0  0  0  0  0
    7.3039   16.6393   -5.6926 H   0  0  0  0  0  0  0  0  0  0  0  0
   11.0467   11.2245   -2.1610 H   0  0  0  0  0  0  0  0  0  0  0  0
   10.4227   10.5327   -3.6590 H   0  0  0  0  0  0  0  0  0  0  0  0
    9.3055   11.0863   -2.4114 H   0  0  0  0  0  0  0  0  0  0  0  0
    8.8341   13.5629   -5.1208 H   0  0  0  0  0  0  0  0  0  0  0  0
    8.0800   12.3837   -4.0554 H   0  0  0  0  0  0  0  0  0  0  0  0
    9.1834   11.8383   -5.3210 H   0  0  0  0  0  0  0  0  0  0  0  0
    9.1121   14.9026   -0.9696 H   0  0  0  0  0  0  0  0  0  0  0  0
    8.9395   13.1431   -0.9720 H   0  0  0  0  0  0  0  0  0  0  0  0
    8.0418   14.1297   -2.1439 H   0  0  0  0  0  0  0  0  0  0  0  0
   12.9072   12.2507   -2.7648 H   0  0  0  0  0  0  0  0  0  0  0  0
   13.3361   13.8953   -3.2188 H   0  0  0  0  0  0  0  0  0  0  0  0
   11.8926   14.7239   -1.4836 H   0  0  0  0  0  0  0  0  0  0  0  0
   11.4854   13.0701   -1.0559 H   0  0  0  0  0  0  0  0  0  0  0  0
   10.6911   14.6351   -5.6238 H   0  0  0  0  0  0  0  0  0  0  0  0
   12.1511   15.1895   -4.8109 H   0  0  0  0  0  0  0  0  0  0  0  0
   11.9051   12.5057   -5.0497 H   0  0  0  0  0  0  0  0  0  0  0  0
   10.8254   15.9716   -2.9991 H   0  0  0  0  0  0  0  0  0  0  0  0
  1  8  1  0  0  0  0
  1 15  1  0  0  0  0
  2 20  1  0  0  0  0
  2 18  1  0  0  0  0
  3 22  1  0  0  0  0
  3 11  1  0  0  0  0
  4 25  1  0  0  0  0
  4 24  1  0  0  0  0
  5 27  1  0  0  0  0
  5  6  1  0  0  0  0
  6 29  1  0  0  0  0
  6 30  1  0  0  0  0
  7  9  1  0  0  0  0
  7 10  1  0  0  0  0
  8 14  1  0  0  0  0
  9 33  1  6  0  0  0
  9 11  1  0  0  0  0
  9  5  1  0  0  0  0
 10 34  1  1  0  0  0
 10 12  1  0  0  0  0
 11  2  1  0  0  0  0
 11 12  1  0  0  0  0
 12  6  1  0  0  0  0
 12  4  1  1  0  0  0
 13  8  2  0  0  0  0
 14 10  1  0  0  0  0
 16  1  1  0  0  0  0
 17  1  1  0  0  0  0
 19  2  1  0  0  0  0
 21  3  1  0  0  0  0
 23  3  1  0  0  0  0
 26  4  1  0  0  0  0
 28  5  1  0  0  0  0
 31  7  1  0  0  0  0
 32  7  1  0  0  0  0
M  END
>  <HBA>
2

>  <HBD>
0

>  <TPSA>
26.3

>  <cid>
61061

>  <dipole>
1.93

>  <excitation_energy_1>
5.778

>  <excitation_energy_2>
6.852

>  <excitation_energy_3>
7.098

>  <excitation_energy_4>
7.147

>  <homo_energy>
-7.219

>  <homo_lumo_gap>
7.657

>  <logP>
2.764

>  <lumo_energy>
0.438

>  <melting_point>
64.42

>  <molecular_refractivity>
56.34

>  <oscillator_strength_1>
0.0011

>  <oscillator_strength_2>
0.0271

>  <oscillator_strength_3>
0.0056

>  <oscillator_strength_4>
0.0096

>  <open_babel_can_smiles>
CC(=O)O[C@@H]1C[C@@H]2C([C@@]1(C)CC2)(C)C

>  <mulliken_charges>
34
1   -0.526385
2   -0.466846
3   -0.467849
4   -0.478113
5   -0.280324
6   -0.29573
7   -0.299657
8   0.604413
9   -0.104205
10   0.136069
11   0.094809
12   0.067604
13   -0.469647
14   -0.479062
15   0.179975
16   0.181656
17   0.179764
18   0.144608
19   0.141641
20   0.143016
21   0.158813
22   0.139922
23   0.13523
24   0.14162
25   0.141709
26   0.157208
27   0.139306
28   0.135356
29   0.136495
30   0.141305
31   0.149127
32   0.15019
33   0.112694
34   0.155287

>  <lowdin_charges>
34
1   -0.465976
2   -0.447954
3   -0.452147
4   -0.445486
5   -0.287299
6   -0.286255
7   -0.291919
8   0.202207
9   -0.135711
10   -0.002786
11   0.003158
12   -0.004988
13   -0.266705
14   -0.197074
15   0.176907
16   0.173963
17   0.177277
18   0.151265
19   0.150956
20   0.149574
21   0.156139
22   0.148821
23   0.147219
24   0.151742
25   0.150309
26   0.156061
27   0.145176
28   0.145521
29   0.145069
30   0.147487
31   0.154789
32   0.154345
33   0.140972
34   0.155341

$$$$

