PCCDB-ID:  33673
public computational chemistry database (PCCDB) project, http://pccdb.org

 29 29  0  0  0  0  0  0  0  0999 V2000
    1.4080    0.9757    0.0063 C   0  0  0  0  0  0  0  0  0  0  0  0
    2.3416    0.6294   -1.1441 C   0  0  0  0  0  0  0  0  0  0  0  0
    8.5851   -0.0594   -0.9817 C   0  0  0  0  0  0  0  0  0  0  0  0
    7.7674   -1.2762   -1.4524 C   0  0  0  0  0  0  0  0  0  0  0  0
    7.7745    1.1147   -0.4130 C   0  0  0  0  0  0  0  0  0  0  0  0
    7.0544   -2.0253   -0.3103 C   0  0  0  0  0  0  0  0  0  0  0  0
    6.7659    0.7354    0.6820 C   0  0  0  0  0  0  0  0  0  0  0  0
    5.6695   -1.4745    0.0698 C   0  0  0  0  0  0  0  0  0  0  0  0
    4.5400    0.7217   -0.2483 C   0  0  0  0  0  0  0  0  0  0  0  0
    5.6193   -0.0121    0.1584 N   0  0  0  0  0  0  0  0  0  0  0  0
    4.4866    1.9441   -0.2292 O   0  0  0  0  0  0  0  0  0  0  0  0
    3.5162   -0.0695   -0.6807 O   0  0  0  0  0  0  0  0  0  0  0  0
    0.4918    1.4366   -0.3813 H   0  0  0  0  0  0  0  0  0  0  0  0
    1.8902    1.6845    0.6849 H   0  0  0  0  0  0  0  0  0  0  0  0
    1.1305    0.0770    0.5675 H   0  0  0  0  0  0  0  0  0  0  0  0
    2.6524    1.5288   -1.6807 H   0  0  0  0  0  0  0  0  0  0  0  0
    1.8715   -0.0670   -1.8440 H   0  0  0  0  0  0  0  0  0  0  0  0
    9.1922    0.3084   -1.8195 H   0  0  0  0  0  0  0  0  0  0  0  0
    9.3001   -0.4044   -0.2193 H   0  0  0  0  0  0  0  0  0  0  0  0
    8.4538   -1.9722   -1.9513 H   0  0  0  0  0  0  0  0  0  0  0  0
    7.0352   -0.9697   -2.2128 H   0  0  0  0  0  0  0  0  0  0  0  0
    7.2161    1.6169   -1.2127 H   0  0  0  0  0  0  0  0  0  0  0  0
    8.4697    1.8609   -0.0042 H   0  0  0  0  0  0  0  0  0  0  0  0
    7.7124   -2.0455    0.5687 H   0  0  0  0  0  0  0  0  0  0  0  0
    6.9029   -3.0767   -0.5874 H   0  0  0  0  0  0  0  0  0  0  0  0
    6.3764    1.6409    1.1505 H   0  0  0  0  0  0  0  0  0  0  0  0
    7.2419    0.1315    1.4642 H   0  0  0  0  0  0  0  0  0  0  0  0
    5.3497   -1.9251    1.0220 H   0  0  0  0  0  0  0  0  0  0  0  0
    4.9417   -1.7759   -0.6839 H   0  0  0  0  0  0  0  0  0  0  0  0
  1 15  1  0  0  0  0
  1 14  1  0  0  0  0
  2 12  1  0  0  0  0
  2  1  1  0  0  0  0
  3  5  1  0  0  0  0
  3 19  1  0  0  0  0
  4  3  1  0  0  0  0
  4  6  1  0  0  0  0
  5 23  1  0  0  0  0
  5  7  1  0  0  0  0
  6  8  1  0  0  0  0
  6 24  1  0  0  0  0
  7 26  1  0  0  0  0
  7 27  1  0  0  0  0
  8 10  1  0  0  0  0
  8 28  1  0  0  0  0
  9 11  2  0  0  0  0
  9 10  1  0  0  0  0
 10  7  1  0  0  0  0
 12  9  1  0  0  0  0
 13  1  1  0  0  0  0
 16  2  1  0  0  0  0
 17  2  1  0  0  0  0
 18  3  1  0  0  0  0
 20  4  1  0  0  0  0
 21  4  1  0  0  0  0
 22  5  1  0  0  0  0
 25  6  1  0  0  0  0
 29  8  1  0  0  0  0
M  END
>  <HBA>
3

>  <HBD>
0

>  <TPSA>
29.54

>  <cid>
33673

>  <dipole>
2.29

>  <excitation_energy_1>
5.781

>  <excitation_energy_2>
6.188

>  <excitation_energy_3>
6.264

>  <excitation_energy_4>
6.353

>  <homo_energy>
-6.253

>  <homo_lumo_gap>
7.929

>  <logP>
1.957

>  <lumo_energy>
1.676

>  <melting_point>
19.43

>  <molecular_refractivity>
51.75

>  <oscillator_strength_1>
0.0259

>  <oscillator_strength_2>
0.0289

>  <oscillator_strength_3>
0.0174

>  <oscillator_strength_4>
0.0246

>  <open_babel_can_smiles>
CCOC(=O)N1CCCCCC1

>  <mulliken_charges>
29
1   -0.460154
2   -0.032916
3   -0.26204
4   -0.253294
5   -0.252847
6   -0.286917
7   -0.150653
8   -0.126458
9   0.802742
10   -0.456835
11   -0.543178
12   -0.49882
13   0.144673
14   0.177866
15   0.151538
16   0.169208
17   0.144059
18   0.13426
19   0.126619
20   0.133896
21   0.138629
22   0.155644
23   0.131901
24   0.137421
25   0.141902
26   0.178837
27   0.137596
28   0.140718
29   0.176603

>  <lowdin_charges>
29
1   -0.458514
2   -0.126775
3   -0.279747
4   -0.281599
5   -0.286692
6   -0.288214
7   -0.199211
8   -0.198148
9   0.200617
10   -0.113812
11   -0.33232
12   -0.214636
13   0.156211
14   0.167565
15   0.153567
16   0.158972
17   0.149064
18   0.146455
19   0.13697
20   0.147854
21   0.145097
22   0.154449
23   0.147585
24   0.140919
25   0.150747
26   0.171778
27   0.144684
28   0.140831
29   0.166302

$$$$

