PCCDB-ID:  359
public computational chemistry database (PCCDB) project, http://pccdb.org

 15 15  0  0  0  0  0  0  0  0999 V2000
   -0.6953    1.2184   -0.0020 C   0  0  0  0  0  0  0  0  0  0  0  0
   -0.6965   -1.2133   -0.0026 C   0  0  0  0  0  0  0  0  0  0  0  0
    1.4154    0.0036    0.0015 C   0  0  0  0  0  0  0  0  0  0  0  0
   -1.3837    0.0019   -0.0031 C   0  0  0  0  0  0  0  0  0  0  0  0
    0.7058    1.2031    0.0001 C   0  0  0  0  0  0  0  0  0  0  0  0
    0.7013   -1.1967   -0.0003 C   0  0  0  0  0  0  0  0  0  0  0  0
   -2.7499   -0.0602   -0.0050 O   0  0  0  0  0  0  0  0  0  0  0  0
    1.4382    2.3576    0.0013 O   0  0  0  0  0  0  0  0  0  0  0  0
    1.4339   -2.3501    0.0006 O   0  0  0  0  0  0  0  0  0  0  0  0
   -1.2390    2.1621   -0.0022 H   0  0  0  0  0  0  0  0  0  0  0  0
   -1.2582   -2.1430   -0.0027 H   0  0  0  0  0  0  0  0  0  0  0  0
    2.4986    0.0027    0.0052 H   0  0  0  0  0  0  0  0  0  0  0  0
   -3.1061    0.8414    0.0007 H   0  0  0  0  0  0  0  0  0  0  0  0
    0.8334    3.1151   -0.0007 H   0  0  0  0  0  0  0  0  0  0  0  0
    0.8265   -3.1059    0.0036 H   0  0  0  0  0  0  0  0  0  0  0  0
  1  5  2  0  0  0  0
  2  6  1  0  0  0  0
  3 12  1  0  0  0  0
  4  2  2  0  0  0  0
  4  1  1  0  0  0  0
  5  8  1  0  0  0  0
  5  3  1  0  0  0  0
  6  9  1  0  0  0  0
  6  3  2  0  0  0  0
  7  4  1  0  0  0  0
  7 13  1  0  0  0  0
  9 15  1  0  0  0  0
 10  1  1  0  0  0  0
 11  2  1  0  0  0  0
 14  8  1  0  0  0  0
M  END
>  <HBA>
3

>  <HBD>
3

>  <TPSA>
60.69

>  <cid>
359

>  <dipole>
2.72

>  <excitation_energy_1>
5.004

>  <excitation_energy_2>
5.071

>  <excitation_energy_3>
5.084

>  <excitation_energy_4>
5.313

>  <homo_energy>
-5.785

>  <homo_lumo_gap>
6.373

>  <logP>
0.803

>  <lumo_energy>
0.588

>  <melting_point>
125.24

>  <molecular_refractivity>
32.51

>  <oscillator_strength_1>
0.0006

>  <oscillator_strength_2>
0.0018

>  <oscillator_strength_3>
0.0013

>  <oscillator_strength_4>
0.0011

>  <open_babel_can_smiles>
Oc1cc(O)cc(c1)O

>  <mulliken_charges>
15
1   -0.287702
2   -0.251922
3   -0.21336
4   0.364732
5   0.364774
6   0.363801
7   -0.647505
8   -0.645187
9   -0.645451
10   0.102113
11   0.125222
12   0.145737
13   0.408167
14   0.407206
15   0.409375

>  <lowdin_charges>
15
1   -0.297169
2   -0.270051
3   -0.238543
4   0.125423
5   0.123681
6   0.123871
7   -0.377175
8   -0.375147
9   -0.374534
10   0.148035
11   0.163246
12   0.174761
13   0.356608
14   0.357723
15   0.359272

$$$$

