PCCDB-ID:  7408
public computational chemistry database (PCCDB) project, http://pccdb.org

 20 20  0  0  1  0  0  0  0  0999 V2000
    3.8131   -0.0567    0.8486 C   0  0  0  0  0  0  0  0  0  0  0  0
    3.8509    0.2788   -4.2561 C   0  0  0  0  0  0  0  0  0  0  0  0
    3.9040   -0.9283   -3.5544 C   0  0  0  0  0  0  0  0  0  0  0  0
    3.3953    1.4284   -3.6108 C   0  0  0  0  0  0  0  0  0  0  0  0
    3.5042   -0.9809   -2.2197 C   0  0  0  0  0  0  0  0  0  0  0  0
    2.9964    1.3685   -2.2736 C   0  0  0  0  0  0  0  0  0  0  0  0
    2.6120    0.1187   -0.0911 C   0  0  1  0  0  0  0  0  0  0  0  0
    3.0448    0.1667   -1.5572 C   0  0  0  0  0  0  0  0  0  0  0  0
    1.6070   -0.9073    0.2335 N   0  0  0  0  0  0  0  0  0  0  0  0
    4.5450    0.7444    0.7042 H   0  0  0  0  0  0  0  0  0  0  0  0
    4.3235   -1.0096    0.6573 H   0  0  0  0  0  0  0  0  0  0  0  0
    3.4764   -0.0515    1.8901 H   0  0  0  0  0  0  0  0  0  0  0  0
    4.1594    0.3203   -5.2973 H   0  0  0  0  0  0  0  0  0  0  0  0
    4.2577   -1.8299   -4.0482 H   0  0  0  0  0  0  0  0  0  0  0  0
    3.3461    2.3723   -4.1479 H   0  0  0  0  0  0  0  0  0  0  0  0
    3.5456   -1.9302   -1.6891 H   0  0  0  0  0  0  0  0  0  0  0  0
    2.6397    2.2692   -1.7774 H   0  0  0  0  0  0  0  0  0  0  0  0
    2.1466    1.0860    0.1408 H   0  0  0  0  0  0  0  0  0  0  0  0
    2.0138   -1.8354    0.1160 H   0  0  0  0  0  0  0  0  0  0  0  0
    0.8383   -0.8539   -0.4343 H   0  0  0  0  0  0  0  0  0  0  0  0
  1 12  1  0  0  0  0
  2  4  2  0  0  0  0
  2  3  1  0  0  0  0
  3  5  2  0  0  0  0
  4  6  1  0  0  0  0
  5 16  1  0  0  0  0
  5  8  1  0  0  0  0
  6 17  1  0  0  0  0
  6  8  2  0  0  0  0
  7 18  1  1  0  0  0
  7  9  1  0  0  0  0
  7  1  1  0  0  0  0
  8  7  1  0  0  0  0
 10  1  1  0  0  0  0
 11  1  1  0  0  0  0
 13  2  1  0  0  0  0
 14  3  1  0  0  0  0
 15  4  1  0  0  0  0
 19  9  1  0  0  0  0
 20  9  1  0  0  0  0
M  END
>  <HBA>
1

>  <HBD>
1

>  <TPSA>
26.02

>  <cid>
7408

>  <dipole>
1.17

>  <excitation_energy_1>
5.179

>  <excitation_energy_2>
5.408

>  <excitation_energy_3>
5.629

>  <excitation_energy_4>
5.724

>  <homo_energy>
-6.163

>  <homo_lumo_gap>
6.155

>  <logP>
2.407

>  <lumo_energy>
-0.008

>  <melting_point>
60.74

>  <molecular_refractivity>
38.92

>  <oscillator_strength_1>
0.0033

>  <oscillator_strength_2>
0.052

>  <oscillator_strength_3>
0.0213

>  <oscillator_strength_4>
0.0285

>  <open_babel_can_smiles>
C[C@@H](c1ccccc1)N

>  <mulliken_charges>
20
1   -0.435345
2   -0.132042
3   -0.128232
4   -0.124853
5   -0.188304
6   -0.195928
7   -0.065963
8   0.177319
9   -0.701275
10   0.150283
11   0.137455
12   0.160616
13   0.12815
14   0.128008
15   0.128485
16   0.11254
17   0.123881
18   0.136878
19   0.291777
20   0.296552

>  <lowdin_charges>
20
1   -0.44272
2   -0.159252
3   -0.155673
4   -0.15522
5   -0.169261
6   -0.171285
7   -0.062111
8   -0.019139
9   -0.545409
10   0.155818
11   0.145628
12   0.157638
13   0.155635
14   0.157092
15   0.157121
16   0.148389
17   0.154537
18   0.143178
19   0.24956
20   0.255474

$$$$

