PCCDB-ID:  29654
public computational chemistry database (PCCDB) project, http://pccdb.org

 30 29  0  0  1  0  0  0  0  0999 V2000
    1.6721    2.9681   -2.7093 C   0  0  0  0  0  0  0  0  0  0  0  0
    3.1540   -2.4483   -1.2299 C   0  0  0  0  0  0  0  0  0  0  0  0
    1.2912   -1.8774    0.3702 C   0  0  0  0  0  0  0  0  0  0  0  0
    4.8236    1.6498    0.3158 C   0  0  0  0  0  0  0  0  0  0  0  0
    2.2560    2.2808   -1.4693 C   0  0  0  0  0  0  0  0  0  0  0  0
    3.4512    1.3803   -1.8123 C   0  0  0  0  0  0  0  0  0  0  0  0
    3.2188   -0.2779    0.1620 C   0  0  0  0  0  0  0  0  0  0  0  0
    2.3473   -1.3061   -0.5916 C   0  0  0  0  0  0  0  0  0  0  0  0
    4.1545    0.6501   -0.6442 C   0  0  2  0  0  0  0  0  0  0  0  0
    5.1814   -0.1948   -1.2020 O   0  0  0  0  0  0  0  0  0  0  0  0
    0.8142    3.5982   -2.4489 H   0  0  0  0  0  0  0  0  0  0  0  0
    1.3327    2.2332   -3.4497 H   0  0  0  0  0  0  0  0  0  0  0  0
    2.4196    3.6063   -3.1967 H   0  0  0  0  0  0  0  0  0  0  0  0
    2.4838   -3.1478   -1.7452 H   0  0  0  0  0  0  0  0  0  0  0  0
    3.6983   -3.0121   -0.4612 H   0  0  0  0  0  0  0  0  0  0  0  0
    3.8903   -2.0715   -1.9416 H   0  0  0  0  0  0  0  0  0  0  0  0
    0.6428   -2.6015   -0.1376 H   0  0  0  0  0  0  0  0  0  0  0  0
    0.6512   -1.0903    0.7877 H   0  0  0  0  0  0  0  0  0  0  0  0
    1.7723   -2.3954    1.2100 H   0  0  0  0  0  0  0  0  0  0  0  0
    4.0928    2.2932    0.8178 H   0  0  0  0  0  0  0  0  0  0  0  0
    5.5198    2.2999   -0.2310 H   0  0  0  0  0  0  0  0  0  0  0  0
    5.3915    1.1103    1.0805 H   0  0  0  0  0  0  0  0  0  0  0  0
    1.4710    1.6865   -0.9833 H   0  0  0  0  0  0  0  0  0  0  0  0
    2.5533    3.0485   -0.7431 H   0  0  0  0  0  0  0  0  0  0  0  0
    4.2140    1.9910   -2.3229 H   0  0  0  0  0  0  0  0  0  0  0  0
    3.1345    0.6251   -2.5427 H   0  0  0  0  0  0  0  0  0  0  0  0
    3.8451   -0.8111    0.8911 H   0  0  0  0  0  0  0  0  0  0  0  0
    2.5527    0.3675    0.7501 H   0  0  0  0  0  0  0  0  0  0  0  0
    1.8103   -0.7812   -1.3947 H   0  0  0  0  0  0  0  0  0  0  0  0
    5.7821    0.3813   -1.7021 H   0  0  0  0  0  0  0  0  0  0  0  0
  1 11  1  0  0  0  0
  1  5  1  0  0  0  0
  2  8  1  0  0  0  0
  2 15  1  0  0  0  0
  3 18  1  0  0  0  0
  3 19  1  0  0  0  0
  4 20  1  0  0  0  0
  4 22  1  0  0  0  0
  5 23  1  0  0  0  0
  5 24  1  0  0  0  0
  6  5  1  0  0  0  0
  6  9  1  0  0  0  0
  7 28  1  0  0  0  0
  7 27  1  0  0  0  0
  8  7  1  0  0  0  0
  8  3  1  0  0  0  0
  9 10  1  6  0  0  0
  9  7  1  0  0  0  0
  9  4  1  0  0  0  0
 12  1  1  0  0  0  0
 13  1  1  0  0  0  0
 14  2  1  0  0  0  0
 16  2  1  0  0  0  0
 17  3  1  0  0  0  0
 21  4  1  0  0  0  0
 25  6  1  0  0  0  0
 26  6  1  0  0  0  0
 29  8  1  0  0  0  0
 30 10  1  0  0  0  0
M  END
>  <HBA>
1

>  <HBD>
1

>  <TPSA>
20.23

>  <cid>
29654

>  <dipole>
1.68

>  <excitation_energy_1>
6.357

>  <excitation_energy_2>
6.91

>  <excitation_energy_3>
7.134

>  <excitation_energy_4>
7.237

>  <homo_energy>
-6.988

>  <homo_lumo_gap>
8.825

>  <logP>
2.584

>  <lumo_energy>
1.837

>  <melting_point>
1.09

>  <molecular_refractivity>
46.58

>  <oscillator_strength_1>
0.0193

>  <oscillator_strength_2>
0.0045

>  <oscillator_strength_3>
0.0011

>  <oscillator_strength_4>
0.0016

>  <open_babel_can_smiles>
CCC[C@@](CC(C)C)(O)C

>  <mulliken_charges>
30
1   -0.442678
2   -0.437522
3   -0.443118
4   -0.460315
5   -0.26223
6   -0.27381
7   -0.259439
8   -0.077996
9   0.305448
10   -0.637688
11   0.143322
12   0.144234
13   0.141798
14   0.125237
15   0.133511
16   0.169477
17   0.138596
18   0.133905
19   0.138814
20   0.143725
21   0.125922
22   0.154853
23   0.141543
24   0.13531
25   0.108801
26   0.146578
27   0.135593
28   0.126222
29   0.120669
30   0.381239

>  <lowdin_charges>
30
1   -0.445708
2   -0.453092
3   -0.446943
4   -0.461038
5   -0.279534
6   -0.293928
7   -0.283578
8   -0.122436
9   0.11901
10   -0.460794
11   0.150685
12   0.148503
13   0.147516
14   0.141646
15   0.145502
16   0.162446
17   0.148352
18   0.144431
19   0.146093
20   0.152402
21   0.143378
22   0.158079
23   0.144592
24   0.14201
25   0.133843
26   0.149553
27   0.149898
28   0.145394
29   0.135572
30   0.338148

$$$$

