PCCDB-ID:  17257
public computational chemistry database (PCCDB) project, http://pccdb.org

 30 29  0  0  0  0  0  0  0  0999 V2000
    0.5677   -0.6981    0.5022 C   0  0  0  0  0  0  0  0  0  0  0  0
   11.5576    2.6965    2.6250 C   0  0  0  0  0  0  0  0  0  0  0  0
    2.0716   -0.5309    0.2620 C   0  0  0  0  0  0  0  0  0  0  0  0
   10.8508    1.6062    2.9298 C   0  0  0  0  0  0  0  0  0  0  0  0
    2.8720   -0.3310    1.5556 C   0  0  0  0  0  0  0  0  0  0  0  0
    4.3792   -0.1665    1.3237 C   0  0  0  0  0  0  0  0  0  0  0  0
    5.1781    0.0332    2.6185 C   0  0  0  0  0  0  0  0  0  0  0  0
    6.6840    0.2026    2.3763 C   0  0  0  0  0  0  0  0  0  0  0  0
    7.4567    0.3911    3.6782 C   0  0  0  0  0  0  0  0  0  0  0  0
    9.3829    1.6882    3.1451 C   0  0  0  0  0  0  0  0  0  0  0  0
    8.7150    2.7012    3.0709 O   0  0  0  0  0  0  0  0  0  0  0  0
    8.8818    0.4660    3.4451 O   0  0  0  0  0  0  0  0  0  0  0  0
    0.0246   -0.8390   -0.4393 H   0  0  0  0  0  0  0  0  0  0  0  0
    0.1459    0.1829    1.0016 H   0  0  0  0  0  0  0  0  0  0  0  0
    0.3626   -1.5678    1.1387 H   0  0  0  0  0  0  0  0  0  0  0  0
   12.6308    2.6555    2.4655 H   0  0  0  0  0  0  0  0  0  0  0  0
   11.0659    3.6606    2.5305 H   0  0  0  0  0  0  0  0  0  0  0  0
    2.2433    0.3256   -0.4054 H   0  0  0  0  0  0  0  0  0  0  0  0
    2.4581   -1.4120   -0.2698 H   0  0  0  0  0  0  0  0  0  0  0  0
   11.3074    0.6262    3.0320 H   0  0  0  0  0  0  0  0  0  0  0  0
    2.6976   -1.1868    2.2251 H   0  0  0  0  0  0  0  0  0  0  0  0
    2.4870    0.5522    2.0869 H   0  0  0  0  0  0  0  0  0  0  0  0
    4.5537    0.6895    0.6556 H   0  0  0  0  0  0  0  0  0  0  0  0
    4.7645   -1.0496    0.7929 H   0  0  0  0  0  0  0  0  0  0  0  0
    5.0066   -0.8245    3.2859 H   0  0  0  0  0  0  0  0  0  0  0  0
    4.7923    0.9156    3.1493 H   0  0  0  0  0  0  0  0  0  0  0  0
    6.8625    1.0729    1.7336 H   0  0  0  0  0  0  0  0  0  0  0  0
    7.0817   -0.6758    1.8510 H   0  0  0  0  0  0  0  0  0  0  0  0
    7.3323   -0.4695    4.3416 H   0  0  0  0  0  0  0  0  0  0  0  0
    7.1351    1.2982    4.1972 H   0  0  0  0  0  0  0  0  0  0  0  0
  1 14  1  0  0  0  0
  1 15  1  0  0  0  0
  2  4  2  0  0  0  0
  3  1  1  0  0  0  0
  3  5  1  0  0  0  0
  4 20  1  0  0  0  0
  4 10  1  0  0  0  0
  5 22  1  0  0  0  0
  5 21  1  0  0  0  0
  6  5  1  0  0  0  0
  6  7  1  0  0  0  0
  7 26  1  0  0  0  0
  7 25  1  0  0  0  0
  8  7  1  0  0  0  0
  8  9  1  0  0  0  0
  9 30  1  0  0  0  0
  9 29  1  0  0  0  0
 10 12  1  0  0  0  0
 11 10  2  0  0  0  0
 12  9  1  0  0  0  0
 13  1  1  0  0  0  0
 16  2  1  0  0  0  0
 17  2  1  0  0  0  0
 18  3  1  0  0  0  0
 19  3  1  0  0  0  0
 23  6  1  0  0  0  0
 24  6  1  0  0  0  0
 27  8  1  0  0  0  0
 28  8  1  0  0  0  0
M  END
>  <HBA>
2

>  <HBD>
0

>  <TPSA>
26.3

>  <cid>
17257

>  <dipole>
1.42

>  <excitation_energy_1>
4.743

>  <excitation_energy_2>
5.99

>  <excitation_energy_3>
6.211

>  <excitation_energy_4>
6.718

>  <homo_energy>
-7.355

>  <homo_lumo_gap>
6.204

>  <logP>
2.686

>  <lumo_energy>
-1.151

>  <melting_point>
-37.38

>  <molecular_refractivity>
50.99

>  <oscillator_strength_1>
0.0002

>  <oscillator_strength_2>
0.0593

>  <oscillator_strength_3>
0.4185

>  <oscillator_strength_4>
0.0209

>  <open_babel_can_smiles>
CCCCCCCOC(=O)C=C

>  <mulliken_charges>
30
1   -0.441596
2   -0.303058
3   -0.247325
4   -0.133274
5   -0.246925
6   -0.252325
7   -0.264844
8   -0.279
9   -0.044169
10   0.608236
11   -0.494091
12   -0.477503
13   0.142084
14   0.141838
15   0.141014
16   0.156517
17   0.180104
18   0.131487
19   0.130132
20   0.15305
21   0.126306
22   0.128395
23   0.132796
24   0.128751
25   0.128674
26   0.137185
27   0.160699
28   0.141112
29   0.148095
30   0.167637

>  <lowdin_charges>
30
1   -0.445779
2   -0.264772
3   -0.273199
4   -0.18559
5   -0.275839
6   -0.2741
7   -0.274819
8   -0.287956
9   -0.132138
10   0.196383
11   -0.276547
12   -0.19343
13   0.149542
14   0.147176
15   0.14655
16   0.166634
17   0.179092
18   0.139955
19   0.139407
20   0.169447
21   0.13762
22   0.138836
23   0.141087
24   0.139144
25   0.138526
26   0.142921
27   0.156305
28   0.146479
29   0.150862
30   0.158207

$$$$

