PCCDB-ID:  50591
public computational chemistry database (PCCDB) project, http://pccdb.org

 17 18  0  0  0  0  0  0  0  0999 V2000
    2.1284   -0.6890   -0.0186 C   0  0  0  0  0  0  0  0  0  0  0  0
    2.1081    0.7224    0.0177 C   0  0  0  0  0  0  0  0  0  0  0  0
    0.9491   -1.4208   -0.0243 C   0  0  0  0  0  0  0  0  0  0  0  0
    0.9125    1.4291    0.0484 C   0  0  0  0  0  0  0  0  0  0  0  0
   -2.4267   -0.0119    0.0491 C   0  0  0  0  0  0  0  0  0  0  0  0
   -0.2740   -0.7308    0.0064 C   0  0  0  0  0  0  0  0  0  0  0  0
   -0.2783    0.6915    0.0439 C   0  0  0  0  0  0  0  0  0  0  0  0
   -1.6485   -1.1410    0.0113 C   0  0  0  0  0  0  0  0  0  0  0  0
   -1.5902    1.1038    0.0717 N   0  0  0  0  0  0  0  0  0  0  0  0
   -2.0199   -2.4584   -0.0172 O   0  0  0  0  0  0  0  0  0  0  0  0
    3.0836   -1.2060   -0.0426 H   0  0  0  0  0  0  0  0  0  0  0  0
    3.0476    1.2684    0.0204 H   0  0  0  0  0  0  0  0  0  0  0  0
    0.9635   -2.5063   -0.0533 H   0  0  0  0  0  0  0  0  0  0  0  0
    0.9017    2.5158    0.0768 H   0  0  0  0  0  0  0  0  0  0  0  0
   -3.5020    0.0979    0.0613 H   0  0  0  0  0  0  0  0  0  0  0  0
   -1.9041    2.0605    0.0833 H   0  0  0  0  0  0  0  0  0  0  0  0
   -2.9875   -2.5110   -0.0136 H   0  0  0  0  0  0  0  0  0  0  0  0
  1  2  1  0  0  0  0
  2 12  1  0  0  0  0
  2  4  2  0  0  0  0
  3  1  2  0  0  0  0
  3  6  1  0  0  0  0
  4 14  1  0  0  0  0
  5 15  1  0  0  0  0
  5  9  1  0  0  0  0
  6  8  1  0  0  0  0
  6  7  2  0  0  0  0
  7  4  1  0  0  0  0
  7  9  1  0  0  0  0
  8  5  2  0  0  0  0
  9 16  1  0  0  0  0
 10 17  1  0  0  0  0
 10  8  1  0  0  0  0
 11  1  1  0  0  0  0
 13  3  1  0  0  0  0
M  END
>  <HBA>
1

>  <HBD>
2

>  <TPSA>
36.02

>  <cid>
50591

>  <dipole>
3.2

>  <excitation_energy_1>
4.237

>  <excitation_energy_2>
4.267

>  <excitation_energy_3>
4.446

>  <excitation_energy_4>
4.766

>  <homo_energy>
-4.977

>  <homo_lumo_gap>
4.944

>  <logP>
1.873

>  <lumo_energy>
-0.033

>  <melting_point>
135.9

>  <molecular_refractivity>
40.32

>  <oscillator_strength_1>
0.0015

>  <oscillator_strength_2>
0.0645

>  <oscillator_strength_3>
0.0001

>  <oscillator_strength_4>
0.0076

>  <open_babel_can_smiles>
Oc1c[nH]c2c1cccc2

>  <mulliken_charges>
17
1   -0.143275
2   -0.150611
3   -0.194306
4   -0.163893
5   -0.003835
6   0.114629
7   0.31364
8   0.211872
9   -0.701318
10   -0.648106
11   0.119577
12   0.12128
13   0.136862
14   0.118592
15   0.138323
16   0.325328
17   0.405242

>  <lowdin_charges>
17
1   -0.179622
2   -0.163281
3   -0.149474
4   -0.186859
5   -0.195251
6   -0.048177
7   0.035585
8   0.047613
9   -0.206562
10   -0.383093
11   0.154239
12   0.155081
13   0.161414
14   0.152193
15   0.159563
16   0.289304
17   0.357328

$$$$

