PCCDB-ID:  12812
public computational chemistry database (PCCDB) project, http://pccdb.org

 23 23  0  0  0  0  0  0  0  0999 V2000
   -0.9358   -4.6608   -0.1024 C   0  0  0  0  0  0  0  0  0  0  0  0
   -1.5429   -3.7695    0.7829 C   0  0  0  0  0  0  0  0  0  0  0  0
    0.1876   -4.2601   -0.8309 C   0  0  0  0  0  0  0  0  0  0  0  0
   -1.0258   -2.4821    0.9405 C   0  0  0  0  0  0  0  0  0  0  0  0
    0.6965   -2.9719   -0.6762 C   0  0  0  0  0  0  0  0  0  0  0  0
    0.6612   -0.6849    0.3865 C   0  0  0  0  0  0  0  0  0  0  0  0
    0.0944   -2.0693    0.2109 C   0  0  0  0  0  0  0  0  0  0  0  0
    2.8693    0.6159    2.6970 C   0  0  0  0  0  0  0  0  0  0  0  0
    3.8794    1.3757    2.9040 N   0  0  0  0  0  0  0  0  0  0  0  0
    2.0421   -0.0236    3.6063 N   0  0  0  0  0  0  0  0  0  0  0  0
    2.4348    0.4880    1.3553 N   0  0  0  0  0  0  0  0  0  0  0  0
    1.9198   -0.8179    1.0804 O   0  0  0  0  0  0  0  0  0  0  0  0
   -1.3367   -5.6631   -0.2272 H   0  0  0  0  0  0  0  0  0  0  0  0
   -2.4176   -4.0749    1.3508 H   0  0  0  0  0  0  0  0  0  0  0  0
    0.6632   -4.9510   -1.5218 H   0  0  0  0  0  0  0  0  0  0  0  0
   -1.4993   -1.7890    1.6323 H   0  0  0  0  0  0  0  0  0  0  0  0
    1.5709   -2.6607   -1.2425 H   0  0  0  0  0  0  0  0  0  0  0  0
   -0.0104   -0.0435    0.9681 H   0  0  0  0  0  0  0  0  0  0  0  0
    0.8402   -0.1999   -0.5827 H   0  0  0  0  0  0  0  0  0  0  0  0
    4.0357    1.5213    3.9028 H   0  0  0  0  0  0  0  0  0  0  0  0
    2.4593   -0.1723    4.5154 H   0  0  0  0  0  0  0  0  0  0  0  0
    1.5972   -0.8529    3.2280 H   0  0  0  0  0  0  0  0  0  0  0  0
    3.2342    0.6457    0.7433 H   0  0  0  0  0  0  0  0  0  0  0  0
  1  2  2  0  0  0  0
  2  4  1  0  0  0  0
  2 14  1  0  0  0  0
  3  5  2  0  0  0  0
  3  1  1  0  0  0  0
  4 16  1  0  0  0  0
  5  7  1  0  0  0  0
  6 18  1  0  0  0  0
  6 12  1  0  0  0  0
  7  6  1  0  0  0  0
  7  4  2  0  0  0  0
  8  9  1  0  0  0  0
  8 10  2  0  0  0  0
  9 20  1  0  0  0  0
 10 21  1  0  0  0  0
 11  8  1  0  0  0  0
 12 11  1  0  0  0  0
 13  1  1  0  0  0  0
 15  3  1  0  0  0  0
 17  5  1  0  0  0  0
 19  6  1  0  0  0  0
 22 10  1  0  0  0  0
 23 11  1  0  0  0  0
M  RAD  1   9   2
M  END
>  <HBA>
4

>  <HBD>
2

>  <TPSA>
73.63

>  <cid>
12812

>  <dipole>
3.25

>  <excitation_energy_1>
5.131

>  <excitation_energy_2>
5.303

>  <excitation_energy_3>
5.41

>  <excitation_energy_4>
5.582

>  <homo_energy>
-6.123

>  <homo_lumo_gap>
5.698

>  <logP>
1.792

>  <lumo_energy>
-0.425

>  <melting_point>
126.24

>  <molecular_refractivity>
46.4

>  <oscillator_strength_1>
0.0033

>  <oscillator_strength_2>
0.0015

>  <oscillator_strength_3>
0.0055

>  <oscillator_strength_4>
0.0013

>  <open_babel_can_smiles>
[NH]C(=[NH2])NOCc1ccccc1

>  <mulliken_charges>
23
1   -0.126135
2   -0.128841
3   -0.130243
4   -0.181278
5   -0.157026
6   -0.076645
7   0.132255
8   0.576879
9   -0.647207
10   -0.743055
11   -0.340087
12   -0.419195
13   0.133563
14   0.133432
15   0.134397
16   0.131581
17   0.135816
18   0.150607
19   0.142913
20   0.271648
21   0.322978
22   0.343474
23   0.340168

>  <lowdin_charges>
23
1   -0.150939
2   -0.155525
3   -0.155063
4   -0.161837
5   -0.149836
6   -0.129158
7   -0.019589
8   0.117842
9   -0.46973
10   -0.493828
11   -0.185479
12   -0.237356
13   0.158879
14   0.159879
15   0.1612
16   0.159071
17   0.161651
18   0.148778
19   0.142796
20   0.249166
21   0.279784
22   0.287708
23   0.281587

$$$$

