PCCDB-ID:  34805
public computational chemistry database (PCCDB) project, http://pccdb.org

 21 20  0  0  0  0  0  0  0  0999 V2000
    0.8307   -1.4821   -0.3525 C   0  0  0  0  0  0  0  0  0  0  0  0
    6.7496    2.4267   -4.7203 C   0  0  0  0  0  0  0  0  0  0  0  0
    2.3165   -1.2667   -0.3744 C   0  0  0  0  0  0  0  0  0  0  0  0
    2.9307   -0.1842   -0.8584 C   0  0  0  0  0  0  0  0  0  0  0  0
    4.4292    0.0203   -0.8873 C   0  0  0  0  0  0  0  0  0  0  0  0
    4.9540    0.1097   -2.2944 C   0  0  0  0  0  0  0  0  0  0  0  0
    5.5761    1.1698   -2.8295 C   0  0  0  0  0  0  0  0  0  0  0  0
    6.0492    1.1657   -4.2423 C   0  0  0  0  0  0  0  0  0  0  0  0
    5.8875    0.2061   -4.9818 O   0  0  0  0  0  0  0  0  0  0  0  0
    0.5515   -2.3740   -0.9297 H   0  0  0  0  0  0  0  0  0  0  0  0
    0.2927   -0.6255   -0.7721 H   0  0  0  0  0  0  0  0  0  0  0  0
    0.4671   -1.6450    0.6710 H   0  0  0  0  0  0  0  0  0  0  0  0
    7.6341    2.6313   -4.1031 H   0  0  0  0  0  0  0  0  0  0  0  0
    6.0856    3.2954   -4.6227 H   0  0  0  0  0  0  0  0  0  0  0  0
    7.0504    2.3112   -5.7632 H   0  0  0  0  0  0  0  0  0  0  0  0
    2.9242   -2.0708    0.0457 H   0  0  0  0  0  0  0  0  0  0  0  0
    2.3346    0.6237   -1.2855 H   0  0  0  0  0  0  0  0  0  0  0  0
    4.9141   -0.8228   -0.3744 H   0  0  0  0  0  0  0  0  0  0  0  0
    4.6990    0.9318   -0.3358 H   0  0  0  0  0  0  0  0  0  0  0  0
    4.7946   -0.7570   -2.9356 H   0  0  0  0  0  0  0  0  0  0  0  0
    5.7564    2.0666   -2.2374 H   0  0  0  0  0  0  0  0  0  0  0  0
  1 12  1  0  0  0  0
  2 14  1  0  0  0  0
  2  8  1  0  0  0  0
  2 13  1  0  0  0  0
  3  1  1  0  0  0  0
  3 16  1  0  0  0  0
  4  3  2  0  0  0  0
  5  4  1  0  0  0  0
  5 18  1  0  0  0  0
  5 19  1  0  0  0  0
  6  5  1  0  0  0  0
  7  6  2  0  0  0  0
  7 21  1  0  0  0  0
  8  7  1  0  0  0  0
  9  8  2  0  0  0  0
 10  1  1  0  0  0  0
 11  1  1  0  0  0  0
 15  2  1  0  0  0  0
 17  4  1  0  0  0  0
 20  6  1  0  0  0  0
M  END
>  <HBA>
1

>  <HBD>
0

>  <TPSA>
17.07

>  <cid>
34805

>  <dipole>
2.88

>  <excitation_energy_1>
3.682

>  <excitation_energy_2>
4.617

>  <excitation_energy_3>
5.562

>  <excitation_energy_4>
6.165

>  <homo_energy>
-6.531

>  <homo_lumo_gap>
5.233

>  <logP>
2.098

>  <lumo_energy>
-1.298

>  <melting_point>
13.08

>  <molecular_refractivity>
39.82

>  <oscillator_strength_1>
0.0003

>  <oscillator_strength_2>
0.0897

>  <oscillator_strength_3>
0.4183

>  <oscillator_strength_4>
0.0054

>  <open_babel_can_smiles>
C/C=C/C/C=C/C(=O)C

>  <mulliken_charges>
21
1   -0.487468
2   -0.53786
3   -0.087138
4   -0.087469
5   -0.363844
6   -0.051213
7   -0.191382
8   0.435141
9   -0.459718
10   0.159386
11   0.154788
12   0.156495
13   0.167157
14   0.166776
15   0.177534
16   0.122068
17   0.126132
18   0.157822
19   0.150895
20   0.169439
21   0.122458

>  <lowdin_charges>
21
1   -0.43906
2   -0.474882
3   -0.158881
4   -0.172427
5   -0.268854
6   -0.089205
7   -0.229322
8   0.161568
9   -0.25224
10   0.159692
11   0.156839
12   0.156989
13   0.168698
14   0.168445
15   0.170617
16   0.148567
17   0.151382
18   0.161416
19   0.154168
20   0.173614
21   0.152876

$$$$

