PCCDB-ID:  3780
public computational chemistry database (PCCDB) project, http://pccdb.org

 24 25  0  0  1  0  0  0  0  0999 V2000
   -1.5751    0.4352    1.3142 C   0  0  0  0  0  0  0  0  0  0  0  0
    1.5581   -0.6653    1.2264 C   0  0  0  0  0  0  0  0  0  0  0  0
   -1.6486   -0.6211    0.2157 C   0  0  2  0  0  0  0  0  0  0  0  0
    1.6735    0.6552    0.4699 C   0  0  2  0  0  0  0  0  0  0  0  0
   -0.2107   -0.6286   -0.3244 C   0  0  1  0  0  0  0  0  0  0  0  0
    0.2598    0.8226   -0.1072 C   0  0  1  0  0  0  0  0  0  0  0  0
   -3.8611   -0.3341   -0.7058 N   0  0  0  0  0  0  0  0  0  0  0  0
    3.9240    0.6265   -0.3998 N   0  0  0  0  0  0  0  0  0  0  0  0
   -4.2323   -0.7912    0.3565 O   0  0  0  0  0  0  0  0  0  0  0  0
   -4.5007    0.0286   -1.6589 O   0  0  0  0  0  0  0  0  0  0  0  0
    4.2460    0.7629    0.7634 O   0  0  0  0  0  0  0  0  0  0  0  0
    4.6064    0.5454   -1.3882 O   0  0  0  0  0  0  0  0  0  0  0  0
   -0.5965    1.3894    0.8838 O   0  0  0  0  0  0  0  0  0  0  0  0
    0.6071   -1.4552    0.5026 O   0  0  0  0  0  0  0  0  0  0  0  0
   -2.4578   -0.1902   -0.9047 O   0  0  0  0  0  0  0  0  0  0  0  0
    2.5321    0.5482   -0.6907 O   0  0  0  0  0  0  0  0  0  0  0  0
   -1.2702   -0.0366    2.2589 H   0  0  0  0  0  0  0  0  0  0  0  0
   -2.5202    0.9580    1.4740 H   0  0  0  0  0  0  0  0  0  0  0  0
    1.2071   -0.4730    2.2500 H   0  0  0  0  0  0  0  0  0  0  0  0
    2.4977   -1.2192    1.2781 H   0  0  0  0  0  0  0  0  0  0  0  0
   -1.9731   -1.6039    0.5574 H   0  0  0  0  0  0  0  0  0  0  0  0
    1.9794    1.5007    1.0861 H   0  0  0  0  0  0  0  0  0  0  0  0
   -0.1562   -0.9752   -1.3601 H   0  0  0  0  0  0  0  0  0  0  0  0
    0.2464    1.4454   -1.0059 H   0  0  0  0  0  0  0  0  0  0  0  0
  1 18  1  0  0  0  0
  1 17  1  0  0  0  0
  2 20  1  0  0  0  0
  2 19  1  0  0  0  0
  3 21  1  1  0  0  0
  3  1  1  0  0  0  0
  4 22  1  1  0  0  0
  4  2  1  0  0  0  0
  5 23  1  6  0  0  0
  5  6  1  0  0  0  0
  5  3  1  0  0  0  0
  5 14  1  0  0  0  0
  6 24  1  6  0  0  0
  6  4  1  0  0  0  0
  6 13  1  0  0  0  0
  7  9  2  0  0  0  0
  8 11  2  0  0  0  0
 10  7  2  0  0  0  0
 12  8  2  0  0  0  0
 13  1  1  0  0  0  0
 14  2  1  0  0  0  0
 15  7  1  0  0  0  0
 15  3  1  0  0  0  0
 16  8  1  0  0  0  0
 16  4  1  0  0  0  0
M  END
>  <HBA>
2

>  <HBD>
0

>  <TPSA>
128.56

>  <cid>
3780

>  <dipole>
2.05

>  <excitation_energy_1>
4.669

>  <excitation_energy_2>
4.67

>  <excitation_energy_3>
4.843

>  <excitation_energy_4>
4.844

>  <homo_energy>
-7.818

>  <homo_lumo_gap>
5.663

>  <logP>
-0.016

>  <lumo_energy>
-2.155

>  <melting_point>
49.0

>  <molecular_refractivity>
47.28

>  <oscillator_strength_1>
0.0005

>  <oscillator_strength_2>
0.0003

>  <oscillator_strength_3>
0.0062

>  <oscillator_strength_4>
0.0027

>  <open_babel_can_smiles>
O=N(=O)O[C@@H]1CO[C@@H]2[C@H]1OC[C@H]2ON(=O)=O

>  <mulliken_charges>
24
1   -0.034637
2   -0.034995
3   0.077497
4   0.077329
5   0.103448
6   0.103212
7   0.755845
8   0.756095
9   -0.363899
10   -0.344013
11   -0.36405
12   -0.344255
13   -0.502462
14   -0.502292
15   -0.401378
16   -0.400983
17   0.155432
18   0.178333
19   0.155342
20   0.178537
21   0.196677
22   0.196707
23   0.17927
24   0.179241

>  <lowdin_charges>
24
1   -0.141459
2   -0.140153
3   -0.034986
4   -0.036463
5   -0.015627
6   -0.017049
7   0.380499
8   0.378096
9   -0.215982
10   -0.180517
11   -0.214297
12   -0.180067
13   -0.266
14   -0.265295
15   -0.184693
16   -0.184467
17   0.14994
18   0.167282
19   0.148708
20   0.167332
21   0.175446
22   0.17675
23   0.16572
24   0.167285

$$$$

