PCCDB-ID:  8834
public computational chemistry database (PCCDB) project, http://pccdb.org

 39 38  0  0  1  0  0  0  0  0999 V2000
   10.2534    0.2683    1.7079 C   0  0  0  0  0  0  0  0  0  0  0  0
    9.0660    0.3535   -5.8273 C   0  0  0  0  0  0  0  0  0  0  0  0
    8.8846   -0.9042   -8.0232 C   0  0  0  0  0  0  0  0  0  0  0  0
    4.7472   -3.0538   -2.8031 C   0  0  0  0  0  0  0  0  0  0  0  0
    8.7955   -0.1849    1.8894 C   0  0  0  0  0  0  0  0  0  0  0  0
    6.7623   -1.5267   -4.7709 C   0  0  0  0  0  0  0  0  0  0  0  0
    7.3945   -1.5218   -6.1380 C   0  0  0  0  0  0  0  0  0  0  0  0
    6.9771   -2.8722   -4.0449 C   0  0  0  0  0  0  0  0  0  0  0  0
    6.7020   -1.9733   -1.6267 C   0  0  0  0  0  0  0  0  0  0  0  0
    8.1965   -1.9717   -1.3175 C   0  0  0  0  0  0  0  0  0  0  0  0
    8.3778   -0.7393   -6.6093 C   0  0  0  0  0  0  0  0  0  0  0  0
    6.2791   -3.0270   -2.6721 C   0  0  1  0  0  0  0  0  0  0  0  0
    8.4137   -1.3312    0.9724 C   0  0  0  0  0  0  0  0  0  0  0  0
    8.0657   -2.4336    1.3387 O   0  0  0  0  0  0  0  0  0  0  0  0
    8.5216   -0.9659   -0.3281 O   0  0  0  0  0  0  0  0  0  0  0  0
   10.4874    1.0825    2.4015 H   0  0  0  0  0  0  0  0  0  0  0  0
   10.4283    0.6231    0.6883 H   0  0  0  0  0  0  0  0  0  0  0  0
   10.9489   -0.5541    1.9082 H   0  0  0  0  0  0  0  0  0  0  0  0
    8.9312    1.3267   -6.3199 H   0  0  0  0  0  0  0  0  0  0  0  0
   10.1498    0.1762   -5.7870 H   0  0  0  0  0  0  0  0  0  0  0  0
    8.7042    0.4480   -4.8008 H   0  0  0  0  0  0  0  0  0  0  0  0
    8.7669    0.0256   -8.5978 H   0  0  0  0  0  0  0  0  0  0  0  0
    8.3572   -1.7011   -8.5570 H   0  0  0  0  0  0  0  0  0  0  0  0
    9.9583   -1.1403   -8.0343 H   0  0  0  0  0  0  0  0  0  0  0  0
    4.4265   -3.8075   -3.5322 H   0  0  0  0  0  0  0  0  0  0  0  0
    4.3490   -2.0850   -3.1275 H   0  0  0  0  0  0  0  0  0  0  0  0
    4.2777   -3.2955   -1.8426 H   0  0  0  0  0  0  0  0  0  0  0  0
    8.1220    0.6564    1.6835 H   0  0  0  0  0  0  0  0  0  0  0  0
    8.6135   -0.5216    2.9132 H   0  0  0  0  0  0  0  0  0  0  0  0
    5.6829   -1.3471   -4.8814 H   0  0  0  0  0  0  0  0  0  0  0  0
    7.1463   -0.7047   -4.1578 H   0  0  0  0  0  0  0  0  0  0  0  0
    6.9913   -2.2758   -6.8176 H   0  0  0  0  0  0  0  0  0  0  0  0
    8.0569   -3.0377   -3.9338 H   0  0  0  0  0  0  0  0  0  0  0  0
    6.6226   -3.6829   -4.6973 H   0  0  0  0  0  0  0  0  0  0  0  0
    6.4033   -0.9691   -1.9541 H   0  0  0  0  0  0  0  0  0  0  0  0
    6.1656   -2.1737   -0.6916 H   0  0  0  0  0  0  0  0  0  0  0  0
    8.7957   -1.6946   -2.1879 H   0  0  0  0  0  0  0  0  0  0  0  0
    8.5212   -2.9489   -0.9497 H   0  0  0  0  0  0  0  0  0  0  0  0
    6.5857   -4.0096   -2.2818 H   0  0  0  0  0  0  0  0  0  0  0  0
  1  5  1  0  0  0  0
  1 18  1  0  0  0  0
  1 16  1  0  0  0  0
  2 20  1  0  0  0  0
  2 21  1  0  0  0  0
  3 11  1  0  0  0  0
  4 12  1  0  0  0  0
  4 27  1  0  0  0  0
  5 29  1  0  0  0  0
  6 31  1  0  0  0  0
  6  8  1  0  0  0  0
  7  6  1  0  0  0  0
  8 33  1  0  0  0  0
  8 12  1  0  0  0  0
  9 10  1  0  0  0  0
  9 36  1  0  0  0  0
 10 38  1  0  0  0  0
 10 15  1  0  0  0  0
 11  7  2  0  0  0  0
 11  2  1  0  0  0  0
 12 39  1  1  0  0  0
 12  9  1  0  0  0  0
 13 14  2  0  0  0  0
 13  5  1  0  0  0  0
 15 13  1  0  0  0  0
 17  1  1  0  0  0  0
 19  2  1  0  0  0  0
 22  3  1  0  0  0  0
 23  3  1  0  0  0  0
 24  3  1  0  0  0  0
 25  4  1  0  0  0  0
 26  4  1  0  0  0  0
 28  5  1  0  0  0  0
 30  6  1  0  0  0  0
 32  7  1  0  0  0  0
 34  8  1  0  0  0  0
 35  9  1  0  0  0  0
 37 10  1  0  0  0  0
M  END
>  <HBA>
2

>  <HBD>
0

>  <TPSA>
26.3

>  <cid>
8834

>  <dipole>
1.91

>  <excitation_energy_1>
5.637

>  <excitation_energy_2>
5.704

>  <excitation_energy_3>
5.9

>  <excitation_energy_4>
6.075

>  <homo_energy>
-6.218

>  <homo_lumo_gap>
6.642

>  <logP>
3.712

>  <lumo_energy>
0.425

>  <melting_point>
-5.56

>  <molecular_refractivity>
65.42

>  <oscillator_strength_1>
0.0033

>  <oscillator_strength_2>
0.0017

>  <oscillator_strength_3>
0.0007

>  <oscillator_strength_4>
0.017

>  <open_babel_can_smiles>
CCC(=O)OCC[C@H](CCC=C(C)C)C

>  <mulliken_charges>
39
1   -0.452331
2   -0.514619
3   -0.505691
4   -0.451298
5   -0.331774
6   -0.309282
7   -0.161519
8   -0.265037
9   -0.280085
10   -0.05198
11   0.187113
12   -0.081392
13   0.607947
14   -0.477676
15   -0.463093
16   0.152586
17   0.167258
18   0.157402
19   0.152816
20   0.151145
21   0.153456
22   0.148678
23   0.150842
24   0.148467
25   0.141313
26   0.144303
27   0.146449
28   0.164583
29   0.168467
30   0.14352
31   0.139308
32   0.109639
33   0.135369
34   0.130754
35   0.140737
36   0.156827
37   0.152092
38   0.166366
39   0.128341

>  <lowdin_charges>
39
1   -0.439794
2   -0.44186
3   -0.438768
4   -0.446713
5   -0.292821
6   -0.277846
7   -0.19103
8   -0.277704
9   -0.289982
10   -0.135718
11   -0.01159
12   -0.123424
13   0.197548
14   -0.269356
15   -0.199367
16   0.155729
17   0.158663
18   0.15519
19   0.155208
20   0.152826
21   0.153355
22   0.152206
23   0.155217
24   0.150345
25   0.149652
26   0.146728
27   0.151509
28   0.166014
29   0.164591
30   0.14691
31   0.145458
32   0.14529
33   0.139756
34   0.143304
35   0.144036
36   0.157062
37   0.151765
38   0.156796
39   0.140813

$$$$

