PCCDB-ID:  11270
public computational chemistry database (PCCDB) project, http://pccdb.org

 24 23  0  0  0  0  0  0  0  0999 V2000
    3.0446    1.6791    0.3708 C   0  0  0  0  0  0  0  0  0  0  0  0
    3.0118   -0.1265   -1.4488 C   0  0  0  0  0  0  0  0  0  0  0  0
    5.6646   -0.4559    0.5907 C   0  0  0  0  0  0  0  0  0  0  0  0
    4.9555   -2.1320    2.2921 C   0  0  0  0  0  0  0  0  0  0  0  0
    2.0334   -1.4778    1.7606 C   0  0  0  0  0  0  0  0  0  0  0  0
    2.6823    0.2224    0.0167 C   0  0  0  0  0  0  0  0  0  0  0  0
    4.4838   -1.1044    1.2832 C   0  0  0  0  0  0  0  0  0  0  0  0
    3.1887   -0.8129    1.0389 C   0  0  0  0  0  0  0  0  0  0  0  0
    2.5251    2.3742   -0.3008 H   0  0  0  0  0  0  0  0  0  0  0  0
    4.1168    1.8806    0.2892 H   0  0  0  0  0  0  0  0  0  0  0  0
    2.7429    1.9162    1.3976 H   0  0  0  0  0  0  0  0  0  0  0  0
    2.4905    0.5592   -2.1287 H   0  0  0  0  0  0  0  0  0  0  0  0
    2.6882   -1.1461   -1.6876 H   0  0  0  0  0  0  0  0  0  0  0  0
    4.0810   -0.0611   -1.6706 H   0  0  0  0  0  0  0  0  0  0  0  0
    6.3417   -0.0085    1.3326 H   0  0  0  0  0  0  0  0  0  0  0  0
    5.3992    0.3219   -0.1223 H   0  0  0  0  0  0  0  0  0  0  0  0
    6.2567   -1.2114    0.0543 H   0  0  0  0  0  0  0  0  0  0  0  0
    5.5700   -1.6537    3.0686 H   0  0  0  0  0  0  0  0  0  0  0  0
    5.6039   -2.8741    1.8048 H   0  0  0  0  0  0  0  0  0  0  0  0
    4.1553   -2.6763    2.7944 H   0  0  0  0  0  0  0  0  0  0  0  0
    1.3727   -1.9850    1.0427 H   0  0  0  0  0  0  0  0  0  0  0  0
    1.4131   -0.7224    2.2641 H   0  0  0  0  0  0  0  0  0  0  0  0
    2.3269   -2.2121    2.5118 H   0  0  0  0  0  0  0  0  0  0  0  0
    1.5864    0.1779    0.0801 H   0  0  0  0  0  0  0  0  0  0  0  0
  1 11  1  0  0  0  0
  2  6  1  0  0  0  0
  3  7  1  0  0  0  0
  3 15  1  0  0  0  0
  4 20  1  0  0  0  0
  4 18  1  0  0  0  0
  5 22  1  0  0  0  0
  5 23  1  0  0  0  0
  6 24  1  0  0  0  0
  6  1  1  0  0  0  0
  6  8  1  0  0  0  0
  7  4  1  0  0  0  0
  8  7  2  0  0  0  0
  8  5  1  0  0  0  0
  9  1  1  0  0  0  0
 10  1  1  0  0  0  0
 12  2  1  0  0  0  0
 13  2  1  0  0  0  0
 14  2  1  0  0  0  0
 16  3  1  0  0  0  0
 17  3  1  0  0  0  0
 19  4  1  0  0  0  0
 21  5  1  0  0  0  0
M  END
>  <HBA>
0

>  <HBD>
0

>  <TPSA>
0.0

>  <cid>
11270

>  <dipole>
0.05

>  <excitation_energy_1>
5.443

>  <excitation_energy_2>
5.886

>  <excitation_energy_3>
5.93

>  <excitation_energy_4>
6.076

>  <homo_energy>
-5.897

>  <homo_lumo_gap>
6.865

>  <logP>
2.999

>  <lumo_energy>
0.969

>  <melting_point>
-11.26

>  <molecular_refractivity>
40.1

>  <oscillator_strength_1>
0.0

>  <oscillator_strength_2>
0.0031

>  <oscillator_strength_3>
0.0043

>  <oscillator_strength_4>
0.1082

>  <open_babel_can_smiles>
CC(C(=C(C)C)C)C

>  <mulliken_charges>
24
1   -0.441375
2   -0.441382
3   -0.508128
4   -0.507487
5   -0.524959
6   -0.137387
7   0.116859
8   0.118349
9   0.136169
10   0.147101
11   0.143484
12   0.135934
13   0.14344
14   0.146779
15   0.146313
16   0.154489
17   0.147218
18   0.148243
19   0.147299
20   0.151524
21   0.150439
22   0.150551
23   0.149638
24   0.126891

>  <lowdin_charges>
24
1   -0.442331
2   -0.442777
3   -0.448829
4   -0.4471
5   -0.447495
6   -0.117785
7   -0.027865
8   -0.034131
9   0.146651
10   0.146722
11   0.14897
12   0.146626
13   0.149113
14   0.147012
15   0.153197
16   0.1563
17   0.153555
18   0.153114
19   0.152856
20   0.154849
21   0.153167
22   0.153253
23   0.15269
24   0.140235

$$$$

