PCCDB-ID:  24768
public computational chemistry database (PCCDB) project, http://pccdb.org

 22 21  0  0  0  0  0  0  0  0999 V2000
    2.2384    0.1231    1.5489 C   0  0  0  0  0  0  0  0  0  0  0  0
    1.3236   -1.3656   -0.2752 C   0  0  0  0  0  0  0  0  0  0  0  0
    3.1737    0.2520   -0.8365 C   0  0  0  0  0  0  0  0  0  0  0  0
    4.5157    0.8612   -0.4502 C   0  0  0  0  0  0  0  0  0  0  0  0
    2.5719   -0.6499    0.2626 C   0  0  0  0  0  0  0  0  0  0  0  0
    4.7619    0.6469   -3.7564 O   0  0  0  0  0  0  0  0  0  0  0  0
    6.6121    2.2545   -3.2814 O   0  0  0  0  0  0  0  0  0  0  0  0
    6.5648   -0.0902   -2.2652 O   0  0  0  0  0  0  0  0  0  0  0  0
    5.0367    1.7529   -1.4918 O   0  0  0  0  0  0  0  0  0  0  0  0
    5.9120    1.1285   -2.6967 S   0  0  0  0  0  0  0  0  0  0  0  0
    1.7823   -0.5410    2.2919 H   0  0  0  0  0  0  0  0  0  0  0  0
    1.5249    0.9324    1.3452 H   0  0  0  0  0  0  0  0  0  0  0  0
    3.1253    0.5683    2.0135 H   0  0  0  0  0  0  0  0  0  0  0  0
    0.9025   -2.0415    0.4779 H   0  0  0  0  0  0  0  0  0  0  0  0
    1.5552   -1.9581   -1.1678 H   0  0  0  0  0  0  0  0  0  0  0  0
    0.5438   -0.6420   -0.5460 H   0  0  0  0  0  0  0  0  0  0  0  0
    3.3044   -0.3377   -1.7511 H   0  0  0  0  0  0  0  0  0  0  0  0
    2.4708    1.0619   -1.0754 H   0  0  0  0  0  0  0  0  0  0  0  0
    5.2695    0.0984   -0.2396 H   0  0  0  0  0  0  0  0  0  0  0  0
    4.4354    1.5283    0.4097 H   0  0  0  0  0  0  0  0  0  0  0  0
    3.3176   -1.4204    0.5113 H   0  0  0  0  0  0  0  0  0  0  0  0
    4.4988    1.4292   -4.2778 H   0  0  0  0  0  0  0  0  0  0  0  0
  1 13  1  0  0  0  0
  1 11  1  0  0  0  0
  2  5  1  0  0  0  0
  2 14  1  0  0  0  0
  3  4  1  0  0  0  0
  3  5  1  0  0  0  0
  4 19  1  0  0  0  0
  4 20  1  0  0  0  0
  5 21  1  0  0  0  0
  5  1  1  0  0  0  0
  6 10  1  0  0  0  0
  7 10  2  0  0  0  0
  9  4  1  0  0  0  0
 10  8  2  0  0  0  0
 10  9  1  0  0  0  0
 12  1  1  0  0  0  0
 15  2  1  0  0  0  0
 16  2  1  0  0  0  0
 17  3  1  0  0  0  0
 18  3  1  0  0  0  0
 22  6  1  0  0  0  0
M  END
>  <HBA>
4

>  <HBD>
1

>  <TPSA>
71.98

>  <cid>
24768

>  <dipole>
4.04

>  <excitation_energy_1>
7.138

>  <excitation_energy_2>
7.409

>  <excitation_energy_3>
7.749

>  <excitation_energy_4>
7.954

>  <homo_energy>
-8.476

>  <homo_lumo_gap>
8.947

>  <logP>
1.933

>  <lumo_energy>
0.471

>  <melting_point>
48.48

>  <molecular_refractivity>
37.77

>  <oscillator_strength_1>
0.0003

>  <oscillator_strength_2>
0.003

>  <oscillator_strength_3>
0.0006

>  <oscillator_strength_4>
0.0131

>  <open_babel_can_smiles>
CC(CCOS(=O)(=O)O)C

>  <mulliken_charges>
22
1   -0.45035
2   -0.443325
3   -0.278074
4   -0.074339
5   -0.080354
6   -0.626414
7   -0.481332
8   -0.495157
9   -0.516138
10   1.320578
11   0.149933
12   0.14441
13   0.143844
14   0.146158
15   0.148154
16   0.1423
17   0.167889
18   0.142682
19   0.188505
20   0.174777
21   0.132867
22   0.443386

>  <lowdin_charges>
22
1   -0.450723
2   -0.444743
3   -0.292852
4   -0.130565
5   -0.121256
6   -0.566202
7   -0.545986
8   -0.54317
9   -0.399679
10   1.422184
11   0.155149
12   0.149027
13   0.148227
14   0.152634
15   0.152036
16   0.148367
17   0.15998
18   0.148804
19   0.168021
20   0.164405
21   0.141034
22   0.385307

$$$$

