PCCDB-ID:  66912
public computational chemistry database (PCCDB) project, http://pccdb.org

 28 28  0  0  0  0  0  0  0  0999 V2000
   -0.7263    1.1056    0.3508 C   0  0  0  0  0  0  0  0  0  0  0  0
   -1.4334   -0.0948    0.3876 C   0  0  0  0  0  0  0  0  0  0  0  0
    1.3418   -0.0785    0.7407 C   0  0  0  0  0  0  0  0  0  0  0  0
    0.6344   -1.2787    0.7794 C   0  0  0  0  0  0  0  0  0  0  0  0
    2.9936    3.9417    0.6414 C   0  0  0  0  0  0  0  0  0  0  0  0
   -3.1169   -4.0872    0.7375 C   0  0  0  0  0  0  0  0  0  0  0  0
    2.6657    2.4571    0.6802 C   0  0  0  0  0  0  0  0  0  0  0  0
   -2.7690   -2.6198    0.5413 C   0  0  0  0  0  0  0  0  0  0  0  0
    0.6600    1.1257    0.5261 C   0  0  0  0  0  0  0  0  0  0  0  0
   -0.7518   -1.2988    0.6045 C   0  0  0  0  0  0  0  0  0  0  0  0
    2.3161    4.6536    1.6603 O   0  0  0  0  0  0  0  0  0  0  0  0
   -2.7198   -4.5525    2.0142 O   0  0  0  0  0  0  0  0  0  0  0  0
    1.2587    2.3593    0.4638 O   0  0  0  0  0  0  0  0  0  0  0  0
   -1.3489   -2.5339    0.6509 O   0  0  0  0  0  0  0  0  0  0  0  0
   -1.2445    2.0447    0.1829 H   0  0  0  0  0  0  0  0  0  0  0  0
   -2.5077   -0.0784    0.2451 H   0  0  0  0  0  0  0  0  0  0  0  0
    2.4167   -0.0955    0.8785 H   0  0  0  0  0  0  0  0  0  0  0  0
    1.1530   -2.2181    0.9445 H   0  0  0  0  0  0  0  0  0  0  0  0
    2.7537    4.3372   -0.3587 H   0  0  0  0  0  0  0  0  0  0  0  0
    4.0660    4.0826    0.8121 H   0  0  0  0  0  0  0  0  0  0  0  0
   -2.6567   -4.6777   -0.0711 H   0  0  0  0  0  0  0  0  0  0  0  0
   -4.2024   -4.2159    0.6740 H   0  0  0  0  0  0  0  0  0  0  0  0
    2.9272    2.0380    1.6614 H   0  0  0  0  0  0  0  0  0  0  0  0
    3.2164    1.9115   -0.1002 H   0  0  0  0  0  0  0  0  0  0  0  0
   -3.2455   -2.0108    1.3215 H   0  0  0  0  0  0  0  0  0  0  0  0
   -3.1038   -2.2642   -0.4443 H   0  0  0  0  0  0  0  0  0  0  0  0
    1.3771    4.4241    1.5655 H   0  0  0  0  0  0  0  0  0  0  0  0
   -1.7795   -4.3247    2.0994 H   0  0  0  0  0  0  0  0  0  0  0  0
  1  2  2  0  0  0  0
  1  9  1  0  0  0  0
  2 10  1  0  0  0  0
  3  4  1  0  0  0  0
  3 17  1  0  0  0  0
  4 18  1  0  0  0  0
  5  7  1  0  0  0  0
  5 20  1  0  0  0  0
  5 11  1  0  0  0  0
  6 12  1  0  0  0  0
  7 23  1  0  0  0  0
  8 14  1  0  0  0  0
  8  6  1  0  0  0  0
  8 25  1  0  0  0  0
  9  3  2  0  0  0  0
 10 14  1  0  0  0  0
 10  4  2  0  0  0  0
 12 28  1  0  0  0  0
 13  9  1  0  0  0  0
 13  7  1  0  0  0  0
 15  1  1  0  0  0  0
 16  2  1  0  0  0  0
 19  5  1  0  0  0  0
 21  6  1  0  0  0  0
 22  6  1  0  0  0  0
 24  7  1  0  0  0  0
 26  8  1  0  0  0  0
 27 11  1  0  0  0  0
M  END
>  <HBA>
4

>  <HBD>
2

>  <TPSA>
58.92

>  <cid>
66912

>  <dipole>
1.98

>  <excitation_energy_1>
4.647

>  <excitation_energy_2>
5.185

>  <excitation_energy_3>
5.403

>  <excitation_energy_4>
5.534

>  <homo_energy>
-5.633

>  <homo_lumo_gap>
5.393

>  <logP>
0.429

>  <lumo_energy>
-0.239

>  <melting_point>
50.44

>  <molecular_refractivity>
51.36

>  <oscillator_strength_1>
0.0568

>  <oscillator_strength_2>
0.0002

>  <oscillator_strength_3>
0.0023

>  <oscillator_strength_4>
0.0089

>  <open_babel_can_smiles>
OCCOc1ccc(cc1)OCCO

>  <mulliken_charges>
28
1   -0.186097
2   -0.192672
3   -0.192719
4   -0.186202
5   -0.039235
6   -0.039365
7   -0.0525
8   -0.052553
9   0.381342
10   0.381382
11   -0.617023
12   -0.616995
13   -0.54564
14   -0.54556
15   0.137355
16   0.138779
17   0.138786
18   0.137316
19   0.134939
20   0.150021
21   0.134965
22   0.150064
23   0.151157
24   0.137985
25   0.151241
26   0.137904
27   0.401693
28   0.401633

>  <lowdin_charges>
28
1   -0.173737
2   -0.195623
3   -0.195666
4   -0.173747
5   -0.135457
6   -0.136954
7   -0.147525
8   -0.14713
9   0.086895
10   0.086826
11   -0.462288
12   -0.462691
13   -0.219251
14   -0.219309
15   0.16627
16   0.163397
17   0.163389
18   0.166245
19   0.133971
20   0.151137
21   0.13598
22   0.151019
23   0.144854
24   0.143143
25   0.146599
26   0.141356
27   0.344314
28   0.343983

$$$$

