PCCDB-ID:  27832
public computational chemistry database (PCCDB) project, http://pccdb.org

 24 24  0  0  1  0  0  0  0  0999 V2000
   -1.6466    0.0115    1.0809 C   0  0  0  0  0  0  0  0  0  0  0  0
   -1.2145    1.0167    0.2126 C   0  0  0  0  0  0  0  0  0  0  0  0
   -0.7293   -0.9215    1.5650 C   0  0  0  0  0  0  0  0  0  0  0  0
    0.1285    1.0924   -0.1566 C   0  0  0  0  0  0  0  0  0  0  0  0
    0.6146   -0.8455    1.1910 C   0  0  0  0  0  0  0  0  0  0  0  0
    2.8486    2.6323    1.1270 C   0  0  0  0  0  0  0  0  0  0  0  0
    1.0619    0.1694    0.3346 C   0  0  0  0  0  0  0  0  0  0  0  0
    3.3267    1.1930    0.9495 C   0  0  2  0  0  0  0  0  0  0  0  0
    2.5380    0.2920   -0.0300 C   0  0  1  0  0  0  0  0  0  0  0  0
    3.7179    3.3359    1.9974 O   0  0  0  0  0  0  0  0  0  0  0  0
    3.3954    0.5491    2.2373 O   0  0  0  0  0  0  0  0  0  0  0  0
    3.1885   -0.9713   -0.0760 O   0  0  0  0  0  0  0  0  0  0  0  0
   -2.6928   -0.0501    1.3677 H   0  0  0  0  0  0  0  0  0  0  0  0
   -1.9250    1.7365   -0.1850 H   0  0  0  0  0  0  0  0  0  0  0  0
   -1.0599   -1.7186    2.2257 H   0  0  0  0  0  0  0  0  0  0  0  0
    0.4543    1.8725   -0.8418 H   0  0  0  0  0  0  0  0  0  0  0  0
    1.3140   -1.6053    1.5263 H   0  0  0  0  0  0  0  0  0  0  0  0
    1.8120    2.6410    1.5025 H   0  0  0  0  0  0  0  0  0  0  0  0
    2.8582    3.1610    0.1671 H   0  0  0  0  0  0  0  0  0  0  0  0
    4.3657    1.2156    0.6049 H   0  0  0  0  0  0  0  0  0  0  0  0
    2.6193    0.7271   -1.0340 H   0  0  0  0  0  0  0  0  0  0  0  0
    3.8807    2.7340    2.7439 H   0  0  0  0  0  0  0  0  0  0  0  0
    2.4772    0.4461    2.5495 H   0  0  0  0  0  0  0  0  0  0  0  0
    3.5488   -1.1129    0.8175 H   0  0  0  0  0  0  0  0  0  0  0  0
  1 13  1  0  0  0  0
  1  3  2  0  0  0  0
  2  1  1  0  0  0  0
  3 15  1  0  0  0  0
  4  2  2  0  0  0  0
  4  7  1  0  0  0  0
  5 17  1  0  0  0  0
  5  3  1  0  0  0  0
  6 18  1  0  0  0  0
  6 10  1  0  0  0  0
  7  5  2  0  0  0  0
  8 20  1  6  0  0  0
  8  6  1  0  0  0  0
  8 11  1  0  0  0  0
  9 21  1  6  0  0  0
  9  7  1  0  0  0  0
  9  8  1  0  0  0  0
 10 22  1  0  0  0  0
 11 23  1  0  0  0  0
 12  9  1  0  0  0  0
 12 24  1  0  0  0  0
 14  2  1  0  0  0  0
 16  4  1  0  0  0  0
 19  6  1  0  0  0  0
M  END
>  <HBA>
3

>  <HBD>
3

>  <TPSA>
60.69

>  <cid>
27832

>  <dipole>
2.4

>  <excitation_energy_1>
5.255

>  <excitation_energy_2>
5.782

>  <excitation_energy_3>
6.001

>  <excitation_energy_4>
6.006

>  <homo_energy>
-6.803

>  <homo_lumo_gap>
6.4

>  <logP>
0.073

>  <lumo_energy>
-0.403

>  <melting_point>
61.68

>  <molecular_refractivity>
44.51

>  <oscillator_strength_1>
0.0006

>  <oscillator_strength_2>
0.0092

>  <oscillator_strength_3>
0.0211

>  <oscillator_strength_4>
0.026

>  <open_babel_can_smiles>
OC[C@H]([C@H](c1ccccc1)O)O

>  <mulliken_charges>
24
1   -0.128163
2   -0.129296
3   -0.127879
4   -0.180398
5   -0.206354
6   -0.033516
7   0.144075
8   0.050815
9   0.048479
10   -0.619655
11   -0.645709
12   -0.629429
13   0.134934
14   0.136296
15   0.135692
16   0.130442
17   0.13501
18   0.126621
19   0.143615
20   0.167683
21   0.144591
22   0.397925
23   0.399105
24   0.405115

>  <lowdin_charges>
24
1   -0.154883
2   -0.152471
3   -0.152672
4   -0.167125
5   -0.17837
6   -0.151945
7   -0.026372
8   -0.037623
9   -0.016458
10   -0.465426
11   -0.466516
12   -0.453165
13   0.159043
14   0.162033
15   0.160976
16   0.157549
17   0.161199
18   0.130658
19   0.149816
20   0.15806
21   0.152515
22   0.344019
23   0.34352
24   0.343638

$$$$

