PCCDB-ID:  6360
public computational chemistry database (PCCDB) project, http://pccdb.org

 14 13  0  0  0  0  0  0  0  0999 V2000
    0.9378   -0.0702   -0.0642 C   0  0  0  0  0  0  0  0  0  0  0  0
    3.0051    0.6839    1.1882 C   0  0  0  0  0  0  0  0  0  0  0  0
    3.0049   -1.5319   -0.0375 C   0  0  0  0  0  0  0  0  0  0  0  0
    2.4725   -0.0918   -0.0249 C   0  0  0  0  0  0  0  0  0  0  0  0
    0.5529    0.9563   -0.0889 H   0  0  0  0  0  0  0  0  0  0  0  0
    0.5178   -0.5616    0.8234 H   0  0  0  0  0  0  0  0  0  0  0  0
    0.5534   -0.5952   -0.9470 H   0  0  0  0  0  0  0  0  0  0  0  0
    2.6536    1.7227    1.1841 H   0  0  0  0  0  0  0  0  0  0  0  0
    4.1016    0.7003    1.2028 H   0  0  0  0  0  0  0  0  0  0  0  0
    2.6674    0.2227    2.1258 H   0  0  0  0  0  0  0  0  0  0  0  0
    2.6538   -2.0804   -0.9199 H   0  0  0  0  0  0  0  0  0  0  0  0
    2.6666   -2.0812    0.8512 H   0  0  0  0  0  0  0  0  0  0  0  0
    4.1014   -1.5530   -0.0429 H   0  0  0  0  0  0  0  0  0  0  0  0
    2.8393    0.4104   -0.9328 H   0  0  0  0  0  0  0  0  0  0  0  0
  1  4  1  0  0  0  0
  1  6  1  0  0  0  0
  2  9  1  0  0  0  0
  2 10  1  0  0  0  0
  3  4  1  0  0  0  0
  3 12  1  0  0  0  0
  4  2  1  0  0  0  0
  5  1  1  0  0  0  0
  7  1  1  0  0  0  0
  8  2  1  0  0  0  0
 11  3  1  0  0  0  0
 13  3  1  0  0  0  0
 14  4  1  0  0  0  0
M  END
>  <HBA>
0

>  <HBD>
0

>  <TPSA>
0.0

>  <cid>
6360

>  <dipole>
0.08

>  <excitation_energy_1>
8.156

>  <excitation_energy_2>
8.284

>  <excitation_energy_3>
8.285

>  <excitation_energy_4>
8.876

>  <homo_energy>
-8.645

>  <homo_lumo_gap>
10.985

>  <logP>
1.662

>  <lumo_energy>
2.34

>  <melting_point>
-25.23

>  <molecular_refractivity>
21.34

>  <oscillator_strength_1>
0.0044

>  <oscillator_strength_2>
0.0817

>  <oscillator_strength_3>
0.0818

>  <oscillator_strength_4>
0.0088

>  <open_babel_can_smiles>
CC(C)C

>  <mulliken_charges>
14
1   -0.435193
2   -0.435264
3   -0.435515
4   -0.061003
5   0.138693
6   0.137293
7   0.138655
8   0.138676
9   0.138691
10   0.137283
11   0.138728
12   0.137334
13   0.138722
14   0.122899

>  <lowdin_charges>
14
1   -0.445411
2   -0.441456
3   -0.443998
4   -0.116678
5   0.146108
6   0.145249
7   0.147574
8   0.145773
9   0.144875
10   0.144696
11   0.147548
12   0.145168
13   0.144901
14   0.135651

$$$$

