PCCDB-ID:  68115
public computational chemistry database (PCCDB) project, http://pccdb.org

 24 25  0  0  0  0  0  0  0  0999 V2000
   -1.3614   -0.2671    0.1132 C   0  0  0  0  0  0  0  0  0  0  0  0
    5.5112    2.1550   -2.8397 C   0  0  0  0  0  0  0  0  0  0  0  0
   -0.5209   -1.3794    0.1759 C   0  0  0  0  0  0  0  0  0  0  0  0
    4.6991    1.9151   -3.9490 C   0  0  0  0  0  0  0  0  0  0  0  0
   -0.7892    0.9947   -0.0223 C   0  0  0  0  0  0  0  0  0  0  0  0
    4.9087    2.3284   -1.5967 C   0  0  0  0  0  0  0  0  0  0  0  0
    0.8615   -1.1830    0.1001 C   0  0  0  0  0  0  0  0  0  0  0  0
    3.3137    1.8583   -3.7686 C   0  0  0  0  0  0  0  0  0  0  0  0
    0.6045    1.0820   -0.0903 C   0  0  0  0  0  0  0  0  0  0  0  0
    3.5147    2.2515   -1.5241 C   0  0  0  0  0  0  0  0  0  0  0  0
    1.2713    2.4103   -0.2362 C   0  0  0  0  0  0  0  0  0  0  0  0
    2.8158    2.4276   -0.2161 C   0  0  0  0  0  0  0  0  0  0  0  0
    1.4239    0.0205   -0.0314 N   0  0  0  0  0  0  0  0  0  0  0  0
    2.7223    2.0212   -2.5829 N   0  0  0  0  0  0  0  0  0  0  0  0
    0.6621    3.4621   -0.2889 O   0  0  0  0  0  0  0  0  0  0  0  0
    3.3976    2.6568    0.8274 O   0  0  0  0  0  0  0  0  0  0  0  0
   -2.4402   -0.3837    0.1698 H   0  0  0  0  0  0  0  0  0  0  0  0
    6.5914    2.2063   -2.9443 H   0  0  0  0  0  0  0  0  0  0  0  0
   -0.9235   -2.3823    0.2825 H   0  0  0  0  0  0  0  0  0  0  0  0
    5.1259    1.7751   -4.9377 H   0  0  0  0  0  0  0  0  0  0  0  0
   -1.3798    1.9030   -0.0758 H   0  0  0  0  0  0  0  0  0  0  0  0
    5.4762    2.5194   -0.6922 H   0  0  0  0  0  0  0  0  0  0  0  0
    1.5432   -2.0301    0.1477 H   0  0  0  0  0  0  0  0  0  0  0  0
    2.6535    1.6742   -4.6141 H   0  0  0  0  0  0  0  0  0  0  0  0
  1 17  1  0  0  0  0
  1  3  1  0  0  0  0
  2  6  2  0  0  0  0
  3 19  1  0  0  0  0
  4  8  2  0  0  0  0
  4  2  1  0  0  0  0
  5  1  2  0  0  0  0
  6 10  1  0  0  0  0
  6 22  1  0  0  0  0
  7 23  1  0  0  0  0
  7  3  2  0  0  0  0
  8 14  1  0  0  0  0
  9 13  2  0  0  0  0
  9  5  1  0  0  0  0
 10 12  1  0  0  0  0
 11 12  1  0  0  0  0
 11  9  1  0  0  0  0
 12 16  2  0  0  0  0
 13  7  1  0  0  0  0
 14 10  2  0  0  0  0
 15 11  2  0  0  0  0
 18  2  1  0  0  0  0
 20  4  1  0  0  0  0
 21  5  1  0  0  0  0
 24  8  1  0  0  0  0
M  END
>  <HBA>
4

>  <HBD>
0

>  <TPSA>
59.92

>  <cid>
68115

>  <dipole>
4.66

>  <excitation_energy_1>
3.074

>  <excitation_energy_2>
3.161

>  <excitation_energy_3>
4.314

>  <excitation_energy_4>
4.332

>  <homo_energy>
-6.226

>  <homo_lumo_gap>
4.286

>  <logP>
1.542

>  <lumo_energy>
-1.94

>  <melting_point>
131.34

>  <molecular_refractivity>
57.13

>  <oscillator_strength_1>
0.0035

>  <oscillator_strength_2>
0.0001

>  <oscillator_strength_3>
0.0007

>  <oscillator_strength_4>
0.0007

>  <open_babel_can_smiles>
O=C(C(=O)c1ccccn1)c1ccccn1

>  <mulliken_charges>
24
1   -0.104997
2   -0.104983
3   -0.134282
4   -0.134338
5   -0.13952
6   -0.139531
7   0.041413
8   0.04147
9   0.266304
10   0.266368
11   0.367273
12   0.367001
13   -0.480206
14   -0.480172
15   -0.442457
16   -0.442322
17   0.153594
18   0.1536
19   0.14842
20   0.14843
21   0.173636
22   0.173626
23   0.150833
24   0.150841

>  <lowdin_charges>
24
1   -0.121406
2   -0.121392
3   -0.157535
4   -0.157757
5   -0.141049
6   -0.141027
7   -0.084667
8   -0.084714
9   0.01409
10   0.013964
11   0.15014
12   0.149733
13   -0.133199
14   -0.133022
15   -0.208046
16   -0.207796
17   0.166481
18   0.16645
19   0.168547
20   0.168728
21   0.183958
22   0.184006
23   0.162728
24   0.162784

$$$$

