PCCDB-ID:  61992
public computational chemistry database (PCCDB) project, http://pccdb.org

 23 22  0  0  0  0  0  0  0  0999 V2000
    1.4801    2.6326   -1.9230 C   0  0  0  0  0  0  0  0  0  0  0  0
    1.4832    2.2528   -0.4323 C   0  0  0  0  0  0  0  0  0  0  0  0
    2.7047    2.7488    0.2934 C   0  0  0  0  0  0  0  0  0  0  0  0
    3.5967    1.9812    0.9254 C   0  0  0  0  0  0  0  0  0  0  0  0
    4.8283    2.4822    1.6300 C   0  0  0  0  0  0  0  0  0  0  0  0
    6.1297    1.9559    0.9918 C   0  0  0  0  0  0  0  0  0  0  0  0
    7.3962    2.3753    1.7442 C   0  0  0  0  0  0  0  0  0  0  0  0
    7.7553    3.8406    1.6305 C   0  0  0  0  0  0  0  0  0  0  0  0
    7.1580    4.6576    0.9641 O   0  0  0  0  0  0  0  0  0  0  0  0
    0.5644    2.2870   -2.4164 H   0  0  0  0  0  0  0  0  0  0  0  0
    2.3369    2.1884   -2.4418 H   0  0  0  0  0  0  0  0  0  0  0  0
    1.5407    3.7197   -2.0538 H   0  0  0  0  0  0  0  0  0  0  0  0
    1.4075    1.1628   -0.3265 H   0  0  0  0  0  0  0  0  0  0  0  0
    0.5821    2.6737    0.0392 H   0  0  0  0  0  0  0  0  0  0  0  0
    2.8594    3.8304    0.2808 H   0  0  0  0  0  0  0  0  0  0  0  0
    3.4484    0.8981    0.9315 H   0  0  0  0  0  0  0  0  0  0  0  0
    4.8035    2.1628    2.6845 H   0  0  0  0  0  0  0  0  0  0  0  0
    4.8410    3.5772    1.6274 H   0  0  0  0  0  0  0  0  0  0  0  0
    6.1894    2.3115   -0.0431 H   0  0  0  0  0  0  0  0  0  0  0  0
    6.0941    0.8594    0.9486 H   0  0  0  0  0  0  0  0  0  0  0  0
    8.2751    1.8149    1.3865 H   0  0  0  0  0  0  0  0  0  0  0  0
    7.3288    2.1334    2.8170 H   0  0  0  0  0  0  0  0  0  0  0  0
    8.6574    4.1415    2.2122 H   0  0  0  0  0  0  0  0  0  0  0  0
  1  2  1  0  0  0  0
  2 13  1  0  0  0  0
  2 14  1  0  0  0  0
  2  3  1  0  0  0  0
  3  4  2  0  0  0  0
  4 16  1  0  0  0  0
  4  5  1  0  0  0  0
  5 17  1  0  0  0  0
  6  5  1  0  0  0  0
  6  7  1  0  0  0  0
  7 22  1  0  0  0  0
  8  7  1  0  0  0  0
  8 23  1  0  0  0  0
  9  8  2  0  0  0  0
 10  1  1  0  0  0  0
 11  1  1  0  0  0  0
 12  1  1  0  0  0  0
 15  3  1  0  0  0  0
 18  5  1  0  0  0  0
 19  6  1  0  0  0  0
 20  6  1  0  0  0  0
 21  7  1  0  0  0  0
M  END
>  <HBA>
1

>  <HBD>
0

>  <TPSA>
17.07

>  <cid>
61992

>  <dipole>
2.35

>  <excitation_energy_1>
4.317

>  <excitation_energy_2>
5.048

>  <excitation_energy_3>
6.024

>  <excitation_energy_4>
6.253

>  <homo_energy>
-6.411

>  <homo_lumo_gap>
5.842

>  <logP>
2.322

>  <lumo_energy>
-0.569

>  <melting_point>
13.62

>  <molecular_refractivity>
40.3

>  <oscillator_strength_1>
0.0002

>  <oscillator_strength_2>
0.0008

>  <oscillator_strength_3>
0.0111

>  <oscillator_strength_4>
0.0771

>  <open_babel_can_smiles>
CC/C=C/CCCC=O

>  <mulliken_charges>
23
1   -0.438824
2   -0.296134
3   -0.086939
4   -0.098441
5   -0.3088
6   -0.249106
7   -0.351582
8   0.256034
9   -0.381909
10   0.141431
11   0.149204
12   0.14485
13   0.136295
14   0.140952
15   0.120296
16   0.110548
17   0.129401
18   0.163358
19   0.159079
20   0.13221
21   0.164455
22   0.159332
23   0.104291

>  <lowdin_charges>
23
1   -0.442153
2   -0.267118
3   -0.162759
4   -0.169395
5   -0.270473
6   -0.269009
7   -0.314111
8   0.058117
9   -0.221178
10   0.149073
11   0.151056
12   0.146344
13   0.142313
14   0.147486
15   0.145413
16   0.139855
17   0.139518
18   0.155288
19   0.155045
20   0.142018
21   0.168432
22   0.160738
23   0.115499

$$$$

