PCCDB-ID:  17733
public computational chemistry database (PCCDB) project, http://pccdb.org

 31 33  0  0  0  0  0  0  0  0999 V2000
    3.6121    0.9996    2.5560 C   0  0  0  0  0  0  0  0  0  0  0  0
   -1.0135   -5.4638    6.5023 C   0  0  0  0  0  0  0  0  0  0  0  0
   -0.1520   -6.2623    5.7426 C   0  0  0  0  0  0  0  0  0  0  0  0
   -1.1285   -4.0937    6.2377 C   0  0  0  0  0  0  0  0  0  0  0  0
    0.6079   -5.7099    4.7091 C   0  0  0  0  0  0  0  0  0  0  0  0
    2.0915   -3.8024    2.4486 C   0  0  0  0  0  0  0  0  0  0  0  0
    2.5422   -2.7772    1.6195 C   0  0  0  0  0  0  0  0  0  0  0  0
   -0.3163   -2.1022    4.7273 C   0  0  0  0  0  0  0  0  0  0  0  0
    3.1369    0.5796    1.1842 C   0  0  0  0  0  0  0  0  0  0  0  0
   -0.3746   -3.5404    5.2105 C   0  0  0  0  0  0  0  0  0  0  0  0
    0.4958   -4.3431    4.4435 C   0  0  0  0  0  0  0  0  0  0  0  0
    1.1574   -3.4999    3.4404 C   0  0  0  0  0  0  0  0  0  0  0  0
    0.6916   -2.1797    3.5956 C   0  0  0  0  0  0  0  0  0  0  0  0
    2.1108   -1.4475    1.7701 C   0  0  0  0  0  0  0  0  0  0  0  0
    1.1558   -1.1589    2.7743 C   0  0  0  0  0  0  0  0  0  0  0  0
    2.5352   -0.4852    0.8457 N   0  0  0  0  0  0  0  0  0  0  0  0
    3.4074    1.4605    0.1790 O   0  0  0  0  0  0  0  0  0  0  0  0
    0.7245    0.1420    2.8941 O   0  0  0  0  0  0  0  0  0  0  0  0
    2.9528    1.7740    2.9635 H   0  0  0  0  0  0  0  0  0  0  0  0
    4.6327    1.3996    2.5054 H   0  0  0  0  0  0  0  0  0  0  0  0
    3.6043    0.1522    3.2436 H   0  0  0  0  0  0  0  0  0  0  0  0
   -1.5979   -5.9095    7.3027 H   0  0  0  0  0  0  0  0  0  0  0  0
   -0.0734   -7.3245    5.9587 H   0  0  0  0  0  0  0  0  0  0  0  0
   -1.7999   -3.4766    6.8307 H   0  0  0  0  0  0  0  0  0  0  0  0
    1.2746   -6.3371    4.1230 H   0  0  0  0  0  0  0  0  0  0  0  0
    2.4579   -4.8157    2.3106 H   0  0  0  0  0  0  0  0  0  0  0  0
    3.2499   -2.9829    0.8221 H   0  0  0  0  0  0  0  0  0  0  0  0
    0.0022   -1.4190    5.5293 H   0  0  0  0  0  0  0  0  0  0  0  0
   -1.3048   -1.7526    4.3909 H   0  0  0  0  0  0  0  0  0  0  0  0
    3.8977    2.2140    0.5409 H   0  0  0  0  0  0  0  0  0  0  0  0
    0.0081    0.1682    3.5464 H   0  0  0  0  0  0  0  0  0  0  0  0
  1 19  1  0  0  0  0
  1 21  1  0  0  0  0
  2 22  1  0  0  0  0
  3 23  1  0  0  0  0
  3  2  2  0  0  0  0
  4  2  1  0  0  0  0
  4 24  1  0  0  0  0
  5  3  1  0  0  0  0
  6 12  2  0  0  0  0
  7 14  2  0  0  0  0
  7  6  1  0  0  0  0
  8 10  1  0  0  0  0
  8 28  1  0  0  0  0
  9  1  1  0  0  0  0
 10  4  2  0  0  0  0
 11  5  2  0  0  0  0
 11 10  1  0  0  0  0
 12 13  1  0  0  0  0
 12 11  1  0  0  0  0
 13  8  1  0  0  0  0
 14 15  1  0  0  0  0
 15 18  1  0  0  0  0
 15 13  2  0  0  0  0
 16  9  2  0  0  0  0
 16 14  1  0  0  0  0
 17 30  1  0  0  0  0
 17  9  1  0  0  0  0
 18 31  1  0  0  0  0
 20  1  1  0  0  0  0
 25  5  1  0  0  0  0
 26  6  1  0  0  0  0
 27  7  1  0  0  0  0
 29  8  1  0  0  0  0
M  END
>  <HBA>
3

>  <HBD>
2

>  <TPSA>
49.33

>  <cid>
17733

>  <dipole>
4.1

>  <excitation_energy_1>
4.053

>  <excitation_energy_2>
4.231

>  <excitation_energy_3>
4.4

>  <excitation_energy_4>
4.58

>  <homo_energy>
-5.173

>  <homo_lumo_gap>
4.506

>  <logP>
2.995

>  <lumo_energy>
-0.667

>  <melting_point>
170.77

>  <molecular_refractivity>
71.22

>  <oscillator_strength_1>
0.5022

>  <oscillator_strength_2>
0.0781

>  <oscillator_strength_3>
0.0015

>  <oscillator_strength_4>
0.0228

>  <open_babel_can_smiles>
C/C(=N\c1ccc2c(c1O)Cc1c2cccc1)/O

>  <mulliken_charges>
31
1   -0.540222
2   -0.131015
3   -0.136882
4   -0.207447
5   -0.194418
6   -0.204309
7   -0.178826
8   -0.443762
9   0.497135
10   0.118455
11   0.077172
12   0.092241
13   0.045626
14   0.213324
15   0.238634
16   -0.462097
17   -0.571186
18   -0.66502
19   0.190288
20   0.153656
21   0.189766
22   0.125703
23   0.127174
24   0.122092
25   0.129826
26   0.125698
27   0.133545
28   0.165745
29   0.166596
30   0.406758
31   0.415749

>  <lowdin_charges>
31
1   -0.478839
2   -0.162701
3   -0.153814
4   -0.166375
5   -0.16534
6   -0.176099
7   -0.162713
8   -0.284751
9   0.15281
10   -0.005947
11   -0.006481
12   -0.015669
13   -0.055679
14   0.018751
15   0.068552
16   -0.170499
17   -0.357922
18   -0.387526
19   0.179341
20   0.158072
21   0.180961
22   0.157696
23   0.155366
24   0.15646
25   0.159296
26   0.156693
27   0.164995
28   0.162581
29   0.161797
30   0.356923
31   0.360063

$$$$

