PCCDB-ID:  61045
public computational chemistry database (PCCDB) project, http://pccdb.org

 19 19  0  0  0  0  0  0  0  0999 V2000
    0.8368    0.0710   -0.0708 C   0  0  0  0  0  0  0  0  0  0  0  0
    5.2025   -2.5695    0.2067 C   0  0  0  0  0  0  0  0  0  0  0  0
    4.4565    1.1631    0.3634 C   0  0  0  0  0  0  0  0  0  0  0  0
    3.0727    1.1776    0.2170 C   0  0  0  0  0  0  0  0  0  0  0  0
    5.1317   -0.0546    0.3621 C   0  0  0  0  0  0  0  0  0  0  0  0
    2.3387   -0.0060    0.0681 C   0  0  0  0  0  0  0  0  0  0  0  0
    4.4455   -1.2633    0.2102 C   0  0  0  0  0  0  0  0  0  0  0  0
    3.0428   -1.2285    0.0600 C   0  0  0  0  0  0  0  0  0  0  0  0
    2.2283   -2.8209   -0.1124 S   0  0  0  0  0  0  0  0  0  0  0  0
    0.4976    1.1083    0.0015 H   0  0  0  0  0  0  0  0  0  0  0  0
    0.3231   -0.5005    0.7131 H   0  0  0  0  0  0  0  0  0  0  0  0
    0.4883   -0.3159   -1.0386 H   0  0  0  0  0  0  0  0  0  0  0  0
    6.2753   -2.3978    0.3344 H   0  0  0  0  0  0  0  0  0  0  0  0
    5.0556   -3.1174   -0.7329 H   0  0  0  0  0  0  0  0  0  0  0  0
    4.8727   -3.2347    1.0155 H   0  0  0  0  0  0  0  0  0  0  0  0
    5.0042    2.0940    0.4801 H   0  0  0  0  0  0  0  0  0  0  0  0
    2.5381    2.1244    0.2214 H   0  0  0  0  0  0  0  0  0  0  0  0
    6.2125   -0.0776    0.4779 H   0  0  0  0  0  0  0  0  0  0  0  0
    1.0157   -2.3663   -0.4749 H   0  0  0  0  0  0  0  0  0  0  0  0
  1 10  1  0  0  0  0
  1  6  1  0  0  0  0
  1 11  1  0  0  0  0
  2  7  1  0  0  0  0
  2 13  1  0  0  0  0
  2 15  1  0  0  0  0
  3 16  1  0  0  0  0
  4 17  1  0  0  0  0
  4  3  2  0  0  0  0
  5  3  1  0  0  0  0
  5 18  1  0  0  0  0
  6  4  1  0  0  0  0
  7  5  2  0  0  0  0
  8  6  2  0  0  0  0
  8  7  1  0  0  0  0
  9  8  1  0  0  0  0
 12  1  1  0  0  0  0
 14  2  1  0  0  0  0
 19  9  1  0  0  0  0
M  END
>  <HBA>
1

>  <HBD>
1

>  <TPSA>
38.8

>  <cid>
61045

>  <dipole>
1.06

>  <excitation_energy_1>
4.885

>  <excitation_energy_2>
5.083

>  <excitation_energy_3>
5.266

>  <excitation_energy_4>
5.332

>  <homo_energy>
-5.818

>  <homo_lumo_gap>
5.818

>  <logP>
2.592

>  <lumo_energy>
0.0

>  <melting_point>
37.76

>  <molecular_refractivity>
43.63

>  <oscillator_strength_1>
0.0123

>  <oscillator_strength_2>
0.0214

>  <oscillator_strength_3>
0.0906

>  <oscillator_strength_4>
0.0553

>  <open_babel_can_smiles>
Cc1cccc(c1S)C

>  <mulliken_charges>
19
1   -0.561265
2   -0.547632
3   -0.128389
4   -0.173906
5   -0.174495
6   0.182058
7   0.160826
8   -0.191848
9   -0.03605
10   0.163227
11   0.169266
12   0.162977
13   0.155379
14   0.178852
15   0.174262
16   0.127778
17   0.122311
18   0.123292
19   0.093355

>  <lowdin_charges>
19
1   -0.447767
2   -0.444581
3   -0.164354
4   -0.166837
5   -0.162912
6   -0.01238
7   -0.008241
8   -0.130778
9   -0.025887
10   0.160765
11   0.162984
12   0.157338
13   0.156878
14   0.168709
15   0.166543
16   0.158211
17   0.15526
18   0.153806
19   0.123244

$$$$

