PCCDB-ID:  14295
public computational chemistry database (PCCDB) project, http://pccdb.org

 22 22  0  0  1  0  0  0  0  0999 V2000
    0.7660   -0.0845   -0.1805 C   0  0  0  0  0  0  0  0  0  0  0  0
    3.4466    3.4183    2.5605 C   0  0  0  0  0  0  0  0  0  0  0  0
    2.4076    3.5812    1.6416 C   0  0  0  0  0  0  0  0  0  0  0  0
    4.0920    2.1853    2.6534 C   0  0  0  0  0  0  0  0  0  0  0  0
    2.0169    2.5197    0.8253 C   0  0  0  0  0  0  0  0  0  0  0  0
    3.6972    1.1248    1.8345 C   0  0  0  0  0  0  0  0  0  0  0  0
    2.9654    0.2807   -1.3826 C   0  0  0  0  0  0  0  0  0  0  0  0
    2.2803    0.1129   -0.0077 C   0  0  1  0  0  0  0  0  0  0  0  0
    2.6506    1.2696    0.9107 C   0  0  0  0  0  0  0  0  0  0  0  0
    4.3800    0.3161   -1.3011 O   0  0  0  0  0  0  0  0  0  0  0  0
    0.5636   -0.9831   -0.7746 H   0  0  0  0  0  0  0  0  0  0  0  0
    0.2967    0.7612   -0.6965 H   0  0  0  0  0  0  0  0  0  0  0  0
    0.2705   -0.2007    0.7890 H   0  0  0  0  0  0  0  0  0  0  0  0
    3.7496    4.2454    3.1970 H   0  0  0  0  0  0  0  0  0  0  0  0
    1.8990    4.5384    1.5596 H   0  0  0  0  0  0  0  0  0  0  0  0
    4.9012    2.0445    3.3653 H   0  0  0  0  0  0  0  0  0  0  0  0
    1.2066    2.6683    0.1165 H   0  0  0  0  0  0  0  0  0  0  0  0
    4.2005    0.1642    1.9178 H   0  0  0  0  0  0  0  0  0  0  0  0
    2.5675    1.1821   -1.8797 H   0  0  0  0  0  0  0  0  0  0  0  0
    2.7256   -0.5784   -2.0186 H   0  0  0  0  0  0  0  0  0  0  0  0
    2.6965   -0.8029    0.4320 H   0  0  0  0  0  0  0  0  0  0  0  0
    4.6140    1.0621   -0.7249 H   0  0  0  0  0  0  0  0  0  0  0  0
  1  8  1  0  0  0  0
  1 13  1  0  0  0  0
  2  4  1  0  0  0  0
  2 14  1  0  0  0  0
  3  2  2  0  0  0  0
  4 16  1  0  0  0  0
  5  9  2  0  0  0  0
  5  3  1  0  0  0  0
  6 18  1  0  0  0  0
  6  4  2  0  0  0  0
  7 10  1  0  0  0  0
  7  8  1  0  0  0  0
  8 21  1  1  0  0  0
  8  9  1  0  0  0  0
  9  6  1  0  0  0  0
 10 22  1  0  0  0  0
 11  1  1  0  0  0  0
 12  1  1  0  0  0  0
 15  3  1  0  0  0  0
 17  5  1  0  0  0  0
 19  7  1  0  0  0  0
 20  7  1  0  0  0  0
M  END
>  <HBA>
1

>  <HBD>
1

>  <TPSA>
20.23

>  <cid>
14295

>  <dipole>
1.74

>  <excitation_energy_1>
5.304

>  <excitation_energy_2>
5.864

>  <excitation_energy_3>
6.119

>  <excitation_energy_4>
6.191

>  <homo_energy>
-6.626

>  <homo_lumo_gap>
6.482

>  <logP>
1.782

>  <lumo_energy>
-0.144

>  <melting_point>
24.44

>  <molecular_refractivity>
42.18

>  <oscillator_strength_1>
0.0009

>  <oscillator_strength_2>
0.0461

>  <oscillator_strength_3>
0.0017

>  <oscillator_strength_4>
0.0158

>  <open_babel_can_smiles>
OC[C@@H](c1ccccc1)C

>  <mulliken_charges>
22
1   -0.457791
2   -0.131071
3   -0.129123
4   -0.125189
5   -0.182962
6   -0.200827
7   -0.017501
8   -0.173558
9   0.13924
10   -0.622613
11   0.147634
12   0.145647
13   0.156597
14   0.131
15   0.13116
16   0.132276
17   0.127793
18   0.135855
19   0.116895
20   0.142825
21   0.140088
22   0.393624

>  <lowdin_charges>
22
1   -0.444576
2   -0.160823
3   -0.153717
4   -0.155296
5   -0.168047
6   -0.175837
7   -0.134806
8   -0.141884
9   -0.011708
10   -0.468719
11   0.153097
12   0.148513
13   0.1572
14   0.159238
15   0.157893
16   0.159174
17   0.156756
18   0.159257
19   0.12458
20   0.146978
21   0.14972
22   0.343009

$$$$

