PCCDB-ID:  48783
public computational chemistry database (PCCDB) project, http://pccdb.org

 29 29  0  0  1  0  0  0  0  0999 V2000
    0.8975   -0.0670    1.1336 C   0  0  0  0  0  0  0  0  0  0  0  0
    3.2497    0.4997   -3.7763 C   0  0  0  0  0  0  0  0  0  0  0  0
    4.5956   -0.6699   -2.0398 C   0  0  0  0  0  0  0  0  0  0  0  0
    2.0626    0.0611    0.1457 C   0  0  0  0  0  0  0  0  0  0  0  0
    3.4007    1.5728   -1.5270 C   0  0  0  0  0  0  0  0  0  0  0  0
    3.6949    0.4486   -2.5116 C   0  0  0  0  0  0  0  0  0  0  0  0
    2.1866    2.5661    0.4288 C   0  0  0  0  0  0  0  0  0  0  0  0
    0.8505    1.6326   -1.4118 C   0  0  0  0  0  0  0  0  0  0  0  0
    0.2973    3.6444   -0.3831 C   0  0  0  0  0  0  0  0  0  0  0  0
    2.1297    1.4317   -0.5965 C   0  0  2  0  0  0  0  0  0  0  0  0
    1.3823    3.5452    0.5288 N   0  0  0  0  0  0  0  0  0  0  0  0
    0.0334    2.6047   -1.3095 N   0  0  0  0  0  0  0  0  0  0  0  0
    3.2056    2.5251    1.3210 O   0  0  0  0  0  0  0  0  0  0  0  0
    0.5411    0.6640   -2.2983 O   0  0  0  0  0  0  0  0  0  0  0  0
   -0.4103    4.6258   -0.3634 O   0  0  0  0  0  0  0  0  0  0  0  0
    0.9155   -1.0531    1.6085 H   0  0  0  0  0  0  0  0  0  0  0  0
   -0.0667    0.0429    0.6270 H   0  0  0  0  0  0  0  0  0  0  0  0
    0.9532    0.6880    1.9245 H   0  0  0  0  0  0  0  0  0  0  0  0
    3.4869   -0.2819   -4.4935 H   0  0  0  0  0  0  0  0  0  0  0  0
    2.6562    1.3319   -4.1464 H   0  0  0  0  0  0  0  0  0  0  0  0
    4.7360   -1.4257   -2.8178 H   0  0  0  0  0  0  0  0  0  0  0  0
    4.2102   -1.1710   -1.1448 H   0  0  0  0  0  0  0  0  0  0  0  0
    5.5848   -0.2720   -1.7751 H   0  0  0  0  0  0  0  0  0  0  0  0
    1.9954   -0.7393   -0.5983 H   0  0  0  0  0  0  0  0  0  0  0  0
    3.0128   -0.1130    0.6706 H   0  0  0  0  0  0  0  0  0  0  0  0
    3.2921    2.5175   -2.0703 H   0  0  0  0  0  0  0  0  0  0  0  0
    4.2759    1.6962   -0.8769 H   0  0  0  0  0  0  0  0  0  0  0  0
    3.7298    1.7185    1.1982 H   0  0  0  0  0  0  0  0  0  0  0  0
    1.3322    0.1317   -2.5044 H   0  0  0  0  0  0  0  0  0  0  0  0
  1 16  1  0  0  0  0
  1 18  1  0  0  0  0
  2  6  2  0  0  0  0
  3 23  1  0  0  0  0
  3 22  1  0  0  0  0
  4 25  1  0  0  0  0
  4  1  1  0  0  0  0
  5 27  1  0  0  0  0
  6  3  1  0  0  0  0
  6  5  1  0  0  0  0
  7 11  2  0  0  0  0
  7 13  1  0  0  0  0
  8 12  2  0  0  0  0
  8 10  1  0  0  0  0
  9 15  2  0  0  0  0
  9 11  2  0  0  0  0
 10  5  1  6  0  0  0
 10  4  1  0  0  0  0
 10  7  1  0  0  0  0
 12  9  1  0  0  0  0
 14  8  1  0  0  0  0
 17  1  1  0  0  0  0
 19  2  1  0  0  0  0
 20  2  1  0  0  0  0
 21  3  1  0  0  0  0
 24  4  1  0  0  0  0
 26  5  1  0  0  0  0
 28 13  1  0  0  0  0
 29 14  1  0  0  0  0
M  END
>  <HBA>
5

>  <HBD>
2

>  <TPSA>
75.27

>  <cid>
48783

>  <dipole>
10.56

>  <excitation_energy_1>
3.966

>  <excitation_energy_2>
4.14

>  <excitation_energy_3>
5.148

>  <excitation_energy_4>
5.342

>  <homo_energy>
-6.83

>  <homo_lumo_gap>
5.317

>  <logP>
1.373

>  <lumo_energy>
-1.513

>  <melting_point>
123.73

>  <molecular_refractivity>
61.76

>  <oscillator_strength_1>
0.0001

>  <oscillator_strength_2>
0.0

>  <oscillator_strength_3>
0.0027

>  <oscillator_strength_4>
0.0147

>  <open_babel_can_smiles>
CC[C@@]1(CC(=C)C)C(=N[C](=[N]=C1O)=O)O

>  <mulliken_charges>
29
1   -0.468649
2   -0.405254
3   -0.521955
4   -0.290887
5   -0.349026
6   0.184197
7   0.544703
8   0.531485
9   0.616231
10   -0.125606
11   -0.467062
12   -0.465182
13   -0.579726
14   -0.587959
15   -0.431879
16   0.160309
17   0.185101
18   0.178883
19   0.158683
20   0.17637
21   0.169067
22   0.162341
23   0.169882
24   0.157399
25   0.131934
26   0.189577
27   0.147741
28   0.41542
29   0.41386

>  <lowdin_charges>
29
1   -0.452695
2   -0.348758
3   -0.447051
4   -0.275462
5   -0.275149
6   -0.00913
7   0.145772
8   0.145847
9   0.171032
10   -0.058735
11   -0.182362
12   -0.186415
13   -0.333863
14   -0.338667
15   -0.209821
16   0.16141
17   0.168818
18   0.165739
19   0.167774
20   0.172918
21   0.165876
22   0.159094
23   0.164532
24   0.154305
25   0.138202
26   0.174735
27   0.153901
28   0.355787
29   0.352364

$$$$

