PCCDB-ID:  12082
public computational chemistry database (PCCDB) project, http://pccdb.org

 20 20  0  0  0  0  0  0  0  0999 V2000
    2.9919   -1.5067    0.6664 C   0  0  0  0  0  0  0  0  0  0  0  0
    2.3657    2.8969    2.5460 C   0  0  0  0  0  0  0  0  0  0  0  0
    1.1073    1.0350    3.4292 C   0  0  0  0  0  0  0  0  0  0  0  0
    1.7525    3.7494    3.4504 C   0  0  0  0  0  0  0  0  0  0  0  0
    0.4888    1.8821    4.3376 C   0  0  0  0  0  0  0  0  0  0  0  0
    2.0552    1.5284    2.5189 C   0  0  0  0  0  0  0  0  0  0  0  0
    0.8005    3.2555    4.3642 C   0  0  0  0  0  0  0  0  0  0  0  0
    2.7440    0.6725    1.5278 C   0  0  0  0  0  0  0  0  0  0  0  0
    0.2233    4.0945    5.3074 N   0  0  0  0  0  0  0  0  0  0  0  0
    3.5700    1.0639    0.7232 O   0  0  0  0  0  0  0  0  0  0  0  0
    2.3564   -0.6279    1.6032 O   0  0  0  0  0  0  0  0  0  0  0  0
    2.5640   -2.4927    0.8527 H   0  0  0  0  0  0  0  0  0  0  0  0
    4.0740   -1.5234    0.8241 H   0  0  0  0  0  0  0  0  0  0  0  0
    2.7905   -1.1895   -0.3605 H   0  0  0  0  0  0  0  0  0  0  0  0
    3.0974    3.2754    1.8395 H   0  0  0  0  0  0  0  0  0  0  0  0
    0.8561   -0.0199    3.4187 H   0  0  0  0  0  0  0  0  0  0  0  0
    2.0059    4.8071    3.4610 H   0  0  0  0  0  0  0  0  0  0  0  0
   -0.2416    1.4862    5.0395 H   0  0  0  0  0  0  0  0  0  0  0  0
    0.2235    5.0814    5.0856 H   0  0  0  0  0  0  0  0  0  0  0  0
   -0.6546    3.7847    5.7029 H   0  0  0  0  0  0  0  0  0  0  0  0
  1 13  1  0  0  0  0
  1 12  1  0  0  0  0
  1 11  1  0  0  0  0
  2  4  1  0  0  0  0
  3  5  2  0  0  0  0
  4 17  1  0  0  0  0
  4  7  2  0  0  0  0
  5  7  1  0  0  0  0
  5 18  1  0  0  0  0
  6  2  2  0  0  0  0
  6  3  1  0  0  0  0
  7  9  1  0  0  0  0
  8 11  1  0  0  0  0
  8  6  1  0  0  0  0
  9 20  1  0  0  0  0
 10  8  2  0  0  0  0
 14  1  1  0  0  0  0
 15  2  1  0  0  0  0
 16  3  1  0  0  0  0
 19  9  1  0  0  0  0
M  END
>  <HBA>
3

>  <HBD>
1

>  <TPSA>
52.32

>  <cid>
12082

>  <dipole>
3.58

>  <excitation_energy_1>
4.682

>  <excitation_energy_2>
4.716

>  <excitation_energy_3>
4.954

>  <excitation_energy_4>
5.034

>  <homo_energy>
-5.731

>  <homo_lumo_gap>
5.029

>  <logP>
1.637

>  <lumo_energy>
-0.702

>  <melting_point>
79.42

>  <molecular_refractivity>
42.13

>  <oscillator_strength_1>
0.4252

>  <oscillator_strength_2>
0.0103

>  <oscillator_strength_3>
0.0135

>  <oscillator_strength_4>
0.0002

>  <open_babel_can_smiles>
COC(=O)c1ccc(cc1)N

>  <mulliken_charges>
20
1   -0.212157
2   -0.161372
3   -0.167612
4   -0.182593
5   -0.18143
6   0.04822
7   0.334366
8   0.582566
9   -0.790219
10   -0.503077
11   -0.472746
12   0.15836
13   0.167675
14   0.167753
15   0.159939
16   0.152992
17   0.123445
18   0.121598
19   0.327393
20   0.326897

>  <lowdin_charges>
20
1   -0.274412
2   -0.119213
3   -0.12541
4   -0.201206
5   -0.203828
6   -0.075639
7   0.075703
8   0.195784
9   -0.472548
10   -0.282441
11   -0.200214
12   0.156311
13   0.155675
14   0.15666
15   0.176962
16   0.169681
17   0.153976
18   0.155622
19   0.278796
20   0.279741

$$$$

