PCCDB-ID:  19299
public computational chemistry database (PCCDB) project, http://pccdb.org

 25 25  0  0  0  0  0  0  0  0999 V2000
    0.8699    0.0125    0.0849 C   0  0  0  0  0  0  0  0  0  0  0  0
    3.1233   -1.1477    0.0262 C   0  0  0  0  0  0  0  0  0  0  0  0
    3.0709    1.2638    0.0431 C   0  0  0  0  0  0  0  0  0  0  0  0
    4.5161   -1.1143   -0.0097 C   0  0  0  0  0  0  0  0  0  0  0  0
    4.4562    1.3108    0.0071 C   0  0  0  0  0  0  0  0  0  0  0  0
    8.9145    3.2463   -1.1159 C   0  0  0  0  0  0  0  0  0  0  0  0
   10.6946    1.6236   -1.3802 C   0  0  0  0  0  0  0  0  0  0  0  0
    8.6596    0.9557   -0.1121 C   0  0  0  0  0  0  0  0  0  0  0  0
    2.3785    0.0370    0.0527 C   0  0  0  0  0  0  0  0  0  0  0  0
    9.2384    1.8167   -1.2730 C   0  0  0  0  0  0  0  0  0  0  0  0
    5.1889    0.1113   -0.0218 C   0  0  0  0  0  0  0  0  0  0  0  0
    8.6660    4.3721   -0.9940 N   0  0  0  0  0  0  0  0  0  0  0  0
   11.8371    1.4390   -1.4539 N   0  0  0  0  0  0  0  0  0  0  0  0
    7.2073    1.1271   -0.0881 N   0  0  0  0  0  0  0  0  0  0  0  0
    6.6072    0.0276   -0.0605 N   0  0  0  0  0  0  0  0  0  0  0  0
    0.4867   -1.0063    0.1939 H   0  0  0  0  0  0  0  0  0  0  0  0
    0.4475    0.4318   -0.8372 H   0  0  0  0  0  0  0  0  0  0  0  0
    0.4797    0.6119    0.9162 H   0  0  0  0  0  0  0  0  0  0  0  0
    2.6082   -2.1047    0.0363 H   0  0  0  0  0  0  0  0  0  0  0  0
    2.5052    2.1924    0.0663 H   0  0  0  0  0  0  0  0  0  0  0  0
    5.1027   -2.0278   -0.0286 H   0  0  0  0  0  0  0  0  0  0  0  0
    4.9880    2.2561    0.0020 H   0  0  0  0  0  0  0  0  0  0  0  0
    9.0661    1.3252    0.8364 H   0  0  0  0  0  0  0  0  0  0  0  0
    8.9471   -0.0928   -0.2501 H   0  0  0  0  0  0  0  0  0  0  0  0
    8.7832    1.4715   -2.2115 H   0  0  0  0  0  0  0  0  0  0  0  0
  1 16  1  0  0  0  0
  1 18  1  0  0  0  0
  2 19  1  0  0  0  0
  2  9  2  0  0  0  0
  3  9  1  0  0  0  0
  3 20  1  0  0  0  0
  4  2  1  0  0  0  0
  5  3  2  0  0  0  0
  6 12  3  0  0  0  0
  7 10  1  0  0  0  0
  8 14  1  0  0  0  0
  8 23  1  0  0  0  0
  9  1  1  0  0  0  0
 10  6  1  0  0  0  0
 10  8  1  0  0  0  0
 11  4  2  0  0  0  0
 11  5  1  0  0  0  0
 13  7  3  0  0  0  0
 14 15  1  0  0  0  0
 15 11  1  0  0  0  0
 17  1  1  0  0  0  0
 21  4  1  0  0  0  0
 22  5  1  0  0  0  0
 24  8  1  0  0  0  0
 25 10  1  0  0  0  0
M  RAD  2  14   2  15   2
M  END
>  <HBA>
4

>  <HBD>
0

>  <TPSA>
72.3

>  <cid>
19299

>  <dipole>
6.19

>  <excitation_energy_1>
2.986

>  <excitation_energy_2>
4.147

>  <excitation_energy_3>
4.251

>  <excitation_energy_4>
5.35

>  <homo_energy>
-6.778

>  <homo_lumo_gap>
4.444

>  <logP>
2.742

>  <lumo_energy>
-2.335

>  <melting_point>
96.86

>  <molecular_refractivity>
55.71

>  <oscillator_strength_1>
0.0002

>  <oscillator_strength_2>
0.1004

>  <oscillator_strength_3>
0.429

>  <oscillator_strength_4>
0.0016

>  <open_babel_can_smiles>
N#CC(C#N)C[N][N]c1ccc(cc1)C

>  <mulliken_charges>
25
1   -0.533475
2   -0.191684
3   -0.191282
4   -0.131739
5   -0.124115
6   0.387611
7   0.373041
8   -0.12167
9   0.189231
10   -0.240332
11   0.246337
12   -0.443054
13   -0.445518
14   -0.199145
15   -0.288134
16   0.161706
17   0.172577
18   0.17019
19   0.134812
20   0.137826
21   0.147997
22   0.169084
23   0.194884
24   0.180901
25   0.24395

>  <lowdin_charges>
25
1   -0.443143
2   -0.167787
3   -0.158859
4   -0.138369
5   -0.142978
6   -0.008358
7   -0.011013
8   -0.201447
9   0.021833
10   -0.115068
11   -0.002598
12   -0.089545
13   -0.087927
14   -0.104781
15   -0.064804
16   0.15976
17   0.167377
18   0.166712
19   0.160794
20   0.161832
21   0.170897
22   0.178986
23   0.176445
24   0.162202
25   0.20984

$$$$

