PCCDB-ID:  28321
public computational chemistry database (PCCDB) project, http://pccdb.org

 26 25  0  0  0  0  0  0  0  0999 V2000
    6.5097    0.7585    4.4140 C   0  0  0  0  0  0  0  0  0  0  0  0
    5.3697   -0.9123    0.6048 C   0  0  0  0  0  0  0  0  0  0  0  0
    5.8185    1.5020   -0.0497 C   0  0  0  0  0  0  0  0  0  0  0  0
    7.0027    0.1453    3.1366 C   0  0  0  0  0  0  0  0  0  0  0  0
    5.5323   -2.0453    1.6213 C   0  0  0  0  0  0  0  0  0  0  0  0
    5.0409    1.2230   -1.3478 C   0  0  0  0  0  0  0  0  0  0  0  0
    7.7468   -0.1623    0.0326 C   0  0  0  0  0  0  0  0  0  0  0  0
    6.3895    0.2614    0.6838 C   0  0  0  0  0  0  0  0  0  0  0  0
    7.7837   -0.7930    3.0917 O   0  0  0  0  0  0  0  0  0  0  0  0
    4.9496   -2.0429    2.6774 O   0  0  0  0  0  0  0  0  0  0  0  0
    6.3456   -3.0730    1.2871 O   0  0  0  0  0  0  0  0  0  0  0  0
    3.8373    1.3288   -1.3937 O   0  0  0  0  0  0  0  0  0  0  0  0
    5.7627    0.8626   -2.4179 O   0  0  0  0  0  0  0  0  0  0  0  0
    8.0151    0.2100   -1.0979 O   0  0  0  0  0  0  0  0  0  0  0  0
    8.5266   -1.0205    0.6604 O   0  0  0  0  0  0  0  0  0  0  0  0
    6.4708    0.7608    2.0623 O   0  0  0  0  0  0  0  0  0  0  0  0
    7.1909    0.5066    5.2273 H   0  0  0  0  0  0  0  0  0  0  0  0
    5.5237    0.3286    4.6267 H   0  0  0  0  0  0  0  0  0  0  0  0
    6.3969    1.8405    4.3160 H   0  0  0  0  0  0  0  0  0  0  0  0
    4.3759   -0.4919    0.7737 H   0  0  0  0  0  0  0  0  0  0  0  0
    5.3911   -1.2992   -0.4212 H   0  0  0  0  0  0  0  0  0  0  0  0
    5.1031    1.9659    0.6293 H   0  0  0  0  0  0  0  0  0  0  0  0
    6.6338    2.2082   -0.2358 H   0  0  0  0  0  0  0  0  0  0  0  0
    6.8018   -2.9089    0.4446 H   0  0  0  0  0  0  0  0  0  0  0  0
    6.7059    0.7625   -2.1500 H   0  0  0  0  0  0  0  0  0  0  0  0
    8.2761   -1.0974    1.6341 H   0  0  0  0  0  0  0  0  0  0  0  0
  1 18  1  0  0  0  0
  1 17  1  0  0  0  0
  2  8  1  0  0  0  0
  2 20  1  0  0  0  0
  2  5  1  0  0  0  0
  3 22  1  0  0  0  0
  3  8  1  0  0  0  0
  4  1  1  0  0  0  0
  5 10  2  0  0  0  0
  6  3  1  0  0  0  0
  7 15  1  0  0  0  0
  7  8  1  0  0  0  0
  8 16  1  0  0  0  0
  9  4  2  0  0  0  0
 11  5  1  0  0  0  0
 12  6  2  0  0  0  0
 13 25  1  0  0  0  0
 13  6  1  0  0  0  0
 14  7  2  0  0  0  0
 15 26  1  0  0  0  0
 16  4  1  0  0  0  0
 19  1  1  0  0  0  0
 21  2  1  0  0  0  0
 23  3  1  0  0  0  0
 24 11  1  0  0  0  0
M  END
>  <HBA>
8

>  <HBD>
3

>  <TPSA>
138.2

>  <cid>
28321

>  <dipole>
3.87

>  <excitation_energy_1>
5.29

>  <excitation_energy_2>
5.396

>  <excitation_energy_3>
5.448

>  <excitation_energy_4>
5.586

>  <homo_energy>
-7.516

>  <homo_lumo_gap>
6.109

>  <logP>
-0.678

>  <lumo_energy>
-1.407

>  <melting_point>
227.05

>  <molecular_refractivity>
47.21

>  <oscillator_strength_1>
0.0025

>  <oscillator_strength_2>
0.002

>  <oscillator_strength_3>
0.0005

>  <oscillator_strength_4>
0.0069

>  <open_babel_can_smiles>
OC(=O)CC(C(=O)O)(OC(=O)C)CC(=O)O

>  <mulliken_charges>
26
1   -0.523791
2   -0.408055
3   -0.399162
4   0.639296
5   0.596103
6   0.579343
7   0.596341
8   0.190619
9   -0.495679
10   -0.440244
11   -0.551497
12   -0.445056
13   -0.580828
14   -0.475824
15   -0.58063
16   -0.476003
17   0.199439
18   0.224251
19   0.192418
20   0.228403
21   0.193031
22   0.202036
23   0.191874
24   0.420339
25   0.449923
26   0.473355

>  <lowdin_charges>
26
1   -0.45283
2   -0.322567
3   -0.317674
4   0.233265
5   0.185821
6   0.176758
7   0.18036
8   0.105446
9   -0.265512
10   -0.234376
11   -0.336832
12   -0.247012
13   -0.353448
14   -0.260104
15   -0.331395
16   -0.180268
17   0.187229
18   0.202669
19   0.1821
20   0.201322
21   0.17892
22   0.189838
23   0.179244
24   0.363002
25   0.362004
26   0.374039

$$$$

