PCCDB-ID:  29456
public computational chemistry database (PCCDB) project, http://pccdb.org

 34 36  0  0  1  0  0  0  0  0999 V2000
    1.6023    1.2717    0.6269 C   0  0  0  0  0  0  0  0  0  0  0  0
    2.3014    0.0490    0.0229 C   0  0  0  0  0  0  0  0  0  0  0  0
   -0.6963   -6.7436    2.0489 C   0  0  0  0  0  0  0  0  0  0  0  0
   -0.4710   -7.3718    3.2909 C   0  0  0  0  0  0  0  0  0  0  0  0
   -0.0923   -5.5309    1.7400 C   0  0  0  0  0  0  0  0  0  0  0  0
    0.3605   -6.7991    4.2474 C   0  0  0  0  0  0  0  0  0  0  0  0
    3.6971   -2.0673    0.4468 C   0  0  0  0  0  0  0  0  0  0  0  0
    2.5454   -3.0914    0.4183 C   0  0  0  0  0  0  0  0  0  0  0  0
    2.1406   -3.6537    3.9278 C   0  0  0  0  0  0  0  0  0  0  0  0
    3.0502   -0.8156    1.0630 C   0  0  2  0  0  0  0  0  0  0  0  0
    0.7523   -4.9235    2.6858 C   0  0  0  0  0  0  0  0  0  0  0  0
    1.5152   -3.6984    2.7086 C   0  0  0  0  0  0  0  0  0  0  0  0
    0.9637   -5.5771    3.9333 C   0  0  0  0  0  0  0  0  0  0  0  0
    1.6139   -2.6782    1.6064 C   0  0  1  0  0  0  0  0  0  0  0  0
    1.8201   -4.7810    4.6655 N   0  0  0  0  0  0  0  0  0  0  0  0
    2.2118   -1.4202    2.1062 N   0  0  0  0  0  0  0  0  0  0  0  0
    1.1121    1.8734   -0.1464 H   0  0  0  0  0  0  0  0  0  0  0  0
    2.3171    1.9189    1.1505 H   0  0  0  0  0  0  0  0  0  0  0  0
    0.8261    0.9838    1.3475 H   0  0  0  0  0  0  0  0  0  0  0  0
    3.0256    0.3885   -0.7309 H   0  0  0  0  0  0  0  0  0  0  0  0
    1.5659   -0.5678   -0.5117 H   0  0  0  0  0  0  0  0  0  0  0  0
   -1.3522   -7.2180    1.3239 H   0  0  0  0  0  0  0  0  0  0  0  0
   -0.9561   -8.3205    3.5039 H   0  0  0  0  0  0  0  0  0  0  0  0
   -0.2732   -5.0573    0.7781 H   0  0  0  0  0  0  0  0  0  0  0  0
    0.5324   -7.2857    5.2044 H   0  0  0  0  0  0  0  0  0  0  0  0
    4.1279   -1.8807   -0.5424 H   0  0  0  0  0  0  0  0  0  0  0  0
    4.4998   -2.4164    1.1050 H   0  0  0  0  0  0  0  0  0  0  0  0
    2.8968   -4.1216    0.5184 H   0  0  0  0  0  0  0  0  0  0  0  0
    1.9945   -3.0272   -0.5267 H   0  0  0  0  0  0  0  0  0  0  0  0
    2.7939   -2.8910    4.3244 H   0  0  0  0  0  0  0  0  0  0  0  0
    3.8054   -0.1793    1.5482 H   0  0  0  0  0  0  0  0  0  0  0  0
    0.5985   -2.5171    1.2057 H   0  0  0  0  0  0  0  0  0  0  0  0
    2.1279   -4.9644    5.6073 H   0  0  0  0  0  0  0  0  0  0  0  0
    1.5109   -0.7823    2.4723 H   0  0  0  0  0  0  0  0  0  0  0  0
  1 18  1  0  0  0  0
  1 19  1  0  0  0  0
  2  1  1  0  0  0  0
  2 10  1  0  0  0  0
  3  4  1  0  0  0  0
  4 23  1  0  0  0  0
  4  6  2  0  0  0  0
  5  3  2  0  0  0  0
  5 11  1  0  0  0  0
  6 25  1  0  0  0  0
  7 10  1  0  0  0  0
  7 27  1  0  0  0  0
  8  7  1  0  0  0  0
  8 28  1  0  0  0  0
  8 14  1  0  0  0  0
  9 30  1  0  0  0  0
  9 15  1  0  0  0  0
 10 31  1  1  0  0  0
 10 16  1  0  0  0  0
 11 12  1  0  0  0  0
 11 13  2  0  0  0  0
 12  9  2  0  0  0  0
 13  6  1  0  0  0  0
 13 15  1  0  0  0  0
 14 32  1  6  0  0  0
 14 16  1  0  0  0  0
 14 12  1  0  0  0  0
 15 33  1  0  0  0  0
 16 34  1  0  0  0  0
 17  1  1  0  0  0  0
 20  2  1  0  0  0  0
 21  2  1  0  0  0  0
 22  3  1  0  0  0  0
 24  5  1  0  0  0  0
 26  7  1  0  0  0  0
 29  8  1  0  0  0  0
M  END
>  <HBA>
1

>  <HBD>
2

>  <TPSA>
27.82

>  <cid>
29456

>  <dipole>
1.57

>  <excitation_energy_1>
4.499

>  <excitation_energy_2>
4.652

>  <excitation_energy_3>
4.793

>  <excitation_energy_4>
4.871

>  <homo_energy>
-5.138

>  <homo_lumo_gap>
5.2

>  <logP>
3.7

>  <lumo_energy>
0.063

>  <melting_point>
146.2

>  <molecular_refractivity>
71.9

>  <oscillator_strength_1>
0.0582

>  <oscillator_strength_2>
0.0008

>  <oscillator_strength_3>
0.0094

>  <oscillator_strength_4>
0.0092

>  <open_babel_can_smiles>
CC[C@@H]1CC[C@H](N1)c1c[nH]c2c1cccc2

>  <mulliken_charges>
34
1   -0.450768
2   -0.259841
3   -0.14106
4   -0.152174
5   -0.212532
6   -0.164163
7   -0.26961
8   -0.2933
9   0.009616
10   0.046419
11   0.079842
12   0.05673
13   0.316025
14   -0.024779
15   -0.697333
16   -0.586702
17   0.147195
18   0.144633
19   0.134664
20   0.130154
21   0.133227
22   0.116467
23   0.118982
24   0.119145
25   0.117277
26   0.133498
27   0.146379
28   0.155277
29   0.134304
30   0.155848
31   0.119015
32   0.117774
33   0.323104
34   0.296688

>  <lowdin_charges>
34
1   -0.451423
2   -0.294597
3   -0.180135
4   -0.166706
5   -0.166785
6   -0.188937
7   -0.280978
8   -0.285689
9   -0.132871
10   -0.068618
11   -0.037044
12   -0.074032
13   0.030212
14   -0.053491
15   -0.200589
16   -0.366202
17   0.154047
18   0.148831
19   0.142154
20   0.143897
21   0.142336
22   0.153969
23   0.153577
24   0.152951
25   0.153217
26   0.145432
27   0.151443
28   0.155381
29   0.142494
30   0.171828
31   0.135966
32   0.127253
33   0.288022
34   0.255089

$$$$

