PCCDB-ID:  7603
public computational chemistry database (PCCDB) project, http://pccdb.org

 23 23  0  0  0  0  0  0  0  0999 V2000
    1.7384    0.1133   -0.8846 C   0  0  0  0  0  0  0  0  0  0  0  0
    7.7892    4.2064   -1.6089 C   0  0  0  0  0  0  0  0  0  0  0  0
    3.2411   -0.0627   -1.0878 C   0  0  0  0  0  0  0  0  0  0  0  0
    7.4566    0.4245   -1.9287 C   0  0  0  0  0  0  0  0  0  0  0  0
    8.0176    1.6991   -1.8992 C   0  0  0  0  0  0  0  0  0  0  0  0
    6.0872    0.2316   -1.7464 C   0  0  0  0  0  0  0  0  0  0  0  0
    5.8275    2.6238   -1.5081 C   0  0  0  0  0  0  0  0  0  0  0  0
    7.1973    2.8168   -1.6827 C   0  0  0  0  0  0  0  0  0  0  0  0
    5.2475    1.3403   -1.5381 C   0  0  0  0  0  0  0  0  0  0  0  0
    3.8658    1.2136   -1.4015 N   0  0  0  0  0  0  0  0  0  0  0  0
    1.2641   -0.8501   -0.6720 H   0  0  0  0  0  0  0  0  0  0  0  0
    1.2719    0.5389   -1.7795 H   0  0  0  0  0  0  0  0  0  0  0  0
    1.5279    0.7805   -0.0389 H   0  0  0  0  0  0  0  0  0  0  0  0
    8.7100    4.2796   -2.1974 H   0  0  0  0  0  0  0  0  0  0  0  0
    8.0417    4.4777   -0.5749 H   0  0  0  0  0  0  0  0  0  0  0  0
    7.0893    4.9631   -1.9802 H   0  0  0  0  0  0  0  0  0  0  0  0
    3.4139   -0.7530   -1.9232 H   0  0  0  0  0  0  0  0  0  0  0  0
    3.6902   -0.5314   -0.1942 H   0  0  0  0  0  0  0  0  0  0  0  0
    8.0935   -0.4413   -2.0944 H   0  0  0  0  0  0  0  0  0  0  0  0
    9.0870    1.8315   -2.0418 H   0  0  0  0  0  0  0  0  0  0  0  0
    5.6775   -0.7722   -1.7729 H   0  0  0  0  0  0  0  0  0  0  0  0
    5.1812    3.4873   -1.3533 H   0  0  0  0  0  0  0  0  0  0  0  0
    3.4333    2.0011   -0.9338 H   0  0  0  0  0  0  0  0  0  0  0  0
  1 11  1  0  0  0  0
  1 13  1  0  0  0  0
  2 15  1  0  0  0  0
  3  1  1  0  0  0  0
  3 18  1  0  0  0  0
  4  5  2  0  0  0  0
  4  6  1  0  0  0  0
  5  8  1  0  0  0  0
  6  9  2  0  0  0  0
  7 22  1  0  0  0  0
  8  2  1  0  0  0  0
  8  7  2  0  0  0  0
  9  7  1  0  0  0  0
  9 10  1  0  0  0  0
 10  3  1  0  0  0  0
 10 23  1  0  0  0  0
 12  1  1  0  0  0  0
 14  2  1  0  0  0  0
 16  2  1  0  0  0  0
 17  3  1  0  0  0  0
 19  4  1  0  0  0  0
 20  5  1  0  0  0  0
 21  6  1  0  0  0  0
M  END
>  <HBA>
1

>  <HBD>
1

>  <TPSA>
12.03

>  <cid>
7603

>  <dipole>
1.72

>  <excitation_energy_1>
4.521

>  <excitation_energy_2>
4.748

>  <excitation_energy_3>
5.038

>  <excitation_energy_4>
5.184

>  <homo_energy>
-5.102

>  <homo_lumo_gap>
5.467

>  <logP>
2.5

>  <lumo_energy>
0.365

>  <melting_point>
42.04

>  <molecular_refractivity>
45.52

>  <oscillator_strength_1>
0.0373

>  <oscillator_strength_2>
0.0131

>  <oscillator_strength_3>
0.0151

>  <oscillator_strength_4>
0.0565

>  <open_babel_can_smiles>
CCNc1cccc(c1)C

>  <mulliken_charges>
23
1   -0.470241
2   -0.52945
3   -0.099493
4   -0.136185
5   -0.189315
6   -0.188244
7   -0.249172
8   0.177861
9   0.363514
10   -0.657835
11   0.155022
12   0.162022
13   0.144599
14   0.154308
15   0.161466
16   0.152858
17   0.151999
18   0.13441
19   0.120717
20   0.1103
21   0.119505
22   0.10297
23   0.308382

>  <lowdin_charges>
23
1   -0.44983
2   -0.441693
3   -0.192432
4   -0.14602
5   -0.198652
6   -0.215991
7   -0.213937
8   0.010108
9   0.062824
10   -0.304574
11   0.158864
12   0.157598
13   0.148172
14   0.156691
15   0.15859
16   0.156594
17   0.147112
18   0.130579
19   0.154534
20   0.148592
21   0.155342
22   0.146891
23   0.27064

$$$$

