PCCDB-ID:  69213
public computational chemistry database (PCCDB) project, http://pccdb.org

 14 14  0  0  0  0  0  0  0  0999 V2000
    0.9289    1.1204   -0.0276 C   0  0  0  0  0  0  0  0  0  0  0  0
   -0.8836   -1.1203   -0.0424 C   0  0  0  0  0  0  0  0  0  0  0  0
   -0.4012    1.3668   -0.0425 C   0  0  0  0  0  0  0  0  0  0  0  0
    1.4605   -0.2417   -0.0207 C   0  0  0  0  0  0  0  0  0  0  0  0
   -1.4152    0.2417   -0.0504 C   0  0  0  0  0  0  0  0  0  0  0  0
    0.4465   -1.3667   -0.0298 C   0  0  0  0  0  0  0  0  0  0  0  0
   -0.9721    2.5816   -0.0526 O   0  0  0  0  0  0  0  0  0  0  0  0
    2.6569   -0.4898   -0.0077 O   0  0  0  0  0  0  0  0  0  0  0  0
   -2.6116    0.4899   -0.0626 O   0  0  0  0  0  0  0  0  0  0  0  0
    1.0174   -2.5816   -0.0252 O   0  0  0  0  0  0  0  0  0  0  0  0
    1.6688    1.9170   -0.0202 H   0  0  0  0  0  0  0  0  0  0  0  0
   -1.6235   -1.9169   -0.0468 H   0  0  0  0  0  0  0  0  0  0  0  0
   -0.2776    3.2621   -0.0477 H   0  0  0  0  0  0  0  0  0  0  0  0
    0.3229   -3.2621   -0.0297 H   0  0  0  0  0  0  0  0  0  0  0  0
  1  4  1  0  0  0  0
  1 11  1  0  0  0  0
  2  6  2  0  0  0  0
  3  1  2  0  0  0  0
  4  8  2  0  0  0  0
  5  3  1  0  0  0  0
  5  2  1  0  0  0  0
  6 10  1  0  0  0  0
  6  4  1  0  0  0  0
  7 13  1  0  0  0  0
  7  3  1  0  0  0  0
  9  5  2  0  0  0  0
 12  2  1  0  0  0  0
 14 10  1  0  0  0  0
M  END
>  <HBA>
4

>  <HBD>
2

>  <TPSA>
74.6

>  <cid>
69213

>  <dipole>
0.0

>  <excitation_energy_1>
2.867

>  <excitation_energy_2>
2.985

>  <excitation_energy_3>
3.081

>  <excitation_energy_4>
4.405

>  <homo_energy>
-6.999

>  <homo_lumo_gap>
3.918

>  <logP>
0.022

>  <lumo_energy>
-3.08

>  <melting_point>
87.8

>  <molecular_refractivity>
31.44

>  <oscillator_strength_1>
0.0

>  <oscillator_strength_2>
0.0

>  <oscillator_strength_3>
0.0

>  <oscillator_strength_4>
0.2708

>  <open_babel_can_smiles>
OC1=CC(=O)C(=CC1=O)O

>  <mulliken_charges>
14
1   -0.283299
2   -0.283376
3   0.321805
4   0.433234
5   0.433283
6   0.321863
7   -0.584756
8   -0.459587
9   -0.459605
10   -0.584753
11   0.1508
12   0.150812
13   0.42179
14   0.42179

>  <lowdin_charges>
14
1   -0.259095
2   -0.259101
3   0.099111
4   0.139258
5   0.139267
6   0.099115
7   -0.314235
8   -0.209876
9   -0.209885
10   -0.314235
11   0.174992
12   0.174993
13   0.369845
14   0.369846

$$$$

