PCCDB-ID:  37587
public computational chemistry database (PCCDB) project, http://pccdb.org

 31 33  0  0  0  0  0  0  0  0999 V2000
    0.6188    1.3786   -0.5827 C   0  0  0  0  0  0  0  0  0  0  0  0
    1.4906    0.3054    0.0875 C   0  0  0  0  0  0  0  0  0  0  0  0
   -0.8225    1.3346   -0.0520 C   0  0  0  0  0  0  0  0  0  0  0  0
   -0.7433   -0.9071    6.4087 C   0  0  0  0  0  0  0  0  0  0  0  0
   -1.1298   -2.2585    6.3081 C   0  0  0  0  0  0  0  0  0  0  0  0
    0.8859   -1.0946   -0.0921 C   0  0  0  0  0  0  0  0  0  0  0  0
   -1.4381   -0.0637   -0.2138 C   0  0  0  0  0  0  0  0  0  0  0  0
   -0.4777   -0.1431    5.2763 C   0  0  0  0  0  0  0  0  0  0  0  0
   -1.2629   -2.8869    5.0718 C   0  0  0  0  0  0  0  0  0  0  0  0
   -0.5780   -1.1891    0.4168 C   0  0  0  0  0  0  0  0  0  0  0  0
   -0.6047   -0.7546    4.0232 C   0  0  0  0  0  0  0  0  0  0  0  0
   -0.9936   -2.1134    3.9418 C   0  0  0  0  0  0  0  0  0  0  0  0
   -0.6592   -1.2188    1.9206 C   0  0  0  0  0  0  0  0  0  0  0  0
   -0.4047   -0.2322    2.7519 N   0  0  0  0  0  0  0  0  0  0  0  0
   -1.0183   -2.3791    2.5839 N   0  0  0  0  0  0  0  0  0  0  0  0
    0.6143    1.2167   -1.6720 H   0  0  0  0  0  0  0  0  0  0  0  0
    1.0514    2.3733   -0.4167 H   0  0  0  0  0  0  0  0  0  0  0  0
    1.5788    0.5264    1.1577 H   0  0  0  0  0  0  0  0  0  0  0  0
    2.5049    0.3200   -0.3319 H   0  0  0  0  0  0  0  0  0  0  0  0
   -1.4456    2.0669   -0.5819 H   0  0  0  0  0  0  0  0  0  0  0  0
   -0.8280    1.6068    1.0089 H   0  0  0  0  0  0  0  0  0  0  0  0
   -0.6506   -0.4563    7.3929 H   0  0  0  0  0  0  0  0  0  0  0  0
   -1.3295   -2.8236    7.2144 H   0  0  0  0  0  0  0  0  0  0  0  0
    1.5033   -1.8499    0.4105 H   0  0  0  0  0  0  0  0  0  0  0  0
    0.8808   -1.3518   -1.1614 H   0  0  0  0  0  0  0  0  0  0  0  0
   -1.5392   -0.2916   -1.2851 H   0  0  0  0  0  0  0  0  0  0  0  0
   -2.4492   -0.0882    0.2109 H   0  0  0  0  0  0  0  0  0  0  0  0
   -0.1778    0.8980    5.3478 H   0  0  0  0  0  0  0  0  0  0  0  0
   -1.5602   -3.9296    4.9986 H   0  0  0  0  0  0  0  0  0  0  0  0
   -0.9852   -2.1493    0.0681 H   0  0  0  0  0  0  0  0  0  0  0  0
   -1.2636   -3.2549    2.1463 H   0  0  0  0  0  0  0  0  0  0  0  0
  1 17  1  0  0  0  0
  1  3  1  0  0  0  0
  1  2  1  0  0  0  0
  2 18  1  0  0  0  0
  3 21  1  0  0  0  0
  4 22  1  0  0  0  0
  5  4  1  0  0  0  0
  5 23  1  0  0  0  0
  6  2  1  0  0  0  0
  6 24  1  0  0  0  0
  6 10  1  0  0  0  0
  7  3  1  0  0  0  0
  7 27  1  0  0  0  0
  7 10  1  0  0  0  0
  8 28  1  0  0  0  0
  8  4  2  0  0  0  0
  9  5  2  0  0  0  0
 10 13  1  0  0  0  0
 11  8  1  0  0  0  0
 12 11  2  0  0  0  0
 12  9  1  0  0  0  0
 13 15  1  0  0  0  0
 13 14  2  0  0  0  0
 14 11  1  0  0  0  0
 15 12  1  0  0  0  0
 16  1  1  0  0  0  0
 19  2  1  0  0  0  0
 20  3  1  0  0  0  0
 25  6  1  0  0  0  0
 26  7  1  0  0  0  0
 29  9  1  0  0  0  0
 30 10  1  0  0  0  0
 31 15  1  0  0  0  0
M  END
>  <HBA>
1

>  <HBD>
1

>  <TPSA>
28.68

>  <cid>
37587

>  <dipole>
3.08

>  <excitation_energy_1>
4.939

>  <excitation_energy_2>
5.146

>  <excitation_energy_3>
5.173

>  <excitation_energy_4>
5.288

>  <homo_energy>
-5.878

>  <homo_lumo_gap>
5.638

>  <logP>
3.611

>  <lumo_energy>
-0.239

>  <melting_point>
134.53

>  <molecular_refractivity>
62.98

>  <oscillator_strength_1>
0.1207

>  <oscillator_strength_2>
0.0136

>  <oscillator_strength_3>
0.0733

>  <oscillator_strength_4>
0.0003

>  <open_babel_can_smiles>
C1CCC(CC1)c1nc2c([nH]1)cccc2

>  <mulliken_charges>
31
1   -0.259163
2   -0.26118
3   -0.2624
4   -0.144001
5   -0.149654
6   -0.257401
7   -0.257237
8   -0.180744
9   -0.173972
10   -0.181329
11   0.235436
12   0.350271
13   0.531379
14   -0.563849
15   -0.742085
16   0.118277
17   0.130666
18   0.166831
19   0.125041
20   0.123404
21   0.173825
22   0.123905
23   0.124658
24   0.133244
25   0.129634
26   0.127566
27   0.136372
28   0.136163
29   0.124152
30   0.114642
31   0.32755

>  <lowdin_charges>
31
1   -0.273982
2   -0.280832
3   -0.284978
4   -0.171423
5   -0.164142
6   -0.271439
7   -0.267985
8   -0.157626
9   -0.185468
10   -0.134437
11   0.011248
12   0.015888
13   0.085092
14   -0.212026
15   -0.210674
16   0.129383
17   0.143603
18   0.155694
19   0.140692
20   0.142184
21   0.159043
22   0.156087
23   0.157038
24   0.145615
25   0.138284
26   0.137645
27   0.145749
28   0.163495
29   0.155163
30   0.140841
31   0.292268

$$$$

