PCCDB-ID:  24124
public computational chemistry database (PCCDB) project, http://pccdb.org

 28 28  0  0  1  0  0  0  0  0999 V2000
    5.2216    0.0684   -0.0529 C   0  0  0  0  0  0  0  0  0  0  0  0
   -0.9022   -1.8197   -5.6329 C   0  0  0  0  0  0  0  0  0  0  0  0
    2.9782    1.5606   -4.1760 C   0  0  0  0  0  0  0  0  0  0  0  0
    3.3486    0.6014   -5.0297 C   0  0  0  0  0  0  0  0  0  0  0  0
    2.2985    1.2921   -2.8582 C   0  0  0  0  0  0  0  0  0  0  0  0
    3.1336   -0.8695   -4.7822 C   0  0  0  0  0  0  0  0  0  0  0  0
    2.3858   -0.1922   -2.4335 C   0  0  1  0  0  0  0  0  0  0  0  0
    2.1448   -1.1414   -3.6249 C   0  0  1  0  0  0  0  0  0  0  0  0
    3.7004   -0.5477   -1.7456 C   0  0  0  0  0  0  0  0  0  0  0  0
    0.6813   -1.0773   -4.0517 C   0  0  0  0  0  0  0  0  0  0  0  0
    4.3723   -1.5338   -1.9716 O   0  0  0  0  0  0  0  0  0  0  0  0
   -0.2091   -0.5204   -3.4418 O   0  0  0  0  0  0  0  0  0  0  0  0
    4.0189    0.3496   -0.7869 O   0  0  0  0  0  0  0  0  0  0  0  0
    0.4627   -1.7780   -5.1861 O   0  0  0  0  0  0  0  0  0  0  0  0
    5.3292    0.8891    0.6569 H   0  0  0  0  0  0  0  0  0  0  0  0
    6.0815    0.0259   -0.7264 H   0  0  0  0  0  0  0  0  0  0  0  0
    5.1363   -0.8864    0.4729 H   0  0  0  0  0  0  0  0  0  0  0  0
   -0.8921   -2.4138   -6.5472 H   0  0  0  0  0  0  0  0  0  0  0  0
   -1.2717   -0.8106   -5.8330 H   0  0  0  0  0  0  0  0  0  0  0  0
   -1.5396   -2.2867   -4.8773 H   0  0  0  0  0  0  0  0  0  0  0  0
    3.1546    2.6049   -4.4300 H   0  0  0  0  0  0  0  0  0  0  0  0
    3.8479    0.8716   -5.9592 H   0  0  0  0  0  0  0  0  0  0  0  0
    1.2383    1.5684   -2.9249 H   0  0  0  0  0  0  0  0  0  0  0  0
    2.7304    1.9217   -2.0735 H   0  0  0  0  0  0  0  0  0  0  0  0
    4.0906   -1.3469   -4.5354 H   0  0  0  0  0  0  0  0  0  0  0  0
    2.7732   -1.3587   -5.6929 H   0  0  0  0  0  0  0  0  0  0  0  0
    1.6033   -0.3652   -1.6838 H   0  0  0  0  0  0  0  0  0  0  0  0
    2.3089   -2.1733   -3.2892 H   0  0  0  0  0  0  0  0  0  0  0  0
  1 17  1  0  0  0  0
  1 15  1  0  0  0  0
  2 14  1  0  0  0  0
  2 20  1  0  0  0  0
  3  5  1  0  0  0  0
  4  6  1  0  0  0  0
  4  3  2  0  0  0  0
  5  7  1  0  0  0  0
  5 24  1  0  0  0  0
  6 25  1  0  0  0  0
  6  8  1  0  0  0  0
  7  9  1  0  0  0  0
  7 27  1  1  0  0  0
  8 28  1  1  0  0  0
  8  7  1  0  0  0  0
  9 13  1  0  0  0  0
 10  8  1  0  0  0  0
 10 12  2  0  0  0  0
 11  9  2  0  0  0  0
 13  1  1  0  0  0  0
 14 10  1  0  0  0  0
 16  1  1  0  0  0  0
 18  2  1  0  0  0  0
 19  2  1  0  0  0  0
 21  3  1  0  0  0  0
 22  4  1  0  0  0  0
 23  5  1  0  0  0  0
 26  6  1  0  0  0  0
M  END
>  <HBA>
4

>  <HBD>
0

>  <TPSA>
52.6

>  <cid>
24124

>  <dipole>
0.51

>  <excitation_energy_1>
5.696

>  <excitation_energy_2>
5.755

>  <excitation_energy_3>
5.779

>  <excitation_energy_4>
5.801

>  <homo_energy>
-6.501

>  <homo_lumo_gap>
6.689

>  <logP>
0.915

>  <lumo_energy>
0.188

>  <melting_point>
28.03

>  <molecular_refractivity>
50.17

>  <oscillator_strength_1>
0.0028

>  <oscillator_strength_2>
0.0022

>  <oscillator_strength_3>
0.0057

>  <oscillator_strength_4>
0.0081

>  <open_babel_can_smiles>
COC(=O)[C@H]1CC=CC[C@@H]1C(=O)OC

>  <mulliken_charges>
28
1   -0.21785
2   -0.217978
3   -0.108102
4   -0.107977
5   -0.324382
6   -0.324523
7   -0.204886
8   -0.205016
9   0.646763
10   0.6469
11   -0.491448
12   -0.491543
13   -0.456744
14   -0.456793
15   0.164879
16   0.171899
17   0.170009
18   0.164915
19   0.171862
20   0.170116
21   0.122808
22   0.122828
23   0.177423
24   0.166191
25   0.177652
26   0.16633
27   0.18334
28   0.183326

>  <lowdin_charges>
28
1   -0.278502
2   -0.277946
3   -0.176082
4   -0.177505
5   -0.280808
6   -0.281508
7   -0.149013
8   -0.146725
9   0.19897
10   0.201186
11   -0.269173
12   -0.270326
13   -0.188394
14   -0.190256
15   0.161345
16   0.160852
17   0.159075
18   0.160741
19   0.159799
20   0.160731
21   0.151965
22   0.153232
23   0.165731
24   0.163913
25   0.167197
26   0.163329
27   0.180016
28   0.178156

$$$$

