PCCDB-ID:  29396
public computational chemistry database (PCCDB) project, http://pccdb.org

 18 18  0  0  0  0  0  0  0  0999 V2000
    0.7746   -1.2284    0.5566 C   0  0  0  0  0  0  0  0  0  0  0  0
    1.7265   -0.1164    0.0761 C   0  0  0  0  0  0  0  0  0  0  0  0
   -0.4554   -1.4567   -0.3408 C   0  0  0  0  0  0  0  0  0  0  0  0
    0.9894    1.0955   -0.5092 C   0  0  0  0  0  0  0  0  0  0  0  0
   -1.3572    0.7317    0.1007 C   0  0  0  0  0  0  0  0  0  0  0  0
   -1.5430   -0.4909   -0.2059 N   0  0  0  0  0  0  0  0  0  0  0  0
   -0.1934    1.4600    0.2757 N   0  0  0  0  0  0  0  0  0  0  0  0
   -2.4426    1.5288    0.3322 O   0  0  0  0  0  0  0  0  0  0  0  0
    0.4137   -0.9926    1.5650 H   0  0  0  0  0  0  0  0  0  0  0  0
    1.3368   -2.1673    0.6421 H   0  0  0  0  0  0  0  0  0  0  0  0
    2.4025   -0.5041   -0.6981 H   0  0  0  0  0  0  0  0  0  0  0  0
    2.3581    0.2027    0.9144 H   0  0  0  0  0  0  0  0  0  0  0  0
   -0.8841   -2.4359   -0.0935 H   0  0  0  0  0  0  0  0  0  0  0  0
   -0.1469   -1.5325   -1.3958 H   0  0  0  0  0  0  0  0  0  0  0  0
    0.7033    0.8945   -1.5519 H   0  0  0  0  0  0  0  0  0  0  0  0
    1.6517    1.9667   -0.5255 H   0  0  0  0  0  0  0  0  0  0  0  0
   -0.3709    2.4522    0.3661 H   0  0  0  0  0  0  0  0  0  0  0  0
   -3.2032    0.9241    0.2719 H   0  0  0  0  0  0  0  0  0  0  0  0
  1 10  1  0  0  0  0
  1  9  1  0  0  0  0
  2  1  1  0  0  0  0
  2 12  1  0  0  0  0
  3  6  1  0  0  0  0
  3 13  1  0  0  0  0
  3  1  1  0  0  0  0
  4  2  1  0  0  0  0
  4  7  1  0  0  0  0
  5  7  1  0  0  0  0
  5  8  1  0  0  0  0
  6  5  2  0  0  0  0
  7 17  1  0  0  0  0
 11  2  1  0  0  0  0
 14  3  1  0  0  0  0
 15  4  1  0  0  0  0
 16  4  1  0  0  0  0
 18  8  1  0  0  0  0
M  END
>  <HBA>
3

>  <HBD>
2

>  <TPSA>
41.13

>  <cid>
29396

>  <dipole>
1.84

>  <excitation_energy_1>
5.333

>  <excitation_energy_2>
5.837

>  <excitation_energy_3>
5.941

>  <excitation_energy_4>
5.998

>  <homo_energy>
-5.88

>  <homo_lumo_gap>
7.363

>  <logP>
0.737

>  <lumo_energy>
1.483

>  <melting_point>
82.76

>  <molecular_refractivity>
38.06

>  <oscillator_strength_1>
0.0094

>  <oscillator_strength_2>
0.0086

>  <oscillator_strength_3>
0.0068

>  <oscillator_strength_4>
0.0119

>  <open_babel_can_smiles>
OC1=NCCCCN1

>  <mulliken_charges>
18
1   -0.275264
2   -0.248654
3   -0.146473
4   -0.149612
5   0.648687
6   -0.488962
7   -0.59431
8   -0.617933
9   0.153093
10   0.132332
11   0.13251
12   0.139367
13   0.141737
14   0.131711
15   0.151907
16   0.145767
17   0.332316
18   0.411779

>  <lowdin_charges>
18
1   -0.292127
2   -0.285257
3   -0.198383
4   -0.196391
5   0.154692
6   -0.296269
7   -0.305731
8   -0.388924
9   0.150263
10   0.147627
11   0.144477
12   0.147501
13   0.146213
14   0.133663
15   0.138822
16   0.153275
17   0.283762
18   0.362788

$$$$

