PCCDB-ID:  65360
public computational chemistry database (PCCDB) project, http://pccdb.org

 26 25  0  0  0  0  0  0  0  0999 V2000
    2.6527    0.4294   -2.2692 C   0  0  0  0  0  0  0  0  0  0  0  0
   -0.9718    1.8128   -0.7187 C   0  0  0  0  0  0  0  0  0  0  0  0
    0.1110    1.5827    1.5847 C   0  0  0  0  0  0  0  0  0  0  0  0
    2.0719    0.9051   -1.1613 C   0  0  0  0  0  0  0  0  0  0  0  0
   -0.7817    3.8381    0.8122 C   0  0  0  0  0  0  0  0  0  0  0  0
    2.0340    2.3495   -0.7996 C   0  0  0  0  0  0  0  0  0  0  0  0
   -0.1157    2.4987    0.3653 C   0  0  0  0  0  0  0  0  0  0  0  0
    1.1607    3.0061   -0.1544 N   0  0  0  0  0  0  0  0  0  0  0  0
    3.0972    3.0814   -1.2631 O   0  0  0  0  0  0  0  0  0  0  0  0
   -2.6351    5.3764    1.8425 O   0  0  0  0  0  0  0  0  0  0  0  0
   -3.4349    3.5179    0.3779 O   0  0  0  0  0  0  0  0  0  0  0  0
   -2.5343    3.0149    2.6994 O   0  0  0  0  0  0  0  0  0  0  0  0
   -2.4751    3.7767    1.4564 S   0  0  0  0  0  0  0  0  0  0  0  0
    2.6483   -0.6324   -2.4968 H   0  0  0  0  0  0  0  0  0  0  0  0
    3.1181    1.0788   -3.0071 H   0  0  0  0  0  0  0  0  0  0  0  0
   -1.9674    1.5631   -0.3432 H   0  0  0  0  0  0  0  0  0  0  0  0
   -0.5003    0.8909   -1.0677 H   0  0  0  0  0  0  0  0  0  0  0  0
   -1.0961    2.4753   -1.5817 H   0  0  0  0  0  0  0  0  0  0  0  0
   -0.8319    1.3625    2.0910 H   0  0  0  0  0  0  0  0  0  0  0  0
    0.7788    2.0689    2.3034 H   0  0  0  0  0  0  0  0  0  0  0  0
    0.5669    0.6341    1.2862 H   0  0  0  0  0  0  0  0  0  0  0  0
    1.5791    0.2194   -0.4810 H   0  0  0  0  0  0  0  0  0  0  0  0
   -0.8339    4.5179   -0.0412 H   0  0  0  0  0  0  0  0  0  0  0  0
   -0.1831    4.3125    1.5936 H   0  0  0  0  0  0  0  0  0  0  0  0
    3.8157    2.4697   -1.4889 H   0  0  0  0  0  0  0  0  0  0  0  0
   -3.3996    5.7015    1.3304 H   0  0  0  0  0  0  0  0  0  0  0  0
  1  4  2  0  0  0  0
  2 16  1  0  0  0  0
  2  7  1  0  0  0  0
  3 19  1  0  0  0  0
  3 20  1  0  0  0  0
  4  6  1  0  0  0  0
  4 22  1  0  0  0  0
  5 13  1  0  0  0  0
  5 24  1  0  0  0  0
  6  8  2  0  0  0  0
  7  5  1  0  0  0  0
  7  3  1  0  0  0  0
  8  7  1  0  0  0  0
  9  6  1  0  0  0  0
 11 13  1  0  0  0  0
 13 10  1  0  0  0  0
 13 12  1  0  0  0  0
 14  1  1  0  0  0  0
 15  1  1  0  0  0  0
 17  2  1  0  0  0  0
 18  2  1  0  0  0  0
 21  3  1  0  0  0  0
 23  5  1  0  0  0  0
 25  9  1  0  0  0  0
 26 10  1  0  0  0  0
M  RAD  2  11   2  12   2
M  END
>  <HBA>
5

>  <HBD>
2

>  <TPSA>
91.85

>  <cid>
65360

>  <dipole>
4.94

>  <excitation_energy_1>
4.249

>  <excitation_energy_2>
5.102

>  <excitation_energy_3>
6.158

>  <excitation_energy_4>
6.191

>  <homo_energy>
-6.931

>  <homo_lumo_gap>
5.472

>  <logP>
1.427

>  <lumo_energy>
-1.459

>  <melting_point>
92.75

>  <molecular_refractivity>
48.86

>  <oscillator_strength_1>
0.0012

>  <oscillator_strength_2>
0.2058

>  <oscillator_strength_3>
0.0111

>  <oscillator_strength_4>
0.0009

>  <open_babel_can_smiles>
C=C/C(=N\C(CS([O])(O)[O])(C)C)/O

>  <mulliken_charges>
26
1   -0.34975
2   -0.465505
3   -0.467807
4   -0.127291
5   -0.469024
6   0.458578
7   0.174344
8   -0.431683
9   -0.579353
10   -0.648136
11   -0.536552
12   -0.490506
13   1.195112
14   0.16814
15   0.163742
16   0.183606
17   0.143297
18   0.158841
19   0.190684
20   0.159412
21   0.141431
22   0.164878
23   0.208115
24   0.215555
25   0.401904
26   0.437967

>  <lowdin_charges>
26
1   -0.307932
2   -0.457294
3   -0.456778
4   -0.187257
5   -0.423303
6   0.136537
7   0.074359
8   -0.198452
9   -0.367719
10   -0.590985
11   -0.594926
12   -0.564513
13   1.332766
14   0.172255
15   0.167603
16   0.169924
17   0.153428
18   0.160092
19   0.17437
20   0.160814
21   0.146915
22   0.173722
23   0.193364
24   0.197569
25   0.354955
26   0.380487

$$$$

