PCCDB-ID:  28579
public computational chemistry database (PCCDB) project, http://pccdb.org

 28 28  0  0  1  0  0  0  0  0999 V2000
    4.9518   -2.2144    1.4910 C   0  0  0  0  0  0  0  0  0  0  0  0
    4.7402   -1.7033    0.0607 C   0  0  0  0  0  0  0  0  0  0  0  0
    4.0701   -0.3222   -0.0300 C   0  0  0  0  0  0  0  0  0  0  0  0
    4.9129    0.8284    0.5367 C   0  0  0  0  0  0  0  0  0  0  0  0
    4.2271    2.1867    0.3739 C   0  0  0  0  0  0  0  0  0  0  0  0
    3.8440    6.5677    3.3501 C   0  0  0  0  0  0  0  0  0  0  0  0
    5.0628    5.6989    1.2347 C   0  0  0  0  0  0  0  0  0  0  0  0
    4.9826    5.8743    2.7336 C   0  0  1  0  0  0  0  0  0  0  0  0
    5.0447    3.3384    0.9235 C   0  0  0  0  0  0  0  0  0  0  0  0
    6.1518    3.2533    1.4097 O   0  0  0  0  0  0  0  0  0  0  0  0
    5.1050    7.2298    3.1836 O   0  0  0  0  0  0  0  0  0  0  0  0
    4.3692    4.5092    0.7977 O   0  0  0  0  0  0  0  0  0  0  0  0
    5.3838   -3.2215    1.4874 H   0  0  0  0  0  0  0  0  0  0  0  0
    4.0012   -2.2628    2.0371 H   0  0  0  0  0  0  0  0  0  0  0  0
    5.6299   -1.5693    2.0606 H   0  0  0  0  0  0  0  0  0  0  0  0
    4.1219   -2.4265   -0.4877 H   0  0  0  0  0  0  0  0  0  0  0  0
    5.7062   -1.6704   -0.4629 H   0  0  0  0  0  0  0  0  0  0  0  0
    3.1008   -0.3567    0.4903 H   0  0  0  0  0  0  0  0  0  0  0  0
    3.8411   -0.1098   -1.0843 H   0  0  0  0  0  0  0  0  0  0  0  0
    5.8892    0.8566    0.0366 H   0  0  0  0  0  0  0  0  0  0  0  0
    5.1243    0.6639    1.5994 H   0  0  0  0  0  0  0  0  0  0  0  0
    3.2488    2.2015    0.8729 H   0  0  0  0  0  0  0  0  0  0  0  0
    4.0171    2.4009   -0.6830 H   0  0  0  0  0  0  0  0  0  0  0  0
    3.5696    6.3428    4.3806 H   0  0  0  0  0  0  0  0  0  0  0  0
    3.0337    6.9389    2.7217 H   0  0  0  0  0  0  0  0  0  0  0  0
    6.1050    5.6514    0.9081 H   0  0  0  0  0  0  0  0  0  0  0  0
    4.5568    6.5286    0.7366 H   0  0  0  0  0  0  0  0  0  0  0  0
    5.5373    5.1440    3.3220 H   0  0  0  0  0  0  0  0  0  0  0  0
  1 14  1  0  0  0  0
  1 15  1  0  0  0  0
  2  1  1  0  0  0  0
  3  2  1  0  0  0  0
  3 18  1  0  0  0  0
  3  4  1  0  0  0  0
  4 21  1  0  0  0  0
  5  4  1  0  0  0  0
  5 22  1  0  0  0  0
  5  9  1  0  0  0  0
  6 24  1  0  0  0  0
  7  8  1  0  0  0  0
  8 11  1  0  0  0  0
  8 28  1  1  0  0  0
  8  6  1  0  0  0  0
  9 10  2  0  0  0  0
 11  6  1  0  0  0  0
 12  9  1  0  0  0  0
 12  7  1  0  0  0  0
 13  1  1  0  0  0  0
 16  2  1  0  0  0  0
 17  2  1  0  0  0  0
 19  3  1  0  0  0  0
 20  4  1  0  0  0  0
 23  5  1  0  0  0  0
 25  6  1  0  0  0  0
 26  7  1  0  0  0  0
 27  7  1  0  0  0  0
M  END
>  <HBA>
3

>  <HBD>
0

>  <TPSA>
38.83

>  <cid>
28579

>  <dipole>
2.82

>  <excitation_energy_1>
5.83

>  <excitation_energy_2>
6.807

>  <excitation_energy_3>
6.992

>  <excitation_energy_4>
7.074

>  <homo_energy>
-7.369

>  <homo_lumo_gap>
7.595

>  <logP>
1.509

>  <lumo_energy>
0.226

>  <melting_point>
-2.49

>  <molecular_refractivity>
45.63

>  <oscillator_strength_1>
0.0005

>  <oscillator_strength_2>
0.016

>  <oscillator_strength_3>
0.0141

>  <oscillator_strength_4>
0.0252

>  <open_babel_can_smiles>
CCCCCC(=O)OC[C@@H]1CO1

>  <mulliken_charges>
28
1   -0.445294
2   -0.249476
3   -0.253772
4   -0.249458
5   -0.363865
6   -0.105597
7   -0.072483
8   0.081889
9   0.622286
10   -0.47778
11   -0.440688
12   -0.465751
13   0.144107
14   0.140017
15   0.150735
16   0.132133
17   0.133103
18   0.126296
19   0.127641
20   0.149356
21   0.151979
22   0.170554
23   0.172264
24   0.156202
25   0.153447
26   0.177507
27   0.162526
28   0.17212

>  <lowdin_charges>
28
1   -0.44832
2   -0.273518
3   -0.274422
4   -0.27058
5   -0.298089
6   -0.164357
7   -0.135391
8   -0.035244
9   0.197671
10   -0.264426
11   -0.28052
12   -0.196643
13   0.150277
14   0.145541
15   0.150792
16   0.144017
17   0.140271
18   0.136554
19   0.13854
20   0.150324
21   0.149653
22   0.167487
23   0.167389
24   0.156467
25   0.154851
26   0.163603
27   0.163425
28   0.164648

$$$$

