PCCDB-ID:  8373
public computational chemistry database (PCCDB) project, http://pccdb.org

 18 18  0  0  0  0  0  0  0  0999 V2000
    0.8899   -0.0829    0.1396 C   0  0  0  0  0  0  0  0  0  0  0  0
    4.5355   -1.1732   -0.1287 C   0  0  0  0  0  0  0  0  0  0  0  0
    5.2176    0.0398   -0.2093 C   0  0  0  0  0  0  0  0  0  0  0  0
    3.1444   -1.1845   -0.0268 C   0  0  0  0  0  0  0  0  0  0  0  0
    4.4910    1.2274   -0.2036 C   0  0  0  0  0  0  0  0  0  0  0  0
    2.3922   -0.0034    0.0025 C   0  0  0  0  0  0  0  0  0  0  0  0
    3.0899    1.2220   -0.1046 C   0  0  0  0  0  0  0  0  0  0  0  0
    2.3520    2.5278   -0.0689 C   0  0  0  0  0  0  0  0  0  0  0  0
    1.3404    2.7302    0.5603 O   0  0  0  0  0  0  0  0  0  0  0  0
    2.9007    3.5411   -0.8004 O   0  0  0  0  0  0  0  0  0  0  0  0
    0.5529   -1.1174    0.0222 H   0  0  0  0  0  0  0  0  0  0  0  0
    0.3756    0.5375   -0.6007 H   0  0  0  0  0  0  0  0  0  0  0  0
    0.5661    0.2830    1.1187 H   0  0  0  0  0  0  0  0  0  0  0  0
    5.0840   -2.1112   -0.1398 H   0  0  0  0  0  0  0  0  0  0  0  0
    6.3016    0.0634   -0.2719 H   0  0  0  0  0  0  0  0  0  0  0  0
    2.6218   -2.1357    0.0369 H   0  0  0  0  0  0  0  0  0  0  0  0
    5.0253    2.1745   -0.2324 H   0  0  0  0  0  0  0  0  0  0  0  0
    3.6077    3.1885   -1.3650 H   0  0  0  0  0  0  0  0  0  0  0  0
  1 13  1  0  0  0  0
  2  4  2  0  0  0  0
  3  5  2  0  0  0  0
  3  2  1  0  0  0  0
  4  6  1  0  0  0  0
  4 16  1  0  0  0  0
  5  7  1  0  0  0  0
  6  1  1  0  0  0  0
  7  8  1  0  0  0  0
  7  6  2  0  0  0  0
  8  9  2  0  0  0  0
 10  8  1  0  0  0  0
 11  1  1  0  0  0  0
 12  1  1  0  0  0  0
 14  2  1  0  0  0  0
 15  3  1  0  0  0  0
 17  5  1  0  0  0  0
 18 10  1  0  0  0  0
M  END
>  <HBA>
2

>  <HBD>
1

>  <TPSA>
37.3

>  <cid>
8373

>  <dipole>
4.36

>  <excitation_energy_1>
4.76

>  <excitation_energy_2>
4.867

>  <excitation_energy_3>
5.475

>  <excitation_energy_4>
5.958

>  <homo_energy>
-6.98

>  <homo_lumo_gap>
5.723

>  <logP>
1.693

>  <lumo_energy>
-1.257

>  <melting_point>
99.48

>  <molecular_refractivity>
38.37

>  <oscillator_strength_1>
0.0132

>  <oscillator_strength_2>
0.0282

>  <oscillator_strength_3>
0.0902

>  <oscillator_strength_4>
0.0343

>  <open_babel_can_smiles>
OC(=O)c1ccccc1C

>  <mulliken_charges>
18
1   -0.510923
2   -0.114125
3   -0.133345
4   -0.187246
5   -0.19921
6   0.142731
7   0.004289
8   0.541116
9   -0.445926
10   -0.570571
11   0.144998
12   0.171179
13   0.192481
14   0.140502
15   0.139716
16   0.135043
17   0.140911
18   0.408381

>  <lowdin_charges>
18
1   -0.441081
2   -0.139713
3   -0.156316
4   -0.161837
5   -0.164854
6   0.028256
7   -0.065879
8   0.192435
9   -0.235627
10   -0.358994
11   0.151458
12   0.169689
13   0.178809
14   0.163585
15   0.161003
16   0.160753
17   0.159933
18   0.35838

$$$$

