PCCDB-ID:  12220
public computational chemistry database (PCCDB) project, http://pccdb.org

 12 11  0  0  0  0  0  0  0  0999 V2000
    0.8807    0.0208   -0.0434 C   0  0  0  0  0  0  0  0  0  0  0  0
    4.6215    0.7840   -0.9761 C   0  0  0  0  0  0  0  0  0  0  0  0
    2.3699    0.2124    0.0047 C   0  0  0  0  0  0  0  0  0  0  0  0
    3.1322    0.5923   -1.0240 C   0  0  0  0  0  0  0  0  0  0  0  0
    0.6007   -1.0082    0.2210 H   0  0  0  0  0  0  0  0  0  0  0  0
    0.4804    0.2335   -1.0408 H   0  0  0  0  0  0  0  0  0  0  0  0
    0.3692    0.6777    0.6736 H   0  0  0  0  0  0  0  0  0  0  0  0
    4.9012    1.8131   -1.2402 H   0  0  0  0  0  0  0  0  0  0  0  0
    5.1326    0.1274   -1.6936 H   0  0  0  0  0  0  0  0  0  0  0  0
    5.0222    0.5710    0.0210 H   0  0  0  0  0  0  0  0  0  0  0  0
    2.8480    0.0204    0.9676 H   0  0  0  0  0  0  0  0  0  0  0  0
    2.6542    0.7845   -1.9869 H   0  0  0  0  0  0  0  0  0  0  0  0
  1  3  1  0  0  0  0
  1  5  1  0  0  0  0
  1  7  1  0  0  0  0
  2 10  1  0  0  0  0
  3 11  1  0  0  0  0
  4  2  1  0  0  0  0
  4  3  2  0  0  0  0
  6  1  1  0  0  0  0
  8  2  1  0  0  0  0
  9  2  1  0  0  0  0
 12  4  1  0  0  0  0
M  END
>  <HBA>
0

>  <HBD>
0

>  <TPSA>
0.0

>  <cid>
12220

>  <dipole>
0.0

>  <excitation_energy_1>
6.163

>  <excitation_energy_2>
6.43

>  <excitation_energy_3>
6.593

>  <excitation_energy_4>
6.946

>  <homo_energy>
-6.395

>  <homo_lumo_gap>
7.383

>  <logP>
1.582

>  <lumo_energy>
0.988

>  <melting_point>
-15.44

>  <molecular_refractivity>
20.87

>  <oscillator_strength_1>
0.0034

>  <oscillator_strength_2>
0.0

>  <oscillator_strength_3>
0.0

>  <oscillator_strength_4>
0.3087

>  <open_babel_can_smiles>
C/C=C/C

>  <mulliken_charges>
12
1   -0.485484
2   -0.485494
3   -0.084303
4   -0.084356
5   0.15248
6   0.150118
7   0.152466
8   0.152489
9   0.15247
10   0.150125
11   0.114742
12   0.114745

>  <lowdin_charges>
12
1   -0.438936
2   -0.438953
3   -0.168376
4   -0.168378
5   0.154039
6   0.152911
7   0.156154
8   0.154043
9   0.15616
10   0.152915
11   0.144213
12   0.144207

$$$$

