PCCDB-ID:  30592
public computational chemistry database (PCCDB) project, http://pccdb.org

 19 19  0  0  1  0  0  0  0  0999 V2000
    0.9656   -0.0363    0.0055 C   0  0  0  0  0  0  0  0  0  0  0  0
    6.5426    2.3554    0.0009 C   0  0  0  0  0  0  0  0  0  0  0  0
    2.4660   -0.1309    0.0022 C   0  0  1  0  0  0  0  0  0  0  0  0
    4.4431   -1.3350   -0.0161 C   0  0  0  0  0  0  0  0  0  0  0  0
    4.5434    1.1409    0.0017 C   0  0  0  0  0  0  0  0  0  0  0  0
    5.1462   -2.4012   -0.0276 N   0  0  0  0  0  0  0  0  0  0  0  0
    5.0911    2.2933    0.0068 N   0  0  0  0  0  0  0  0  0  0  0  0
    3.0449   -1.2893   -0.0102 N   0  0  0  0  0  0  0  0  0  0  0  0
    3.1445    1.0593    0.0083 N   0  0  0  0  0  0  0  0  0  0  0  0
    5.1313   -0.1051   -0.0084 N   0  0  0  0  0  0  0  0  0  0  0  0
    0.5458   -1.0416    0.0429 H   0  0  0  0  0  0  0  0  0  0  0  0
    0.6068    0.4698   -0.8990 H   0  0  0  0  0  0  0  0  0  0  0  0
    0.6116    0.5361    0.8713 H   0  0  0  0  0  0  0  0  0  0  0  0
    6.8530    3.4039    0.0030 H   0  0  0  0  0  0  0  0  0  0  0  0
    6.9855    1.8847   -0.8924 H   0  0  0  0  0  0  0  0  0  0  0  0
    6.9925    1.8789    0.8875 H   0  0  0  0  0  0  0  0  0  0  0  0
    4.5135   -3.2030   -0.0320 H   0  0  0  0  0  0  0  0  0  0  0  0
    2.6653    1.9497    0.0227 H   0  0  0  0  0  0  0  0  0  0  0  0
    6.1397   -0.1745   -0.0150 H   0  0  0  0  0  0  0  0  0  0  0  0
  1 11  1  0  0  0  0
  1 13  1  0  0  0  0
  2 14  1  0  0  0  0
  2  7  1  0  0  0  0
  2 16  1  0  0  0  0
  3  1  1  6  0  0  0
  3  9  1  0  0  0  0
  4  8  2  0  0  0  0
  4 10  1  0  0  0  0
  5  7  2  0  0  0  0
  5  9  1  0  0  0  0
  6  4  1  0  0  0  0
  8  3  1  0  0  0  0
  9 18  1  0  0  0  0
 10  5  1  0  0  0  0
 12  1  1  0  0  0  0
 15  2  1  0  0  0  0
 17  6  1  0  0  0  0
 19 10  1  0  0  0  0
M  RAD  2   3   2   6   2
M  END
>  <HBA>
5

>  <HBD>
2

>  <TPSA>
76.72

>  <cid>
30592

>  <dipole>
3.11

>  <excitation_energy_1>
4.829

>  <excitation_energy_2>
5.153

>  <excitation_energy_3>
5.418

>  <excitation_energy_4>
5.586

>  <homo_energy>
-6.324

>  <homo_lumo_gap>
5.606

>  <logP>
0.458

>  <lumo_energy>
-0.718

>  <melting_point>
139.38

>  <molecular_refractivity>
38.5

>  <oscillator_strength_1>
0.0187

>  <oscillator_strength_2>
0.1184

>  <oscillator_strength_3>
0.0013

>  <oscillator_strength_4>
0.0006

>  <open_babel_can_smiles>
C/N=C\1/N[C](C)N=C(N1)[NH]

>  <mulliken_charges>
19
1   -0.53599
2   -0.343027
3   0.524164
4   0.602382
5   0.751347
6   -0.65073
7   -0.490184
8   -0.505596
9   -0.669456
10   -0.69298
11   0.202282
12   0.179278
13   0.175955
14   0.166154
15   0.143143
16   0.143427
17   0.297098
18   0.349504
19   0.353229

>  <lowdin_charges>
19
1   -0.450671
2   -0.362992
3   0.125534
4   0.119358
5   0.132551
6   -0.428611
7   -0.270105
8   -0.232616
9   -0.227258
10   -0.248787
11   0.186301
12   0.173276
13   0.171542
14   0.158191
15   0.139774
16   0.140015
17   0.265129
18   0.305533
19   0.303835

$$$$

