PCCDB-ID:  33115
public computational chemistry database (PCCDB) project, http://pccdb.org

 26 26  0  0  1  0  0  0  0  0999 V2000
    1.0633    0.0014    0.4309 C   0  0  0  0  0  0  0  0  0  0  0  0
    5.7116    0.2001    1.4782 C   0  0  0  0  0  0  0  0  0  0  0  0
    2.3668   -2.5107   -0.3249 C   0  0  0  0  0  0  0  0  0  0  0  0
    5.4470   -2.5233   -0.3880 C   0  0  0  0  0  0  0  0  0  0  0  0
    3.1671    1.1765   -0.1755 C   0  0  0  0  0  0  0  0  0  0  0  0
    4.6115    1.1974   -0.5971 C   0  0  0  0  0  0  0  0  0  0  0  0
    2.5193    0.0151    0.0262 C   0  0  0  0  0  0  0  0  0  0  0  0
    5.3740   -0.0030   -0.0146 C   0  0  2  0  0  0  0  0  0  0  0  0
    3.2330   -1.2791   -0.1714 C   0  0  0  0  0  0  0  0  0  0  0  0
    4.5870   -1.2978   -0.2121 C   0  0  0  0  0  0  0  0  0  0  0  0
    0.6858    1.0221    0.5466 H   0  0  0  0  0  0  0  0  0  0  0  0
    0.9100   -0.5214    1.3845 H   0  0  0  0  0  0  0  0  0  0  0  0
    0.4319   -0.5060   -0.3095 H   0  0  0  0  0  0  0  0  0  0  0  0
    6.3538    1.0793    1.6143 H   0  0  0  0  0  0  0  0  0  0  0  0
    6.2409   -0.6669    1.8893 H   0  0  0  0  0  0  0  0  0  0  0  0
    4.7993    0.3492    2.0652 H   0  0  0  0  0  0  0  0  0  0  0  0
    1.6856   -2.4089   -1.1804 H   0  0  0  0  0  0  0  0  0  0  0  0
    1.7353   -2.6728    0.5580 H   0  0  0  0  0  0  0  0  0  0  0  0
    2.9480   -3.4202   -0.4826 H   0  0  0  0  0  0  0  0  0  0  0  0
    6.2429   -2.5438    0.3693 H   0  0  0  0  0  0  0  0  0  0  0  0
    5.9549   -2.5072   -1.3635 H   0  0  0  0  0  0  0  0  0  0  0  0
    4.9023   -3.4665   -0.3149 H   0  0  0  0  0  0  0  0  0  0  0  0
    2.6392    2.1221   -0.0659 H   0  0  0  0  0  0  0  0  0  0  0  0
    5.0943    2.1333   -0.2876 H   0  0  0  0  0  0  0  0  0  0  0  0
    4.6705    1.1726   -1.6987 H   0  0  0  0  0  0  0  0  0  0  0  0
    6.3253   -0.0962   -0.5568 H   0  0  0  0  0  0  0  0  0  0  0  0
  1 11  1  0  0  0  0
  1 12  1  0  0  0  0
  2 14  1  0  0  0  0
  2 15  1  0  0  0  0
  2 16  1  0  0  0  0
  3  9  1  0  0  0  0
  3 18  1  0  0  0  0
  4 22  1  0  0  0  0
  4 10  1  0  0  0  0
  4 20  1  0  0  0  0
  5 23  1  0  0  0  0
  5  7  2  0  0  0  0
  6 24  1  0  0  0  0
  6  5  1  0  0  0  0
  6  8  1  0  0  0  0
  7  1  1  0  0  0  0
  8 26  1  6  0  0  0
  8  2  1  0  0  0  0
  9  7  1  0  0  0  0
 10  9  2  0  0  0  0
 10  8  1  0  0  0  0
 13  1  1  0  0  0  0
 17  3  1  0  0  0  0
 19  3  1  0  0  0  0
 21  4  1  0  0  0  0
 25  6  1  0  0  0  0
M  END
>  <HBA>
0

>  <HBD>
0

>  <TPSA>
0.0

>  <cid>
33115

>  <dipole>
0.3

>  <excitation_energy_1>
4.526

>  <excitation_energy_2>
4.866

>  <excitation_energy_3>
5.163

>  <excitation_energy_4>
5.273

>  <homo_energy>
-5.238

>  <homo_lumo_gap>
5.116

>  <logP>
3.309

>  <lumo_energy>
-0.122

>  <melting_point>
23.2

>  <molecular_refractivity>
47.12

>  <oscillator_strength_1>
0.1103

>  <oscillator_strength_2>
0.0188

>  <oscillator_strength_3>
0.0026

>  <oscillator_strength_4>
0.0023

>  <open_babel_can_smiles>
C[C@@H]1CC=C(C(=C1C)C)C

>  <mulliken_charges>
26
1   -0.526429
2   -0.443224
3   -0.530099
4   -0.525165
5   -0.19875
6   -0.292438
7   0.161231
8   -0.144478
9   0.084664
10   0.095921
11   0.15053
12   0.153122
13   0.152234
14   0.13623
15   0.14004
16   0.155643
17   0.155071
18   0.153212
19   0.151961
20   0.15307
21   0.154951
22   0.153954
23   0.114039
24   0.131419
25   0.14252
26   0.120773

>  <lowdin_charges>
26
1   -0.440582
2   -0.445644
3   -0.444612
4   -0.443717
5   -0.188996
6   -0.270705
7   -0.015128
8   -0.120461
9   -0.035976
10   -0.020384
11   0.154653
12   0.153385
13   0.155609
14   0.145432
15   0.147896
16   0.154934
17   0.155466
18   0.155667
19   0.155808
20   0.154816
21   0.155575
22   0.154306
23   0.148294
24   0.147194
25   0.146708
26   0.140461

$$$$

