PCCDB-ID:  67498
public computational chemistry database (PCCDB) project, http://pccdb.org

 14 15  0  0  0  0  0  0  0  0999 V2000
    2.1258    0.7198   -0.0016 C   0  0  0  0  0  0  0  0  0  0  0  0
    2.0935   -0.7178   -0.0028 C   0  0  0  0  0  0  0  0  0  0  0  0
    0.9765    1.4635   -0.0010 C   0  0  0  0  0  0  0  0  0  0  0  0
    0.9201   -1.4222   -0.0039 C   0  0  0  0  0  0  0  0  0  0  0  0
   -1.6005    1.0996   -0.0032 C   0  0  0  0  0  0  0  0  0  0  0  0
   -0.2669    0.7661   -0.0015 C   0  0  0  0  0  0  0  0  0  0  0  0
   -0.2979   -0.6758   -0.0033 C   0  0  0  0  0  0  0  0  0  0  0  0
   -1.5389   -1.1517   -0.0054 N   0  0  0  0  0  0  0  0  0  0  0  0
   -2.3456   -0.0121   -0.0052 O   0  0  0  0  0  0  0  0  0  0  0  0
    3.0914    1.2170   -0.0017 H   0  0  0  0  0  0  0  0  0  0  0  0
    3.0386   -1.2539   -0.0030 H   0  0  0  0  0  0  0  0  0  0  0  0
    1.0055    2.5490    0.0001 H   0  0  0  0  0  0  0  0  0  0  0  0
    0.8953   -2.5067   -0.0044 H   0  0  0  0  0  0  0  0  0  0  0  0
   -2.1443    2.0333   -0.0032 H   0  0  0  0  0  0  0  0  0  0  0  0
  1  3  2  0  0  0  0
  2  1  1  0  0  0  0
  3 12  1  0  0  0  0
  4  7  1  0  0  0  0
  4  2  2  0  0  0  0
  5 14  1  0  0  0  0
  5  6  2  0  0  0  0
  6  3  1  0  0  0  0
  7  6  1  0  0  0  0
  8  9  1  0  0  0  0
  8  7  2  0  0  0  0
  9  5  1  0  0  0  0
 10  1  1  0  0  0  0
 11  2  1  0  0  0  0
 13  4  1  0  0  0  0
M  END
>  <HBA>
2

>  <HBD>
0

>  <TPSA>
26.03

>  <cid>
67498

>  <dipole>
3.2

>  <excitation_energy_1>
4.035

>  <excitation_energy_2>
5.047

>  <excitation_energy_3>
5.357

>  <excitation_energy_4>
5.559

>  <homo_energy>
-6.076

>  <homo_lumo_gap>
4.367

>  <logP>
1.828

>  <lumo_energy>
-1.709

>  <melting_point>
62.38

>  <molecular_refractivity>
34.01

>  <oscillator_strength_1>
0.0982

>  <oscillator_strength_2>
0.0373

>  <oscillator_strength_3>
0.0017

>  <oscillator_strength_4>
0.0014

>  <open_babel_can_smiles>
c1ccc2c(c1)noc2

>  <mulliken_charges>
14
1   -0.138724
2   -0.146267
3   -0.177143
4   -0.125762
5   0.084129
6   0.046348
7   0.286333
8   -0.278743
9   -0.305395
10   0.137826
11   0.140905
12   0.142755
13   0.153195
14   0.180542

>  <lowdin_charges>
14
1   -0.161513
2   -0.145397
3   -0.143757
4   -0.152491
5   -0.060775
6   -0.06002
7   0.01181
8   -0.095625
9   -0.036328
10   0.162574
11   0.163918
12   0.163101
13   0.171324
14   0.183179

$$$$

