PCCDB-ID:  22655
public computational chemistry database (PCCDB) project, http://pccdb.org

 22 23  0  0  1  0  0  0  0  0999 V2000
    2.0027   -0.9349    0.6906 C   0  0  0  0  0  0  0  0  0  0  0  0
    2.4537    0.2137    0.1814 C   0  0  0  0  0  0  0  0  0  0  0  0
    0.6037   -1.4517    0.4766 C   0  0  0  0  0  0  0  0  0  0  0  0
    1.6231    1.1468   -0.6614 C   0  0  0  0  0  0  0  0  0  0  0  0
   -2.4639   -0.2164    0.1791 C   0  0  0  0  0  0  0  0  0  0  0  0
   -2.0183    0.9295    0.7255 C   0  0  0  0  0  0  0  0  0  0  0  0
   -0.1136   -0.7368   -0.6984 C   0  0  2  0  0  0  0  0  0  0  0  0
    0.1291    0.7926   -0.6627 C   0  0  1  0  0  0  0  0  0  0  0  0
   -1.5950   -1.0862   -0.6595 C   0  0  0  0  0  0  0  0  0  0  0  0
   -0.6436    1.4487    0.4850 C   0  0  0  0  0  0  0  0  0  0  0  0
   -2.0538   -2.0638   -1.2292 O   0  0  0  0  0  0  0  0  0  0  0  0
   -0.2168    2.3888    1.1351 O   0  0  0  0  0  0  0  0  0  0  0  0
    2.6578   -1.5485    1.3069 H   0  0  0  0  0  0  0  0  0  0  0  0
    3.4815    0.5180    0.3715 H   0  0  0  0  0  0  0  0  0  0  0  0
    0.0225   -1.3379    1.4050 H   0  0  0  0  0  0  0  0  0  0  0  0
    0.6189   -2.5290    0.2696 H   0  0  0  0  0  0  0  0  0  0  0  0
    2.0019    1.1430   -1.6940 H   0  0  0  0  0  0  0  0  0  0  0  0
    1.7363    2.1742   -0.2962 H   0  0  0  0  0  0  0  0  0  0  0  0
   -3.4797   -0.5722    0.3347 H   0  0  0  0  0  0  0  0  0  0  0  0
   -2.6418    1.5382    1.3761 H   0  0  0  0  0  0  0  0  0  0  0  0
    0.2885   -1.1386   -1.6345 H   0  0  0  0  0  0  0  0  0  0  0  0
   -0.3308    1.2189   -1.5688 H   0  0  0  0  0  0  0  0  0  0  0  0
  1 13  1  0  0  0  0
  2 14  1  0  0  0  0
  2  1  2  0  0  0  0
  3  1  1  0  0  0  0
  3 15  1  0  0  0  0
  4 18  1  0  0  0  0
  4  2  1  0  0  0  0
  5 19  1  0  0  0  0
  5  6  2  0  0  0  0
  6 20  1  0  0  0  0
  7 21  1  6  0  0  0
  7  8  1  0  0  0  0
  7  9  1  0  0  0  0
  7  3  1  0  0  0  0
  8 22  1  6  0  0  0
  8  4  1  0  0  0  0
  8 10  1  0  0  0  0
  9  5  1  0  0  0  0
 10  6  1  0  0  0  0
 10 12  2  0  0  0  0
 11  9  2  0  0  0  0
 16  3  1  0  0  0  0
 17  4  1  0  0  0  0
M  END
>  <HBA>
2

>  <HBD>
0

>  <TPSA>
34.14

>  <cid>
22655

>  <dipole>
0.35

>  <excitation_energy_1>
3.036

>  <excitation_energy_2>
3.188

>  <excitation_energy_3>
3.359

>  <excitation_energy_4>
5.249

>  <homo_energy>
-6.768

>  <homo_lumo_gap>
4.147

>  <logP>
1.277

>  <lumo_energy>
-2.62

>  <melting_point>
78.3

>  <molecular_refractivity>
45.41

>  <oscillator_strength_1>
0.0002

>  <oscillator_strength_2>
0.0003

>  <oscillator_strength_3>
0.0007

>  <oscillator_strength_4>
0.0111

>  <open_babel_can_smiles>
O=C1C=CC(=O)[C@@H]2[C@H]1CC=CC2

>  <mulliken_charges>
22
1   -0.102153
2   -0.100455
3   -0.316545
4   -0.309246
5   -0.159342
6   -0.151319
7   -0.195051
8   -0.21618
9   0.440679
10   0.444891
11   -0.458672
12   -0.455371
13   0.129583
14   0.129752
15   0.154138
16   0.168031
17   0.148835
18   0.179468
19   0.167961
20   0.168593
21   0.164627
22   0.167779

>  <lowdin_charges>
22
1   -0.178907
2   -0.164119
3   -0.271356
4   -0.275307
5   -0.15126
6   -0.152847
7   -0.149898
8   -0.158731
9   0.147522
10   0.149384
11   -0.224083
12   -0.219737
13   0.158509
14   0.156196
15   0.153985
16   0.162032
17   0.153676
18   0.170589
19   0.178099
20   0.180711
21   0.166418
22   0.169122

$$$$

