PCCDB-ID:  8039
public computational chemistry database (PCCDB) project, http://pccdb.org

 14 13  0  0  0  0  0  0  0  0999 V2000
    1.2574   -0.3952   -0.0795 C   0  0  0  0  0  0  0  0  0  0  0  0
   -1.8939    0.1251   -1.5221 C   0  0  0  0  0  0  0  0  0  0  0  0
    1.2393   -1.6441    0.1414 N   0  0  0  0  0  0  0  0  0  0  0  0
   -1.5919    0.3490   -2.7336 N   0  0  0  0  0  0  0  0  0  0  0  0
    0.2328    0.4493   -0.5216 N   0  0  0  0  0  0  0  0  0  0  0  0
   -1.0624   -0.0213   -0.4061 N   0  0  0  0  0  0  0  0  0  0  0  0
    2.3859    0.3420    0.0685 O   0  0  0  0  0  0  0  0  0  0  0  0
   -3.1786   -0.0482   -1.1246 O   0  0  0  0  0  0  0  0  0  0  0  0
    0.3083   -2.0264   -0.0258 H   0  0  0  0  0  0  0  0  0  0  0  0
   -0.5821    0.4475   -2.8415 H   0  0  0  0  0  0  0  0  0  0  0  0
    0.3795    1.4357   -0.3225 H   0  0  0  0  0  0  0  0  0  0  0  0
   -1.5228    0.1240    0.4889 H   0  0  0  0  0  0  0  0  0  0  0  0
    3.0746   -0.2958    0.3252 H   0  0  0  0  0  0  0  0  0  0  0  0
   -3.7076    0.0131   -1.9391 H   0  0  0  0  0  0  0  0  0  0  0  0
  1  7  1  0  0  0  0
  1  3  2  0  0  0  0
  2  8  1  0  0  0  0
  2  6  1  0  0  0  0
  4  2  2  0  0  0  0
  5  6  1  0  0  0  0
  5 11  1  0  0  0  0
  5  1  1  0  0  0  0
  6 12  1  0  0  0  0
  7 13  1  0  0  0  0
  9  3  1  0  0  0  0
 10  4  1  0  0  0  0
 14  8  1  0  0  0  0
M  END
>  <HBA>
6

>  <HBD>
4

>  <TPSA>
110.24

>  <cid>
8039

>  <dipole>
2.48

>  <excitation_energy_1>
5.903

>  <excitation_energy_2>
6.215

>  <excitation_energy_3>
6.496

>  <excitation_energy_4>
6.681

>  <homo_energy>
-6.797

>  <homo_lumo_gap>
7.897

>  <logP>
0.42

>  <lumo_energy>
1.099

>  <melting_point>
202.4

>  <molecular_refractivity>
23.92

>  <oscillator_strength_1>
0.0121

>  <oscillator_strength_2>
0.0021

>  <oscillator_strength_3>
0.0065

>  <oscillator_strength_4>
0.0024

>  <open_babel_can_smiles>
OC(=N)NNC(=N)O

>  <mulliken_charges>
14
1   0.645838
2   0.645889
3   -0.638068
4   -0.638076
5   -0.477192
6   -0.477365
7   -0.605171
8   -0.605154
9   0.304449
10   0.304428
11   0.342684
12   0.342694
13   0.427524
14   0.427519

>  <lowdin_charges>
14
1   0.14855
2   0.150401
3   -0.458842
4   -0.457966
5   -0.237963
6   -0.241144
7   -0.376346
8   -0.376836
9   0.268526
10   0.267224
11   0.282324
12   0.284196
13   0.374425
14   0.373453

$$$$

