PCCDB-ID:  31268
public computational chemistry database (PCCDB) project, http://pccdb.org

 14 14  0  0  0  0  0  0  0  0999 V2000
   -0.7806   -1.0096   -0.0175 C   0  0  0  0  0  0  0  0  0  0  0  0
    0.7688   -1.0304    0.0890 C   0  0  0  0  0  0  0  0  0  0  0  0
   -1.1467    0.5074   -0.0059 C   0  0  0  0  0  0  0  0  0  0  0  0
    1.1694    0.4528   -0.0963 C   0  0  0  0  0  0  0  0  0  0  0  0
    0.0499    1.2548    0.4201 N   0  0  0  0  0  0  0  0  0  0  0  0
   -1.2427   -1.5412    0.8213 H   0  0  0  0  0  0  0  0  0  0  0  0
   -1.1329   -1.4939   -0.9346 H   0  0  0  0  0  0  0  0  0  0  0  0
    1.2371   -1.6919   -0.6478 H   0  0  0  0  0  0  0  0  0  0  0  0
    1.0812   -1.3797    1.0806 H   0  0  0  0  0  0  0  0  0  0  0  0
   -1.9941    0.7463    0.6440 H   0  0  0  0  0  0  0  0  0  0  0  0
   -1.4116    0.8362   -1.0189 H   0  0  0  0  0  0  0  0  0  0  0  0
    1.2898    0.6824   -1.1638 H   0  0  0  0  0  0  0  0  0  0  0  0
    2.1032    0.7242    0.4061 H   0  0  0  0  0  0  0  0  0  0  0  0
    0.0928    1.2339    1.4397 H   0  0  0  0  0  0  0  0  0  0  0  0
  1  3  1  0  0  0  0
  1  2  1  0  0  0  0
  1  6  1  0  0  0  0
  2  9  1  0  0  0  0
  3  5  1  0  0  0  0
  3 10  1  0  0  0  0
  4  2  1  0  0  0  0
  4 13  1  0  0  0  0
  4  5  1  0  0  0  0
  5 14  1  0  0  0  0
  7  1  1  0  0  0  0
  8  2  1  0  0  0  0
 11  3  1  0  0  0  0
 12  4  1  0  0  0  0
M  END
>  <HBA>
1

>  <HBD>
1

>  <TPSA>
12.03

>  <cid>
31268

>  <dipole>
1.35

>  <excitation_energy_1>
5.443

>  <excitation_energy_2>
6.111

>  <excitation_energy_3>
6.326

>  <excitation_energy_4>
6.476

>  <homo_energy>
-6.022

>  <homo_lumo_gap>
8.033

>  <logP>
0.699

>  <lumo_energy>
2.011

>  <melting_point>
24.52

>  <molecular_refractivity>
25.94

>  <oscillator_strength_1>
0.0216

>  <oscillator_strength_2>
0.0281

>  <oscillator_strength_3>
0.0003

>  <oscillator_strength_4>
0.0191

>  <open_babel_can_smiles>
C1CCCN1

>  <mulliken_charges>
14
1   -0.285467
2   -0.279101
3   -0.153495
4   -0.157475
5   -0.521321
6   0.13642
7   0.138434
8   0.136604
9   0.13298
10   0.137216
11   0.145818
12   0.14357
13   0.138387
14   0.28743

>  <lowdin_charges>
14
1   -0.307384
2   -0.303414
3   -0.21537
4   -0.212373
5   -0.35829
6   0.145489
7   0.146496
8   0.148097
9   0.140279
10   0.14586
11   0.140857
12   0.138742
13   0.145771
14   0.245239

$$$$

