PCCDB-ID:  38750
public computational chemistry database (PCCDB) project, http://pccdb.org

 28 29  0  0  0  0  0  0  0  0999 V2000
    8.3902   -2.1307    1.1199 C   0  0  0  0  0  0  0  0  0  0  0  0
    8.2055   -1.0069    0.1129 C   0  0  0  0  0  0  0  0  0  0  0  0
    4.5337    5.5729    1.8687 C   0  0  0  0  0  0  0  0  0  0  0  0
    5.2309    4.9573    0.8224 C   0  0  0  0  0  0  0  0  0  0  0  0
    3.7826    4.7976    2.7550 C   0  0  0  0  0  0  0  0  0  0  0  0
    5.2024    3.5700    0.6249 C   0  0  0  0  0  0  0  0  0  0  0  0
    4.8318    0.4646    0.6121 C   0  0  0  0  0  0  0  0  0  0  0  0
    3.7443    3.4194    2.5678 C   0  0  0  0  0  0  0  0  0  0  0  0
    4.4483    2.8101    1.5101 C   0  0  0  0  0  0  0  0  0  0  0  0
    6.3197    0.2309    0.8828 C   0  0  0  0  0  0  0  0  0  0  0  0
    3.0582    2.3611    3.3215 C   0  0  0  0  0  0  0  0  0  0  0  0
    3.4353    1.0349    2.5812 C   0  0  0  0  0  0  0  0  0  0  0  0
    4.2418    1.4175    1.5149 N   0  0  0  0  0  0  0  0  0  0  0  0
    6.9551    0.7559    1.7670 O   0  0  0  0  0  0  0  0  0  0  0  0
    2.3441    2.4222    4.2983 O   0  0  0  0  0  0  0  0  0  0  0  0
    3.0960   -0.0960    2.8520 O   0  0  0  0  0  0  0  0  0  0  0  0
    6.8051   -0.6416   -0.0192 O   0  0  0  0  0  0  0  0  0  0  0  0
    9.4422   -2.4375    1.1408 H   0  0  0  0  0  0  0  0  0  0  0  0
    7.7841   -3.0010    0.8490 H   0  0  0  0  0  0  0  0  0  0  0  0
    8.1099   -1.8008    2.1240 H   0  0  0  0  0  0  0  0  0  0  0  0
    8.4953   -1.3148   -0.8943 H   0  0  0  0  0  0  0  0  0  0  0  0
    8.7715   -0.1170    0.3987 H   0  0  0  0  0  0  0  0  0  0  0  0
    4.5824    6.6505    1.9902 H   0  0  0  0  0  0  0  0  0  0  0  0
    5.8176    5.5687    0.1421 H   0  0  0  0  0  0  0  0  0  0  0  0
    3.2334    5.2446    3.5785 H   0  0  0  0  0  0  0  0  0  0  0  0
    5.7629    3.1157   -0.1854 H   0  0  0  0  0  0  0  0  0  0  0  0
    4.2986   -0.4817    0.7471 H   0  0  0  0  0  0  0  0  0  0  0  0
    4.6985    0.7737   -0.4313 H   0  0  0  0  0  0  0  0  0  0  0  0
  1 18  1  0  0  0  0
  1 20  1  0  0  0  0
  2 22  1  0  0  0  0
  2  1  1  0  0  0  0
  3 23  1  0  0  0  0
  3  5  2  0  0  0  0
  4  3  1  0  0  0  0
  5 25  1  0  0  0  0
  6  4  2  0  0  0  0
  6  9  1  0  0  0  0
  7 27  1  0  0  0  0
  7 10  1  0  0  0  0
  7 13  1  0  0  0  0
  8  5  1  0  0  0  0
  8 11  1  0  0  0  0
  9 13  1  0  0  0  0
  9  8  2  0  0  0  0
 10 14  2  0  0  0  0
 11 15  2  0  0  0  0
 12 16  2  0  0  0  0
 12 11  1  0  0  0  0
 13 12  1  0  0  0  0
 17  2  1  0  0  0  0
 17 10  1  0  0  0  0
 19  1  1  0  0  0  0
 21  2  1  0  0  0  0
 24  4  1  0  0  0  0
 26  6  1  0  0  0  0
 28  7  1  0  0  0  0
M  END
>  <HBA>
5

>  <HBD>
0

>  <TPSA>
63.68

>  <cid>
38750

>  <dipole>
6.33

>  <excitation_energy_1>
2.713

>  <excitation_energy_2>
2.964

>  <excitation_energy_3>
4.304

>  <excitation_energy_4>
4.395

>  <homo_energy>
-6.368

>  <homo_lumo_gap>
3.788

>  <logP>
0.844

>  <lumo_energy>
-2.58

>  <melting_point>
103.64

>  <molecular_refractivity>
62.76

>  <oscillator_strength_1>
0.0001

>  <oscillator_strength_2>
0.0162

>  <oscillator_strength_3>
0.0677

>  <oscillator_strength_4>
0.0001

>  <open_babel_can_smiles>
CCOC(=O)CN1c2ccccc2C(=O)C1=O

>  <mulliken_charges>
28
1   -0.464035
2   -0.04857
3   -0.139566
4   -0.128809
5   -0.171309
6   -0.166893
7   -0.266999
8   0.052039
9   0.356204
10   0.626658
11   0.325475
12   0.565635
13   -0.565006
14   -0.460633
15   -0.431272
16   -0.46804
17   -0.457926
18   0.155581
19   0.162945
20   0.18219
21   0.158474
22   0.173404
23   0.142104
24   0.145638
25   0.164074
26   0.142029
27   0.225188
28   0.191422

>  <lowdin_charges>
28
1   -0.453068
2   -0.124222
3   -0.17018
4   -0.119189
5   -0.109392
6   -0.189311
7   -0.225935
8   -0.078416
9   0.080031
10   0.186084
11   0.125374
12   0.140809
13   -0.068898
14   -0.252211
15   -0.177917
16   -0.225343
17   -0.193128
18   0.160782
19   0.159813
20   0.16787
21   0.15486
22   0.160685
23   0.163179
24   0.167665
25   0.177595
26   0.167129
27   0.200257
28   0.175074

$$$$

