PCCDB-ID:  3174
public computational chemistry database (PCCDB) project, http://pccdb.org

 16 15  0  0  0  0  0  0  0  0999 V2000
    1.1445   -0.0231    0.0422 C   0  0  0  0  0  0  0  0  0  0  0  0
    3.3896    0.7288    0.7665 C   0  0  0  0  0  0  0  0  0  0  0  0
    3.6487    0.4995    2.2667 C   0  0  0  0  0  0  0  0  0  0  0  0
    3.1162   -1.2220   -0.7726 C   0  0  0  0  0  0  0  0  0  0  0  0
    2.5867   -0.3127    0.1130 N   0  0  0  0  0  0  0  0  0  0  0  0
    4.1970    1.3287    2.9449 O   0  0  0  0  0  0  0  0  0  0  0  0
    3.2404   -0.6877    2.7592 O   0  0  0  0  0  0  0  0  0  0  0  0
    2.2631   -1.9685   -1.9814 S   0  0  0  0  0  0  0  0  0  0  0  0
    4.8412   -1.6714   -0.6269 S   0  0  0  0  0  0  0  0  0  0  0  0
    0.8569    0.4946    0.9608 H   0  0  0  0  0  0  0  0  0  0  0  0
    0.5842   -0.9538   -0.0458 H   0  0  0  0  0  0  0  0  0  0  0  0
    0.9099    0.6032   -0.8261 H   0  0  0  0  0  0  0  0  0  0  0  0
    4.3541    0.8436    0.2670 H   0  0  0  0  0  0  0  0  0  0  0  0
    2.8764    1.6901    0.6695 H   0  0  0  0  0  0  0  0  0  0  0  0
    2.8077   -1.1888    2.0406 H   0  0  0  0  0  0  0  0  0  0  0  0
    5.1181   -1.2247    0.6219 H   0  0  0  0  0  0  0  0  0  0  0  0
  1  5  1  0  0  0  0
  1 10  1  0  0  0  0
  2  3  1  0  0  0  0
  3  7  1  0  0  0  0
  3  6  2  0  0  0  0
  4  9  1  0  0  0  0
  4  5  1  0  0  0  0
  5  2  1  0  0  0  0
  8  4  2  0  0  0  0
  9 16  1  0  0  0  0
 11  1  1  0  0  0  0
 12  1  1  0  0  0  0
 13  2  1  0  0  0  0
 14  2  1  0  0  0  0
 15  7  1  0  0  0  0
M  END
>  <HBA>
5

>  <HBD>
2

>  <TPSA>
111.43

>  <cid>
3174

>  <dipole>
1.99

>  <excitation_energy_1>
3.273

>  <excitation_energy_2>
4.696

>  <excitation_energy_3>
4.952

>  <excitation_energy_4>
5.13

>  <homo_energy>
-6.387

>  <homo_lumo_gap>
4.626

>  <logP>
0.217

>  <lumo_energy>
-1.761

>  <melting_point>
105.18

>  <molecular_refractivity>
41.73

>  <oscillator_strength_1>
0.0009

>  <oscillator_strength_2>
0.1087

>  <oscillator_strength_3>
0.0275

>  <oscillator_strength_4>
0.0004

>  <open_babel_can_smiles>
OC(=O)CN(C(=S)S)C

>  <mulliken_charges>
16
1   -0.326163
2   -0.293011
3   0.591245
4   -0.046492
5   -0.377565
6   -0.427911
7   -0.556626
8   -0.158716
9   0.074885
10   0.168507
11   0.209164
12   0.195594
13   0.220711
14   0.214794
15   0.428868
16   0.082714

>  <lowdin_charges>
16
1   -0.354536
2   -0.249304
3   0.176494
4   -0.168831
5   -0.110986
6   -0.230757
7   -0.344528
8   -0.141848
9   0.05108
10   0.161519
11   0.184434
12   0.172205
13   0.193158
14   0.190115
15   0.363898
16   0.107886

$$$$

