PCCDB-ID:  30553
public computational chemistry database (PCCDB) project, http://pccdb.org

 23 24  0  0  0  0  0  0  0  0999 V2000
    4.6209    0.6899   -1.1962 C   0  0  0  0  0  0  0  0  0  0  0  0
   -1.4657    4.6463    3.2487 C   0  0  0  0  0  0  0  0  0  0  0  0
   -1.0223    5.9386    2.9189 C   0  0  0  0  0  0  0  0  0  0  0  0
   -0.7833    3.5405    2.7669 C   0  0  0  0  0  0  0  0  0  0  0  0
    0.0954    6.1296    2.1142 C   0  0  0  0  0  0  0  0  0  0  0  0
    1.1134    2.6220    1.4070 C   0  0  0  0  0  0  0  0  0  0  0  0
    0.3531    3.7055    1.9489 C   0  0  0  0  0  0  0  0  0  0  0  0
    2.2067    2.8228    0.6184 C   0  0  0  0  0  0  0  0  0  0  0  0
    0.7789    5.0101    1.6331 C   0  0  0  0  0  0  0  0  0  0  0  0
    2.9007    1.5954    0.1150 C   0  0  0  0  0  0  0  0  0  0  0  0
    2.6561    4.1891    0.3014 C   0  0  0  0  0  0  0  0  0  0  0  0
    2.5397    0.4715    0.4170 O   0  0  0  0  0  0  0  0  0  0  0  0
    3.6010    4.5327   -0.3584 O   0  0  0  0  0  0  0  0  0  0  0  0
    3.9371    1.8494   -0.6932 O   0  0  0  0  0  0  0  0  0  0  0  0
    1.8686    5.2196    0.8508 O   0  0  0  0  0  0  0  0  0  0  0  0
    3.9359    0.0581   -1.7677 H   0  0  0  0  0  0  0  0  0  0  0  0
    5.0410    0.1059   -0.3730 H   0  0  0  0  0  0  0  0  0  0  0  0
    5.4125    1.0800   -1.8358 H   0  0  0  0  0  0  0  0  0  0  0  0
   -2.3400    4.5166    3.8789 H   0  0  0  0  0  0  0  0  0  0  0  0
   -1.5584    6.8044    3.2974 H   0  0  0  0  0  0  0  0  0  0  0  0
   -1.1121    2.5341    3.0121 H   0  0  0  0  0  0  0  0  0  0  0  0
    0.4511    7.1199    1.8507 H   0  0  0  0  0  0  0  0  0  0  0  0
    0.8222    1.5969    1.6202 H   0  0  0  0  0  0  0  0  0  0  0  0
  1 14  1  0  0  0  0
  1 17  1  0  0  0  0
  2 19  1  0  0  0  0
  3  2  1  0  0  0  0
  3 20  1  0  0  0  0
  4 21  1  0  0  0  0
  4  2  2  0  0  0  0
  5  3  2  0  0  0  0
  6 23  1  0  0  0  0
  6  7  1  0  0  0  0
  7  4  1  0  0  0  0
  8  6  2  0  0  0  0
  9  7  2  0  0  0  0
  9  5  1  0  0  0  0
 10 12  2  0  0  0  0
 10  8  1  0  0  0  0
 11  8  1  0  0  0  0
 11 15  1  0  0  0  0
 13 11  2  0  0  0  0
 14 10  1  0  0  0  0
 15  9  1  0  0  0  0
 16  1  1  0  0  0  0
 18  1  1  0  0  0  0
 22  5  1  0  0  0  0
M  END
>  <HBA>
4

>  <HBD>
0

>  <TPSA>
56.51

>  <cid>
30553

>  <dipole>
3.57

>  <excitation_energy_1>
3.763

>  <excitation_energy_2>
4.127

>  <excitation_energy_3>
4.26

>  <excitation_energy_4>
4.291

>  <homo_energy>
-6.664

>  <homo_lumo_gap>
4.286

>  <logP>
1.58

>  <lumo_energy>
-2.378

>  <melting_point>
109.27

>  <molecular_refractivity>
53.76

>  <oscillator_strength_1>
0.1536

>  <oscillator_strength_2>
0.0

>  <oscillator_strength_3>
0.0339

>  <oscillator_strength_4>
0.2366

>  <open_babel_can_smiles>
COC(=O)c1cc2ccccc2oc1=O

>  <mulliken_charges>
23
1   -0.220123
2   -0.136228
3   -0.126717
4   -0.187792
5   -0.170185
6   -0.166874
7   0.127763
8   -0.060426
9   0.327212
10   0.617115
11   0.569844
12   -0.499094
13   -0.431033
14   -0.434788
15   -0.522027
16   0.171156
17   0.17114
18   0.173596
19   0.144523
20   0.149266
21   0.151074
22   0.161683
23   0.190914

>  <lowdin_charges>
23
1   -0.279866
2   -0.164426
3   -0.127516
4   -0.134411
5   -0.173611
6   -0.070526
7   -0.046374
8   -0.097206
9   0.121473
10   0.197548
11   0.199062
12   -0.280193
13   -0.213912
14   -0.157517
15   -0.132594
16   0.161894
17   0.161532
18   0.166354
19   0.166371
20   0.169171
21   0.167649
22   0.178097
23   0.189003

$$$$

