PCCDB-ID:  9007
public computational chemistry database (PCCDB) project, http://pccdb.org

 17 17  0  0  0  0  0  0  0  0999 V2000
    1.3597    0.2304    0.7763 C   0  0  0  0  0  0  0  0  0  0  0  0
    4.6081    2.1586   -2.1837 C   0  0  0  0  0  0  0  0  0  0  0  0
    4.2173    3.4587   -1.8469 C   0  0  0  0  0  0  0  0  0  0  0  0
    3.9926    1.0522   -1.6141 C   0  0  0  0  0  0  0  0  0  0  0  0
    2.5558    2.5337   -0.3285 C   0  0  0  0  0  0  0  0  0  0  0  0
    3.1905    3.6343   -0.9185 C   0  0  0  0  0  0  0  0  0  0  0  0
    2.9604    1.2443   -0.6804 C   0  0  0  0  0  0  0  0  0  0  0  0
    2.7472    4.8713   -0.5327 O   0  0  0  0  0  0  0  0  0  0  0  0
    2.4107    0.1050   -0.1678 O   0  0  0  0  0  0  0  0  0  0  0  0
    1.0756   -0.7888    1.0450 H   0  0  0  0  0  0  0  0  0  0  0  0
    0.4914    0.7484    0.3478 H   0  0  0  0  0  0  0  0  0  0  0  0
    1.6878    0.7653    1.6774 H   0  0  0  0  0  0  0  0  0  0  0  0
    5.4072    2.0135   -2.9058 H   0  0  0  0  0  0  0  0  0  0  0  0
    4.7046    4.3201   -2.2986 H   0  0  0  0  0  0  0  0  0  0  0  0
    4.2862    0.0396   -1.8687 H   0  0  0  0  0  0  0  0  0  0  0  0
    1.7640    2.7207    0.3859 H   0  0  0  0  0  0  0  0  0  0  0  0
    3.2569    5.5455   -1.0080 H   0  0  0  0  0  0  0  0  0  0  0  0
  1 10  1  0  0  0  0
  1 12  1  0  0  0  0
  2  3  2  0  0  0  0
  2  4  1  0  0  0  0
  3  6  1  0  0  0  0
  4  7  2  0  0  0  0
  5 16  1  0  0  0  0
  6  8  1  0  0  0  0
  6  5  2  0  0  0  0
  7  5  1  0  0  0  0
  7  9  1  0  0  0  0
  9  1  1  0  0  0  0
 11  1  1  0  0  0  0
 13  2  1  0  0  0  0
 14  3  1  0  0  0  0
 15  4  1  0  0  0  0
 17  8  1  0  0  0  0
M  END
>  <HBA>
2

>  <HBD>
1

>  <TPSA>
29.46

>  <cid>
9007

>  <dipole>
0.87

>  <excitation_energy_1>
5.014

>  <excitation_energy_2>
5.038

>  <excitation_energy_3>
5.594

>  <excitation_energy_4>
5.673

>  <homo_energy>
-5.657

>  <homo_lumo_gap>
5.957

>  <logP>
1.401

>  <lumo_energy>
0.299

>  <melting_point>
49.4

>  <molecular_refractivity>
34.96

>  <oscillator_strength_1>
0.0315

>  <oscillator_strength_2>
0.0003

>  <oscillator_strength_3>
0.0055

>  <oscillator_strength_4>
0.0647

>  <open_babel_can_smiles>
COc1cccc(c1)O

>  <mulliken_charges>
17
1   -0.214062
2   -0.136888
3   -0.204034
4   -0.17707
5   -0.240613
6   0.350655
7   0.377861
8   -0.645422
9   -0.508427
10   0.168407
11   0.153359
12   0.153335
13   0.130639
14   0.112594
15   0.133049
16   0.139458
17   0.407157

>  <lowdin_charges>
17
1   -0.277839
2   -0.136032
3   -0.241618
4   -0.206588
5   -0.245096
6   0.113573
7   0.111703
8   -0.383295
9   -0.196415
10   0.161475
11   0.146634
12   0.146221
13   0.159496
14   0.152523
15   0.164913
16   0.171291
17   0.359054

$$$$

