PCCDB-ID:  7113
public computational chemistry database (PCCDB) project, http://pccdb.org

 27 28  0  0  0  0  0  0  0  0999 V2000
    1.5362   -0.1270    1.0193 C   0  0  0  0  0  0  0  0  0  0  0  0
    5.6286   -6.7411   -4.4392 C   0  0  0  0  0  0  0  0  0  0  0  0
    5.6152   -5.4632   -5.0012 C   0  0  0  0  0  0  0  0  0  0  0  0
    5.1609   -6.9243   -3.1366 C   0  0  0  0  0  0  0  0  0  0  0  0
    5.1391   -4.3784   -4.2670 C   0  0  0  0  0  0  0  0  0  0  0  0
    4.6836   -5.8395   -2.4030 C   0  0  0  0  0  0  0  0  0  0  0  0
    2.5825   -2.4450   -0.5756 C   0  0  0  0  0  0  0  0  0  0  0  0
    4.2828   -1.0414   -1.5530 C   0  0  0  0  0  0  0  0  0  0  0  0
    3.0593   -3.5286   -1.3077 C   0  0  0  0  0  0  0  0  0  0  0  0
    4.7590   -2.1231   -2.2809 C   0  0  0  0  0  0  0  0  0  0  0  0
    2.7176    0.0177    0.0726 C   0  0  0  0  0  0  0  0  0  0  0  0
    3.1865   -1.1840   -0.6878 C   0  0  0  0  0  0  0  0  0  0  0  0
    4.6643   -4.5471   -2.9549 C   0  0  0  0  0  0  0  0  0  0  0  0
    4.1567   -3.3913   -2.1747 C   0  0  0  0  0  0  0  0  0  0  0  0
    3.2725    1.0981   -0.0646 O   0  0  0  0  0  0  0  0  0  0  0  0
    0.6371   -0.4498    0.4806 H   0  0  0  0  0  0  0  0  0  0  0  0
    1.3465    0.8388    1.4905 H   0  0  0  0  0  0  0  0  0  0  0  0
    1.7386   -0.8758    1.7943 H   0  0  0  0  0  0  0  0  0  0  0  0
    6.0003   -7.5868   -5.0112 H   0  0  0  0  0  0  0  0  0  0  0  0
    5.9703   -5.3104   -6.0169 H   0  0  0  0  0  0  0  0  0  0  0  0
    5.1742   -7.9135   -2.6866 H   0  0  0  0  0  0  0  0  0  0  0  0
    5.1090   -3.3932   -4.7238 H   0  0  0  0  0  0  0  0  0  0  0  0
    4.3477   -5.9894   -1.3807 H   0  0  0  0  0  0  0  0  0  0  0  0
    1.7281   -2.5880    0.0789 H   0  0  0  0  0  0  0  0  0  0  0  0
    4.7508   -0.0653   -1.6307 H   0  0  0  0  0  0  0  0  0  0  0  0
    2.5581   -4.4889   -1.2281 H   0  0  0  0  0  0  0  0  0  0  0  0
    5.6264   -1.9968   -2.9224 H   0  0  0  0  0  0  0  0  0  0  0  0
  1 17  1  0  0  0  0
  1 18  1  0  0  0  0
  2  4  1  0  0  0  0
  3  2  2  0  0  0  0
  3  5  1  0  0  0  0
  4 21  1  0  0  0  0
  4  6  2  0  0  0  0
  5 13  2  0  0  0  0
  6 23  1  0  0  0  0
  7 24  1  0  0  0  0
  8 12  2  0  0  0  0
  9 26  1  0  0  0  0
  9  7  2  0  0  0  0
 10 14  2  0  0  0  0
 10  8  1  0  0  0  0
 11  1  1  0  0  0  0
 12  7  1  0  0  0  0
 12 11  1  0  0  0  0
 13  6  1  0  0  0  0
 13 14  1  0  0  0  0
 14  9  1  0  0  0  0
 15 11  2  0  0  0  0
 16  1  1  0  0  0  0
 19  2  1  0  0  0  0
 20  3  1  0  0  0  0
 22  5  1  0  0  0  0
 25  8  1  0  0  0  0
 27 10  1  0  0  0  0
M  END
>  <HBA>
1

>  <HBD>
0

>  <TPSA>
17.07

>  <cid>
7113

>  <dipole>
3.33

>  <excitation_energy_1>
3.676

>  <excitation_energy_2>
4.224

>  <excitation_energy_3>
4.554

>  <excitation_energy_4>
4.618

>  <homo_energy>
-6.313

>  <homo_lumo_gap>
4.659

>  <logP>
3.556

>  <lumo_energy>
-1.654

>  <melting_point>
76.49

>  <molecular_refractivity>
62.07

>  <oscillator_strength_1>
0.0004

>  <oscillator_strength_2>
0.5792

>  <oscillator_strength_3>
0.0094

>  <oscillator_strength_4>
0.009

>  <open_babel_can_smiles>
CC(=O)c1ccc(cc1)c1ccccc1

>  <mulliken_charges>
27
1   -0.543
2   -0.125117
3   -0.133596
4   -0.133506
5   -0.171911
6   -0.171885
7   -0.189566
8   -0.166841
9   -0.179008
10   -0.175863
11   0.406999
12   0.081803
13   0.087488
14   0.097806
15   -0.45431
16   0.170599
17   0.181397
18   0.169797
19   0.133303
20   0.134285
21   0.133536
22   0.136625
23   0.134153
24   0.134904
25   0.164929
26   0.137237
27   0.139744

>  <lowdin_charges>
27
1   -0.477727
2   -0.155084
3   -0.151253
4   -0.152993
5   -0.158142
6   -0.157466
7   -0.147835
8   -0.12562
9   -0.163704
10   -0.160039
11   0.161808
12   -0.054794
13   -0.004472
14   0.014338
15   -0.244223
16   0.170144
17   0.174886
18   0.169813
19   0.160782
20   0.158947
21   0.159202
22   0.160819
23   0.158928
24   0.162118
25   0.177019
26   0.161602
27   0.162947

$$$$

