PCCDB-ID:  7332
public computational chemistry database (PCCDB) project, http://pccdb.org

 30 30  0  0  0  0  0  0  0  0999 V2000
   -1.0146   -4.6561   -1.8886 C   0  0  0  0  0  0  0  0  0  0  0  0
    8.5793   -1.2953   -4.9811 C   0  0  0  0  0  0  0  0  0  0  0  0
    3.9047    0.1539   -3.7177 C   0  0  0  0  0  0  0  0  0  0  0  0
    0.4294   -4.8962   -2.3211 C   0  0  0  0  0  0  0  0  0  0  0  0
    6.7937   -2.9865   -4.3597 C   0  0  0  0  0  0  0  0  0  0  0  0
    5.5067   -3.3219   -3.9482 C   0  0  0  0  0  0  0  0  0  0  0  0
    6.2072   -0.6660   -4.3468 C   0  0  0  0  0  0  0  0  0  0  0  0
    7.1728   -1.6557   -4.5639 C   0  0  0  0  0  0  0  0  0  0  0  0
    4.9056   -0.9582   -3.9342 C   0  0  0  0  0  0  0  0  0  0  0  0
    4.5581   -2.3123   -3.7324 C   0  0  0  0  0  0  0  0  0  0  0  0
    1.1831   -3.6262   -2.6273 C   0  0  0  0  0  0  0  0  0  0  0  0
    2.6577   -3.8040   -3.0621 C   0  0  0  0  0  0  0  0  0  0  0  0
    3.2424   -2.6019   -3.3163 N   0  0  0  0  0  0  0  0  0  0  0  0
    0.7006   -2.5085   -2.5497 O   0  0  0  0  0  0  0  0  0  0  0  0
    3.1628   -4.9188   -3.1445 O   0  0  0  0  0  0  0  0  0  0  0  0
   -1.5140   -5.6078   -1.6819 H   0  0  0  0  0  0  0  0  0  0  0  0
   -1.5783   -4.1336   -2.6676 H   0  0  0  0  0  0  0  0  0  0  0  0
   -1.0589   -4.0408   -0.9846 H   0  0  0  0  0  0  0  0  0  0  0  0
    9.0008   -2.0458   -5.6587 H   0  0  0  0  0  0  0  0  0  0  0  0
    9.2504   -1.2301   -4.1139 H   0  0  0  0  0  0  0  0  0  0  0  0
    8.6112   -0.3259   -5.4898 H   0  0  0  0  0  0  0  0  0  0  0  0
    4.3592    1.1261   -3.9269 H   0  0  0  0  0  0  0  0  0  0  0  0
    3.5356    0.1850   -2.6833 H   0  0  0  0  0  0  0  0  0  0  0  0
    3.0285    0.0576   -4.3735 H   0  0  0  0  0  0  0  0  0  0  0  0
    0.4912   -5.5364   -3.2122 H   0  0  0  0  0  0  0  0  0  0  0  0
    1.0029   -5.4437   -1.5606 H   0  0  0  0  0  0  0  0  0  0  0  0
    7.5158   -3.7829   -4.5250 H   0  0  0  0  0  0  0  0  0  0  0  0
    5.2227   -4.3544   -3.7970 H   0  0  0  0  0  0  0  0  0  0  0  0
    6.4749    0.3770   -4.5055 H   0  0  0  0  0  0  0  0  0  0  0  0
    2.6083   -1.8222   -3.1729 H   0  0  0  0  0  0  0  0  0  0  0  0
  1 16  1  0  0  0  0
  1 18  1  0  0  0  0
  2  8  1  0  0  0  0
  2 20  1  0  0  0  0
  3 23  1  0  0  0  0
  4  1  1  0  0  0  0
  4 26  1  0  0  0  0
  5  6  1  0  0  0  0
  6 28  1  0  0  0  0
  6 10  2  0  0  0  0
  7  9  2  0  0  0  0
  8  5  2  0  0  0  0
  8  7  1  0  0  0  0
  9 10  1  0  0  0  0
  9  3  1  0  0  0  0
 10 13  1  0  0  0  0
 11 14  2  0  0  0  0
 11  4  1  0  0  0  0
 12 11  1  0  0  0  0
 13 30  1  0  0  0  0
 13 12  1  0  0  0  0
 15 12  2  0  0  0  0
 17  1  1  0  0  0  0
 19  2  1  0  0  0  0
 21  2  1  0  0  0  0
 22  3  1  0  0  0  0
 24  3  1  0  0  0  0
 25  4  1  0  0  0  0
 27  5  1  0  0  0  0
 29  7  1  0  0  0  0
M  END
>  <HBA>
3

>  <HBD>
1

>  <TPSA>
46.17

>  <cid>
7332

>  <dipole>
1.27

>  <excitation_energy_1>
3.225

>  <excitation_energy_2>
3.431

>  <excitation_energy_3>
4.037

>  <excitation_energy_4>
4.957

>  <homo_energy>
-5.845

>  <homo_lumo_gap>
3.921

>  <logP>
2.294

>  <lumo_energy>
-1.924

>  <melting_point>
88.34

>  <molecular_refractivity>
60.5

>  <oscillator_strength_1>
0.0

>  <oscillator_strength_2>
0.2155

>  <oscillator_strength_3>
0.0077

>  <oscillator_strength_4>
0.0002

>  <open_babel_can_smiles>
CCC(=O)C(=O)Nc1ccc(cc1C)C

>  <mulliken_charges>
30
1   -0.440455
2   -0.532187
3   -0.563286
4   -0.345604
5   -0.20543
6   -0.158052
7   -0.262959
8   0.201231
9   0.160302
10   0.283983
11   0.391693
12   0.565291
13   -0.737035
14   -0.459791
15   -0.510838
16   0.148535
17   0.160603
18   0.160383
19   0.158596
20   0.165255
21   0.155097
22   0.167734
23   0.16796
24   0.168161
25   0.185913
26   0.186184
27   0.125335
28   0.183896
29   0.116286
30   0.3632

>  <lowdin_charges>
30
1   -0.441843
2   -0.442793
3   -0.44919
4   -0.301167
5   -0.163899
6   -0.174249
7   -0.171682
8   -0.004584
9   -0.021555
10   0.042157
11   0.145801
12   0.117555
13   -0.212011
14   -0.229728
15   -0.285535
16   0.154983
17   0.159796
18   0.15865
19   0.160133
20   0.161808
21   0.156538
22   0.165235
23   0.159683
24   0.161045
25   0.179294
26   0.18044
27   0.15761
28   0.18497
29   0.151279
30   0.301257

$$$$

