PCCDB-ID:  35129
public computational chemistry database (PCCDB) project, http://pccdb.org

 27 28  0  0  1  0  0  0  0  0999 V2000
   -1.5214   -0.8099   -0.0980 C   0  0  0  0  0  0  0  0  0  0  0  0
   -0.8192   -0.6075    1.0918 C   0  0  0  0  0  0  0  0  0  0  0  0
   -0.8454   -0.7612   -1.3185 C   0  0  0  0  0  0  0  0  0  0  0  0
    0.5526   -0.3582    1.0601 C   0  0  0  0  0  0  0  0  0  0  0  0
    0.5267   -0.5114   -1.3480 C   0  0  0  0  0  0  0  0  0  0  0  0
    2.7214   -0.0312   -0.1929 C   0  0  0  0  0  0  0  0  0  0  0  0
    1.2399   -0.3041   -0.1600 C   0  0  0  0  0  0  0  0  0  0  0  0
    6.9119    0.6106   -0.0750 C   0  0  0  0  0  0  0  0  0  0  0  0
    7.6159   -1.7864    0.0862 C   0  0  0  0  0  0  0  0  0  0  0  0
    5.3087   -1.0532   -0.0391 C   0  0  2  0  0  0  0  0  0  0  0  0
    7.1966    1.8551   -0.1341 N   0  0  0  0  0  0  0  0  0  0  0  0
    8.4304   -2.7664    0.1714 N   0  0  0  0  0  0  0  0  0  0  0  0
    7.8794   -0.4260    0.0189 N   0  0  0  0  0  0  0  0  0  0  0  0
    5.5802    0.2043   -0.1026 N   0  0  0  0  0  0  0  0  0  0  0  0
    6.2472   -2.0532    0.0514 N   0  0  0  0  0  0  0  0  0  0  0  0
    3.6346   -1.6414   -0.0635 S   0  0  0  0  0  0  0  0  0  0  0  0
   -2.5906   -1.0021   -0.0742 H   0  0  0  0  0  0  0  0  0  0  0  0
   -1.3399   -0.6410    2.0449 H   0  0  0  0  0  0  0  0  0  0  0  0
   -1.3862   -0.9148   -2.2484 H   0  0  0  0  0  0  0  0  0  0  0  0
    1.0970   -0.1999    1.9880 H   0  0  0  0  0  0  0  0  0  0  0  0
    1.0504   -0.4716   -2.3003 H   0  0  0  0  0  0  0  0  0  0  0  0
    3.0516    0.5939    0.6382 H   0  0  0  0  0  0  0  0  0  0  0  0
    3.0359    0.4473   -1.1220 H   0  0  0  0  0  0  0  0  0  0  0  0
    8.2086    2.0055   -0.1050 H   0  0  0  0  0  0  0  0  0  0  0  0
    9.4014   -2.4536    0.1896 H   0  0  0  0  0  0  0  0  0  0  0  0
    8.8531   -0.1546    0.0388 H   0  0  0  0  0  0  0  0  0  0  0  0
    5.9930   -3.0314    0.1009 H   0  0  0  0  0  0  0  0  0  0  0  0
  1 17  1  0  0  0  0
  1  2  2  0  0  0  0
  2 18  1  0  0  0  0
  3  1  1  0  0  0  0
  4  2  1  0  0  0  0
  4 20  1  0  0  0  0
  5  3  2  0  0  0  0
  5  7  1  0  0  0  0
  6  7  1  0  0  0  0
  6 16  1  0  0  0  0
  6 22  1  0  0  0  0
  7  4  2  0  0  0  0
  8 13  1  0  0  0  0
  9 12  2  0  0  0  0
 10 16  1  6  0  0  0
 10 15  1  0  0  0  0
 11 24  1  0  0  0  0
 11  8  1  0  0  0  0
 12 25  1  0  0  0  0
 13 26  1  0  0  0  0
 13  9  1  0  0  0  0
 14  8  2  0  0  0  0
 14 10  1  0  0  0  0
 15  9  1  0  0  0  0
 15 27  1  0  0  0  0
 19  3  1  0  0  0  0
 21  5  1  0  0  0  0
 23  6  1  0  0  0  0
M  RAD  2  10   2  11   2
M  END
>  <HBA>
6

>  <HBD>
2

>  <TPSA>
116.01

>  <cid>
35129

>  <dipole>
1.01

>  <excitation_energy_1>
5.062

>  <excitation_energy_2>
5.11

>  <excitation_energy_3>
5.222

>  <excitation_energy_4>
5.228

>  <homo_energy>
-6.433

>  <homo_lumo_gap>
5.736

>  <logP>
2.491

>  <lumo_energy>
-0.697

>  <melting_point>
193.36

>  <molecular_refractivity>
64.84

>  <oscillator_strength_1>
0.0043

>  <oscillator_strength_2>
0.3005

>  <oscillator_strength_3>
0.0085

>  <oscillator_strength_4>
0.0269

>  <open_babel_can_smiles>
N=C1NC(=N[C](N1)SCc1ccccc1)[NH]

>  <mulliken_charges>
27
1   -0.125992
2   -0.128799
3   -0.128476
4   -0.161354
5   -0.163066
6   -0.491073
7   0.137125
8   0.602619
9   0.690698
10   0.324445
11   -0.603127
12   -0.648754
13   -0.694499
14   -0.469286
15   -0.641386
16   0.153892
17   0.134537
18   0.135506
19   0.135441
20   0.136917
21   0.13622
22   0.215399
23   0.211155
24   0.265699
25   0.281391
26   0.32926
27   0.365506

>  <lowdin_charges>
27
1   -0.149199
2   -0.152728
3   -0.153153
4   -0.155595
5   -0.15636
6   -0.347087
7   -0.016445
8   0.125394
9   0.142749
10   -0.002365
11   -0.404632
12   -0.455004
13   -0.278737
14   -0.21366
15   -0.228396
16   0.173256
17   0.158396
18   0.160692
19   0.160929
20   0.161737
21   0.161022
22   0.18518
23   0.182012
24   0.243012
25   0.257293
26   0.28936
27   0.312329

$$$$

