PCCDB-ID:  30915
public computational chemistry database (PCCDB) project, http://pccdb.org

 18 18  0  0  0  0  0  0  0  0999 V2000
    0.9940    0.0534    0.3019 C   0  0  0  0  0  0  0  0  0  0  0  0
    7.4394   -1.1059   -0.4069 C   0  0  0  0  0  0  0  0  0  0  0  0
    3.1757    1.2559   -0.2230 C   0  0  0  0  0  0  0  0  0  0  0  0
    4.4746   -1.0447    0.0061 C   0  0  0  0  0  0  0  0  0  0  0  0
    2.4836    0.0667    0.0885 C   0  0  0  0  0  0  0  0  0  0  0  0
    6.6515    0.1893   -0.5262 C   0  0  0  0  0  0  0  0  0  0  0  0
    5.1562    0.1360   -0.3047 C   0  0  0  0  0  0  0  0  0  0  0  0
    3.1496   -1.0880    0.2023 N   0  0  0  0  0  0  0  0  0  0  0  0
    4.4858    1.2990   -0.4183 N   0  0  0  0  0  0  0  0  0  0  0  0
    7.2002    1.2404   -0.7919 O   0  0  0  0  0  0  0  0  0  0  0  0
    0.7078    0.7090    1.1333 H   0  0  0  0  0  0  0  0  0  0  0  0
    0.6626   -0.9627    0.5248 H   0  0  0  0  0  0  0  0  0  0  0  0
    0.4636    0.4115   -0.5889 H   0  0  0  0  0  0  0  0  0  0  0  0
    7.0868   -1.8531   -1.1282 H   0  0  0  0  0  0  0  0  0  0  0  0
    7.3361   -1.5429    0.5938 H   0  0  0  0  0  0  0  0  0  0  0  0
    8.4917   -0.8897   -0.5981 H   0  0  0  0  0  0  0  0  0  0  0  0
    2.6352    2.1977   -0.3145 H   0  0  0  0  0  0  0  0  0  0  0  0
    4.9974   -1.9928    0.1035 H   0  0  0  0  0  0  0  0  0  0  0  0
  1 12  1  0  0  0  0
  1 11  1  0  0  0  0
  2 15  1  0  0  0  0
  3  5  2  0  0  0  0
  4 18  1  0  0  0  0
  4  8  2  0  0  0  0
  5  8  1  0  0  0  0
  5  1  1  0  0  0  0
  6  2  1  0  0  0  0
  6  7  1  0  0  0  0
  7  4  1  0  0  0  0
  9  7  2  0  0  0  0
  9  3  1  0  0  0  0
 10  6  2  0  0  0  0
 13  1  1  0  0  0  0
 14  2  1  0  0  0  0
 16  2  1  0  0  0  0
 17  3  1  0  0  0  0
M  END
>  <HBA>
3

>  <HBD>
0

>  <TPSA>
42.85

>  <cid>
30915

>  <dipole>
3.18

>  <excitation_energy_1>
3.392

>  <excitation_energy_2>
3.767

>  <excitation_energy_3>
4.174

>  <excitation_energy_4>
4.669

>  <homo_energy>
-6.713

>  <homo_lumo_gap>
4.716

>  <logP>
0.988

>  <lumo_energy>
-1.997

>  <melting_point>
74.06

>  <molecular_refractivity>
37.19

>  <oscillator_strength_1>
0.0003

>  <oscillator_strength_2>
0.0021

>  <oscillator_strength_3>
0.0018

>  <oscillator_strength_4>
0.0002

>  <open_babel_can_smiles>
Cc1cnc(cn1)C(=O)C

>  <mulliken_charges>
18
1   -0.526166
2   -0.546545
3   0.016726
4   0.003931
5   0.304213
6   0.426088
7   0.210152
8   -0.435106
9   -0.405378
10   -0.418984
11   0.174057
12   0.18533
13   0.173836
14   0.172344
15   0.172452
16   0.18699
17   0.152376
18   0.153684

>  <lowdin_charges>
18
1   -0.449158
2   -0.477242
3   -0.108503
4   -0.099996
5   0.053217
6   0.15487
7   -0.017469
8   -0.131566
9   -0.084838
10   -0.205169
11   0.170676
12   0.175234
13   0.170413
14   0.171361
15   0.170002
16   0.177009
17   0.164342
18   0.166817

$$$$

