PCCDB-ID:  19891
public computational chemistry database (PCCDB) project, http://pccdb.org

 25 26  0  0  0  0  0  0  0  0999 V2000
   -1.2041   -2.4482    1.2718 C   0  0  0  0  0  0  0  0  0  0  0  0
   -1.2451   -1.2143    0.6213 C   0  0  0  0  0  0  0  0  0  0  0  0
    0.0286   -3.0662    1.5090 C   0  0  0  0  0  0  0  0  0  0  0  0
    8.4990   -0.5322   -0.4455 C   0  0  0  0  0  0  0  0  0  0  0  0
   -0.0616   -0.6047    0.2108 C   0  0  0  0  0  0  0  0  0  0  0  0
    1.2095   -2.4570    1.0997 C   0  0  0  0  0  0  0  0  0  0  0  0
    7.2786    0.1389   -0.7161 C   0  0  0  0  0  0  0  0  0  0  0  0
    2.3925   -0.5218   -0.0145 C   0  0  0  0  0  0  0  0  0  0  0  0
    3.6751   -0.9192    0.1049 C   0  0  0  0  0  0  0  0  0  0  0  0
    8.3116   -1.7263    0.2047 C   0  0  0  0  0  0  0  0  0  0  0  0
    1.1872   -1.2119    0.4403 C   0  0  0  0  0  0  0  0  0  0  0  0
    4.7694   -0.0731   -0.4264 C   0  0  0  0  0  0  0  0  0  0  0  0
    6.1660   -0.5435   -0.2748 C   0  0  0  0  0  0  0  0  0  0  0  0
    4.5546    1.0020   -0.9855 O   0  0  0  0  0  0  0  0  0  0  0  0
    6.6386   -2.0481    0.4928 S   0  0  0  0  0  0  0  0  0  0  0  0
   -2.1246   -2.9276    1.5932 H   0  0  0  0  0  0  0  0  0  0  0  0
   -2.1980   -0.7274    0.4327 H   0  0  0  0  0  0  0  0  0  0  0  0
    0.0658   -4.0269    2.0153 H   0  0  0  0  0  0  0  0  0  0  0  0
    9.4765   -0.1494   -0.7176 H   0  0  0  0  0  0  0  0  0  0  0  0
   -0.0949    0.3564   -0.2964 H   0  0  0  0  0  0  0  0  0  0  0  0
    2.1576   -2.9504    1.2920 H   0  0  0  0  0  0  0  0  0  0  0  0
    7.1889    1.0949   -1.2180 H   0  0  0  0  0  0  0  0  0  0  0  0
    2.2368    0.4343   -0.5130 H   0  0  0  0  0  0  0  0  0  0  0  0
    3.9354   -1.8579    0.5871 H   0  0  0  0  0  0  0  0  0  0  0  0
    9.0617   -2.4361    0.5280 H   0  0  0  0  0  0  0  0  0  0  0  0
  1  3  1  0  0  0  0
  1 16  1  0  0  0  0
  2  1  2  0  0  0  0
  3 18  1  0  0  0  0
  4 10  2  0  0  0  0
  5 11  2  0  0  0  0
  5  2  1  0  0  0  0
  6 21  1  0  0  0  0
  6  3  2  0  0  0  0
  7  4  1  0  0  0  0
  7 13  2  0  0  0  0
  8  9  2  0  0  0  0
  8 11  1  0  0  0  0
  9 24  1  0  0  0  0
 10 15  1  0  0  0  0
 10 25  1  0  0  0  0
 11  6  1  0  0  0  0
 12 13  1  0  0  0  0
 12  9  1  0  0  0  0
 13 15  1  0  0  0  0
 14 12  2  0  0  0  0
 17  2  1  0  0  0  0
 19  4  1  0  0  0  0
 20  5  1  0  0  0  0
 22  7  1  0  0  0  0
 23  8  1  0  0  0  0
M  END
>  <HBA>
2

>  <HBD>
0

>  <TPSA>
45.31

>  <cid>
19891

>  <dipole>
2.64

>  <excitation_energy_1>
3.286

>  <excitation_energy_2>
3.726

>  <excitation_energy_3>
4.058

>  <excitation_energy_4>
4.242

>  <homo_energy>
-6.313

>  <homo_lumo_gap>
4.161

>  <logP>
3.644

>  <lumo_energy>
-2.152

>  <melting_point>
87.52

>  <molecular_refractivity>
64.13

>  <oscillator_strength_1>
0.0

>  <oscillator_strength_2>
0.7018

>  <oscillator_strength_3>
0.0364

>  <oscillator_strength_4>
0.0144

>  <open_babel_can_smiles>
O=C(c1cccs1)/C=C/c1ccccc1

>  <mulliken_charges>
25
1   -0.1234
2   -0.131922
3   -0.131417
4   -0.099445
5   -0.185746
6   -0.171129
7   -0.101145
8   -0.157846
9   -0.220671
10   -0.340668
11   0.169603
12   0.441832
13   -0.224986
14   -0.498029
15   0.269931
16   0.136934
17   0.137699
18   0.136626
19   0.150128
20   0.141828
21   0.135812
22   0.171267
23   0.169326
24   0.145471
25   0.179949

>  <lowdin_charges>
25
1   -0.14658
2   -0.154399
3   -0.15122
4   -0.176806
5   -0.146142
6   -0.146519
7   -0.14281
8   -0.09561
9   -0.212627
10   -0.306753
11   -0.008202
12   0.150974
13   -0.195264
14   -0.269542
15   0.318128
16   0.161845
17   0.161828
18   0.160469
19   0.169582
20   0.162278
21   0.160493
22   0.183173
23   0.176028
24   0.160861
25   0.186815

$$$$

