PCCDB-ID:  8981
public computational chemistry database (PCCDB) project, http://pccdb.org

 28 29  0  0  0  0  0  0  0  0999 V2000
    0.8617    0.0544    0.2508 C   0  0  0  0  0  0  0  0  0  0  0  0
    4.9275   -1.6311   -1.3229 C   0  0  0  0  0  0  0  0  0  0  0  0
    5.0544   -2.3825    1.0859 C   0  0  0  0  0  0  0  0  0  0  0  0
    3.2865    3.6842   -0.2019 C   0  0  0  0  0  0  0  0  0  0  0  0
    4.6706    3.6126   -0.0323 C   0  0  0  0  0  0  0  0  0  0  0  0
    2.5308    2.5137   -0.1333 C   0  0  0  0  0  0  0  0  0  0  0  0
    5.2906    2.3863    0.1956 C   0  0  0  0  0  0  0  0  0  0  0  0
    3.0308   -1.1614    0.2468 C   0  0  0  0  0  0  0  0  0  0  0  0
    2.3688    0.0085    0.1980 C   0  0  0  0  0  0  0  0  0  0  0  0
    3.1264    1.2661    0.0930 C   0  0  0  0  0  0  0  0  0  0  0  0
    4.5346    1.2063    0.2604 C   0  0  0  0  0  0  0  0  0  0  0  0
    4.5363   -1.2872    0.1365 C   0  0  0  0  0  0  0  0  0  0  0  0
    5.1304   -0.0097    0.5605 N   0  0  0  0  0  0  0  0  0  0  0  0
    0.4436   -0.9498    0.3667 H   0  0  0  0  0  0  0  0  0  0  0  0
    0.4406    0.4893   -0.6650 H   0  0  0  0  0  0  0  0  0  0  0  0
    0.5088    0.6709    1.0872 H   0  0  0  0  0  0  0  0  0  0  0  0
    4.4566   -2.5669   -1.6474 H   0  0  0  0  0  0  0  0  0  0  0  0
    6.0155   -1.7506   -1.4160 H   0  0  0  0  0  0  0  0  0  0  0  0
    4.6058   -0.8342   -2.0010 H   0  0  0  0  0  0  0  0  0  0  0  0
    4.6518   -3.3622    0.8046 H   0  0  0  0  0  0  0  0  0  0  0  0
    4.7629   -2.1646    2.1175 H   0  0  0  0  0  0  0  0  0  0  0  0
    6.1492   -2.4490    1.0422 H   0  0  0  0  0  0  0  0  0  0  0  0
    2.8009    4.6383   -0.3838 H   0  0  0  0  0  0  0  0  0  0  0  0
    5.2758    4.5142   -0.0836 H   0  0  0  0  0  0  0  0  0  0  0  0
    1.4536    2.5700   -0.2603 H   0  0  0  0  0  0  0  0  0  0  0  0
    6.3695    2.3347    0.3290 H   0  0  0  0  0  0  0  0  0  0  0  0
    2.4779   -2.0965    0.3154 H   0  0  0  0  0  0  0  0  0  0  0  0
    6.1434    0.0002    0.5187 H   0  0  0  0  0  0  0  0  0  0  0  0
  1 14  1  0  0  0  0
  1 16  1  0  0  0  0
  2 12  1  0  0  0  0
  3 21  1  0  0  0  0
  4  6  2  0  0  0  0
  4  5  1  0  0  0  0
  5  7  2  0  0  0  0
  6 10  1  0  0  0  0
  7 11  1  0  0  0  0
  7 26  1  0  0  0  0
  8 27  1  0  0  0  0
  9  8  2  0  0  0  0
  9  1  1  0  0  0  0
 10  9  1  0  0  0  0
 10 11  2  0  0  0  0
 11 13  1  0  0  0  0
 12  8  1  0  0  0  0
 12 13  1  0  0  0  0
 12  3  1  0  0  0  0
 15  1  1  0  0  0  0
 17  2  1  0  0  0  0
 18  2  1  0  0  0  0
 19  2  1  0  0  0  0
 20  3  1  0  0  0  0
 22  3  1  0  0  0  0
 23  4  1  0  0  0  0
 24  5  1  0  0  0  0
 25  6  1  0  0  0  0
 28 13  1  0  0  0  0
M  END
>  <HBA>
1

>  <HBD>
1

>  <TPSA>
12.03

>  <cid>
8981

>  <dipole>
1.42

>  <excitation_energy_1>
3.719

>  <excitation_energy_2>
4.393

>  <excitation_energy_3>
4.618

>  <excitation_energy_4>
4.903

>  <homo_energy>
-4.898

>  <homo_lumo_gap>
4.471

>  <logP>
3.432

>  <lumo_energy>
-0.427

>  <melting_point>
86.52

>  <molecular_refractivity>
61.12

>  <oscillator_strength_1>
0.0706

>  <oscillator_strength_2>
0.0068

>  <oscillator_strength_3>
0.0046

>  <oscillator_strength_4>
0.0011

>  <open_babel_can_smiles>
CC1=CC(C)(C)Nc2c1cccc2

>  <mulliken_charges>
28
1   -0.53125
2   -0.434713
3   -0.4493
4   -0.139663
5   -0.132784
6   -0.218
7   -0.19718
8   -0.230155
9   0.18622
10   0.084066
11   0.312817
12   0.197925
13   -0.6836
14   0.152733
15   0.158745
16   0.161778
17   0.14184
18   0.130057
19   0.15922
20   0.142999
21   0.160994
22   0.133305
23   0.118183
24   0.122488
25   0.12151
26   0.111684
27   0.116517
28   0.303567

>  <lowdin_charges>
28
1   -0.440407
2   -0.454969
3   -0.441476
4   -0.19075
5   -0.147722
6   -0.155124
7   -0.204613
8   -0.191637
9   -0.000149
10   -0.046891
11   0.062915
12   0.078544
13   -0.277792
14   0.15646
15   0.158032
16   0.160204
17   0.151786
18   0.141031
19   0.159136
20   0.150774
21   0.158062
22   0.143326
23   0.153947
24   0.1558
25   0.154341
26   0.14788
27   0.153102
28   0.26619

$$$$

