PCCDB-ID:  7479
public computational chemistry database (PCCDB) project, http://pccdb.org

 22 22  0  0  0  0  0  0  0  0999 V2000
    2.3504   -1.6146    0.1509 C   0  0  0  0  0  0  0  0  0  0  0  0
    1.2497    0.5495   -0.4971 C   0  0  0  0  0  0  0  0  0  0  0  0
    3.6516    2.5630    2.3401 C   0  0  0  0  0  0  0  0  0  0  0  0
    4.6856    0.4842    2.9835 C   0  0  0  0  0  0  0  0  0  0  0  0
    2.8756    1.8981    1.4086 C   0  0  0  0  0  0  0  0  0  0  0  0
    3.9172   -0.2006    2.0549 C   0  0  0  0  0  0  0  0  0  0  0  0
    5.3931    2.5807    4.1348 C   0  0  0  0  0  0  0  0  0  0  0  0
    4.5721    1.8723    3.1469 C   0  0  0  0  0  0  0  0  0  0  0  0
    2.9868    0.4913    1.2379 C   0  0  0  0  0  0  0  0  0  0  0  0
    2.2175   -0.1758    0.3105 N   0  0  0  0  0  0  0  0  0  0  0  0
    5.3641    3.7826    4.3445 O   0  0  0  0  0  0  0  0  0  0  0  0
    1.6859   -1.9499   -0.6467 H   0  0  0  0  0  0  0  0  0  0  0  0
    2.0803   -2.1563    1.0685 H   0  0  0  0  0  0  0  0  0  0  0  0
    3.3757   -1.8987   -0.1224 H   0  0  0  0  0  0  0  0  0  0  0  0
    0.7362   -0.1522   -1.1559 H   0  0  0  0  0  0  0  0  0  0  0  0
    1.7320    1.3116   -1.1246 H   0  0  0  0  0  0  0  0  0  0  0  0
    0.4927    1.0488    0.1232 H   0  0  0  0  0  0  0  0  0  0  0  0
    3.5618    3.6382    2.4651 H   0  0  0  0  0  0  0  0  0  0  0  0
    5.3916   -0.0690    3.6003 H   0  0  0  0  0  0  0  0  0  0  0  0
    2.1785    2.4662    0.8045 H   0  0  0  0  0  0  0  0  0  0  0  0
    4.0338   -1.2735    1.9635 H   0  0  0  0  0  0  0  0  0  0  0  0
    6.0822    1.9244    4.7153 H   0  0  0  0  0  0  0  0  0  0  0  0
  1 10  1  0  0  0  0
  1 13  1  0  0  0  0
  2 17  1  0  0  0  0
  2 10  1  0  0  0  0
  3 18  1  0  0  0  0
  3  8  2  0  0  0  0
  4  8  1  0  0  0  0
  4 19  1  0  0  0  0
  5  3  1  0  0  0  0
  6  4  2  0  0  0  0
  7 11  2  0  0  0  0
  7 22  1  0  0  0  0
  8  7  1  0  0  0  0
  9  5  2  0  0  0  0
  9  6  1  0  0  0  0
 10  9  1  0  0  0  0
 12  1  1  0  0  0  0
 14  1  1  0  0  0  0
 15  2  1  0  0  0  0
 16  2  1  0  0  0  0
 20  5  1  0  0  0  0
 21  6  1  0  0  0  0
M  END
>  <HBA>
2

>  <HBD>
0

>  <TPSA>
20.31

>  <cid>
7479

>  <dipole>
6.32

>  <excitation_energy_1>
3.831

>  <excitation_energy_2>
4.164

>  <excitation_energy_3>
4.514

>  <excitation_energy_4>
4.751

>  <homo_energy>
-5.494

>  <homo_lumo_gap>
4.433

>  <logP>
1.565

>  <lumo_energy>
-1.061

>  <melting_point>
47.44

>  <molecular_refractivity>
46.04

>  <oscillator_strength_1>
0.0001

>  <oscillator_strength_2>
0.4803

>  <oscillator_strength_3>
0.0499

>  <oscillator_strength_4>
0.0204

>  <open_babel_can_smiles>
O=Cc1ccc(cc1)N(C)C

>  <mulliken_charges>
22
1   -0.314657
2   -0.314846
3   -0.17181
4   -0.190537
5   -0.191691
6   -0.197363
7   0.180582
8   0.101946
9   0.376666
10   -0.471403
11   -0.429374
12   0.160225
13   0.164207
14   0.165744
15   0.159828
16   0.166168
17   0.166091
18   0.157751
19   0.133602
20   0.131594
21   0.129138
22   0.088138

>  <lowdin_charges>
22
1   -0.349495
2   -0.353414
3   -0.113108
4   -0.132472
5   -0.208913
6   -0.213593
7   0.034042
8   -0.085364
9   0.073902
10   -0.101705
11   -0.252108
12   0.161618
13   0.151589
14   0.152026
15   0.162061
16   0.153858
17   0.153905
18   0.171721
19   0.16048
20   0.163811
21   0.159761
22   0.111397

$$$$

