PCCDB-ID:  36099
public computational chemistry database (PCCDB) project, http://pccdb.org

 25 26  0  0  1  0  0  0  0  0999 V2000
    1.0152    0.0190    0.0343 C   0  0  0  0  0  0  0  0  0  0  0  0
    5.5921    0.6706   -1.4846 C   0  0  0  0  0  0  0  0  0  0  0  0
    4.8014    1.8210   -2.1262 C   0  0  0  0  0  0  0  0  0  0  0  0
    4.5892   -0.5002   -1.5042 C   0  0  0  0  0  0  0  0  0  0  0  0
    3.1463    1.1594    0.8619 C   0  0  0  0  0  0  0  0  0  0  0  0
    3.1726    2.3225   -0.1511 C   0  0  0  0  0  0  0  0  0  0  0  0
    2.5503   -0.0255    0.0727 C   0  0  2  0  0  0  0  0  0  0  0  0
    3.3744    1.6759   -1.5545 C   0  0  2  0  0  0  0  0  0  0  0  0
    3.1718    0.1297   -1.3395 C   0  0  1  0  0  0  0  0  0  0  0  0
    0.5932   -0.0550    1.0439 H   0  0  0  0  0  0  0  0  0  0  0  0
    0.6118   -0.8104   -0.5590 H   0  0  0  0  0  0  0  0  0  0  0  0
    0.6462    0.9512   -0.4111 H   0  0  0  0  0  0  0  0  0  0  0  0
    5.8631    0.9297   -0.4529 H   0  0  0  0  0  0  0  0  0  0  0  0
    6.5246    0.4410   -2.0124 H   0  0  0  0  0  0  0  0  0  0  0  0
    4.7778    1.6835   -3.2161 H   0  0  0  0  0  0  0  0  0  0  0  0
    5.2359    2.8094   -1.9345 H   0  0  0  0  0  0  0  0  0  0  0  0
    4.8030   -1.2521   -0.7357 H   0  0  0  0  0  0  0  0  0  0  0  0
    4.6502   -1.0126   -2.4726 H   0  0  0  0  0  0  0  0  0  0  0  0
    2.5746    1.3961    1.7673 H   0  0  0  0  0  0  0  0  0  0  0  0
    4.1660    0.9142    1.1841 H   0  0  0  0  0  0  0  0  0  0  0  0
    3.9531    3.0566    0.0813 H   0  0  0  0  0  0  0  0  0  0  0  0
    2.2197    2.8643   -0.1244 H   0  0  0  0  0  0  0  0  0  0  0  0
    2.8493   -0.9830    0.5202 H   0  0  0  0  0  0  0  0  0  0  0  0
    2.6422    2.0872   -2.2575 H   0  0  0  0  0  0  0  0  0  0  0  0
    2.4961   -0.2952   -2.0908 H   0  0  0  0  0  0  0  0  0  0  0  0
  1  7  1  0  0  0  0
  1 10  1  0  0  0  0
  2 13  1  0  0  0  0
  3 16  1  0  0  0  0
  3  8  1  0  0  0  0
  3  2  1  0  0  0  0
  4  2  1  0  0  0  0
  4  9  1  0  0  0  0
  4 17  1  0  0  0  0
  5 20  1  0  0  0  0
  5 19  1  0  0  0  0
  6 22  1  0  0  0  0
  6 21  1  0  0  0  0
  6  5  1  0  0  0  0
  7 23  1  1  0  0  0
  7  5  1  0  0  0  0
  8 24  1  6  0  0  0
  8  9  1  0  0  0  0
  8  6  1  0  0  0  0
  9 25  1  6  0  0  0
  9  7  1  0  0  0  0
 11  1  1  0  0  0  0
 12  1  1  0  0  0  0
 14  2  1  0  0  0  0
 15  3  1  0  0  0  0
 18  4  1  0  0  0  0
M  END
>  <HBA>
0

>  <HBD>
0

>  <TPSA>
0.0

>  <cid>
36099

>  <dipole>
0.07

>  <excitation_energy_1>
7.492

>  <excitation_energy_2>
7.556

>  <excitation_energy_3>
7.637

>  <excitation_energy_4>
7.724

>  <homo_energy>
-8.044

>  <homo_lumo_gap>
10.041

>  <logP>
2.833

>  <lumo_energy>
1.997

>  <melting_point>
16.6

>  <molecular_refractivity>
41.15

>  <oscillator_strength_1>
0.0058

>  <oscillator_strength_2>
0.0055

>  <oscillator_strength_3>
0.015

>  <oscillator_strength_4>
0.0092

>  <open_babel_can_smiles>
C[C@@H]1CC[C@@H]2[C@H]1CCC2

>  <mulliken_charges>
25
1   -0.453505
2   -0.273334
3   -0.270145
4   -0.27636
5   -0.27428
6   -0.278598
7   -0.080008
8   -0.094699
9   -0.092731
10   0.139076
11   0.140241
12   0.142277
13   0.136275
14   0.131616
15   0.128277
16   0.130022
17   0.131018
18   0.13204
19   0.129014
20   0.134266
21   0.131255
22   0.134845
23   0.117265
24   0.119499
25   0.116676

>  <lowdin_charges>
25
1   -0.447505
2   -0.283206
3   -0.277874
4   -0.285301
5   -0.28429
6   -0.28739
7   -0.127574
8   -0.139687
9   -0.140223
10   0.146398
11   0.148185
12   0.146412
13   0.138308
14   0.143554
15   0.137335
16   0.141128
17   0.143479
18   0.142598
19   0.142248
20   0.139799
21   0.143998
22   0.142887
23   0.135455
24   0.14098
25   0.140286

$$$$

