PCCDB-ID:  16477
public computational chemistry database (PCCDB) project, http://pccdb.org

 27 28  0  0  0  0  0  0  0  0999 V2000
    0.8819    0.0302    0.0570 C   0  0  0  0  0  0  0  0  0  0  0  0
    8.8716   -1.1495    0.3964 C   0  0  0  0  0  0  0  0  0  0  0  0
    4.5672   -3.7601    0.2143 C   0  0  0  0  0  0  0  0  0  0  0  0
    3.1106    1.2395    0.1549 C   0  0  0  0  0  0  0  0  0  0  0  0
    4.4841    1.2514    0.2135 C   0  0  0  0  0  0  0  0  0  0  0  0
    6.6458   -2.3623    0.3018 C   0  0  0  0  0  0  0  0  0  0  0  0
    6.6484    0.0417    0.3031 C   0  0  0  0  0  0  0  0  0  0  0  0
    3.1009   -1.1694    0.1500 C   0  0  0  0  0  0  0  0  0  0  0  0
    2.3905    0.0151    0.1219 C   0  0  0  0  0  0  0  0  0  0  0  0
    7.3632   -1.1348    0.3330 C   0  0  0  0  0  0  0  0  0  0  0  0
    5.2693   -2.4231    0.2441 C   0  0  0  0  0  0  0  0  0  0  0  0
    5.2293    0.0426    0.2436 C   0  0  0  0  0  0  0  0  0  0  0  0
    4.5207   -1.2003    0.2118 C   0  0  0  0  0  0  0  0  0  0  0  0
    0.5251    0.5528   -0.8400 H   0  0  0  0  0  0  0  0  0  0  0  0
    0.4495    0.5509    0.9212 H   0  0  0  0  0  0  0  0  0  0  0  0
    0.4715   -0.9843    0.0388 H   0  0  0  0  0  0  0  0  0  0  0  0
    9.3034   -1.6699   -0.4682 H   0  0  0  0  0  0  0  0  0  0  0  0
    9.2293   -1.6716    1.2932 H   0  0  0  0  0  0  0  0  0  0  0  0
    9.2807   -0.1345    0.4147 H   0  0  0  0  0  0  0  0  0  0  0  0
    5.2908   -4.5802    0.2448 H   0  0  0  0  0  0  0  0  0  0  0  0
    3.9634   -3.8825   -0.6940 H   0  0  0  0  0  0  0  0  0  0  0  0
    3.8878   -3.8823    1.0676 H   0  0  0  0  0  0  0  0  0  0  0  0
    2.5612    2.1783    0.1324 H   0  0  0  0  0  0  0  0  0  0  0  0
    5.0227    2.1962    0.2387 H   0  0  0  0  0  0  0  0  0  0  0  0
    7.2118   -3.2921    0.3268 H   0  0  0  0  0  0  0  0  0  0  0  0
    7.1687    0.9975    0.3249 H   0  0  0  0  0  0  0  0  0  0  0  0
    2.5546   -2.1080    0.1249 H   0  0  0  0  0  0  0  0  0  0  0  0
  1  9  1  0  0  0  0
  1 15  1  0  0  0  0
  2 19  1  0  0  0  0
  2 18  1  0  0  0  0
  3 11  1  0  0  0  0
  3 20  1  0  0  0  0
  3 22  1  0  0  0  0
  4  5  2  0  0  0  0
  5 24  1  0  0  0  0
  5 12  1  0  0  0  0
  6 25  1  0  0  0  0
  6 10  1  0  0  0  0
  7 26  1  0  0  0  0
  7 10  2  0  0  0  0
  8 13  1  0  0  0  0
  9  8  2  0  0  0  0
  9  4  1  0  0  0  0
 10  2  1  0  0  0  0
 11  6  2  0  0  0  0
 12  7  1  0  0  0  0
 13 12  2  0  0  0  0
 13 11  1  0  0  0  0
 14  1  1  0  0  0  0
 16  1  1  0  0  0  0
 17  2  1  0  0  0  0
 21  3  1  0  0  0  0
 23  4  1  0  0  0  0
 27  8  1  0  0  0  0
M  END
>  <HBA>
0

>  <HBD>
0

>  <TPSA>
0.0

>  <cid>
16477

>  <dipole>
0.27

>  <excitation_energy_1>
4.203

>  <excitation_energy_2>
4.388

>  <excitation_energy_3>
5.244

>  <excitation_energy_4>
5.488

>  <homo_energy>
-5.502

>  <homo_lumo_gap>
4.762

>  <logP>
3.765

>  <lumo_energy>
-0.74

>  <melting_point>
62.17

>  <molecular_refractivity>
58.85

>  <oscillator_strength_1>
0.0412

>  <oscillator_strength_2>
0.0335

>  <oscillator_strength_3>
0.0

>  <oscillator_strength_4>
0.0014

>  <open_babel_can_smiles>
Cc1cc(C)c2c(c1)ccc(c2)C

>  <mulliken_charges>
27
1   -0.533278
2   -0.532455
3   -0.534468
4   -0.183354
5   -0.194123
6   -0.258032
7   -0.26979
8   -0.273914
9   0.189743
10   0.195453
11   0.140872
12   0.148298
13   0.084491
14   0.160337
15   0.160305
16   0.15438
17   0.159908
18   0.15984
19   0.15464
20   0.154631
21   0.161234
22   0.161226
23   0.119994
24   0.126034
25   0.111938
26   0.11717
27   0.118921

>  <lowdin_charges>
27
1   -0.442215
2   -0.441705
3   -0.443809
4   -0.167483
5   -0.155731
6   -0.178949
7   -0.176471
8   -0.177558
9   -0.00056
10   -0.001391
11   0.000575
12   -6.6e-05
13   -0.010635
14   0.159765
15   0.159999
16   0.155469
17   0.159835
18   0.159554
19   0.155785
20   0.157786
21   0.159192
22   0.159454
23   0.154532
24   0.155935
25   0.151107
26   0.152239
27   0.155347

$$$$

