PCCDB-ID:  23662
public computational chemistry database (PCCDB) project, http://pccdb.org

 31 33  0  0  1  0  0  0  0  0999 V2000
    1.8741    0.3792    0.5470 C   0  0  0  0  0  0  0  0  0  0  0  0
    2.3841    5.1750   -0.7996 C   0  0  0  0  0  0  0  0  0  0  0  0
    1.2139    5.8322   -1.2330 C   0  0  0  0  0  0  0  0  0  0  0  0
    2.9769   -1.7343   -1.5118 C   0  0  0  0  0  0  0  0  0  0  0  0
    2.5627    3.8129   -1.0077 C   0  0  0  0  0  0  0  0  0  0  0  0
    0.1971    5.1409   -1.8820 C   0  0  0  0  0  0  0  0  0  0  0  0
    2.0139   -0.8123   -2.3033 C   0  0  0  0  0  0  0  0  0  0  0  0
    3.7280   -0.7591   -0.5523 C   0  0  0  0  0  0  0  0  0  0  0  0
    0.1846    1.5993   -2.6630 C   0  0  0  0  0  0  0  0  0  0  0  0
    1.5547    3.0881   -1.6676 C   0  0  0  0  0  0  0  0  0  0  0  0
    1.4054    1.7001   -2.0434 C   0  0  0  0  0  0  0  0  0  0  0  0
    0.3825    3.7704   -2.0927 C   0  0  0  0  0  0  0  0  0  0  0  0
    2.4257    0.6177   -1.8573 C   0  0  1  0  0  0  0  0  0  0  0  0
   -0.4327    2.8365   -2.7005 N   0  0  0  0  0  0  0  0  0  0  0  0
    2.9286    0.4717   -0.4659 N   0  0  0  0  0  0  0  0  0  0  0  0
    2.3455    0.2607    1.5284 H   0  0  0  0  0  0  0  0  0  0  0  0
    1.1674   -0.4594    0.4077 H   0  0  0  0  0  0  0  0  0  0  0  0
    1.2974    1.3069    0.5595 H   0  0  0  0  0  0  0  0  0  0  0  0
    3.1556    5.7465   -0.2905 H   0  0  0  0  0  0  0  0  0  0  0  0
    1.1026    6.8984   -1.0545 H   0  0  0  0  0  0  0  0  0  0  0  0
    3.6780   -2.2613   -2.1674 H   0  0  0  0  0  0  0  0  0  0  0  0
    2.4245   -2.4983   -0.9554 H   0  0  0  0  0  0  0  0  0  0  0  0
    3.4525    3.3002   -0.6550 H   0  0  0  0  0  0  0  0  0  0  0  0
   -0.7054    5.6480   -2.2142 H   0  0  0  0  0  0  0  0  0  0  0  0
    0.9724   -1.0114   -2.0266 H   0  0  0  0  0  0  0  0  0  0  0  0
    2.0933   -0.9400   -3.3878 H   0  0  0  0  0  0  0  0  0  0  0  0
    4.7081   -0.5047   -0.9762 H   0  0  0  0  0  0  0  0  0  0  0  0
    3.8995   -1.1751    0.4447 H   0  0  0  0  0  0  0  0  0  0  0  0
   -0.2966    0.7393   -3.1071 H   0  0  0  0  0  0  0  0  0  0  0  0
    3.3178    0.8923   -2.4437 H   0  0  0  0  0  0  0  0  0  0  0  0
   -1.3425    3.0202   -3.0929 H   0  0  0  0  0  0  0  0  0  0  0  0
  1 18  1  0  0  0  0
  1 16  1  0  0  0  0
  2 19  1  0  0  0  0
  3 20  1  0  0  0  0
  3  2  2  0  0  0  0
  4 22  1  0  0  0  0
  4  8  1  0  0  0  0
  5  2  1  0  0  0  0
  5 23  1  0  0  0  0
  6  3  1  0  0  0  0
  7 25  1  0  0  0  0
  7 13  1  0  0  0  0
  7  4  1  0  0  0  0
  8 15  1  0  0  0  0
  8 28  1  0  0  0  0
  9 11  2  0  0  0  0
 10  5  2  0  0  0  0
 11 13  1  0  0  0  0
 11 10  1  0  0  0  0
 12  6  2  0  0  0  0
 12 10  1  0  0  0  0
 13 30  1  6  0  0  0
 13 15  1  0  0  0  0
 14  9  1  0  0  0  0
 14 12  1  0  0  0  0
 15  1  1  0  0  0  0
 17  1  1  0  0  0  0
 21  4  1  0  0  0  0
 24  6  1  0  0  0  0
 26  7  1  0  0  0  0
 27  8  1  0  0  0  0
 29  9  1  0  0  0  0
 31 14  1  0  0  0  0
M  END
>  <HBA>
1

>  <HBD>
1

>  <TPSA>
19.03

>  <cid>
23662

>  <dipole>
2.71

>  <excitation_energy_1>
4.629

>  <excitation_energy_2>
4.647

>  <excitation_energy_3>
4.693

>  <excitation_energy_4>
4.849

>  <homo_energy>
-5.317

>  <homo_lumo_gap>
5.295

>  <logP>
2.873

>  <lumo_energy>
-0.022

>  <melting_point>
122.32

>  <molecular_refractivity>
67.19

>  <oscillator_strength_1>
0.0614

>  <oscillator_strength_2>
0.0055

>  <oscillator_strength_3>
0.0007

>  <oscillator_strength_4>
0.0299

>  <open_babel_can_smiles>
CN1CCC[C@H]1c1c[nH]c2c1cccc2

>  <mulliken_charges>
31
1   -0.309819
2   -0.142665
3   -0.149613
4   -0.293575
5   -0.204117
6   -0.165486
7   -0.286504
8   -0.133142
9   -0.005357
10   0.07572
11   0.051181
12   0.314285
13   -0.040008
14   -0.699897
15   -0.382091
16   0.144974
17   0.115721
18   0.168464
19   0.118852
20   0.120243
21   0.137003
22   0.140137
23   0.144898
24   0.117745
25   0.135944
26   0.137987
27   0.140541
28   0.136861
29   0.147892
30   0.138998
31   0.32483

>  <lowdin_charges>
31
1   -0.364657
2   -0.17939
3   -0.162048
4   -0.304866
5   -0.159617
6   -0.190694
7   -0.295709
8   -0.209476
9   -0.138218
10   -0.033736
11   -0.067273
12   0.029852
13   -0.059596
14   -0.200322
15   -0.192736
16   0.147979
17   0.120139
18   0.161188
19   0.155031
20   0.152592
21   0.148387
22   0.147138
23   0.167108
24   0.154056
25   0.140958
26   0.146164
27   0.140947
28   0.145862
29   0.165497
30   0.145926
31   0.289516

$$$$

