PCCDB-ID:  31276
public computational chemistry database (PCCDB) project, http://pccdb.org

 23 22  0  0  0  0  0  0  0  0999 V2000
    3.5213    0.2360   -1.9305 C   0  0  0  0  0  0  0  0  0  0  0  0
    1.2069    1.0654   -1.3484 C   0  0  0  0  0  0  0  0  0  0  0  0
    3.3831   -3.2566    3.5209 C   0  0  0  0  0  0  0  0  0  0  0  0
    2.5093   -0.2423    0.3725 C   0  0  0  0  0  0  0  0  0  0  0  0
    3.8347   -0.4927    1.0872 C   0  0  0  0  0  0  0  0  0  0  0  0
    2.6081    0.7483   -0.8050 C   0  0  0  0  0  0  0  0  0  0  0  0
    3.6145   -2.6026    2.1779 C   0  0  0  0  0  0  0  0  0  0  0  0
    3.7638   -3.1906    1.1287 O   0  0  0  0  0  0  0  0  0  0  0  0
    3.6347   -1.2544    2.3027 O   0  0  0  0  0  0  0  0  0  0  0  0
    3.5469    0.9469   -2.7647 H   0  0  0  0  0  0  0  0  0  0  0  0
    3.1589   -0.7238   -2.3203 H   0  0  0  0  0  0  0  0  0  0  0  0
    4.5535    0.0885   -1.5941 H   0  0  0  0  0  0  0  0  0  0  0  0
    1.2552    1.7978   -2.1627 H   0  0  0  0  0  0  0  0  0  0  0  0
    0.5570    1.4748   -0.5660 H   0  0  0  0  0  0  0  0  0  0  0  0
    0.7260    0.1608   -1.7423 H   0  0  0  0  0  0  0  0  0  0  0  0
    3.4060   -4.3407    3.4061 H   0  0  0  0  0  0  0  0  0  0  0  0
    2.4137   -2.9469    3.9257 H   0  0  0  0  0  0  0  0  0  0  0  0
    4.1502   -2.9388    4.2344 H   0  0  0  0  0  0  0  0  0  0  0  0
    1.7943    0.1449    1.1104 H   0  0  0  0  0  0  0  0  0  0  0  0
    2.1160   -1.2023    0.0141 H   0  0  0  0  0  0  0  0  0  0  0  0
    4.2848    0.4456    1.4251 H   0  0  0  0  0  0  0  0  0  0  0  0
    4.5441   -1.0288    0.4534 H   0  0  0  0  0  0  0  0  0  0  0  0
    3.0379    1.6864   -0.4193 H   0  0  0  0  0  0  0  0  0  0  0  0
  1 12  1  0  0  0  0
  1  6  1  0  0  0  0
  2  6  1  0  0  0  0
  2 14  1  0  0  0  0
  3 17  1  0  0  0  0
  3 18  1  0  0  0  0
  4  5  1  0  0  0  0
  4 19  1  0  0  0  0
  5 21  1  0  0  0  0
  5  9  1  0  0  0  0
  6 23  1  0  0  0  0
  6  4  1  0  0  0  0
  7  9  1  0  0  0  0
  7  3  1  0  0  0  0
  8  7  2  0  0  0  0
 10  1  1  0  0  0  0
 11  1  1  0  0  0  0
 13  2  1  0  0  0  0
 15  2  1  0  0  0  0
 16  3  1  0  0  0  0
 20  4  1  0  0  0  0
 22  5  1  0  0  0  0
M  END
>  <HBA>
2

>  <HBD>
0

>  <TPSA>
26.3

>  <cid>
31276

>  <dipole>
1.75

>  <excitation_energy_1>
5.814

>  <excitation_energy_2>
7.012

>  <excitation_energy_3>
7.352

>  <excitation_energy_4>
7.464

>  <homo_energy>
-7.266

>  <homo_lumo_gap>
7.714

>  <logP>
1.596

>  <lumo_energy>
0.449

>  <melting_point>
-14.79

>  <molecular_refractivity>
37.05

>  <oscillator_strength_1>
0.0011

>  <oscillator_strength_2>
0.0303

>  <oscillator_strength_3>
0.0315

>  <oscillator_strength_4>
0.0742

>  <open_babel_can_smiles>
CC(CCOC(=O)C)C

>  <mulliken_charges>
23
1   -0.446492
2   -0.441473
3   -0.522454
4   -0.272609
5   -0.048984
6   -0.076474
7   0.600102
8   -0.470039
9   -0.456938
10   0.142132
11   0.149104
12   0.14437
13   0.141745
14   0.140953
15   0.143284
16   0.181312
17   0.180781
18   0.180469
19   0.138699
20   0.155354
21   0.146152
22   0.170251
23   0.120755

>  <lowdin_charges>
23
1   -0.44665
2   -0.445101
3   -0.463536
4   -0.28999
5   -0.136042
6   -0.119558
7   0.202776
8   -0.26968
9   -0.20098
10   0.150156
11   0.150899
12   0.147268
13   0.14944
14   0.149144
15   0.148461
16   0.173127
17   0.177148
18   0.177724
19   0.148008
20   0.153542
21   0.149649
22   0.159852
23   0.134345

$$$$

