PCCDB-ID:  11369
public computational chemistry database (PCCDB) project, http://pccdb.org

 26 26  0  0  0  0  0  0  0  0999 V2000
    0.4755   -0.1556    0.0216 C   0  0  0  0  0  0  0  0  0  0  0  0
    3.9572   -5.1332   -2.4402 C   0  0  0  0  0  0  0  0  0  0  0  0
    1.9694   -0.5106    0.1611 C   0  0  0  0  0  0  0  0  0  0  0  0
    3.0275   -4.1877   -3.2245 C   0  0  0  0  0  0  0  0  0  0  0  0
    3.9231   -0.4791   -3.1182 C   0  0  0  0  0  0  0  0  0  0  0  0
    3.3301   -0.0848   -1.9208 C   0  0  0  0  0  0  0  0  0  0  0  0
    3.8014   -1.8062   -3.5246 C   0  0  0  0  0  0  0  0  0  0  0  0
    2.6109   -0.9839   -1.1287 C   0  0  0  0  0  0  0  0  0  0  0  0
    3.0978   -2.7450   -2.7645 C   0  0  0  0  0  0  0  0  0  0  0  0
    2.4887   -2.3257   -1.5583 C   0  0  0  0  0  0  0  0  0  0  0  0
    1.8170   -3.2592   -0.7473 N   0  0  0  0  0  0  0  0  0  0  0  0
    0.0603    0.1826    0.9782 H   0  0  0  0  0  0  0  0  0  0  0  0
   -0.1226   -1.0102   -0.3185 H   0  0  0  0  0  0  0  0  0  0  0  0
    0.3368    0.6448   -0.7133 H   0  0  0  0  0  0  0  0  0  0  0  0
    3.8694   -6.1628   -2.8071 H   0  0  0  0  0  0  0  0  0  0  0  0
    3.7213   -5.1278   -1.3711 H   0  0  0  0  0  0  0  0  0  0  0  0
    5.0012   -4.8204   -2.5499 H   0  0  0  0  0  0  0  0  0  0  0  0
    2.0972   -1.2678    0.9466 H   0  0  0  0  0  0  0  0  0  0  0  0
    2.5049    0.3786    0.5143 H   0  0  0  0  0  0  0  0  0  0  0  0
    1.9938   -4.5645   -3.1657 H   0  0  0  0  0  0  0  0  0  0  0  0
    3.2882   -4.2304   -4.2886 H   0  0  0  0  0  0  0  0  0  0  0  0
    4.4759    0.2347   -3.7221 H   0  0  0  0  0  0  0  0  0  0  0  0
    3.4245    0.9455   -1.5829 H   0  0  0  0  0  0  0  0  0  0  0  0
    4.2619   -2.1311   -4.4554 H   0  0  0  0  0  0  0  0  0  0  0  0
    1.0828   -2.8654   -0.1737 H   0  0  0  0  0  0  0  0  0  0  0  0
    1.4781   -4.0747   -1.2422 H   0  0  0  0  0  0  0  0  0  0  0  0
  1  3  1  0  0  0  0
  1 12  1  0  0  0  0
  2 16  1  0  0  0  0
  3 19  1  0  0  0  0
  3 18  1  0  0  0  0
  4 20  1  0  0  0  0
  4  9  1  0  0  0  0
  4  2  1  0  0  0  0
  5  6  1  0  0  0  0
  6 23  1  0  0  0  0
  6  8  2  0  0  0  0
  7  5  2  0  0  0  0
  7  9  1  0  0  0  0
  8  3  1  0  0  0  0
  9 10  2  0  0  0  0
 10  8  1  0  0  0  0
 10 11  1  0  0  0  0
 11 25  1  0  0  0  0
 13  1  1  0  0  0  0
 14  1  1  0  0  0  0
 15  2  1  0  0  0  0
 17  2  1  0  0  0  0
 21  4  1  0  0  0  0
 22  5  1  0  0  0  0
 24  7  1  0  0  0  0
 26 11  1  0  0  0  0
M  END
>  <HBA>
1

>  <HBD>
1

>  <TPSA>
26.02

>  <cid>
11369

>  <dipole>
1.62

>  <excitation_energy_1>
4.539

>  <excitation_energy_2>
4.846

>  <excitation_energy_3>
5.122

>  <excitation_energy_4>
5.248

>  <homo_energy>
-5.265

>  <homo_lumo_gap>
5.611

>  <logP>
2.975

>  <lumo_energy>
0.346

>  <melting_point>
60.82

>  <molecular_refractivity>
50.39

>  <oscillator_strength_1>
0.0414

>  <oscillator_strength_2>
0.0264

>  <oscillator_strength_3>
0.0079

>  <oscillator_strength_4>
0.0028

>  <open_babel_can_smiles>
CCc1cccc(c1N)CC

>  <mulliken_charges>
26
1   -0.439136
2   -0.439589
3   -0.364382
4   -0.36218
5   -0.125761
6   -0.207312
7   -0.208074
8   0.16948
9   0.169072
10   0.163079
11   -0.801123
12   0.145013
13   0.135761
14   0.155439
15   0.138241
16   0.162933
17   0.152098
18   0.147321
19   0.146822
20   0.126585
21   0.145451
22   0.117067
23   0.114218
24   0.1148
25   0.324015
26   0.32016

>  <lowdin_charges>
26
1   -0.446078
2   -0.442861
3   -0.278419
4   -0.270338
5   -0.186749
6   -0.162393
7   -0.163439
8   -0.039182
9   -0.041198
10   0.040896
11   -0.497519
12   0.14964
13   0.141479
14   0.154846
15   0.145513
16   0.154201
17   0.151651
18   0.148391
19   0.153175
20   0.134597
21   0.149367
22   0.154873
23   0.149634
24   0.150987
25   0.275083
26   0.273843

$$$$

