PCCDB-ID:  6854
public computational chemistry database (PCCDB) project, http://pccdb.org

 22 24  0  0  0  0  0  0  0  0999 V2000
    3.0471    1.1222   -0.0054 C   0  0  0  0  0  0  0  0  0  0  0  0
   -3.0428    1.1385   -0.0021 C   0  0  0  0  0  0  0  0  0  0  0  0
    3.4273   -0.2313    0.0265 C   0  0  0  0  0  0  0  0  0  0  0  0
   -3.4303   -0.2128    0.0299 C   0  0  0  0  0  0  0  0  0  0  0  0
    1.7025    1.4832   -0.0123 C   0  0  0  0  0  0  0  0  0  0  0  0
   -1.6963    1.4923   -0.0104 C   0  0  0  0  0  0  0  0  0  0  0  0
    2.4775   -1.2501    0.0515 C   0  0  0  0  0  0  0  0  0  0  0  0
   -2.4859   -1.2367    0.0538 C   0  0  0  0  0  0  0  0  0  0  0  0
    0.7256    0.4805    0.0131 C   0  0  0  0  0  0  0  0  0  0  0  0
   -0.7248    0.4844    0.0135 C   0  0  0  0  0  0  0  0  0  0  0  0
    1.1304   -0.8810    0.0450 C   0  0  0  0  0  0  0  0  0  0  0  0
   -1.1369   -0.8749    0.0457 C   0  0  0  0  0  0  0  0  0  0  0  0
   -0.0054   -1.6761    0.0644 N   0  0  0  0  0  0  0  0  0  0  0  0
    3.8127    1.8924   -0.0252 H   0  0  0  0  0  0  0  0  0  0  0  0
   -3.8044    1.9129   -0.0210 H   0  0  0  0  0  0  0  0  0  0  0  0
    4.4827   -0.4901    0.0301 H   0  0  0  0  0  0  0  0  0  0  0  0
   -4.4870   -0.4660    0.0346 H   0  0  0  0  0  0  0  0  0  0  0  0
    1.4144    2.5310   -0.0369 H   0  0  0  0  0  0  0  0  0  0  0  0
   -1.4026    2.5386   -0.0351 H   0  0  0  0  0  0  0  0  0  0  0  0
    2.7765   -2.2947    0.0761 H   0  0  0  0  0  0  0  0  0  0  0  0
   -2.7905   -2.2797    0.0786 H   0  0  0  0  0  0  0  0  0  0  0  0
   -0.0081   -2.6838    0.0867 H   0  0  0  0  0  0  0  0  0  0  0  0
  1  3  1  0  0  0  0
  2  4  1  0  0  0  0
  3 16  1  0  0  0  0
  3  7  2  0  0  0  0
  4 17  1  0  0  0  0
  4  8  2  0  0  0  0
  5  1  2  0  0  0  0
  5  9  1  0  0  0  0
  6  2  2  0  0  0  0
  6 10  1  0  0  0  0
  7 20  1  0  0  0  0
  8 21  1  0  0  0  0
  9 10  1  0  0  0  0
  9 11  2  0  0  0  0
 10 12  2  0  0  0  0
 11  7  1  0  0  0  0
 11 13  1  0  0  0  0
 12  8  1  0  0  0  0
 12 13  1  0  0  0  0
 13 22  1  0  0  0  0
 14  1  1  0  0  0  0
 15  2  1  0  0  0  0
 18  5  1  0  0  0  0
 19  6  1  0  0  0  0
M  END
>  <HBA>
0

>  <HBD>
1

>  <TPSA>
15.79

>  <cid>
6854

>  <dipole>
1.66

>  <excitation_energy_1>
4.042

>  <excitation_energy_2>
4.45

>  <excitation_energy_3>
4.873

>  <excitation_energy_4>
5.146

>  <homo_energy>
-5.442

>  <homo_lumo_gap>
4.797

>  <logP>
3.321

>  <lumo_energy>
-0.645

>  <melting_point>
140.26

>  <molecular_refractivity>
55.8

>  <oscillator_strength_1>
0.0315

>  <oscillator_strength_2>
0.1371

>  <oscillator_strength_3>
0.0

>  <oscillator_strength_4>
0.4658

>  <open_babel_can_smiles>
c1ccc2c(c1)[nH]c1c2cccc1

>  <mulliken_charges>
22
1   -0.147424
2   -0.147402
3   -0.140181
4   -0.140183
5   -0.193198
6   -0.193246
7   -0.180618
8   -0.180663
9   0.064685
10   0.064538
11   0.340447
12   0.340547
13   -0.811754
14   0.123299
15   0.123293
16   0.125687
17   0.125691
18   0.129188
19   0.129178
20   0.122923
21   0.122918
22   0.322274

>  <lowdin_charges>
22
1   -0.179327
2   -0.17932
3   -0.152287
4   -0.152253
5   -0.15064
6   -0.150684
7   -0.190832
8   -0.190867
9   -0.034685
10   -0.034675
11   0.046216
12   0.04622
13   -0.214541
14   0.157076
15   0.157073
16   0.155696
17   0.15567
18   0.156728
19   0.156755
20   0.154933
21   0.15496
22   0.288787

$$$$

