PCCDB-ID:  32774
public computational chemistry database (PCCDB) project, http://pccdb.org

 40 40  0  0  0  0  0  0  0  0999 V2000
    3.4005   -0.8477    2.2193 C   0  0  0  0  0  0  0  0  0  0  0  0
    4.4170   -0.7053   -6.0797 C   0  0  0  0  0  0  0  0  0  0  0  0
    2.9812   -2.0795    1.4066 C   0  0  0  0  0  0  0  0  0  0  0  0
    5.0204   -1.4324   -4.8737 C   0  0  0  0  0  0  0  0  0  0  0  0
    4.0203   -2.5474    0.3741 C   0  0  0  0  0  0  0  0  0  0  0  0
    3.9655   -2.1579   -4.0297 C   0  0  0  0  0  0  0  0  0  0  0  0
    8.6086    0.5931    0.9750 C   0  0  0  0  0  0  0  0  0  0  0  0
    8.8564   -0.7817    0.9819 C   0  0  0  0  0  0  0  0  0  0  0  0
    7.6592    1.1219    0.0988 C   0  0  0  0  0  0  0  0  0  0  0  0
    8.1575   -1.6228    0.1173 C   0  0  0  0  0  0  0  0  0  0  0  0
    6.9439    0.2775   -0.7514 C   0  0  0  0  0  0  0  0  0  0  0  0
    4.2547   -1.5434   -0.7672 C   0  0  0  0  0  0  0  0  0  0  0  0
    4.5357   -2.9257   -2.8273 C   0  0  0  0  0  0  0  0  0  0  0  0
    7.1790   -1.1041   -0.7407 C   0  0  0  0  0  0  0  0  0  0  0  0
    6.5241   -2.0460   -1.7220 C   0  0  0  0  0  0  0  0  0  0  0  0
    5.1489   -2.0527   -1.8156 N   0  0  0  0  0  0  0  0  0  0  0  0
    7.2365   -2.7581   -2.4281 O   0  0  0  0  0  0  0  0  0  0  0  0
    2.6491   -0.6073    2.9800 H   0  0  0  0  0  0  0  0  0  0  0  0
    3.5228    0.0409    1.5897 H   0  0  0  0  0  0  0  0  0  0  0  0
    4.3532   -1.0213    2.7341 H   0  0  0  0  0  0  0  0  0  0  0  0
    5.1899   -0.1932   -6.6638 H   0  0  0  0  0  0  0  0  0  0  0  0
    3.6839    0.0483   -5.7647 H   0  0  0  0  0  0  0  0  0  0  0  0
    3.9022   -1.4049   -6.7502 H   0  0  0  0  0  0  0  0  0  0  0  0
    2.0277   -1.8769    0.8973 H   0  0  0  0  0  0  0  0  0  0  0  0
    2.7829   -2.9097    2.0969 H   0  0  0  0  0  0  0  0  0  0  0  0
    5.5566   -0.7123   -4.2426 H   0  0  0  0  0  0  0  0  0  0  0  0
    5.7735   -2.1555   -5.2125 H   0  0  0  0  0  0  0  0  0  0  0  0
    3.6972   -3.5062   -0.0519 H   0  0  0  0  0  0  0  0  0  0  0  0
    4.9800   -2.7366    0.8741 H   0  0  0  0  0  0  0  0  0  0  0  0
    3.4262   -2.8810   -4.6590 H   0  0  0  0  0  0  0  0  0  0  0  0
    3.2107   -1.4355   -3.6839 H   0  0  0  0  0  0  0  0  0  0  0  0
    9.1616    1.2504    1.6406 H   0  0  0  0  0  0  0  0  0  0  0  0
    9.6040   -1.1972    1.6522 H   0  0  0  0  0  0  0  0  0  0  0  0
    7.4785    2.1932    0.0722 H   0  0  0  0  0  0  0  0  0  0  0  0
    8.3702   -2.6872    0.0896 H   0  0  0  0  0  0  0  0  0  0  0  0
    6.2173    0.6960   -1.4431 H   0  0  0  0  0  0  0  0  0  0  0  0
    4.6583   -0.6141   -0.3673 H   0  0  0  0  0  0  0  0  0  0  0  0
    3.3003   -1.2915   -1.2460 H   0  0  0  0  0  0  0  0  0  0  0  0
    5.3036   -3.6285   -3.1565 H   0  0  0  0  0  0  0  0  0  0  0  0
    3.7370   -3.5028   -2.3458 H   0  0  0  0  0  0  0  0  0  0  0  0
  1 20  1  0  0  0  0
  1 18  1  0  0  0  0
  2 22  1  0  0  0  0
  2  4  1  0  0  0  0
  3 25  1  0  0  0  0
  3  1  1  0  0  0  0
  4 26  1  0  0  0  0
  4  6  1  0  0  0  0
  5 29  1  0  0  0  0
  5  3  1  0  0  0  0
  6 31  1  0  0  0  0
  6 13  1  0  0  0  0
  7  8  1  0  0  0  0
  7 32  1  0  0  0  0
  8 33  1  0  0  0  0
  9  7  2  0  0  0  0
 10  8  2  0  0  0  0
 11 14  2  0  0  0  0
 11  9  1  0  0  0  0
 12 37  1  0  0  0  0
 12  5  1  0  0  0  0
 13 40  1  0  0  0  0
 13 16  1  0  0  0  0
 14 10  1  0  0  0  0
 15 14  1  0  0  0  0
 16 15  1  0  0  0  0
 16 12  1  0  0  0  0
 17 15  2  0  0  0  0
 19  1  1  0  0  0  0
 21  2  1  0  0  0  0
 23  2  1  0  0  0  0
 24  3  1  0  0  0  0
 27  4  1  0  0  0  0
 28  5  1  0  0  0  0
 30  6  1  0  0  0  0
 34  9  1  0  0  0  0
 35 10  1  0  0  0  0
 36 11  1  0  0  0  0
 38 12  1  0  0  0  0
 39 13  1  0  0  0  0
M  END
>  <HBA>
2

>  <HBD>
0

>  <TPSA>
20.31

>  <cid>
32774

>  <dipole>
3.48

>  <excitation_energy_1>
4.732

>  <excitation_energy_2>
4.992

>  <excitation_energy_3>
5.125

>  <excitation_energy_4>
5.345

>  <homo_energy>
-6.291

>  <homo_lumo_gap>
5.75

>  <logP>
3.729

>  <lumo_energy>
-0.542

>  <melting_point>
36.2

>  <molecular_refractivity>
73.18

>  <oscillator_strength_1>
0.0356

>  <oscillator_strength_2>
0.0382

>  <oscillator_strength_3>
0.0003

>  <oscillator_strength_4>
0.0004

>  <open_babel_can_smiles>
CCCCN(C(=O)c1ccccc1)CCCC

>  <mulliken_charges>
40
1   -0.446464
2   -0.443289
3   -0.254875
4   -0.246014
5   -0.256414
6   -0.248851
7   -0.12344
8   -0.136067
9   -0.133684
10   -0.151053
11   -0.168484
12   -0.161777
13   -0.160619
14   0.069992
15   0.506032
16   -0.418542
17   -0.51415
18   0.145378
19   0.146497
20   0.149734
21   0.144709
22   0.136738
23   0.140126
24   0.131274
25   0.138687
26   0.13921
27   0.149251
28   0.139893
29   0.142624
30   0.131471
31   0.125431
32   0.132969
33   0.134712
34   0.132941
35   0.149321
36   0.140304
37   0.166297
38   0.145617
39   0.187984
40   0.136534

>  <lowdin_charges>
40
1   -0.44879
2   -0.447918
3   -0.274069
4   -0.276332
5   -0.287535
6   -0.282248
7   -0.153593
8   -0.155142
9   -0.155005
10   -0.139618
11   -0.162212
12   -0.206461
13   -0.205831
14   -0.02958
15   0.157119
16   -0.106624
17   -0.309227
18   0.152506
19   0.147234
20   0.150467
21   0.151976
22   0.144565
23   0.14654
24   0.138997
25   0.147244
26   0.144868
27   0.150347
28   0.145188
29   0.146469
30   0.144923
31   0.136411
32   0.160848
33   0.161138
34   0.1575
35   0.167616
36   0.161619
37   0.161011
38   0.147155
39   0.174121
40   0.144323

$$$$

