PCCDB-ID:  23247
public computational chemistry database (PCCDB) project, http://pccdb.org

 28 30  0  0  1  0  0  0  0  0999 V2000
   -0.6445   -2.3094    0.1901 C   0  0  0  0  0  0  0  0  0  0  0  0
    0.2191   -2.5979   -0.8712 C   0  0  0  0  0  0  0  0  0  0  0  0
   -0.4678   -1.1424    0.9352 C   0  0  0  0  0  0  0  0  0  0  0  0
    1.3334    5.3377   -1.4347 C   0  0  0  0  0  0  0  0  0  0  0  0
    0.2725    4.5096   -1.0432 C   0  0  0  0  0  0  0  0  0  0  0  0
    1.2537   -1.7222   -1.1844 C   0  0  0  0  0  0  0  0  0  0  0  0
    0.5699   -0.2642    0.6218 C   0  0  0  0  0  0  0  0  0  0  0  0
    2.6706    4.9145   -1.3549 C   0  0  0  0  0  0  0  0  0  0  0  0
    0.4922    3.2140   -0.5462 C   0  0  0  0  0  0  0  0  0  0  0  0
    3.9364    2.5907   -0.5409 C   0  0  0  0  0  0  0  0  0  0  0  0
    1.4407   -0.5448   -0.4424 C   0  0  0  0  0  0  0  0  0  0  0  0
    2.8763    3.6326   -0.8672 C   0  0  0  0  0  0  0  0  0  0  0  0
    1.8184    2.8162   -0.4689 C   0  0  0  0  0  0  0  0  0  0  0  0
    2.7546    1.6665   -0.0621 C   0  0  1  0  0  0  0  0  0  0  0  0
    2.5760    0.3574   -0.8270 C   0  0  0  0  0  0  0  0  0  0  0  0
    3.3263    0.0568   -1.7432 O   0  0  0  0  0  0  0  0  0  0  0  0
   -1.4528   -2.9932    0.4354 H   0  0  0  0  0  0  0  0  0  0  0  0
    0.0833   -3.5064   -1.4518 H   0  0  0  0  0  0  0  0  0  0  0  0
   -1.1369   -0.9156    1.7606 H   0  0  0  0  0  0  0  0  0  0  0  0
    1.1116    6.3323   -1.8134 H   0  0  0  0  0  0  0  0  0  0  0  0
   -0.7456    4.8806   -1.1291 H   0  0  0  0  0  0  0  0  0  0  0  0
    1.9355   -1.9243   -2.0039 H   0  0  0  0  0  0  0  0  0  0  0  0
    0.6964    0.6385    1.2111 H   0  0  0  0  0  0  0  0  0  0  0  0
    3.4819    5.5674   -1.6665 H   0  0  0  0  0  0  0  0  0  0  0  0
   -0.3400    2.5791   -0.2545 H   0  0  0  0  0  0  0  0  0  0  0  0
    4.6510    2.8577    0.2455 H   0  0  0  0  0  0  0  0  0  0  0  0
    4.4753    2.1766   -1.3969 H   0  0  0  0  0  0  0  0  0  0  0  0
    2.7654    1.4674    1.0169 H   0  0  0  0  0  0  0  0  0  0  0  0
  1 17  1  0  0  0  0
  1  3  2  0  0  0  0
  2  1  1  0  0  0  0
  3 19  1  0  0  0  0
  4  8  2  0  0  0  0
  4  5  1  0  0  0  0
  5  9  2  0  0  0  0
  6  2  2  0  0  0  0
  6 11  1  0  0  0  0
  7  3  1  0  0  0  0
  7 23  1  0  0  0  0
  8 12  1  0  0  0  0
  9 13  1  0  0  0  0
  9 25  1  0  0  0  0
 10 14  1  0  0  0  0
 10 26  1  0  0  0  0
 11  7  2  0  0  0  0
 12 10  1  0  0  0  0
 12 13  2  0  0  0  0
 13 14  1  0  0  0  0
 14 28  1  1  0  0  0
 15 11  1  0  0  0  0
 15 14  1  0  0  0  0
 16 15  2  0  0  0  0
 18  2  1  0  0  0  0
 20  4  1  0  0  0  0
 21  5  1  0  0  0  0
 22  6  1  0  0  0  0
 24  8  1  0  0  0  0
 27 10  1  0  0  0  0
M  END
>  <HBA>
1

>  <HBD>
0

>  <TPSA>
17.07

>  <cid>
23247

>  <dipole>
2.68

>  <excitation_energy_1>
3.558

>  <excitation_energy_2>
4.374

>  <excitation_energy_3>
4.563

>  <excitation_energy_4>
4.71

>  <homo_energy>
-6.251

>  <homo_lumo_gap>
4.71

>  <logP>
3.209

>  <lumo_energy>
-1.54

>  <melting_point>
96.02

>  <molecular_refractivity>
63.98

>  <oscillator_strength_1>
0.0047

>  <oscillator_strength_2>
0.0005

>  <oscillator_strength_3>
0.0045

>  <oscillator_strength_4>
0.0217

>  <open_babel_can_smiles>
O=C([C@H]1Cc2c1cccc2)c1ccccc1

>  <mulliken_charges>
28
1   -0.11831
2   -0.13221
3   -0.136257
4   -0.13142
5   -0.138187
6   -0.155179
7   -0.182345
8   -0.209244
9   -0.205582
10   -0.351536
11   0.078832
12   0.14244
13   0.145377
14   -0.308797
15   0.414668
16   -0.458852
17   0.138364
18   0.139305
19   0.13696
20   0.128923
21   0.128858
22   0.16519
23   0.142737
24   0.132743
25   0.134064
26   0.149651
27   0.187633
28   0.162174

>  <lowdin_charges>
28
1   -0.139614
2   -0.153878
3   -0.157977
4   -0.152619
5   -0.156478
6   -0.126671
7   -0.1513
8   -0.166007
9   -0.169838
10   -0.274462
11   -0.048148
12   -0.007447
13   -0.017828
14   -0.153419
15   0.160868
16   -0.23845
17   0.162512
18   0.162239
19   0.161581
20   0.156673
21   0.156586
22   0.177853
23   0.164567
24   0.160623
25   0.160789
26   0.15523
27   0.174416
28   0.160199

$$$$

