PCCDB-ID:  17166
public computational chemistry database (PCCDB) project, http://pccdb.org

 26 25  0  0  0  0  0  0  0  0999 V2000
    0.3868    0.5061   -1.3320 C   0  0  0  0  0  0  0  0  0  0  0  0
    1.8368    0.5458   -0.8394 C   0  0  0  0  0  0  0  0  0  0  0  0
    2.7765   -0.3577   -1.6491 C   0  0  0  0  0  0  0  0  0  0  0  0
    4.2282   -0.3190   -1.1511 C   0  0  0  0  0  0  0  0  0  0  0  0
    5.2259   -1.1205   -2.0045 C   0  0  0  0  0  0  0  0  0  0  0  0
    4.9826   -2.6487   -2.0772 C   0  0  0  0  0  0  0  0  0  0  0  0
    5.0775   -3.3387   -0.7516 C   0  0  0  0  0  0  0  0  0  0  0  0
    5.9890   -4.2673   -0.4176 C   0  0  0  0  0  0  0  0  0  0  0  0
    6.0070   -4.8903    0.9220 C   0  0  0  0  0  0  0  0  0  0  0  0
    5.2246   -4.6343    1.8208 O   0  0  0  0  0  0  0  0  0  0  0  0
   -0.2562    1.1633   -0.7357 H   0  0  0  0  0  0  0  0  0  0  0  0
   -0.0259   -0.5084   -1.2700 H   0  0  0  0  0  0  0  0  0  0  0  0
    0.3140    0.8286   -2.3780 H   0  0  0  0  0  0  0  0  0  0  0  0
    1.8726    0.2488    0.2184 H   0  0  0  0  0  0  0  0  0  0  0  0
    2.2090    1.5794   -0.8774 H   0  0  0  0  0  0  0  0  0  0  0  0
    2.7480   -0.0548   -2.7070 H   0  0  0  0  0  0  0  0  0  0  0  0
    2.3918   -1.3871   -1.6178 H   0  0  0  0  0  0  0  0  0  0  0  0
    4.2660   -0.6612   -0.1076 H   0  0  0  0  0  0  0  0  0  0  0  0
    4.5655    0.7268   -1.1325 H   0  0  0  0  0  0  0  0  0  0  0  0
    6.2410   -0.9490   -1.6238 H   0  0  0  0  0  0  0  0  0  0  0  0
    5.2099   -0.7319   -3.0321 H   0  0  0  0  0  0  0  0  0  0  0  0
    5.7036   -3.0898   -2.7763 H   0  0  0  0  0  0  0  0  0  0  0  0
    3.9835   -2.8299   -2.4994 H   0  0  0  0  0  0  0  0  0  0  0  0
    4.3510   -3.0678    0.0146 H   0  0  0  0  0  0  0  0  0  0  0  0
    6.7471   -4.5960   -1.1276 H   0  0  0  0  0  0  0  0  0  0  0  0
    6.8109   -5.6429    1.0777 H   0  0  0  0  0  0  0  0  0  0  0  0
  1 12  1  0  0  0  0
  1  2  1  0  0  0  0
  1 11  1  0  0  0  0
  2 14  1  0  0  0  0
  3 17  1  0  0  0  0
  3  4  1  0  0  0  0
  3  2  1  0  0  0  0
  4 19  1  0  0  0  0
  4 18  1  0  0  0  0
  5 20  1  0  0  0  0
  5  4  1  0  0  0  0
  6  5  1  0  0  0  0
  6  7  1  0  0  0  0
  7  8  2  0  0  0  0
  7 24  1  0  0  0  0
  8  9  1  0  0  0  0
  9 26  1  0  0  0  0
  9 10  2  0  0  0  0
 13  1  1  0  0  0  0
 15  2  1  0  0  0  0
 16  3  1  0  0  0  0
 21  5  1  0  0  0  0
 22  6  1  0  0  0  0
 23  6  1  0  0  0  0
 25  8  1  0  0  0  0
M  END
>  <HBA>
1

>  <HBD>
0

>  <TPSA>
17.07

>  <cid>
17166

>  <dipole>
3.1

>  <excitation_energy_1>
3.531

>  <excitation_energy_2>
5.344

>  <excitation_energy_3>
6.064

>  <excitation_energy_4>
6.227

>  <homo_energy>
-6.748

>  <homo_lumo_gap>
5.17

>  <logP>
2.712

>  <lumo_energy>
-1.578

>  <melting_point>
12.96

>  <molecular_refractivity>
45.1

>  <oscillator_strength_1>
0.0003

>  <oscillator_strength_2>
0.4067

>  <oscillator_strength_3>
0.0004

>  <oscillator_strength_4>
0.0007

>  <open_babel_can_smiles>
CCCCCC/C=C/C=O

>  <mulliken_charges>
26
1   -0.442562
2   -0.248244
3   -0.250069
4   -0.262108
5   -0.260917
6   -0.322219
7   -0.046909
8   -0.183685
9   0.22155
10   -0.410233
11   0.144025
12   0.142666
13   0.141131
14   0.134967
15   0.13149
16   0.127106
17   0.130303
18   0.140215
19   0.134582
20   0.141098
21   0.136696
22   0.144977
23   0.159027
24   0.168972
25   0.129206
26   0.098932

>  <lowdin_charges>
26
1   -0.444036
2   -0.268942
3   -0.275307
4   -0.277285
5   -0.26957
6   -0.278366
7   -0.083149
8   -0.23255
9   0.04657
10   -0.239357
11   0.151934
12   0.146139
13   0.144888
14   0.13966
15   0.138232
16   0.135783
17   0.136428
18   0.141585
19   0.143664
20   0.146118
21   0.143911
22   0.15268
23   0.157701
24   0.171607
25   0.156554
26   0.115109

$$$$

