PCCDB-ID:  68525
public computational chemistry database (PCCDB) project, http://pccdb.org

 21 21  0  0  0  0  0  0  0  0999 V2000
    4.2130    0.2646   -1.0997 C   0  0  0  0  0  0  0  0  0  0  0  0
    4.1385    0.3248    0.2296 C   0  0  0  0  0  0  0  0  0  0  0  0
    8.4218   -0.0423    5.1647 C   0  0  0  0  0  0  0  0  0  0  0  0
    7.7395   -1.0903    4.5493 C   0  0  0  0  0  0  0  0  0  0  0  0
    8.1910    1.2635    4.7203 C   0  0  0  0  0  0  0  0  0  0  0  0
    6.8415   -0.8536    3.5068 C   0  0  0  0  0  0  0  0  0  0  0  0
    7.2939    1.5139    3.6887 C   0  0  0  0  0  0  0  0  0  0  0  0
    5.1539   -0.2701    1.1663 C   0  0  0  0  0  0  0  0  0  0  0  0
    6.5984    0.4589    3.0638 C   0  0  0  0  0  0  0  0  0  0  0  0
    5.6741    0.7568    2.0604 N   0  0  0  0  0  0  0  0  0  0  0  0
    3.4463    0.6984   -1.7358 H   0  0  0  0  0  0  0  0  0  0  0  0
    5.0408   -0.2298   -1.6042 H   0  0  0  0  0  0  0  0  0  0  0  0
    3.3013    0.8326    0.7087 H   0  0  0  0  0  0  0  0  0  0  0  0
    9.1210   -0.2357    5.9728 H   0  0  0  0  0  0  0  0  0  0  0  0
    7.9082   -2.1139    4.8751 H   0  0  0  0  0  0  0  0  0  0  0  0
    8.7134    2.0972    5.1830 H   0  0  0  0  0  0  0  0  0  0  0  0
    6.3360   -1.6925    3.0407 H   0  0  0  0  0  0  0  0  0  0  0  0
    7.1151    2.5353    3.3579 H   0  0  0  0  0  0  0  0  0  0  0  0
    5.9487   -0.7787    0.5931 H   0  0  0  0  0  0  0  0  0  0  0  0
    4.6645   -1.0381    1.7810 H   0  0  0  0  0  0  0  0  0  0  0  0
    5.8610    1.6329    1.5872 H   0  0  0  0  0  0  0  0  0  0  0  0
  1  2  2  0  0  0  0
  2 13  1  0  0  0  0
  2  8  1  0  0  0  0
  3 14  1  0  0  0  0
  4 15  1  0  0  0  0
  4  3  2  0  0  0  0
  5  3  1  0  0  0  0
  5 16  1  0  0  0  0
  6  4  1  0  0  0  0
  7  5  2  0  0  0  0
  8 20  1  0  0  0  0
  8 10  1  0  0  0  0
  9  6  2  0  0  0  0
  9  7  1  0  0  0  0
 10  9  1  0  0  0  0
 11  1  1  0  0  0  0
 12  1  1  0  0  0  0
 17  6  1  0  0  0  0
 18  7  1  0  0  0  0
 19  8  1  0  0  0  0
 21 10  1  0  0  0  0
M  END
>  <HBA>
1

>  <HBD>
1

>  <TPSA>
12.03

>  <cid>
68525

>  <dipole>
1.6

>  <excitation_energy_1>
4.497

>  <excitation_energy_2>
4.612

>  <excitation_energy_3>
4.933

>  <excitation_energy_4>
5.167

>  <homo_energy>
-5.236

>  <homo_lumo_gap>
5.431

>  <logP>
2.357

>  <lumo_energy>
0.196

>  <melting_point>
15.94

>  <molecular_refractivity>
44.89

>  <oscillator_strength_1>
0.0075

>  <oscillator_strength_2>
0.036

>  <oscillator_strength_3>
0.004

>  <oscillator_strength_4>
0.0389

>  <open_babel_can_smiles>
C=CCNc1ccccc1

>  <mulliken_charges>
21
1   -0.334217
2   -0.073322
3   -0.137921
4   -0.138508
5   -0.134036
6   -0.185235
7   -0.18727
8   -0.151142
9   0.358097
10   -0.665779
11   0.147013
12   0.14346
13   0.142738
14   0.119249
15   0.123216
16   0.123602
17   0.121758
18   0.113931
19   0.138834
20   0.161795
21   0.313737

>  <lowdin_charges>
21
1   -0.332298
2   -0.156971
3   -0.188826
4   -0.144938
5   -0.148686
6   -0.213178
7   -0.199499
8   -0.193216
9   0.061795
10   -0.30347
11   0.163517
12   0.158669
13   0.159273
14   0.154446
15   0.153761
16   0.156247
17   0.157132
18   0.14995
19   0.136237
20   0.157021
21   0.273036

$$$$

