PCCDB-ID:  9253
public computational chemistry database (PCCDB) project, http://pccdb.org

 15 15  0  0  0  0  0  0  0  0999 V2000
   -0.7890   -0.9996   -0.1972 C   0  0  0  0  0  0  0  0  0  0  0  0
    0.7342   -1.0797    0.0703 C   0  0  0  0  0  0  0  0  0  0  0  0
   -1.1844    0.4095    0.2748 C   0  0  0  0  0  0  0  0  0  0  0  0
    1.2443    0.3948    0.0693 C   0  0  0  0  0  0  0  0  0  0  0  0
   -0.0026    1.2739   -0.1958 C   0  0  0  0  0  0  0  0  0  0  0  0
   -1.3503   -1.7976    0.3015 H   0  0  0  0  0  0  0  0  0  0  0  0
   -0.9879   -1.0901   -1.2735 H   0  0  0  0  0  0  0  0  0  0  0  0
    1.2455   -1.6975   -0.6757 H   0  0  0  0  0  0  0  0  0  0  0  0
    0.9243   -1.5447    1.0446 H   0  0  0  0  0  0  0  0  0  0  0  0
   -1.2556    0.4336    1.3712 H   0  0  0  0  0  0  0  0  0  0  0  0
   -2.1492    0.7436   -0.1236 H   0  0  0  0  0  0  0  0  0  0  0  0
    2.0264    0.5636   -0.6786 H   0  0  0  0  0  0  0  0  0  0  0  0
    1.6839    0.6434    1.0422 H   0  0  0  0  0  0  0  0  0  0  0  0
    0.0495    2.2467    0.3056 H   0  0  0  0  0  0  0  0  0  0  0  0
   -0.1034    1.4707   -1.2714 H   0  0  0  0  0  0  0  0  0  0  0  0
  1  2  1  0  0  0  0
  1  3  1  0  0  0  0
  1  6  1  0  0  0  0
  2  9  1  0  0  0  0
  3 10  1  0  0  0  0
  4  2  1  0  0  0  0
  4 13  1  0  0  0  0
  5  4  1  0  0  0  0
  5  3  1  0  0  0  0
  5 14  1  0  0  0  0
  7  1  1  0  0  0  0
  8  2  1  0  0  0  0
 11  3  1  0  0  0  0
 12  4  1  0  0  0  0
 15  5  1  0  0  0  0
M  END
>  <HBA>
0

>  <HBD>
0

>  <TPSA>
0.0

>  <cid>
9253

>  <dipole>
0.01

>  <excitation_energy_1>
7.966

>  <excitation_energy_2>
8.2

>  <excitation_energy_3>
8.353

>  <excitation_energy_4>
8.431

>  <homo_energy>
-8.414

>  <homo_lumo_gap>
10.74

>  <logP>
1.95

>  <lumo_energy>
2.327

>  <melting_point>
-3.32

>  <molecular_refractivity>
24.04

>  <oscillator_strength_1>
0.0006

>  <oscillator_strength_2>
0.001

>  <oscillator_strength_3>
0.0007

>  <oscillator_strength_4>
0.0007

>  <open_babel_can_smiles>
C1CCCC1

>  <mulliken_charges>
15
1   -0.264282
2   -0.268542
3   -0.26395
4   -0.268458
5   -0.264304
6   0.131947
7   0.132148
8   0.134293
9   0.135168
10   0.130628
11   0.131758
12   0.134287
13   0.135184
14   0.131948
15   0.132174

>  <lowdin_charges>
15
1   -0.282266
2   -0.28861
3   -0.279273
4   -0.287662
5   -0.280284
6   0.144818
7   0.137594
8   0.145591
9   0.142278
10   0.136309
11   0.143257
12   0.144927
13   0.142347
14   0.143339
15   0.137633

$$$$

