PCCDB-ID:  18309
public computational chemistry database (PCCDB) project, http://pccdb.org

 27 27  0  0  1  0  0  0  0  0999 V2000
    0.8292   -0.1133    0.0936 C   0  0  0  0  0  0  0  0  0  0  0  0
    5.0999    1.3142   -0.6530 C   0  0  0  0  0  0  0  0  0  0  0  0
    4.9142    2.4514    1.5628 C   0  0  0  0  0  0  0  0  0  0  0  0
    4.4426   -1.3720    0.9039 C   0  0  0  0  0  0  0  0  0  0  0  0
    2.9080   -1.3591    0.8620 C   0  0  0  0  0  0  0  0  0  0  0  0
    4.9974   -0.0625    1.4852 C   0  0  0  0  0  0  0  0  0  0  0  0
    2.9411    1.1600    0.6876 C   0  0  0  0  0  0  0  0  0  0  0  0
    2.3625   -0.1401    0.0970 C   0  0  2  0  0  0  0  0  0  0  0  0
    4.4888    1.2087    0.7596 C   0  0  0  0  0  0  0  0  0  0  0  0
    0.4160   -1.0269   -0.3510 H   0  0  0  0  0  0  0  0  0  0  0  0
    0.4457    0.7406   -0.4780 H   0  0  0  0  0  0  0  0  0  0  0  0
    0.4354   -0.0329    1.1153 H   0  0  0  0  0  0  0  0  0  0  0  0
    6.1942    1.3706   -0.5974 H   0  0  0  0  0  0  0  0  0  0  0  0
    4.7455    2.2196   -1.1613 H   0  0  0  0  0  0  0  0  0  0  0  0
    4.8469    0.4604   -1.2895 H   0  0  0  0  0  0  0  0  0  0  0  0
    6.0067    2.5147    1.6444 H   0  0  0  0  0  0  0  0  0  0  0  0
    4.5037    2.4261    2.5798 H   0  0  0  0  0  0  0  0  0  0  0  0
    4.5621    3.3733    1.0827 H   0  0  0  0  0  0  0  0  0  0  0  0
    4.8351   -1.5319   -0.1098 H   0  0  0  0  0  0  0  0  0  0  0  0
    4.7964   -2.2201    1.5044 H   0  0  0  0  0  0  0  0  0  0  0  0
    2.5178   -1.3343    1.8918 H   0  0  0  0  0  0  0  0  0  0  0  0
    2.5305   -2.2859    0.4092 H   0  0  0  0  0  0  0  0  0  0  0  0
    6.0962   -0.0771    1.4745 H   0  0  0  0  0  0  0  0  0  0  0  0
    4.7004    0.0014    2.5430 H   0  0  0  0  0  0  0  0  0  0  0  0
    2.5417    1.2795    1.7071 H   0  0  0  0  0  0  0  0  0  0  0  0
    2.5755    2.0239    0.1135 H   0  0  0  0  0  0  0  0  0  0  0  0
    2.6962   -0.2249   -0.9485 H   0  0  0  0  0  0  0  0  0  0  0  0
  1  8  1  0  0  0  0
  1 12  1  0  0  0  0
  2 13  1  0  0  0  0
  2  9  1  0  0  0  0
  3 16  1  0  0  0  0
  3 17  1  0  0  0  0
  4  6  1  0  0  0  0
  4 20  1  0  0  0  0
  5  4  1  0  0  0  0
  5 21  1  0  0  0  0
  6 24  1  0  0  0  0
  7  9  1  0  0  0  0
  7 25  1  0  0  0  0
  8 27  1  6  0  0  0
  8  7  1  0  0  0  0
  8  5  1  0  0  0  0
  9  6  1  0  0  0  0
  9  3  1  0  0  0  0
 10  1  1  0  0  0  0
 11  1  1  0  0  0  0
 14  2  1  0  0  0  0
 15  2  1  0  0  0  0
 18  3  1  0  0  0  0
 19  4  1  0  0  0  0
 22  5  1  0  0  0  0
 23  6  1  0  0  0  0
 26  7  1  0  0  0  0
M  END
>  <HBA>
0

>  <HBD>
0

>  <TPSA>
0.0

>  <cid>
18309

>  <dipole>
0.11

>  <excitation_energy_1>
7.234

>  <excitation_energy_2>
7.308

>  <excitation_energy_3>
7.599

>  <excitation_energy_4>
7.668

>  <homo_energy>
-7.736

>  <homo_lumo_gap>
9.848

>  <logP>
3.223

>  <lumo_energy>
2.112

>  <melting_point>
12.71

>  <molecular_refractivity>
43.0

>  <oscillator_strength_1>
0.0169

>  <oscillator_strength_2>
0.0494

>  <oscillator_strength_3>
0.0021

>  <oscillator_strength_4>
0.0048

>  <open_babel_can_smiles>
C[C@@H]1CCCC(C1)(C)C

>  <mulliken_charges>
27
1   -0.444852
2   -0.452569
3   -0.445628
4   -0.268242
5   -0.252446
6   -0.256015
7   -0.254203
8   -0.076854
9   0.099773
10   0.138219
11   0.138555
12   0.137553
13   0.136709
14   0.136852
15   0.14428
16   0.135898
17   0.136046
18   0.135929
19   0.130162
20   0.12892
21   0.122003
22   0.12529
23   0.123362
24   0.122377
25   0.118551
26   0.120616
27   0.119713

>  <lowdin_charges>
27
1   -0.443657
2   -0.445714
3   -0.438207
4   -0.279801
5   -0.276807
6   -0.273443
7   -0.277238
8   -0.125687
9   0.009254
10   0.147515
11   0.147972
12   0.143923
13   0.14452
14   0.147107
15   0.147359
16   0.143755
17   0.144251
18   0.145955
19   0.137542
20   0.144301
21   0.134144
22   0.141264
23   0.138003
24   0.135799
25   0.135419
26   0.139467
27   0.133006

$$$$

