PCCDB-ID:  28447
public computational chemistry database (PCCDB) project, http://pccdb.org

 39 39  0  0  0  0  0  0  0  0999 V2000
    1.1322    0.9606    5.3135 C   0  0  0  0  0  0  0  0  0  0  0  0
    4.1067    3.1192    5.8309 C   0  0  0  0  0  0  0  0  0  0  0  0
    2.1449   -5.3247    0.7154 C   0  0  0  0  0  0  0  0  0  0  0  0
   -0.0079   -0.7679    0.2207 C   0  0  0  0  0  0  0  0  0  0  0  0
    1.7166    1.9951    4.3411 C   0  0  0  0  0  0  0  0  0  0  0  0
    4.0990    1.8097    5.0426 C   0  0  0  0  0  0  0  0  0  0  0  0
    3.4985   -3.1860    0.9100 C   0  0  0  0  0  0  0  0  0  0  0  0
    3.5971   -1.7941    0.9076 C   0  0  0  0  0  0  0  0  0  0  0  0
    1.1473   -3.0058    0.4871 C   0  0  0  0  0  0  0  0  0  0  0  0
    3.2985    0.6824    3.0062 C   0  0  0  0  0  0  0  0  0  0  0  0
    2.2697   -3.8183    0.7064 C   0  0  0  0  0  0  0  0  0  0  0  0
    1.2159   -1.6124    0.4734 C   0  0  0  0  0  0  0  0  0  0  0  0
    2.4659   -0.9908    0.7062 C   0  0  0  0  0  0  0  0  0  0  0  0
    2.9332    1.1330    1.5813 C   0  0  0  0  0  0  0  0  0  0  0  0
    2.5500    0.4093    0.6086 N   0  0  0  0  0  0  0  0  0  0  0  0
    3.1260    1.8037    3.9380 N   0  0  0  0  0  0  0  0  0  0  0  0
    3.0551    2.4622    1.4069 O   0  0  0  0  0  0  0  0  0  0  0  0
    0.0784    1.1925    5.5039 H   0  0  0  0  0  0  0  0  0  0  0  0
    1.6507    0.9673    6.2785 H   0  0  0  0  0  0  0  0  0  0  0  0
    1.1771   -0.0575    4.9123 H   0  0  0  0  0  0  0  0  0  0  0  0
    4.9383    3.1150    6.5439 H   0  0  0  0  0  0  0  0  0  0  0  0
    3.1859    3.2670    6.4047 H   0  0  0  0  0  0  0  0  0  0  0  0
    4.2339    3.9754    5.1598 H   0  0  0  0  0  0  0  0  0  0  0  0
    3.1278   -5.8053    0.7587 H   0  0  0  0  0  0  0  0  0  0  0  0
    1.6332   -5.6932   -0.1823 H   0  0  0  0  0  0  0  0  0  0  0  0
    1.5670   -5.6780    1.5798 H   0  0  0  0  0  0  0  0  0  0  0  0
   -0.8444   -1.3793   -0.1326 H   0  0  0  0  0  0  0  0  0  0  0  0
    0.2040    0.0096   -0.5217 H   0  0  0  0  0  0  0  0  0  0  0  0
   -0.3367   -0.2454    1.1292 H   0  0  0  0  0  0  0  0  0  0  0  0
    1.6253    2.9961    4.7757 H   0  0  0  0  0  0  0  0  0  0  0  0
    1.1239    2.0101    3.4194 H   0  0  0  0  0  0  0  0  0  0  0  0
    3.9434    0.9634    5.7337 H   0  0  0  0  0  0  0  0  0  0  0  0
    5.0870    1.6639    4.5913 H   0  0  0  0  0  0  0  0  0  0  0  0
    4.3939   -3.7846    1.0638 H   0  0  0  0  0  0  0  0  0  0  0  0
    4.5666   -1.3174    1.0296 H   0  0  0  0  0  0  0  0  0  0  0  0
    0.1815   -3.4777    0.3104 H   0  0  0  0  0  0  0  0  0  0  0  0
    4.3541    0.3894    3.0143 H   0  0  0  0  0  0  0  0  0  0  0  0
    2.7235   -0.2154    3.2662 H   0  0  0  0  0  0  0  0  0  0  0  0
    3.2565    2.8028    2.3138 H   0  0  0  0  0  0  0  0  0  0  0  0
  1 18  1  0  0  0  0
  1 19  1  0  0  0  0
  2 22  1  0  0  0  0
  2 21  1  0  0  0  0
  3 24  1  0  0  0  0
  3 26  1  0  0  0  0
  4 12  1  0  0  0  0
  4 29  1  0  0  0  0
  5 30  1  0  0  0  0
  5  1  1  0  0  0  0
  6 32  1  0  0  0  0
  6  2  1  0  0  0  0
  7 34  1  0  0  0  0
  8  7  1  0  0  0  0
  8 35  1  0  0  0  0
  9 11  1  0  0  0  0
 10 37  1  0  0  0  0
 10 38  1  0  0  0  0
 10 16  1  0  0  0  0
 11  3  1  0  0  0  0
 11  7  2  0  0  0  0
 12  9  2  0  0  0  0
 12 13  1  0  0  0  0
 13  8  2  0  0  0  0
 14 10  1  0  0  0  0
 15 13  1  0  0  0  0
 15 14  2  0  0  0  0
 16  5  1  0  0  0  0
 16  6  1  0  0  0  0
 17 14  1  0  0  0  0
 17 39  1  0  0  0  0
 20  1  1  0  0  0  0
 23  2  1  0  0  0  0
 25  3  1  0  0  0  0
 27  4  1  0  0  0  0
 28  4  1  0  0  0  0
 31  5  1  0  0  0  0
 33  6  1  0  0  0  0
 36  9  1  0  0  0  0
M  END
>  <HBA>
3

>  <HBD>
1

>  <TPSA>
32.34

>  <cid>
28447

>  <dipole>
5.05

>  <excitation_energy_1>
4.564

>  <excitation_energy_2>
4.713

>  <excitation_energy_3>
4.818

>  <excitation_energy_4>
5.183

>  <homo_energy>
-5.304

>  <homo_lumo_gap>
5.445

>  <logP>
2.657

>  <lumo_energy>
0.142

>  <melting_point>
68.25

>  <molecular_refractivity>
72.81

>  <oscillator_strength_1>
0.1178

>  <oscillator_strength_2>
0.0341

>  <oscillator_strength_3>
0.0313

>  <oscillator_strength_4>
0.0008

>  <open_babel_can_smiles>
CCN(C/C(=N\c1ccc(cc1C)C)/O)CC

>  <mulliken_charges>
39
1   -0.46231
2   -0.460554
3   -0.530527
4   -0.521154
5   -0.14401
6   -0.11327
7   -0.201706
8   -0.153238
9   -0.258016
10   -0.21541
11   0.19172
12   0.16229
13   0.179065
14   0.485629
15   -0.493814
16   -0.447141
17   -0.591004
18   0.155709
19   0.15272
20   0.160305
21   0.154456
22   0.155087
23   0.157365
24   0.150355
25   0.157393
26   0.156016
27   0.142951
28   0.180449
29   0.146518
30   0.154733
31   0.162652
32   0.133203
33   0.147233
34   0.113941
35   0.117031
36   0.109758
37   0.1743
38   0.173174
39   0.4181

>  <lowdin_charges>
39
1   -0.459613
2   -0.452724
3   -0.442691
4   -0.44203
5   -0.207042
6   -0.19856
7   -0.17422
8   -0.189376
9   -0.175202
10   -0.238237
11   -0.013404
12   -0.015308
13   0.03336
14   0.125848
15   -0.184015
16   -0.193603
17   -0.362798
18   0.159171
19   0.151212
20   0.154141
21   0.16016
22   0.152572
23   0.155957
24   0.153861
25   0.157943
26   0.156895
27   0.15169
28   0.171204
29   0.153274
30   0.149758
31   0.155696
32   0.130004
33   0.147959
34   0.151304
35   0.152311
36   0.149024
37   0.166911
38   0.159548
39   0.349021

$$$$

