PCCDB-ID:  41469
public computational chemistry database (PCCDB) project, http://pccdb.org

 17 17  0  0  0  0  0  0  0  0999 V2000
    0.7457    1.3160   -0.1770 C   0  0  0  0  0  0  0  0  0  0  0  0
   -1.5050    0.0670   -0.2235 C   0  0  0  0  0  0  0  0  0  0  0  0
    1.4324   -0.0171    0.1911 C   0  0  0  0  0  0  0  0  0  0  0  0
   -0.7551   -1.2309    0.1475 C   0  0  0  0  0  0  0  0  0  0  0  0
   -0.7318    1.3093    0.2099 C   0  0  0  0  0  0  0  0  0  0  0  0
    1.1839   -1.9172   -1.2309 N   0  0  0  0  0  0  0  0  0  0  0  0
    0.6399   -1.1441   -0.2696 N   0  0  0  0  0  0  0  0  0  0  0  0
   -1.2519    2.2254    0.8141 O   0  0  0  0  0  0  0  0  0  0  0  0
    0.4589   -2.7972   -1.6765 O   0  0  0  0  0  0  0  0  0  0  0  0
    0.8125    1.4555   -1.2651 H   0  0  0  0  0  0  0  0  0  0  0  0
    1.2367    2.1629    0.3099 H   0  0  0  0  0  0  0  0  0  0  0  0
   -2.4996    0.0910    0.2301 H   0  0  0  0  0  0  0  0  0  0  0  0
   -1.6245    0.1022   -1.3155 H   0  0  0  0  0  0  0  0  0  0  0  0
    1.5562   -0.0855    1.2801 H   0  0  0  0  0  0  0  0  0  0  0  0
    2.4178   -0.1057   -0.2729 H   0  0  0  0  0  0  0  0  0  0  0  0
   -1.1807   -2.1037   -0.3502 H   0  0  0  0  0  0  0  0  0  0  0  0
   -0.7883   -1.3933    1.2322 H   0  0  0  0  0  0  0  0  0  0  0  0
  1  3  1  0  0  0  0
  1  5  1  0  0  0  0
  1 11  1  0  0  0  0
  2  4  1  0  0  0  0
  2  5  1  0  0  0  0
  2 12  1  0  0  0  0
  3 14  1  0  0  0  0
  4 17  1  0  0  0  0
  5  8  2  0  0  0  0
  6  7  1  0  0  0  0
  7  4  1  0  0  0  0
  7  3  1  0  0  0  0
  9  6  2  0  0  0  0
 10  1  1  0  0  0  0
 13  2  1  0  0  0  0
 15  3  1  0  0  0  0
 16  4  1  0  0  0  0
M  END
>  <HBA>
4

>  <HBD>
0

>  <TPSA>
49.74

>  <cid>
41469

>  <dipole>
1.36

>  <excitation_energy_1>
3.364

>  <excitation_energy_2>
4.19

>  <excitation_energy_3>
4.808

>  <excitation_energy_4>
5.08

>  <homo_energy>
-6.419

>  <homo_lumo_gap>
5.151

>  <logP>
0.271

>  <lumo_energy>
-1.268

>  <melting_point>
39.76

>  <molecular_refractivity>
35.78

>  <oscillator_strength_1>
0.0011

>  <oscillator_strength_2>
0.0001

>  <oscillator_strength_3>
0.0004

>  <oscillator_strength_4>
0.0002

>  <open_babel_can_smiles>
O=NN1CCC(=O)CC1

>  <mulliken_charges>
17
1   -0.349556
2   -0.348966
3   -0.152089
4   -0.174753
5   0.444728
6   0.156742
7   -0.220814
8   -0.431877
9   -0.367632
10   0.176324
11   0.176711
12   0.177943
13   0.179005
14   0.168328
15   0.187563
16   0.206365
17   0.171979

>  <lowdin_charges>
17
1   -0.314553
2   -0.308056
3   -0.19587
4   -0.215781
5   0.155142
6   0.058561
7   -0.051339
8   -0.220859
9   -0.260618
10   0.169698
11   0.173552
12   0.172669
13   0.171034
14   0.152265
15   0.173401
16   0.183751
17   0.157001

$$$$

