PCCDB-ID:  70940
public computational chemistry database (PCCDB) project, http://pccdb.org

 23 23  0  0  0  0  0  0  0  0999 V2000
    0.9894    0.0236   -0.1633 C   0  0  0  0  0  0  0  0  0  0  0  0
    5.4497    0.9287    0.4189 C   0  0  0  0  0  0  0  0  0  0  0  0
    5.3240   -0.5204   -0.0811 C   0  0  0  0  0  0  0  0  0  0  0  0
    4.1783    1.7830    0.3071 C   0  0  0  0  0  0  0  0  0  0  0  0
    4.3932   -1.3767    0.7969 C   0  0  0  0  0  0  0  0  0  0  0  0
    2.8953    1.1540    0.8738 C   0  0  0  0  0  0  0  0  0  0  0  0
    2.8954   -1.2910    0.4601 C   0  0  0  0  0  0  0  0  0  0  0  0
    2.4274    0.0319    0.0516 N   0  0  0  0  0  0  0  0  0  0  0  0
    0.6653    0.9831   -0.5800 H   0  0  0  0  0  0  0  0  0  0  0  0
    0.4012   -0.1690    0.7570 H   0  0  0  0  0  0  0  0  0  0  0  0
    0.7323   -0.7594   -0.8868 H   0  0  0  0  0  0  0  0  0  0  0  0
    6.2557    1.4339   -0.1304 H   0  0  0  0  0  0  0  0  0  0  0  0
    5.7731    0.8994    1.4705 H   0  0  0  0  0  0  0  0  0  0  0  0
    6.3253   -0.9709   -0.0751 H   0  0  0  0  0  0  0  0  0  0  0  0
    4.9800   -0.5345   -1.1235 H   0  0  0  0  0  0  0  0  0  0  0  0
    3.9826    2.0123   -0.7484 H   0  0  0  0  0  0  0  0  0  0  0  0
    4.3550    2.7425    0.8143 H   0  0  0  0  0  0  0  0  0  0  0  0
    4.5553   -1.0994    1.8473 H   0  0  0  0  0  0  0  0  0  0  0  0
    4.6771   -2.4345    0.7261 H   0  0  0  0  0  0  0  0  0  0  0  0
    2.1134    1.9220    0.8694 H   0  0  0  0  0  0  0  0  0  0  0  0
    3.0307    0.8688    1.9332 H   0  0  0  0  0  0  0  0  0  0  0  0
    2.3219   -1.6758    1.3299 H   0  0  0  0  0  0  0  0  0  0  0  0
    2.6765   -1.9723   -0.3741 H   0  0  0  0  0  0  0  0  0  0  0  0
  1  8  1  0  0  0  0
  1 10  1  0  0  0  0
  2 13  1  0  0  0  0
  3 14  1  0  0  0  0
  3  2  1  0  0  0  0
  3  5  1  0  0  0  0
  4  2  1  0  0  0  0
  4 17  1  0  0  0  0
  4  6  1  0  0  0  0
  5 18  1  0  0  0  0
  6 21  1  0  0  0  0
  7  5  1  0  0  0  0
  7 22  1  0  0  0  0
  8  7  1  0  0  0  0
  8  6  1  0  0  0  0
  9  1  1  0  0  0  0
 11  1  1  0  0  0  0
 12  2  1  0  0  0  0
 15  3  1  0  0  0  0
 16  4  1  0  0  0  0
 19  5  1  0  0  0  0
 20  6  1  0  0  0  0
 23  7  1  0  0  0  0
M  END
>  <HBA>
1

>  <HBD>
0

>  <TPSA>
3.24

>  <cid>
70940

>  <dipole>
0.43

>  <excitation_energy_1>
5.019

>  <excitation_energy_2>
5.397

>  <excitation_energy_3>
5.42

>  <excitation_energy_4>
5.558

>  <homo_energy>
-5.391

>  <homo_lumo_gap>
7.638

>  <logP>
1.43

>  <lumo_energy>
2.248

>  <melting_point>
-2.01

>  <molecular_refractivity>
40.46

>  <oscillator_strength_1>
0.0257

>  <oscillator_strength_2>
0.0123

>  <oscillator_strength_3>
0.0273

>  <oscillator_strength_4>
0.0453

>  <open_babel_can_smiles>
CN1CCCCCC1

>  <mulliken_charges>
23
1   -0.294799
2   -0.260707
3   -0.245289
4   -0.235655
5   -0.286427
6   -0.134707
7   -0.104998
8   -0.373658
9   0.146245
10   0.115174
11   0.144842
12   0.127982
13   0.123966
14   0.125657
15   0.141941
16   0.136511
17   0.119844
18   0.133596
19   0.134649
20   0.131848
21   0.117864
22   0.103593
23   0.13253

>  <lowdin_charges>
23
1   -0.355575
2   -0.276528
3   -0.276055
4   -0.279864
5   -0.284306
6   -0.200611
7   -0.200454
8   -0.193905
9   0.147511
10   0.118309
11   0.148103
12   0.143365
13   0.133133
14   0.141234
15   0.145329
16   0.142823
17   0.139039
18   0.137522
19   0.147127
20   0.146645
21   0.123016
22   0.114958
23   0.139184

$$$$

