PCCDB-ID:  24278
public computational chemistry database (PCCDB) project, http://pccdb.org

 30 31  0  0  1  0  0  0  0  0999 V2000
    0.9777    0.4210   -0.6060 C   0  0  0  0  0  0  0  0  0  0  0  0
    2.7872   -2.5033   -0.8750 C   0  0  0  0  0  0  0  0  0  0  0  0
    4.6349    2.7257   -1.0803 C   0  0  0  0  0  0  0  0  0  0  0  0
    6.4391   -0.2008   -1.3531 C   0  0  0  0  0  0  0  0  0  0  0  0
    3.2219    1.4612    1.8142 C   0  0  0  0  0  0  0  0  0  0  0  0
    4.9175   -1.2778    1.5659 C   0  0  0  0  0  0  0  0  0  0  0  0
    2.3427   -0.0141   -0.1839 C   0  0  0  0  0  0  0  0  0  0  0  0
    3.0480   -1.1549   -0.2879 C   0  0  0  0  0  0  0  0  0  0  0  0
    4.5337    1.3667   -0.4689 C   0  0  0  0  0  0  0  0  0  0  0  0
    5.2387    0.2258   -0.5736 C   0  0  0  0  0  0  0  0  0  0  0  0
    3.4850    0.7701    0.4863 C   0  0  1  0  0  0  0  0  0  0  0  0
    4.3136   -0.5702    0.3642 C   0  0  2  0  0  0  0  0  0  0  0  0
    0.4103   -0.4030   -1.0540 H   0  0  0  0  0  0  0  0  0  0  0  0
    1.0284    1.2332   -1.3452 H   0  0  0  0  0  0  0  0  0  0  0  0
    0.3955    0.8050    0.2431 H   0  0  0  0  0  0  0  0  0  0  0  0
    1.7624   -2.5887   -1.2547 H   0  0  0  0  0  0  0  0  0  0  0  0
    2.9376   -3.3019   -0.1357 H   0  0  0  0  0  0  0  0  0  0  0  0
    3.4718   -2.7140   -1.7090 H   0  0  0  0  0  0  0  0  0  0  0  0
    5.5220    2.8182   -1.7175 H   0  0  0  0  0  0  0  0  0  0  0  0
    4.6910    3.5103   -0.3132 H   0  0  0  0  0  0  0  0  0  0  0  0
    3.7541    2.9524   -1.6978 H   0  0  0  0  0  0  0  0  0  0  0  0
    6.8665    0.6307   -1.9254 H   0  0  0  0  0  0  0  0  0  0  0  0
    6.1887   -1.0022   -2.0628 H   0  0  0  0  0  0  0  0  0  0  0  0
    7.2276   -0.5961   -0.6982 H   0  0  0  0  0  0  0  0  0  0  0  0
    2.6318    2.3766    1.6722 H   0  0  0  0  0  0  0  0  0  0  0  0
    4.1587    1.7479    2.3073 H   0  0  0  0  0  0  0  0  0  0  0  0
    2.6603    0.8122    2.4971 H   0  0  0  0  0  0  0  0  0  0  0  0
    5.4625   -2.1808    1.2598 H   0  0  0  0  0  0  0  0  0  0  0  0
    4.1423   -1.5880    2.2771 H   0  0  0  0  0  0  0  0  0  0  0  0
    5.6271   -0.6294    2.0942 H   0  0  0  0  0  0  0  0  0  0  0  0
  1  7  1  0  0  0  0
  1 15  1  0  0  0  0
  2  8  1  0  0  0  0
  2 17  1  0  0  0  0
  3  9  1  0  0  0  0
  3 20  1  0  0  0  0
  4 24  1  0  0  0  0
  4 10  1  0  0  0  0
  5 26  1  0  0  0  0
  5 27  1  0  0  0  0
  6 30  1  0  0  0  0
  6 29  1  0  0  0  0
  7 11  1  0  0  0  0
  8  7  2  0  0  0  0
  8 12  1  0  0  0  0
  9 11  1  0  0  0  0
 10  9  2  0  0  0  0
 10 12  1  0  0  0  0
 11  5  1  1  0  0  0
 12 11  1  0  0  0  0
 12  6  1  1  0  0  0
 13  1  1  0  0  0  0
 14  1  1  0  0  0  0
 16  2  1  0  0  0  0
 18  2  1  0  0  0  0
 19  3  1  0  0  0  0
 21  3  1  0  0  0  0
 22  4  1  0  0  0  0
 23  4  1  0  0  0  0
 25  5  1  0  0  0  0
 28  6  1  0  0  0  0
M  END
>  <HBA>
0

>  <HBD>
0

>  <TPSA>
0.0

>  <cid>
24278

>  <dipole>
0.28

>  <excitation_energy_1>
5.046

>  <excitation_energy_2>
5.131

>  <excitation_energy_3>
5.451

>  <excitation_energy_4>
5.46

>  <homo_energy>
-5.538

>  <homo_lumo_gap>
6.049

>  <logP>
3.699

>  <lumo_energy>
0.512

>  <melting_point>
85.24

>  <molecular_refractivity>
54.1

>  <oscillator_strength_1>
0.0003

>  <oscillator_strength_2>
0.0

>  <oscillator_strength_3>
0.0003

>  <oscillator_strength_4>
0.0271

>  <open_babel_can_smiles>
CC1=C(C)[C@@]2([C@@]1(C)C(=C2C)C)C

>  <mulliken_charges>
30
1   -0.537324
2   -0.537084
3   -0.537317
4   -0.53735
5   -0.475107
6   -0.47533
7   0.118395
8   0.11838
9   0.118998
10   0.118404
11   -0.040779
12   -0.040711
13   0.152185
14   0.154351
15   0.154251
16   0.152124
17   0.154147
18   0.154368
19   0.152136
20   0.154242
21   0.154327
22   0.152175
23   0.154356
24   0.154162
25   0.141167
26   0.145304
27   0.145376
28   0.141222
29   0.145416
30   0.145515

>  <lowdin_charges>
30
1   -0.449006
2   -0.447198
3   -0.448146
4   -0.449203
5   -0.445092
6   -0.445825
7   -0.031329
8   -0.031329
9   -0.031413
10   -0.031354
11   0.009349
12   0.008689
13   0.157189
14   0.15711
15   0.157635
16   0.155314
17   0.157346
18   0.157263
19   0.156486
20   0.157359
21   0.15711
22   0.157167
23   0.157346
24   0.15774
25   0.1499
26   0.150929
27   0.152071
28   0.150117
29   0.15166
30   0.152117

$$$$

