PCCDB-ID:  8557
public computational chemistry database (PCCDB) project, http://pccdb.org

 28 30  0  0  0  0  0  0  0  0999 V2000
    3.7031    0.7261   -0.0521 C   0  0  0  0  0  0  0  0  0  0  0  0
   -3.6817   -0.6695    0.0518 C   0  0  0  0  0  0  0  0  0  0  0  0
    2.5040    1.4186   -0.0224 C   0  0  0  0  0  0  0  0  0  0  0  0
   -2.4826   -1.3620    0.0225 C   0  0  0  0  0  0  0  0  0  0  0  0
    2.4863   -1.3693   -0.0642 C   0  0  0  0  0  0  0  0  0  0  0  0
   -2.4649    1.4259    0.0649 C   0  0  0  0  0  0  0  0  0  0  0  0
    3.7141   -0.6856   -0.0739 C   0  0  0  0  0  0  0  0  0  0  0  0
   -3.6927    0.7422    0.0739 C   0  0  0  0  0  0  0  0  0  0  0  0
    1.2766    0.7395   -0.0124 C   0  0  0  0  0  0  0  0  0  0  0  0
   -1.2551   -0.6829    0.0133 C   0  0  0  0  0  0  0  0  0  0  0  0
    1.2838   -0.6712   -0.0334 C   0  0  0  0  0  0  0  0  0  0  0  0
   -1.2623    0.7278    0.0345 C   0  0  0  0  0  0  0  0  0  0  0  0
    0.0159    1.5093    0.0202 C   0  0  0  0  0  0  0  0  0  0  0  0
    0.0056   -1.4526   -0.0186 C   0  0  0  0  0  0  0  0  0  0  0  0
    4.9081   -1.3808   -0.1545 N   0  0  0  0  0  0  0  0  0  0  0  0
   -4.8867    1.4375    0.1544 N   0  0  0  0  0  0  0  0  0  0  0  0
    0.0035    2.7388    0.0341 O   0  0  0  0  0  0  0  0  0  0  0  0
    0.0180   -2.6822   -0.0316 O   0  0  0  0  0  0  0  0  0  0  0  0
    4.6462    1.2679   -0.0619 H   0  0  0  0  0  0  0  0  0  0  0  0
   -4.6248   -1.2113    0.0610 H   0  0  0  0  0  0  0  0  0  0  0  0
    2.4893    2.5037   -0.0043 H   0  0  0  0  0  0  0  0  0  0  0  0
   -2.4678   -2.4470    0.0042 H   0  0  0  0  0  0  0  0  0  0  0  0
    2.4504   -2.4548   -0.0810 H   0  0  0  0  0  0  0  0  0  0  0  0
   -2.4290    2.5114    0.0819 H   0  0  0  0  0  0  0  0  0  0  0  0
    5.7398   -0.8969    0.1561 H   0  0  0  0  0  0  0  0  0  0  0  0
    4.8849   -2.3534    0.1212 H   0  0  0  0  0  0  0  0  0  0  0  0
   -5.7182    0.9539   -0.1574 H   0  0  0  0  0  0  0  0  0  0  0  0
   -4.8632    2.4102   -0.1207 H   0  0  0  0  0  0  0  0  0  0  0  0
  1  3  2  0  0  0  0
  2 20  1  0  0  0  0
  2  8  2  0  0  0  0
  3  9  1  0  0  0  0
  3 21  1  0  0  0  0
  4  2  1  0  0  0  0
  5 11  1  0  0  0  0
  6  8  1  0  0  0  0
  6 24  1  0  0  0  0
  7  5  2  0  0  0  0
  7  1  1  0  0  0  0
  8 16  1  0  0  0  0
  9 13  1  0  0  0  0
 10  4  2  0  0  0  0
 10 12  1  0  0  0  0
 11 14  1  0  0  0  0
 11  9  2  0  0  0  0
 12  6  2  0  0  0  0
 13 17  2  0  0  0  0
 13 12  1  0  0  0  0
 14 10  1  0  0  0  0
 15  7  1  0  0  0  0
 15 26  1  0  0  0  0
 15 25  1  0  0  0  0
 18 14  2  0  0  0  0
 19  1  1  0  0  0  0
 22  4  1  0  0  0  0
 23  5  1  0  0  0  0
 27 16  1  0  0  0  0
 28 16  1  0  0  0  0
M  END
>  <HBA>
4

>  <HBD>
2

>  <TPSA>
86.18

>  <cid>
8557

>  <dipole>
0.0

>  <excitation_energy_1>
2.862

>  <excitation_energy_2>
3.05

>  <excitation_energy_3>
3.295

>  <excitation_energy_4>
3.314

>  <homo_energy>
-5.731

>  <homo_lumo_gap>
3.478

>  <logP>
2.789

>  <lumo_energy>
-2.253

>  <melting_point>
223.2

>  <molecular_refractivity>
68.56

>  <oscillator_strength_1>
0.0

>  <oscillator_strength_2>
0.0

>  <oscillator_strength_3>
0.0507

>  <oscillator_strength_4>
0.1364

>  <open_babel_can_smiles>
Nc1ccc2c(c1)C(=O)c1c(C2=O)cc(cc1)N

>  <mulliken_charges>
28
1   -0.170412
2   -0.170384
3   -0.180366
4   -0.180372
5   -0.239823
6   -0.23981
7   0.346685
8   0.346634
9   0.03992
10   0.03997
11   0.050395
12   0.050344
13   0.338704
14   0.33866
15   -0.794682
16   -0.794647
17   -0.498024
18   -0.498017
19   0.127523
20   0.127525
21   0.162413
22   0.162413
23   0.153904
24   0.153901
25   0.329697
26   0.334087
27   0.329689
28   0.334076

>  <lowdin_charges>
28
1   -0.188828
2   -0.188814
3   -0.114134
4   -0.114137
5   -0.174657
6   -0.17466
7   0.07612
8   0.076111
9   -0.067675
10   -0.067669
11   -0.02157
12   -0.021571
13   0.147789
14   0.147789
15   -0.467941
16   -0.467941
17   -0.260347
18   -0.260342
19   0.157892
20   0.157895
21   0.17532
22   0.17532
23   0.171781
24   0.171778
25   0.282884
26   0.28337
27   0.282885
28   0.283355

$$$$

