PCCDB-ID:  68288
public computational chemistry database (PCCDB) project, http://pccdb.org

 16 17  0  0  0  0  0  0  0  0999 V2000
   -2.1263    0.6685   -0.0438 C   0  0  0  0  0  0  0  0  0  0  0  0
   -0.9159    1.3400   -0.0088 C   0  0  0  0  0  0  0  0  0  0  0  0
   -0.9958   -1.4888   -0.0598 C   0  0  0  0  0  0  0  0  0  0  0  0
    2.4492    0.2214    0.0391 C   0  0  0  0  0  0  0  0  0  0  0  0
   -2.1843   -0.7465   -0.0697 C   0  0  0  0  0  0  0  0  0  0  0  0
    0.2819    0.6103    0.0005 C   0  0  0  0  0  0  0  0  0  0  0  0
    0.2183   -0.8038   -0.0267 C   0  0  0  0  0  0  0  0  0  0  0  0
   -3.4216   -1.3890   -0.1636 N   0  0  0  0  0  0  0  0  0  0  0  0
    1.5586    1.1539    0.0377 N   0  0  0  0  0  0  0  0  0  0  0  0
    1.8497   -1.4483   -0.0045 S   0  0  0  0  0  0  0  0  0  0  0  0
   -3.0563    1.2318   -0.0574 H   0  0  0  0  0  0  0  0  0  0  0  0
   -0.8777    2.4246    0.0134 H   0  0  0  0  0  0  0  0  0  0  0  0
   -1.0298   -2.5746   -0.0839 H   0  0  0  0  0  0  0  0  0  0  0  0
    3.5182    0.4016    0.0643 H   0  0  0  0  0  0  0  0  0  0  0  0
   -4.2052   -0.8603    0.1991 H   0  0  0  0  0  0  0  0  0  0  0  0
   -3.4354   -2.3450    0.1692 H   0  0  0  0  0  0  0  0  0  0  0  0
  1  2  2  0  0  0  0
  2  6  1  0  0  0  0
  2 12  1  0  0  0  0
  3  7  1  0  0  0  0
  4 14  1  0  0  0  0
  5  3  2  0  0  0  0
  5  1  1  0  0  0  0
  6  9  1  0  0  0  0
  7 10  1  0  0  0  0
  7  6  2  0  0  0  0
  8  5  1  0  0  0  0
  8 16  1  0  0  0  0
  8 15  1  0  0  0  0
  9  4  2  0  0  0  0
 10  4  1  0  0  0  0
 11  1  1  0  0  0  0
 13  3  1  0  0  0  0
M  END
>  <HBA>
3

>  <HBD>
1

>  <TPSA>
67.15

>  <cid>
68288

>  <dipole>
2.9

>  <excitation_energy_1>
4.431

>  <excitation_energy_2>
4.496

>  <excitation_energy_3>
4.636

>  <excitation_energy_4>
4.852

>  <homo_energy>
-5.497

>  <homo_lumo_gap>
4.874

>  <logP>
2.46

>  <lumo_energy>
-0.623

>  <melting_point>
112.54

>  <molecular_refractivity>
44.02

>  <oscillator_strength_1>
0.1031

>  <oscillator_strength_2>
0.1238

>  <oscillator_strength_3>
0.0017

>  <oscillator_strength_4>
0.0012

>  <open_babel_can_smiles>
Nc1ccc2c(c1)scn2

>  <mulliken_charges>
16
1   -0.189434
2   -0.147444
3   -0.2269
4   -0.124027
5   0.329169
6   0.261236
7   -0.13206
8   -0.788164
9   -0.411574
10   0.202672
11   0.12386
12   0.145624
13   0.132078
14   0.179386
15   0.32308
16   0.322499

>  <lowdin_charges>
16
1   -0.197777
2   -0.137952
3   -0.207822
4   -0.219799
5   0.065137
6   -0.006922
7   -0.137213
8   -0.484501
9   -0.144169
10   0.252817
11   0.156863
12   0.168953
13   0.158838
14   0.179184
15   0.278467
16   0.275893

$$$$

