PCCDB-ID:  7224
public computational chemistry database (PCCDB) project, http://pccdb.org

 19 20  0  0  0  0  0  0  0  0999 V2000
    1.3019    0.0214    0.2294 C   0  0  0  0  0  0  0  0  0  0  0  0
    7.1503   -0.7375   -1.3464 C   0  0  0  0  0  0  0  0  0  0  0  0
    7.1149    0.6715   -1.3376 C   0  0  0  0  0  0  0  0  0  0  0  0
    6.0199   -1.4861   -1.0406 C   0  0  0  0  0  0  0  0  0  0  0  0
    5.9478    1.3600   -1.0224 C   0  0  0  0  0  0  0  0  0  0  0  0
    3.4990   -1.2446   -0.3611 C   0  0  0  0  0  0  0  0  0  0  0  0
    2.7386   -0.1201   -0.1571 C   0  0  0  0  0  0  0  0  0  0  0  0
    4.8250   -0.8210   -0.7168 C   0  0  0  0  0  0  0  0  0  0  0  0
    4.8144    0.6023   -0.7146 C   0  0  0  0  0  0  0  0  0  0  0  0
    3.5354    0.9967   -0.3716 N   0  0  0  0  0  0  0  0  0  0  0  0
    0.8464   -0.9650    0.3496 H   0  0  0  0  0  0  0  0  0  0  0  0
    0.7251    0.5667   -0.5298 H   0  0  0  0  0  0  0  0  0  0  0  0
    1.1848    0.5615    1.1788 H   0  0  0  0  0  0  0  0  0  0  0  0
    8.0784   -1.2439   -1.5975 H   0  0  0  0  0  0  0  0  0  0  0  0
    8.0140    1.2307   -1.5820 H   0  0  0  0  0  0  0  0  0  0  0  0
    6.0581   -2.5726   -1.0507 H   0  0  0  0  0  0  0  0  0  0  0  0
    5.9208    2.4468   -1.0174 H   0  0  0  0  0  0  0  0  0  0  0  0
    3.1471   -2.2633   -0.2654 H   0  0  0  0  0  0  0  0  0  0  0  0
    3.2226    1.9519   -0.2900 H   0  0  0  0  0  0  0  0  0  0  0  0
  1 11  1  0  0  0  0
  1 13  1  0  0  0  0
  2  3  2  0  0  0  0
  2  4  1  0  0  0  0
  3  5  1  0  0  0  0
  4  8  2  0  0  0  0
  5 17  1  0  0  0  0
  5  9  2  0  0  0  0
  6 18  1  0  0  0  0
  6  7  2  0  0  0  0
  7  1  1  0  0  0  0
  8  9  1  0  0  0  0
  8  6  1  0  0  0  0
  9 10  1  0  0  0  0
 10 19  1  0  0  0  0
 10  7  1  0  0  0  0
 12  1  1  0  0  0  0
 14  2  1  0  0  0  0
 15  3  1  0  0  0  0
 16  4  1  0  0  0  0
M  END
>  <HBA>
0

>  <HBD>
1

>  <TPSA>
15.79

>  <cid>
7224

>  <dipole>
2.52

>  <excitation_energy_1>
4.697

>  <excitation_energy_2>
4.732

>  <excitation_energy_3>
4.837

>  <excitation_energy_4>
5.148

>  <homo_energy>
-5.268

>  <homo_lumo_gap>
5.279

>  <logP>
2.476

>  <lumo_energy>
0.011

>  <melting_point>
99.76

>  <molecular_refractivity>
43.26

>  <oscillator_strength_1>
0.0001

>  <oscillator_strength_2>
0.1202

>  <oscillator_strength_3>
0.0234

>  <oscillator_strength_4>
0.0001

>  <open_babel_can_smiles>
Cc1cc2c([nH]1)cccc2

>  <mulliken_charges>
19
1   -0.534934
2   -0.138652
3   -0.152005
4   -0.209205
5   -0.170427
6   -0.272276
7   0.355266
8   0.119761
9   0.321405
10   -0.732134
11   0.173277
12   0.161965
13   0.162155
14   0.117191
15   0.119282
16   0.121527
17   0.116891
18   0.121383
19   0.319529

>  <lowdin_charges>
19
1   -0.445191
2   -0.178138
3   -0.168416
4   -0.160975
5   -0.187736
6   -0.239796
7   0.034929
8   -0.025603
9   0.030841
10   -0.208615
11   0.170465
12   0.16114
13   0.159871
14   0.15339
15   0.154535
16   0.152679
17   0.15116
18   0.159134
19   0.286326

$$$$

