PCCDB-ID:  11950
public computational chemistry database (PCCDB) project, http://pccdb.org

 21 21  0  0  0  0  0  0  0  0999 V2000
    0.8771   -0.1720   -1.1216 C   0  0  0  0  0  0  0  0  0  0  0  0
    2.3310    0.2525   -1.2279 C   0  0  0  0  0  0  0  0  0  0  0  0
    7.2368   -0.7719   -2.0367 C   0  0  0  0  0  0  0  0  0  0  0  0
    6.5383    0.4017   -1.7416 C   0  0  0  0  0  0  0  0  0  0  0  0
    6.5327   -1.9650   -2.1501 C   0  0  0  0  0  0  0  0  0  0  0  0
    5.1545    0.3921   -1.5611 C   0  0  0  0  0  0  0  0  0  0  0  0
    4.4404   -3.3038   -2.1031 C   0  0  0  0  0  0  0  0  0  0  0  0
    5.1432   -2.0077   -1.9735 C   0  0  0  0  0  0  0  0  0  0  0  0
    4.4467   -0.8122   -1.6757 C   0  0  0  0  0  0  0  0  0  0  0  0
    5.0051   -4.3557   -2.3545 O   0  0  0  0  0  0  0  0  0  0  0  0
    3.1002   -0.9188   -1.5149 O   0  0  0  0  0  0  0  0  0  0  0  0
    0.2487    0.6978   -0.9026 H   0  0  0  0  0  0  0  0  0  0  0  0
    0.7462   -0.9058   -0.3204 H   0  0  0  0  0  0  0  0  0  0  0  0
    0.5359   -0.6198   -2.0601 H   0  0  0  0  0  0  0  0  0  0  0  0
    2.6798    0.7020   -0.2880 H   0  0  0  0  0  0  0  0  0  0  0  0
    2.4684    0.9905   -2.0300 H   0  0  0  0  0  0  0  0  0  0  0  0
    8.3136   -0.7509   -2.1744 H   0  0  0  0  0  0  0  0  0  0  0  0
    7.0732    1.3434   -1.6484 H   0  0  0  0  0  0  0  0  0  0  0  0
    7.0331   -2.9010   -2.3791 H   0  0  0  0  0  0  0  0  0  0  0  0
    4.6397    1.3176   -1.3328 H   0  0  0  0  0  0  0  0  0  0  0  0
    3.3452   -3.2734   -1.9567 H   0  0  0  0  0  0  0  0  0  0  0  0
  1 12  1  0  0  0  0
  1 13  1  0  0  0  0
  2  1  1  0  0  0  0
  2 15  1  0  0  0  0
  3  4  1  0  0  0  0
  4 18  1  0  0  0  0
  4  6  2  0  0  0  0
  5  3  2  0  0  0  0
  5  8  1  0  0  0  0
  6 20  1  0  0  0  0
  7  8  1  0  0  0  0
  7 21  1  0  0  0  0
  8  9  2  0  0  0  0
  9  6  1  0  0  0  0
  9 11  1  0  0  0  0
 10  7  2  0  0  0  0
 11  2  1  0  0  0  0
 14  1  1  0  0  0  0
 16  2  1  0  0  0  0
 17  3  1  0  0  0  0
 19  5  1  0  0  0  0
M  END
>  <HBA>
2

>  <HBD>
0

>  <TPSA>
26.3

>  <cid>
11950

>  <dipole>
4.83

>  <excitation_energy_1>
3.566

>  <excitation_energy_2>
4.108

>  <excitation_energy_3>
5.045

>  <excitation_energy_4>
5.72

>  <homo_energy>
-6.313

>  <homo_lumo_gap>
4.819

>  <logP>
1.898

>  <lumo_energy>
-1.494

>  <melting_point>
42.53

>  <molecular_refractivity>
43.13

>  <oscillator_strength_1>
0.0001

>  <oscillator_strength_2>
0.0963

>  <oscillator_strength_3>
0.1657

>  <oscillator_strength_4>
0.0001

>  <open_babel_can_smiles>
CCOc1ccccc1C=O

>  <mulliken_charges>
21
1   -0.459502
2   -0.033579
3   -0.130655
4   -0.128292
5   -0.169794
6   -0.196936
7   0.200266
8   0.029017
9   0.340424
10   -0.418105
11   -0.518703
12   0.153087
13   0.167749
14   0.167735
15   0.147048
16   0.147161
17   0.135721
18   0.138769
19   0.164788
20   0.139894
21   0.123908

>  <lowdin_charges>
21
1   -0.448607
2   -0.123923
3   -0.173717
4   -0.127189
5   -0.115705
6   -0.2163
7   0.04885
8   -0.085494
9   0.116618
10   -0.240539
11   -0.198064
12   0.160469
13   0.162776
14   0.16238
15   0.141929
16   0.142621
17   0.159794
18   0.162127
19   0.177355
20   0.165826
21   0.128793

$$$$

