PCCDB-ID:  70996
public computational chemistry database (PCCDB) project, http://pccdb.org

 20 20  0  0  0  0  0  0  0  0999 V2000
   -1.1723    0.0330    0.3681 C   0  0  0  0  0  0  0  0  0  0  0  0
   -0.6189   -1.1209   -0.1833 C   0  0  0  0  0  0  0  0  0  0  0  0
   -0.4236    1.2097    0.4214 C   0  0  0  0  0  0  0  0  0  0  0  0
    0.6895   -1.1045   -0.6689 C   0  0  0  0  0  0  0  0  0  0  0  0
    0.8844    1.2398   -0.0719 C   0  0  0  0  0  0  0  0  0  0  0  0
    1.4516    0.0664   -0.6112 C   0  0  0  0  0  0  0  0  0  0  0  0
    1.6105    2.5393   -0.1286 C   0  0  0  0  0  0  0  0  0  0  0  0
    2.8862    0.0209   -1.0100 C   0  0  0  0  0  0  0  0  0  0  0  0
    2.2911    2.9521   -1.0467 O   0  0  0  0  0  0  0  0  0  0  0  0
    3.8182    0.5438   -0.4317 O   0  0  0  0  0  0  0  0  0  0  0  0
    1.9924    4.5749    0.8839 O   0  0  0  0  0  0  0  0  0  0  0  0
    4.4594   -0.8839   -2.4317 O   0  0  0  0  0  0  0  0  0  0  0  0
    1.3834    3.2717    0.9891 O   0  0  0  0  0  0  0  0  0  0  0  0
    3.0592   -0.7448   -2.1150 O   0  0  0  0  0  0  0  0  0  0  0  0
   -2.1883    0.0243    0.7512 H   0  0  0  0  0  0  0  0  0  0  0  0
   -1.1988   -2.0377   -0.2308 H   0  0  0  0  0  0  0  0  0  0  0  0
   -0.8572    2.1165    0.8286 H   0  0  0  0  0  0  0  0  0  0  0  0
    1.1330   -2.0054   -1.0784 H   0  0  0  0  0  0  0  0  0  0  0  0
    2.4786    4.4703    0.0268 H   0  0  0  0  0  0  0  0  0  0  0  0
    4.8509   -0.2705   -1.7589 H   0  0  0  0  0  0  0  0  0  0  0  0
  1  3  1  0  0  0  0
  1 15  1  0  0  0  0
  2  1  2  0  0  0  0
  3 17  1  0  0  0  0
  4  6  2  0  0  0  0
  4  2  1  0  0  0  0
  5  3  2  0  0  0  0
  6  5  1  0  0  0  0
  7  5  1  0  0  0  0
  7 13  1  0  0  0  0
  8  6  1  0  0  0  0
  8 10  2  0  0  0  0
  9  7  2  0  0  0  0
 11 13  1  0  0  0  0
 12 14  1  0  0  0  0
 12 20  1  0  0  0  0
 14  8  1  0  0  0  0
 16  2  1  0  0  0  0
 18  4  1  0  0  0  0
 19 11  1  0  0  0  0
M  END
>  <HBA>
6

>  <HBD>
2

>  <TPSA>
93.06

>  <cid>
70996

>  <dipole>
4.18

>  <excitation_energy_1>
4.757

>  <excitation_energy_2>
4.818

>  <excitation_energy_3>
5.005

>  <excitation_energy_4>
5.012

>  <homo_energy>
-7.69

>  <homo_lumo_gap>
5.434

>  <logP>
0.946

>  <lumo_energy>
-2.256

>  <melting_point>
134.47

>  <molecular_refractivity>
42.53

>  <oscillator_strength_1>
0.0555

>  <oscillator_strength_2>
0.1073

>  <oscillator_strength_3>
0.0

>  <oscillator_strength_4>
0.0059

>  <open_babel_can_smiles>
OOC(=O)c1ccccc1C(=O)OO

>  <mulliken_charges>
20
1   -0.119385
2   -0.11961
3   -0.161656
4   -0.161676
5   0.057897
6   0.057954
7   0.579518
8   0.579789
9   -0.488285
10   -0.488243
11   -0.383468
12   -0.383472
13   -0.25358
14   -0.253789
15   0.157162
16   0.157165
17   0.177434
18   0.177495
19   0.434373
20   0.434377

>  <lowdin_charges>
20
1   -0.132225
2   -0.134499
3   -0.13255
4   -0.132819
5   -0.018396
6   -0.016664
7   0.19482
8   0.196898
9   -0.253367
10   -0.254209
11   -0.310168
12   -0.311692
13   -0.057855
14   -0.05948
15   0.170772
16   0.172141
17   0.181666
18   0.181788
19   0.35724
20   0.3586

$$$$

