PCCDB-ID:  11087
public computational chemistry database (PCCDB) project, http://pccdb.org

 17 17  0  0  0  0  0  0  0  0999 V2000
   -1.2957   -0.0008   -0.0427 C   0  0  0  0  0  0  0  0  0  0  0  0
   -0.6102   -1.2145   -0.0824 C   0  0  0  0  0  0  0  0  0  0  0  0
   -0.5881    1.1971   -0.0363 C   0  0  0  0  0  0  0  0  0  0  0  0
    0.7785   -1.2101   -0.1149 C   0  0  0  0  0  0  0  0  0  0  0  0
    0.8154    1.2459   -0.0253 C   0  0  0  0  0  0  0  0  0  0  0  0
    1.4797   -0.0008   -0.0657 C   0  0  0  0  0  0  0  0  0  0  0  0
    1.3561    2.6800   -0.0711 C   0  0  0  0  0  0  0  0  0  0  0  0
    2.9470   -0.1719   -0.0775 N   0  0  0  0  0  0  0  0  0  0  0  0
    0.6741    3.5480   -0.5686 O   0  0  0  0  0  0  0  0  0  0  0  0
    2.5284    2.9602    0.4932 O   0  0  0  0  0  0  0  0  0  0  0  0
    3.4015   -1.1235   -0.6957 O   0  0  0  0  0  0  0  0  0  0  0  0
    3.6571    0.6109    0.5741 O   0  0  0  0  0  0  0  0  0  0  0  0
   -2.3814    0.0170   -0.0293 H   0  0  0  0  0  0  0  0  0  0  0  0
   -1.1469   -2.1579   -0.0987 H   0  0  0  0  0  0  0  0  0  0  0  0
   -1.1110    2.1459   -0.0559 H   0  0  0  0  0  0  0  0  0  0  0  0
    1.3396   -2.1344   -0.1723 H   0  0  0  0  0  0  0  0  0  0  0  0
    2.9751    2.1348    0.7898 H   0  0  0  0  0  0  0  0  0  0  0  0
  1  3  2  0  0  0  0
  1 13  1  0  0  0  0
  2  1  1  0  0  0  0
  3  5  1  0  0  0  0
  4  2  2  0  0  0  0
  4  6  1  0  0  0  0
  6  5  2  0  0  0  0
  7  5  1  0  0  0  0
  7 10  1  0  0  0  0
  8  6  1  0  0  0  0
  8 12  2  0  0  0  0
  9  7  2  0  0  0  0
 10 17  1  0  0  0  0
 11  8  2  0  0  0  0
 14  2  1  0  0  0  0
 15  3  1  0  0  0  0
 16  4  1  0  0  0  0
M  END
>  <HBA>
2

>  <HBD>
1

>  <TPSA>
83.12

>  <cid>
11087

>  <dipole>
5.57

>  <excitation_energy_1>
3.52

>  <excitation_energy_2>
3.744

>  <excitation_energy_3>
4.055

>  <excitation_energy_4>
4.355

>  <homo_energy>
-7.562

>  <homo_lumo_gap>
4.318

>  <logP>
1.816

>  <lumo_energy>
-3.244

>  <melting_point>
134.44

>  <molecular_refractivity>
42.22

>  <oscillator_strength_1>
0.0129

>  <oscillator_strength_2>
0.0261

>  <oscillator_strength_3>
0.0108

>  <oscillator_strength_4>
0.0008

>  <open_babel_can_smiles>
O=N(=O)c1ccccc1C(=O)O

>  <mulliken_charges>
17
1   -0.10616
2   -0.133474
3   -0.171113
4   -0.133451
5   0.037676
6   0.200212
7   0.564708
8   0.370943
9   -0.442769
10   -0.577247
11   -0.347516
12   -0.417071
13   0.161699
14   0.161937
15   0.193022
16   0.189048
17   0.449557

>  <lowdin_charges>
17
1   -0.125
2   -0.135297
3   -0.120373
4   -0.136593
5   -0.043468
6   0.006319
7   0.193607
8   0.317249
9   -0.24533
10   -0.341753
11   -0.203425
12   -0.256328
13   0.172178
14   0.174496
15   0.192427
16   0.189704
17   0.361587

$$$$

