PCCDB-ID:  20369
public computational chemistry database (PCCDB) project, http://pccdb.org

 21 21  0  0  0  0  0  0  0  0999 V2000
   -1.5439    0.0710    0.1380 C   0  0  0  0  0  0  0  0  0  0  0  0
   -0.7967    1.2458    0.2243 C   0  0  0  0  0  0  0  0  0  0  0  0
   -0.8923   -1.1393   -0.1185 C   0  0  0  0  0  0  0  0  0  0  0  0
    3.5394   -1.0178   -0.5824 C   0  0  0  0  0  0  0  0  0  0  0  0
    0.5869    1.2072    0.0572 C   0  0  0  0  0  0  0  0  0  0  0  0
    0.4886   -1.1756   -0.2865 C   0  0  0  0  0  0  0  0  0  0  0  0
    2.7208    0.0218   -0.3630 C   0  0  0  0  0  0  0  0  0  0  0  0
    5.0276   -0.8992   -0.7479 C   0  0  0  0  0  0  0  0  0  0  0  0
    1.2590   -0.0006   -0.1999 C   0  0  0  0  0  0  0  0  0  0  0  0
    5.7149   -1.8106    0.1794 N   0  0  0  0  0  0  0  0  0  0  0  0
   -2.6225    0.0957    0.2672 H   0  0  0  0  0  0  0  0  0  0  0  0
   -1.2902    2.1940    0.4210 H   0  0  0  0  0  0  0  0  0  0  0  0
   -1.4655   -2.0601   -0.1902 H   0  0  0  0  0  0  0  0  0  0  0  0
    3.1562   -2.0356   -0.6383 H   0  0  0  0  0  0  0  0  0  0  0  0
    1.1630    2.1275    0.1257 H   0  0  0  0  0  0  0  0  0  0  0  0
    0.9738   -2.1257   -0.4904 H   0  0  0  0  0  0  0  0  0  0  0  0
    3.1685    1.0150   -0.2963 H   0  0  0  0  0  0  0  0  0  0  0  0
    5.3235    0.1615   -0.6554 H   0  0  0  0  0  0  0  0  0  0  0  0
    5.3047   -1.2136   -1.7651 H   0  0  0  0  0  0  0  0  0  0  0  0
    5.5668   -1.4921    1.1360 H   0  0  0  0  0  0  0  0  0  0  0  0
    6.7199   -1.7765    0.0155 H   0  0  0  0  0  0  0  0  0  0  0  0
  1  2  1  0  0  0  0
  1 11  1  0  0  0  0
  2 12  1  0  0  0  0
  3  1  2  0  0  0  0
  4  7  2  0  0  0  0
  5 15  1  0  0  0  0
  5  2  2  0  0  0  0
  6  9  2  0  0  0  0
  6  3  1  0  0  0  0
  7 17  1  0  0  0  0
  7  9  1  0  0  0  0
  8 18  1  0  0  0  0
  8  4  1  0  0  0  0
  8 10  1  0  0  0  0
  9  5  1  0  0  0  0
 10 20  1  0  0  0  0
 13  3  1  0  0  0  0
 14  4  1  0  0  0  0
 16  6  1  0  0  0  0
 19  8  1  0  0  0  0
 21 10  1  0  0  0  0
M  END
>  <HBA>
1

>  <HBD>
1

>  <TPSA>
26.02

>  <cid>
20369

>  <dipole>
1.3

>  <excitation_energy_1>
4.668

>  <excitation_energy_2>
4.818

>  <excitation_energy_3>
4.919

>  <excitation_energy_4>
5.538

>  <homo_energy>
-5.856

>  <homo_lumo_gap>
5.091

>  <logP>
2.359

>  <lumo_energy>
-0.765

>  <melting_point>
80.42

>  <molecular_refractivity>
44.05

>  <oscillator_strength_1>
0.3401

>  <oscillator_strength_2>
0.0771

>  <oscillator_strength_3>
0.1003

>  <oscillator_strength_4>
0.0255

>  <open_babel_can_smiles>
NC/C=C/c1ccccc1

>  <mulliken_charges>
21
1   -0.130089
2   -0.129193
3   -0.129834
4   -0.093142
5   -0.197546
6   -0.182919
7   -0.178869
8   -0.188771
9   0.178168
10   -0.711834
11   0.128535
12   0.128726
13   0.129513
14   0.138963
15   0.125559
16   0.130437
17   0.118347
18   0.121138
19   0.150699
20   0.296311
21   0.295799

>  <lowdin_charges>
21
1   -0.156282
2   -0.156254
3   -0.154711
4   -0.158694
5   -0.162717
6   -0.156133
7   -0.167646
8   -0.196551
9   -0.000435
10   -0.555201
11   0.155453
12   0.157435
13   0.157824
14   0.156248
15   0.155163
16   0.158148
17   0.149027
18   0.120844
19   0.149085
20   0.253156
21   0.252245

$$$$

