PCCDB-ID:  47519
public computational chemistry database (PCCDB) project, http://pccdb.org

 17 17  0  0  1  0  0  0  0  0999 V2000
    3.1756   -0.6016   -0.4058 C   0  0  0  0  0  0  0  0  0  0  0  0
    3.1464    3.5982    0.8125 C   0  0  0  0  0  0  0  0  0  0  0  0
    2.0049    2.5771    1.0561 C   0  0  0  0  0  0  0  0  0  0  0  0
    4.4114    2.7169    0.7298 C   0  0  0  0  0  0  0  0  0  0  0  0
    2.7144    1.2153    1.0376 C   0  0  1  0  0  0  0  0  0  0  0  0
    2.5682    0.6728   -0.2569 O   0  0  0  0  0  0  0  0  0  0  0  0
    4.0632    1.4800    1.3658 O   0  0  0  0  0  0  0  0  0  0  0  0
    2.9665   -0.9340   -1.4256 H   0  0  0  0  0  0  0  0  0  0  0  0
    2.7511   -1.3302    0.3030 H   0  0  0  0  0  0  0  0  0  0  0  0
    4.2600   -0.5540   -0.2498 H   0  0  0  0  0  0  0  0  0  0  0  0
    3.2172    4.3101    1.6403 H   0  0  0  0  0  0  0  0  0  0  0  0
    2.9991    4.1736   -0.1059 H   0  0  0  0  0  0  0  0  0  0  0  0
    1.2248    2.6094    0.2924 H   0  0  0  0  0  0  0  0  0  0  0  0
    1.5350    2.7360    2.0311 H   0  0  0  0  0  0  0  0  0  0  0  0
    5.2726    3.1245    1.2657 H   0  0  0  0  0  0  0  0  0  0  0  0
    4.7000    2.5352   -0.3139 H   0  0  0  0  0  0  0  0  0  0  0  0
    2.3553    0.4958    1.7869 H   0  0  0  0  0  0  0  0  0  0  0  0
  1  6  1  0  0  0  0
  1 10  1  0  0  0  0
  1  9  1  0  0  0  0
  2  3  1  0  0  0  0
  2 11  1  0  0  0  0
  3 14  1  0  0  0  0
  4  2  1  0  0  0  0
  4 15  1  0  0  0  0
  4  7  1  0  0  0  0
  5  3  1  0  0  0  0
  5  7  1  0  0  0  0
  5 17  1  1  0  0  0
  6  5  1  0  0  0  0
  8  1  1  0  0  0  0
 12  2  1  0  0  0  0
 13  3  1  0  0  0  0
 16  4  1  0  0  0  0
M  END
>  <HBA>
2

>  <HBD>
0

>  <TPSA>
18.46

>  <cid>
47519

>  <dipole>
0.52

>  <excitation_energy_1>
6.777

>  <excitation_energy_2>
6.983

>  <excitation_energy_3>
7.201

>  <excitation_energy_4>
7.248

>  <homo_energy>
-7.026

>  <homo_lumo_gap>
9.372

>  <logP>
0.769

>  <lumo_energy>
2.346

>  <melting_point>
-21.22

>  <molecular_refractivity>
26.2

>  <oscillator_strength_1>
0.0033

>  <oscillator_strength_2>
0.0231

>  <oscillator_strength_3>
0.0115

>  <oscillator_strength_4>
0.0041

>  <open_babel_can_smiles>
CO[C@@H]1CCCO1

>  <mulliken_charges>
17
1   -0.204308
2   -0.305827
3   -0.302275
4   -0.029672
5   0.347773
6   -0.475652
7   -0.480856
8   0.154481
9   0.12883
10   0.154138
11   0.148195
12   0.149176
13   0.1635
14   0.147632
15   0.144064
16   0.141009
17   0.119791

>  <lowdin_charges>
17
1   -0.282621
2   -0.296541
3   -0.296687
4   -0.136355
5   0.089206
6   -0.272331
7   -0.272129
8   0.152975
9   0.133917
10   0.142526
11   0.150961
12   0.153856
13   0.163457
14   0.153523
15   0.149592
16   0.135156
17   0.131494

$$$$

