PCCDB-ID:  44844
public computational chemistry database (PCCDB) project, http://pccdb.org

 28 27  0  0  0  0  0  0  0  0999 V2000
    1.3134    0.0748   -0.4492 C   0  0  0  0  0  0  0  0  0  0  0  0
    2.2191   -1.1863    2.9081 C   0  0  0  0  0  0  0  0  0  0  0  0
    2.7422   -0.2213    0.0045 C   0  0  0  0  0  0  0  0  0  0  0  0
    2.2824    0.2598    2.3938 C   0  0  0  0  0  0  0  0  0  0  0  0
    5.1657    1.2625    2.5573 C   0  0  0  0  0  0  0  0  0  0  0  0
    4.7549    2.7509    2.4496 C   0  0  0  0  0  0  0  0  0  0  0  0
    4.5872    0.3199    1.4885 C   0  0  0  0  0  0  0  0  0  0  0  0
    4.8773    3.3614    1.0514 C   0  0  0  0  0  0  0  0  0  0  0  0
    3.1468    0.5127    1.2225 N   0  0  0  0  0  0  0  0  0  0  0  0
    5.7141    4.1818    0.7519 O   0  0  0  0  0  0  0  0  0  0  0  0
    3.9623    2.9276    0.1598 O   0  0  0  0  0  0  0  0  0  0  0  0
    1.1408   -0.3831   -1.4290 H   0  0  0  0  0  0  0  0  0  0  0  0
    1.1491    1.1536   -0.5468 H   0  0  0  0  0  0  0  0  0  0  0  0
    0.5604   -0.3282    0.2358 H   0  0  0  0  0  0  0  0  0  0  0  0
    1.5563   -1.2355    3.7793 H   0  0  0  0  0  0  0  0  0  0  0  0
    3.2011   -1.5573    3.2210 H   0  0  0  0  0  0  0  0  0  0  0  0
    1.8229   -1.8751    2.1542 H   0  0  0  0  0  0  0  0  0  0  0  0
    3.4330    0.0924   -0.7864 H   0  0  0  0  0  0  0  0  0  0  0  0
    2.8806   -1.3092    0.1271 H   0  0  0  0  0  0  0  0  0  0  0  0
    2.6242    0.9150    3.2013 H   0  0  0  0  0  0  0  0  0  0  0  0
    1.2744    0.6006    2.1380 H   0  0  0  0  0  0  0  0  0  0  0  0
    4.8999    0.9108    3.5617 H   0  0  0  0  0  0  0  0  0  0  0  0
    6.2577    1.1859    2.4909 H   0  0  0  0  0  0  0  0  0  0  0  0
    5.3844    3.3446    3.1166 H   0  0  0  0  0  0  0  0  0  0  0  0
    3.7163    2.8715    2.7825 H   0  0  0  0  0  0  0  0  0  0  0  0
    4.8191   -0.7221    1.7648 H   0  0  0  0  0  0  0  0  0  0  0  0
    5.1004    0.5079    0.5394 H   0  0  0  0  0  0  0  0  0  0  0  0
    3.4295    2.1893    0.5725 H   0  0  0  0  0  0  0  0  0  0  0  0
  1  3  1  0  0  0  0
  1 14  1  0  0  0  0
  2 16  1  0  0  0  0
  2 15  1  0  0  0  0
  3 19  1  0  0  0  0
  3  9  1  0  0  0  0
  4  2  1  0  0  0  0
  4 20  1  0  0  0  0
  5 22  1  0  0  0  0
  6  5  1  0  0  0  0
  6 25  1  0  0  0  0
  6 24  1  0  0  0  0
  7 26  1  0  0  0  0
  7  5  1  0  0  0  0
  8  6  1  0  0  0  0
  9  7  1  0  0  0  0
  9  4  1  0  0  0  0
 10  8  2  0  0  0  0
 11 28  1  0  0  0  0
 11  8  1  0  0  0  0
 12  1  1  0  0  0  0
 13  1  1  0  0  0  0
 17  2  1  0  0  0  0
 18  3  1  0  0  0  0
 21  4  1  0  0  0  0
 23  5  1  0  0  0  0
 27  7  1  0  0  0  0
M  END
>  <HBA>
3

>  <HBD>
1

>  <TPSA>
40.54

>  <cid>
44844

>  <dipole>
6.32

>  <excitation_energy_1>
5.463

>  <excitation_energy_2>
5.732

>  <excitation_energy_3>
6.068

>  <excitation_energy_4>
6.197

>  <homo_energy>
-6.52

>  <homo_lumo_gap>
7.233

>  <logP>
1.193

>  <lumo_energy>
0.713

>  <melting_point>
51.9

>  <molecular_refractivity>
45.24

>  <oscillator_strength_1>
0.0008

>  <oscillator_strength_2>
0.0113

>  <oscillator_strength_3>
0.0104

>  <oscillator_strength_4>
0.0083

>  <open_babel_can_smiles>
CCN(CCCC(=O)O)CC

>  <mulliken_charges>
28
1   -0.466424
2   -0.465002
3   -0.113446
4   -0.13607
5   -0.29005
6   -0.371808
7   -0.136308
8   0.580657
9   -0.455245
10   -0.45907
11   -0.607966
12   0.157181
13   0.166308
14   0.152317
15   0.154411
16   0.154891
17   0.156086
18   0.159469
19   0.132907
20   0.150775
21   0.156436
22   0.148014
23   0.162531
24   0.172627
25   0.156827
26   0.136234
27   0.164949
28   0.438769

>  <lowdin_charges>
28
1   -0.451464
2   -0.464507
3   -0.200119
4   -0.208764
5   -0.278806
6   -0.32005
7   -0.21329
8   0.183446
9   -0.192735
10   -0.260363
11   -0.387763
12   0.161183
13   0.157672
14   0.151918
15   0.160079
16   0.152462
17   0.154413
18   0.155182
19   0.127819
20   0.150531
21   0.151641
22   0.147337
23   0.158793
24   0.172608
25   0.155245
26   0.134076
27   0.155685
28   0.34777

$$$$

