PCCDB-ID:  28478
public computational chemistry database (PCCDB) project, http://pccdb.org

 26 26  0  0  0  0  0  0  0  0999 V2000
    2.2334   -1.0611   -0.6278 C   0  0  0  0  0  0  0  0  0  0  0  0
   -1.2049   -5.1375    7.6233 C   0  0  0  0  0  0  0  0  0  0  0  0
    1.6571   -1.1361    2.6337 C   0  0  0  0  0  0  0  0  0  0  0  0
    2.7245   -3.3024    2.6414 C   0  0  0  0  0  0  0  0  0  0  0  0
    0.6904   -1.6129    3.5177 C   0  0  0  0  0  0  0  0  0  0  0  0
    1.7525   -3.7909    3.5096 C   0  0  0  0  0  0  0  0  0  0  0  0
    3.5194   -1.0864    0.1701 C   0  0  0  0  0  0  0  0  0  0  0  0
    2.6839   -1.9778    2.1737 C   0  0  0  0  0  0  0  0  0  0  0  0
    0.7414   -2.9350    3.9472 C   0  0  0  0  0  0  0  0  0  0  0  0
   -0.0783   -4.1112    5.8532 C   0  0  0  0  0  0  0  0  0  0  0  0
    3.7182   -1.5151    1.3471 N   0  0  0  0  0  0  0  0  0  0  0  0
    4.6125   -0.6033   -0.4874 O   0  0  0  0  0  0  0  0  0  0  0  0
    0.9906   -4.5150    6.2449 O   0  0  0  0  0  0  0  0  0  0  0  0
   -1.2667   -4.3366    6.4325 O   0  0  0  0  0  0  0  0  0  0  0  0
   -0.3193   -3.3553    4.7588 O   0  0  0  0  0  0  0  0  0  0  0  0
    1.4162   -1.5279   -0.0772 H   0  0  0  0  0  0  0  0  0  0  0  0
    2.3711   -1.5989   -1.5748 H   0  0  0  0  0  0  0  0  0  0  0  0
    1.9468   -0.0301   -0.8696 H   0  0  0  0  0  0  0  0  0  0  0  0
   -0.5922   -4.6483    8.3850 H   0  0  0  0  0  0  0  0  0  0  0  0
   -0.7847   -6.1225    7.4036 H   0  0  0  0  0  0  0  0  0  0  0  0
   -2.2372   -5.2279    7.9618 H   0  0  0  0  0  0  0  0  0  0  0  0
    1.6343   -0.0979    2.3150 H   0  0  0  0  0  0  0  0  0  0  0  0
    3.5306   -3.9481    2.3075 H   0  0  0  0  0  0  0  0  0  0  0  0
   -0.1059   -0.9689    3.8773 H   0  0  0  0  0  0  0  0  0  0  0  0
    1.7917   -4.8153    3.8579 H   0  0  0  0  0  0  0  0  0  0  0  0
    4.3572   -0.3468   -1.3869 H   0  0  0  0  0  0  0  0  0  0  0  0
  1 16  1  0  0  0  0
  1  7  1  0  0  0  0
  2 21  1  0  0  0  0
  2 19  1  0  0  0  0
  3  5  1  0  0  0  0
  4  6  2  0  0  0  0
  5 24  1  0  0  0  0
  5  9  2  0  0  0  0
  6 25  1  0  0  0  0
  6  9  1  0  0  0  0
  7 11  2  0  0  0  0
  8  3  2  0  0  0  0
  8  4  1  0  0  0  0
  9 15  1  0  0  0  0
 10 13  2  0  0  0  0
 10 14  1  0  0  0  0
 11  8  1  0  0  0  0
 12  7  1  0  0  0  0
 14  2  1  0  0  0  0
 15 10  1  0  0  0  0
 17  1  1  0  0  0  0
 18  1  1  0  0  0  0
 20  2  1  0  0  0  0
 22  3  1  0  0  0  0
 23  4  1  0  0  0  0
 26 12  1  0  0  0  0
M  END
>  <HBA>
5

>  <HBD>
1

>  <TPSA>
64.63

>  <cid>
28478

>  <dipole>
3.98

>  <excitation_energy_1>
4.66

>  <excitation_energy_2>
4.847

>  <excitation_energy_3>
4.958

>  <excitation_energy_4>
5.46

>  <homo_energy>
-5.742

>  <homo_lumo_gap>
5.524

>  <logP>
1.863

>  <lumo_energy>
-0.218

>  <melting_point>
86.82

>  <molecular_refractivity>
53.73

>  <oscillator_strength_1>
0.1238

>  <oscillator_strength_2>
0.0911

>  <oscillator_strength_3>
0.0145

>  <oscillator_strength_4>
0.1416

>  <open_babel_can_smiles>
COC(=O)Oc1ccc(cc1)/N=C(\O)/C

>  <mulliken_charges>
26
1   -0.555849
2   -0.216643
3   -0.168265
4   -0.166615
5   -0.171894
6   -0.144845
7   0.482811
8   0.245496
9   0.335723
10   0.784438
11   -0.465433
12   -0.56822
13   -0.476199
14   -0.444146
15   -0.516257
16   0.198704
17   0.171819
18   0.177332
19   0.174593
20   0.172444
21   0.17026
22   0.130315
23   0.140802
24   0.143879
25   0.157167
26   0.408582

>  <lowdin_charges>
26
1   -0.482894
2   -0.271171
3   -0.181774
4   -0.166563
5   -0.168413
6   -0.161526
7   0.144431
8   0.044799
9   0.089612
10   0.236084
11   -0.169955
12   -0.3564
13   -0.273462
14   -0.175313
15   -0.143932
16   0.185265
17   0.168329
18   0.170039
19   0.162479
20   0.159576
21   0.162614
22   0.158812
23   0.167994
24   0.170255
25   0.175032
26   0.35608

$$$$

