PCCDB-ID:  61633
public computational chemistry database (PCCDB) project, http://pccdb.org

 19 19  0  0  1  0  0  0  0  0999 V2000
    1.0864    0.2058    0.5213 C   0  0  0  0  0  0  0  0  0  0  0  0
    1.9279   -2.0663   -1.3276 C   0  0  0  0  0  0  0  0  0  0  0  0
    2.8842    1.0665   -1.1187 C   0  0  0  0  0  0  0  0  0  0  0  0
    2.5304    0.0937    0.0332 C   0  0  2  0  0  0  0  0  0  0  0  0
    2.9709   -1.3143   -0.4735 C   0  0  2  0  0  0  0  0  0  0  0  0
    4.1380    0.4833   -1.7490 C   0  0  0  0  0  0  0  0  0  0  0  0
    4.1950   -1.0204   -1.3369 C   0  0  0  0  0  0  0  0  0  0  0  0
    4.9648    1.0351   -2.4358 O   0  0  0  0  0  0  0  0  0  0  0  0
    5.0602   -1.7903   -1.6826 O   0  0  0  0  0  0  0  0  0  0  0  0
    0.8888    1.2119    0.9084 H   0  0  0  0  0  0  0  0  0  0  0  0
    0.8819   -0.5073    1.3286 H   0  0  0  0  0  0  0  0  0  0  0  0
    0.3703    0.0156   -0.2862 H   0  0  0  0  0  0  0  0  0  0  0  0
    1.0509   -2.3306   -0.7291 H   0  0  0  0  0  0  0  0  0  0  0  0
    2.3690   -2.9884   -1.7186 H   0  0  0  0  0  0  0  0  0  0  0  0
    1.5854   -1.4705   -2.1820 H   0  0  0  0  0  0  0  0  0  0  0  0
    3.0364    2.1029   -0.8026 H   0  0  0  0  0  0  0  0  0  0  0  0
    2.0890    1.0742   -1.8804 H   0  0  0  0  0  0  0  0  0  0  0  0
    3.1909    0.3409    0.8766 H   0  0  0  0  0  0  0  0  0  0  0  0
    3.2646   -1.9638    0.3588 H   0  0  0  0  0  0  0  0  0  0  0  0
  1 10  1  0  0  0  0
  1 11  1  0  0  0  0
  2 13  1  0  0  0  0
  2  5  1  0  0  0  0
  3 16  1  0  0  0  0
  3  4  1  0  0  0  0
  4  1  1  0  0  0  0
  4 18  1  1  0  0  0
  5  4  1  0  0  0  0
  5 19  1  1  0  0  0
  6  7  1  0  0  0  0
  6  3  1  0  0  0  0
  7  5  1  0  0  0  0
  8  6  2  0  0  0  0
  9  7  2  0  0  0  0
 12  1  1  0  0  0  0
 14  2  1  0  0  0  0
 15  2  1  0  0  0  0
 17  3  1  0  0  0  0
M  END
>  <HBA>
2

>  <HBD>
0

>  <TPSA>
34.14

>  <cid>
61633

>  <dipole>
4.74

>  <excitation_energy_1>
2.317

>  <excitation_energy_2>
4.074

>  <excitation_energy_3>
5.634

>  <excitation_energy_4>
5.756

>  <homo_energy>
-6.289

>  <homo_lumo_gap>
3.859

>  <logP>
0.8

>  <lumo_energy>
-2.43

>  <melting_point>
38.13

>  <molecular_refractivity>
34.05

>  <oscillator_strength_1>
0.0002

>  <oscillator_strength_2>
0.0002

>  <oscillator_strength_3>
0.0018

>  <oscillator_strength_4>
0.0088

>  <open_babel_can_smiles>
C[C@@H]1CC(=O)C(=O)[C@@H]1C

>  <mulliken_charges>
19
1   -0.452411
2   -0.461386
3   -0.373996
4   -0.106551
5   -0.180604
6   0.398141
7   0.395314
8   -0.408863
9   -0.41542
10   0.152335
11   0.15082
12   0.150479
13   0.163072
14   0.175788
15   0.149583
16   0.179371
17   0.176008
18   0.145188
19   0.163132

>  <lowdin_charges>
19
1   -0.444967
2   -0.440933
3   -0.316881
4   -0.128821
5   -0.166384
6   0.123642
7   0.124517
8   -0.173897
9   -0.175977
10   0.155448
11   0.154736
12   0.152288
13   0.160421
14   0.167629
15   0.151018
16   0.172595
17   0.171863
18   0.148052
19   0.16565

$$$$

