PCCDB-ID:  10947
public computational chemistry database (PCCDB) project, http://pccdb.org

 47 47  0  0  1  0  0  0  0  0999 V2000
    0.6825    0.3556    0.1864 C   0  0  0  0  0  0  0  0  0  0  0  0
    2.8361    2.7618   -5.3902 C   0  0  0  0  0  0  0  0  0  0  0  0
    1.9962    4.0585   -5.3080 C   0  0  0  0  0  0  0  0  0  0  0  0
    2.2175    1.5303   -4.6965 C   0  0  0  0  0  0  0  0  0  0  0  0
    2.3845    5.0011   -4.1506 C   0  0  0  0  0  0  0  0  0  0  0  0
    3.2617    0.4470   -4.3912 C   0  0  0  0  0  0  0  0  0  0  0  0
    2.2268    4.3996   -2.7483 C   0  0  0  0  0  0  0  0  0  0  0  0
    2.7329   -0.8316   -3.7159 C   0  0  0  0  0  0  0  0  0  0  0  0
    2.6776    5.3204   -1.6041 C   0  0  0  0  0  0  0  0  0  0  0  0
    1.9882   -0.6413   -2.3786 C   0  0  0  0  0  0  0  0  0  0  0  0
    2.4071    4.7304   -0.2078 C   0  0  0  0  0  0  0  0  0  0  0  0
    2.7472    0.2049   -1.3435 C   0  0  0  0  0  0  0  0  0  0  0  0
    3.2387    3.4752    0.1209 C   0  0  0  0  0  0  0  0  0  0  0  0
    2.9865    1.0445    1.0851 C   0  0  0  0  0  0  0  0  0  0  0  0
    2.1988    0.1209    0.0980 C   0  0  1  0  0  0  0  0  0  0  0  0
    2.5406    2.5068    1.0724 C   0  0  0  0  0  0  0  0  0  0  0  0
    1.6397    2.8816    1.8030 O   0  0  0  0  0  0  0  0  0  0  0  0
    0.1332   -0.4360   -0.3328 H   0  0  0  0  0  0  0  0  0  0  0  0
    0.3938    1.3136   -0.2617 H   0  0  0  0  0  0  0  0  0  0  0  0
    0.3487    0.3760    1.2287 H   0  0  0  0  0  0  0  0  0  0  0  0
    3.8286    2.9575   -4.9574 H   0  0  0  0  0  0  0  0  0  0  0  0
    3.0216    2.5076   -6.4421 H   0  0  0  0  0  0  0  0  0  0  0  0
    0.9292    3.8026   -5.2327 H   0  0  0  0  0  0  0  0  0  0  0  0
    2.1041    4.6199   -6.2450 H   0  0  0  0  0  0  0  0  0  0  0  0
    1.4208    1.1163   -5.3316 H   0  0  0  0  0  0  0  0  0  0  0  0
    1.7260    1.8383   -3.7664 H   0  0  0  0  0  0  0  0  0  0  0  0
    1.7809    5.9174   -4.2188 H   0  0  0  0  0  0  0  0  0  0  0  0
    3.4299    5.3154   -4.2909 H   0  0  0  0  0  0  0  0  0  0  0  0
    4.0461    0.8897   -3.7606 H   0  0  0  0  0  0  0  0  0  0  0  0
    3.7641    0.1599   -5.3261 H   0  0  0  0  0  0  0  0  0  0  0  0
    2.7975    3.4648   -2.7005 H   0  0  0  0  0  0  0  0  0  0  0  0
    1.1733    4.1230   -2.5900 H   0  0  0  0  0  0  0  0  0  0  0  0
    3.5877   -1.5028   -3.5500 H   0  0  0  0  0  0  0  0  0  0  0  0
    2.0649   -1.3597   -4.4110 H   0  0  0  0  0  0  0  0  0  0  0  0
    2.1469    6.2794   -1.6847 H   0  0  0  0  0  0  0  0  0  0  0  0
    3.7466    5.5542   -1.7183 H   0  0  0  0  0  0  0  0  0  0  0  0
    1.7803   -1.6365   -1.9595 H   0  0  0  0  0  0  0  0  0  0  0  0
    1.0085   -0.1849   -2.5683 H   0  0  0  0  0  0  0  0  0  0  0  0
    1.3432    4.4762   -0.1280 H   0  0  0  0  0  0  0  0  0  0  0  0
    2.5817    5.4928    0.5596 H   0  0  0  0  0  0  0  0  0  0  0  0
    2.7382    1.2483   -1.6798 H   0  0  0  0  0  0  0  0  0  0  0  0
    3.8042   -0.1004   -1.3266 H   0  0  0  0  0  0  0  0  0  0  0  0
    4.1939    3.7526    0.5946 H   0  0  0  0  0  0  0  0  0  0  0  0
    3.5272    2.9311   -0.7842 H   0  0  0  0  0  0  0  0  0  0  0  0
    4.0607    0.9689    0.8695 H   0  0  0  0  0  0  0  0  0  0  0  0
    2.8152    0.6830    2.1044 H   0  0  0  0  0  0  0  0  0  0  0  0
    2.3915   -0.9040    0.4481 H   0  0  0  0  0  0  0  0  0  0  0  0
  1 20  1  0  0  0  0
  2  3  1  0  0  0  0
  2 21  1  0  0  0  0
  2  4  1  0  0  0  0
  3 23  1  0  0  0  0
  3  5  1  0  0  0  0
  4  6  1  0  0  0  0
  4 26  1  0  0  0  0
  5  7  1  0  0  0  0
  6 29  1  0  0  0  0
  6  8  1  0  0  0  0
  7 31  1  0  0  0  0
  7 32  1  0  0  0  0
  7  9  1  0  0  0  0
  8 33  1  0  0  0  0
  8 10  1  0  0  0  0
  9 11  1  0  0  0  0
 10 37  1  0  0  0  0
 10 12  1  0  0  0  0
 11 39  1  0  0  0  0
 11 13  1  0  0  0  0
 11 40  1  0  0  0  0
 12 42  1  0  0  0  0
 12 15  1  0  0  0  0
 13 43  1  0  0  0  0
 13 16  1  0  0  0  0
 14 46  1  0  0  0  0
 15  1  1  0  0  0  0
 15 47  1  1  0  0  0
 15 14  1  0  0  0  0
 16 14  1  0  0  0  0
 16 17  2  0  0  0  0
 18  1  1  0  0  0  0
 19  1  1  0  0  0  0
 22  2  1  0  0  0  0
 24  3  1  0  0  0  0
 25  4  1  0  0  0  0
 27  5  1  0  0  0  0
 28  5  1  0  0  0  0
 30  6  1  0  0  0  0
 34  8  1  0  0  0  0
 35  9  1  0  0  0  0
 36  9  1  0  0  0  0
 38 10  1  0  0  0  0
 41 12  1  0  0  0  0
 44 13  1  0  0  0  0
 45 14  1  0  0  0  0
M  END
>  <HBA>
1

>  <HBD>
0

>  <TPSA>
17.07

>  <cid>
10947

>  <dipole>
2.63

>  <excitation_energy_1>
4.251

>  <excitation_energy_2>
6.024

>  <excitation_energy_3>
6.307

>  <excitation_energy_4>
6.372

>  <homo_energy>
-6.419

>  <homo_lumo_gap>
6.133

>  <logP>
5.277

>  <lumo_energy>
-0.286

>  <melting_point>
10.77

>  <molecular_refractivity>
77.11

>  <oscillator_strength_1>
0.0003

>  <oscillator_strength_2>
0.0108

>  <oscillator_strength_3>
0.0011

>  <oscillator_strength_4>
0.007

>  <open_babel_can_smiles>
C[C@H]1CCCCCCCCCCCCC(=O)C1

>  <mulliken_charges>
47
1   -0.453298
2   -0.259272
3   -0.261822
4   -0.264246
5   -0.255983
6   -0.260546
7   -0.260317
8   -0.262376
9   -0.264683
10   -0.264394
11   -0.252612
12   -0.268568
13   -0.367939
14   -0.346219
15   -0.084947
16   0.455009
17   -0.452937
18   0.145517
19   0.146716
20   0.160144
21   0.128698
22   0.131605
23   0.130742
24   0.129814
25   0.129103
26   0.142293
27   0.128385
28   0.126889
29   0.128897
30   0.129496
31   0.139829
32   0.128638
33   0.12783
34   0.129104
35   0.13266
36   0.125483
37   0.129636
38   0.14109
39   0.154182
40   0.142795
41   0.14258
42   0.126548
43   0.164317
44   0.155879
45   0.135499
46   0.159455
47   0.131326

>  <lowdin_charges>
47
1   -0.450333
2   -0.277578
3   -0.276617
4   -0.284533
5   -0.272574
6   -0.280505
7   -0.280499
8   -0.278767
9   -0.274815
10   -0.279603
11   -0.272761
12   -0.282511
13   -0.316758
14   -0.307773
15   -0.113741
16   0.16412
17   -0.242895
18   0.152007
19   0.149099
20   0.158507
21   0.136842
22   0.141341
23   0.138176
24   0.143512
25   0.139986
26   0.14134
27   0.140082
28   0.135524
29   0.137586
30   0.142186
31   0.138934
32   0.136601
33   0.140736
34   0.142507
35   0.142802
36   0.135282
37   0.140994
38   0.14274
39   0.150346
40   0.151385
41   0.13904
42   0.137152
43   0.166732
44   0.155699
45   0.147496
46   0.162987
47   0.140521

$$$$

