PCCDB-ID:  11544
public computational chemistry database (PCCDB) project, http://pccdb.org

 16 15  0  0  0  0  0  0  0  0999 V2000
    0.9033   -0.0206    0.1144 C   0  0  0  0  0  0  0  0  0  0  0  0
    2.9079    0.9989    1.2878 C   0  0  0  0  0  0  0  0  0  0  0  0
    2.9956   -1.3977    0.4793 C   0  0  0  0  0  0  0  0  0  0  0  0
    3.0548    1.2706   -1.9409 C   0  0  0  0  0  0  0  0  0  0  0  0
    2.4404    0.0096    0.2043 C   0  0  0  0  0  0  0  0  0  0  0  0
    2.9660    0.4524   -1.0781 N   0  0  0  0  0  0  0  0  0  0  0  0
    3.2470    2.2896   -3.1547 S   0  0  0  0  0  0  0  0  0  0  0  0
    0.4817   -0.3647    1.0651 H   0  0  0  0  0  0  0  0  0  0  0  0
    0.5745   -0.7014   -0.6770 H   0  0  0  0  0  0  0  0  0  0  0  0
    0.5066    0.9770   -0.0996 H   0  0  0  0  0  0  0  0  0  0  0  0
    2.5381    0.6791    2.2681 H   0  0  0  0  0  0  0  0  0  0  0  0
    2.5280    2.0054    1.0854 H   0  0  0  0  0  0  0  0  0  0  0  0
    4.0008    1.0422    1.3273 H   0  0  0  0  0  0  0  0  0  0  0  0
    2.6207   -1.7668    1.4397 H   0  0  0  0  0  0  0  0  0  0  0  0
    4.0893   -1.3822    0.5163 H   0  0  0  0  0  0  0  0  0  0  0  0
    2.6874   -2.0959   -0.3053 H   0  0  0  0  0  0  0  0  0  0  0  0
  1  5  1  0  0  0  0
  1  8  1  0  0  0  0
  2 13  1  0  0  0  0
  2 11  1  0  0  0  0
  3 15  1  0  0  0  0
  3 14  1  0  0  0  0
  4  6  2  0  0  0  0
  5  3  1  0  0  0  0
  5  2  1  0  0  0  0
  6  5  1  0  0  0  0
  7  4  2  0  0  0  0
  9  1  1  0  0  0  0
 10  1  1  0  0  0  0
 12  2  1  0  0  0  0
 16  3  1  0  0  0  0
M  END
>  <HBA>
2

>  <HBD>
0

>  <TPSA>
44.45

>  <cid>
11544

>  <dipole>
4.06

>  <excitation_energy_1>
4.704

>  <excitation_energy_2>
5.184

>  <excitation_energy_3>
5.534

>  <excitation_energy_4>
5.842

>  <homo_energy>
-6.52

>  <homo_lumo_gap>
6.27

>  <logP>
1.888

>  <lumo_energy>
-0.25

>  <melting_point>
34.54

>  <molecular_refractivity>
35.35

>  <oscillator_strength_1>
0.0003

>  <oscillator_strength_2>
0.0131

>  <oscillator_strength_3>
0.0006

>  <oscillator_strength_4>
0.0051

>  <open_babel_can_smiles>
S=C=NC(C)(C)C

>  <mulliken_charges>
16
1   -0.436777
2   -0.436936
3   -0.433288
4   0.197136
5   0.154488
6   -0.326559
7   -0.144575
8   0.152444
9   0.162964
10   0.162158
11   0.152474
12   0.162183
13   0.162999
14   0.149829
15   0.160738
16   0.160721

>  <lowdin_charges>
16
1   -0.441193
2   -0.437763
3   -0.439772
4   -0.048845
5   0.098098
6   -0.096095
7   -0.065245
8   0.157719
9   0.162083
10   0.160008
11   0.157378
12   0.159812
13   0.159221
14   0.155466
15   0.158127
16   0.161002

$$$$

