PCCDB-ID:  11550
public computational chemistry database (PCCDB) project, http://pccdb.org

 22 22  0  0  0  0  0  0  0  0999 V2000
    0.9052   -0.0210   -0.1122 C   0  0  0  0  0  0  0  0  0  0  0  0
    3.0994   -0.3973    2.9716 C   0  0  0  0  0  0  0  0  0  0  0  0
    2.5811   -1.5761    2.1337 C   0  0  0  0  0  0  0  0  0  0  0  0
    2.5894    0.9447    2.4241 C   0  0  0  0  0  0  0  0  0  0  0  0
    2.9241   -1.3902    0.6462 C   0  0  0  0  0  0  0  0  0  0  0  0
    2.9333    1.1139    0.9358 C   0  0  0  0  0  0  0  0  0  0  0  0
    2.4315   -0.0485    0.0609 C   0  0  0  0  0  0  0  0  0  0  0  0
    3.0445    0.1680   -1.2221 O   0  0  0  0  0  0  0  0  0  0  0  0
    0.3695   -0.1312    0.8362 H   0  0  0  0  0  0  0  0  0  0  0  0
    0.5792   -0.8394   -0.7684 H   0  0  0  0  0  0  0  0  0  0  0  0
    0.6000    0.9247   -0.5725 H   0  0  0  0  0  0  0  0  0  0  0  0
    4.1992   -0.3989    2.9517 H   0  0  0  0  0  0  0  0  0  0  0  0
    2.8038   -0.5178    4.0215 H   0  0  0  0  0  0  0  0  0  0  0  0
    1.4931   -1.6649    2.2610 H   0  0  0  0  0  0  0  0  0  0  0  0
    3.0099   -2.5189    2.4964 H   0  0  0  0  0  0  0  0  0  0  0  0
    3.0203    1.7759    2.9962 H   0  0  0  0  0  0  0  0  0  0  0  0
    1.5014    1.0066    2.5674 H   0  0  0  0  0  0  0  0  0  0  0  0
    2.5163   -2.2220    0.0527 H   0  0  0  0  0  0  0  0  0  0  0  0
    4.0145   -1.4165    0.5188 H   0  0  0  0  0  0  0  0  0  0  0  0
    4.0236    1.1631    0.8150 H   0  0  0  0  0  0  0  0  0  0  0  0
    2.5322    2.0574    0.5454 H   0  0  0  0  0  0  0  0  0  0  0  0
    2.7442   -0.5455   -1.8084 H   0  0  0  0  0  0  0  0  0  0  0  0
  1  7  1  0  0  0  0
  1  9  1  0  0  0  0
  2 13  1  0  0  0  0
  3 14  1  0  0  0  0
  3 15  1  0  0  0  0
  3  2  1  0  0  0  0
  4 17  1  0  0  0  0
  4  2  1  0  0  0  0
  4 16  1  0  0  0  0
  5  3  1  0  0  0  0
  6  4  1  0  0  0  0
  7  5  1  0  0  0  0
  7  6  1  0  0  0  0
  8  7  1  0  0  0  0
 10  1  1  0  0  0  0
 11  1  1  0  0  0  0
 12  2  1  0  0  0  0
 18  5  1  0  0  0  0
 19  5  1  0  0  0  0
 20  6  1  0  0  0  0
 21  6  1  0  0  0  0
 22  8  1  0  0  0  0
M  END
>  <HBA>
1

>  <HBD>
1

>  <TPSA>
20.23

>  <cid>
11550

>  <dipole>
1.5

>  <excitation_energy_1>
6.405

>  <excitation_energy_2>
6.903

>  <excitation_energy_3>
7.184

>  <excitation_energy_4>
7.295

>  <homo_energy>
-6.95

>  <homo_lumo_gap>
8.915

>  <logP>
1.702

>  <lumo_energy>
1.965

>  <melting_point>
24.99

>  <molecular_refractivity>
34.85

>  <oscillator_strength_1>
0.0178

>  <oscillator_strength_2>
0.0041

>  <oscillator_strength_3>
0.0023

>  <oscillator_strength_4>
0.0206

>  <open_babel_can_smiles>
CC1(O)CCCCC1

>  <mulliken_charges>
22
1   -0.466118
2   -0.255374
3   -0.265225
4   -0.268424
5   -0.28086
6   -0.265712
7   0.319873
8   -0.647765
9   0.146193
10   0.127438
11   0.154682
12   0.130547
13   0.129878
14   0.130963
15   0.133054
16   0.134068
17   0.130405
18   0.113748
19   0.14086
20   0.141882
21   0.136025
22   0.379861

>  <lowdin_charges>
22
1   -0.461862
2   -0.273965
3   -0.277831
4   -0.278614
5   -0.29332
6   -0.278752
7   0.118687
8   -0.464646
9   0.151271
10   0.14372
11   0.156773
12   0.136604
13   0.142286
14   0.136224
15   0.145582
16   0.147232
17   0.135905
18   0.136653
19   0.145248
20   0.14719
21   0.148121
22   0.337494

$$$$

