PCCDB-ID:  7634
public computational chemistry database (PCCDB) project, http://pccdb.org

 36 35  0  0  1  0  0  0  0  0999 V2000
    4.8587    4.2732   -0.4768 C   0  0  0  0  0  0  0  0  0  0  0  0
    3.0080    0.5408    4.5659 C   0  0  0  0  0  0  0  0  0  0  0  0
    7.8529   -2.6061    0.4847 C   0  0  0  0  0  0  0  0  0  0  0  0
    4.4989    3.4103    0.7374 C   0  0  0  0  0  0  0  0  0  0  0  0
    4.2395   -0.0080    3.8341 C   0  0  0  0  0  0  0  0  0  0  0  0
    4.2624    1.9377    0.3736 C   0  0  0  0  0  0  0  0  0  0  0  0
    3.8133    1.0461    1.5456 C   0  0  0  0  0  0  0  0  0  0  0  0
    6.3255   -0.9149    1.6308 C   0  0  0  0  0  0  0  0  0  0  0  0
    6.2185    0.4680    2.2903 C   0  0  0  0  0  0  0  0  0  0  0  0
    7.7180   -1.1874    1.0410 C   0  0  2  0  0  0  0  0  0  0  0  0
    4.8027    0.9099    2.7262 C   0  0  2  0  0  0  0  0  0  0  0  0
    8.0624   -0.2161    0.0449 O   0  0  0  0  0  0  0  0  0  0  0  0
    5.0237    5.3185   -0.1915 H   0  0  0  0  0  0  0  0  0  0  0  0
    4.0589    4.2546   -1.2276 H   0  0  0  0  0  0  0  0  0  0  0  0
    5.7748    3.9123   -0.9605 H   0  0  0  0  0  0  0  0  0  0  0  0
    2.7088   -0.1272    5.3819 H   0  0  0  0  0  0  0  0  0  0  0  0
    2.1446    0.6485    3.9003 H   0  0  0  0  0  0  0  0  0  0  0  0
    3.2149    1.5259    5.0028 H   0  0  0  0  0  0  0  0  0  0  0  0
    7.6965   -3.3588    1.2662 H   0  0  0  0  0  0  0  0  0  0  0  0
    8.8484   -2.7530    0.0539 H   0  0  0  0  0  0  0  0  0  0  0  0
    7.1089   -2.7871   -0.3036 H   0  0  0  0  0  0  0  0  0  0  0  0
    3.5955    3.8120    1.2190 H   0  0  0  0  0  0  0  0  0  0  0  0
    5.3010    3.4856    1.4831 H   0  0  0  0  0  0  0  0  0  0  0  0
    3.9971   -0.9928    3.4100 H   0  0  0  0  0  0  0  0  0  0  0  0
    5.0337   -0.1845    4.5736 H   0  0  0  0  0  0  0  0  0  0  0  0
    5.1749    1.5308   -0.0846 H   0  0  0  0  0  0  0  0  0  0  0  0
    3.4895    1.8900   -0.4073 H   0  0  0  0  0  0  0  0  0  0  0  0
    3.5808    0.0446    1.1557 H   0  0  0  0  0  0  0  0  0  0  0  0
    2.8628    1.4406    1.9290 H   0  0  0  0  0  0  0  0  0  0  0  0
    5.5897   -1.0144    0.8179 H   0  0  0  0  0  0  0  0  0  0  0  0
    6.0865   -1.7057    2.3544 H   0  0  0  0  0  0  0  0  0  0  0  0
    6.6398    1.2073    1.6006 H   0  0  0  0  0  0  0  0  0  0  0  0
    6.8698    0.4820    3.1766 H   0  0  0  0  0  0  0  0  0  0  0  0
    8.4711   -1.0384    1.8252 H   0  0  0  0  0  0  0  0  0  0  0  0
    4.9214    1.9077    3.1760 H   0  0  0  0  0  0  0  0  0  0  0  0
    7.4449   -0.3373   -0.6952 H   0  0  0  0  0  0  0  0  0  0  0  0
  1 13  1  0  0  0  0
  1  4  1  0  0  0  0
  2 18  1  0  0  0  0
  2 16  1  0  0  0  0
  3 10  1  0  0  0  0
  3 19  1  0  0  0  0
  4 22  1  0  0  0  0
  4 23  1  0  0  0  0
  5  2  1  0  0  0  0
  5 25  1  0  0  0  0
  6  4  1  0  0  0  0
  6  7  1  0  0  0  0
  7 29  1  0  0  0  0
  7 11  1  0  0  0  0
  8  9  1  0  0  0  0
  8 31  1  0  0  0  0
  9 11  1  0  0  0  0
  9 33  1  0  0  0  0
 10  8  1  0  0  0  0
 10 34  1  1  0  0  0
 11 35  1  1  0  0  0
 11  5  1  0  0  0  0
 12 10  1  0  0  0  0
 14  1  1  0  0  0  0
 15  1  1  0  0  0  0
 17  2  1  0  0  0  0
 20  3  1  0  0  0  0
 21  3  1  0  0  0  0
 24  5  1  0  0  0  0
 26  6  1  0  0  0  0
 27  6  1  0  0  0  0
 28  7  1  0  0  0  0
 30  8  1  0  0  0  0
 32  9  1  0  0  0  0
 36 12  1  0  0  0  0
M  END
>  <HBA>
1

>  <HBD>
1

>  <TPSA>
20.23

>  <cid>
7634

>  <dipole>
1.48

>  <excitation_energy_1>
6.499

>  <excitation_energy_2>
7.022

>  <excitation_energy_3>
7.157

>  <excitation_energy_4>
7.268

>  <homo_energy>
-7.102

>  <homo_lumo_gap>
8.846

>  <logP>
3.364

>  <lumo_energy>
1.744

>  <melting_point>
-11.27

>  <molecular_refractivity>
56.15

>  <oscillator_strength_1>
0.0209

>  <oscillator_strength_2>
0.0077

>  <oscillator_strength_3>
0.0036

>  <oscillator_strength_4>
0.0015

>  <open_babel_can_smiles>
CCCC[C@H](CC[C@H](O)C)CC

>  <mulliken_charges>
36
1   -0.4424
2   -0.449314
3   -0.458102
4   -0.248378
5   -0.253714
6   -0.257201
7   -0.266897
8   -0.271362
9   -0.276926
10   0.135006
11   -0.069716
12   -0.618951
13   0.141269
14   0.139203
15   0.143535
16   0.140903
17   0.146197
18   0.14114
19   0.143396
20   0.157872
21   0.130547
22   0.128418
23   0.13951
24   0.128931
25   0.126231
26   0.127777
27   0.124054
28   0.122993
29   0.130466
30   0.119271
31   0.132827
32   0.156088
33   0.123019
34   0.13467
35   0.118417
36   0.381225

>  <lowdin_charges>
36
1   -0.443709
2   -0.447814
3   -0.461452
4   -0.27587
5   -0.275325
6   -0.279789
7   -0.280774
8   -0.297055
9   -0.284629
10   0.001693
11   -0.128925
12   -0.465811
13   0.147765
14   0.145482
15   0.147626
16   0.150188
17   0.147431
18   0.145482
19   0.153752
20   0.157443
21   0.143257
22   0.138461
23   0.142249
24   0.137067
25   0.140077
26   0.136682
27   0.139881
28   0.136666
29   0.141727
30   0.135394
31   0.145716
32   0.152924
33   0.139515
34   0.142229
35   0.135541
36   0.336905

$$$$

