PCCDB-ID:  53303
public computational chemistry database (PCCDB) project, http://pccdb.org

 25 27  0  0  0  0  0  0  0  0999 V2000
    0.8703    0.0295    0.0298 C   0  0  0  0  0  0  0  0  0  0  0  0
    5.1888   -5.1560    0.0220 C   0  0  0  0  0  0  0  0  0  0  0  0
    6.3417   -4.3126    0.0091 C   0  0  0  0  0  0  0  0  0  0  0  0
    3.9271   -4.6140    0.0299 C   0  0  0  0  0  0  0  0  0  0  0  0
    6.2104   -2.9561    0.0045 C   0  0  0  0  0  0  0  0  0  0  0  0
    3.0947    1.2233    0.0117 C   0  0  0  0  0  0  0  0  0  0  0  0
    2.3719    0.0649    0.0203 C   0  0  0  0  0  0  0  0  0  0  0  0
    4.5583    1.2945    0.0014 C   0  0  0  0  0  0  0  0  0  0  0  0
    3.7558   -3.2105    0.0251 C   0  0  0  0  0  0  0  0  0  0  0  0
    3.1111   -1.1700    0.0217 C   0  0  0  0  0  0  0  0  0  0  0  0
    4.5014   -1.1149    0.0112 C   0  0  0  0  0  0  0  0  0  0  0  0
    5.3156    2.3389   -0.0070 N   0  0  0  0  0  0  0  0  0  0  0  0
    5.2122    0.0476    0.0004 N   0  0  0  0  0  0  0  0  0  0  0  0
    2.6621   -2.4656    0.0304 N   0  0  0  0  0  0  0  0  0  0  0  0
    4.9435   -2.4061    0.0129 N   0  0  0  0  0  0  0  0  0  0  0  0
    0.4449    1.0369    0.0278 H   0  0  0  0  0  0  0  0  0  0  0  0
    0.5042   -0.5081    0.9124 H   0  0  0  0  0  0  0  0  0  0  0  0
    0.4933   -0.5161   -0.8432 H   0  0  0  0  0  0  0  0  0  0  0  0
    5.3190   -6.2332    0.0265 H   0  0  0  0  0  0  0  0  0  0  0  0
    7.3374   -4.7420    0.0023 H   0  0  0  0  0  0  0  0  0  0  0  0
    3.0330   -5.2275    0.0393 H   0  0  0  0  0  0  0  0  0  0  0  0
    7.0458   -2.2657   -0.0041 H   0  0  0  0  0  0  0  0  0  0  0  0
    2.5797    2.1800    0.0104 H   0  0  0  0  0  0  0  0  0  0  0  0
    4.7431    3.1838   -0.0048 H   0  0  0  0  0  0  0  0  0  0  0  0
    6.2232    0.0870   -0.0082 H   0  0  0  0  0  0  0  0  0  0  0  0
  1 17  1  0  0  0  0
  2 19  1  0  0  0  0
  2  4  2  0  0  0  0
  3  2  1  0  0  0  0
  4 21  1  0  0  0  0
  5  3  2  0  0  0  0
  5 15  1  0  0  0  0
  6  7  2  0  0  0  0
  7 10  1  0  0  0  0
  7  1  1  0  0  0  0
  8  6  1  0  0  0  0
  9  4  1  0  0  0  0
  9 14  2  0  0  0  0
 10 14  1  0  0  0  0
 11 15  1  0  0  0  0
 11 10  2  0  0  0  0
 12 24  1  0  0  0  0
 12  8  2  0  0  0  0
 13  8  1  0  0  0  0
 13 11  1  0  0  0  0
 15  9  1  0  0  0  0
 16  1  1  0  0  0  0
 18  1  1  0  0  0  0
 20  3  1  0  0  0  0
 22  5  1  0  0  0  0
 23  6  1  0  0  0  0
 25 13  1  0  0  0  0
M  END
>  <HBA>
4

>  <HBD>
1

>  <TPSA>
56.21

>  <cid>
53303

>  <dipole>
2.34

>  <excitation_energy_1>
2.991

>  <excitation_energy_2>
4.071

>  <excitation_energy_3>
4.154

>  <excitation_energy_4>
4.189

>  <homo_energy>
-4.874

>  <homo_lumo_gap>
3.431

>  <logP>
2.354

>  <lumo_energy>
-1.442

>  <melting_point>
172.22

>  <molecular_refractivity>
59.86

>  <oscillator_strength_1>
0.1787

>  <oscillator_strength_2>
0.0113

>  <oscillator_strength_3>
0.0265

>  <oscillator_strength_4>
0.0002

>  <open_babel_can_smiles>
N=c1cc(C)c2c([nH]1)n1ccccc1n2

>  <mulliken_charges>
25
1   -0.516385
2   -0.12525
3   -0.188916
4   -0.183771
5   0.064124
6   -0.297023
7   0.203866
8   0.51767
9   0.524178
10   0.141506
11   0.616182
12   -0.686093
13   -0.764664
14   -0.588429
15   -0.584083
16   0.153205
17   0.178651
18   0.178588
19   0.143556
20   0.14897
21   0.160053
22   0.16259
23   0.128128
24   0.279623
25   0.333722

>  <lowdin_charges>
25
1   -0.434546
2   -0.164348
3   -0.174296
4   -0.155286
5   -0.115639
6   -0.220693
7   0.030094
8   0.095787
9   0.066772
10   -0.027798
11   0.054981
12   -0.469511
13   -0.209729
14   -0.200096
15   0.023096
16   0.15688
17   0.173197
18   0.173229
19   0.164767
20   0.171141
21   0.180479
22   0.17029
23   0.162649
24   0.253365
25   0.295215

$$$$

