PCCDB-ID:  563
public computational chemistry database (PCCDB) project, http://pccdb.org

 15 14  0  0  0  0  0  0  0  0999 V2000
    1.1498   -0.1492   -0.0234 C   0  0  0  0  0  0  0  0  0  0  0  0
    4.9258    0.4083   -1.7309 C   0  0  0  0  0  0  0  0  0  0  0  0
    3.4068    0.3728   -1.5823 C   0  0  0  0  0  0  0  0  0  0  0  0
    5.3517    0.9079   -3.1076 C   0  0  0  0  0  0  0  0  0  0  0  0
    4.5921    1.2505   -3.9774 O   0  0  0  0  0  0  0  0  0  0  0  0
    6.6960    0.9525   -3.3171 O   0  0  0  0  0  0  0  0  0  0  0  0
    2.9703   -0.2327    0.0940 S   0  0  0  0  0  0  0  0  0  0  0  0
    0.7527   -0.4863    0.9375 H   0  0  0  0  0  0  0  0  0  0  0  0
    0.7729   -0.8080   -0.8116 H   0  0  0  0  0  0  0  0  0  0  0  0
    0.8116    0.8753   -0.2052 H   0  0  0  0  0  0  0  0  0  0  0  0
    5.3511   -0.5924   -1.5700 H   0  0  0  0  0  0  0  0  0  0  0  0
    5.3712    1.0605   -0.9664 H   0  0  0  0  0  0  0  0  0  0  0  0
    2.9731   -0.2862   -2.3404 H   0  0  0  0  0  0  0  0  0  0  0  0
    2.9940    1.3745   -1.7347 H   0  0  0  0  0  0  0  0  0  0  0  0
    7.1695    0.6463   -2.5256 H   0  0  0  0  0  0  0  0  0  0  0  0
  1  7  1  0  0  0  0
  1  8  1  0  0  0  0
  2  3  1  0  0  0  0
  2 11  1  0  0  0  0
  2 12  1  0  0  0  0
  3  7  1  0  0  0  0
  4  2  1  0  0  0  0
  5  4  2  0  0  0  0
  6  4  1  0  0  0  0
  6 15  1  0  0  0  0
  9  1  1  0  0  0  0
 10  1  1  0  0  0  0
 13  3  1  0  0  0  0
 14  3  1  0  0  0  0
M  END
>  <HBA>
3

>  <HBD>
1

>  <TPSA>
62.6

>  <cid>
563

>  <dipole>
2.57

>  <excitation_energy_1>
4.991

>  <excitation_energy_2>
5.359

>  <excitation_energy_3>
5.37

>  <excitation_energy_4>
5.675

>  <homo_energy>
-6.161

>  <homo_lumo_gap>
6.302

>  <logP>
0.824

>  <lumo_energy>
0.142

>  <melting_point>
60.89

>  <molecular_refractivity>
30.7

>  <oscillator_strength_1>
0.0014

>  <oscillator_strength_2>
0.0088

>  <oscillator_strength_3>
0.0029

>  <oscillator_strength_4>
0.0047

>  <open_babel_can_smiles>
CSCCC(=O)O

>  <mulliken_charges>
15
1   -0.584052
2   -0.418644
3   -0.390928
4   0.607987
5   -0.433049
6   -0.563833
7   0.082842
8   0.18582
9   0.180674
10   0.180637
11   0.18334
12   0.184705
13   0.18637
14   0.186774
15   0.411357

>  <lowdin_charges>
15
1   -0.544009
2   -0.327624
3   -0.366585
4   0.200889
5   -0.23549
6   -0.358737
7   0.089312
8   0.177617
9   0.164786
10   0.163056
11   0.170604
12   0.172981
13   0.167257
14   0.165746
15   0.360195

$$$$

