PCCDB-ID:  1206
public computational chemistry database (PCCDB) project, http://pccdb.org

 26 26  0  0  1  0  0  0  0  0999 V2000
   -0.1748   -0.8479    0.8820 C   0  0  0  0  0  0  0  0  0  0  0  0
    1.4558    1.2493    2.3996 C   0  0  0  0  0  0  0  0  0  0  0  0
    1.0543   -5.9009   -0.0732 C   0  0  0  0  0  0  0  0  0  0  0  0
    0.6084   -5.0176   -1.0568 C   0  0  0  0  0  0  0  0  0  0  0  0
    1.8461   -5.4221    0.9730 C   0  0  0  0  0  0  0  0  0  0  0  0
    0.9510   -3.6654   -0.9923 C   0  0  0  0  0  0  0  0  0  0  0  0
    2.1860   -4.0708    1.0315 C   0  0  0  0  0  0  0  0  0  0  0  0
    2.1068   -1.7029    0.1347 C   0  0  0  0  0  0  0  0  0  0  0  0
    1.3222   -0.9032    1.2013 C   0  0  1  0  0  0  0  0  0  0  0  0
    1.7415   -3.1694    0.0527 C   0  0  0  0  0  0  0  0  0  0  0  0
    1.8870    0.4516    1.2553 N   0  0  0  0  0  0  0  0  0  0  0  0
   -0.5898   -1.8570    0.7995 H   0  0  0  0  0  0  0  0  0  0  0  0
   -0.3383   -0.3196   -0.0646 H   0  0  0  0  0  0  0  0  0  0  0  0
   -0.7339   -0.3231    1.6635 H   0  0  0  0  0  0  0  0  0  0  0  0
    2.0545    2.1651    2.4421 H   0  0  0  0  0  0  0  0  0  0  0  0
    1.5487    0.7311    3.3734 H   0  0  0  0  0  0  0  0  0  0  0  0
    0.4095    1.5500    2.2833 H   0  0  0  0  0  0  0  0  0  0  0  0
    0.7919   -6.9543   -0.1230 H   0  0  0  0  0  0  0  0  0  0  0  0
   -0.0041   -5.3800   -1.8785 H   0  0  0  0  0  0  0  0  0  0  0  0
    2.2039   -6.1030    1.7412 H   0  0  0  0  0  0  0  0  0  0  0  0
    0.6024   -2.9838   -1.7650 H   0  0  0  0  0  0  0  0  0  0  0  0
    2.8098   -3.7085    1.8463 H   0  0  0  0  0  0  0  0  0  0  0  0
    3.1789   -1.6157    0.3659 H   0  0  0  0  0  0  0  0  0  0  0  0
    1.9564   -1.2165   -0.8366 H   0  0  0  0  0  0  0  0  0  0  0  0
    1.4444   -1.4253    2.1725 H   0  0  0  0  0  0  0  0  0  0  0  0
    2.9021    0.3716    1.2859 H   0  0  0  0  0  0  0  0  0  0  0  0
  1  9  1  0  0  0  0
  1 14  1  0  0  0  0
  2 15  1  0  0  0  0
  2 16  1  0  0  0  0
  3  5  2  0  0  0  0
  4  6  2  0  0  0  0
  4  3  1  0  0  0  0
  5  7  1  0  0  0  0
  5 20  1  0  0  0  0
  6 10  1  0  0  0  0
  7 22  1  0  0  0  0
  8 23  1  0  0  0  0
  8  9  1  0  0  0  0
  9 11  1  0  0  0  0
  9 25  1  1  0  0  0
 10  8  1  0  0  0  0
 10  7  2  0  0  0  0
 11 26  1  0  0  0  0
 11  2  1  0  0  0  0
 12  1  1  0  0  0  0
 13  1  1  0  0  0  0
 17  2  1  0  0  0  0
 18  3  1  0  0  0  0
 19  4  1  0  0  0  0
 21  6  1  0  0  0  0
 24  8  1  0  0  0  0
M  END
>  <HBA>
1

>  <HBD>
1

>  <TPSA>
12.03

>  <cid>
1206

>  <dipole>
0.91

>  <excitation_energy_1>
5.117

>  <excitation_energy_2>
5.279

>  <excitation_energy_3>
5.35

>  <excitation_energy_4>
5.472

>  <homo_energy>
-5.91

>  <homo_lumo_gap>
5.948

>  <logP>
2.228

>  <lumo_energy>
0.038

>  <melting_point>
32.34

>  <molecular_refractivity>
48.63

>  <oscillator_strength_1>
0.002

>  <oscillator_strength_2>
0.0007

>  <oscillator_strength_3>
0.0065

>  <oscillator_strength_4>
0.0033

>  <open_babel_can_smiles>
CN[C@H](Cc1ccccc1)C

>  <mulliken_charges>
26
1   -0.44847
2   -0.304685
3   -0.131377
4   -0.12801
5   -0.12855
6   -0.184852
7   -0.179069
8   -0.366284
9   0.066704
10   0.174285
11   -0.545799
12   0.15451
13   0.148096
14   0.143172
15   0.146176
16   0.118444
17   0.15617
18   0.127385
19   0.128177
20   0.127626
21   0.126064
22   0.120982
23   0.133311
24   0.152371
25   0.103465
26   0.290157

>  <lowdin_charges>
26
1   -0.453483
2   -0.359795
3   -0.159775
4   -0.156361
5   -0.15697
6   -0.169118
7   -0.167789
8   -0.275273
9   -0.056177
10   -0.00091
11   -0.362623
12   0.157456
13   0.151738
14   0.15127
15   0.150721
16   0.119734
17   0.147622
18   0.155204
19   0.157674
20   0.157693
21   0.156683
22   0.153821
23   0.143929
24   0.154173
25   0.113454
26   0.2471

$$$$

