PCCDB-ID:  23483
public computational chemistry database (PCCDB) project, http://pccdb.org

 18 18  0  0  0  0  0  0  0  0999 V2000
    1.0355   -0.0170    0.3084 C   0  0  0  0  0  0  0  0  0  0  0  0
    3.1816    1.1321   -0.2081 C   0  0  0  0  0  0  0  0  0  0  0  0
    4.5344   -3.3666    1.4047 C   0  0  0  0  0  0  0  0  0  0  0  0
    3.1475   -3.2921    1.4803 C   0  0  0  0  0  0  0  0  0  0  0  0
    4.5935   -1.2228    0.6300 C   0  0  0  0  0  0  0  0  0  0  0  0
    3.1760   -1.1322    0.7263 C   0  0  0  0  0  0  0  0  0  0  0  0
    5.2555   -2.3216    0.9690 N   0  0  0  0  0  0  0  0  0  0  0  0
    2.4639   -2.1962    1.1418 N   0  0  0  0  0  0  0  0  0  0  0  0
    2.4883    0.0208    0.4206 N   0  0  0  0  0  0  0  0  0  0  0  0
    0.6389    0.9860    0.4925 H   0  0  0  0  0  0  0  0  0  0  0  0
    0.6333   -0.7074    1.0484 H   0  0  0  0  0  0  0  0  0  0  0  0
    0.7019   -0.3492   -0.6871 H   0  0  0  0  0  0  0  0  0  0  0  0
    2.4917    1.9752   -0.2865 H   0  0  0  0  0  0  0  0  0  0  0  0
    3.5475    0.8925   -1.2191 H   0  0  0  0  0  0  0  0  0  0  0  0
    4.0345    1.4572    0.3978 H   0  0  0  0  0  0  0  0  0  0  0  0
    5.0747   -4.2680    1.6820 H   0  0  0  0  0  0  0  0  0  0  0  0
    2.5587   -4.1445    1.8166 H   0  0  0  0  0  0  0  0  0  0  0  0
    5.1927   -0.3930    0.2674 H   0  0  0  0  0  0  0  0  0  0  0  0
  1  9  1  0  0  0  0
  1 10  1  0  0  0  0
  1 11  1  0  0  0  0
  2 15  1  0  0  0  0
  2  9  1  0  0  0  0
  3  4  1  0  0  0  0
  3 16  1  0  0  0  0
  4 17  1  0  0  0  0
  5  6  2  0  0  0  0
  5  7  1  0  0  0  0
  6  8  1  0  0  0  0
  7  3  2  0  0  0  0
  8  4  2  0  0  0  0
  9  6  1  0  0  0  0
 12  1  1  0  0  0  0
 13  2  1  0  0  0  0
 14  2  1  0  0  0  0
 18  5  1  0  0  0  0
M  END
>  <HBA>
3

>  <HBD>
0

>  <TPSA>
29.02

>  <cid>
23483

>  <dipole>
2.39

>  <excitation_energy_1>
3.997

>  <excitation_energy_2>
4.213

>  <excitation_energy_3>
5.025

>  <excitation_energy_4>
5.174

>  <homo_energy>
-5.611

>  <homo_lumo_gap>
4.735

>  <logP>
0.543

>  <lumo_energy>
-0.876

>  <melting_point>
43.67

>  <molecular_refractivity>
36.24

>  <oscillator_strength_1>
0.0665

>  <oscillator_strength_2>
0.0127

>  <oscillator_strength_3>
0.0552

>  <oscillator_strength_4>
0.0152

>  <open_babel_can_smiles>
CN(c1nccnc1)C

>  <mulliken_charges>
18
1   -0.308425
2   -0.313522
3   0.002667
4   0.042615
5   -0.015863
6   0.521941
7   -0.383302
8   -0.493062
9   -0.455064
10   0.148098
11   0.198949
12   0.149697
13   0.162059
14   0.156228
15   0.168921
16   0.138541
17   0.140477
18   0.139045

>  <lowdin_charges>
18
1   -0.351117
2   -0.351971
3   -0.149578
4   -0.097189
5   -0.154356
6   0.081856
7   -0.115223
8   -0.172741
9   -0.107647
10   0.150133
11   0.180022
12   0.142784
13   0.162253
14   0.144486
15   0.158654
16   0.159262
17   0.159319
18   0.161053

$$$$

