PCCDB-ID:  61975
public computational chemistry database (PCCDB) project, http://pccdb.org

 24 23  0  0  0  0  0  0  0  0999 V2000
    1.0084    0.1354    0.3930 C   0  0  0  0  0  0  0  0  0  0  0  0
    0.5586    1.5301   -0.0432 C   0  0  0  0  0  0  0  0  0  0  0  0
    2.9838   -1.3542    0.4956 C   0  0  0  0  0  0  0  0  0  0  0  0
   -1.4463    2.9537   -0.3325 C   0  0  0  0  0  0  0  0  0  0  0  0
    4.2994   -1.6000   -0.2607 C   0  0  0  0  0  0  0  0  0  0  0  0
   -2.9443    2.8095   -0.6464 C   0  0  0  0  0  0  0  0  0  0  0  0
    2.4529   -0.0187    0.2004 N   0  0  0  0  0  0  0  0  0  0  0  0
   -0.8875    1.6816    0.1395 N   0  0  0  0  0  0  0  0  0  0  0  0
    5.0735   -2.4760    0.0352 O   0  0  0  0  0  0  0  0  0  0  0  0
    4.4822   -0.7682   -1.3015 O   0  0  0  0  0  0  0  0  0  0  0  0
   -3.6879    3.7532   -0.7503 O   0  0  0  0  0  0  0  0  0  0  0  0
   -3.3326    1.5349   -0.8273 O   0  0  0  0  0  0  0  0  0  0  0  0
    0.4973   -0.6133   -0.2220 H   0  0  0  0  0  0  0  0  0  0  0  0
    0.7023   -0.0456    1.4396 H   0  0  0  0  0  0  0  0  0  0  0  0
    0.7872    1.6624   -1.1063 H   0  0  0  0  0  0  0  0  0  0  0  0
    1.1338    2.2974    0.5067 H   0  0  0  0  0  0  0  0  0  0  0  0
    3.1522   -1.5586    1.5611 H   0  0  0  0  0  0  0  0  0  0  0  0
    2.2651   -2.1007    0.1361 H   0  0  0  0  0  0  0  0  0  0  0  0
   -1.3153    3.7990    0.3557 H   0  0  0  0  0  0  0  0  0  0  0  0
   -0.9475    3.2243   -1.2711 H   0  0  0  0  0  0  0  0  0  0  0  0
    2.9423    0.6677    0.7744 H   0  0  0  0  0  0  0  0  0  0  0  0
   -1.1143    1.5659    1.1271 H   0  0  0  0  0  0  0  0  0  0  0  0
    3.7064   -0.1575   -1.2863 H   0  0  0  0  0  0  0  0  0  0  0  0
   -2.5255    0.9910   -0.6605 H   0  0  0  0  0  0  0  0  0  0  0  0
  1 14  1  0  0  0  0
  2  8  1  0  0  0  0
  2  1  1  0  0  0  0
  2 16  1  0  0  0  0
  3 17  1  0  0  0  0
  4  8  1  0  0  0  0
  4 19  1  0  0  0  0
  5  9  2  0  0  0  0
  5  3  1  0  0  0  0
  6  4  1  0  0  0  0
  7  1  1  0  0  0  0
  7  3  1  0  0  0  0
  7 21  1  0  0  0  0
  8 22  1  0  0  0  0
 10 23  1  0  0  0  0
 10  5  1  0  0  0  0
 11  6  2  0  0  0  0
 12 24  1  0  0  0  0
 12  6  1  0  0  0  0
 13  1  1  0  0  0  0
 15  2  1  0  0  0  0
 18  3  1  0  0  0  0
 20  4  1  0  0  0  0
M  END
>  <HBA>
6

>  <HBD>
4

>  <TPSA>
98.66

>  <cid>
61975

>  <dipole>
3.15

>  <excitation_energy_1>
5.6

>  <excitation_energy_2>
5.602

>  <excitation_energy_3>
5.989

>  <excitation_energy_4>
6.047

>  <homo_energy>
-7.178

>  <homo_lumo_gap>
7.339

>  <logP>
-0.883

>  <lumo_energy>
0.161

>  <melting_point>
182.11

>  <molecular_refractivity>
40.1

>  <oscillator_strength_1>
0.0007

>  <oscillator_strength_2>
0.0006

>  <oscillator_strength_3>
0.0014

>  <oscillator_strength_4>
0.0044

>  <open_babel_can_smiles>
OC(=O)CNCCNCC(=O)O

>  <mulliken_charges>
24
1   -0.125119
2   -0.125088
3   -0.234425
4   -0.23452
5   0.588078
6   0.588037
7   -0.613919
8   -0.613782
9   -0.451505
10   -0.570178
11   -0.451462
12   -0.570086
13   0.168531
14   0.130878
15   0.168541
16   0.130803
17   0.177007
18   0.190446
19   0.176911
20   0.190338
21   0.319732
22   0.319691
23   0.420509
24   0.420582

>  <lowdin_charges>
24
1   -0.204145
2   -0.204488
3   -0.246733
4   -0.248198
5   0.176324
6   0.179193
7   -0.36397
8   -0.360253
9   -0.246895
10   -0.356615
11   -0.248065
12   -0.357811
13   0.158197
14   0.127059
15   0.15527
16   0.129645
17   0.16024
18   0.17728
19   0.162229
20   0.176147
21   0.266545
22   0.263112
23   0.352978
24   0.352956

$$$$

