PCCDB-ID:  31223
public computational chemistry database (PCCDB) project, http://pccdb.org

 31 31  0  0  0  0  0  0  0  0999 V2000
    6.1134    0.6424   -1.6122 C   0  0  0  0  0  0  0  0  0  0  0  0
    5.3557    2.8849   -0.6935 C   0  0  0  0  0  0  0  0  0  0  0  0
    2.5088    3.0968    8.5121 C   0  0  0  0  0  0  0  0  0  0  0  0
    3.4885    2.1035    8.5305 C   0  0  0  0  0  0  0  0  0  0  0  0
    1.9926    3.5386    7.2892 C   0  0  0  0  0  0  0  0  0  0  0  0
    3.9482    1.5575    7.3337 C   0  0  0  0  0  0  0  0  0  0  0  0
    2.4516    2.9931    6.0951 C   0  0  0  0  0  0  0  0  0  0  0  0
    3.9637    1.3792    4.8728 C   0  0  0  0  0  0  0  0  0  0  0  0
    3.6177    1.6496    3.6007 C   0  0  0  0  0  0  0  0  0  0  0  0
    4.3019    0.7209    0.1118 C   0  0  0  0  0  0  0  0  0  0  0  0
    5.5824    1.3990   -0.3857 C   0  0  0  0  0  0  0  0  0  0  0  0
    3.4404    1.9899    6.0951 C   0  0  0  0  0  0  0  0  0  0  0  0
    4.2593    0.9227    2.4872 C   0  0  0  0  0  0  0  0  0  0  0  0
    5.1048    0.0533    2.5977 O   0  0  0  0  0  0  0  0  0  0  0  0
    3.7692    1.3539    1.2957 O   0  0  0  0  0  0  0  0  0  0  0  0
    7.0452    1.0924   -1.9723 H   0  0  0  0  0  0  0  0  0  0  0  0
    5.3915    0.6721   -2.4390 H   0  0  0  0  0  0  0  0  0  0  0  0
    6.3172   -0.4095   -1.3801 H   0  0  0  0  0  0  0  0  0  0  0  0
    6.2922    3.3680   -0.9950 H   0  0  0  0  0  0  0  0  0  0  0  0
    4.9648    3.4166    0.1797 H   0  0  0  0  0  0  0  0  0  0  0  0
    4.6365    3.0108   -1.5139 H   0  0  0  0  0  0  0  0  0  0  0  0
    2.1479    3.5260    9.4428 H   0  0  0  0  0  0  0  0  0  0  0  0
    3.8943    1.7533    9.4756 H   0  0  0  0  0  0  0  0  0  0  0  0
    1.2295    4.3119    7.2694 H   0  0  0  0  0  0  0  0  0  0  0  0
    4.7115    0.7833    7.3495 H   0  0  0  0  0  0  0  0  0  0  0  0
    2.0393    3.3460    5.1545 H   0  0  0  0  0  0  0  0  0  0  0  0
    4.7248    0.6125    5.0120 H   0  0  0  0  0  0  0  0  0  0  0  0
    2.8733    2.3918    3.3314 H   0  0  0  0  0  0  0  0  0  0  0  0
    4.4833   -0.3350    0.3290 H   0  0  0  0  0  0  0  0  0  0  0  0
    3.5018    0.8101   -0.6305 H   0  0  0  0  0  0  0  0  0  0  0  0
    6.3240    1.3138    0.4192 H   0  0  0  0  0  0  0  0  0  0  0  0
  1 18  1  0  0  0  0
  1 11  1  0  0  0  0
  2 11  1  0  0  0  0
  2 20  1  0  0  0  0
  3  4  1  0  0  0  0
  3 22  1  0  0  0  0
  4 23  1  0  0  0  0
  5  3  2  0  0  0  0
  6 25  1  0  0  0  0
  6  4  2  0  0  0  0
  7  5  1  0  0  0  0
  8 27  1  0  0  0  0
  8 12  1  0  0  0  0
  9  8  2  0  0  0  0
 10 29  1  0  0  0  0
 10 15  1  0  0  0  0
 11 10  1  0  0  0  0
 11 31  1  0  0  0  0
 12  7  2  0  0  0  0
 12  6  1  0  0  0  0
 13 14  2  0  0  0  0
 13  9  1  0  0  0  0
 15 13  1  0  0  0  0
 16  1  1  0  0  0  0
 17  1  1  0  0  0  0
 19  2  1  0  0  0  0
 21  2  1  0  0  0  0
 24  5  1  0  0  0  0
 26  7  1  0  0  0  0
 28  9  1  0  0  0  0
 30 10  1  0  0  0  0
M  END
>  <HBA>
2

>  <HBD>
0

>  <TPSA>
26.3

>  <cid>
31223

>  <dipole>
1.94

>  <excitation_energy_1>
4.361

>  <excitation_energy_2>
4.424

>  <excitation_energy_3>
4.527

>  <excitation_energy_4>
5.47

>  <homo_energy>
-6.357

>  <homo_lumo_gap>
4.637

>  <logP>
2.899

>  <lumo_energy>
-1.72

>  <melting_point>
35.96

>  <molecular_refractivity>
61.85

>  <oscillator_strength_1>
0.7516

>  <oscillator_strength_2>
0.0012

>  <oscillator_strength_3>
0.0102

>  <oscillator_strength_4>
0.0641

>  <open_babel_can_smiles>
CC(COC(=O)/C=C/c1ccccc1)C

>  <mulliken_charges>
31
1   -0.452076
2   -0.443156
3   -0.123861
4   -0.131422
5   -0.13131
6   -0.18715
7   -0.170843
8   -0.148749
9   -0.21163
10   -0.036408
11   -0.096795
12   0.167177
13   0.626818
14   -0.503917
15   -0.489533
16   0.148739
17   0.139267
18   0.150042
19   0.142542
20   0.155301
21   0.135747
22   0.136442
23   0.137136
24   0.136381
25   0.140217
26   0.135745
27   0.166727
28   0.148246
29   0.165438
30   0.141883
31   0.153001

>  <lowdin_charges>
31
1   -0.443322
2   -0.448744
3   -0.147583
4   -0.154657
5   -0.151667
6   -0.148173
7   -0.146978
8   -0.102405
9   -0.2047
10   -0.134171
11   -0.133596
12   -0.00846
13   0.193965
14   -0.283405
15   -0.195779
16   0.154014
17   0.146071
18   0.151079
19   0.150044
20   0.155585
21   0.144787
22   0.161513
23   0.161663
24   0.161083
25   0.162165
26   0.160951
27   0.175477
28   0.167123
29   0.156756
30   0.148897
31   0.152468

$$$$

