PCCDB-ID:  66343
public computational chemistry database (PCCDB) project, http://pccdb.org

 29 29  0  0  0  0  0  0  0  0999 V2000
    2.1399   -0.7515   -0.9009 C   0  0  0  0  0  0  0  0  0  0  0  0
    5.4424    0.8851    5.5027 C   0  0  0  0  0  0  0  0  0  0  0  0
    4.6407   -2.5665    3.2714 C   0  0  0  0  0  0  0  0  0  0  0  0
    3.4465    1.3171    1.8034 C   0  0  0  0  0  0  0  0  0  0  0  0
    4.1240    1.2103    3.0160 C   0  0  0  0  0  0  0  0  0  0  0  0
    6.1492   -2.8207    3.1233 C   0  0  0  0  0  0  0  0  0  0  0  0
    3.5428   -1.0795    1.5440 C   0  0  0  0  0  0  0  0  0  0  0  0
    4.2229   -1.2058    2.7602 C   0  0  0  0  0  0  0  0  0  0  0  0
    3.1515    0.1738    1.0572 C   0  0  0  0  0  0  0  0  0  0  0  0
    4.5157   -0.0439    3.4966 C   0  0  0  0  0  0  0  0  0  0  0  0
    6.5567   -4.2148    3.5802 C   0  0  0  0  0  0  0  0  0  0  0  0
    5.7981   -5.0642    3.9738 O   0  0  0  0  0  0  0  0  0  0  0  0
    7.8943   -4.4774    3.5142 O   0  0  0  0  0  0  0  0  0  0  0  0
    2.4804    0.3796   -0.1189 O   0  0  0  0  0  0  0  0  0  0  0  0
    5.1932   -0.2403    4.6782 O   0  0  0  0  0  0  0  0  0  0  0  0
    1.6156   -0.3644   -1.7768 H   0  0  0  0  0  0  0  0  0  0  0  0
    1.4762   -1.4372   -0.3566 H   0  0  0  0  0  0  0  0  0  0  0  0
    3.0319   -1.3028   -1.2292 H   0  0  0  0  0  0  0  0  0  0  0  0
    5.9503    0.5016    6.3899 H   0  0  0  0  0  0  0  0  0  0  0  0
    4.5090    1.3786    5.8047 H   0  0  0  0  0  0  0  0  0  0  0  0
    6.0905    1.6190    5.0044 H   0  0  0  0  0  0  0  0  0  0  0  0
    4.3783   -2.6698    4.3292 H   0  0  0  0  0  0  0  0  0  0  0  0
    4.0958   -3.3499    2.7358 H   0  0  0  0  0  0  0  0  0  0  0  0
    3.1363    2.2854    1.4235 H   0  0  0  0  0  0  0  0  0  0  0  0
    4.3394    2.1122    3.5775 H   0  0  0  0  0  0  0  0  0  0  0  0
    6.7094   -2.0774    3.7052 H   0  0  0  0  0  0  0  0  0  0  0  0
    6.4584   -2.6945    2.0755 H   0  0  0  0  0  0  0  0  0  0  0  0
    3.3162   -1.9834    0.9884 H   0  0  0  0  0  0  0  0  0  0  0  0
    8.3674   -3.6946    3.1863 H   0  0  0  0  0  0  0  0  0  0  0  0
  1 17  1  0  0  0  0
  1 14  1  0  0  0  0
  2 20  1  0  0  0  0
  2 19  1  0  0  0  0
  3 22  1  0  0  0  0
  4  5  2  0  0  0  0
  5 10  1  0  0  0  0
  5 25  1  0  0  0  0
  6  3  1  0  0  0  0
  6 11  1  0  0  0  0
  6 26  1  0  0  0  0
  7  8  1  0  0  0  0
  8  3  1  0  0  0  0
  8 10  2  0  0  0  0
  9  7  2  0  0  0  0
  9  4  1  0  0  0  0
 10 15  1  0  0  0  0
 11 12  2  0  0  0  0
 13 11  1  0  0  0  0
 14  9  1  0  0  0  0
 15  2  1  0  0  0  0
 16  1  1  0  0  0  0
 18  1  1  0  0  0  0
 21  2  1  0  0  0  0
 23  3  1  0  0  0  0
 24  4  1  0  0  0  0
 27  6  1  0  0  0  0
 28  7  1  0  0  0  0
 29 13  1  0  0  0  0
M  END
>  <HBA>
4

>  <HBD>
1

>  <TPSA>
55.76

>  <cid>
66343

>  <dipole>
4.18

>  <excitation_energy_1>
4.605

>  <excitation_energy_2>
4.753

>  <excitation_energy_3>
5.061

>  <excitation_energy_4>
5.106

>  <homo_energy>
-5.44

>  <homo_lumo_gap>
5.339

>  <logP>
1.721

>  <lumo_energy>
-0.101

>  <melting_point>
95.2

>  <molecular_refractivity>
55.78

>  <oscillator_strength_1>
0.0807

>  <oscillator_strength_2>
0.0022

>  <oscillator_strength_3>
0.0018

>  <oscillator_strength_4>
0.0025

>  <open_babel_can_smiles>
COc1ccc(cc1CCC(=O)O)OC

>  <mulliken_charges>
29
1   -0.21197
2   -0.214501
3   -0.331035
4   -0.185206
5   -0.192667
6   -0.407554
7   -0.271694
8   0.111444
9   0.386298
10   0.32075
11   0.611572
12   -0.440139
13   -0.572026
14   -0.514702
15   -0.522065
16   0.168529
17   0.151439
18   0.147823
19   0.169091
20   0.154104
21   0.148982
22   0.175949
23   0.159922
24   0.137929
25   0.133409
26   0.183168
27   0.166519
28   0.129306
29   0.407328

>  <lowdin_charges>
29
1   -0.280867
2   -0.280452
3   -0.261331
4   -0.177555
5   -0.200493
6   -0.324729
7   -0.214536
8   -0.022041
9   0.08994
10   0.076638
11   0.200419
12   -0.239915
13   -0.365883
14   -0.204613
15   -0.211268
16   0.162733
17   0.145887
18   0.143371
19   0.162725
20   0.146771
21   0.144176
22   0.167321
23   0.160888
24   0.166863
25   0.164129
26   0.171117
27   0.161011
28   0.162146
29   0.357546

$$$$

