PCCDB-ID:  49191
public computational chemistry database (PCCDB) project, http://pccdb.org

 35 35  0  0  1  0  0  0  0  0999 V2000
    3.1239   -0.2089    1.5718 C   0  0  0  0  0  0  0  0  0  0  0  0
    6.7185   -6.0433   -1.1050 C   0  0  0  0  0  0  0  0  0  0  0  0
    6.8651   -5.3799   -3.4958 C   0  0  0  0  0  0  0  0  0  0  0  0
    3.0954   -0.5878    0.0876 C   0  0  0  0  0  0  0  0  0  0  0  0
    3.7097   -1.9693   -0.1860 C   0  0  0  0  0  0  0  0  0  0  0  0
    3.6721   -2.3104   -1.6821 C   0  0  0  0  0  0  0  0  0  0  0  0
    5.7607   -3.8388   -1.7111 C   0  0  0  0  0  0  0  0  0  0  0  0
    6.4522   -5.1459   -2.0608 C   0  0  0  0  0  0  0  0  0  0  0  0
    4.1043   -3.7320   -3.6513 C   0  0  0  0  0  0  0  0  0  0  0  0
    3.4306   -4.8447   -1.6116 C   0  0  0  0  0  0  0  0  0  0  0  0
    2.4579   -5.3754   -3.6602 C   0  0  0  0  0  0  0  0  0  0  0  0
    4.2628   -3.6969   -2.1439 C   0  0  2  0  0  0  0  0  0  0  0  0
    3.3035   -4.4560   -4.3367 N   0  0  0  0  0  0  0  0  0  0  0  0
    2.6198   -5.5852   -2.2677 N   0  0  0  0  0  0  0  0  0  0  0  0
    4.8935   -2.8476   -4.2879 O   0  0  0  0  0  0  0  0  0  0  0  0
    3.5825   -5.0632   -0.2941 O   0  0  0  0  0  0  0  0  0  0  0  0
    1.6130   -5.9860   -4.2748 O   0  0  0  0  0  0  0  0  0  0  0  0
    2.6779    0.7778    1.7382 H   0  0  0  0  0  0  0  0  0  0  0  0
    4.1515   -0.1794    1.9541 H   0  0  0  0  0  0  0  0  0  0  0  0
    2.5659   -0.9336    2.1771 H   0  0  0  0  0  0  0  0  0  0  0  0
    7.2328   -6.9749   -1.3274 H   0  0  0  0  0  0  0  0  0  0  0  0
    6.4297   -5.8818   -0.0699 H   0  0  0  0  0  0  0  0  0  0  0  0
    7.4903   -6.2735   -3.5813 H   0  0  0  0  0  0  0  0  0  0  0  0
    7.4286   -4.5252   -3.8910 H   0  0  0  0  0  0  0  0  0  0  0  0
    6.0002   -5.5210   -4.1559 H   0  0  0  0  0  0  0  0  0  0  0  0
    3.6327    0.1733   -0.4956 H   0  0  0  0  0  0  0  0  0  0  0  0
    2.0577   -0.5734   -0.2743 H   0  0  0  0  0  0  0  0  0  0  0  0
    3.1728   -2.7290    0.3920 H   0  0  0  0  0  0  0  0  0  0  0  0
    4.7442   -1.9745    0.1801 H   0  0  0  0  0  0  0  0  0  0  0  0
    4.2211   -1.5428   -2.2393 H   0  0  0  0  0  0  0  0  0  0  0  0
    2.6324   -2.2642   -2.0331 H   0  0  0  0  0  0  0  0  0  0  0  0
    6.2992   -2.9971   -2.1629 H   0  0  0  0  0  0  0  0  0  0  0  0
    5.7946   -3.7052   -0.6285 H   0  0  0  0  0  0  0  0  0  0  0  0
    4.6809   -2.9390   -5.2377 H   0  0  0  0  0  0  0  0  0  0  0  0
    3.0032   -5.8236   -0.0871 H   0  0  0  0  0  0  0  0  0  0  0  0
  1 18  1  0  0  0  0
  1 19  1  0  0  0  0
  1 20  1  0  0  0  0
  2 22  1  0  0  0  0
  3  8  1  0  0  0  0
  4  1  1  0  0  0  0
  5  4  1  0  0  0  0
  5 29  1  0  0  0  0
  5 28  1  0  0  0  0
  6  5  1  0  0  0  0
  7 33  1  0  0  0  0
  8  7  1  0  0  0  0
  8  2  2  0  0  0  0
  9 12  1  0  0  0  0
 10 16  1  0  0  0  0
 11 14  1  0  0  0  0
 12  7  1  1  0  0  0
 12  6  1  0  0  0  0
 12 10  1  0  0  0  0
 13 11  2  0  0  0  0
 13  9  2  0  0  0  0
 14 10  2  0  0  0  0
 15  9  1  0  0  0  0
 16 35  1  0  0  0  0
 17 11  2  0  0  0  0
 21  2  1  0  0  0  0
 23  3  1  0  0  0  0
 24  3  1  0  0  0  0
 25  3  1  0  0  0  0
 26  4  1  0  0  0  0
 27  4  1  0  0  0  0
 30  6  1  0  0  0  0
 31  6  1  0  0  0  0
 32  7  1  0  0  0  0
 34 15  1  0  0  0  0
M  END
>  <HBA>
5

>  <HBD>
2

>  <TPSA>
75.27

>  <cid>
49191

>  <dipole>
5.45

>  <excitation_energy_1>
4.122

>  <excitation_energy_2>
4.467

>  <excitation_energy_3>
4.618

>  <excitation_energy_4>
5.478

>  <homo_energy>
-6.925

>  <homo_lumo_gap>
5.475

>  <logP>
2.153

>  <lumo_energy>
-1.45

>  <melting_point>
122.4

>  <molecular_refractivity>
71.37

>  <oscillator_strength_1>
0.0001

>  <oscillator_strength_2>
0.0

>  <oscillator_strength_3>
0.0096

>  <oscillator_strength_4>
0.0011

>  <open_babel_can_smiles>
CCCC[C@@]1(CC(=C)C)C(=N[C](=[N]=C1O)=O)O

>  <mulliken_charges>
35
1   -0.443443
2   -0.38897
3   -0.519505
4   -0.253224
5   -0.260448
6   -0.279703
7   -0.353546
8   0.214405
9   0.571214
10   0.57289
11   0.625809
12   -0.084774
13   -0.525549
14   -0.522442
15   -0.600693
16   -0.590999
17   -0.442181
18   0.147626
19   0.143994
20   0.145721
21   0.139825
22   0.142736
23   0.157573
24   0.156343
25   0.170117
26   0.134239
27   0.137305
28   0.15616
29   0.139435
30   0.168261
31   0.154399
32   0.16711
33   0.174907
34   0.423208
35   0.422199

>  <lowdin_charges>
35
1   -0.443687
2   -0.346907
3   -0.448911
4   -0.271337
5   -0.282488
6   -0.264622
7   -0.267585
8   -0.001437
9   0.154468
10   0.161751
11   0.175606
12   -0.031027
13   -0.228373
14   -0.225816
15   -0.335221
16   -0.332494
17   -0.219661
18   0.152291
19   0.146836
20   0.149975
21   0.157546
22   0.156952
23   0.160435
24   0.158309
25   0.163834
26   0.141691
27   0.140887
28   0.153156
29   0.142776
30   0.161677
31   0.153232
32   0.16426
33   0.165451
34   0.368634
35   0.369799

$$$$

