PCCDB-ID:  20063
public computational chemistry database (PCCDB) project, http://pccdb.org

 18 17  0  0  0  0  0  0  0  0999 V2000
    2.1772   -0.9338   -2.1975 C   0  0  0  0  0  0  0  0  0  0  0  0
    5.1571    0.1804    2.2525 C   0  0  0  0  0  0  0  0  0  0  0  0
    2.1127   -0.4727   -0.7394 C   0  0  0  0  0  0  0  0  0  0  0  0
    5.1638   -0.6072    0.9426 C   0  0  0  0  0  0  0  0  0  0  0  0
    3.0283    0.7155   -0.4149 C   0  0  0  0  0  0  0  0  0  0  0  0
    4.8366    0.3982   -0.5638 S   0  0  0  0  0  0  0  0  0  0  0  0
    1.5040   -1.7808   -2.3714 H   0  0  0  0  0  0  0  0  0  0  0  0
    3.1918   -1.2433   -2.4677 H   0  0  0  0  0  0  0  0  0  0  0  0
    1.8806   -0.1261   -2.8785 H   0  0  0  0  0  0  0  0  0  0  0  0
    5.4013   -0.4800    3.0945 H   0  0  0  0  0  0  0  0  0  0  0  0
    4.1754    0.6224    2.4545 H   0  0  0  0  0  0  0  0  0  0  0  0
    5.8918    0.9910    2.2254 H   0  0  0  0  0  0  0  0  0  0  0  0
    2.3459   -1.3124   -0.0714 H   0  0  0  0  0  0  0  0  0  0  0  0
    1.0834   -0.1719   -0.4948 H   0  0  0  0  0  0  0  0  0  0  0  0
    4.4520   -1.4390    0.9774 H   0  0  0  0  0  0  0  0  0  0  0  0
    6.1516   -1.0454    0.7646 H   0  0  0  0  0  0  0  0  0  0  0  0
    2.8229    1.1004    0.5899 H   0  0  0  0  0  0  0  0  0  0  0  0
    2.8392    1.5395   -1.1128 H   0  0  0  0  0  0  0  0  0  0  0  0
  1  3  1  0  0  0  0
  2 11  1  0  0  0  0
  2 10  1  0  0  0  0
  3 14  1  0  0  0  0
  3  5  1  0  0  0  0
  3 13  1  0  0  0  0
  4 15  1  0  0  0  0
  4  2  1  0  0  0  0
  5 17  1  0  0  0  0
  6  5  1  0  0  0  0
  6  4  1  0  0  0  0
  7  1  1  0  0  0  0
  8  1  1  0  0  0  0
  9  1  1  0  0  0  0
 12  2  1  0  0  0  0
 16  4  1  0  0  0  0
 18  5  1  0  0  0  0
M  END
>  <HBA>
1

>  <HBD>
0

>  <TPSA>
25.3

>  <cid>
20063

>  <dipole>
1.76

>  <excitation_energy_1>
5.259

>  <excitation_energy_2>
5.329

>  <excitation_energy_3>
5.873

>  <excitation_energy_4>
5.965

>  <homo_energy>
-5.848

>  <homo_lumo_gap>
7.211

>  <logP>
2.15

>  <lumo_energy>
1.363

>  <melting_point>
-16.93

>  <molecular_refractivity>
33.74

>  <oscillator_strength_1>
0.0108

>  <oscillator_strength_2>
0.0186

>  <oscillator_strength_3>
0.0193

>  <oscillator_strength_4>
0.0073

>  <open_babel_can_smiles>
CCSCCC

>  <mulliken_charges>
18
1   -0.44289
2   -0.434065
3   -0.245036
4   -0.409163
5   -0.414209
6   0.074114
7   0.141638
8   0.170655
9   0.139546
10   0.146674
11   0.150932
12   0.163647
13   0.1396
14   0.137289
15   0.169269
16   0.174719
17   0.16648
18   0.170801

>  <lowdin_charges>
18
1   -0.448674
2   -0.448862
3   -0.276687
4   -0.374779
5   -0.378504
6   0.079332
7   0.15031
8   0.16007
9   0.14683
10   0.152512
11   0.149808
12   0.159362
13   0.142844
14   0.143862
15   0.154898
16   0.166861
17   0.1548
18   0.166017

$$$$

