PCCDB-ID:  50241
public computational chemistry database (PCCDB) project, http://pccdb.org

 36 35  0  0  0  0  0  0  0  0999 V2000
    7.1717   -4.9674   -0.0747 C   0  0  0  0  0  0  0  0  0  0  0  0
   12.1164    4.1134   -5.7216 C   0  0  0  0  0  0  0  0  0  0  0  0
    6.8444   -3.9362   -1.1590 C   0  0  0  0  0  0  0  0  0  0  0  0
    6.4626   -2.5594   -0.5813 C   0  0  0  0  0  0  0  0  0  0  0  0
    6.0940   -1.5540   -1.6384 C   0  0  0  0  0  0  0  0  0  0  0  0
    6.7464   -0.4101   -1.8669 C   0  0  0  0  0  0  0  0  0  0  0  0
    6.4070    0.5929   -2.9374 C   0  0  0  0  0  0  0  0  0  0  0  0
    7.4790    0.7088   -4.0461 C   0  0  0  0  0  0  0  0  0  0  0  0
    8.8732    1.1687   -3.5861 C   0  0  0  0  0  0  0  0  0  0  0  0
    8.9140    2.5857   -2.9948 C   0  0  0  0  0  0  0  0  0  0  0  0
   10.3228    3.0619   -2.6488 C   0  0  0  0  0  0  0  0  0  0  0  0
   11.1638    4.2299   -4.5540 C   0  0  0  0  0  0  0  0  0  0  0  0
   10.4817    5.1980   -4.2976 O   0  0  0  0  0  0  0  0  0  0  0  0
   11.1812    3.0950   -3.8138 O   0  0  0  0  0  0  0  0  0  0  0  0
    7.4412   -5.9357   -0.5116 H   0  0  0  0  0  0  0  0  0  0  0  0
    6.3156   -5.1292    0.5921 H   0  0  0  0  0  0  0  0  0  0  0  0
    8.0140   -4.6343    0.5439 H   0  0  0  0  0  0  0  0  0  0  0  0
   12.0645    5.0196   -6.3260 H   0  0  0  0  0  0  0  0  0  0  0  0
   11.8609    3.2411   -6.3317 H   0  0  0  0  0  0  0  0  0  0  0  0
   13.1388    3.9681   -5.3573 H   0  0  0  0  0  0  0  0  0  0  0  0
    6.0203   -4.3070   -1.7845 H   0  0  0  0  0  0  0  0  0  0  0  0
    7.7050   -3.8144   -1.8302 H   0  0  0  0  0  0  0  0  0  0  0  0
    7.2952   -2.1705    0.0205 H   0  0  0  0  0  0  0  0  0  0  0  0
    5.6172   -2.6979    0.1112 H   0  0  0  0  0  0  0  0  0  0  0  0
    5.2309   -1.8042   -2.2602 H   0  0  0  0  0  0  0  0  0  0  0  0
    7.6041   -0.1724   -1.2342 H   0  0  0  0  0  0  0  0  0  0  0  0
    6.2509    1.5813   -2.4808 H   0  0  0  0  0  0  0  0  0  0  0  0
    5.4517    0.3186   -3.4032 H   0  0  0  0  0  0  0  0  0  0  0  0
    7.1119    1.4043   -4.8145 H   0  0  0  0  0  0  0  0  0  0  0  0
    7.5757   -0.2701   -4.5334 H   0  0  0  0  0  0  0  0  0  0  0  0
    9.5515    1.1300   -4.4470 H   0  0  0  0  0  0  0  0  0  0  0  0
    9.2766    0.4560   -2.8531 H   0  0  0  0  0  0  0  0  0  0  0  0
    8.3195    2.6366   -2.0721 H   0  0  0  0  0  0  0  0  0  0  0  0
    8.4629    3.3030   -3.6924 H   0  0  0  0  0  0  0  0  0  0  0  0
   10.8200    2.3636   -1.9689 H   0  0  0  0  0  0  0  0  0  0  0  0
   10.3009    4.0571   -2.1985 H   0  0  0  0  0  0  0  0  0  0  0  0
  1 17  1  0  0  0  0
  1 16  1  0  0  0  0
  2 20  1  0  0  0  0
  2 12  1  0  0  0  0
  3  4  1  0  0  0  0
  3  1  1  0  0  0  0
  4 23  1  0  0  0  0
  4 24  1  0  0  0  0
  5  4  1  0  0  0  0
  6  5  2  0  0  0  0
  6 26  1  0  0  0  0
  7 27  1  0  0  0  0
  7  6  1  0  0  0  0
  8  9  1  0  0  0  0
  8  7  1  0  0  0  0
  9 10  1  0  0  0  0
  9 32  1  0  0  0  0
 10 11  1  0  0  0  0
 10 33  1  0  0  0  0
 11 36  1  0  0  0  0
 11 35  1  0  0  0  0
 12 13  2  0  0  0  0
 12 14  1  0  0  0  0
 14 11  1  0  0  0  0
 15  1  1  0  0  0  0
 18  2  1  0  0  0  0
 19  2  1  0  0  0  0
 21  3  1  0  0  0  0
 22  3  1  0  0  0  0
 25  5  1  0  0  0  0
 28  7  1  0  0  0  0
 29  8  1  0  0  0  0
 30  8  1  0  0  0  0
 31  9  1  0  0  0  0
 34 10  1  0  0  0  0
M  END
>  <HBA>
2

>  <HBD>
0

>  <TPSA>
26.3

>  <cid>
50241

>  <dipole>
1.88

>  <excitation_energy_1>
5.801

>  <excitation_energy_2>
6.02

>  <excitation_energy_3>
6.174

>  <excitation_energy_4>
6.291

>  <homo_energy>
-6.452

>  <homo_lumo_gap>
6.86

>  <logP>
3.466

>  <lumo_energy>
0.408

>  <melting_point>
-8.32

>  <molecular_refractivity>
60.61

>  <oscillator_strength_1>
0.0011

>  <oscillator_strength_2>
0.0122

>  <oscillator_strength_3>
0.0251

>  <oscillator_strength_4>
0.0133

>  <open_babel_can_smiles>
CCC/C=C/CCCCCOC(=O)C

>  <mulliken_charges>
36
1   -0.44169
2   -0.522207
3   -0.246208
4   -0.295315
5   -0.093401
6   -0.094835
7   -0.310266
8   -0.254077
9   -0.258578
10   -0.283752
11   -0.050656
12   0.600431
13   -0.468623
14   -0.451946
15   0.143448
16   0.141894
17   0.141958
18   0.181632
19   0.180029
20   0.18194
21   0.13182
22   0.13744
23   0.132979
24   0.13666
25   0.114117
26   0.113736
27   0.141514
28   0.136914
29   0.129854
30   0.135672
31   0.143223
32   0.131473
33   0.139816
34   0.159625
35   0.146829
36   0.168552

>  <lowdin_charges>
36
1   -0.445928
2   -0.465469
3   -0.272806
4   -0.272412
5   -0.166997
6   -0.173008
7   -0.275276
8   -0.274237
9   -0.283326
10   -0.290924
11   -0.132641
12   0.200564
13   -0.267072
14   -0.201126
15   0.150044
16   0.147041
17   0.147354
18   0.175301
19   0.177102
20   0.177221
21   0.140573
22   0.142969
23   0.144087
24   0.145605
25   0.144645
26   0.143425
27   0.14578
28   0.147922
29   0.141863
30   0.144573
31   0.148382
32   0.140513
33   0.149145
34   0.156297
35   0.151496
36   0.15932

$$$$

