PCCDB-ID:  14287
public computational chemistry database (PCCDB) project, http://pccdb.org

 20 20  0  0  0  0  0  0  0  0999 V2000
    3.6255   -0.3607    1.0124 C   0  0  0  0  0  0  0  0  0  0  0  0
    3.1442    4.7312   -0.1737 C   0  0  0  0  0  0  0  0  0  0  0  0
    2.6083   -0.0866   -0.1075 C   0  0  0  0  0  0  0  0  0  0  0  0
    3.6881    2.2009   -2.9574 C   0  0  0  0  0  0  0  0  0  0  0  0
    3.6262    3.4195   -2.2915 C   0  0  0  0  0  0  0  0  0  0  0  0
    3.3540    1.0354   -2.2673 C   0  0  0  0  0  0  0  0  0  0  0  0
    3.2291    3.4354   -0.9454 C   0  0  0  0  0  0  0  0  0  0  0  0
    2.9669    1.1338   -0.9276 C   0  0  0  0  0  0  0  0  0  0  0  0
    2.9076    2.3149   -0.2849 N   0  0  0  0  0  0  0  0  0  0  0  0
    3.3171   -1.2196    1.6190 H   0  0  0  0  0  0  0  0  0  0  0  0
    3.7101    0.5134    1.6652 H   0  0  0  0  0  0  0  0  0  0  0  0
    4.6187   -0.5743    0.6005 H   0  0  0  0  0  0  0  0  0  0  0  0
    2.4602    5.4400   -0.6565 H   0  0  0  0  0  0  0  0  0  0  0  0
    4.1242    5.2205   -0.1091 H   0  0  0  0  0  0  0  0  0  0  0  0
    2.7870    4.5324    0.8390 H   0  0  0  0  0  0  0  0  0  0  0  0
    1.6199    0.0752    0.3407 H   0  0  0  0  0  0  0  0  0  0  0  0
    2.5263   -0.9615   -0.7638 H   0  0  0  0  0  0  0  0  0  0  0  0
    3.9916    2.1565   -4.0004 H   0  0  0  0  0  0  0  0  0  0  0  0
    3.8782    4.3473   -2.7980 H   0  0  0  0  0  0  0  0  0  0  0  0
    3.3909    0.0665   -2.7570 H   0  0  0  0  0  0  0  0  0  0  0  0
  1 10  1  0  0  0  0
  1 11  1  0  0  0  0
  2 14  1  0  0  0  0
  2 15  1  0  0  0  0
  3 16  1  0  0  0  0
  3  1  1  0  0  0  0
  4  5  2  0  0  0  0
  4  6  1  0  0  0  0
  5  7  1  0  0  0  0
  6  8  2  0  0  0  0
  7  9  2  0  0  0  0
  7  2  1  0  0  0  0
  8  9  1  0  0  0  0
  8  3  1  0  0  0  0
 12  1  1  0  0  0  0
 13  2  1  0  0  0  0
 17  3  1  0  0  0  0
 18  4  1  0  0  0  0
 19  5  1  0  0  0  0
 20  6  1  0  0  0  0
M  END
>  <HBA>
1

>  <HBD>
0

>  <TPSA>
12.89

>  <cid>
14287

>  <dipole>
1.48

>  <excitation_energy_1>
4.892

>  <excitation_energy_2>
5.151

>  <excitation_energy_3>
5.266

>  <excitation_energy_4>
5.931

>  <homo_energy>
-6.55

>  <homo_lumo_gap>
6.153

>  <logP>
1.952

>  <lumo_energy>
-0.397

>  <melting_point>
26.83

>  <molecular_refractivity>
38.98

>  <oscillator_strength_1>
0.004

>  <oscillator_strength_2>
0.0

>  <oscillator_strength_3>
0.0712

>  <oscillator_strength_4>
0.0905

>  <open_babel_can_smiles>
CCc1cccc(n1)C

>  <mulliken_charges>
20
1   -0.440654
2   -0.521017
3   -0.311757
4   -0.099004
5   -0.17049
6   -0.182013
7   0.307801
8   0.30696
9   -0.517278
10   0.140838
11   0.168402
12   0.141834
13   0.158997
14   0.160017
15   0.174595
16   0.155822
17   0.133186
18   0.137051
19   0.127754
20   0.128957

>  <lowdin_charges>
20
1   -0.440989
2   -0.449956
3   -0.274195
4   -0.124651
5   -0.191151
6   -0.193599
7   0.060024
8   0.057179
9   -0.171251
10   0.149326
11   0.160417
12   0.146616
13   0.161845
14   0.160981
15   0.16879
16   0.157826
17   0.144163
18   0.159176
19   0.159885
20   0.159563

$$$$

