PCCDB-ID:  13648
public computational chemistry database (PCCDB) project, http://pccdb.org

 22 23  0  0  0  0  0  0  0  0999 V2000
    2.4294    0.7551    0.0477 C   0  0  0  0  0  0  0  0  0  0  0  0
    2.4572   -0.6583    0.1164 C   0  0  0  0  0  0  0  0  0  0  0  0
    1.2225    1.4117   -0.0260 C   0  0  0  0  0  0  0  0  0  0  0  0
    1.2849   -1.3809    0.1003 C   0  0  0  0  0  0  0  0  0  0  0  0
   -1.2547    1.3702   -0.1092 C   0  0  0  0  0  0  0  0  0  0  0  0
   -2.4295    0.6536   -0.0934 C   0  0  0  0  0  0  0  0  0  0  0  0
   -0.0073    0.7005   -0.0415 C   0  0  0  0  0  0  0  0  0  0  0  0
    0.0196   -0.7352    0.0116 C   0  0  0  0  0  0  0  0  0  0  0  0
   -2.4234   -0.7586   -0.0475 C   0  0  0  0  0  0  0  0  0  0  0  0
   -1.2138   -1.4535   -0.0315 C   0  0  0  0  0  0  0  0  0  0  0  0
   -3.6221   -1.5142   -0.0763 N   0  0  0  0  0  0  0  0  0  0  0  0
   -1.2674   -2.8598   -0.0099 N   0  0  0  0  0  0  0  0  0  0  0  0
    3.3596    1.3164    0.0612 H   0  0  0  0  0  0  0  0  0  0  0  0
    3.4098   -1.1762    0.1900 H   0  0  0  0  0  0  0  0  0  0  0  0
    1.1895    2.4981   -0.0704 H   0  0  0  0  0  0  0  0  0  0  0  0
    1.3381   -2.4627    0.1878 H   0  0  0  0  0  0  0  0  0  0  0  0
   -1.2726    2.4558   -0.1543 H   0  0  0  0  0  0  0  0  0  0  0  0
   -3.3869    1.1708   -0.1219 H   0  0  0  0  0  0  0  0  0  0  0  0
   -4.4493   -0.9281   -0.0307 H   0  0  0  0  0  0  0  0  0  0  0  0
   -3.6599   -2.1984    0.6771 H   0  0  0  0  0  0  0  0  0  0  0  0
   -2.0685   -3.1987   -0.5386 H   0  0  0  0  0  0  0  0  0  0  0  0
   -0.4229   -3.3023   -0.3533 H   0  0  0  0  0  0  0  0  0  0  0  0
  1 13  1  0  0  0  0
  1  2  2  0  0  0  0
  2 14  1  0  0  0  0
  3  1  1  0  0  0  0
  4  2  1  0  0  0  0
  4 16  1  0  0  0  0
  5  6  2  0  0  0  0
  5  7  1  0  0  0  0
  6  9  1  0  0  0  0
  7  3  2  0  0  0  0
  7  8  1  0  0  0  0
  8  4  2  0  0  0  0
  9 10  2  0  0  0  0
 10 12  1  0  0  0  0
 10  8  1  0  0  0  0
 11  9  1  0  0  0  0
 11 19  1  0  0  0  0
 11 20  1  0  0  0  0
 15  3  1  0  0  0  0
 17  5  1  0  0  0  0
 18  6  1  0  0  0  0
 21 12  1  0  0  0  0
 22 12  1  0  0  0  0
M  END
>  <HBA>
2

>  <HBD>
2

>  <TPSA>
52.04

>  <cid>
13648

>  <dipole>
1.44

>  <excitation_energy_1>
3.597

>  <excitation_energy_2>
4.138

>  <excitation_energy_3>
4.17

>  <excitation_energy_4>
4.642

>  <homo_energy>
-4.762

>  <homo_lumo_gap>
4.144

>  <logP>
3.167

>  <lumo_energy>
-0.618

>  <melting_point>
147.97

>  <molecular_refractivity>
52.76

>  <oscillator_strength_1>
0.0586

>  <oscillator_strength_2>
0.03

>  <oscillator_strength_3>
0.0124

>  <oscillator_strength_4>
0.0017

>  <open_babel_can_smiles>
Nc1ccc2c(c1N)cccc2

>  <mulliken_charges>
22
1   -0.136859
2   -0.137745
3   -0.19977
4   -0.20385
5   -0.211854
6   -0.178802
7   0.137222
8   0.113526
9   0.254421
10   0.165353
11   -0.813842
12   -0.805319
13   0.124001
14   0.123698
15   0.125029
16   0.11871
17   0.121336
18   0.115243
19   0.316796
20   0.32498
21   0.328914
22   0.318814

>  <lowdin_charges>
22
1   -0.169328
2   -0.160517
3   -0.15125
4   -0.16782
5   -0.176086
6   -0.181158
7   -0.003849
8   -0.023226
9   0.007785
10   0.021832
11   -0.50898
12   -0.502633
13   0.156326
14   0.15575
15   0.15325
16   0.149043
17   0.153428
18   0.152099
19   0.271041
20   0.274836
21   0.277792
22   0.271664

$$$$

