PCCDB-ID:  27824
public computational chemistry database (PCCDB) project, http://pccdb.org

 20 19  0  0  0  0  0  0  0  0999 V2000
   -0.8304    1.7312   -1.1287 C   0  0  0  0  0  0  0  0  0  0  0  0
    2.6697    4.2385    0.3524 C   0  0  0  0  0  0  0  0  0  0  0  0
    0.7174    3.1650    1.5992 C   0  0  0  0  0  0  0  0  0  0  0  0
    0.4230    2.5695   -1.3969 C   0  0  0  0  0  0  0  0  0  0  0  0
    1.9259    2.9369    0.6876 C   0  0  0  0  0  0  0  0  0  0  0  0
    2.3709    1.2811   -1.0773 N   0  0  0  0  0  0  0  0  0  0  0  0
    1.5657    2.2177   -0.5504 N   0  0  0  0  0  0  0  0  0  0  0  0
    3.3826    1.0134   -0.4322 O   0  0  0  0  0  0  0  0  0  0  0  0
   -1.6277    2.0188   -1.8238 H   0  0  0  0  0  0  0  0  0  0  0  0
   -1.2030    1.8660   -0.1091 H   0  0  0  0  0  0  0  0  0  0  0  0
   -0.6113    0.6692   -1.2780 H   0  0  0  0  0  0  0  0  0  0  0  0
    3.0038    4.7302    1.2732 H   0  0  0  0  0  0  0  0  0  0  0  0
    2.0267    4.9428   -0.1895 H   0  0  0  0  0  0  0  0  0  0  0  0
    3.5502    4.0273   -0.2616 H   0  0  0  0  0  0  0  0  0  0  0  0
    1.0543    3.6325    2.5312 H   0  0  0  0  0  0  0  0  0  0  0  0
    0.2249    2.2215    1.8540 H   0  0  0  0  0  0  0  0  0  0  0  0
   -0.0242    3.8352    1.1489 H   0  0  0  0  0  0  0  0  0  0  0  0
    0.2171    3.6362   -1.2602 H   0  0  0  0  0  0  0  0  0  0  0  0
    0.7453    2.4288   -2.4324 H   0  0  0  0  0  0  0  0  0  0  0  0
    2.6269    2.2613    1.1843 H   0  0  0  0  0  0  0  0  0  0  0  0
  1 10  1  0  0  0  0
  2  5  1  0  0  0  0
  2 12  1  0  0  0  0
  3 16  1  0  0  0  0
  3 15  1  0  0  0  0
  4 18  1  0  0  0  0
  4  1  1  0  0  0  0
  4  7  1  0  0  0  0
  5 20  1  0  0  0  0
  5  3  1  0  0  0  0
  6  7  1  0  0  0  0
  6  8  2  0  0  0  0
  7  5  1  0  0  0  0
  9  1  1  0  0  0  0
 11  1  1  0  0  0  0
 13  2  1  0  0  0  0
 14  2  1  0  0  0  0
 17  3  1  0  0  0  0
 19  4  1  0  0  0  0
M  END
>  <HBA>
3

>  <HBD>
0

>  <TPSA>
32.67

>  <cid>
27824

>  <dipole>
4.03

>  <excitation_energy_1>
3.322

>  <excitation_energy_2>
5.556

>  <excitation_energy_3>
5.713

>  <excitation_energy_4>
6.006

>  <homo_energy>
-5.886

>  <homo_lumo_gap>
5.159

>  <logP>
1.398

>  <lumo_energy>
-0.727

>  <melting_point>
-4.21

>  <molecular_refractivity>
33.78

>  <oscillator_strength_1>
0.0009

>  <oscillator_strength_2>
0.0289

>  <oscillator_strength_3>
0.1336

>  <oscillator_strength_4>
0.0066

>  <open_babel_can_smiles>
CCN(C(C)C)N=O

>  <mulliken_charges>
20
1   -0.445716
2   -0.443924
3   -0.45442
4   -0.136931
5   0.022373
6   0.151526
7   -0.227816
8   -0.386615
9   0.149503
10   0.155891
11   0.169815
12   0.151611
13   0.142792
14   0.171592
15   0.157273
16   0.162247
17   0.146425
18   0.154775
19   0.175463
20   0.184138

>  <lowdin_charges>
20
1   -0.451102
2   -0.450105
3   -0.449698
4   -0.1961
5   -0.073326
6   0.048102
7   -0.047202
8   -0.277296
9   0.156683
10   0.153471
11   0.160761
12   0.156772
13   0.148731
14   0.164988
15   0.160325
16   0.158773
17   0.150097
18   0.149764
19   0.164159
20   0.172202

$$$$

