PCCDB-ID:  1303
public computational chemistry database (PCCDB) project, http://pccdb.org

 22 22  0  0  1  0  0  0  0  0999 V2000
    3.3063    0.7674   -0.8346 C   0  0  0  0  0  0  0  0  0  0  0  0
    4.1793   -4.1958    0.1176 C   0  0  0  0  0  0  0  0  0  0  0  0
    2.8440   -4.0250   -0.2431 C   0  0  0  0  0  0  0  0  0  0  0  0
    4.9478   -3.0795    0.4560 C   0  0  0  0  0  0  0  0  0  0  0  0
    2.2828   -2.7462   -0.2762 C   0  0  0  0  0  0  0  0  0  0  0  0
    4.3912   -1.8026    0.4182 C   0  0  0  0  0  0  0  0  0  0  0  0
    3.0530   -1.6202    0.0373 C   0  0  0  0  0  0  0  0  0  0  0  0
    2.3065    0.3237    1.4307 C   0  0  0  0  0  0  0  0  0  0  0  0
    2.4483   -0.2106   -0.0189 C   0  0  1  0  0  0  0  0  0  0  0  0
    3.2601    0.6771    2.0809 O   0  0  0  0  0  0  0  0  0  0  0  0
    1.0532    0.3466    1.9115 O   0  0  0  0  0  0  0  0  0  0  0  0
    1.1119   -0.2305   -0.5472 O   0  0  0  0  0  0  0  0  0  0  0  0
    4.2788    0.9236   -0.3649 H   0  0  0  0  0  0  0  0  0  0  0  0
    2.7961    1.7331   -0.9023 H   0  0  0  0  0  0  0  0  0  0  0  0
    3.4639    0.3757   -1.8459 H   0  0  0  0  0  0  0  0  0  0  0  0
    4.6168   -5.1900    0.1455 H   0  0  0  0  0  0  0  0  0  0  0  0
    2.2300   -4.8861   -0.4930 H   0  0  0  0  0  0  0  0  0  0  0  0
    5.9857   -3.2024    0.7531 H   0  0  0  0  0  0  0  0  0  0  0  0
    1.2340   -2.6310   -0.5300 H   0  0  0  0  0  0  0  0  0  0  0  0
    4.9887   -0.9470    0.7135 H   0  0  0  0  0  0  0  0  0  0  0  0
    0.4584    0.0588    1.1896 H   0  0  0  0  0  0  0  0  0  0  0  0
    1.1351   -0.6230   -1.4341 H   0  0  0  0  0  0  0  0  0  0  0  0
  1 13  1  0  0  0  0
  1  9  1  0  0  0  0
  2 16  1  0  0  0  0
  2  4  2  0  0  0  0
  3  2  1  0  0  0  0
  4 18  1  0  0  0  0
  5  3  2  0  0  0  0
  5  7  1  0  0  0  0
  6  4  1  0  0  0  0
  6 20  1  0  0  0  0
  7  6  2  0  0  0  0
  8 11  1  0  0  0  0
  8 10  2  0  0  0  0
  9 12  1  6  0  0  0
  9  7  1  0  0  0  0
  9  8  1  0  0  0  0
 14  1  1  0  0  0  0
 15  1  1  0  0  0  0
 17  3  1  0  0  0  0
 19  5  1  0  0  0  0
 21 11  1  0  0  0  0
 22 12  1  0  0  0  0
M  END
>  <HBA>
3

>  <HBD>
2

>  <TPSA>
57.53

>  <cid>
1303

>  <dipole>
4.67

>  <excitation_energy_1>
5.253

>  <excitation_energy_2>
5.427

>  <excitation_energy_3>
5.845

>  <excitation_energy_4>
5.95

>  <homo_energy>
-6.803

>  <homo_lumo_gap>
6.291

>  <logP>
0.979

>  <lumo_energy>
-0.512

>  <melting_point>
108.54

>  <molecular_refractivity>
43.84

>  <oscillator_strength_1>
0.0014

>  <oscillator_strength_2>
0.0636

>  <oscillator_strength_3>
0.0219

>  <oscillator_strength_4>
0.015

>  <open_babel_can_smiles>
OC(=O)[C@@](c1ccccc1)(O)C

>  <mulliken_charges>
22
1   -0.454554
2   -0.124077
3   -0.127711
4   -0.134351
5   -0.195257
6   -0.166408
7   0.126304
8   0.622611
9   0.134126
10   -0.459181
11   -0.57687
12   -0.677263
13   0.183375
14   0.165784
15   0.146021
16   0.134558
17   0.133654
18   0.137705
19   0.125027
20   0.157461
21   0.440095
22   0.408951

>  <lowdin_charges>
22
1   -0.444586
2   -0.152781
3   -0.154232
4   -0.147635
5   -0.174577
6   -0.154885
7   -0.024278
8   0.191719
9   0.087136
10   -0.249385
11   -0.340947
12   -0.457882
13   0.173932
14   0.163168
15   0.152286
16   0.159875
17   0.160478
18   0.160283
19   0.154713
20   0.172195
21   0.369635
22   0.355767

$$$$

