PCCDB-ID:  35430
public computational chemistry database (PCCDB) project, http://pccdb.org

 30 30  0  0  1  0  0  0  0  0999 V2000
   -0.9482   -0.4691   -2.6860 C   0  0  0  0  0  0  0  0  0  0  0  0
    5.9632    5.4159   -4.8867 C   0  0  0  0  0  0  0  0  0  0  0  0
    6.2316    4.9936   -3.5843 C   0  0  0  0  0  0  0  0  0  0  0  0
    5.1736    4.6201   -5.7232 C   0  0  0  0  0  0  0  0  0  0  0  0
    5.7120    3.7858   -3.1230 C   0  0  0  0  0  0  0  0  0  0  0  0
    4.6546    3.4150   -5.2621 C   0  0  0  0  0  0  0  0  0  0  0  0
    4.3862    1.7209   -3.4054 C   0  0  0  0  0  0  0  0  0  0  0  0
    3.4964    0.8842   -3.9779 C   0  0  0  0  0  0  0  0  0  0  0  0
    0.9052   -0.4143   -4.4436 C   0  0  0  0  0  0  0  0  0  0  0  0
   -0.4515   -1.0192   -4.0262 C   0  0  1  0  0  0  0  0  0  0  0  0
    4.9102    2.9769   -3.9485 C   0  0  0  0  0  0  0  0  0  0  0  0
    3.0267   -0.3672   -3.3511 C   0  0  0  0  0  0  0  0  0  0  0  0
    1.9270   -0.9680   -3.5688 N   0  0  0  0  0  0  0  0  0  0  0  0
   -0.3390   -2.4346   -3.9966 O   0  0  0  0  0  0  0  0  0  0  0  0
    3.8580   -0.9379   -2.4227 O   0  0  0  0  0  0  0  0  0  0  0  0
   -1.1314    0.6118   -2.7397 H   0  0  0  0  0  0  0  0  0  0  0  0
   -0.2085   -0.6539   -1.8988 H   0  0  0  0  0  0  0  0  0  0  0  0
   -1.8817   -0.9662   -2.4048 H   0  0  0  0  0  0  0  0  0  0  0  0
    6.3680    6.3558   -5.2513 H   0  0  0  0  0  0  0  0  0  0  0  0
    6.8456    5.6035   -2.9274 H   0  0  0  0  0  0  0  0  0  0  0  0
    4.9666    4.9399   -6.7408 H   0  0  0  0  0  0  0  0  0  0  0  0
    5.9221    3.4616   -2.1063 H   0  0  0  0  0  0  0  0  0  0  0  0
    4.0533    2.8054   -5.9301 H   0  0  0  0  0  0  0  0  0  0  0  0
    4.7499    1.4766   -2.4067 H   0  0  0  0  0  0  0  0  0  0  0  0
    3.0543    1.1240   -4.9399 H   0  0  0  0  0  0  0  0  0  0  0  0
    0.8523    0.6844   -4.4243 H   0  0  0  0  0  0  0  0  0  0  0  0
    1.1102   -0.7283   -5.4778 H   0  0  0  0  0  0  0  0  0  0  0  0
   -1.1869   -0.7886   -4.8073 H   0  0  0  0  0  0  0  0  0  0  0  0
    0.5003   -2.5997   -3.5263 H   0  0  0  0  0  0  0  0  0  0  0  0
    4.7600   -0.6187   -2.5823 H   0  0  0  0  0  0  0  0  0  0  0  0
  1 18  1  0  0  0  0
  1 17  1  0  0  0  0
  2  3  2  0  0  0  0
  3  5  1  0  0  0  0
  3 20  1  0  0  0  0
  4  6  2  0  0  0  0
  4  2  1  0  0  0  0
  5 22  1  0  0  0  0
  6 11  1  0  0  0  0
  7 24  1  0  0  0  0
  8  7  2  0  0  0  0
  8 12  1  0  0  0  0
  9 26  1  0  0  0  0
  9 10  1  0  0  0  0
  9 13  1  0  0  0  0
 10 28  1  6  0  0  0
 10 14  1  0  0  0  0
 10  1  1  0  0  0  0
 11  7  1  0  0  0  0
 11  5  2  0  0  0  0
 12 15  1  0  0  0  0
 13 12  2  0  0  0  0
 14 29  1  0  0  0  0
 16  1  1  0  0  0  0
 19  2  1  0  0  0  0
 21  4  1  0  0  0  0
 23  6  1  0  0  0  0
 25  8  1  0  0  0  0
 27  9  1  0  0  0  0
 30 15  1  0  0  0  0
M  END
>  <HBA>
3

>  <HBD>
2

>  <TPSA>
49.33

>  <cid>
35430

>  <dipole>
6.57

>  <excitation_energy_1>
3.909

>  <excitation_energy_2>
4.161

>  <excitation_energy_3>
4.434

>  <excitation_energy_4>
4.525

>  <homo_energy>
-6.365

>  <homo_lumo_gap>
4.408

>  <logP>
1.588

>  <lumo_energy>
-1.957

>  <melting_point>
91.37

>  <molecular_refractivity>
59.92

>  <oscillator_strength_1>
0.0704

>  <oscillator_strength_2>
0.5483

>  <oscillator_strength_3>
0.0616

>  <oscillator_strength_4>
0.007

>  <open_babel_can_smiles>
C[C@@H](C/N=C(\C=C\c1ccccc1)/O)O

>  <mulliken_charges>
30
1   -0.452925
2   -0.123983
3   -0.130248
4   -0.130189
5   -0.190085
6   -0.175821
7   -0.192802
8   -0.188467
9   -0.15554
10   0.146247
11   0.170515
12   0.483878
13   -0.45796
14   -0.639588
15   -0.58972
16   0.125677
17   0.154014
18   0.15367
19   0.139893
20   0.139973
21   0.140031
22   0.136329
23   0.136403
24   0.139638
25   0.156126
26   0.126579
27   0.149326
28   0.12227
29   0.40421
30   0.402547

>  <lowdin_charges>
30
1   -0.462132
2   -0.145688
3   -0.153486
4   -0.149009
5   -0.15164
6   -0.150572
7   -0.136677
8   -0.203019
9   -0.219211
10   -0.002794
11   -0.008192
12   0.127857
13   -0.207112
14   -0.472123
15   -0.370095
16   0.141666
17   0.15524
18   0.157029
19   0.162929
20   0.164405
21   0.161792
22   0.158928
23   0.162081
24   0.157827
25   0.16883
26   0.131979
27   0.14862
28   0.137862
29   0.341521
30   0.353183

$$$$

