PCCDB-ID:  66356
public computational chemistry database (PCCDB) project, http://pccdb.org

 29 28  0  0  0  0  0  0  0  0999 V2000
    9.7515   -1.4849    0.4446 C   0  0  0  0  0  0  0  0  0  0  0  0
    6.4835    4.1040   -1.0672 C   0  0  0  0  0  0  0  0  0  0  0  0
    4.2677    4.9240   -0.1389 C   0  0  0  0  0  0  0  0  0  0  0  0
    8.3731   -1.6730   -0.1971 C   0  0  0  0  0  0  0  0  0  0  0  0
    7.4420   -0.4754    0.0280 C   0  0  0  0  0  0  0  0  0  0  0  0
    6.0544   -0.6712   -0.6164 C   0  0  0  0  0  0  0  0  0  0  0  0
    4.4180    2.6296   -1.1266 C   0  0  0  0  0  0  0  0  0  0  0  0
    5.1826    3.7097   -0.3559 C   0  0  0  0  0  0  0  0  0  0  0  0
    5.1460    0.5047   -0.3245 C   0  0  0  0  0  0  0  0  0  0  0  0
    4.4786    0.6289    0.6809 O   0  0  0  0  0  0  0  0  0  0  0  0
    5.2035    1.4291   -1.3149 O   0  0  0  0  0  0  0  0  0  0  0  0
   10.3945   -2.3543    0.2677 H   0  0  0  0  0  0  0  0  0  0  0  0
    9.6681   -1.3464    1.5294 H   0  0  0  0  0  0  0  0  0  0  0  0
   10.2621   -0.6041    0.0365 H   0  0  0  0  0  0  0  0  0  0  0  0
    7.0489    4.8308   -0.4728 H   0  0  0  0  0  0  0  0  0  0  0  0
    6.2732    4.5625   -2.0427 H   0  0  0  0  0  0  0  0  0  0  0  0
    7.1237    3.2327   -1.2383 H   0  0  0  0  0  0  0  0  0  0  0  0
    4.7847    5.7013    0.4345 H   0  0  0  0  0  0  0  0  0  0  0  0
    3.3590    4.6510    0.4103 H   0  0  0  0  0  0  0  0  0  0  0  0
    3.9635    5.3673   -1.0962 H   0  0  0  0  0  0  0  0  0  0  0  0
    7.9001   -2.5791    0.2068 H   0  0  0  0  0  0  0  0  0  0  0  0
    8.4900   -1.8437   -1.2765 H   0  0  0  0  0  0  0  0  0  0  0  0
    7.9055    0.4328   -0.3807 H   0  0  0  0  0  0  0  0  0  0  0  0
    7.3111   -0.3056    1.1048 H   0  0  0  0  0  0  0  0  0  0  0  0
    5.5779   -1.5641   -0.1987 H   0  0  0  0  0  0  0  0  0  0  0  0
    6.1567   -0.8012   -1.6987 H   0  0  0  0  0  0  0  0  0  0  0  0
    4.1834    2.9667   -2.1415 H   0  0  0  0  0  0  0  0  0  0  0  0
    3.4939    2.3641   -0.6069 H   0  0  0  0  0  0  0  0  0  0  0  0
    5.4302    3.2874    0.6270 H   0  0  0  0  0  0  0  0  0  0  0  0
  1 13  1  0  0  0  0
  2 15  1  0  0  0  0
  2  8  1  0  0  0  0
  3 19  1  0  0  0  0
  3 18  1  0  0  0  0
  4  5  1  0  0  0  0
  4 21  1  0  0  0  0
  4  1  1  0  0  0  0
  5 24  1  0  0  0  0
  6  9  1  0  0  0  0
  6 25  1  0  0  0  0
  6  5  1  0  0  0  0
  7 28  1  0  0  0  0
  7  8  1  0  0  0  0
  8  3  1  0  0  0  0
  8 29  1  0  0  0  0
  9 10  2  0  0  0  0
 11  7  1  0  0  0  0
 11  9  1  0  0  0  0
 12  1  1  0  0  0  0
 14  1  1  0  0  0  0
 16  2  1  0  0  0  0
 17  2  1  0  0  0  0
 20  3  1  0  0  0  0
 22  4  1  0  0  0  0
 23  5  1  0  0  0  0
 26  6  1  0  0  0  0
 27  7  1  0  0  0  0
M  END
>  <HBA>
2

>  <HBD>
0

>  <TPSA>
26.3

>  <cid>
66356

>  <dipole>
1.68

>  <excitation_energy_1>
5.725

>  <excitation_energy_2>
6.997

>  <excitation_energy_3>
7.267

>  <excitation_energy_4>
7.356

>  <homo_energy>
-7.162

>  <homo_lumo_gap>
7.581

>  <logP>
2.376

>  <lumo_energy>
0.419

>  <melting_point>
-16.11

>  <molecular_refractivity>
46.66

>  <oscillator_strength_1>
0.0021

>  <oscillator_strength_2>
0.0071

>  <oscillator_strength_3>
0.0161

>  <oscillator_strength_4>
0.0147

>  <open_babel_can_smiles>
CCCCC(=O)OCC(C)C

>  <mulliken_charges>
29
1   -0.44317
2   -0.44545
3   -0.452248
4   -0.247882
5   -0.264334
6   -0.330862
7   -0.040306
8   -0.095346
9   0.601256
10   -0.47877
11   -0.463079
12   0.145323
13   0.145709
14   0.143709
15   0.143325
16   0.137322
17   0.154962
18   0.149202
19   0.150869
20   0.140098
21   0.136303
22   0.134404
23   0.144888
24   0.152578
25   0.164187
26   0.157517
27   0.142785
28   0.166476
29   0.150533

>  <lowdin_charges>
29
1   -0.443187
2   -0.448735
3   -0.445371
4   -0.27015
5   -0.267176
6   -0.294595
7   -0.134784
8   -0.132675
9   0.197985
10   -0.272425
11   -0.19621
12   0.151975
13   0.146763
14   0.148237
15   0.151519
16   0.144781
17   0.153913
18   0.155202
19   0.153143
20   0.146079
21   0.142218
22   0.138917
23   0.145198
24   0.148282
25   0.165511
26   0.158299
27   0.147932
28   0.158955
29   0.150399

$$$$

