PCCDB-ID:  15247
public computational chemistry database (PCCDB) project, http://pccdb.org

 19 19  0  0  1  0  0  0  0  0999 V2000
    0.9358   -0.3459   -0.3670 C   0  0  0  0  0  0  0  0  0  0  0  0
    4.5040    1.0674    2.8918 C   0  0  0  0  0  0  0  0  0  0  0  0
    3.0608   -1.0829    0.8834 C   0  0  0  0  0  0  0  0  0  0  0  0
    2.7450   -0.7286    2.3425 C   0  0  0  0  0  0  0  0  0  0  0  0
    2.3909   -0.0259   -0.0143 C   0  0  2  0  0  0  0  0  0  0  0  0
    3.0442    0.7693    2.5390 C   0  0  2  0  0  0  0  0  0  0  0  0
    2.5396    1.5718    0.9342 S   0  0  0  0  0  0  0  0  0  0  0  0
    0.8872   -1.2491   -0.9903 H   0  0  0  0  0  0  0  0  0  0  0  0
    0.4754    0.4753   -0.9254 H   0  0  0  0  0  0  0  0  0  0  0  0
    0.3325   -0.5151    0.5315 H   0  0  0  0  0  0  0  0  0  0  0  0
    4.7488    0.6467    3.8765 H   0  0  0  0  0  0  0  0  0  0  0  0
    4.6887    2.1456    2.9289 H   0  0  0  0  0  0  0  0  0  0  0  0
    5.1902    0.6385    2.1537 H   0  0  0  0  0  0  0  0  0  0  0  0
    2.7107   -2.0902    0.6252 H   0  0  0  0  0  0  0  0  0  0  0  0
    4.1454   -1.0667    0.7240 H   0  0  0  0  0  0  0  0  0  0  0  0
    3.3292   -1.3371    3.0441 H   0  0  0  0  0  0  0  0  0  0  0  0
    1.6860   -0.9218    2.5503 H   0  0  0  0  0  0  0  0  0  0  0  0
    2.9629    0.1029   -0.9386 H   0  0  0  0  0  0  0  0  0  0  0  0
    2.3956    1.1858    3.3162 H   0  0  0  0  0  0  0  0  0  0  0  0
  1  5  1  0  0  0  0
  1 10  1  0  0  0  0
  2 12  1  0  0  0  0
  2 11  1  0  0  0  0
  3  4  1  0  0  0  0
  4  6  1  0  0  0  0
  4 17  1  0  0  0  0
  4 16  1  0  0  0  0
  5 18  1  6  0  0  0
  5  3  1  0  0  0  0
  5  7  1  0  0  0  0
  6  2  1  0  0  0  0
  6 19  1  1  0  0  0
  7  6  1  0  0  0  0
  8  1  1  0  0  0  0
  9  1  1  0  0  0  0
 13  2  1  0  0  0  0
 14  3  1  0  0  0  0
 15  3  1  0  0  0  0
M  END
>  <HBA>
1

>  <HBD>
0

>  <TPSA>
25.3

>  <cid>
15247

>  <dipole>
2.04

>  <excitation_energy_1>
5.035

>  <excitation_energy_2>
5.223

>  <excitation_energy_3>
5.692

>  <excitation_energy_4>
5.896

>  <homo_energy>
-5.753

>  <homo_lumo_gap>
6.751

>  <logP>
2.29

>  <lumo_energy>
0.999

>  <melting_point>
4.99

>  <molecular_refractivity>
36.43

>  <oscillator_strength_1>
0.0004

>  <oscillator_strength_2>
0.0381

>  <oscillator_strength_3>
0.0053

>  <oscillator_strength_4>
0.0007

>  <open_babel_can_smiles>
C[C@@H]1CC[C@H](S1)C

>  <mulliken_charges>
19
1   -0.432925
2   -0.432707
3   -0.266832
4   -0.267157
5   -0.232691
6   -0.232679
7   0.048764
8   0.140367
9   0.158654
10   0.15321
11   0.140341
12   0.158654
13   0.153134
14   0.143714
15   0.148152
16   0.143637
17   0.148301
18   0.164038
19   0.164024

>  <lowdin_charges>
19
1   -0.44915
2   -0.446715
3   -0.279262
4   -0.281874
5   -0.212525
6   -0.213702
7   0.052154
8   0.147116
9   0.159462
10   0.153029
11   0.146579
12   0.156763
13   0.153775
14   0.150201
15   0.147477
16   0.152236
17   0.148063
18   0.157688
19   0.158684

$$$$

