PCCDB-ID:  947
public computational chemistry database (PCCDB) project, http://pccdb.org

  2  1  0  0  0  0  0  0  0  0999 V2000
    0.9579   -0.0696    0.0557 N   0  0  0  0  0  0  0  0  0  0  0  0
    2.0633   -0.0696    0.0557 N   0  0  0  0  0  0  0  0  0  0  0  0
  1  2  3  0  0  0  0
M  END
>  <HBA>
2

>  <HBD>
0

>  <TPSA>
47.58

>  <cid>
947

>  <dipole>
0.0

>  <excitation_energy_1>
9.149

>  <excitation_energy_2>
9.149

>  <excitation_energy_3>
9.184

>  <excitation_energy_4>
9.599

>  <homo_energy>
-11.617

>  <homo_lumo_gap>
10.961

>  <logP>
0.03

>  <lumo_energy>
-0.656

>  <melting_point>
27.88

>  <molecular_refractivity>
3.45

>  <oscillator_strength_1>
0.0

>  <oscillator_strength_2>
0.0

>  <oscillator_strength_3>
0.0

>  <oscillator_strength_4>
0.0

>  <open_babel_can_smiles>
N#N

>  <mulliken_charges>
2
1   3.7e-05
2   -3.7e-05

>  <lowdin_charges>
2
1   3e-06
2   -3e-06

$$$$

