PCCDB-ID:  25884
public computational chemistry database (PCCDB) project, http://pccdb.org

 25 25  0  0  0  0  0  0  0  0999 V2000
    0.7556    0.2740    0.0739 C   0  0  0  0  0  0  0  0  0  0  0  0
    2.8009   -1.1386   -0.4371 C   0  0  0  0  0  0  0  0  0  0  0  0
    3.1353    1.1068    0.3390 C   0  0  0  0  0  0  0  0  0  0  0  0
    4.1845   -1.3139   -0.5200 C   0  0  0  0  0  0  0  0  0  0  0  0
    4.5138    0.9356    0.2530 C   0  0  0  0  0  0  0  0  0  0  0  0
    6.5598   -0.4642   -0.2993 C   0  0  0  0  0  0  0  0  0  0  0  0
    2.2513    0.0730   -0.0077 C   0  0  0  0  0  0  0  0  0  0  0  0
    5.0618   -0.2807   -0.1815 C   0  0  0  0  0  0  0  0  0  0  0  0
    8.6253   -0.0108    0.9470 C   0  0  0  0  0  0  0  0  0  0  0  0
    9.2996   -0.1618   -0.1346 N   0  0  0  0  0  0  0  0  0  0  0  0
    9.1255    0.1975    2.2453 N   0  0  0  0  0  0  0  0  0  0  0  0
    7.2369   -0.0700    0.9352 N   0  0  0  0  0  0  0  0  0  0  0  0
    0.2166   -0.6656   -0.0837 H   0  0  0  0  0  0  0  0  0  0  0  0
    0.4060    0.9867   -0.6844 H   0  0  0  0  0  0  0  0  0  0  0  0
    0.4560    0.6735    1.0504 H   0  0  0  0  0  0  0  0  0  0  0  0
    2.1405   -1.9603   -0.7054 H   0  0  0  0  0  0  0  0  0  0  0  0
    2.7345    2.0596    0.6798 H   0  0  0  0  0  0  0  0  0  0  0  0
    4.5850   -2.2690   -0.8532 H   0  0  0  0  0  0  0  0  0  0  0  0
    5.1807    1.7480    0.5297 H   0  0  0  0  0  0  0  0  0  0  0  0
    6.9740    0.1596   -1.0981 H   0  0  0  0  0  0  0  0  0  0  0  0
    6.7942   -1.5027   -0.5763 H   0  0  0  0  0  0  0  0  0  0  0  0
   10.2910    0.0268    0.0249 H   0  0  0  0  0  0  0  0  0  0  0  0
   10.1102    0.4350    2.2627 H   0  0  0  0  0  0  0  0  0  0  0  0
    8.5814    0.8585    2.7909 H   0  0  0  0  0  0  0  0  0  0  0  0
    6.8404   -0.4898    1.7691 H   0  0  0  0  0  0  0  0  0  0  0  0
  1 15  1  0  0  0  0
  2  7  1  0  0  0  0
  3 17  1  0  0  0  0
  4  2  2  0  0  0  0
  4  8  1  0  0  0  0
  5  3  1  0  0  0  0
  5 19  1  0  0  0  0
  6  8  1  0  0  0  0
  6 12  1  0  0  0  0
  7  1  1  0  0  0  0
  7  3  2  0  0  0  0
  8  5  2  0  0  0  0
  9 11  2  0  0  0  0
 10 22  1  0  0  0  0
 10  9  1  0  0  0  0
 11 23  1  0  0  0  0
 11 24  1  0  0  0  0
 12  9  1  0  0  0  0
 12 25  1  0  0  0  0
 13  1  1  0  0  0  0
 14  1  1  0  0  0  0
 16  2  1  0  0  0  0
 18  4  1  0  0  0  0
 20  6  1  0  0  0  0
 21  6  1  0  0  0  0
M  RAD  1  10   2
M  END
>  <HBA>
3

>  <HBD>
2

>  <TPSA>
64.4

>  <cid>
25884

>  <dipole>
2.79

>  <excitation_energy_1>
5.147

>  <excitation_energy_2>
5.234

>  <excitation_energy_3>
5.441

>  <excitation_energy_4>
5.514

>  <homo_energy>
-6.022

>  <homo_lumo_gap>
6.104

>  <logP>
2.169

>  <lumo_energy>
0.082

>  <melting_point>
137.69

>  <molecular_refractivity>
50.28

>  <oscillator_strength_1>
0.0059

>  <oscillator_strength_2>
0.0046

>  <oscillator_strength_3>
0.0009

>  <oscillator_strength_4>
0.0174

>  <open_babel_can_smiles>
[NH]C(=[NH2])NCc1ccc(cc1)C

>  <mulliken_charges>
25
1   -0.530239
2   -0.182546
3   -0.179003
4   -0.18663
5   -0.164723
6   -0.177251
7   0.178946
8   0.125436
9   0.588875
10   -0.645452
11   -0.756477
12   -0.604819
13   0.154439
14   0.163808
15   0.158782
16   0.120702
17   0.119751
18   0.125569
19   0.132215
20   0.188569
21   0.148386
22   0.263487
23   0.317895
24   0.321402
25   0.318877

>  <lowdin_charges>
25
1   -0.443404
2   -0.170239
3   -0.165713
4   -0.165384
5   -0.15999
6   -0.18658
7   -0.000282
8   -0.021576
9   0.123559
10   -0.475801
11   -0.513697
12   -0.310773
13   0.156497
14   0.161983
15   0.158662
16   0.15469
17   0.153013
18   0.155453
19   0.160898
20   0.174529
21   0.142378
22   0.244506
23   0.273351
24   0.278482
25   0.275437

$$$$

