PCCDB-ID:  54794
public computational chemistry database (PCCDB) project, http://pccdb.org

 25 25  0  0  1  0  0  0  0  0999 V2000
    1.0977   -0.0393    0.5265 C   0  0  0  0  0  0  0  0  0  0  0  0
    1.6974   -1.6146   -3.2086 C   0  0  0  0  0  0  0  0  0  0  0  0
    2.1345    2.6922   -2.3803 C   0  0  0  0  0  0  0  0  0  0  0  0
    4.2407    0.5150   -1.5235 C   0  0  0  0  0  0  0  0  0  0  0  0
    2.5307   -0.1115    0.0020 C   0  0  2  0  0  0  0  0  0  0  0  0
    1.7461   -1.9054   -1.7271 C   0  0  0  0  0  0  0  0  0  0  0  0
    2.9936    1.0878   -0.8435 C   0  0  2  0  0  0  0  0  0  0  0  0
    2.9092   -1.3233   -0.9057 C   0  0  1  0  0  0  0  0  0  0  0  0
    0.9147   -2.5889   -1.1569 O   0  0  0  0  0  0  0  0  0  0  0  0
    1.9703    1.4259   -1.7710 O   0  0  0  0  0  0  0  0  0  0  0  0
    3.9728   -0.8700   -1.7490 O   0  0  0  0  0  0  0  0  0  0  0  0
    0.9982    0.7988    1.2257 H   0  0  0  0  0  0  0  0  0  0  0  0
    0.8290   -0.9611    1.0497 H   0  0  0  0  0  0  0  0  0  0  0  0
    0.3818    0.1091   -0.2841 H   0  0  0  0  0  0  0  0  0  0  0  0
    2.6124   -1.9699   -3.6949 H   0  0  0  0  0  0  0  0  0  0  0  0
    1.6551   -0.5311   -3.3633 H   0  0  0  0  0  0  0  0  0  0  0  0
    0.8213   -2.0986   -3.6449 H   0  0  0  0  0  0  0  0  0  0  0  0
    1.2589    2.8555   -3.0134 H   0  0  0  0  0  0  0  0  0  0  0  0
    3.0373    2.7432   -3.0073 H   0  0  0  0  0  0  0  0  0  0  0  0
    2.1874    3.4940   -1.6275 H   0  0  0  0  0  0  0  0  0  0  0  0
    5.1213    0.6331   -0.8728 H   0  0  0  0  0  0  0  0  0  0  0  0
    4.4607    0.9850   -2.4876 H   0  0  0  0  0  0  0  0  0  0  0  0
    3.2140   -0.1531    0.8607 H   0  0  0  0  0  0  0  0  0  0  0  0
    3.2287    1.9621   -0.2171 H   0  0  0  0  0  0  0  0  0  0  0  0
    3.2737   -2.1507   -0.2832 H   0  0  0  0  0  0  0  0  0  0  0  0
  1 13  1  0  0  0  0
  1 12  1  0  0  0  0
  2  6  1  0  0  0  0
  3 10  1  0  0  0  0
  3 20  1  0  0  0  0
  4 21  1  0  0  0  0
  4  7  1  0  0  0  0
  5  1  1  0  0  0  0
  5 23  1  1  0  0  0
  6  9  2  0  0  0  0
  6  8  1  0  0  0  0
  7 24  1  1  0  0  0
  7  5  1  0  0  0  0
  8 25  1  1  0  0  0
  8  5  1  0  0  0  0
 10  7  1  0  0  0  0
 11  4  1  0  0  0  0
 11  8  1  0  0  0  0
 14  1  1  0  0  0  0
 15  2  1  0  0  0  0
 16  2  1  0  0  0  0
 17  2  1  0  0  0  0
 18  3  1  0  0  0  0
 19  3  1  0  0  0  0
 22  4  1  0  0  0  0
M  END
>  <HBA>
3

>  <HBD>
0

>  <TPSA>
35.53

>  <cid>
54794

>  <dipole>
4.18

>  <excitation_energy_1>
4.203

>  <excitation_energy_2>
5.668

>  <excitation_energy_3>
5.845

>  <excitation_energy_4>
6.145

>  <homo_energy>
-6.177

>  <homo_lumo_gap>
5.954

>  <logP>
0.625

>  <lumo_energy>
-0.223

>  <melting_point>
-1.82

>  <molecular_refractivity>
40.83

>  <oscillator_strength_1>
0.0003

>  <oscillator_strength_2>
0.0147

>  <oscillator_strength_3>
0.0017

>  <oscillator_strength_4>
0.0014

>  <open_babel_can_smiles>
CO[C@@H]1CO[C@@H]([C@@H]1C)C(=O)C

>  <mulliken_charges>
25
1   -0.44656
2   -0.532416
3   -0.202194
4   -0.02071
5   -0.152635
6   0.449085
7   0.107818
8   0.084834
9   -0.456095
10   -0.467807
11   -0.506026
12   0.136788
13   0.168487
14   0.173384
15   0.178639
16   0.185093
17   0.165346
18   0.166475
19   0.135906
20   0.137232
21   0.129242
22   0.147358
23   0.143357
24   0.120684
25   0.154717

>  <lowdin_charges>
25
1   -0.445037
2   -0.478432
3   -0.281591
4   -0.144614
5   -0.137313
6   0.160916
7   -0.020105
8   -0.034709
9   -0.24314
10   -0.264381
11   -0.278047
12   0.150211
13   0.164879
14   0.164881
15   0.177396
16   0.176985
17   0.166671
18   0.160325
19   0.133532
20   0.136416
21   0.135832
22   0.150722
23   0.153368
24   0.135617
25   0.159618

$$$$

