PCCDB-ID:  3446
public computational chemistry database (PCCDB) project, http://pccdb.org

 29 29  0  0  0  0  0  0  0  0999 V2000
    0.6992    1.3858   -0.4113 C   0  0  0  0  0  0  0  0  0  0  0  0
    1.5024    0.1294   -0.0457 C   0  0  0  0  0  0  0  0  0  0  0  0
   -0.6438    1.4261    0.3323 C   0  0  0  0  0  0  0  0  0  0  0  0
    0.6738   -1.1493   -0.2599 C   0  0  0  0  0  0  0  0  0  0  0  0
   -1.4608    0.1456    0.0924 C   0  0  0  0  0  0  0  0  0  0  0  0
   -1.4916   -2.4056   -0.0612 C   0  0  0  0  0  0  0  0  0  0  0  0
   -0.4418   -1.2751    1.9825 C   0  0  0  0  0  0  0  0  0  0  0  0
   -3.0293   -2.4010   -0.0195 C   0  0  0  0  0  0  0  0  0  0  0  0
   -0.7060   -1.1591    0.4602 C   0  0  0  0  0  0  0  0  0  0  0  0
   -1.6773   -1.2479    2.7952 N   0  0  0  0  0  0  0  0  0  0  0  0
   -3.6839   -2.6097   -1.0187 O   0  0  0  0  0  0  0  0  0  0  0  0
   -3.6146   -2.1989    1.1684 O   0  0  0  0  0  0  0  0  0  0  0  0
    0.5075    1.3883   -1.4943 H   0  0  0  0  0  0  0  0  0  0  0  0
    1.2837    2.2889   -0.1951 H   0  0  0  0  0  0  0  0  0  0  0  0
    1.8429    0.2019    0.9963 H   0  0  0  0  0  0  0  0  0  0  0  0
    2.4129    0.0716   -0.6555 H   0  0  0  0  0  0  0  0  0  0  0  0
   -1.2300    2.2960    0.0111 H   0  0  0  0  0  0  0  0  0  0  0  0
   -0.4595    1.5659    1.4083 H   0  0  0  0  0  0  0  0  0  0  0  0
    1.2534   -2.0340    0.0398 H   0  0  0  0  0  0  0  0  0  0  0  0
    0.4885   -1.2582   -1.3371 H   0  0  0  0  0  0  0  0  0  0  0  0
   -1.7246    0.0896   -0.9730 H   0  0  0  0  0  0  0  0  0  0  0  0
   -2.4173    0.1937    0.6269 H   0  0  0  0  0  0  0  0  0  0  0  0
   -1.2525   -2.5582   -1.1164 H   0  0  0  0  0  0  0  0  0  0  0  0
   -1.1426   -3.3007    0.4744 H   0  0  0  0  0  0  0  0  0  0  0  0
    0.2627   -0.4990    2.3071 H   0  0  0  0  0  0  0  0  0  0  0  0
    0.0451   -2.2390    2.1711 H   0  0  0  0  0  0  0  0  0  0  0  0
   -2.0035   -0.2899    2.9144 H   0  0  0  0  0  0  0  0  0  0  0  0
   -1.4943   -1.6072    3.7302 H   0  0  0  0  0  0  0  0  0  0  0  0
   -2.9238   -1.9797    1.8643 H   0  0  0  0  0  0  0  0  0  0  0  0
  1 14  1  0  0  0  0
  1  2  1  0  0  0  0
  1  3  1  0  0  0  0
  2 15  1  0  0  0  0
  3 18  1  0  0  0  0
  4  2  1  0  0  0  0
  4 19  1  0  0  0  0
  4  9  1  0  0  0  0
  5  3  1  0  0  0  0
  5  9  1  0  0  0  0
  5 22  1  0  0  0  0
  6  8  1  0  0  0  0
  6  9  1  0  0  0  0
  6 24  1  0  0  0  0
  7 26  1  0  0  0  0
  7 25  1  0  0  0  0
  7 10  1  0  0  0  0
  8 12  1  0  0  0  0
  9  7  1  0  0  0  0
 10 27  1  0  0  0  0
 10 28  1  0  0  0  0
 11  8  2  0  0  0  0
 12 29  1  0  0  0  0
 13  1  1  0  0  0  0
 16  2  1  0  0  0  0
 17  3  1  0  0  0  0
 20  4  1  0  0  0  0
 21  5  1  0  0  0  0
 23  6  1  0  0  0  0
M  END
>  <HBA>
3

>  <HBD>
2

>  <TPSA>
63.32

>  <cid>
3446

>  <dipole>
7.05

>  <excitation_energy_1>
5.464

>  <excitation_energy_2>
5.651

>  <excitation_energy_3>
6.314

>  <excitation_energy_4>
6.363

>  <homo_energy>
-6.359

>  <homo_lumo_gap>
7.328

>  <logP>
2.071

>  <lumo_energy>
0.969

>  <melting_point>
144.12

>  <molecular_refractivity>
47.48

>  <oscillator_strength_1>
0.0016

>  <oscillator_strength_2>
0.0039

>  <oscillator_strength_3>
0.009

>  <oscillator_strength_4>
0.005

>  <open_babel_can_smiles>
NCC1(CCCCC1)CC(=O)O

>  <mulliken_charges>
29
1   -0.254437
2   -0.269485
3   -0.26907
4   -0.273026
5   -0.296311
6   -0.393135
7   -0.154626
8   0.578357
9   0.094041
10   -0.778195
11   -0.467086
12   -0.609443
13   0.135407
14   0.133522
15   0.130081
16   0.138303
17   0.14188
18   0.119061
19   0.129825
20   0.140966
21   0.153629
22   0.142597
23   0.169459
24   0.149959
25   0.143229
26   0.148458
27   0.331248
28   0.327463
29   0.457327

>  <lowdin_charges>
29
1   -0.275868
2   -0.280317
3   -0.27915
4   -0.276699
5   -0.287312
6   -0.319808
7   -0.214994
8   0.183344
9   -0.002414
10   -0.525786
11   -0.273107
12   -0.390702
13   0.139532
14   0.145574
15   0.135096
16   0.148568
17   0.150442
18   0.129653
19   0.143281
20   0.145486
21   0.152817
22   0.147838
23   0.168347
24   0.158374
25   0.137808
26   0.148465
27   0.270073
28   0.272134
29   0.349327

$$$$

