PCCDB-ID:  32307
public computational chemistry database (PCCDB) project, http://pccdb.org

 13 13  0  0  0  0  0  0  0  0999 V2000
    1.0480   -0.0076   -0.0594 C   0  0  0  0  0  0  0  0  0  0  0  0
    3.4114    1.0515   -0.1579 C   0  0  0  0  0  0  0  0  0  0  0  0
    2.5505   -0.0870   -0.0799 C   0  0  0  0  0  0  0  0  0  0  0  0
    4.7335    0.6738   -0.1580 C   0  0  0  0  0  0  0  0  0  0  0  0
    5.8647    1.4591   -0.2892 N   0  0  0  0  0  0  0  0  0  0  0  0
    3.1227   -1.2737   -0.0184 N   0  0  0  0  0  0  0  0  0  0  0  0
    4.8055   -1.0707   -0.0687 S   0  0  0  0  0  0  0  0  0  0  0  0
    0.6956    0.5856    0.7933 H   0  0  0  0  0  0  0  0  0  0  0  0
    0.6242   -1.0115    0.0136 H   0  0  0  0  0  0  0  0  0  0  0  0
    0.6671    0.4697   -0.9706 H   0  0  0  0  0  0  0  0  0  0  0  0
    3.0677    2.0790   -0.2099 H   0  0  0  0  0  0  0  0  0  0  0  0
    5.7272    2.4361   -0.0592 H   0  0  0  0  0  0  0  0  0  0  0  0
    6.7110    1.0921    0.1281 H   0  0  0  0  0  0  0  0  0  0  0  0
  1  9  1  0  0  0  0
  1  8  1  0  0  0  0
  2  3  1  0  0  0  0
  3  1  1  0  0  0  0
  3  6  2  0  0  0  0
  4  2  2  0  0  0  0
  4  7  1  0  0  0  0
  5  4  1  0  0  0  0
  5 12  1  0  0  0  0
  5 13  1  0  0  0  0
  7  6  1  0  0  0  0
 10  1  1  0  0  0  0
 11  2  1  0  0  0  0
M  END
>  <HBA>
3

>  <HBD>
1

>  <TPSA>
67.15

>  <cid>
32307

>  <dipole>
3.87

>  <excitation_energy_1>
4.567

>  <excitation_energy_2>
5.133

>  <excitation_energy_3>
5.255

>  <excitation_energy_4>
5.337

>  <homo_energy>
-5.875

>  <homo_lumo_gap>
5.804

>  <logP>
1.615

>  <lumo_energy>
-0.071

>  <melting_point>
72.04

>  <molecular_refractivity>
31.48

>  <oscillator_strength_1>
0.0021

>  <oscillator_strength_2>
0.0066

>  <oscillator_strength_3>
0.0042

>  <oscillator_strength_4>
0.1407

>  <open_babel_can_smiles>
Cc1nsc(c1)N

>  <mulliken_charges>
13
1   -0.514949
2   -0.162965
3   0.280088
4   0.047931
5   -0.750184
6   -0.541886
7   0.339066
8   0.160384
9   0.179022
10   0.162433
11   0.126358
12   0.336497
13   0.338204

>  <lowdin_charges>
13
1   -0.444123
2   -0.277839
3   0.039176
4   -0.083024
5   -0.469054
6   -0.356381
7   0.359453
8   0.162314
9   0.172423
10   0.163109
11   0.161345
12   0.285386
13   0.287216

$$$$

