PCCDB-ID:  32016
public computational chemistry database (PCCDB) project, http://pccdb.org

 38 39  0  0  0  0  0  0  0  0999 V2000
    2.1483   -0.6926   -1.6897 C   0  0  0  0  0  0  0  0  0  0  0  0
    1.4064   -0.7374    0.7091 C   0  0  0  0  0  0  0  0  0  0  0  0
    3.5706   -1.8080    0.0726 C   0  0  0  0  0  0  0  0  0  0  0  0
    8.1050   -0.9964   -0.7071 C   0  0  0  0  0  0  0  0  0  0  0  0
    5.1399    5.3636    1.1859 C   0  0  0  0  0  0  0  0  0  0  0  0
    7.8195   -0.5746    0.5938 C   0  0  0  0  0  0  0  0  0  0  0  0
    7.2159   -0.6950   -1.7395 C   0  0  0  0  0  0  0  0  0  0  0  0
    5.9737    4.7361    0.2584 C   0  0  0  0  0  0  0  0  0  0  0  0
    4.1092    4.6349    1.7823 C   0  0  0  0  0  0  0  0  0  0  0  0
    6.6532    0.1418    0.8590 C   0  0  0  0  0  0  0  0  0  0  0  0
    6.0432    0.0137   -1.4699 C   0  0  0  0  0  0  0  0  0  0  0  0
    5.7758    3.3967   -0.0735 C   0  0  0  0  0  0  0  0  0  0  0  0
    3.9110    3.2960    1.4485 C   0  0  0  0  0  0  0  0  0  0  0  0
    3.2365    0.7620    0.0250 C   0  0  0  0  0  0  0  0  0  0  0  0
    5.7376    0.4304   -0.1653 C   0  0  0  0  0  0  0  0  0  0  0  0
    4.7299    2.6538    0.5024 C   0  0  0  0  0  0  0  0  0  0  0  0
    4.5010    1.2255    0.1189 C   0  0  0  0  0  0  0  0  0  0  0  0
    2.6380   -0.6179   -0.2231 C   0  0  0  0  0  0  0  0  0  0  0  0
    1.6113   -1.6330   -1.8683 H   0  0  0  0  0  0  0  0  0  0  0  0
    2.9894   -0.6437   -2.3896 H   0  0  0  0  0  0  0  0  0  0  0  0
    1.4666    0.1337   -1.9244 H   0  0  0  0  0  0  0  0  0  0  0  0
    0.8974   -1.6958    0.5522 H   0  0  0  0  0  0  0  0  0  0  0  0
    0.6811    0.0631    0.5189 H   0  0  0  0  0  0  0  0  0  0  0  0
    1.7025   -0.6801    1.7632 H   0  0  0  0  0  0  0  0  0  0  0  0
    2.9992   -2.7421    0.0067 H   0  0  0  0  0  0  0  0  0  0  0  0
    3.9920   -1.7417    1.0816 H   0  0  0  0  0  0  0  0  0  0  0  0
    4.4015   -1.8768   -0.6321 H   0  0  0  0  0  0  0  0  0  0  0  0
    9.0169   -1.5498   -0.9149 H   0  0  0  0  0  0  0  0  0  0  0  0
    5.2986    6.4058    1.4497 H   0  0  0  0  0  0  0  0  0  0  0  0
    8.5090   -0.8007    1.4031 H   0  0  0  0  0  0  0  0  0  0  0  0
    7.4346   -1.0092   -2.7569 H   0  0  0  0  0  0  0  0  0  0  0  0
    6.7827    5.2911   -0.2098 H   0  0  0  0  0  0  0  0  0  0  0  0
    3.4655    5.1055    2.5211 H   0  0  0  0  0  0  0  0  0  0  0  0
    6.4403    0.4766    1.8708 H   0  0  0  0  0  0  0  0  0  0  0  0
    5.3552    0.2533   -2.2762 H   0  0  0  0  0  0  0  0  0  0  0  0
    6.4317    2.9208   -0.7962 H   0  0  0  0  0  0  0  0  0  0  0  0
    3.1269    2.7293    1.9422 H   0  0  0  0  0  0  0  0  0  0  0  0
    2.4601    1.5166    0.1599 H   0  0  0  0  0  0  0  0  0  0  0  0
  1 18  1  0  0  0  0
  2 24  1  0  0  0  0
  3 26  1  0  0  0  0
  4  6  2  0  0  0  0
  5 29  1  0  0  0  0
  5  9  2  0  0  0  0
  6 10  1  0  0  0  0
  6 30  1  0  0  0  0
  7 11  2  0  0  0  0
  7  4  1  0  0  0  0
  8  5  1  0  0  0  0
  9 33  1  0  0  0  0
 10 34  1  0  0  0  0
 11 15  1  0  0  0  0
 12  8  2  0  0  0  0
 12 16  1  0  0  0  0
 13  9  1  0  0  0  0
 13 37  1  0  0  0  0
 14 17  2  0  0  0  0
 14 38  1  0  0  0  0
 15 17  1  0  0  0  0
 15 10  2  0  0  0  0
 16 13  2  0  0  0  0
 17 16  1  0  0  0  0
 18 14  1  0  0  0  0
 18  3  1  0  0  0  0
 18  2  1  0  0  0  0
 19  1  1  0  0  0  0
 20  1  1  0  0  0  0
 21  1  1  0  0  0  0
 22  2  1  0  0  0  0
 23  2  1  0  0  0  0
 25  3  1  0  0  0  0
 27  3  1  0  0  0  0
 28  4  1  0  0  0  0
 31  7  1  0  0  0  0
 32  8  1  0  0  0  0
 35 11  1  0  0  0  0
 36 12  1  0  0  0  0
M  END
>  <HBA>
0

>  <HBD>
0

>  <TPSA>
0.0

>  <cid>
32016

>  <dipole>
0.37

>  <excitation_energy_1>
4.641

>  <excitation_energy_2>
4.758

>  <excitation_energy_3>
4.924

>  <excitation_energy_4>
5.015

>  <homo_energy>
-5.807

>  <homo_lumo_gap>
5.23

>  <logP>
5.164

>  <lumo_energy>
-0.577

>  <melting_point>
64.08

>  <molecular_refractivity>
79.99

>  <oscillator_strength_1>
0.1797

>  <oscillator_strength_2>
0.0385

>  <oscillator_strength_3>
0.1245

>  <oscillator_strength_4>
0.0182

>  <open_babel_can_smiles>
CC(C=C(c1ccccc1)c1ccccc1)(C)C

>  <mulliken_charges>
38
1   -0.438002
2   -0.448145
3   -0.455479
4   -0.126864
5   -0.128485
6   -0.132756
7   -0.131695
8   -0.131872
9   -0.132717
10   -0.154264
11   -0.173044
12   -0.178777
13   -0.180261
14   -0.15401
15   0.065409
16   0.113941
17   -0.004486
18   0.074215
19   0.138617
20   0.145089
21   0.140414
22   0.140304
23   0.13851
24   0.145551
25   0.132067
26   0.144784
27   0.159658
28   0.129525
29   0.126788
30   0.130869
31   0.130316
32   0.128089
33   0.127111
34   0.135472
35   0.13625
36   0.138045
37   0.128209
38   0.121625

>  <lowdin_charges>
38
1   -0.439593
2   -0.439269
3   -0.445749
4   -0.157337
5   -0.15826
6   -0.156379
7   -0.157485
8   -0.157526
9   -0.158642
10   -0.154057
11   -0.168538
12   -0.161572
13   -0.16576
14   -0.160854
15   0.00343
16   -0.001045
17   -0.025489
18   0.017191
19   0.146922
20   0.149152
21   0.149069
22   0.147678
23   0.14633
24   0.1484
25   0.145461
26   0.150893
27   0.159416
28   0.157763
29   0.155174
30   0.159157
31   0.1571
32   0.157829
33   0.157593
34   0.160608
35   0.160389
36   0.164442
37   0.15884
38   0.154719

$$$$

