PCCDB-ID:  10601
public computational chemistry database (PCCDB) project, http://pccdb.org

 17 17  0  0  1  0  0  0  0  0999 V2000
    2.6164    1.4153    0.7770 C   0  0  0  0  0  0  0  0  0  0  0  0
    3.0966   -2.4631    0.2381 C   0  0  0  0  0  0  0  0  0  0  0  0
    4.1553   -3.1784    1.1096 C   0  0  0  0  0  0  0  0  0  0  0  0
    2.3938   -0.0714    0.9198 C   0  0  0  0  0  0  0  0  0  0  0  0
    3.4798   -0.9823    0.2979 C   0  0  1  0  0  0  0  0  0  0  0  0
    4.7534   -0.9321    1.1630 C   0  0  0  0  0  0  0  0  0  0  0  0
    1.4313   -0.5483    1.4854 O   0  0  0  0  0  0  0  0  0  0  0  0
    5.4030    0.0422    1.4496 O   0  0  0  0  0  0  0  0  0  0  0  0
    5.0720   -2.1729    1.5892 O   0  0  0  0  0  0  0  0  0  0  0  0
    3.6299    1.6731    1.1030 H   0  0  0  0  0  0  0  0  0  0  0  0
    1.8695    1.9612    1.3564 H   0  0  0  0  0  0  0  0  0  0  0  0
    2.5355    1.6998   -0.2806 H   0  0  0  0  0  0  0  0  0  0  0  0
    2.0926   -2.5985    0.6469 H   0  0  0  0  0  0  0  0  0  0  0  0
    3.1076   -2.8425   -0.7865 H   0  0  0  0  0  0  0  0  0  0  0  0
    4.7437   -3.9125    0.5524 H   0  0  0  0  0  0  0  0  0  0  0  0
    3.7235   -3.6680    1.9865 H   0  0  0  0  0  0  0  0  0  0  0  0
    3.7513   -0.5611   -0.6771 H   0  0  0  0  0  0  0  0  0  0  0  0
  1  4  1  0  0  0  0
  1 10  1  0  0  0  0
  1 11  1  0  0  0  0
  2  5  1  0  0  0  0
  2 13  1  0  0  0  0
  2  3  1  0  0  0  0
  3  9  1  0  0  0  0
  3 16  1  0  0  0  0
  4  7  2  0  0  0  0
  5 17  1  6  0  0  0
  5  4  1  0  0  0  0
  5  6  1  0  0  0  0
  6  8  2  0  0  0  0
  6  9  1  0  0  0  0
 12  1  1  0  0  0  0
 14  2  1  0  0  0  0
 15  3  1  0  0  0  0
M  END
>  <HBA>
3

>  <HBD>
0

>  <TPSA>
43.37

>  <cid>
10601

>  <dipole>
3.31

>  <excitation_energy_1>
4.469

>  <excitation_energy_2>
5.455

>  <excitation_energy_3>
6.149

>  <excitation_energy_4>
6.35

>  <homo_energy>
-7.162

>  <homo_lumo_gap>
6.264

>  <logP>
0.139

>  <lumo_energy>
-0.898

>  <melting_point>
29.85

>  <molecular_refractivity>
30.33

>  <oscillator_strength_1>
0.0007

>  <oscillator_strength_2>
0.0091

>  <oscillator_strength_3>
0.0

>  <oscillator_strength_4>
0.0115

>  <open_babel_can_smiles>
CC(=O)[C@@H]1CCOC1=O

>  <mulliken_charges>
17
1   -0.540484
2   -0.329398
3   -0.04417
4   0.455188
5   -0.30138
6   0.616551
7   -0.423072
8   -0.450108
9   -0.432698
10   0.214285
11   0.180877
12   0.170126
13   0.198813
14   0.161558
15   0.163776
16   0.172213
17   0.187922

>  <lowdin_charges>
17
1   -0.476212
2   -0.297841
3   -0.127267
4   0.172022
5   -0.199332
6   0.196747
7   -0.224147
8   -0.242534
9   -0.17264
10   0.191478
11   0.175723
12   0.171777
13   0.176685
14   0.159619
15   0.156064
16   0.159449
17   0.180408

$$$$

