PCCDB-ID:  1148
public computational chemistry database (PCCDB) project, http://pccdb.org

 27 28  0  0  1  0  0  0  0  0999 V2000
    2.4531    2.9245   -0.2739 C   0  0  0  0  0  0  0  0  0  0  0  0
    1.7226    3.9185    0.4095 C   0  0  0  0  0  0  0  0  0  0  0  0
    1.8616    1.7202   -0.6327 C   0  0  0  0  0  0  0  0  0  0  0  0
    0.3859    3.7288    0.7390 C   0  0  0  0  0  0  0  0  0  0  0  0
   -0.1145   -0.9341   -1.1638 C   0  0  0  0  0  0  0  0  0  0  0  0
   -1.6072    0.7912    0.0102 C   0  0  0  0  0  0  0  0  0  0  0  0
   -0.4052    0.3947   -0.5243 C   0  0  0  0  0  0  0  0  0  0  0  0
    0.5122    1.4898   -0.3059 C   0  0  0  0  0  0  0  0  0  0  0  0
    0.4088   -1.9960   -0.1720 C   0  0  1  0  0  0  0  0  0  0  0  0
   -0.2051    2.5146    0.3737 C   0  0  0  0  0  0  0  0  0  0  0  0
    0.4765   -3.3931   -0.8305 C   0  0  0  0  0  0  0  0  0  0  0  0
    1.7056   -1.7134    0.4688 N   0  0  0  0  0  0  0  0  0  0  0  0
   -1.4923    2.0549    0.5578 N   0  0  0  0  0  0  0  0  0  0  0  0
   -0.3136   -3.7746   -1.6627 O   0  0  0  0  0  0  0  0  0  0  0  0
    1.4746   -4.1586   -0.3615 O   0  0  0  0  0  0  0  0  0  0  0  0
    3.4933    3.1090   -0.5274 H   0  0  0  0  0  0  0  0  0  0  0  0
    2.2111    4.8509    0.6782 H   0  0  0  0  0  0  0  0  0  0  0  0
    2.4355    0.9722   -1.1748 H   0  0  0  0  0  0  0  0  0  0  0  0
   -0.1788    4.4975    1.2602 H   0  0  0  0  0  0  0  0  0  0  0  0
    0.6205   -0.8160   -1.9725 H   0  0  0  0  0  0  0  0  0  0  0  0
   -1.0136   -1.3446   -1.6333 H   0  0  0  0  0  0  0  0  0  0  0  0
   -2.5524    0.2656    0.0406 H   0  0  0  0  0  0  0  0  0  0  0  0
   -0.3242   -2.0920    0.6403 H   0  0  0  0  0  0  0  0  0  0  0  0
    1.5962   -1.0371    1.2208 H   0  0  0  0  0  0  0  0  0  0  0  0
    2.3458   -1.2899   -0.2026 H   0  0  0  0  0  0  0  0  0  0  0  0
   -2.2471    2.5802    0.9707 H   0  0  0  0  0  0  0  0  0  0  0  0
    1.9617   -3.5754    0.2741 H   0  0  0  0  0  0  0  0  0  0  0  0
  1  2  2  0  0  0  0
  2 17  1  0  0  0  0
  2  4  1  0  0  0  0
  3  8  2  0  0  0  0
  3  1  1  0  0  0  0
  4 19  1  0  0  0  0
  5  7  1  0  0  0  0
  5  9  1  0  0  0  0
  6 22  1  0  0  0  0
  6 13  1  0  0  0  0
  7  8  1  0  0  0  0
  7  6  2  0  0  0  0
  8 10  1  0  0  0  0
  9 12  1  0  0  0  0
  9 23  1  1  0  0  0
 10 13  1  0  0  0  0
 10  4  2  0  0  0  0
 11 15  1  0  0  0  0
 11  9  1  0  0  0  0
 12 24  1  0  0  0  0
 13 26  1  0  0  0  0
 14 11  2  0  0  0  0
 15 27  1  0  0  0  0
 16  1  1  0  0  0  0
 18  3  1  0  0  0  0
 20  5  1  0  0  0  0
 21  5  1  0  0  0  0
 25 12  1  0  0  0  0
M  END
>  <HBA>
3

>  <HBD>
3

>  <TPSA>
79.11

>  <cid>
1148

>  <dipole>
6.07

>  <excitation_energy_1>
4.53

>  <excitation_energy_2>
4.75

>  <excitation_energy_3>
4.821

>  <excitation_energy_4>
4.941

>  <homo_energy>
-5.649

>  <homo_lumo_gap>
5.178

>  <logP>
1.823

>  <lumo_energy>
-0.471

>  <melting_point>
229.84

>  <molecular_refractivity>
57.36

>  <oscillator_strength_1>
0.0662

>  <oscillator_strength_2>
0.0064

>  <oscillator_strength_3>
0.0226

>  <oscillator_strength_4>
0.0015

>  <open_babel_can_smiles>
OC(=O)[C@H](Cc1c[nH]c2c1cccc2)N

>  <mulliken_charges>
27
1   -0.138399
2   -0.151997
3   -0.221043
4   -0.160779
5   -0.362106
6   -0.001686
7   0.063512
8   0.075377
9   -0.08596
10   0.312918
11   0.61612
12   -0.771272
13   -0.687903
14   -0.469236
15   -0.584599
16   0.124481
17   0.127342
18   0.114857
19   0.125072
20   0.147856
21   0.181935
22   0.155163
23   0.175143
24   0.332774
25   0.320981
26   0.329942
27   0.431506

>  <lowdin_charges>
27
1   -0.173163
2   -0.162946
3   -0.173864
4   -0.186301
5   -0.279149
6   -0.133229
7   -0.069563
8   -0.040401
9   -0.109598
10   0.031976
11   0.17357
12   -0.546036
13   -0.199991
14   -0.259094
15   -0.35726
16   0.155243
17   0.158068
18   0.150658
19   0.158503
20   0.153508
21   0.176198
22   0.167314
23   0.166799
24   0.277796
25   0.265857
26   0.294309
27   0.360796

$$$$

