PCCDB-ID:  15067
public computational chemistry database (PCCDB) project, http://pccdb.org

 18 19  0  0  1  0  0  0  0  0999 V2000
    1.0224    0.0499   -0.0651 C   0  0  0  0  0  0  0  0  0  0  0  0
    3.0958   -1.3613   -0.3714 C   0  0  0  0  0  0  0  0  0  0  0  0
    3.0969    0.4889    1.3071 C   0  0  0  0  0  0  0  0  0  0  0  0
    3.0967    1.0177   -1.1348 C   0  0  0  0  0  0  0  0  0  0  0  0
    2.5531    0.0489   -0.0660 C   0  0  2  0  0  0  0  0  0  0  0  0
    4.5373   -1.3856   -0.3767 O   0  0  0  0  0  0  0  0  0  0  0  0
    4.5381    0.4963    1.3302 O   0  0  0  0  0  0  0  0  0  0  0  0
    4.5382    1.0342   -1.1544 O   0  0  0  0  0  0  0  0  0  0  0  0
    5.3168    0.0486   -0.0670 P   0  0  2  0  0  0  0  0  0  0  0  0
    0.6278   -0.6372    0.6925 H   0  0  0  0  0  0  0  0  0  0  0  0
    0.6275   -0.2618   -1.0388 H   0  0  0  0  0  0  0  0  0  0  0  0
    0.6291    1.0499    0.1520 H   0  0  0  0  0  0  0  0  0  0  0  0
    2.7478   -1.7011   -1.3552 H   0  0  0  0  0  0  0  0  0  0  0  0
    2.7482   -2.0777    0.3841 H   0  0  0  0  0  0  0  0  0  0  0  0
    2.7492   -0.1936    2.0935 H   0  0  0  0  0  0  0  0  0  0  0  0
    2.7502    1.5016    1.5512 H   0  0  0  0  0  0  0  0  0  0  0  0
    2.7503    2.0404   -0.9371 H   0  0  0  0  0  0  0  0  0  0  0  0
    2.7487    0.7222   -2.1330 H   0  0  0  0  0  0  0  0  0  0  0  0
  1 12  1  0  0  0  0
  1 10  1  0  0  0  0
  2  5  1  0  0  0  0
  2 14  1  0  0  0  0
  3  7  1  0  0  0  0
  3 16  1  0  0  0  0
  3 15  1  0  0  0  0
  4 17  1  0  0  0  0
  4  5  1  0  0  0  0
  5  1  1  1  0  0  0
  5  3  1  0  0  0  0
  6  2  1  0  0  0  0
  6  9  1  0  0  0  0
  8  4  1  0  0  0  0
  9  8  1  6  0  0  0
  9  7  1  0  0  0  0
 11  1  1  0  0  0  0
 13  2  1  0  0  0  0
 18  4  1  0  0  0  0
M  END
>  <HBA>
3

>  <HBD>
0

>  <TPSA>
41.28

>  <cid>
15067

>  <dipole>
4.38

>  <excitation_energy_1>
6.586

>  <excitation_energy_2>
6.893

>  <excitation_energy_3>
6.896

>  <excitation_energy_4>
6.932

>  <homo_energy>
-7.274

>  <homo_lumo_gap>
8.319

>  <logP>
1.297

>  <lumo_energy>
1.045

>  <melting_point>
6.85

>  <molecular_refractivity>
32.89

>  <oscillator_strength_1>
0.0

>  <oscillator_strength_2>
0.0017

>  <oscillator_strength_3>
0.0016

>  <oscillator_strength_4>
0.0405

>  <open_babel_can_smiles>
C[C@]12COP(OC1)OC2

>  <mulliken_charges>
18
1   -0.461778
2   -0.000474
3   -0.000151
4   -0.000525
5   -0.107808
6   -0.575139
7   -0.574775
8   -0.574922
9   0.935586
10   0.157482
11   0.157496
12   0.157457
13   0.147966
14   0.147943
15   0.147834
16   0.147866
17   0.147966
18   0.147976

>  <lowdin_charges>
18
1   -0.439483
2   -0.128292
3   -0.127791
4   -0.126065
5   -0.051258
6   -0.421505
7   -0.420873
8   -0.420014
9   0.771881
10   0.159459
11   0.15826
12   0.157913
13   0.147765
14   0.149097
15   0.148994
16   0.147257
17   0.147142
18   0.147513

$$$$

