PCCDB-ID:  62465
public computational chemistry database (PCCDB) project, http://pccdb.org

 23 23  0  0  0  0  0  0  0  0999 V2000
    1.4231   -0.6365   -0.2824 C   0  0  0  0  0  0  0  0  0  0  0  0
    5.1727    4.0314   -3.4438 C   0  0  0  0  0  0  0  0  0  0  0  0
    2.7513    0.0229    0.1300 C   0  0  0  0  0  0  0  0  0  0  0  0
    2.4317    2.5210    0.4573 C   0  0  0  0  0  0  0  0  0  0  0  0
    2.5055    3.8382    0.0008 C   0  0  0  0  0  0  0  0  0  0  0  0
    3.4030    1.7619   -1.5988 C   0  0  0  0  0  0  0  0  0  0  0  0
    2.8716    1.4585   -0.3379 C   0  0  0  0  0  0  0  0  0  0  0  0
    3.0209    4.1259   -1.2634 C   0  0  0  0  0  0  0  0  0  0  0  0
    3.4851    3.0703   -2.0716 C   0  0  0  0  0  0  0  0  0  0  0  0
    3.0926    5.4004   -1.7660 O   0  0  0  0  0  0  0  0  0  0  0  0
    3.9591    3.2829   -3.3440 O   0  0  0  0  0  0  0  0  0  0  0  0
    1.3731   -1.6737    0.0695 H   0  0  0  0  0  0  0  0  0  0  0  0
    1.3096   -0.6408   -1.3723 H   0  0  0  0  0  0  0  0  0  0  0  0
    0.5689   -0.0928    0.1366 H   0  0  0  0  0  0  0  0  0  0  0  0
    5.4343    4.0386   -4.5046 H   0  0  0  0  0  0  0  0  0  0  0  0
    5.9782    3.5461   -2.8760 H   0  0  0  0  0  0  0  0  0  0  0  0
    5.0436    5.0590   -3.0908 H   0  0  0  0  0  0  0  0  0  0  0  0
    3.5850   -0.5657   -0.2739 H   0  0  0  0  0  0  0  0  0  0  0  0
    2.8481   -0.0149    1.2227 H   0  0  0  0  0  0  0  0  0  0  0  0
    2.0234    2.3243    1.4459 H   0  0  0  0  0  0  0  0  0  0  0  0
    2.1529    4.6539    0.6308 H   0  0  0  0  0  0  0  0  0  0  0  0
    3.7641    0.9727   -2.2534 H   0  0  0  0  0  0  0  0  0  0  0  0
    2.7273    6.0106   -1.1066 H   0  0  0  0  0  0  0  0  0  0  0  0
  1 12  1  0  0  0  0
  1  3  1  0  0  0  0
  1 14  1  0  0  0  0
  2 11  1  0  0  0  0
  2 17  1  0  0  0  0
  2 16  1  0  0  0  0
  3 19  1  0  0  0  0
  4 20  1  0  0  0  0
  5  4  1  0  0  0  0
  5 21  1  0  0  0  0
  6  7  1  0  0  0  0
  7  3  1  0  0  0  0
  7  4  2  0  0  0  0
  8  5  2  0  0  0  0
  9  6  2  0  0  0  0
  9  8  1  0  0  0  0
 10  8  1  0  0  0  0
 10 23  1  0  0  0  0
 11  9  1  0  0  0  0
 13  1  1  0  0  0  0
 15  2  1  0  0  0  0
 18  3  1  0  0  0  0
 22  6  1  0  0  0  0
M  END
>  <HBA>
2

>  <HBD>
1

>  <TPSA>
29.46

>  <cid>
62465

>  <dipole>
2.06

>  <excitation_energy_1>
4.893

>  <excitation_energy_2>
4.946

>  <excitation_energy_3>
5.382

>  <excitation_energy_4>
5.624

>  <homo_energy>
-5.663

>  <homo_lumo_gap>
5.823

>  <logP>
1.963

>  <lumo_energy>
0.161

>  <melting_point>
53.57

>  <molecular_refractivity>
44.73

>  <oscillator_strength_1>
0.0438

>  <oscillator_strength_2>
0.0017

>  <oscillator_strength_3>
0.0459

>  <oscillator_strength_4>
0.0135

>  <open_babel_can_smiles>
CCc1ccc(c(c1)OC)O

>  <mulliken_charges>
23
1   -0.432089
2   -0.212919
3   -0.340351
4   -0.188865
5   -0.198428
6   -0.237256
7   0.173727
8   0.310468
9   0.333488
10   -0.644043
11   -0.521429
12   0.141008
13   0.150945
14   0.147062
15   0.157014
16   0.137201
17   0.167776
18   0.14238
19   0.139621
20   0.120662
21   0.116836
22   0.129124
23   0.408068

>  <lowdin_charges>
23
1   -0.438746
2   -0.274206
3   -0.268347
4   -0.167759
5   -0.210277
6   -0.180556
7   -0.013651
8   0.074453
9   0.068684
10   -0.381105
11   -0.224159
12   0.146837
13   0.149429
14   0.150265
15   0.153777
16   0.138812
17   0.150666
18   0.149085
19   0.144897
20   0.154282
21   0.153263
22   0.164652
23   0.359705

$$$$

