PCCDB-ID:  14237
public computational chemistry database (PCCDB) project, http://pccdb.org

 23 22  0  0  0  0  0  0  0  0999 V2000
    0.5641    0.0867   -0.0178 C   0  0  0  0  0  0  0  0  0  0  0  0
    2.2173    1.6122    1.0896 C   0  0  0  0  0  0  0  0  0  0  0  0
    2.2037   -0.8477    1.6324 C   0  0  0  0  0  0  0  0  0  0  0  0
    4.4645   -0.0213   -0.3633 C   0  0  0  0  0  0  0  0  0  0  0  0
    2.9651   -0.0700   -0.6730 C   0  0  0  0  0  0  0  0  0  0  0  0
    5.3229   -0.2944   -1.5942 C   0  0  0  0  0  0  0  0  0  0  0  0
    2.0065    0.1968    0.5158 C   0  0  0  0  0  0  0  0  0  0  0  0
    4.8998   -0.5513   -2.6922 O   0  0  0  0  0  0  0  0  0  0  0  0
    6.6700   -0.2364   -1.3832 O   0  0  0  0  0  0  0  0  0  0  0  0
   -0.1648    0.2685    0.7813 H   0  0  0  0  0  0  0  0  0  0  0  0
    0.3688   -0.9110   -0.4294 H   0  0  0  0  0  0  0  0  0  0  0  0
    0.3787    0.8183   -0.8136 H   0  0  0  0  0  0  0  0  0  0  0  0
    1.4774    1.8274    1.8699 H   0  0  0  0  0  0  0  0  0  0  0  0
    2.1104    2.3764    0.3097 H   0  0  0  0  0  0  0  0  0  0  0  0
    3.2089    1.7303    1.5426 H   0  0  0  0  0  0  0  0  0  0  0  0
    1.4643   -0.7054    2.4297 H   0  0  0  0  0  0  0  0  0  0  0  0
    3.1957   -0.7758    2.0939 H   0  0  0  0  0  0  0  0  0  0  0  0
    2.0844   -1.8680    1.2467 H   0  0  0  0  0  0  0  0  0  0  0  0
    4.7368   -0.7604    0.4036 H   0  0  0  0  0  0  0  0  0  0  0  0
    4.7565    0.9581    0.0412 H   0  0  0  0  0  0  0  0  0  0  0  0
    2.7378   -1.0532   -1.1029 H   0  0  0  0  0  0  0  0  0  0  0  0
    2.7574    0.6557   -1.4690 H   0  0  0  0  0  0  0  0  0  0  0  0
    6.8499   -0.0126   -0.4550 H   0  0  0  0  0  0  0  0  0  0  0  0
  1  7  1  0  0  0  0
  1 10  1  0  0  0  0
  2 15  1  0  0  0  0
  2 13  1  0  0  0  0
  3 17  1  0  0  0  0
  3 16  1  0  0  0  0
  4 20  1  0  0  0  0
  4 19  1  0  0  0  0
  5  4  1  0  0  0  0
  5  7  1  0  0  0  0
  6  9  1  0  0  0  0
  6  4  1  0  0  0  0
  7  2  1  0  0  0  0
  7  3  1  0  0  0  0
  8  6  2  0  0  0  0
  9 23  1  0  0  0  0
 11  1  1  0  0  0  0
 12  1  1  0  0  0  0
 14  2  1  0  0  0  0
 18  3  1  0  0  0  0
 21  5  1  0  0  0  0
 22  5  1  0  0  0  0
M  END
>  <HBA>
2

>  <HBD>
1

>  <TPSA>
37.3

>  <cid>
14237

>  <dipole>
4.17

>  <excitation_energy_1>
5.752

>  <excitation_energy_2>
6.368

>  <excitation_energy_3>
7.23

>  <excitation_energy_4>
7.402

>  <homo_energy>
-7.35

>  <homo_lumo_gap>
7.695

>  <logP>
1.897

>  <lumo_energy>
0.346

>  <melting_point>
68.62

>  <molecular_refractivity>
37.27

>  <oscillator_strength_1>
0.0003

>  <oscillator_strength_2>
0.0141

>  <oscillator_strength_3>
0.0023

>  <oscillator_strength_4>
0.0059

>  <open_babel_can_smiles>
OC(=O)CCC(C)(C)C

>  <mulliken_charges>
23
1   -0.442502
2   -0.447615
3   -0.447702
4   -0.418241
5   -0.243139
6   0.60934
7   0.095517
8   -0.43714
9   -0.570181
10   0.138663
11   0.142575
12   0.142501
13   0.143041
14   0.142272
15   0.13415
16   0.143004
17   0.134256
18   0.142369
19   0.1672
20   0.16403
21   0.150867
22   0.149683
23   0.407051

>  <lowdin_charges>
23
1   -0.441577
2   -0.44619
3   -0.444317
4   -0.327037
5   -0.269556
6   0.196585
7   0.01357
8   -0.235944
9   -0.362083
10   0.147995
11   0.148597
12   0.149726
13   0.151006
14   0.149362
15   0.142243
16   0.150892
17   0.142325
18   0.147903
19   0.16304
20   0.160284
21   0.153878
22   0.154321
23   0.354977

$$$$

