PCCDB-ID:  61262
public computational chemistry database (PCCDB) project, http://pccdb.org

 32 33  0  0  1  0  0  0  0  0999 V2000
    1.7715    0.9267   -1.8338 C   0  0  0  0  0  0  0  0  0  0  0  0
    3.4256   -2.3837   -4.2963 C   0  0  0  0  0  0  0  0  0  0  0  0
    5.4830   -2.0186   -5.6355 C   0  0  0  0  0  0  0  0  0  0  0  0
    4.6402   -3.3341   -1.5184 C   0  0  0  0  0  0  0  0  0  0  0  0
    4.8934   -4.4000   -2.5627 C   0  0  0  0  0  0  0  0  0  0  0  0
    6.8094   -2.9207   -3.2455 C   0  0  0  0  0  0  0  0  0  0  0  0
    4.7996   -0.9546   -0.7817 C   0  0  0  0  0  0  0  0  0  0  0  0
    2.5790   -0.1491   -1.1435 C   0  0  0  0  0  0  0  0  0  0  0  0
    5.0291   -2.0729   -1.7535 C   0  0  0  0  0  0  0  0  0  0  0  0
    5.6395   -3.7996   -3.7714 C   0  0  2  0  0  0  0  0  0  0  0  0
    5.7408   -1.7979   -3.0699 C   0  0  2  0  0  0  0  0  0  0  0  0
    4.9535   -2.4705   -4.2645 C   0  0  0  0  0  0  0  0  0  0  0  0
    2.1150   -1.0721   -0.5108 O   0  0  0  0  0  0  0  0  0  0  0  0
    3.9052    0.0525   -1.3378 O   0  0  0  0  0  0  0  0  0  0  0  0
    0.7398    0.8874   -1.4819 H   0  0  0  0  0  0  0  0  0  0  0  0
    1.7885    0.7556   -2.9163 H   0  0  0  0  0  0  0  0  0  0  0  0
    2.2015    1.9152   -1.6495 H   0  0  0  0  0  0  0  0  0  0  0  0
    3.0217   -3.0434   -5.0753 H   0  0  0  0  0  0  0  0  0  0  0  0
    3.1103   -1.3612   -4.5432 H   0  0  0  0  0  0  0  0  0  0  0  0
    2.9576   -2.6533   -3.3472 H   0  0  0  0  0  0  0  0  0  0  0  0
    5.0896   -2.6676   -6.4283 H   0  0  0  0  0  0  0  0  0  0  0  0
    6.5740   -2.0335   -5.7103 H   0  0  0  0  0  0  0  0  0  0  0  0
    5.1520   -0.9955   -5.8537 H   0  0  0  0  0  0  0  0  0  0  0  0
    4.1188   -3.6039   -0.6023 H   0  0  0  0  0  0  0  0  0  0  0  0
    3.9392   -4.8498   -2.8757 H   0  0  0  0  0  0  0  0  0  0  0  0
    5.4830   -5.2232   -2.1314 H   0  0  0  0  0  0  0  0  0  0  0  0
    7.5550   -2.6987   -4.0114 H   0  0  0  0  0  0  0  0  0  0  0  0
    7.3182   -3.2549   -2.3357 H   0  0  0  0  0  0  0  0  0  0  0  0
    5.7207   -0.3971   -0.5842 H   0  0  0  0  0  0  0  0  0  0  0  0
    4.3813   -1.3220    0.1574 H   0  0  0  0  0  0  0  0  0  0  0  0
    5.8601   -4.5633   -4.5270 H   0  0  0  0  0  0  0  0  0  0  0  0
    6.0409   -0.7505   -3.1804 H   0  0  0  0  0  0  0  0  0  0  0  0
  1 17  1  0  0  0  0
  1 15  1  0  0  0  0
  1  8  1  0  0  0  0
  2 12  1  0  0  0  0
  2 20  1  0  0  0  0
  3 12  1  0  0  0  0
  4 24  1  0  0  0  0
  5 26  1  0  0  0  0
  5  4  1  0  0  0  0
  6 11  1  0  0  0  0
  6 28  1  0  0  0  0
  7 29  1  0  0  0  0
  7 30  1  0  0  0  0
  8 13  2  0  0  0  0
  9  4  2  0  0  0  0
  9  7  1  0  0  0  0
 10 31  1  6  0  0  0
 10  6  1  0  0  0  0
 10  5  1  0  0  0  0
 11 32  1  6  0  0  0
 11  9  1  0  0  0  0
 12 10  1  0  0  0  0
 12 11  1  0  0  0  0
 14  8  1  0  0  0  0
 14  7  1  0  0  0  0
 16  1  1  0  0  0  0
 18  2  1  0  0  0  0
 19  2  1  0  0  0  0
 21  3  1  0  0  0  0
 22  3  1  0  0  0  0
 23  3  1  0  0  0  0
 25  5  1  0  0  0  0
 27  6  1  0  0  0  0
M  END
>  <HBA>
2

>  <HBD>
0

>  <TPSA>
26.3

>  <cid>
61262

>  <dipole>
1.7

>  <excitation_energy_1>
5.597

>  <excitation_energy_2>
5.83

>  <excitation_energy_3>
5.885

>  <excitation_energy_4>
6.013

>  <homo_energy>
-6.297

>  <homo_lumo_gap>
6.534

>  <logP>
2.542

>  <lumo_energy>
0.237

>  <melting_point>
58.95

>  <molecular_refractivity>
56.12

>  <oscillator_strength_1>
0.0067

>  <oscillator_strength_2>
0.021

>  <oscillator_strength_3>
0.092

>  <oscillator_strength_4>
0.0042

>  <open_babel_can_smiles>
CC(=O)OCC1=CC[C@@H]2C[C@H]1C2(C)C

>  <mulliken_charges>
32
1   -0.526358
2   -0.474731
3   -0.464277
4   -0.190758
5   -0.292206
6   -0.277604
7   -0.138949
8   0.609242
9   0.200676
10   -0.127101
11   -0.196422
12   0.136081
13   -0.468899
14   -0.454517
15   0.18122
16   0.183992
17   0.177805
18   0.137128
19   0.135136
20   0.164063
21   0.141286
22   0.142868
23   0.141395
24   0.137757
25   0.150276
26   0.145373
27   0.138431
28   0.133566
29   0.152054
30   0.173384
31   0.113608
32   0.116482

>  <lowdin_charges>
32
1   -0.462383
2   -0.454728
3   -0.440019
4   -0.169336
5   -0.27625
6   -0.284333
7   -0.13022
8   0.204052
9   -0.032947
10   -0.133497
11   -0.136106
12   0.013971
13   -0.267334
14   -0.204748
15   0.174078
16   0.17675
17   0.174179
18   0.149103
19   0.145716
20   0.160914
21   0.149394
22   0.147014
23   0.147517
24   0.160219
25   0.15255
26   0.153008
27   0.147375
28   0.14219
29   0.154891
30   0.163812
31   0.136349
32   0.138819

$$$$

