PCCDB-ID:  37277
public computational chemistry database (PCCDB) project, http://pccdb.org

 21 22  0  0  1  0  0  0  0  0999 V2000
   -1.8667    0.2598    0.7106 C   0  0  0  0  0  0  0  0  0  0  0  0
   -1.4753    1.2214   -0.4344 C   0  0  0  0  0  0  0  0  0  0  0  0
   -1.2474   -1.1600    0.5357 C   0  0  0  0  0  0  0  0  0  0  0  0
    1.4312   -1.6669    0.0663 C   0  0  0  0  0  0  0  0  0  0  0  0
    0.0628    1.4489   -0.5105 C   0  0  0  0  0  0  0  0  0  0  0  0
    2.0227   -0.2531   -0.2030 C   0  0  0  0  0  0  0  0  0  0  0  0
    0.0641   -0.9988   -0.2355 C   0  0  2  0  0  0  0  0  0  0  0  0
    0.6889    0.2874    0.0903 N   0  0  2  0  0  0  0  0  0  0  0  0
   -2.9591    0.1885    0.7720 H   0  0  0  0  0  0  0  0  0  0  0  0
   -1.5241    0.6865    1.6597 H   0  0  0  0  0  0  0  0  0  0  0  0
   -1.9879    2.1822   -0.3120 H   0  0  0  0  0  0  0  0  0  0  0  0
   -1.8297    0.8043   -1.3860 H   0  0  0  0  0  0  0  0  0  0  0  0
   -1.9365   -1.8221   -0.0037 H   0  0  0  0  0  0  0  0  0  0  0  0
   -1.0693   -1.6079    1.5208 H   0  0  0  0  0  0  0  0  0  0  0  0
    1.5290   -1.9605    1.1153 H   0  0  0  0  0  0  0  0  0  0  0  0
    1.7506   -2.4839   -0.5852 H   0  0  0  0  0  0  0  0  0  0  0  0
    0.3528    2.3516    0.0442 H   0  0  0  0  0  0  0  0  0  0  0  0
    0.3676    1.6016   -1.5650 H   0  0  0  0  0  0  0  0  0  0  0  0
    2.3244   -0.1343   -1.2605 H   0  0  0  0  0  0  0  0  0  0  0  0
    2.8314    0.1131    0.4411 H   0  0  0  0  0  0  0  0  0  0  0  0
   -0.1297   -1.0911   -1.3246 H   0  0  0  0  0  0  0  0  0  0  0  0
  1  9  1  0  0  0  0
  1 10  1  0  0  0  0
  2 11  1  0  0  0  0
  2  1  1  0  0  0  0
  3  1  1  0  0  0  0
  3 14  1  0  0  0  0
  4 15  1  0  0  0  0
  5  2  1  0  0  0  0
  5 17  1  0  0  0  0
  6  4  1  0  0  0  0
  6  8  1  0  0  0  0
  6 20  1  0  0  0  0
  7 21  1  6  0  0  0
  7  4  1  0  0  0  0
  7  8  1  0  0  0  0
  7  3  1  0  0  0  0
  8  5  1  6  0  0  0
 12  2  1  0  0  0  0
 13  3  1  0  0  0  0
 16  4  1  0  0  0  0
 18  5  1  0  0  0  0
 19  6  1  0  0  0  0
M  END
>  <HBA>
1

>  <HBD>
0

>  <TPSA>
3.24

>  <cid>
37277

>  <dipole>
0.53

>  <excitation_energy_1>
5.273

>  <excitation_energy_2>
5.515

>  <excitation_energy_3>
5.573

>  <excitation_energy_4>
5.701

>  <homo_energy>
-5.513

>  <homo_lumo_gap>
7.859

>  <logP>
1.183

>  <lumo_energy>
2.346

>  <melting_point>
20.57

>  <molecular_refractivity>
38.35

>  <oscillator_strength_1>
0.0193

>  <oscillator_strength_2>
0.0256

>  <oscillator_strength_3>
0.0196

>  <oscillator_strength_4>
0.0449

>  <open_babel_can_smiles>
C1CC[C@H]2N(C1)CC2

>  <mulliken_charges>
21
1   -0.255759
2   -0.295134
3   -0.262004
4   -0.313727
5   -0.10193
6   -0.114819
7   0.065653
8   -0.403802
9   0.129262
10   0.147656
11   0.137631
12   0.137417
13   0.124843
14   0.133225
15   0.146806
16   0.137183
17   0.13412
18   0.106791
19   0.112468
20   0.136059
21   0.098061

>  <lowdin_charges>
21
1   -0.272458
2   -0.284954
3   -0.28865
4   -0.288128
5   -0.203863
6   -0.194215
7   -0.056708
8   -0.196145
9   0.141472
10   0.148321
11   0.148652
12   0.141055
13   0.14048
14   0.145679
15   0.150194
16   0.14582
17   0.138504
18   0.115617
19   0.119388
20   0.139781
21   0.110155

$$$$

