PCCDB-ID:  19802
public computational chemistry database (PCCDB) project, http://pccdb.org

 43 42  0  0  0  0  0  0  0  0999 V2000
    0.5873   -6.2482   -1.4632 C   0  0  0  0  0  0  0  0  0  0  0  0
    0.7397   -3.7527   -1.0298 C   0  0  0  0  0  0  0  0  0  0  0  0
    9.2403    0.2058   -5.6163 C   0  0  0  0  0  0  0  0  0  0  0  0
    7.0330   -0.7811   -4.8609 C   0  0  0  0  0  0  0  0  0  0  0  0
    5.4972   -1.9954    0.6600 C   0  0  0  0  0  0  0  0  0  0  0  0
    3.8662   -4.0882   -1.2646 C   0  0  0  0  0  0  0  0  0  0  0  0
    2.8135   -5.1552   -1.4025 C   0  0  0  0  0  0  0  0  0  0  0  0
    4.8193   -4.3613   -0.0710 C   0  0  0  0  0  0  0  0  0  0  0  0
    7.1723   -3.6221   -0.2966 C   0  0  0  0  0  0  0  0  0  0  0  0
    8.3744   -2.7329   -0.1977 C   0  0  0  0  0  0  0  0  0  0  0  0
    9.1307   -1.1111   -3.4682 C   0  0  0  0  0  0  0  0  0  0  0  0
    1.4800   -5.0400   -1.3007 C   0  0  0  0  0  0  0  0  0  0  0  0
    8.3665   -0.1670   -4.4107 C   0  0  0  0  0  0  0  0  0  0  0  0
    5.9159   -3.3254    0.0743 C   0  0  0  0  0  0  0  0  0  0  0  0
    8.4598   -1.3091   -2.1201 C   0  0  0  0  0  0  0  0  0  0  0  0
    7.6511   -0.5491   -1.6260 O   0  0  0  0  0  0  0  0  0  0  0  0
    8.9189   -2.4267   -1.5175 O   0  0  0  0  0  0  0  0  0  0  0  0
   -0.0199   -6.4161   -0.5622 H   0  0  0  0  0  0  0  0  0  0  0  0
    1.1623   -7.1587   -1.6592 H   0  0  0  0  0  0  0  0  0  0  0  0
   -0.1216   -6.1087   -2.2917 H   0  0  0  0  0  0  0  0  0  0  0  0
    0.0400   -3.5287   -1.8471 H   0  0  0  0  0  0  0  0  0  0  0  0
    1.3983   -2.8899   -0.9090 H   0  0  0  0  0  0  0  0  0  0  0  0
    0.1311   -3.8415   -0.1189 H   0  0  0  0  0  0  0  0  0  0  0  0
    8.7127    0.8981   -6.2825 H   0  0  0  0  0  0  0  0  0  0  0  0
    9.5047   -0.6826   -6.2050 H   0  0  0  0  0  0  0  0  0  0  0  0
   10.1744    0.6881   -5.3035 H   0  0  0  0  0  0  0  0  0  0  0  0
    6.4859   -0.0903   -5.5129 H   0  0  0  0  0  0  0  0  0  0  0  0
    6.3926   -1.0098   -4.0033 H   0  0  0  0  0  0  0  0  0  0  0  0
    7.1986   -1.7090   -5.4248 H   0  0  0  0  0  0  0  0  0  0  0  0
    4.4718   -1.7475    0.3637 H   0  0  0  0  0  0  0  0  0  0  0  0
    6.1412   -1.1759    0.3340 H   0  0  0  0  0  0  0  0  0  0  0  0
    5.5029   -2.0345    1.7584 H   0  0  0  0  0  0  0  0  0  0  0  0
    3.4160   -3.0961   -1.1595 H   0  0  0  0  0  0  0  0  0  0  0  0
    4.4743   -4.0543   -2.1802 H   0  0  0  0  0  0  0  0  0  0  0  0
    3.2124   -6.1531   -1.5973 H   0  0  0  0  0  0  0  0  0  0  0  0
    5.2624   -5.3570   -0.1966 H   0  0  0  0  0  0  0  0  0  0  0  0
    4.2196   -4.3976    0.8496 H   0  0  0  0  0  0  0  0  0  0  0  0
    7.3736   -4.6133   -0.7036 H   0  0  0  0  0  0  0  0  0  0  0  0
    9.1992   -3.2498    0.3022 H   0  0  0  0  0  0  0  0  0  0  0  0
    8.1692   -1.7984    0.3240 H   0  0  0  0  0  0  0  0  0  0  0  0
   10.1330   -0.7081   -3.2611 H   0  0  0  0  0  0  0  0  0  0  0  0
    9.2911   -2.0927   -3.9304 H   0  0  0  0  0  0  0  0  0  0  0  0
    8.1439    0.7458   -3.8437 H   0  0  0  0  0  0  0  0  0  0  0  0
  1 12  1  0  0  0  0
  1 18  1  0  0  0  0
  2 22  1  0  0  0  0
  2 23  1  0  0  0  0
  3 26  1  0  0  0  0
  3 13  1  0  0  0  0
  4 13  1  0  0  0  0
  4 28  1  0  0  0  0
  5 32  1  0  0  0  0
  6 33  1  0  0  0  0
  6  8  1  0  0  0  0
  7 12  2  0  0  0  0
  7  6  1  0  0  0  0
  8 14  1  0  0  0  0
  8 37  1  0  0  0  0
  9 10  1  0  0  0  0
  9 14  2  0  0  0  0
 10 39  1  0  0  0  0
 10 40  1  0  0  0  0
 11 41  1  0  0  0  0
 11 15  1  0  0  0  0
 12  2  1  0  0  0  0
 13 43  1  0  0  0  0
 13 11  1  0  0  0  0
 14  5  1  0  0  0  0
 15 16  2  0  0  0  0
 15 17  1  0  0  0  0
 17 10  1  0  0  0  0
 19  1  1  0  0  0  0
 20  1  1  0  0  0  0
 21  2  1  0  0  0  0
 24  3  1  0  0  0  0
 25  3  1  0  0  0  0
 27  4  1  0  0  0  0
 29  4  1  0  0  0  0
 30  5  1  0  0  0  0
 31  5  1  0  0  0  0
 34  6  1  0  0  0  0
 35  7  1  0  0  0  0
 36  8  1  0  0  0  0
 38  9  1  0  0  0  0
 42 11  1  0  0  0  0
M  END
>  <HBA>
2

>  <HBD>
0

>  <TPSA>
26.3

>  <cid>
19802

>  <dipole>
0.98

>  <excitation_energy_1>
5.589

>  <excitation_energy_2>
5.732

>  <excitation_energy_3>
5.758

>  <excitation_energy_4>
5.976

>  <homo_energy>
-6.172

>  <homo_lumo_gap>
6.463

>  <logP>
4.268

>  <lumo_energy>
0.291

>  <melting_point>
6.32

>  <molecular_refractivity>
74.56

>  <oscillator_strength_1>
0.0233

>  <oscillator_strength_2>
0.0434

>  <oscillator_strength_3>
0.0245

>  <oscillator_strength_4>
0.0012

>  <open_babel_can_smiles>
CC(CC(=O)OC/C=C(/CCC=C(C)C)\C)C

>  <mulliken_charges>
43
1   -0.505936
2   -0.512958
3   -0.446691
4   -0.451974
5   -0.542119
6   -0.303523
7   -0.159936
8   -0.331488
9   -0.188635
10   -0.095272
11   -0.354584
12   0.18833
13   -0.062155
14   0.206685
15   0.625033
16   -0.481897
17   -0.462435
18   0.148609
19   0.150822
20   0.149222
21   0.152937
22   0.153685
23   0.151419
24   0.144285
25   0.138554
26   0.139227
27   0.141479
28   0.16255
29   0.133636
30   0.152518
31   0.196761
32   0.155023
33   0.144061
34   0.147167
35   0.109428
36   0.13916
37   0.143027
38   0.122164
39   0.153959
40   0.170446
41   0.168581
42   0.161938
43   0.148894

>  <lowdin_charges>
43
1   -0.43983
2   -0.445521
3   -0.445947
4   -0.450137
5   -0.453439
6   -0.271465
7   -0.191302
8   -0.270398
9   -0.214478
10   -0.131141
11   -0.30102
12   -0.010216
13   -0.118243
14   0.015772
15   0.202186
16   -0.276099
17   -0.197074
18   0.152462
19   0.15432
20   0.152952
21   0.156345
22   0.155495
23   0.155085
24   0.15184
25   0.145688
26   0.146977
27   0.150956
28   0.158886
29   0.142556
30   0.154865
31   0.175738
32   0.156374
33   0.146042
34   0.151139
35   0.143618
36   0.146134
37   0.148667
38   0.149537
39   0.157526
40   0.162674
41   0.168877
42   0.16265
43   0.150951

$$$$

