PCCDB-ID:  49751
public computational chemistry database (PCCDB) project, http://pccdb.org

 22 22  0  0  0  0  0  0  0  0999 V2000
    1.5739    2.3724    1.9816 C   0  0  0  0  0  0  0  0  0  0  0  0
    5.9625    1.2324    2.1925 C   0  0  0  0  0  0  0  0  0  0  0  0
    5.4865    0.3556   -0.0289 C   0  0  0  0  0  0  0  0  0  0  0  0
    7.3009    0.9024    2.0233 C   0  0  0  0  0  0  0  0  0  0  0  0
    6.8256    0.0264   -0.1895 C   0  0  0  0  0  0  0  0  0  0  0  0
    3.0561    2.1433    2.1967 C   0  0  0  0  0  0  0  0  0  0  0  0
    5.0408    0.9617    1.1607 C   0  0  0  0  0  0  0  0  0  0  0  0
    7.7235    0.3007    0.8393 C   0  0  0  0  0  0  0  0  0  0  0  0
    3.6636    1.2494    1.3042 N   0  0  0  0  0  0  0  0  0  0  0  0
    9.1353   -0.0507    0.6723 N   0  0  0  0  0  0  0  0  0  0  0  0
    3.6898    2.6796    3.0882 O   0  0  0  0  0  0  0  0  0  0  0  0
    2.8492    0.8248    0.2423 O   0  0  0  0  0  0  0  0  0  0  0  0
    9.9055    0.2128    1.5969 O   0  0  0  0  0  0  0  0  0  0  0  0
    9.4707   -0.5910   -0.3835 O   0  0  0  0  0  0  0  0  0  0  0  0
    1.0082    1.4362    2.0285 H   0  0  0  0  0  0  0  0  0  0  0  0
    1.3810    2.8176    1.0011 H   0  0  0  0  0  0  0  0  0  0  0  0
    1.2338    3.0451    2.7697 H   0  0  0  0  0  0  0  0  0  0  0  0
    5.6274    1.7037    3.1034 H   0  0  0  0  0  0  0  0  0  0  0  0
    4.7852    0.1641   -0.8298 H   0  0  0  0  0  0  0  0  0  0  0  0
    8.0226    1.1032    2.8056 H   0  0  0  0  0  0  0  0  0  0  0  0
    7.1823   -0.4346   -1.1022 H   0  0  0  0  0  0  0  0  0  0  0  0
    2.6120   -0.0967    0.4601 H   0  0  0  0  0  0  0  0  0  0  0  0
  1 15  1  0  0  0  0
  1  6  1  0  0  0  0
  1 17  1  0  0  0  0
  2 18  1  0  0  0  0
  3  7  1  0  0  0  0
  4  2  1  0  0  0  0
  4 20  1  0  0  0  0
  5  3  2  0  0  0  0
  5  8  1  0  0  0  0
  6 11  2  0  0  0  0
  7  9  1  0  0  0  0
  7  2  2  0  0  0  0
  8  4  2  0  0  0  0
  9  6  1  0  0  0  0
 10  8  1  0  0  0  0
 10 13  2  0  0  0  0
 12 22  1  0  0  0  0
 12  9  1  0  0  0  0
 14 10  2  0  0  0  0
 16  1  1  0  0  0  0
 19  3  1  0  0  0  0
 21  5  1  0  0  0  0
M  END
>  <HBA>
3

>  <HBD>
1

>  <TPSA>
86.36

>  <cid>
49751

>  <dipole>
6.79

>  <excitation_energy_1>
3.736

>  <excitation_energy_2>
3.936

>  <excitation_energy_3>
4.254

>  <excitation_energy_4>
4.323

>  <homo_energy>
-6.757

>  <homo_lumo_gap>
4.425

>  <logP>
1.86

>  <lumo_energy>
-2.332

>  <melting_point>
127.76

>  <molecular_refractivity>
50.4

>  <oscillator_strength_1>
0.0012

>  <oscillator_strength_2>
0.3861

>  <oscillator_strength_3>
0.0012

>  <oscillator_strength_4>
0.0091

>  <open_babel_can_smiles>
CC(=O)N(c1ccc(cc1)N(=O)=O)O

>  <mulliken_charges>
22
1   -0.514645
2   -0.175899
3   -0.188332
4   -0.167125
5   -0.156105
6   0.574987
7   0.335525
8   0.288019
9   -0.317408
10   0.372887
11   -0.466641
12   -0.493852
13   -0.398839
14   -0.40121
15   0.165146
16   0.193873
17   0.189543
18   0.201094
19   0.162586
20   0.186777
21   0.183976
22   0.425643

>  <lowdin_charges>
22
1   -0.465109
2   -0.171942
3   -0.185054
4   -0.130351
5   -0.130961
6   0.174901
7   0.066703
8   -0.009764
9   0.01664
10   0.310029
11   -0.264831
12   -0.349782
13   -0.25197
14   -0.254125
15   0.169273
16   0.182456
17   0.180796
18   0.196097
19   0.177144
20   0.190904
21   0.188875
22   0.36007

$$$$

