PCCDB-ID:  11757
public computational chemistry database (PCCDB) project, http://pccdb.org

 15 14  0  0  0  0  0  0  0  0999 V2000
    3.7784   -0.8341   -0.3118 C   0  0  0  0  0  0  0  0  0  0  0  0
    3.3589    0.0587    0.8630 C   0  0  0  0  0  0  0  0  0  0  0  0
    3.4281    1.5375    0.5240 C   0  0  0  0  0  0  0  0  0  0  0  0
    2.9880    2.4438    1.6736 N   0  0  0  0  0  0  0  0  0  0  0  0
    4.8509    1.9418    0.1865 N   0  0  0  0  0  0  0  0  0  0  0  0
    3.2126    3.6360    1.5203 O   0  0  0  0  0  0  0  0  0  0  0  0
    2.4167    1.9220    2.6199 O   0  0  0  0  0  0  0  0  0  0  0  0
    5.6564    1.9193    1.1077 O   0  0  0  0  0  0  0  0  0  0  0  0
    5.0821    2.1944   -0.9880 O   0  0  0  0  0  0  0  0  0  0  0  0
    3.6508   -1.8849   -0.0361 H   0  0  0  0  0  0  0  0  0  0  0  0
    4.8284   -0.6862   -0.5835 H   0  0  0  0  0  0  0  0  0  0  0  0
    3.1690   -0.6432   -1.2021 H   0  0  0  0  0  0  0  0  0  0  0  0
    3.9886   -0.1197    1.7400 H   0  0  0  0  0  0  0  0  0  0  0  0
    2.3275   -0.1532    1.1592 H   0  0  0  0  0  0  0  0  0  0  0  0
    2.8194    1.8296   -0.3315 H   0  0  0  0  0  0  0  0  0  0  0  0
  1 10  1  0  0  0  0
  1  2  1  0  0  0  0
  2 14  1  0  0  0  0
  2 13  1  0  0  0  0
  3  2  1  0  0  0  0
  3  4  1  0  0  0  0
  4  7  2  0  0  0  0
  5  3  1  0  0  0  0
  5  8  2  0  0  0  0
  6  4  2  0  0  0  0
  9  5  2  0  0  0  0
 11  1  1  0  0  0  0
 12  1  1  0  0  0  0
 15  3  1  0  0  0  0
M  END
>  <HBA>
0

>  <HBD>
0

>  <TPSA>
91.64

>  <cid>
11757

>  <dipole>
4.12

>  <excitation_energy_1>
4.089

>  <excitation_energy_2>
4.104

>  <excitation_energy_3>
4.358

>  <excitation_energy_4>
4.395

>  <homo_energy>
-8.593

>  <homo_lumo_gap>
5.921

>  <logP>
1.322

>  <lumo_energy>
-2.672

>  <melting_point>
36.94

>  <molecular_refractivity>
32.74

>  <oscillator_strength_1>
0.0005

>  <oscillator_strength_2>
0.0002

>  <oscillator_strength_3>
0.0003

>  <oscillator_strength_4>
0.0004

>  <open_babel_can_smiles>
CCC(N(=O)=O)N(=O)=O

>  <mulliken_charges>
15
1   -0.465814
2   -0.280945
3   0.092289
4   0.466738
5   0.473409
6   -0.343949
7   -0.355063
8   -0.35181
9   -0.35439
10   0.172219
11   0.17669
12   0.162498
13   0.194282
14   0.189182
15   0.224664

>  <lowdin_charges>
15
1   -0.444668
2   -0.280628
3   -0.041937
4   0.28846
5   0.293638
6   -0.210999
7   -0.207979
8   -0.219961
9   -0.211888
10   0.166678
11   0.1624
12   0.158836
13   0.176374
14   0.175669
15   0.196005

$$$$

