PCCDB-ID:  16020
public computational chemistry database (PCCDB) project, http://pccdb.org

 29 29  0  0  1  0  0  0  0  0999 V2000
    2.4588   -3.2090   -1.9867 C   0  0  0  0  0  0  0  0  0  0  0  0
    4.5610   -4.2303    1.6494 C   0  0  0  0  0  0  0  0  0  0  0  0
    4.5485   -3.3943    2.7651 C   0  0  0  0  0  0  0  0  0  0  0  0
    3.8037   -3.8807    0.5354 C   0  0  0  0  0  0  0  0  0  0  0  0
    3.7920   -2.2244    2.7647 C   0  0  0  0  0  0  0  0  0  0  0  0
   -0.1677    0.6423    1.8354 C   0  0  0  0  0  0  0  0  0  0  0  0
    2.1291    0.0729    2.7451 C   0  0  0  0  0  0  0  0  0  0  0  0
    2.1714   -2.4263   -0.7066 C   0  0  0  0  0  0  0  0  0  0  0  0
    1.1572    1.1831    2.3654 C   0  0  2  0  0  0  0  0  0  0  0  0
    3.0156   -2.7177    0.4978 C   0  0  0  0  0  0  0  0  0  0  0  0
    3.0265   -1.8735    1.6429 C   0  0  0  0  0  0  0  0  0  0  0  0
   -1.0164    1.7894    1.7039 O   0  0  0  0  0  0  0  0  0  0  0  0
    1.2631   -1.6096   -0.7029 O   0  0  0  0  0  0  0  0  0  0  0  0
    0.9456    1.9438    3.5455 O   0  0  0  0  0  0  0  0  0  0  0  0
    2.3044   -0.7336    1.5841 O   0  0  0  0  0  0  0  0  0  0  0  0
    2.1713   -4.2620   -1.8780 H   0  0  0  0  0  0  0  0  0  0  0  0
    3.5200   -3.1816   -2.2571 H   0  0  0  0  0  0  0  0  0  0  0  0
    1.8639   -2.7689   -2.7889 H   0  0  0  0  0  0  0  0  0  0  0  0
    5.1513   -5.1414    1.6473 H   0  0  0  0  0  0  0  0  0  0  0  0
    5.1334   -3.6470    3.6456 H   0  0  0  0  0  0  0  0  0  0  0  0
    3.8077   -4.5367   -0.3281 H   0  0  0  0  0  0  0  0  0  0  0  0
    3.8030   -1.5809    3.6363 H   0  0  0  0  0  0  0  0  0  0  0  0
   -0.5857   -0.0707    2.5643 H   0  0  0  0  0  0  0  0  0  0  0  0
   -0.0183    0.1275    0.8795 H   0  0  0  0  0  0  0  0  0  0  0  0
    1.7150   -0.5205    3.5714 H   0  0  0  0  0  0  0  0  0  0  0  0
    3.0818    0.5095    3.0725 H   0  0  0  0  0  0  0  0  0  0  0  0
    1.6127    1.8050    1.5779 H   0  0  0  0  0  0  0  0  0  0  0  0
   -1.9003    1.4862    1.4517 H   0  0  0  0  0  0  0  0  0  0  0  0
    0.1456    2.4672    3.3639 H   0  0  0  0  0  0  0  0  0  0  0  0
  1 16  1  0  0  0  0
  1  8  1  0  0  0  0
  2  3  2  0  0  0  0
  3 20  1  0  0  0  0
  4  2  1  0  0  0  0
  5  3  1  0  0  0  0
  5 22  1  0  0  0  0
  6  9  1  0  0  0  0
  6 23  1  0  0  0  0
  7 26  1  0  0  0  0
  7 25  1  0  0  0  0
  8 13  2  0  0  0  0
  8 10  1  0  0  0  0
  9 27  1  6  0  0  0
  9  7  1  0  0  0  0
  9 14  1  0  0  0  0
 10  4  2  0  0  0  0
 10 11  1  0  0  0  0
 11  5  2  0  0  0  0
 12  6  1  0  0  0  0
 15 11  1  0  0  0  0
 15  7  1  0  0  0  0
 17  1  1  0  0  0  0
 18  1  1  0  0  0  0
 19  2  1  0  0  0  0
 21  4  1  0  0  0  0
 24  6  1  0  0  0  0
 28 12  1  0  0  0  0
 29 14  1  0  0  0  0
M  END
>  <HBA>
4

>  <HBD>
2

>  <TPSA>
66.76

>  <cid>
16020

>  <dipole>
2.67

>  <excitation_energy_1>
3.605

>  <excitation_energy_2>
4.179

>  <excitation_energy_3>
5.178

>  <excitation_energy_4>
5.28

>  <homo_energy>
-6.196

>  <homo_lumo_gap>
4.836

>  <logP>
0.621

>  <lumo_energy>
-1.361

>  <melting_point>
80.23

>  <molecular_refractivity>
55.07

>  <oscillator_strength_1>
0.001

>  <oscillator_strength_2>
0.0954

>  <oscillator_strength_3>
0.107

>  <oscillator_strength_4>
0.0009

>  <open_babel_can_smiles>
OC[C@H](COc1ccccc1C(=O)C)O

>  <mulliken_charges>
29
1   -0.543133
2   -0.132369
3   -0.128764
4   -0.194399
5   -0.194574
6   -0.071294
7   -0.052429
8   0.405887
9   0.122095
10   0.037495
11   0.343627
12   -0.642971
13   -0.443268
14   -0.653881
15   -0.494718
16   0.169694
17   0.167371
18   0.179278
19   0.13253
20   0.139418
21   0.136648
22   0.148208
23   0.118805
24   0.188064
25   0.151329
26   0.156819
27   0.138249
28   0.402881
29   0.4134

>  <lowdin_charges>
29
1   -0.475546
2   -0.18051
3   -0.128735
4   -0.140327
5   -0.213114
6   -0.161661
7   -0.133837
8   0.16051
9   -0.013685
10   -0.078575
11   0.12569
12   -0.480019
13   -0.240203
14   -0.469325
15   -0.169214
16   0.167655
17   0.164526
18   0.174787
19   0.160404
20   0.162938
21   0.164638
22   0.169678
23   0.130307
24   0.163533
25   0.147169
26   0.150002
27   0.139472
28   0.351581
29   0.351862

$$$$

