PCCDB-ID:  10324
public computational chemistry database (PCCDB) project, http://pccdb.org

 26 25  0  0  1  0  0  0  0  0999 V2000
    0.4874   -1.5249    0.3574 C   0  0  0  0  0  0  0  0  0  0  0  0
    6.1284    1.5157    3.3740 C   0  0  0  0  0  0  0  0  0  0  0  0
    1.9103   -1.1642   -0.0799 C   0  0  0  0  0  0  0  0  0  0  0  0
    4.9359    0.9100    2.6232 C   0  0  0  0  0  0  0  0  0  0  0  0
    2.8731   -0.9810    1.1004 C   0  0  0  0  0  0  0  0  0  0  0  0
    5.4808   -1.5605    2.7280 C   0  0  0  0  0  0  0  0  0  0  0  0
    5.2880   -0.3591    1.8195 C   0  0  1  0  0  0  0  0  0  0  0  0
    4.3109   -0.6703    0.6484 C   0  0  1  0  0  0  0  0  0  0  0  0
    5.4310   -2.7215    2.3628 O   0  0  0  0  0  0  0  0  0  0  0  0
    4.8418   -1.6952   -0.1809 O   0  0  0  0  0  0  0  0  0  0  0  0
   -0.1739   -1.6506   -0.5077 H   0  0  0  0  0  0  0  0  0  0  0  0
    0.0539   -0.7452    0.9964 H   0  0  0  0  0  0  0  0  0  0  0  0
    0.4724   -2.4629    0.9258 H   0  0  0  0  0  0  0  0  0  0  0  0
    5.8323    2.4207    3.9156 H   0  0  0  0  0  0  0  0  0  0  0  0
    6.9319    1.7888    2.6792 H   0  0  0  0  0  0  0  0  0  0  0  0
    6.5503    0.8187    4.1079 H   0  0  0  0  0  0  0  0  0  0  0  0
    1.8885   -0.2386   -0.6730 H   0  0  0  0  0  0  0  0  0  0  0  0
    2.3106   -1.9409   -0.7408 H   0  0  0  0  0  0  0  0  0  0  0  0
    4.5329    1.6588    1.9297 H   0  0  0  0  0  0  0  0  0  0  0  0
    4.1261    0.6902    3.3324 H   0  0  0  0  0  0  0  0  0  0  0  0
    2.8762   -1.8923    1.7147 H   0  0  0  0  0  0  0  0  0  0  0  0
    2.5091   -0.1689    1.7463 H   0  0  0  0  0  0  0  0  0  0  0  0
    5.6831   -1.3393    3.7990 H   0  0  0  0  0  0  0  0  0  0  0  0
    6.2689   -0.2026    1.3400 H   0  0  0  0  0  0  0  0  0  0  0  0
    4.2848    0.2263    0.0147 H   0  0  0  0  0  0  0  0  0  0  0  0
    5.0076   -2.4531    0.4102 H   0  0  0  0  0  0  0  0  0  0  0  0
  1 13  1  0  0  0  0
  1 12  1  0  0  0  0
  2 14  1  0  0  0  0
  2 16  1  0  0  0  0
  3  1  1  0  0  0  0
  3  5  1  0  0  0  0
  4 20  1  0  0  0  0
  4  2  1  0  0  0  0
  5 21  1  0  0  0  0
  5 22  1  0  0  0  0
  6 23  1  0  0  0  0
  7 24  1  6  0  0  0
  7  4  1  0  0  0  0
  7  6  1  0  0  0  0
  8 25  1  6  0  0  0
  8  5  1  0  0  0  0
  8  7  1  0  0  0  0
  9  6  2  0  0  0  0
 10 26  1  0  0  0  0
 10  8  1  0  0  0  0
 11  1  1  0  0  0  0
 15  2  1  0  0  0  0
 17  3  1  0  0  0  0
 18  3  1  0  0  0  0
 19  4  1  0  0  0  0
M  END
>  <HBA>
2

>  <HBD>
1

>  <TPSA>
37.3

>  <cid>
10324

>  <dipole>
3.22

>  <excitation_energy_1>
4.077

>  <excitation_energy_2>
4.855

>  <excitation_energy_3>
6.272

>  <excitation_energy_4>
6.572

>  <homo_energy>
-6.914

>  <homo_lumo_gap>
5.788

>  <logP>
1.373

>  <lumo_energy>
-1.127

>  <melting_point>
22.45

>  <molecular_refractivity>
41.93

>  <oscillator_strength_1>
0.0006

>  <oscillator_strength_2>
0.0045

>  <oscillator_strength_3>
0.0025

>  <oscillator_strength_4>
0.0064

>  <open_babel_can_smiles>
CCC[C@@H]([C@H](C=O)CC)O

>  <mulliken_charges>
26
1   -0.443836
2   -0.456114
3   -0.247385
4   -0.280067
5   -0.278608
6   0.254547
7   -0.179329
8   0.13407
9   -0.410037
10   -0.647651
11   0.143523
12   0.136735
13   0.142305
14   0.154419
15   0.15238
16   0.148552
17   0.126716
18   0.157249
19   0.150081
20   0.145636
21   0.136387
22   0.12612
23   0.120822
24   0.175206
25   0.129081
26   0.409197

>  <lowdin_charges>
26
1   -0.446117
2   -0.44922
3   -0.273559
4   -0.278826
5   -0.299513
6   0.06734
7   -0.182574
8   0.001232
9   -0.22804
10   -0.470588
11   0.150685
12   0.144545
13   0.146538
14   0.156608
15   0.15239
16   0.148711
17   0.137946
18   0.154009
19   0.153218
20   0.146293
21   0.143947
22   0.141324
23   0.124781
24   0.174349
25   0.141236
26   0.343283

$$$$

