PCCDB-ID:  21264
public computational chemistry database (PCCDB) project, http://pccdb.org

 20 19  0  0  1  0  0  0  0  0999 V2000
    2.2659    1.3247    2.5601 C   0  0  0  0  0  0  0  0  0  0  0  0
    6.6958    0.7300   -1.4571 C   0  0  0  0  0  0  0  0  0  0  0  0
    3.0344    2.1653    1.8659 C   0  0  0  0  0  0  0  0  0  0  0  0
    5.3039    1.3311   -1.2314 C   0  0  0  0  0  0  0  0  0  0  0  0
    3.4654    1.9470    0.4386 C   0  0  0  0  0  0  0  0  0  0  0  0
    5.8250    2.7219    0.8287 C   0  0  0  0  0  0  0  0  0  0  0  0
    4.9781    1.6038    0.2448 C   0  0  2  0  0  0  0  0  0  0  0  0
    6.4350    3.5419    0.1756 O   0  0  0  0  0  0  0  0  0  0  0  0
    1.9804    1.5263    3.5890 H   0  0  0  0  0  0  0  0  0  0  0  0
    1.8883    0.4019    2.1233 H   0  0  0  0  0  0  0  0  0  0  0  0
    6.8578    0.5138   -2.5189 H   0  0  0  0  0  0  0  0  0  0  0  0
    6.8176   -0.2104   -0.9050 H   0  0  0  0  0  0  0  0  0  0  0  0
    7.4809    1.4203   -1.1343 H   0  0  0  0  0  0  0  0  0  0  0  0
    3.3777    3.0813    2.3476 H   0  0  0  0  0  0  0  0  0  0  0  0
    4.5421    0.6501   -1.6332 H   0  0  0  0  0  0  0  0  0  0  0  0
    5.2154    2.2707   -1.7893 H   0  0  0  0  0  0  0  0  0  0  0  0
    3.2440    2.8431   -0.1587 H   0  0  0  0  0  0  0  0  0  0  0  0
    2.8845    1.1234    0.0062 H   0  0  0  0  0  0  0  0  0  0  0  0
    5.8406    2.7720    1.9407 H   0  0  0  0  0  0  0  0  0  0  0  0
    5.1785    0.7054    0.8493 H   0  0  0  0  0  0  0  0  0  0  0  0
  1  9  1  0  0  0  0
  2  4  1  0  0  0  0
  2 13  1  0  0  0  0
  2 12  1  0  0  0  0
  3 14  1  0  0  0  0
  3  1  2  0  0  0  0
  4  7  1  0  0  0  0
  5  3  1  0  0  0  0
  6 19  1  0  0  0  0
  7  5  1  0  0  0  0
  7  6  1  0  0  0  0
  7 20  1  1  0  0  0
  8  6  2  0  0  0  0
 10  1  1  0  0  0  0
 11  2  1  0  0  0  0
 15  4  1  0  0  0  0
 16  4  1  0  0  0  0
 17  5  1  0  0  0  0
 18  5  1  0  0  0  0
M  END
>  <HBA>
1

>  <HBD>
0

>  <TPSA>
17.07

>  <cid>
21264

>  <dipole>
2.37

>  <excitation_energy_1>
4.147

>  <excitation_energy_2>
5.524

>  <excitation_energy_3>
6.098

>  <excitation_energy_4>
6.388

>  <homo_energy>
-6.748

>  <homo_lumo_gap>
6.057

>  <logP>
1.788

>  <lumo_energy>
-0.691

>  <melting_point>
-16.1

>  <molecular_refractivity>
35.49

>  <oscillator_strength_1>
0.0005

>  <oscillator_strength_2>
0.0111

>  <oscillator_strength_3>
0.0276

>  <oscillator_strength_4>
0.0087

>  <open_babel_can_smiles>
C=CC[C@H](C=O)CC

>  <mulliken_charges>
20
1   -0.33628
2   -0.456176
3   -0.057132
4   -0.249775
5   -0.321127
6   0.243811
7   -0.148765
8   -0.389157
9   0.144481
10   0.138607
11   0.146104
12   0.137149
13   0.166251
14   0.134568
15   0.13059
16   0.155144
17   0.158036
18   0.15081
19   0.110953
20   0.141909

>  <lowdin_charges>
20
1   -0.334045
2   -0.447145
3   -0.154974
4   -0.273158
5   -0.267529
6   0.05831
7   -0.163145
8   -0.220366
9   0.159901
10   0.155336
11   0.15132
12   0.143747
13   0.159167
14   0.15279
15   0.143823
16   0.154108
17   0.156737
18   0.155713
19   0.116
20   0.153412

$$$$

