PCCDB-ID:  50399
public computational chemistry database (PCCDB) project, http://pccdb.org

 27 28  0  0  1  0  0  0  0  0999 V2000
    0.9316    0.0580   -0.1653 C   0  0  0  0  0  0  0  0  0  0  0  0
    2.9417   -0.7902    2.7013 C   0  0  0  0  0  0  0  0  0  0  0  0
    5.0192   -0.2383    1.4523 C   0  0  0  0  0  0  0  0  0  0  0  0
    2.5393   -1.6645    1.7728 C   0  0  0  0  0  0  0  0  0  0  0  0
    4.5715   -1.2978    0.4085 C   0  0  0  0  0  0  0  0  0  0  0  0
    2.9152    1.0732    1.0659 C   0  0  0  0  0  0  0  0  0  0  0  0
    3.7617    0.3529    2.1492 C   0  0  1  0  0  0  0  0  0  0  0  0
    3.0172   -1.3473    0.3726 C   0  0  2  0  0  0  0  0  0  0  0  0
    3.0249    0.4459   -1.4559 C   0  0  0  0  0  0  0  0  0  0  0  0
    2.4755    0.0756   -0.0549 C   0  0  1  0  0  0  0  0  0  0  0  0
    3.5897    1.5064   -1.8633 N   0  0  0  0  0  0  0  0  0  0  0  0
    2.8250   -0.5131   -2.4118 O   0  0  0  0  0  0  0  0  0  0  0  0
    0.4887   -0.2253    0.7942 H   0  0  0  0  0  0  0  0  0  0  0  0
    0.5756   -0.6496   -0.9239 H   0  0  0  0  0  0  0  0  0  0  0  0
    0.5568    1.0500   -0.4395 H   0  0  0  0  0  0  0  0  0  0  0  0
    2.7102   -0.8746    3.7600 H   0  0  0  0  0  0  0  0  0  0  0  0
    5.5761    0.5720    0.9670 H   0  0  0  0  0  0  0  0  0  0  0  0
    5.6838   -0.6827    2.2004 H   0  0  0  0  0  0  0  0  0  0  0  0
    1.9447   -2.5495    1.9826 H   0  0  0  0  0  0  0  0  0  0  0  0
    4.9482   -2.2907    0.6733 H   0  0  0  0  0  0  0  0  0  0  0  0
    4.9616   -1.0611   -0.5870 H   0  0  0  0  0  0  0  0  0  0  0  0
    3.5067    1.9019    0.6634 H   0  0  0  0  0  0  0  0  0  0  0  0
    2.0312    1.5215    1.5308 H   0  0  0  0  0  0  0  0  0  0  0  0
    4.0535    1.0669    2.9261 H   0  0  0  0  0  0  0  0  0  0  0  0
    2.6812   -2.1223   -0.3273 H   0  0  0  0  0  0  0  0  0  0  0  0
    3.6932    2.1822   -1.1090 H   0  0  0  0  0  0  0  0  0  0  0  0
    2.3855   -1.2804   -2.0183 H   0  0  0  0  0  0  0  0  0  0  0  0
  1 10  1  0  0  0  0
  1 13  1  0  0  0  0
  2 16  1  0  0  0  0
  3  7  1  0  0  0  0
  3 18  1  0  0  0  0
  4 19  1  0  0  0  0
  4  2  2  0  0  0  0
  5 20  1  0  0  0  0
  5  3  1  0  0  0  0
  6 23  1  0  0  0  0
  6  7  1  0  0  0  0
  7  2  1  0  0  0  0
  7 24  1  1  0  0  0
  8 25  1  6  0  0  0
  8  5  1  0  0  0  0
  8  4  1  0  0  0  0
 10  9  1  6  0  0  0
 10  8  1  0  0  0  0
 10  6  1  0  0  0  0
 11  9  2  0  0  0  0
 11 26  1  0  0  0  0
 12 27  1  0  0  0  0
 12  9  1  0  0  0  0
 14  1  1  0  0  0  0
 15  1  1  0  0  0  0
 17  3  1  0  0  0  0
 21  5  1  0  0  0  0
 22  6  1  0  0  0  0
M  END
>  <HBA>
2

>  <HBD>
1

>  <TPSA>
43.09

>  <cid>
50399

>  <dipole>
4.37

>  <excitation_energy_1>
5.847

>  <excitation_energy_2>
5.949

>  <excitation_energy_3>
6.236

>  <excitation_energy_4>
6.321

>  <homo_energy>
-6.697

>  <homo_lumo_gap>
6.904

>  <logP>
2.164

>  <lumo_energy>
0.207

>  <melting_point>
120.05

>  <molecular_refractivity>
48.13

>  <oscillator_strength_1>
0.0149

>  <oscillator_strength_2>
0.0086

>  <oscillator_strength_3>
0.005

>  <oscillator_strength_4>
0.0164

>  <open_babel_can_smiles>
C[C@]1(C[C@@H]2CC[C@H]1C=C2)C(=N)O

>  <mulliken_charges>
27
1   -0.461623
2   -0.107763
3   -0.265304
4   -0.116534
5   -0.276736
6   -0.304084
7   -0.136093
8   -0.163706
9   0.479807
10   0.026664
11   -0.601046
12   -0.588813
13   0.162023
14   0.132122
15   0.161796
16   0.130864
17   0.142025
18   0.142792
19   0.130792
20   0.143193
21   0.165696
22   0.132273
23   0.148186
24   0.124295
25   0.102416
26   0.287581
27   0.409178

>  <lowdin_charges>
27
1   -0.443909
2   -0.167632
3   -0.280463
4   -0.177969
5   -0.282395
6   -0.276225
7   -0.130638
8   -0.138301
9   0.12462
10   -0.024466
11   -0.400886
12   -0.368964
13   0.15911
14   0.144082
15   0.158877
16   0.155543
17   0.148874
18   0.150343
19   0.156464
20   0.149729
21   0.157804
22   0.145189
23   0.153296
24   0.148608
25   0.135969
26   0.253859
27   0.349482

$$$$

