PCCDB-ID:  41473
public computational chemistry database (PCCDB) project, http://pccdb.org

 21 21  0  0  0  0  0  0  0  0999 V2000
   -1.6146    0.7241    0.0014 C   0  0  0  0  0  0  0  0  0  0  0  0
   -0.3461    1.4631   -0.4627 C   0  0  0  0  0  0  0  0  0  0  0  0
   -1.5912   -0.7946   -0.2357 C   0  0  0  0  0  0  0  0  0  0  0  0
    1.6802   -0.0185    0.0740 C   0  0  0  0  0  0  0  0  0  0  0  0
    0.8973   -1.2460   -0.4334 C   0  0  0  0  0  0  0  0  0  0  0  0
    1.0449    1.7422    1.5296 N   0  0  0  0  0  0  0  0  0  0  0  0
   -0.4809   -2.1884    1.3600 N   0  0  0  0  0  0  0  0  0  0  0  0
    0.8123    1.1161    0.3614 N   0  0  0  0  0  0  0  0  0  0  0  0
   -0.3769   -1.4461    0.2437 N   0  0  0  0  0  0  0  0  0  0  0  0
    0.2648    2.6511    1.7962 O   0  0  0  0  0  0  0  0  0  0  0  0
    0.5755   -2.6619    1.7649 O   0  0  0  0  0  0  0  0  0  0  0  0
   -2.4824    1.1401   -0.5267 H   0  0  0  0  0  0  0  0  0  0  0  0
   -1.7544    0.9314    1.0670 H   0  0  0  0  0  0  0  0  0  0  0  0
   -0.4912    2.5405   -0.3577 H   0  0  0  0  0  0  0  0  0  0  0  0
   -0.1026    1.2434   -1.5081 H   0  0  0  0  0  0  0  0  0  0  0  0
   -1.6932   -1.0142   -1.3073 H   0  0  0  0  0  0  0  0  0  0  0  0
   -2.4227   -1.2744    0.2873 H   0  0  0  0  0  0  0  0  0  0  0  0
    2.4343    0.2481   -0.6798 H   0  0  0  0  0  0  0  0  0  0  0  0
    2.1949   -0.2483    1.0090 H   0  0  0  0  0  0  0  0  0  0  0  0
    1.5010   -2.1432   -0.2734 H   0  0  0  0  0  0  0  0  0  0  0  0
    0.6822   -1.1537   -1.5026 H   0  0  0  0  0  0  0  0  0  0  0  0
  1 13  1  0  0  0  0
  2 14  1  0  0  0  0
  2  1  1  0  0  0  0
  2  8  1  0  0  0  0
  3  1  1  0  0  0  0
  3  9  1  0  0  0  0
  3 17  1  0  0  0  0
  4  8  1  0  0  0  0
  4 19  1  0  0  0  0
  5 20  1  0  0  0  0
  5  4  1  0  0  0  0
  5  9  1  0  0  0  0
  6 10  2  0  0  0  0
  7 11  1  0  0  0  0
  8  6  1  0  0  0  0
  9  7  1  0  0  0  0
 12  1  1  0  0  0  0
 15  2  1  0  0  0  0
 16  3  1  0  0  0  0
 18  4  1  0  0  0  0
 21  5  1  0  0  0  0
M  RAD  2   7   2  11   2
M  END
>  <HBA>
6

>  <HBD>
0

>  <TPSA>
65.34

>  <cid>
41473

>  <dipole>
5.75

>  <excitation_energy_1>
3.355

>  <excitation_energy_2>
3.372

>  <excitation_energy_3>
4.406

>  <excitation_energy_4>
4.611

>  <homo_energy>
-6.256

>  <homo_lumo_gap>
5.105

>  <logP>
0.233

>  <lumo_energy>
-1.151

>  <melting_point>
40.05

>  <molecular_refractivity>
47.13

>  <oscillator_strength_1>
0.0014

>  <oscillator_strength_2>
0.0008

>  <oscillator_strength_3>
0.0

>  <oscillator_strength_4>
0.0006

>  <open_babel_can_smiles>
[O][N]N1CCCN(CC1)N=O

>  <mulliken_charges>
21
1   -0.264033
2   -0.171855
3   -0.146854
4   -0.123757
5   -0.182288
6   0.162359
7   0.15994
8   -0.223442
9   -0.212611
10   -0.377112
11   -0.374238
12   0.152017
13   0.186001
14   0.196532
15   0.152845
16   0.15202
17   0.186483
18   0.161504
19   0.204606
20   0.201933
21   0.159949

>  <lowdin_charges>
21
1   -0.287913
2   -0.218434
3   -0.201921
4   -0.205351
5   -0.227533
6   0.05955
7   0.061875
8   -0.050247
9   -0.047645
10   -0.268149
11   -0.265725
12   0.159553
13   0.167309
14   0.177949
15   0.151602
16   0.146174
17   0.174717
18   0.154862
19   0.181198
20   0.184124
21   0.154004

$$$$

