PCCDB-ID:  42070
public computational chemistry database (PCCDB) project, http://pccdb.org

 28 29  0  0  0  0  0  0  0  0999 V2000
    2.0515    0.6229    0.7184 C   0  0  0  0  0  0  0  0  0  0  0  0
    3.7426    5.9723   -4.2345 C   0  0  0  0  0  0  0  0  0  0  0  0
    3.9560    5.6199   -2.9006 C   0  0  0  0  0  0  0  0  0  0  0  0
    3.4975    4.9698   -5.1749 C   0  0  0  0  0  0  0  0  0  0  0  0
    3.9275    4.2811   -2.5133 C   0  0  0  0  0  0  0  0  0  0  0  0
    3.4626    3.6320   -4.7852 C   0  0  0  0  0  0  0  0  0  0  0  0
    4.1331    0.8206   -3.8691 C   0  0  0  0  0  0  0  0  0  0  0  0
    4.1041   -0.5160   -3.4716 C   0  0  0  0  0  0  0  0  0  0  0  0
    3.1218    1.4597   -1.7806 C   0  0  0  0  0  0  0  0  0  0  0  0
    3.6789    3.2587   -3.4465 C   0  0  0  0  0  0  0  0  0  0  0  0
    3.6470    1.8341   -3.0350 C   0  0  0  0  0  0  0  0  0  0  0  0
    3.5888   -0.8916   -2.2282 C   0  0  0  0  0  0  0  0  0  0  0  0
    3.0905    0.1289   -1.3832 C   0  0  0  0  0  0  0  0  0  0  0  0
    3.5978   -2.2105   -1.7766 N   0  0  0  0  0  0  0  0  0  0  0  0
    2.5757   -0.3274   -0.1925 O   0  0  0  0  0  0  0  0  0  0  0  0
    1.7136    0.0545    1.5872 H   0  0  0  0  0  0  0  0  0  0  0  0
    1.2014    1.1691    0.2880 H   0  0  0  0  0  0  0  0  0  0  0  0
    2.8187    1.3430    1.0321 H   0  0  0  0  0  0  0  0  0  0  0  0
    3.7670    7.0156   -4.5376 H   0  0  0  0  0  0  0  0  0  0  0  0
    4.1568    6.3893   -2.1592 H   0  0  0  0  0  0  0  0  0  0  0  0
    3.3212    5.2303   -6.2155 H   0  0  0  0  0  0  0  0  0  0  0  0
    4.1286    4.0192   -1.4781 H   0  0  0  0  0  0  0  0  0  0  0  0
    3.2395    2.8647   -5.5212 H   0  0  0  0  0  0  0  0  0  0  0  0
    4.5706    1.0763   -4.8296 H   0  0  0  0  0  0  0  0  0  0  0  0
    4.5046   -1.2854   -4.1280 H   0  0  0  0  0  0  0  0  0  0  0  0
    2.7070    2.2253   -1.1351 H   0  0  0  0  0  0  0  0  0  0  0  0
    3.5525   -2.9102   -2.5065 H   0  0  0  0  0  0  0  0  0  0  0  0
    2.9429   -2.3886   -1.0255 H   0  0  0  0  0  0  0  0  0  0  0  0
  1 18  1  0  0  0  0
  1 16  1  0  0  0  0
  2  3  2  0  0  0  0
  3  5  1  0  0  0  0
  3 20  1  0  0  0  0
  4  6  2  0  0  0  0
  4  2  1  0  0  0  0
  5 22  1  0  0  0  0
  6 10  1  0  0  0  0
  7  8  2  0  0  0  0
  7 11  1  0  0  0  0
  8 12  1  0  0  0  0
  9 13  1  0  0  0  0
  9 26  1  0  0  0  0
 10 11  1  0  0  0  0
 10  5  2  0  0  0  0
 11  9  2  0  0  0  0
 12 14  1  0  0  0  0
 12 13  2  0  0  0  0
 13 15  1  0  0  0  0
 14 28  1  0  0  0  0
 15  1  1  0  0  0  0
 17  1  1  0  0  0  0
 19  2  1  0  0  0  0
 21  4  1  0  0  0  0
 23  6  1  0  0  0  0
 24  7  1  0  0  0  0
 25  8  1  0  0  0  0
 27 14  1  0  0  0  0
M  END
>  <HBA>
2

>  <HBD>
1

>  <TPSA>
35.25

>  <cid>
42070

>  <dipole>
1.95

>  <excitation_energy_1>
4.166

>  <excitation_energy_2>
4.351

>  <excitation_energy_3>
4.464

>  <excitation_energy_4>
4.621

>  <homo_energy>
-4.961

>  <homo_lumo_gap>
4.626

>  <logP>
3.526

>  <lumo_energy>
-0.335

>  <melting_point>
96.85

>  <molecular_refractivity>
62.77

>  <oscillator_strength_1>
0.4247

>  <oscillator_strength_2>
0.0072

>  <oscillator_strength_3>
0.0125

>  <oscillator_strength_4>
0.0189

>  <open_babel_can_smiles>
COc1cc(ccc1N)c1ccccc1

>  <mulliken_charges>
28
1   -0.211284
2   -0.129389
3   -0.134301
4   -0.134002
5   -0.176805
6   -0.176632
7   -0.188518
8   -0.187596
9   -0.263441
10   0.089669
11   0.087383
12   0.267866
13   0.353856
14   -0.791321
15   -0.538398
16   0.166235
17   0.154082
18   0.15389
19   0.125011
20   0.125443
21   0.126134
22   0.124894
23   0.12812
24   0.125748
25   0.11738
26   0.132205
27   0.317678
28   0.336093

>  <lowdin_charges>
28
1   -0.279399
2   -0.162353
3   -0.15779
4   -0.154285
5   -0.166037
6   -0.166667
7   -0.167785
8   -0.196922
9   -0.211493
10   0.003373
11   -0.020779
12   0.038668
13   0.070569
14   -0.48681
15   -0.213892
16   0.16166
17   0.146609
18   0.147563
19   0.154583
20   0.156658
21   0.154689
22   0.15458
23   0.158637
24   0.157619
25   0.155278
26   0.164241
27   0.276027
28   0.283459

$$$$

