PCCDB-ID:  59833
public computational chemistry database (PCCDB) project, http://pccdb.org

 27 28  0  0  1  0  0  0  0  0999 V2000
    1.0146   -0.0015   -0.2723 C   0  0  0  0  0  0  0  0  0  0  0  0
    7.3225   -0.5835   -1.2117 C   0  0  0  0  0  0  0  0  0  0  0  0
    7.3421    0.8138   -1.2355 C   0  0  0  0  0  0  0  0  0  0  0  0
    6.3241   -1.2589   -0.5168 C   0  0  0  0  0  0  0  0  0  0  0  0
    6.3485    1.5287   -0.5703 C   0  0  0  0  0  0  0  0  0  0  0  0
    2.9301    1.5038    0.4085 C   0  0  0  0  0  0  0  0  0  0  0  0
    4.6800    2.4275    1.8637 C   0  0  0  0  0  0  0  0  0  0  0  0
    2.5326    0.0897   -0.0638 C   0  0  1  0  0  0  0  0  0  0  0  0
    5.3070   -0.5564    0.1491 C   0  0  0  0  0  0  0  0  0  0  0  0
    5.3300    0.8570    0.1093 C   0  0  0  0  0  0  0  0  0  0  0  0
    3.1347   -0.9749    0.8545 C   0  0  0  0  0  0  0  0  0  0  0  0
    4.3684   -1.2853    0.8914 N   0  0  0  0  0  0  0  0  0  0  0  0
    4.3280    1.5886    0.8283 N   0  0  0  0  0  0  0  0  0  0  0  0
    5.8092    2.6576    2.2460 O   0  0  0  0  0  0  0  0  0  0  0  0
    2.3053   -1.6743    1.6698 O   0  0  0  0  0  0  0  0  0  0  0  0
    0.6891    0.7440   -1.0055 H   0  0  0  0  0  0  0  0  0  0  0  0
    0.4528    0.2031    0.6499 H   0  0  0  0  0  0  0  0  0  0  0  0
    0.7182   -0.9845   -0.6540 H   0  0  0  0  0  0  0  0  0  0  0  0
    8.0976   -1.1484   -1.7225 H   0  0  0  0  0  0  0  0  0  0  0  0
    8.1303    1.3443   -1.7615 H   0  0  0  0  0  0  0  0  0  0  0  0
    6.3112   -2.3431   -0.4631 H   0  0  0  0  0  0  0  0  0  0  0  0
    6.3592    2.6135   -0.5605 H   0  0  0  0  0  0  0  0  0  0  0  0
    2.3083    1.8017    1.2614 H   0  0  0  0  0  0  0  0  0  0  0  0
    2.7200    2.2084   -0.4117 H   0  0  0  0  0  0  0  0  0  0  0  0
    3.7859    2.8871    2.3318 H   0  0  0  0  0  0  0  0  0  0  0  0
    3.0143   -0.0710   -1.0367 H   0  0  0  0  0  0  0  0  0  0  0  0
    1.3894   -1.3932    1.5269 H   0  0  0  0  0  0  0  0  0  0  0  0
  1  8  1  0  0  0  0
  1 17  1  0  0  0  0
  2  4  1  0  0  0  0
  3  2  2  0  0  0  0
  3  5  1  0  0  0  0
  4 21  1  0  0  0  0
  4  9  2  0  0  0  0
  5 22  1  0  0  0  0
  5 10  2  0  0  0  0
  6 13  1  0  0  0  0
  6 23  1  0  0  0  0
  7 14  2  0  0  0  0
  7 25  1  0  0  0  0
  8 26  1  6  0  0  0
  8  6  1  0  0  0  0
  8 11  1  0  0  0  0
  9 12  1  0  0  0  0
 10  9  1  0  0  0  0
 10 13  1  0  0  0  0
 11 12  2  0  0  0  0
 11 15  1  0  0  0  0
 13  7  1  0  0  0  0
 16  1  1  0  0  0  0
 18  1  1  0  0  0  0
 19  2  1  0  0  0  0
 20  3  1  0  0  0  0
 24  6  1  0  0  0  0
 27 15  1  0  0  0  0
M  END
>  <HBA>
4

>  <HBD>
1

>  <TPSA>
49.41

>  <cid>
59833

>  <dipole>
6.61

>  <excitation_energy_1>
4.502

>  <excitation_energy_2>
4.691

>  <excitation_energy_3>
4.967

>  <excitation_energy_4>
5.137

>  <homo_energy>
-5.875

>  <homo_lumo_gap>
5.257

>  <logP>
2.076

>  <lumo_energy>
-0.618

>  <melting_point>
112.25

>  <molecular_refractivity>
64.11

>  <oscillator_strength_1>
0.1317

>  <oscillator_strength_2>
0.004

>  <oscillator_strength_3>
0.0041

>  <oscillator_strength_4>
0.0954

>  <open_babel_can_smiles>
O=CN1C[C@H](C)C(=Nc2c1cccc2)O

>  <mulliken_charges>
27
1   -0.509487
2   -0.127052
3   -0.148781
4   -0.17249
5   -0.132783
6   -0.103038
7   0.354125
8   -0.200419
9   0.249601
10   0.247517
11   0.484765
12   -0.47934
13   -0.495267
14   -0.446631
15   -0.579106
16   0.174172
17   0.150979
18   0.175756
19   0.131575
20   0.131796
21   0.140704
22   0.143951
23   0.154068
24   0.155005
25   0.097537
26   0.185004
27   0.41784

>  <lowdin_charges>
27
1   -0.458162
2   -0.151248
3   -0.166589
4   -0.163977
5   -0.143949
6   -0.187195
7   0.048036
8   -0.166023
9   0.037479
10   0.014875
11   0.134353
12   -0.168977
13   -0.097403
14   -0.272752
15   -0.343987
16   0.170306
17   0.148997
18   0.164228
19   0.16094
20   0.16116
21   0.165204
22   0.166571
23   0.153105
24   0.145963
25   0.118208
26   0.172769
27   0.358068

$$$$

