PCCDB-ID:  11608
public computational chemistry database (PCCDB) project, http://pccdb.org

 27 26  0  0  0  0  0  0  0  0999 V2000
    3.0686    1.3829   -0.0257 C   0  0  0  0  0  0  0  0  0  0  0  0
    2.3901   -0.3774   -1.7273 C   0  0  0  0  0  0  0  0  0  0  0  0
    5.2898   -4.7428    0.0499 C   0  0  0  0  0  0  0  0  0  0  0  0
    4.7235   -5.0314    2.5012 C   0  0  0  0  0  0  0  0  0  0  0  0
    2.9885   -1.0834    0.6587 C   0  0  0  0  0  0  0  0  0  0  0  0
    5.0884   -2.7185    1.5858 C   0  0  0  0  0  0  0  0  0  0  0  0
    2.3985    0.0178   -0.2428 C   0  0  0  0  0  0  0  0  0  0  0  0
    4.5741   -4.1337    1.2617 C   0  0  0  0  0  0  0  0  0  0  0  0
    4.7723   -1.4214    0.3211 S   0  0  0  0  0  0  0  0  0  0  0  0
    2.5522    2.1607   -0.6003 H   0  0  0  0  0  0  0  0  0  0  0  0
    4.1166    1.3698   -0.3444 H   0  0  0  0  0  0  0  0  0  0  0  0
    3.0469    1.6738    1.0313 H   0  0  0  0  0  0  0  0  0  0  0  0
    1.8657    0.3780   -2.3240 H   0  0  0  0  0  0  0  0  0  0  0  0
    1.8852   -1.3385   -1.8810 H   0  0  0  0  0  0  0  0  0  0  0  0
    3.4079   -0.4703   -2.1220 H   0  0  0  0  0  0  0  0  0  0  0  0
    4.8760   -5.7279   -0.1949 H   0  0  0  0  0  0  0  0  0  0  0  0
    6.3607   -4.8729    0.2561 H   0  0  0  0  0  0  0  0  0  0  0  0
    5.1918   -4.1016   -0.8317 H   0  0  0  0  0  0  0  0  0  0  0  0
    4.3430   -6.0401    2.3026 H   0  0  0  0  0  0  0  0  0  0  0  0
    4.1737   -4.6284    3.3604 H   0  0  0  0  0  0  0  0  0  0  0  0
    5.7774   -5.1262    2.7933 H   0  0  0  0  0  0  0  0  0  0  0  0
    2.4220   -2.0105    0.5165 H   0  0  0  0  0  0  0  0  0  0  0  0
    2.8951   -0.7885    1.7113 H   0  0  0  0  0  0  0  0  0  0  0  0
    6.1789   -2.7384    1.7038 H   0  0  0  0  0  0  0  0  0  0  0  0
    4.6736   -2.3667    2.5384 H   0  0  0  0  0  0  0  0  0  0  0  0
    1.3495    0.1112    0.0784 H   0  0  0  0  0  0  0  0  0  0  0  0
    3.5023   -4.0625    1.0270 H   0  0  0  0  0  0  0  0  0  0  0  0
  1 12  1  0  0  0  0
  2  7  1  0  0  0  0
  3 17  1  0  0  0  0
  3  8  1  0  0  0  0
  4 21  1  0  0  0  0
  4 20  1  0  0  0  0
  5 23  1  0  0  0  0
  6 24  1  0  0  0  0
  6 25  1  0  0  0  0
  7  1  1  0  0  0  0
  7 26  1  0  0  0  0
  7  5  1  0  0  0  0
  8  6  1  0  0  0  0
  8  4  1  0  0  0  0
  9  5  1  0  0  0  0
  9  6  1  0  0  0  0
 10  1  1  0  0  0  0
 11  1  1  0  0  0  0
 13  2  1  0  0  0  0
 14  2  1  0  0  0  0
 15  2  1  0  0  0  0
 16  3  1  0  0  0  0
 18  3  1  0  0  0  0
 19  4  1  0  0  0  0
 22  5  1  0  0  0  0
 27  8  1  0  0  0  0
M  END
>  <HBA>
1

>  <HBD>
0

>  <TPSA>
25.3

>  <cid>
11608

>  <dipole>
1.65

>  <excitation_energy_1>
5.113

>  <excitation_energy_2>
5.236

>  <excitation_energy_3>
5.588

>  <excitation_energy_4>
5.84

>  <homo_energy>
-5.761

>  <homo_lumo_gap>
6.98

>  <logP>
3.032

>  <lumo_energy>
1.219

>  <melting_point>
-18.92

>  <molecular_refractivity>
48.16

>  <oscillator_strength_1>
0.0001

>  <oscillator_strength_2>
0.0057

>  <oscillator_strength_3>
0.0127

>  <oscillator_strength_4>
0.01

>  <open_babel_can_smiles>
CC(CSCC(C)C)C

>  <mulliken_charges>
27
1   -0.440844
2   -0.440846
3   -0.445412
4   -0.444666
5   -0.40046
6   -0.418007
7   -0.08414
8   -0.063567
9   0.071695
10   0.139828
11   0.164546
12   0.140269
13   0.140198
14   0.139737
15   0.163764
16   0.138791
17   0.135128
18   0.16913
19   0.14609
20   0.139857
21   0.141693
22   0.162777
23   0.157791
24   0.16621
25   0.159198
26   0.130853
27   0.130387

>  <lowdin_charges>
27
1   -0.444818
2   -0.446554
3   -0.446427
4   -0.443618
5   -0.371191
6   -0.373144
7   -0.119066
8   -0.122925
9   0.069719
10   0.149633
11   0.157253
12   0.147298
13   0.149892
14   0.148073
15   0.157325
16   0.147556
17   0.14249
18   0.162006
19   0.150609
20   0.147691
21   0.145621
22   0.151051
23   0.148932
24   0.161551
25   0.153685
26   0.14095
27   0.136409

$$$$

