PCCDB-ID:  33816
public computational chemistry database (PCCDB) project, http://pccdb.org

 34 34  0  0  0  0  0  0  0  0999 V2000
    0.3994    0.6594    0.8690 C   0  0  0  0  0  0  0  0  0  0  0  0
    6.7006    3.4112    2.9093 C   0  0  0  0  0  0  0  0  0  0  0  0
    8.6328   -1.1803    1.9765 C   0  0  0  0  0  0  0  0  0  0  0  0
    8.2722   -2.3314   -0.2352 C   0  0  0  0  0  0  0  0  0  0  0  0
    8.8888    0.1073   -0.1937 C   0  0  0  0  0  0  0  0  0  0  0  0
    1.9059    0.4066    0.8242 C   0  0  0  0  0  0  0  0  0  0  0  0
    5.9202    2.3212    2.2272 C   0  0  0  0  0  0  0  0  0  0  0  0
    3.8937    1.4311    1.5662 C   0  0  0  0  0  0  0  0  0  0  0  0
    6.0358    0.3449    1.1059 C   0  0  0  0  0  0  0  0  0  0  0  0
    8.1206   -1.0095    0.5347 C   0  0  0  0  0  0  0  0  0  0  0  0
    2.6168    1.4807    1.4930 N   0  0  0  0  0  0  0  0  0  0  0  0
    4.6208    2.4273    2.1920 N   0  0  0  0  0  0  0  0  0  0  0  0
    6.6982    1.3080    1.7060 N   0  0  0  0  0  0  0  0  0  0  0  0
    4.6669    0.3650    1.0194 N   0  0  0  0  0  0  0  0  0  0  0  0
    6.6625   -0.7127    0.5307 N   0  0  0  0  0  0  0  0  0  0  0  0
   -0.1524   -0.1436    0.3660 H   0  0  0  0  0  0  0  0  0  0  0  0
    0.1611    1.6091    0.3798 H   0  0  0  0  0  0  0  0  0  0  0  0
    0.0580    0.7230    1.9071 H   0  0  0  0  0  0  0  0  0  0  0  0
    6.0256    4.1762    3.2951 H   0  0  0  0  0  0  0  0  0  0  0  0
    7.4095    3.8623    2.2050 H   0  0  0  0  0  0  0  0  0  0  0  0
    7.2933    2.9909    3.7304 H   0  0  0  0  0  0  0  0  0  0  0  0
    9.7016   -1.4224    1.9673 H   0  0  0  0  0  0  0  0  0  0  0  0
    8.1024   -1.9951    2.4826 H   0  0  0  0  0  0  0  0  0  0  0  0
    8.4869   -0.2598    2.5451 H   0  0  0  0  0  0  0  0  0  0  0  0
    9.3262   -2.6215   -0.2746 H   0  0  0  0  0  0  0  0  0  0  0  0
    7.9107   -2.2349   -1.2661 H   0  0  0  0  0  0  0  0  0  0  0  0
    7.7222   -3.1445    0.2558 H   0  0  0  0  0  0  0  0  0  0  0  0
    9.9573   -0.1343   -0.2206 H   0  0  0  0  0  0  0  0  0  0  0  0
    8.7561    1.0613    0.3196 H   0  0  0  0  0  0  0  0  0  0  0  0
    8.5335    0.2100   -1.2251 H   0  0  0  0  0  0  0  0  0  0  0  0
    2.2179    0.3131   -0.2348 H   0  0  0  0  0  0  0  0  0  0  0  0
    2.1151   -0.5742    1.2949 H   0  0  0  0  0  0  0  0  0  0  0  0
    4.1782   -0.3682    0.5239 H   0  0  0  0  0  0  0  0  0  0  0  0
    6.0684   -1.4516    0.1810 H   0  0  0  0  0  0  0  0  0  0  0  0
  1 18  1  0  0  0  0
  2 19  1  0  0  0  0
  2 21  1  0  0  0  0
  3 23  1  0  0  0  0
  3 24  1  0  0  0  0
  4 27  1  0  0  0  0
  4 10  1  0  0  0  0
  5 29  1  0  0  0  0
  5 10  1  0  0  0  0
  6  1  1  0  0  0  0
  6 32  1  0  0  0  0
  6 11  1  0  0  0  0
  7  2  1  0  0  0  0
  8 12  2  0  0  0  0
  9 13  2  0  0  0  0
 10  3  1  0  0  0  0
 11  8  1  0  0  0  0
 12  7  2  0  0  0  0
 13  7  1  0  0  0  0
 14  9  1  0  0  0  0
 14  8  1  0  0  0  0
 15 10  1  0  0  0  0
 15  9  1  0  0  0  0
 16  1  1  0  0  0  0
 17  1  1  0  0  0  0
 20  2  1  0  0  0  0
 22  3  1  0  0  0  0
 25  4  1  0  0  0  0
 26  4  1  0  0  0  0
 28  5  1  0  0  0  0
 30  5  1  0  0  0  0
 31  6  1  0  0  0  0
 33 14  1  0  0  0  0
 34 15  1  0  0  0  0
M  RAD  1  11   2
M  END
>  <HBA>
5

>  <HBD>
2

>  <TPSA>
62.73

>  <cid>
33816

>  <dipole>
6.67

>  <excitation_energy_1>
4.435

>  <excitation_energy_2>
4.495

>  <excitation_energy_3>
4.713

>  <excitation_energy_4>
5.069

>  <homo_energy>
-5.641

>  <homo_lumo_gap>
5.219

>  <logP>
1.968

>  <lumo_energy>
-0.422

>  <melting_point>
133.15

>  <molecular_refractivity>
62.67

>  <oscillator_strength_1>
0.088

>  <oscillator_strength_2>
0.0051

>  <oscillator_strength_3>
0.001

>  <oscillator_strength_4>
0.0007

>  <open_babel_can_smiles>
CC[N]C1=[N]=C(N=C(N1)NC(C)(C)C)C

>  <mulliken_charges>
34
1   -0.430015
2   -0.502651
3   -0.445589
4   -0.482787
5   -0.445598
6   -0.153552
7   0.425293
8   0.659117
9   0.817062
10   0.243387
11   -0.468287
12   -0.481093
13   -0.548499
14   -0.727758
15   -0.687052
16   0.125369
17   0.156708
18   0.156436
19   0.177738
20   0.16437
21   0.164157
22   0.141756
23   0.137374
24   0.188826
25   0.165273
26   0.151754
27   0.145566
28   0.140434
29   0.190682
30   0.140915
31   0.114124
32   0.11307
33   0.332182
34   0.321288

>  <lowdin_charges>
34
1   -0.443093
2   -0.447091
3   -0.452544
4   -0.448333
5   -0.448817
6   -0.204639
7   0.112534
8   0.116833
9   0.173807
10   0.093053
11   -0.235862
12   -0.197573
13   -0.272872
14   -0.258583
15   -0.269139
16   0.142782
17   0.156345
18   0.15517
19   0.172133
20   0.167836
21   0.167499
22   0.150521
23   0.14927
24   0.173337
25   0.163253
26   0.151508
27   0.150215
28   0.149814
29   0.17385
30   0.149173
31   0.118808
32   0.119274
33   0.290229
34   0.281303

$$$$

