PCCDB-ID:  22329
public computational chemistry database (PCCDB) project, http://pccdb.org

 17 17  0  0  0  0  0  0  0  0999 V2000
    0.8888    0.0939   -0.2737 C   0  0  0  0  0  0  0  0  0  0  0  0
    3.1983   -0.2908    2.9687 C   0  0  0  0  0  0  0  0  0  0  0  0
    2.6288   -1.4914    2.2074 C   0  0  0  0  0  0  0  0  0  0  0  0
    2.6300    1.0551    2.5097 C   0  0  0  0  0  0  0  0  0  0  0  0
    2.4150    0.0794   -0.1481 C   0  0  0  0  0  0  0  0  0  0  0  0
    3.0823   -1.5428    0.4268 S   0  0  0  0  0  0  0  0  0  0  0  0
    3.0842    1.5210    0.7905 S   0  0  0  0  0  0  0  0  0  0  0  0
    0.5561   -0.7250   -0.9203 H   0  0  0  0  0  0  0  0  0  0  0  0
    0.5543    1.0442   -0.7032 H   0  0  0  0  0  0  0  0  0  0  0  0
    0.3989   -0.0266    0.6977 H   0  0  0  0  0  0  0  0  0  0  0  0
    4.2901   -0.2804    2.8773 H   0  0  0  0  0  0  0  0  0  0  0  0
    2.9572   -0.4172    4.0344 H   0  0  0  0  0  0  0  0  0  0  0  0
    1.5384   -1.5362    2.3135 H   0  0  0  0  0  0  0  0  0  0  0  0
    3.0304   -2.4256    2.6125 H   0  0  0  0  0  0  0  0  0  0  0  0
    3.0323    1.8682    3.1222 H   0  0  0  0  0  0  0  0  0  0  0  0
    1.5395    1.0751    2.6229 H   0  0  0  0  0  0  0  0  0  0  0  0
    2.8603    0.1973   -1.1410 H   0  0  0  0  0  0  0  0  0  0  0  0
  1  5  1  0  0  0  0
  1 10  1  0  0  0  0
  2 12  1  0  0  0  0
  3 13  1  0  0  0  0
  3 14  1  0  0  0  0
  3  2  1  0  0  0  0
  4 16  1  0  0  0  0
  4  2  1  0  0  0  0
  4 15  1  0  0  0  0
  5  6  1  0  0  0  0
  5  7  1  0  0  0  0
  6  3  1  0  0  0  0
  7  4  1  0  0  0  0
  8  1  1  0  0  0  0
  9  1  1  0  0  0  0
 11  2  1  0  0  0  0
 17  5  1  0  0  0  0
M  END
>  <HBA>
2

>  <HBD>
0

>  <TPSA>
50.6

>  <cid>
22329

>  <dipole>
2.23

>  <excitation_energy_1>
4.827

>  <excitation_energy_2>
5.152

>  <excitation_energy_3>
5.215

>  <excitation_energy_4>
5.565

>  <homo_energy>
-5.796

>  <homo_lumo_gap>
6.275

>  <logP>
2.203

>  <lumo_energy>
0.479

>  <melting_point>
14.62

>  <molecular_refractivity>
39.22

>  <oscillator_strength_1>
0.016

>  <oscillator_strength_2>
0.0015

>  <oscillator_strength_3>
0.0014

>  <oscillator_strength_4>
0.0036

>  <open_babel_can_smiles>
CC1SCCCS1

>  <mulliken_charges>
17
1   -0.429686
2   -0.251624
3   -0.417856
4   -0.417984
5   -0.39438
6   0.105143
7   0.105187
8   0.16591
9   0.165918
10   0.153686
11   0.170943
12   0.145726
13   0.168292
14   0.18021
15   0.180233
16   0.168334
17   0.201947

>  <lowdin_charges>
17
1   -0.449804
2   -0.278411
3   -0.377284
4   -0.378072
5   -0.326802
6   0.097501
7   0.097017
8   0.162619
9   0.161824
10   0.151837
11   0.159032
12   0.149993
13   0.151225
14   0.172385
15   0.173224
16   0.151277
17   0.182439

$$$$

