PCCDB-ID:  35280
public computational chemistry database (PCCDB) project, http://pccdb.org

 21 21  0  0  0  0  0  0  0  0999 V2000
    2.5187   -1.3132   -0.7236 C   0  0  0  0  0  0  0  0  0  0  0  0
    6.5823   -0.3399    4.5776 C   0  0  0  0  0  0  0  0  0  0  0  0
    2.7482    0.0677   -0.0910 C   0  0  0  0  0  0  0  0  0  0  0  0
    6.1365   -0.2240    3.1487 C   0  0  0  0  0  0  0  0  0  0  0  0
    4.4321   -0.0931    1.5735 C   0  0  0  0  0  0  0  0  0  0  0  0
    6.7800   -0.0736    0.9926 C   0  0  0  0  0  0  0  0  0  0  0  0
    3.1906   -0.0341    1.2875 N   0  0  0  0  0  0  0  0  0  0  0  0
    4.8631   -0.2000    2.8894 N   0  0  0  0  0  0  0  0  0  0  0  0
    7.1763   -0.1531    2.2260 N   0  0  0  0  0  0  0  0  0  0  0  0
    5.4883   -0.0528    0.6036 N   0  0  0  0  0  0  0  0  0  0  0  0
    7.6599   -0.0095   -0.0158 O   0  0  0  0  0  0  0  0  0  0  0  0
    2.0993   -1.2155   -1.7317 H   0  0  0  0  0  0  0  0  0  0  0  0
    1.8220   -1.8931   -0.1106 H   0  0  0  0  0  0  0  0  0  0  0  0
    3.4521   -1.8848   -0.7949 H   0  0  0  0  0  0  0  0  0  0  0  0
    5.7182   -0.3814    5.2416 H   0  0  0  0  0  0  0  0  0  0  0  0
    7.2152    0.5151    4.8427 H   0  0  0  0  0  0  0  0  0  0  0  0
    7.1939   -1.2407    4.7066 H   0  0  0  0  0  0  0  0  0  0  0  0
    1.7982    0.6149   -0.0879 H   0  0  0  0  0  0  0  0  0  0  0  0
    3.4253    0.6638   -0.7339 H   0  0  0  0  0  0  0  0  0  0  0  0
    5.2788    0.0064   -0.3841 H   0  0  0  0  0  0  0  0  0  0  0  0
    8.5419   -0.0431    0.3989 H   0  0  0  0  0  0  0  0  0  0  0  0
  1 13  1  0  0  0  0
  1  3  1  0  0  0  0
  2 17  1  0  0  0  0
  2 16  1  0  0  0  0
  2 15  1  0  0  0  0
  3 18  1  0  0  0  0
  3  7  1  0  0  0  0
  4  2  1  0  0  0  0
  5  8  2  0  0  0  0
  6  9  2  0  0  0  0
  7  5  1  0  0  0  0
  8  4  2  0  0  0  0
  9  4  1  0  0  0  0
 10  6  1  0  0  0  0
 10  5  1  0  0  0  0
 11 21  1  0  0  0  0
 11  6  1  0  0  0  0
 12  1  1  0  0  0  0
 14  1  1  0  0  0  0
 19  3  1  0  0  0  0
 20 10  1  0  0  0  0
M  RAD  1   7   2
M  END
>  <HBA>
4

>  <HBD>
2

>  <TPSA>
70.67

>  <cid>
35280

>  <dipole>
4.14

>  <excitation_energy_1>
4.388

>  <excitation_energy_2>
4.706

>  <excitation_energy_3>
4.901

>  <excitation_energy_4>
5.126

>  <homo_energy>
-6.049

>  <homo_lumo_gap>
5.211

>  <logP>
-0.022

>  <lumo_energy>
-0.838

>  <melting_point>
155.77

>  <molecular_refractivity>
41.73

>  <oscillator_strength_1>
0.042

>  <oscillator_strength_2>
0.0009

>  <oscillator_strength_3>
0.0019

>  <oscillator_strength_4>
0.0099

>  <open_babel_can_smiles>
CC[N]C1=[N]=C(N=C(N1)O)C

>  <mulliken_charges>
21
1   -0.440073
2   -0.501631
3   -0.16463
4   0.425234
5   0.63871
6   0.731217
7   -0.441067
8   -0.46565
9   -0.528975
10   -0.671216
11   -0.597739
12   0.142256
13   0.170289
14   0.13609
15   0.182083
16   0.170708
17   0.170458
18   0.157146
19   0.097257
20   0.35676
21   0.432774

>  <lowdin_charges>
21
1   -0.450957
2   -0.444352
3   -0.204804
4   0.118073
5   0.116771
6   0.189385
7   -0.218264
8   -0.183585
9   -0.269718
10   -0.233757
11   -0.337445
12   0.150024
13   0.163584
14   0.142916
15   0.174317
16   0.171201
17   0.170727
18   0.152614
19   0.112086
20   0.303162
21   0.378021

$$$$

