PCCDB-ID:  31179
public computational chemistry database (PCCDB) project, http://pccdb.org

 26 25  0  0  1  0  0  0  0  0999 V2000
    0.5857   -2.1569   -0.4698 C   0  0  0  0  0  0  0  0  0  0  0  0
    2.1656   -1.6577    1.4520 C   0  0  0  0  0  0  0  0  0  0  0  0
    7.7897   -2.5515   -1.7006 C   0  0  0  0  0  0  0  0  0  0  0  0
    4.3245   -0.9670   -0.7446 C   0  0  0  0  0  0  0  0  0  0  0  0
    2.9045   -1.4167   -0.9564 C   0  0  0  0  0  0  0  0  0  0  0  0
    5.3492   -1.9471   -1.3473 C   0  0  0  0  0  0  0  0  0  0  0  0
    1.9679   -1.7192   -0.0436 C   0  0  0  0  0  0  0  0  0  0  0  0
    6.8030   -1.4528   -1.2709 C   0  0  2  0  0  0  0  0  0  0  0  0
    6.9352   -0.2030   -2.0400 N   0  0  0  0  0  0  0  0  0  0  0  0
   -0.1854   -1.4806   -0.0737 H   0  0  0  0  0  0  0  0  0  0  0  0
    0.3484   -3.1578   -0.0811 H   0  0  0  0  0  0  0  0  0  0  0  0
    0.4835   -2.1842   -1.5594 H   0  0  0  0  0  0  0  0  0  0  0  0
    1.9738   -2.6389    1.9090 H   0  0  0  0  0  0  0  0  0  0  0  0
    1.4509   -0.9591    1.9096 H   0  0  0  0  0  0  0  0  0  0  0  0
    3.1706   -1.3440    1.7428 H   0  0  0  0  0  0  0  0  0  0  0  0
    7.6962   -3.4490   -1.0765 H   0  0  0  0  0  0  0  0  0  0  0  0
    8.8261   -2.1987   -1.6285 H   0  0  0  0  0  0  0  0  0  0  0  0
    7.6092   -2.8491   -2.7425 H   0  0  0  0  0  0  0  0  0  0  0  0
    4.5462   -0.8305    0.3203 H   0  0  0  0  0  0  0  0  0  0  0  0
    4.4803    0.0116   -1.2173 H   0  0  0  0  0  0  0  0  0  0  0  0
    2.6178   -1.5081   -2.0068 H   0  0  0  0  0  0  0  0  0  0  0  0
    5.0982   -2.1377   -2.4030 H   0  0  0  0  0  0  0  0  0  0  0  0
    5.2716   -2.9167   -0.8380 H   0  0  0  0  0  0  0  0  0  0  0  0
    7.0174   -1.1897   -0.2246 H   0  0  0  0  0  0  0  0  0  0  0  0
    6.8291   -0.4122   -3.0343 H   0  0  0  0  0  0  0  0  0  0  0  0
    7.8803    0.1651   -1.9343 H   0  0  0  0  0  0  0  0  0  0  0  0
  1 11  1  0  0  0  0
  1 10  1  0  0  0  0
  1  7  1  0  0  0  0
  2 15  1  0  0  0  0
  2 13  1  0  0  0  0
  2 14  1  0  0  0  0
  3 17  1  0  0  0  0
  3  8  1  0  0  0  0
  3 16  1  0  0  0  0
  4 19  1  0  0  0  0
  5  4  1  0  0  0  0
  5  7  2  0  0  0  0
  6  8  1  0  0  0  0
  6 23  1  0  0  0  0
  6  4  1  0  0  0  0
  7  2  1  0  0  0  0
  8 24  1  1  0  0  0
  9 26  1  0  0  0  0
  9  8  1  0  0  0  0
 12  1  1  0  0  0  0
 18  3  1  0  0  0  0
 20  4  1  0  0  0  0
 21  5  1  0  0  0  0
 22  6  1  0  0  0  0
 25  9  1  0  0  0  0
M  END
>  <HBA>
1

>  <HBD>
1

>  <TPSA>
26.02

>  <cid>
31179

>  <dipole>
1.38

>  <excitation_energy_1>
5.529

>  <excitation_energy_2>
5.709

>  <excitation_energy_3>
5.953

>  <excitation_energy_4>
6.014

>  <homo_energy>
-5.908

>  <homo_lumo_gap>
7.01

>  <logP>
2.78

>  <lumo_energy>
1.102

>  <melting_point>
39.57

>  <molecular_refractivity>
42.8

>  <oscillator_strength_1>
0.0483

>  <oscillator_strength_2>
0.016

>  <oscillator_strength_3>
0.0049

>  <oscillator_strength_4>
0.0101

>  <open_babel_can_smiles>
C[C@H](CCC=C(C)C)N

>  <mulliken_charges>
26
1   -0.505087
2   -0.511911
3   -0.446277
4   -0.296519
5   -0.162477
6   -0.246537
7   0.185779
8   0.025903
9   -0.705563
10   0.146676
11   0.145708
12   0.148809
13   0.147879
14   0.149802
15   0.153509
16   0.141072
17   0.133741
18   0.134221
19   0.128489
20   0.168199
21   0.104955
22   0.119102
23   0.132908
24   0.128105
25   0.286502
26   0.29301

>  <lowdin_charges>
26
1   -0.438055
2   -0.445039
3   -0.459004
4   -0.274304
5   -0.186859
6   -0.27361
7   -0.014671
8   -0.064076
9   -0.546408
10   0.15178
11   0.149722
12   0.151076
13   0.152486
14   0.154956
15   0.15427
16   0.149781
17   0.143341
18   0.142512
19   0.140546
20   0.161564
21   0.140612
22   0.133502
23   0.143133
24   0.135042
25   0.246386
26   0.251318

$$$$

