PCCDB-ID:  18756
public computational chemistry database (PCCDB) project, http://pccdb.org

 26 25  0  0  0  0  0  0  0  0999 V2000
    1.7724    1.0804    2.0761 C   0  0  0  0  0  0  0  0  0  0  0  0
    7.1060   -0.4528   -3.4034 C   0  0  0  0  0  0  0  0  0  0  0  0
    8.8420    0.0735   -1.6291 C   0  0  0  0  0  0  0  0  0  0  0  0
    3.2677    2.9177    0.2794 C   0  0  0  0  0  0  0  0  0  0  0  0
    2.6163    0.6146    1.1439 C   0  0  0  0  0  0  0  0  0  0  0  0
    5.1157    1.3392   -1.7343 C   0  0  0  0  0  0  0  0  0  0  0  0
    6.5647    1.0315   -1.4246 C   0  0  0  0  0  0  0  0  0  0  0  0
    4.1986    0.7682   -0.6812 C   0  0  0  0  0  0  0  0  0  0  0  0
    7.4251    0.2685   -2.1166 C   0  0  0  0  0  0  0  0  0  0  0  0
    3.4059    1.4163    0.1995 C   0  0  0  0  0  0  0  0  0  0  0  0
    1.2310    0.4036    2.7305 H   0  0  0  0  0  0  0  0  0  0  0  0
    1.5889    2.1407    2.2238 H   0  0  0  0  0  0  0  0  0  0  0  0
    7.7731   -0.1192   -4.2105 H   0  0  0  0  0  0  0  0  0  0  0  0
    6.0768   -0.3084   -3.7400 H   0  0  0  0  0  0  0  0  0  0  0  0
    7.2730   -1.5333   -3.2917 H   0  0  0  0  0  0  0  0  0  0  0  0
    9.0559   -0.9898   -1.4497 H   0  0  0  0  0  0  0  0  0  0  0  0
    9.0336    0.6189   -0.6997 H   0  0  0  0  0  0  0  0  0  0  0  0
    9.5696    0.4134   -2.3796 H   0  0  0  0  0  0  0  0  0  0  0  0
    3.5538    3.2818    1.2744 H   0  0  0  0  0  0  0  0  0  0  0  0
    2.2256    3.2219    0.1188 H   0  0  0  0  0  0  0  0  0  0  0  0
    3.8841    3.4381   -0.4561 H   0  0  0  0  0  0  0  0  0  0  0  0
    2.7471   -0.4644    1.0567 H   0  0  0  0  0  0  0  0  0  0  0  0
    4.8350    0.9235   -2.7101 H   0  0  0  0  0  0  0  0  0  0  0  0
    4.9879    2.4253   -1.8160 H   0  0  0  0  0  0  0  0  0  0  0  0
    6.9251    1.4870   -0.5013 H   0  0  0  0  0  0  0  0  0  0  0  0
    4.2158   -0.3212   -0.6264 H   0  0  0  0  0  0  0  0  0  0  0  0
  1 12  1  0  0  0  0
  1 11  1  0  0  0  0
  2 15  1  0  0  0  0
  2  9  1  0  0  0  0
  3 16  1  0  0  0  0
  3 17  1  0  0  0  0
  4 19  1  0  0  0  0
  5  1  2  0  0  0  0
  6  7  1  0  0  0  0
  6  8  1  0  0  0  0
  7 25  1  0  0  0  0
  8 26  1  0  0  0  0
  8 10  2  0  0  0  0
  9  3  1  0  0  0  0
  9  7  2  0  0  0  0
 10  4  1  0  0  0  0
 10  5  1  0  0  0  0
 13  2  1  0  0  0  0
 14  2  1  0  0  0  0
 18  3  1  0  0  0  0
 20  4  1  0  0  0  0
 21  4  1  0  0  0  0
 22  5  1  0  0  0  0
 23  6  1  0  0  0  0
 24  6  1  0  0  0  0
M  END
>  <HBA>
0

>  <HBD>
0

>  <TPSA>
0.0

>  <cid>
18756

>  <dipole>
0.79

>  <excitation_energy_1>
4.978

>  <excitation_energy_2>
5.319

>  <excitation_energy_3>
5.407

>  <excitation_energy_4>
5.742

>  <homo_energy>
-5.785

>  <homo_lumo_gap>
5.38

>  <logP>
3.475

>  <lumo_energy>
-0.405

>  <melting_point>
-23.4

>  <molecular_refractivity>
48.76

>  <oscillator_strength_1>
0.4564

>  <oscillator_strength_2>
0.2012

>  <oscillator_strength_3>
0.1736

>  <oscillator_strength_4>
0.0113

>  <open_babel_can_smiles>
C=C/C(=C/CC=C(C)C)/C

>  <mulliken_charges>
26
1   -0.36258
2   -0.513389
3   -0.505183
4   -0.537557
5   -0.099487
6   -0.358188
7   -0.15605
8   -0.175504
9   0.188174
10   0.197157
11   0.138644
12   0.136441
13   0.153058
14   0.153765
15   0.15286
16   0.149651
17   0.152433
18   0.148956
19   0.1604
20   0.160285
21   0.153576
22   0.121686
23   0.149039
24   0.148894
25   0.117851
26   0.12507

>  <lowdin_charges>
26
1   -0.351305
2   -0.443183
3   -0.438599
4   -0.445832
5   -0.143583
6   -0.271977
7   -0.188849
8   -0.163575
9   -0.008961
10   -0.012691
11   0.161067
12   0.154909
13   0.156585
14   0.153879
15   0.153972
16   0.151359
17   0.155166
18   0.153329
19   0.159309
20   0.158608
21   0.157741
22   0.149993
23   0.154157
24   0.151391
25   0.148484
26   0.148604

$$$$

