PCCDB-ID:  34454
public computational chemistry database (PCCDB) project, http://pccdb.org

 30 32  0  0  0  0  0  0  0  0999 V2000
    0.8633   -0.0583   -0.0533 C   0  0  0  0  0  0  0  0  0  0  0  0
    2.2669    4.9415   -0.0550 C   0  0  0  0  0  0  0  0  0  0  0  0
    6.5952    4.9426   -0.0556 C   0  0  0  0  0  0  0  0  0  0  0  0
    7.3194    3.7386   -0.0548 C   0  0  0  0  0  0  0  0  0  0  0  0
    4.4835   -1.2467   -0.0541 C   0  0  0  0  0  0  0  0  0  0  0  0
    3.0783   -1.2318   -0.0535 C   0  0  0  0  0  0  0  0  0  0  0  0
    5.2141    4.9083   -0.0553 C   0  0  0  0  0  0  0  0  0  0  0  0
    6.6512    2.5283   -0.0549 C   0  0  0  0  0  0  0  0  0  0  0  0
    5.1921   -0.0621   -0.0543 C   0  0  0  0  0  0  0  0  0  0  0  0
    2.4134    2.4526   -0.0541 C   0  0  0  0  0  0  0  0  0  0  0  0
    2.3749   -0.0384   -0.0536 C   0  0  0  0  0  0  0  0  0  0  0  0
    3.0580    3.6558   -0.0550 C   0  0  0  0  0  0  0  0  0  0  0  0
    4.5044    3.6828   -0.0552 C   0  0  0  0  0  0  0  0  0  0  0  0
    5.2378    2.4569   -0.0548 C   0  0  0  0  0  0  0  0  0  0  0  0
    4.5246    1.1848   -0.0544 C   0  0  0  0  0  0  0  0  0  0  0  0
    3.0988    1.1924   -0.0540 C   0  0  0  0  0  0  0  0  0  0  0  0
    0.4929   -1.0877   -0.0510 H   0  0  0  0  0  0  0  0  0  0  0  0
    0.4460    0.4419   -0.9364 H   0  0  0  0  0  0  0  0  0  0  0  0
    0.4463    0.4456    0.8278 H   0  0  0  0  0  0  0  0  0  0  0  0
    1.1928    4.7342   -0.0549 H   0  0  0  0  0  0  0  0  0  0  0  0
    2.4883    5.5566   -0.9368 H   0  0  0  0  0  0  0  0  0  0  0  0
    2.4884    5.5565    0.8268 H   0  0  0  0  0  0  0  0  0  0  0  0
    7.1173    5.8956   -0.0549 H   0  0  0  0  0  0  0  0  0  0  0  0
    8.4060    3.7551   -0.0555 H   0  0  0  0  0  0  0  0  0  0  0  0
    5.0134   -2.1954   -0.0538 H   0  0  0  0  0  0  0  0  0  0  0  0
    2.5320   -2.1721   -0.0535 H   0  0  0  0  0  0  0  0  0  0  0  0
    4.6596    5.8408   -0.0559 H   0  0  0  0  0  0  0  0  0  0  0  0
    7.2372    1.6162   -0.0544 H   0  0  0  0  0  0  0  0  0  0  0  0
    6.2754   -0.1026   -0.0548 H   0  0  0  0  0  0  0  0  0  0  0  0
    1.3280    2.4479   -0.0535 H   0  0  0  0  0  0  0  0  0  0  0  0
  1 17  1  0  0  0  0
  1 19  1  0  0  0  0
  2 20  1  0  0  0  0
  2 22  1  0  0  0  0
  3  7  2  0  0  0  0
  3 23  1  0  0  0  0
  3  4  1  0  0  0  0
  5 25  1  0  0  0  0
  5  6  1  0  0  0  0
  6 26  1  0  0  0  0
  7 13  1  0  0  0  0
  8 14  1  0  0  0  0
  8  4  2  0  0  0  0
  8 28  1  0  0  0  0
  9  5  2  0  0  0  0
 10 16  2  0  0  0  0
 10 30  1  0  0  0  0
 11  6  2  0  0  0  0
 11  1  1  0  0  0  0
 12  2  1  0  0  0  0
 12 10  1  0  0  0  0
 13 12  2  0  0  0  0
 13 14  1  0  0  0  0
 14 15  2  0  0  0  0
 15  9  1  0  0  0  0
 15 16  1  0  0  0  0
 16 11  1  0  0  0  0
 18  1  1  0  0  0  0
 21  2  1  0  0  0  0
 24  4  1  0  0  0  0
 27  7  1  0  0  0  0
 29  9  1  0  0  0  0
M  END
>  <HBA>
0

>  <HBD>
0

>  <TPSA>
0.0

>  <cid>
34454

>  <dipole>
0.49

>  <excitation_energy_1>
3.885

>  <excitation_energy_2>
4.088

>  <excitation_energy_3>
4.606

>  <excitation_energy_4>
4.815

>  <homo_energy>
-5.562

>  <homo_lumo_gap>
4.615

>  <logP>
4.61

>  <lumo_energy>
-0.947

>  <melting_point>
102.67

>  <molecular_refractivity>
71.39

>  <oscillator_strength_1>
0.0065

>  <oscillator_strength_2>
0.1124

>  <oscillator_strength_3>
0.161

>  <oscillator_strength_4>
0.5413

>  <open_babel_can_smiles>
Cc1cc2c(C)cccc2c2c1cccc2

>  <mulliken_charges>
30
1   -0.534532
2   -0.540779
3   -0.125317
4   -0.137306
5   -0.132516
6   -0.195803
7   -0.214868
8   -0.18994
9   -0.193899
10   -0.298383
11   0.117961
12   0.161882
13   0.084075
14   0.058665
15   0.063351
16   0.101389
17   0.155491
18   0.162543
19   0.162516
20   0.15674
21   0.162284
22   0.162302
23   0.127712
24   0.128126
25   0.126368
26   0.119785
27   0.128182
28   0.133055
29   0.130548
30   0.120368

>  <lowdin_charges>
30
1   -0.444541
2   -0.441663
3   -0.15751
4   -0.155207
5   -0.15854
6   -0.17033
7   -0.16382
8   -0.15768
9   -0.160033
10   -0.174365
11   -0.000291
12   -0.000261
13   -0.008241
14   -3.1e-05
15   -0.002948
16   -0.010596
17   0.156951
18   0.160089
19   0.160078
20   0.156483
21   0.159799
22   0.15981
23   0.157696
24   0.155518
25   0.157207
26   0.154191
27   0.16008
28   0.158363
29   0.15479
30   0.155

$$$$

