PCCDB-ID:  36599
public computational chemistry database (PCCDB) project, http://pccdb.org

 30 29  0  0  1  0  0  0  0  0999 V2000
    7.6660   -1.2772    2.0364 C   0  0  0  0  0  0  0  0  0  0  0  0
    6.7223   -1.4289    0.8392 C   0  0  0  0  0  0  0  0  0  0  0  0
    6.6909   -0.1927   -0.0692 C   0  0  0  0  0  0  0  0  0  0  0  0
    5.7375   -0.3477   -1.2631 C   0  0  0  0  0  0  0  0  0  0  0  0
    5.6021    0.8960   -2.1588 C   0  0  0  0  0  0  0  0  0  0  0  0
    6.8771    1.2477   -2.9384 C   0  0  0  0  0  0  0  0  0  0  0  0
    5.6939    2.4794   -4.8696 C   0  0  0  0  0  0  0  0  0  0  0  0
    6.7907    2.5154   -3.7992 C   0  0  1  0  0  0  0  0  0  0  0  0
    5.7346    3.6368   -5.8729 C   0  0  0  0  0  0  0  0  0  0  0  0
    6.5086    3.6795   -2.9832 O   0  0  0  0  0  0  0  0  0  0  0  0
    5.5291    3.4885   -7.0537 O   0  0  0  0  0  0  0  0  0  0  0  0
    5.9883    4.8540   -5.3486 O   0  0  0  0  0  0  0  0  0  0  0  0
    7.6631   -2.1753    2.6643 H   0  0  0  0  0  0  0  0  0  0  0  0
    7.3731   -0.4292    2.6679 H   0  0  0  0  0  0  0  0  0  0  0  0
    8.6987   -1.1039    1.7090 H   0  0  0  0  0  0  0  0  0  0  0  0
    5.7047   -1.6380    1.1984 H   0  0  0  0  0  0  0  0  0  0  0  0
    7.0208   -2.3052    0.2465 H   0  0  0  0  0  0  0  0  0  0  0  0
    7.7118    0.0130   -0.4214 H   0  0  0  0  0  0  0  0  0  0  0  0
    6.3893    0.6843    0.5236 H   0  0  0  0  0  0  0  0  0  0  0  0
    4.7400   -0.6057   -0.8812 H   0  0  0  0  0  0  0  0  0  0  0  0
    6.0567   -1.2045   -1.8751 H   0  0  0  0  0  0  0  0  0  0  0  0
    5.3048    1.7595   -1.5498 H   0  0  0  0  0  0  0  0  0  0  0  0
    4.7822    0.7220   -2.8673 H   0  0  0  0  0  0  0  0  0  0  0  0
    7.1594    0.4116   -3.5939 H   0  0  0  0  0  0  0  0  0  0  0  0
    7.7168    1.3788   -2.2409 H   0  0  0  0  0  0  0  0  0  0  0  0
    4.7144    2.4972   -4.3742 H   0  0  0  0  0  0  0  0  0  0  0  0
    5.7563    1.5528   -5.4451 H   0  0  0  0  0  0  0  0  0  0  0  0
    7.7618    2.6618   -4.2963 H   0  0  0  0  0  0  0  0  0  0  0  0
    7.2742    3.8476   -2.4112 H   0  0  0  0  0  0  0  0  0  0  0  0
    6.1477    4.7548   -4.3821 H   0  0  0  0  0  0  0  0  0  0  0  0
  1 13  1  0  0  0  0
  1 14  1  0  0  0  0
  2 16  1  0  0  0  0
  2  1  1  0  0  0  0
  3 19  1  0  0  0  0
  3  2  1  0  0  0  0
  4 20  1  0  0  0  0
  4  3  1  0  0  0  0
  5 22  1  0  0  0  0
  5  4  1  0  0  0  0
  6 25  1  0  0  0  0
  6  5  1  0  0  0  0
  7 26  1  0  0  0  0
  7  8  1  0  0  0  0
  8 28  1  6  0  0  0
  8 10  1  0  0  0  0
  8  6  1  0  0  0  0
  9 12  1  0  0  0  0
  9  7  1  0  0  0  0
 10 29  1  0  0  0  0
 11  9  2  0  0  0  0
 12 30  1  0  0  0  0
 15  1  1  0  0  0  0
 17  2  1  0  0  0  0
 18  3  1  0  0  0  0
 21  4  1  0  0  0  0
 23  5  1  0  0  0  0
 24  6  1  0  0  0  0
 27  7  1  0  0  0  0
M  END
>  <HBA>
3

>  <HBD>
2

>  <TPSA>
57.53

>  <cid>
36599

>  <dipole>
6.14

>  <excitation_energy_1>
5.656

>  <excitation_energy_2>
6.12

>  <excitation_energy_3>
6.817

>  <excitation_energy_4>
6.859

>  <homo_energy>
-6.909

>  <homo_lumo_gap>
7.559

>  <logP>
1.792

>  <lumo_energy>
0.65

>  <melting_point>
67.22

>  <molecular_refractivity>
48.31

>  <oscillator_strength_1>
0.0005

>  <oscillator_strength_2>
0.0058

>  <oscillator_strength_3>
0.0044

>  <oscillator_strength_4>
0.0166

>  <open_babel_can_smiles>
CCCCCC[C@@H](CC(=O)O)O

>  <mulliken_charges>
30
1   -0.442588
2   -0.247127
3   -0.250064
4   -0.257903
5   -0.263551
6   -0.278891
7   -0.386226
8   0.102915
9   0.585795
10   -0.641055
11   -0.454959
12   -0.588324
13   0.145102
14   0.14203
15   0.140658
16   0.133192
17   0.132459
18   0.127748
19   0.127122
20   0.134662
21   0.129512
22   0.145143
23   0.13925
24   0.143595
25   0.131407
26   0.187719
27   0.178933
28   0.141069
29   0.408561
30   0.433818

>  <lowdin_charges>
30
1   -0.444329
2   -0.271411
3   -0.277403
4   -0.274924
5   -0.281456
6   -0.291619
7   -0.323585
8   -0.002327
9   0.183915
10   -0.465639
11   -0.252994
12   -0.368329
13   0.151372
14   0.14724
15   0.144784
16   0.139377
17   0.140521
18   0.134949
19   0.137781
20   0.143968
21   0.139597
22   0.147526
23   0.14636
24   0.152126
25   0.142364
26   0.175941
27   0.177084
28   0.138547
29   0.355178
30   0.355385

$$$$

