PCCDB-ID:  41336
public computational chemistry database (PCCDB) project, http://pccdb.org

 39 40  0  0  0  0  0  0  0  0999 V2000
    1.1901   -0.5419   -1.3437 C   0  0  0  0  0  0  0  0  0  0  0  0
    1.4233   -3.3746    6.7384 C   0  0  0  0  0  0  0  0  0  0  0  0
    1.6726   -1.8683   -0.7355 C   0  0  0  0  0  0  0  0  0  0  0  0
    0.0196    0.0455   -0.5397 C   0  0  0  0  0  0  0  0  0  0  0  0
    1.6924   -3.8421    5.2988 C   0  0  0  0  0  0  0  0  0  0  0  0
    0.1256   -2.5555    6.8292 C   0  0  0  0  0  0  0  0  0  0  0  0
    0.5201   -2.8750   -0.5992 C   0  0  0  0  0  0  0  0  0  0  0  0
   -1.1284   -0.9663   -0.4068 C   0  0  0  0  0  0  0  0  0  0  0  0
    1.7090   -2.6607    4.3168 C   0  0  0  0  0  0  0  0  0  0  0  0
    0.1284   -1.3811    5.8338 C   0  0  0  0  0  0  0  0  0  0  0  0
   -0.9564   -2.6894    2.4987 C   0  0  0  0  0  0  0  0  0  0  0  0
   -0.6639   -2.3041    0.2114 C   0  0  0  0  0  0  0  0  0  0  0  0
    0.4117   -1.8239    4.3870 C   0  0  0  0  0  0  0  0  0  0  0  0
   -0.2641   -2.1047    1.5991 N   0  0  0  0  0  0  0  0  0  0  0  0
   -0.7475   -2.5371    3.8448 N   0  0  0  0  0  0  0  0  0  0  0  0
    0.8665   -0.7152   -2.3819 H   0  0  0  0  0  0  0  0  0  0  0  0
    2.0180    0.1775   -1.3924 H   0  0  0  0  0  0  0  0  0  0  0  0
    2.2640   -2.7511    7.0770 H   0  0  0  0  0  0  0  0  0  0  0  0
    1.3786   -4.2344    7.4191 H   0  0  0  0  0  0  0  0  0  0  0  0
    2.0963   -1.6777    0.2583 H   0  0  0  0  0  0  0  0  0  0  0  0
    2.4743   -2.2990   -1.3497 H   0  0  0  0  0  0  0  0  0  0  0  0
   -0.3453    0.9661   -1.0137 H   0  0  0  0  0  0  0  0  0  0  0  0
    0.3698    0.3178    0.4637 H   0  0  0  0  0  0  0  0  0  0  0  0
    0.9130   -4.5576    4.9969 H   0  0  0  0  0  0  0  0  0  0  0  0
    2.6430   -4.3874    5.2469 H   0  0  0  0  0  0  0  0  0  0  0  0
   -0.0175   -2.1752    7.8484 H   0  0  0  0  0  0  0  0  0  0  0  0
   -0.7348   -3.2152    6.6356 H   0  0  0  0  0  0  0  0  0  0  0  0
    0.8712   -3.7989   -0.1226 H   0  0  0  0  0  0  0  0  0  0  0  0
    0.1535   -3.1498   -1.5994 H   0  0  0  0  0  0  0  0  0  0  0  0
   -1.5505   -1.1750   -1.4012 H   0  0  0  0  0  0  0  0  0  0  0  0
   -1.9390   -0.5493    0.2039 H   0  0  0  0  0  0  0  0  0  0  0  0
    1.8548   -3.0031    3.2870 H   0  0  0  0  0  0  0  0  0  0  0  0
    2.5561   -2.0017    4.5567 H   0  0  0  0  0  0  0  0  0  0  0  0
    0.9142   -0.6724    6.1285 H   0  0  0  0  0  0  0  0  0  0  0  0
   -0.8229   -0.8366    5.8733 H   0  0  0  0  0  0  0  0  0  0  0  0
   -1.8111   -3.3470    2.2694 H   0  0  0  0  0  0  0  0  0  0  0  0
   -1.5053   -3.0210    0.1462 H   0  0  0  0  0  0  0  0  0  0  0  0
    0.5333   -0.9416    3.7518 H   0  0  0  0  0  0  0  0  0  0  0  0
   -1.2076   -3.2064    4.4443 H   0  0  0  0  0  0  0  0  0  0  0  0
  1  3  1  0  0  0  0
  1  4  1  0  0  0  0
  2  6  1  0  0  0  0
  2 18  1  0  0  0  0
  2 19  1  0  0  0  0
  3  7  1  0  0  0  0
  3 20  1  0  0  0  0
  4  8  1  0  0  0  0
  4 23  1  0  0  0  0
  5  2  1  0  0  0  0
  6 26  1  0  0  0  0
  7 28  1  0  0  0  0
  7 12  1  0  0  0  0
  8 31  1  0  0  0  0
  8 12  1  0  0  0  0
  9 13  1  0  0  0  0
  9 33  1  0  0  0  0
  9  5  1  0  0  0  0
 10 35  1  0  0  0  0
 10 34  1  0  0  0  0
 10  6  1  0  0  0  0
 11 15  1  0  0  0  0
 12 14  1  0  0  0  0
 13 10  1  0  0  0  0
 14 11  2  0  0  0  0
 15 13  1  0  0  0  0
 15 39  1  0  0  0  0
 16  1  1  0  0  0  0
 17  1  1  0  0  0  0
 21  3  1  0  0  0  0
 22  4  1  0  0  0  0
 24  5  1  0  0  0  0
 25  5  1  0  0  0  0
 27  6  1  0  0  0  0
 29  7  1  0  0  0  0
 30  8  1  0  0  0  0
 32  9  1  0  0  0  0
 36 11  1  0  0  0  0
 37 12  1  0  0  0  0
 38 13  1  0  0  0  0
M  END
>  <HBA>
2

>  <HBD>
1

>  <TPSA>
24.39

>  <cid>
41336

>  <dipole>
2.44

>  <excitation_energy_1>
4.979

>  <excitation_energy_2>
5.405

>  <excitation_energy_3>
5.574

>  <excitation_energy_4>
5.751

>  <homo_energy>
-5.674

>  <homo_lumo_gap>
6.846

>  <logP>
3.661

>  <lumo_energy>
1.173

>  <melting_point>
58.99

>  <molecular_refractivity>
66.86

>  <oscillator_strength_1>
0.0025

>  <oscillator_strength_2>
0.0027

>  <oscillator_strength_3>
0.0041

>  <oscillator_strength_4>
0.0268

>  <open_babel_can_smiles>
C1CCC(CC1)N/C=N/C1CCCCC1

>  <mulliken_charges>
39
1   -0.257644
2   -0.25401
3   -0.254307
4   -0.253773
5   -0.26435
6   -0.270357
7   -0.249444
8   -0.248462
9   -0.262582
10   -0.276963
11   0.256685
12   0.018104
13   0.049424
14   -0.420763
15   -0.583486
16   0.119116
17   0.123856
18   0.130217
19   0.131048
20   0.146809
21   0.119926
22   0.120393
23   0.145598
24   0.120675
25   0.135019
26   0.13795
27   0.118501
28   0.124228
29   0.118822
30   0.118979
31   0.125586
32   0.158352
33   0.126036
34   0.137141
35   0.141494
36   0.10605
37   0.088986
38   0.159391
39   0.317757

>  <lowdin_charges>
39
1   -0.276867
2   -0.28032
3   -0.28009
4   -0.279139
5   -0.282153
6   -0.281112
7   -0.281344
8   -0.282177
9   -0.288755
10   -0.285191
11   -0.036535
12   -0.059598
13   -0.058367
14   -0.250087
15   -0.285585
16   0.131172
17   0.140644
18   0.139773
19   0.143904
20   0.146624
21   0.13951
22   0.138974
23   0.146229
24   0.134232
25   0.146276
26   0.146613
27   0.130808
28   0.141462
29   0.135405
30   0.1356
31   0.142944
32   0.156475
33   0.141549
34   0.147585
35   0.148595
36   0.121186
37   0.114998
38   0.161484
39   0.275279

$$$$

