PCCDB-ID:  6654
public computational chemistry database (PCCDB) project, http://pccdb.org

 26 27  0  0  1  0  0  0  0  0999 V2000
    0.9510    0.0915   -0.0775 C   0  0  0  0  0  0  0  0  0  0  0  0
    4.1089    0.6824   -2.5344 C   0  0  0  0  0  0  0  0  0  0  0  0
    5.0338    2.6792   -1.3867 C   0  0  0  0  0  0  0  0  0  0  0  0
    3.1752   -1.0859   -0.0579 C   0  0  0  0  0  0  0  0  0  0  0  0
    4.6884   -1.0159   -0.0891 C   0  0  0  0  0  0  0  0  0  0  0  0
    4.3484    1.2240    0.9994 C   0  0  0  0  0  0  0  0  0  0  0  0
    2.4526    0.0434   -0.0767 C   0  0  0  0  0  0  0  0  0  0  0  0
    5.1562    0.4533   -0.0823 C   0  0  2  0  0  0  0  0  0  0  0  0
    3.2332    1.3514   -0.0829 C   0  0  2  0  0  0  0  0  0  0  0  0
    4.3880    1.3018   -1.1630 C   0  0  0  0  0  0  0  0  0  0  0  0
    0.5126   -0.9117   -0.0482 H   0  0  0  0  0  0  0  0  0  0  0  0
    0.5714    0.6028   -0.9736 H   0  0  0  0  0  0  0  0  0  0  0  0
    0.5695    0.6558    0.7854 H   0  0  0  0  0  0  0  0  0  0  0  0
    5.0492    0.5221   -3.0783 H   0  0  0  0  0  0  0  0  0  0  0  0
    3.4947    1.3591   -3.1430 H   0  0  0  0  0  0  0  0  0  0  0  0
    3.5856   -0.2739   -2.4705 H   0  0  0  0  0  0  0  0  0  0  0  0
    5.9581    2.5759   -1.9696 H   0  0  0  0  0  0  0  0  0  0  0  0
    5.2882    3.1988   -0.4587 H   0  0  0  0  0  0  0  0  0  0  0  0
    4.3581    3.3309   -1.9551 H   0  0  0  0  0  0  0  0  0  0  0  0
    2.6976   -2.0646   -0.0366 H   0  0  0  0  0  0  0  0  0  0  0  0
    5.0768   -1.5419   -0.9748 H   0  0  0  0  0  0  0  0  0  0  0  0
    5.1128   -1.5419    0.7799 H   0  0  0  0  0  0  0  0  0  0  0  0
    4.8024    2.1789    1.2723 H   0  0  0  0  0  0  0  0  0  0  0  0
    4.0830    0.6793    1.9109 H   0  0  0  0  0  0  0  0  0  0  0  0
    6.2506    0.5279   -0.0695 H   0  0  0  0  0  0  0  0  0  0  0  0
    2.5827    2.2334   -0.0714 H   0  0  0  0  0  0  0  0  0  0  0  0
  1  7  1  0  0  0  0
  1 11  1  0  0  0  0
  1 13  1  0  0  0  0
  2 16  1  0  0  0  0
  2 10  1  0  0  0  0
  3 10  1  0  0  0  0
  3 18  1  0  0  0  0
  4 20  1  0  0  0  0
  5  8  1  0  0  0  0
  5  4  1  0  0  0  0
  5 22  1  0  0  0  0
  6 23  1  0  0  0  0
  6 24  1  0  0  0  0
  7  4  2  0  0  0  0
  8 25  1  1  0  0  0
  8  6  1  0  0  0  0
  9  7  1  0  0  0  0
  9 26  1  1  0  0  0
  9  6  1  0  0  0  0
 10  9  1  0  0  0  0
 10  8  1  0  0  0  0
 12  1  1  0  0  0  0
 14  2  1  0  0  0  0
 15  2  1  0  0  0  0
 17  3  1  0  0  0  0
 19  3  1  0  0  0  0
 21  5  1  0  0  0  0
M  END
>  <HBA>
0

>  <HBD>
0

>  <TPSA>
0.0

>  <cid>
6654

>  <dipole>
0.14

>  <excitation_energy_1>
5.48

>  <excitation_energy_2>
5.869

>  <excitation_energy_3>
5.955

>  <excitation_energy_4>
5.971

>  <homo_energy>
-5.943

>  <homo_lumo_gap>
6.759

>  <logP>
2.999

>  <lumo_energy>
0.816

>  <melting_point>
47.83

>  <molecular_refractivity>
45.22

>  <oscillator_strength_1>
0.0012

>  <oscillator_strength_2>
0.0142

>  <oscillator_strength_3>
0.0065

>  <oscillator_strength_4>
0.0144

>  <open_babel_can_smiles>
CC1=CC[C@@H]2C[C@H]1C2(C)C

>  <mulliken_charges>
26
1   -0.524951
2   -0.465903
3   -0.463747
4   -0.208626
5   -0.284455
6   -0.27485
7   0.230508
8   -0.126185
9   -0.19812
10   0.135822
11   0.15104
12   0.152967
13   0.152421
14   0.135678
15   0.134664
16   0.15303
17   0.140015
18   0.142257
19   0.139459
20   0.111471
21   0.140803
22   0.139626
23   0.13538
24   0.134118
25   0.110279
26   0.1073

>  <lowdin_charges>
26
1   -0.440206
2   -0.454189
3   -0.443951
4   -0.201957
5   -0.275594
6   -0.282232
7   -0.008333
8   -0.129521
9   -0.138563
10   0.012738
11   0.154494
12   0.155602
13   0.155325
14   0.14719
15   0.14842
16   0.156992
17   0.147826
18   0.148957
19   0.148629
20   0.147105
21   0.147375
22   0.148997
23   0.144763
24   0.14243
25   0.131562
26   0.13614

$$$$

