PCCDB-ID:  31252
public computational chemistry database (PCCDB) project, http://pccdb.org

 16 16  0  0  0  0  0  0  0  0999 V2000
    0.9492   -0.0466    0.1948 C   0  0  0  0  0  0  0  0  0  0  0  0
    6.6324    0.1027   -0.4347 C   0  0  0  0  0  0  0  0  0  0  0  0
    3.1630    1.1913   -0.0427 C   0  0  0  0  0  0  0  0  0  0  0  0
    4.4212   -1.1351   -0.1743 C   0  0  0  0  0  0  0  0  0  0  0  0
    2.4465   -0.0107    0.0387 C   0  0  0  0  0  0  0  0  0  0  0  0
    5.1371    0.0669   -0.2605 C   0  0  0  0  0  0  0  0  0  0  0  0
    3.0955   -1.1838   -0.0274 N   0  0  0  0  0  0  0  0  0  0  0  0
    4.4884    1.2401   -0.1910 N   0  0  0  0  0  0  0  0  0  0  0  0
    0.5369    0.9550    0.3505 H   0  0  0  0  0  0  0  0  0  0  0  0
    0.6678   -0.6790    1.0434 H   0  0  0  0  0  0  0  0  0  0  0  0
    0.4789   -0.4775   -0.6972 H   0  0  0  0  0  0  0  0  0  0  0  0
    7.0686   -0.8989   -0.3735 H   0  0  0  0  0  0  0  0  0  0  0  0
    7.0922    0.7342    0.3329 H   0  0  0  0  0  0  0  0  0  0  0  0
    6.8969    0.5347   -1.4072 H   0  0  0  0  0  0  0  0  0  0  0  0
    2.6447    2.1476    0.0168 H   0  0  0  0  0  0  0  0  0  0  0  0
    4.9405   -2.0913   -0.2246 H   0  0  0  0  0  0  0  0  0  0  0  0
  1  9  1  0  0  0  0
  1 10  1  0  0  0  0
  2 12  1  0  0  0  0
  2  6  1  0  0  0  0
  2 13  1  0  0  0  0
  3 15  1  0  0  0  0
  3  5  2  0  0  0  0
  4  7  2  0  0  0  0
  5  1  1  0  0  0  0
  6  8  2  0  0  0  0
  6  4  1  0  0  0  0
  7  5  1  0  0  0  0
  8  3  1  0  0  0  0
 11  1  1  0  0  0  0
 14  2  1  0  0  0  0
 16  4  1  0  0  0  0
M  END
>  <HBA>
2

>  <HBD>
0

>  <TPSA>
25.78

>  <cid>
31252

>  <dipole>
0.03

>  <excitation_energy_1>
3.976

>  <excitation_energy_2>
4.814

>  <excitation_energy_3>
5.035

>  <excitation_energy_4>
5.551

>  <homo_energy>
-6.544

>  <homo_lumo_gap>
5.344

>  <logP>
1.093

>  <lumo_energy>
-1.2

>  <melting_point>
43.0

>  <molecular_refractivity>
31.96

>  <oscillator_strength_1>
0.0054

>  <oscillator_strength_2>
0.0002

>  <oscillator_strength_3>
0.1305

>  <oscillator_strength_4>
0.0

>  <open_babel_can_smiles>
Cc1ncc(nc1)C

>  <mulliken_charges>
16
1   -0.509249
2   -0.509408
3   -0.002633
4   -0.002646
5   0.296039
6   0.296181
7   -0.429945
8   -0.430052
9   0.154589
10   0.175788
11   0.174774
12   0.154635
13   0.175797
14   0.174828
15   0.140649
16   0.140651

>  <lowdin_charges>
16
1   -0.444782
2   -0.444542
3   -0.116948
4   -0.11698
5   0.034344
6   0.034402
7   -0.130787
8   -0.130788
9   0.156935
10   0.17174
11   0.170704
12   0.156917
13   0.172219
14   0.16996
15   0.1588
16   0.158804

$$$$

