PCCDB-ID:  11902
public computational chemistry database (PCCDB) project, http://pccdb.org

 15 15  0  0  0  0  0  0  0  0999 V2000
    1.9588    1.2020    0.7126 C   0  0  0  0  0  0  0  0  0  0  0  0
    1.7785   -4.4410    2.3619 C   0  0  0  0  0  0  0  0  0  0  0  0
    2.5819   -3.5823    1.5568 C   0  0  0  0  0  0  0  0  0  0  0  0
    0.7817   -3.6554    2.8681 C   0  0  0  0  0  0  0  0  0  0  0  0
    2.0143   -2.3380    1.6338 C   0  0  0  0  0  0  0  0  0  0  0  0
    2.4236   -1.0821    0.9995 C   0  0  0  0  0  0  0  0  0  0  0  0
    3.3960   -0.9917    0.2740 O   0  0  0  0  0  0  0  0  0  0  0  0
    1.6064   -0.0545    1.3117 O   0  0  0  0  0  0  0  0  0  0  0  0
    0.9065   -2.3766    2.4385 O   0  0  0  0  0  0  0  0  0  0  0  0
    1.2082    1.9108    1.0631 H   0  0  0  0  0  0  0  0  0  0  0  0
    1.9385    1.1276   -0.3781 H   0  0  0  0  0  0  0  0  0  0  0  0
    2.9586    1.5123    1.0281 H   0  0  0  0  0  0  0  0  0  0  0  0
    1.9203   -5.4972    2.5420 H   0  0  0  0  0  0  0  0  0  0  0  0
    3.4656   -3.8322    0.9880 H   0  0  0  0  0  0  0  0  0  0  0  0
   -0.0558   -3.8494    3.5214 H   0  0  0  0  0  0  0  0  0  0  0  0
  1 12  1  0  0  0  0
  1 10  1  0  0  0  0
  1  8  1  0  0  0  0
  2 13  1  0  0  0  0
  2  4  2  0  0  0  0
  3  5  2  0  0  0  0
  3  2  1  0  0  0  0
  4 15  1  0  0  0  0
  5  9  1  0  0  0  0
  6  8  1  0  0  0  0
  6  5  1  0  0  0  0
  7  6  2  0  0  0  0
  9  4  1  0  0  0  0
 11  1  1  0  0  0  0
 14  3  1  0  0  0  0
M  END
>  <HBA>
3

>  <HBD>
0

>  <TPSA>
39.44

>  <cid>
11902

>  <dipole>
1.78

>  <excitation_energy_1>
5.015

>  <excitation_energy_2>
5.127

>  <excitation_energy_3>
6.021

>  <excitation_energy_4>
6.14

>  <homo_energy>
-6.547

>  <homo_lumo_gap>
5.472

>  <logP>
1.066

>  <lumo_energy>
-1.075

>  <melting_point>
28.49

>  <molecular_refractivity>
29.99

>  <oscillator_strength_1>
0.0002

>  <oscillator_strength_2>
0.3834

>  <oscillator_strength_3>
0.0194

>  <oscillator_strength_4>
0.004

>  <open_babel_can_smiles>
COC(=O)c1ccco1

>  <mulliken_charges>
15
1   -0.216255
2   -0.188858
3   -0.160617
4   0.100824
5   0.281347
6   0.570199
7   -0.498502
8   -0.455526
9   -0.428554
10   0.166883
11   0.171232
12   0.171362
13   0.151899
14   0.169108
15   0.165458

>  <lowdin_charges>
15
1   -0.274066
2   -0.201389
3   -0.161179
4   -0.057752
5   0.026148
6   0.182728
7   -0.270905
8   -0.182494
9   -0.075585
10   0.16283
11   0.157663
12   0.15939
13   0.172909
14   0.185477
15   0.176223

$$$$

