PCCDB-ID:  24923
public computational chemistry database (PCCDB) project, http://pccdb.org

 22 21  0  0  0  0  0  0  0  0999 V2000
    3.5517   -0.1420   -1.6248 C   0  0  0  0  0  0  0  0  0  0  0  0
    5.3986   -2.8213    2.7593 C   0  0  0  0  0  0  0  0  0  0  0  0
    4.3223   -2.3277    2.1383 C   0  0  0  0  0  0  0  0  0  0  0  0
    3.5074    1.0402   -2.5983 C   0  0  0  0  0  0  0  0  0  0  0  0
    3.2046    0.2852   -0.2018 C   0  0  0  0  0  0  0  0  0  0  0  0
    5.2762   -3.9746    3.7001 C   0  0  0  0  0  0  0  0  0  0  0  0
    4.4477   -1.1775    1.2036 C   0  0  0  0  0  0  0  0  0  0  0  0
    4.3556    2.1143   -2.2079 O   0  0  0  0  0  0  0  0  0  0  0  0
    4.2370   -4.5362    3.9516 O   0  0  0  0  0  0  0  0  0  0  0  0
    6.4348   -4.3806    4.2840 O   0  0  0  0  0  0  0  0  0  0  0  0
    5.4928   -0.6216    0.9228 O   0  0  0  0  0  0  0  0  0  0  0  0
    3.2401   -0.8369    0.7138 O   0  0  0  0  0  0  0  0  0  0  0  0
    4.5562   -0.5841   -1.6290 H   0  0  0  0  0  0  0  0  0  0  0  0
    2.8540   -0.9190   -1.9628 H   0  0  0  0  0  0  0  0  0  0  0  0
    6.3702   -2.3683    2.5691 H   0  0  0  0  0  0  0  0  0  0  0  0
    3.3393   -2.7559    2.3073 H   0  0  0  0  0  0  0  0  0  0  0  0
    2.4992    1.4683   -2.6328 H   0  0  0  0  0  0  0  0  0  0  0  0
    3.7460    0.6890   -3.6143 H   0  0  0  0  0  0  0  0  0  0  0  0
    2.1787    0.6566   -0.1374 H   0  0  0  0  0  0  0  0  0  0  0  0
    3.8922    1.0570    0.1472 H   0  0  0  0  0  0  0  0  0  0  0  0
    5.2675    1.7821   -2.1986 H   0  0  0  0  0  0  0  0  0  0  0  0
    7.1788   -3.8333    3.9833 H   0  0  0  0  0  0  0  0  0  0  0  0
  1  5  1  0  0  0  0
  2  6  1  0  0  0  0
  3 16  1  0  0  0  0
  3  2  2  0  0  0  0
  4  8  1  0  0  0  0
  4  1  1  0  0  0  0
  5 19  1  0  0  0  0
  5 20  1  0  0  0  0
  5 12  1  0  0  0  0
  6  9  2  0  0  0  0
  6 10  1  0  0  0  0
  7  3  1  0  0  0  0
  8 21  1  0  0  0  0
 11  7  2  0  0  0  0
 12  7  1  0  0  0  0
 13  1  1  0  0  0  0
 14  1  1  0  0  0  0
 15  2  1  0  0  0  0
 17  4  1  0  0  0  0
 18  4  1  0  0  0  0
 22 10  1  0  0  0  0
M  END
>  <HBA>
5

>  <HBD>
2

>  <TPSA>
83.83

>  <cid>
24923

>  <dipole>
3.17

>  <excitation_energy_1>
4.005

>  <excitation_energy_2>
4.22

>  <excitation_energy_3>
4.528

>  <excitation_energy_4>
5.388

>  <homo_energy>
-7.502

>  <homo_lumo_gap>
5.021

>  <logP>
-0.447

>  <lumo_energy>
-2.482

>  <melting_point>
90.78

>  <molecular_refractivity>
39.51

>  <oscillator_strength_1>
0.0001

>  <oscillator_strength_2>
0.0001

>  <oscillator_strength_3>
0.0306

>  <oscillator_strength_4>
0.1878

>  <open_babel_can_smiles>
OCCCOC(=O)/C=C/C(=O)O

>  <mulliken_charges>
22
1   -0.312953
2   -0.201534
3   -0.154675
4   -0.040316
5   -0.038459
6   0.609475
7   0.622485
8   -0.608991
9   -0.441251
10   -0.573696
11   -0.492313
12   -0.471667
13   0.157411
14   0.14961
15   0.167626
16   0.19504
17   0.15066
18   0.133043
19   0.158219
20   0.183779
21   0.394472
22   0.414035

>  <lowdin_charges>
22
1   -0.308335
2   -0.174218
3   -0.131663
4   -0.132258
5   -0.131255
6   0.195283
7   0.192976
8   -0.46405
9   -0.232956
10   -0.34977
11   -0.271921
12   -0.177581
13   0.152864
14   0.156113
15   0.17377
16   0.192621
17   0.147103
18   0.133556
19   0.155911
20   0.167141
21   0.344808
22   0.361861

$$$$

