PCCDB-ID:  13190
public computational chemistry database (PCCDB) project, http://pccdb.org

 33 32  0  0  0  0  0  0  0  0999 V2000
    4.4246   -1.7200   -6.1377 C   0  0  0  0  0  0  0  0  0  0  0  0
    9.1564   -5.9914   -3.3311 C   0  0  0  0  0  0  0  0  0  0  0  0
    3.8722   -0.9525   -5.1969 C   0  0  0  0  0  0  0  0  0  0  0  0
    8.7151   -5.7885   -1.8769 C   0  0  0  0  0  0  0  0  0  0  0  0
    4.6075    0.0253   -4.3205 C   0  0  0  0  0  0  0  0  0  0  0  0
    9.1480   -4.4440   -1.2652 C   0  0  0  0  0  0  0  0  0  0  0  0
    4.4306   -0.2508   -2.8107 C   0  0  0  0  0  0  0  0  0  0  0  0
    8.5681   -3.1828   -1.9303 C   0  0  0  0  0  0  0  0  0  0  0  0
    4.9861   -1.5985   -2.3221 C   0  0  0  0  0  0  0  0  0  0  0  0
    7.0423   -3.0474   -1.8289 C   0  0  0  0  0  0  0  0  0  0  0  0
    6.5119   -1.7342   -2.4205 C   0  0  0  0  0  0  0  0  0  0  0  0
    3.8336   -2.4048   -6.7404 H   0  0  0  0  0  0  0  0  0  0  0  0
    5.4923   -1.6879   -6.3469 H   0  0  0  0  0  0  0  0  0  0  0  0
    8.8739   -6.9866   -3.6934 H   0  0  0  0  0  0  0  0  0  0  0  0
   10.2454   -5.8980   -3.4301 H   0  0  0  0  0  0  0  0  0  0  0  0
    8.6995   -5.2566   -4.0037 H   0  0  0  0  0  0  0  0  0  0  0  0
    2.7955   -1.0217   -5.0256 H   0  0  0  0  0  0  0  0  0  0  0  0
    9.1346   -6.5961   -1.2617 H   0  0  0  0  0  0  0  0  0  0  0  0
    7.6244   -5.8966   -1.8075 H   0  0  0  0  0  0  0  0  0  0  0  0
    4.2327    1.0400   -4.5233 H   0  0  0  0  0  0  0  0  0  0  0  0
    5.6719    0.0317   -4.5856 H   0  0  0  0  0  0  0  0  0  0  0  0
   10.2456   -4.3833   -1.2970 H   0  0  0  0  0  0  0  0  0  0  0  0
    8.8742   -4.4369   -0.2003 H   0  0  0  0  0  0  0  0  0  0  0  0
    3.3593   -0.2002   -2.5696 H   0  0  0  0  0  0  0  0  0  0  0  0
    4.9081    0.5639   -2.2484 H   0  0  0  0  0  0  0  0  0  0  0  0
    8.8658   -3.1464   -2.9876 H   0  0  0  0  0  0  0  0  0  0  0  0
    9.0311   -2.3029   -1.4611 H   0  0  0  0  0  0  0  0  0  0  0  0
    4.5134   -2.4133   -2.8873 H   0  0  0  0  0  0  0  0  0  0  0  0
    4.6860   -1.7370   -1.2735 H   0  0  0  0  0  0  0  0  0  0  0  0
    6.7422   -3.1172   -0.7723 H   0  0  0  0  0  0  0  0  0  0  0  0
    6.5549   -3.8900   -2.3389 H   0  0  0  0  0  0  0  0  0  0  0  0
    6.9868   -0.8861   -1.9039 H   0  0  0  0  0  0  0  0  0  0  0  0
    6.8260   -1.6656   -3.4712 H   0  0  0  0  0  0  0  0  0  0  0  0
  1  3  2  0  0  0  0
  2  4  1  0  0  0  0
  3 17  1  0  0  0  0
  3  5  1  0  0  0  0
  4 19  1  0  0  0  0
  4  6  1  0  0  0  0
  4 18  1  0  0  0  0
  5  7  1  0  0  0  0
  6 23  1  0  0  0  0
  7 24  1  0  0  0  0
  7  9  1  0  0  0  0
  7 25  1  0  0  0  0
  8 10  1  0  0  0  0
  8 27  1  0  0  0  0
  8  6  1  0  0  0  0
  9 29  1  0  0  0  0
 10 30  1  0  0  0  0
 11  9  1  0  0  0  0
 11 32  1  0  0  0  0
 11 10  1  0  0  0  0
 12  1  1  0  0  0  0
 13  1  1  0  0  0  0
 14  2  1  0  0  0  0
 15  2  1  0  0  0  0
 16  2  1  0  0  0  0
 20  5  1  0  0  0  0
 21  5  1  0  0  0  0
 22  6  1  0  0  0  0
 26  8  1  0  0  0  0
 28  9  1  0  0  0  0
 31 10  1  0  0  0  0
 33 11  1  0  0  0  0
M  END
>  <HBA>
0

>  <HBD>
0

>  <TPSA>
0.0

>  <cid>
13190

>  <dipole>
0.32

>  <excitation_energy_1>
6.406

>  <excitation_energy_2>
6.602

>  <excitation_energy_3>
6.712

>  <excitation_energy_4>
6.892

>  <homo_energy>
-6.789

>  <homo_lumo_gap>
7.47

>  <logP>
4.313

>  <lumo_energy>
0.68

>  <melting_point>
-50.48

>  <molecular_refractivity>
54.52

>  <oscillator_strength_1>
0.0322

>  <oscillator_strength_2>
0.0739

>  <oscillator_strength_3>
0.0309

>  <oscillator_strength_4>
0.0106

>  <open_babel_can_smiles>
CCCCCCCCCC=C

>  <mulliken_charges>
33
1   -0.343832
2   -0.44317
3   -0.0362
4   -0.249903
5   -0.302677
6   -0.251413
7   -0.263435
8   -0.256437
9   -0.251385
10   -0.254252
11   -0.253145
12   0.13699
13   0.133484
14   0.141029
15   0.139915
16   0.145605
17   0.121709
18   0.129631
19   0.134728
20   0.141469
21   0.140567
22   0.12487
23   0.125521
24   0.128368
25   0.129438
26   0.130015
27   0.126026
28   0.137643
29   0.125728
30   0.124712
31   0.133691
32   0.123571
33   0.131137

>  <lowdin_charges>
33
1   -0.346262
2   -0.44635
3   -0.141021
4   -0.274763
5   -0.273827
6   -0.272564
7   -0.273795
8   -0.277425
9   -0.278189
10   -0.275656
11   -0.275328
12   0.158413
13   0.151165
14   0.148832
15   0.143588
16   0.147994
17   0.145614
18   0.142484
19   0.137689
20   0.150128
21   0.144698
22   0.136756
23   0.137393
24   0.138885
25   0.141909
26   0.136754
27   0.140585
28   0.14474
29   0.138446
30   0.134858
31   0.140576
32   0.136291
33   0.13738

$$$$

