PCCDB-ID:  7829
public computational chemistry database (PCCDB) project, http://pccdb.org

 38 37  0  0  0  0  0  0  0  0999 V2000
    4.3781    0.6715    7.9054 C   0  0  0  0  0  0  0  0  0  0  0  0
   -7.8837    5.0799    7.3109 C   0  0  0  0  0  0  0  0  0  0  0  0
   -1.0271    1.9609    4.0797 C   0  0  0  0  0  0  0  0  0  0  0  0
   -2.3217    2.2060    4.8661 C   0  0  0  0  0  0  0  0  0  0  0  0
    0.2431    2.1989    4.9063 C   0  0  0  0  0  0  0  0  0  0  0  0
   -3.5899    1.9815    4.0293 C   0  0  0  0  0  0  0  0  0  0  0  0
    1.5328    1.9402    4.1158 C   0  0  0  0  0  0  0  0  0  0  0  0
   -4.9085    2.1126    4.8067 C   0  0  0  0  0  0  0  0  0  0  0  0
    2.8120    2.1924    4.9214 C   0  0  0  0  0  0  0  0  0  0  0  0
   -5.1717    3.5260    5.3367 C   0  0  0  0  0  0  0  0  0  0  0  0
    3.0640    1.1623    6.0078 C   0  0  0  0  0  0  0  0  0  0  0  0
   -6.5410    3.6762    5.9715 C   0  0  0  0  0  0  0  0  0  0  0  0
    2.5139    0.0866    6.1107 O   0  0  0  0  0  0  0  0  0  0  0  0
   -7.4692    2.9061    5.8520 O   0  0  0  0  0  0  0  0  0  0  0  0
    4.0258    1.5900    6.8582 O   0  0  0  0  0  0  0  0  0  0  0  0
   -6.6125    4.8190    6.6951 O   0  0  0  0  0  0  0  0  0  0  0  0
    5.1546    1.1722    8.4846 H   0  0  0  0  0  0  0  0  0  0  0  0
    4.7554   -0.2653    7.4863 H   0  0  0  0  0  0  0  0  0  0  0  0
    3.5101    0.4534    8.5332 H   0  0  0  0  0  0  0  0  0  0  0  0
   -7.7630    6.0241    7.8432 H   0  0  0  0  0  0  0  0  0  0  0  0
   -8.1455    4.2778    8.0063 H   0  0  0  0  0  0  0  0  0  0  0  0
   -8.6703    5.1629    6.5558 H   0  0  0  0  0  0  0  0  0  0  0  0
   -1.0121    2.6107    3.1919 H   0  0  0  0  0  0  0  0  0  0  0  0
   -1.0240    0.9285    3.7007 H   0  0  0  0  0  0  0  0  0  0  0  0
   -2.3085    3.2307    5.2639 H   0  0  0  0  0  0  0  0  0  0  0  0
   -2.3446    1.5396    5.7410 H   0  0  0  0  0  0  0  0  0  0  0  0
    0.2284    1.5495    5.7907 H   0  0  0  0  0  0  0  0  0  0  0  0
    0.2457    3.2354    5.2768 H   0  0  0  0  0  0  0  0  0  0  0  0
   -3.5467    0.9757    3.5890 H   0  0  0  0  0  0  0  0  0  0  0  0
   -3.5956    2.6825    3.1811 H   0  0  0  0  0  0  0  0  0  0  0  0
    1.5524    2.5852    3.2274 H   0  0  0  0  0  0  0  0  0  0  0  0
    1.5383    0.9041    3.7572 H   0  0  0  0  0  0  0  0  0  0  0  0
   -4.9161    1.4045    5.6458 H   0  0  0  0  0  0  0  0  0  0  0  0
   -5.7468    1.8223    4.1637 H   0  0  0  0  0  0  0  0  0  0  0  0
    2.8068    3.1869    5.3838 H   0  0  0  0  0  0  0  0  0  0  0  0
    3.6913    2.1743    4.2622 H   0  0  0  0  0  0  0  0  0  0  0  0
   -5.1142    4.2574    4.5168 H   0  0  0  0  0  0  0  0  0  0  0  0
   -4.4205    3.8418    6.0688 H   0  0  0  0  0  0  0  0  0  0  0  0
  1 17  1  0  0  0  0
  1 19  1  0  0  0  0
  2 20  1  0  0  0  0
  2 21  1  0  0  0  0
  3  4  1  0  0  0  0
  3  5  1  0  0  0  0
  4 25  1  0  0  0  0
  4 26  1  0  0  0  0
  5 28  1  0  0  0  0
  5 27  1  0  0  0  0
  6  8  1  0  0  0  0
  6  4  1  0  0  0  0
  7  5  1  0  0  0  0
  7  9  1  0  0  0  0
  8 10  1  0  0  0  0
  8 33  1  0  0  0  0
  9 35  1  0  0  0  0
  9 11  1  0  0  0  0
 10 12  1  0  0  0  0
 10 38  1  0  0  0  0
 11 13  2  0  0  0  0
 11 15  1  0  0  0  0
 12 16  1  0  0  0  0
 14 12  2  0  0  0  0
 15  1  1  0  0  0  0
 16  2  1  0  0  0  0
 18  1  1  0  0  0  0
 22  2  1  0  0  0  0
 23  3  1  0  0  0  0
 24  3  1  0  0  0  0
 29  6  1  0  0  0  0
 30  6  1  0  0  0  0
 31  7  1  0  0  0  0
 32  7  1  0  0  0  0
 34  8  1  0  0  0  0
 36  9  1  0  0  0  0
 37 10  1  0  0  0  0
M  END
>  <HBA>
4

>  <HBD>
0

>  <TPSA>
52.6

>  <cid>
7829

>  <dipole>
3.14

>  <excitation_energy_1>
5.826

>  <excitation_energy_2>
5.833

>  <excitation_energy_3>
6.934

>  <excitation_energy_4>
6.968

>  <homo_energy>
-7.274

>  <homo_lumo_gap>
7.66

>  <logP>
2.453

>  <lumo_energy>
0.386

>  <melting_point>
-5.66

>  <molecular_refractivity>
62.37

>  <oscillator_strength_1>
0.0009

>  <oscillator_strength_2>
0.0006

>  <oscillator_strength_3>
0.0163

>  <oscillator_strength_4>
0.0214

>  <open_babel_can_smiles>
COC(=O)CCCCCCCCC(=O)OC

>  <mulliken_charges>
38
1   -0.217498
2   -0.21722
3   -0.254026
4   -0.257353
5   -0.260021
6   -0.261556
7   -0.251065
8   -0.25271
9   -0.361328
10   -0.36192
11   0.621424
12   0.619097
13   -0.480072
14   -0.478012
15   -0.451606
16   -0.453907
17   0.163668
18   0.169161
19   0.169787
20   0.162465
21   0.169582
22   0.168278
23   0.124916
24   0.134163
25   0.128649
26   0.131939
27   0.151175
28   0.121517
29   0.134092
30   0.125911
31   0.12938
32   0.154351
33   0.141802
34   0.156113
35   0.16666
36   0.172911
37   0.169634
38   0.171618

>  <lowdin_charges>
38
1   -0.281165
2   -0.280516
3   -0.272074
4   -0.276615
5   -0.277279
6   -0.275178
7   -0.271588
8   -0.272884
9   -0.302043
10   -0.305123
11   0.195524
12   0.198292
13   -0.266457
14   -0.265261
15   -0.195468
16   -0.198959
17   0.161351
18   0.158699
19   0.159724
20   0.159251
21   0.159669
22   0.15885
23   0.136389
24   0.140019
25   0.135703
26   0.140178
27   0.149538
28   0.133169
29   0.143476
30   0.137385
31   0.143405
32   0.152965
33   0.147237
34   0.157212
35   0.164928
36   0.172191
37   0.168268
38   0.167187

$$$$

