PCCDB-ID:  138
public computational chemistry database (PCCDB) project, http://pccdb.org

 19 18  0  0  0  0  0  0  0  0999 V2000
    0.9732    0.6553   -0.2107 C   0  0  0  0  0  0  0  0  0  0  0  0
    0.7122    1.1030    1.2401 C   0  0  0  0  0  0  0  0  0  0  0  0
    2.4622    0.4316   -0.5866 C   0  0  0  0  0  0  0  0  0  0  0  0
    1.2993    0.1922    2.3252 C   0  0  0  0  0  0  0  0  0  0  0  0
    2.8384   -0.9986   -0.9962 C   0  0  0  0  0  0  0  0  0  0  0  0
    0.9882   -1.2253    2.0586 N   0  0  0  0  0  0  0  0  0  0  0  0
    3.5402   -1.2245   -1.9573 O   0  0  0  0  0  0  0  0  0  0  0  0
    2.3739   -1.9978   -0.2280 O   0  0  0  0  0  0  0  0  0  0  0  0
    0.5494    1.4174   -0.8739 H   0  0  0  0  0  0  0  0  0  0  0  0
    0.4025   -0.2577   -0.4142 H   0  0  0  0  0  0  0  0  0  0  0  0
   -0.3742    1.1840    1.3888 H   0  0  0  0  0  0  0  0  0  0  0  0
    1.1146    2.1125    1.3986 H   0  0  0  0  0  0  0  0  0  0  0  0
    3.1183    0.7138    0.2492 H   0  0  0  0  0  0  0  0  0  0  0  0
    2.7546    1.0653   -1.4262 H   0  0  0  0  0  0  0  0  0  0  0  0
    0.9420    0.5284    3.3108 H   0  0  0  0  0  0  0  0  0  0  0  0
    2.3919    0.2782    2.3422 H   0  0  0  0  0  0  0  0  0  0  0  0
   -0.0212   -1.3704    2.0373 H   0  0  0  0  0  0  0  0  0  0  0  0
    1.3497   -1.8164    2.8058 H   0  0  0  0  0  0  0  0  0  0  0  0
    1.8359   -1.6822    0.5558 H   0  0  0  0  0  0  0  0  0  0  0  0
  1  2  1  0  0  0  0
  2 11  1  0  0  0  0
  2 12  1  0  0  0  0
  2  4  1  0  0  0  0
  3  1  1  0  0  0  0
  3 13  1  0  0  0  0
  4 16  1  0  0  0  0
  4 15  1  0  0  0  0
  5  3  1  0  0  0  0
  5  8  1  0  0  0  0
  6  4  1  0  0  0  0
  6 18  1  0  0  0  0
  7  5  2  0  0  0  0
  8 19  1  0  0  0  0
  9  1  1  0  0  0  0
 10  1  1  0  0  0  0
 14  3  1  0  0  0  0
 17  6  1  0  0  0  0
M  END
>  <HBA>
3

>  <HBD>
2

>  <TPSA>
63.32

>  <cid>
138

>  <dipole>
7.22

>  <excitation_energy_1>
5.568

>  <excitation_energy_2>
5.847

>  <excitation_energy_3>
6.397

>  <excitation_energy_4>
6.504

>  <homo_energy>
-6.425

>  <homo_lumo_gap>
7.464

>  <logP>
0.9

>  <lumo_energy>
1.039

>  <melting_point>
105.51

>  <molecular_refractivity>
30.63

>  <oscillator_strength_1>
0.0015

>  <oscillator_strength_2>
0.0051

>  <oscillator_strength_3>
0.0121

>  <oscillator_strength_4>
0.0071

>  <open_babel_can_smiles>
NCCCCC(=O)O

>  <mulliken_charges>
19
1   -0.277689
2   -0.276276
3   -0.372667
4   -0.139812
5   0.564943
6   -0.763869
7   -0.462059
8   -0.614543
9   0.152118
10   0.152506
11   0.136467
12   0.148752
13   0.158574
14   0.175856
15   0.140364
16   0.157703
17   0.321127
18   0.328766
19   0.469739

>  <lowdin_charges>
19
1   -0.286393
2   -0.28219
3   -0.323366
4   -0.207002
5   0.181252
6   -0.529495
7   -0.269425
8   -0.388298
9   0.156763
10   0.149844
11   0.141986
12   0.151087
13   0.160671
14   0.172775
15   0.136685
16   0.145718
17   0.265653
18   0.273693
19   0.350043

$$$$

