PCCDB-ID:  19789
public computational chemistry database (PCCDB) project, http://pccdb.org

 35 36  0  0  0  0  0  0  0  0999 V2000
    3.5309   -2.4151    1.8136 C   0  0  0  0  0  0  0  0  0  0  0  0
    0.5691   -3.7221   -0.0683 C   0  0  0  0  0  0  0  0  0  0  0  0
    3.4624   -3.5323    0.7573 C   0  0  0  0  0  0  0  0  0  0  0  0
    1.5707   -2.6915   -0.5921 C   0  0  0  0  0  0  0  0  0  0  0  0
    4.9980   -1.9545   -6.2950 C   0  0  0  0  0  0  0  0  0  0  0  0
    6.0153   -1.0625   -6.6472 C   0  0  0  0  0  0  0  0  0  0  0  0
    4.8491   -2.4154   -4.9787 C   0  0  0  0  0  0  0  0  0  0  0  0
    6.9309   -0.5908   -5.6936 C   0  0  0  0  0  0  0  0  0  0  0  0
    3.8514   -2.2824   -1.3241 C   0  0  0  0  0  0  0  0  0  0  0  0
    5.1175   -3.0147   -1.8028 C   0  0  0  0  0  0  0  0  0  0  0  0
    5.7577   -1.9455   -4.0383 C   0  0  0  0  0  0  0  0  0  0  0  0
    6.7716   -1.0530   -4.4025 C   0  0  0  0  0  0  0  0  0  0  0  0
    7.0111   -1.4461   -2.2118 C   0  0  0  0  0  0  0  0  0  0  0  0
    2.9603   -3.1655   -0.5769 N   0  0  0  0  0  0  0  0  0  0  0  0
    5.9326   -2.1822   -2.6756 N   0  0  0  0  0  0  0  0  0  0  0  0
    7.4578   -1.3883   -1.0931 O   0  0  0  0  0  0  0  0  0  0  0  0
    7.5333   -0.7475   -3.2958 O   0  0  0  0  0  0  0  0  0  0  0  0
    3.9257   -2.8193    2.7527 H   0  0  0  0  0  0  0  0  0  0  0  0
    2.5433   -1.9909    2.0261 H   0  0  0  0  0  0  0  0  0  0  0  0
    4.1908   -1.5970    1.5058 H   0  0  0  0  0  0  0  0  0  0  0  0
   -0.4522   -3.3761   -0.2620 H   0  0  0  0  0  0  0  0  0  0  0  0
    0.6580   -3.8835    1.0111 H   0  0  0  0  0  0  0  0  0  0  0  0
    0.7099   -4.6845   -0.5721 H   0  0  0  0  0  0  0  0  0  0  0  0
    2.8355   -4.3475    1.1337 H   0  0  0  0  0  0  0  0  0  0  0  0
    4.4604   -3.9661    0.6312 H   0  0  0  0  0  0  0  0  0  0  0  0
    1.4405   -1.7412   -0.0404 H   0  0  0  0  0  0  0  0  0  0  0  0
    1.3245   -2.4717   -1.6380 H   0  0  0  0  0  0  0  0  0  0  0  0
    4.3039   -2.3004   -7.0552 H   0  0  0  0  0  0  0  0  0  0  0  0
    6.1013   -0.7255   -7.6757 H   0  0  0  0  0  0  0  0  0  0  0  0
    4.0579   -3.1083   -4.7110 H   0  0  0  0  0  0  0  0  0  0  0  0
    7.7265    0.1005   -5.9494 H   0  0  0  0  0  0  0  0  0  0  0  0
    3.3097   -1.9327   -2.2104 H   0  0  0  0  0  0  0  0  0  0  0  0
    4.1554   -1.3776   -0.7680 H   0  0  0  0  0  0  0  0  0  0  0  0
    4.8368   -3.9256   -2.3412 H   0  0  0  0  0  0  0  0  0  0  0  0
    5.7590   -3.2960   -0.9653 H   0  0  0  0  0  0  0  0  0  0  0  0
  1 19  1  0  0  0  0
  1 18  1  0  0  0  0
  2 22  1  0  0  0  0
  3 24  1  0  0  0  0
  3  1  1  0  0  0  0
  4 14  1  0  0  0  0
  4  2  1  0  0  0  0
  4 26  1  0  0  0  0
  5  7  1  0  0  0  0
  6  5  2  0  0  0  0
  6  8  1  0  0  0  0
  7 30  1  0  0  0  0
  7 11  2  0  0  0  0
  8 12  2  0  0  0  0
  9 33  1  0  0  0  0
  9 14  1  0  0  0  0
 10  9  1  0  0  0  0
 10 35  1  0  0  0  0
 11 15  1  0  0  0  0
 12 11  1  0  0  0  0
 12 17  1  0  0  0  0
 13 16  2  0  0  0  0
 14  3  1  0  0  0  0
 15 13  1  0  0  0  0
 15 10  1  0  0  0  0
 17 13  1  0  0  0  0
 20  1  1  0  0  0  0
 21  2  1  0  0  0  0
 23  2  1  0  0  0  0
 25  3  1  0  0  0  0
 27  4  1  0  0  0  0
 28  5  1  0  0  0  0
 29  6  1  0  0  0  0
 31  8  1  0  0  0  0
 32  9  1  0  0  0  0
 34 10  1  0  0  0  0
M  END
>  <HBA>
4

>  <HBD>
0

>  <TPSA>
38.38

>  <cid>
19789

>  <dipole>
3.92

>  <excitation_energy_1>
4.733

>  <excitation_energy_2>
4.884

>  <excitation_energy_3>
5.161

>  <excitation_energy_4>
5.226

>  <homo_energy>
-5.782

>  <homo_lumo_gap>
5.426

>  <logP>
1.936

>  <lumo_energy>
-0.356

>  <melting_point>
84.81

>  <molecular_refractivity>
68.67

>  <oscillator_strength_1>
0.0244

>  <oscillator_strength_2>
0.0705

>  <oscillator_strength_3>
0.0014

>  <oscillator_strength_4>
0.0188

>  <open_babel_can_smiles>
CCN(CCn1c(=O)oc2c1cccc2)CC

>  <mulliken_charges>
35
1   -0.462577
2   -0.458805
3   -0.144379
4   -0.108993
5   -0.146199
6   -0.142144
7   -0.174431
8   -0.18989
9   -0.120698
10   -0.16636
11   0.350911
12   0.317727
13   0.768809
14   -0.390206
15   -0.579374
16   -0.499146
17   -0.521384
18   0.147959
19   0.148963
20   0.160358
21   0.146325
22   0.151081
23   0.155818
24   0.147488
25   0.144185
26   0.119593
27   0.136256
28   0.135339
29   0.136208
30   0.144902
31   0.153838
32   0.14329
33   0.139932
34   0.166843
35   0.188763

>  <lowdin_charges>
35
1   -0.466495
2   -0.449016
3   -0.206661
4   -0.194594
5   -0.158537
6   -0.162359
7   -0.188264
8   -0.169837
9   -0.209574
10   -0.199944
11   0.025036
12   0.077897
13   0.20848
14   -0.194074
15   -0.065048
16   -0.266494
17   -0.136789
18   0.15644
19   0.149194
20   0.15562
21   0.154368
22   0.148205
23   0.154554
24   0.148735
25   0.14471
26   0.119975
27   0.141797
28   0.163158
29   0.161751
30   0.167035
31   0.17509
32   0.149075
33   0.132507
34   0.159931
35   0.174131

$$$$

