PCCDB-ID:  23503
public computational chemistry database (PCCDB) project, http://pccdb.org

 31 32  0  0  0  0  0  0  0  0999 V2000
    2.9932   -0.4698   -1.1594 C   0  0  0  0  0  0  0  0  0  0  0  0
    0.8168   -0.0110    0.0638 C   0  0  0  0  0  0  0  0  0  0  0  0
    5.4318   -4.0907    7.1224 C   0  0  0  0  0  0  0  0  0  0  0  0
    4.9128   -2.8002    7.2422 C   0  0  0  0  0  0  0  0  0  0  0  0
    5.4485   -4.7096    5.8712 C   0  0  0  0  0  0  0  0  0  0  0  0
    4.4145   -2.1363    6.1222 C   0  0  0  0  0  0  0  0  0  0  0  0
    4.9522   -4.0439    4.7514 C   0  0  0  0  0  0  0  0  0  0  0  0
    2.6966   -2.0631    1.5404 C   0  0  0  0  0  0  0  0  0  0  0  0
    3.5913    0.0009    2.3642 C   0  0  0  0  0  0  0  0  0  0  0  0
    3.1888   -2.7255    2.6615 C   0  0  0  0  0  0  0  0  0  0  0  0
    4.0870   -0.6577    3.4884 C   0  0  0  0  0  0  0  0  0  0  0  0
    2.3541    0.0482    0.1430 C   0  0  0  0  0  0  0  0  0  0  0  0
    2.8875   -0.6843    1.3666 C   0  0  0  0  0  0  0  0  0  0  0  0
    4.4253   -2.7451    4.8555 C   0  0  0  0  0  0  0  0  0  0  0  0
    3.8968   -2.0373    3.6617 C   0  0  0  0  0  0  0  0  0  0  0  0
    2.6410    0.1105   -2.0207 H   0  0  0  0  0  0  0  0  0  0  0  0
    2.7357   -1.5205   -1.3386 H   0  0  0  0  0  0  0  0  0  0  0  0
    4.0855   -0.3961   -1.1219 H   0  0  0  0  0  0  0  0  0  0  0  0
    0.4504    0.5784   -0.7852 H   0  0  0  0  0  0  0  0  0  0  0  0
    0.3567    0.3826    0.9767 H   0  0  0  0  0  0  0  0  0  0  0  0
    0.4649   -1.0409   -0.0698 H   0  0  0  0  0  0  0  0  0  0  0  0
    5.8192   -4.6088    7.9955 H   0  0  0  0  0  0  0  0  0  0  0  0
    4.8863   -2.3111    8.2125 H   0  0  0  0  0  0  0  0  0  0  0  0
    5.8582   -5.7106    5.7634 H   0  0  0  0  0  0  0  0  0  0  0  0
    3.9866   -1.1437    6.2324 H   0  0  0  0  0  0  0  0  0  0  0  0
    4.9971   -4.5241    3.7778 H   0  0  0  0  0  0  0  0  0  0  0  0
    2.1468   -2.6317    0.7941 H   0  0  0  0  0  0  0  0  0  0  0  0
    3.7641    1.0697    2.2555 H   0  0  0  0  0  0  0  0  0  0  0  0
    2.9990   -3.7891    2.7780 H   0  0  0  0  0  0  0  0  0  0  0  0
    4.6535   -0.0981    4.2278 H   0  0  0  0  0  0  0  0  0  0  0  0
    2.6373    1.1043    0.2507 H   0  0  0  0  0  0  0  0  0  0  0  0
  1 18  1  0  0  0  0
  1 12  1  0  0  0  0
  2 12  1  0  0  0  0
  2 20  1  0  0  0  0
  3  4  1  0  0  0  0
  3 22  1  0  0  0  0
  4 23  1  0  0  0  0
  5  3  2  0  0  0  0
  6 25  1  0  0  0  0
  6  4  2  0  0  0  0
  7 14  2  0  0  0  0
  7  5  1  0  0  0  0
  8 10  1  0  0  0  0
  9 11  2  0  0  0  0
 10 29  1  0  0  0  0
 10 15  2  0  0  0  0
 11 15  1  0  0  0  0
 11 30  1  0  0  0  0
 12 31  1  0  0  0  0
 12 13  1  0  0  0  0
 13  8  2  0  0  0  0
 13  9  1  0  0  0  0
 14  6  1  0  0  0  0
 15 14  1  0  0  0  0
 16  1  1  0  0  0  0
 17  1  1  0  0  0  0
 19  2  1  0  0  0  0
 21  2  1  0  0  0  0
 24  5  1  0  0  0  0
 26  7  1  0  0  0  0
 27  8  1  0  0  0  0
 28  9  1  0  0  0  0
M  END
>  <HBA>
0

>  <HBD>
0

>  <TPSA>
0.0

>  <cid>
23503

>  <dipole>
0.39

>  <excitation_energy_1>
4.76

>  <excitation_energy_2>
4.834

>  <excitation_energy_3>
4.929

>  <excitation_energy_4>
5.497

>  <homo_energy>
-5.886

>  <homo_lumo_gap>
5.265

>  <logP>
4.477

>  <lumo_energy>
-0.62

>  <melting_point>
44.1

>  <molecular_refractivity>
66.46

>  <oscillator_strength_1>
0.568

>  <oscillator_strength_2>
0.0052

>  <oscillator_strength_3>
0.0004

>  <oscillator_strength_4>
0.0047

>  <open_babel_can_smiles>
CC(c1ccc(cc1)c1ccccc1)C

>  <mulliken_charges>
31
1   -0.438417
2   -0.438433
3   -0.127355
4   -0.133616
5   -0.133763
6   -0.174525
7   -0.174351
8   -0.19156
9   -0.203699
10   -0.176151
11   -0.171974
12   -0.160836
13   0.192413
14   0.090262
15   0.087851
16   0.141156
17   0.143187
18   0.150019
19   0.141219
20   0.149965
21   0.143386
22   0.128297
23   0.129094
24   0.129146
25   0.131165
26   0.131112
27   0.124535
28   0.122916
29   0.13032
30   0.130199
31   0.128435

>  <lowdin_charges>
31
1   -0.439065
2   -0.442169
3   -0.160277
4   -0.155026
5   -0.153403
6   -0.160851
7   -0.162538
8   -0.165583
9   -0.1664
10   -0.157853
11   -0.162063
12   -0.116616
13   0.000488
14   -0.000602
15   -0.006212
16   0.149003
17   0.146142
18   0.150944
19   0.149187
20   0.153403
21   0.146577
22   0.158185
23   0.157202
24   0.156512
25   0.157919
26   0.15848
27   0.15575
28   0.152246
29   0.156561
30   0.159834
31   0.140225

$$$$

