PCCDB-ID:  7453
public computational chemistry database (PCCDB) project, http://pccdb.org

 25 25  0  0  1  0  0  0  0  0999 V2000
    3.3681    1.5049   -1.0008 C   0  0  0  0  0  0  0  0  0  0  0  0
    2.4828   -2.2616   -0.3291 C   0  0  0  0  0  0  0  0  0  0  0  0
    2.5898    0.1859   -1.0007 C   0  0  0  0  0  0  0  0  0  0  0  0
    4.5521   -1.6979   -2.6307 C   0  0  0  0  0  0  0  0  0  0  0  0
    5.9131   -1.2596   -0.7098 C   0  0  0  0  0  0  0  0  0  0  0  0
    5.6920   -1.9929   -3.3774 C   0  0  0  0  0  0  0  0  0  0  0  0
    7.0637   -1.5517   -1.4389 C   0  0  0  0  0  0  0  0  0  0  0  0
    3.3889   -1.0220   -0.4589 C   0  0  2  0  0  0  0  0  0  0  0  0
    4.6347   -1.3256   -1.2817 C   0  0  0  0  0  0  0  0  0  0  0  0
    6.9553   -1.9220   -2.7816 C   0  0  0  0  0  0  0  0  0  0  0  0
    8.1119   -2.2028   -3.4598 O   0  0  0  0  0  0  0  0  0  0  0  0
    2.7484    2.3277   -1.3751 H   0  0  0  0  0  0  0  0  0  0  0  0
    4.2614    1.4410   -1.6312 H   0  0  0  0  0  0  0  0  0  0  0  0
    3.6950    1.7702    0.0126 H   0  0  0  0  0  0  0  0  0  0  0  0
    1.6285   -2.0537    0.3264 H   0  0  0  0  0  0  0  0  0  0  0  0
    3.0341   -3.1122    0.0862 H   0  0  0  0  0  0  0  0  0  0  0  0
    2.0859   -2.5675   -1.3046 H   0  0  0  0  0  0  0  0  0  0  0  0
    2.2440   -0.0383   -2.0197 H   0  0  0  0  0  0  0  0  0  0  0  0
    1.6826    0.2975   -0.3908 H   0  0  0  0  0  0  0  0  0  0  0  0
    3.5815   -1.7632   -3.1167 H   0  0  0  0  0  0  0  0  0  0  0  0
    6.0123   -0.9735    0.3351 H   0  0  0  0  0  0  0  0  0  0  0  0
    5.5996   -2.2786   -4.4243 H   0  0  0  0  0  0  0  0  0  0  0  0
    8.0484   -1.4969   -0.9851 H   0  0  0  0  0  0  0  0  0  0  0  0
    3.7291   -0.7561    0.5527 H   0  0  0  0  0  0  0  0  0  0  0  0
    7.8884   -2.4445   -4.3719 H   0  0  0  0  0  0  0  0  0  0  0  0
  1  3  1  0  0  0  0
  1 14  1  0  0  0  0
  2 16  1  0  0  0  0
  2 15  1  0  0  0  0
  3  8  1  0  0  0  0
  3 19  1  0  0  0  0
  4  9  2  0  0  0  0
  5 21  1  0  0  0  0
  6 10  2  0  0  0  0
  6  4  1  0  0  0  0
  7 23  1  0  0  0  0
  7  5  2  0  0  0  0
  8  2  1  0  0  0  0
  8 24  1  1  0  0  0
  9  5  1  0  0  0  0
  9  8  1  0  0  0  0
 10  7  1  0  0  0  0
 11 10  1  0  0  0  0
 12  1  1  0  0  0  0
 13  1  1  0  0  0  0
 17  2  1  0  0  0  0
 18  3  1  0  0  0  0
 20  4  1  0  0  0  0
 22  6  1  0  0  0  0
 25 11  1  0  0  0  0
M  END
>  <HBA>
1

>  <HBD>
1

>  <TPSA>
20.23

>  <cid>
7453

>  <dipole>
1.37

>  <excitation_energy_1>
4.934

>  <excitation_energy_2>
5.066

>  <excitation_energy_3>
5.524

>  <excitation_energy_4>
5.682

>  <homo_energy>
-5.763

>  <homo_lumo_gap>
5.802

>  <logP>
2.906

>  <lumo_energy>
0.038

>  <melting_point>
46.13

>  <molecular_refractivity>
47.85

>  <oscillator_strength_1>
0.0314

>  <oscillator_strength_2>
0.0001

>  <oscillator_strength_3>
0.0021

>  <oscillator_strength_4>
0.0797

>  <open_babel_can_smiles>
CC[C@H](c1ccc(cc1)O)C

>  <mulliken_charges>
25
1   -0.445911
2   -0.442638
3   -0.244906
4   -0.193344
5   -0.202886
6   -0.194182
7   -0.155831
8   -0.159135
9   0.183321
10   0.347622
11   -0.644971
12   0.139789
13   0.156463
14   0.138166
15   0.139308
16   0.148575
17   0.140629
18   0.12875
19   0.128961
20   0.126331
21   0.1246
22   0.115496
23   0.137169
24   0.122876
25   0.405749

>  <lowdin_charges>
25
1   -0.44811
2   -0.442778
3   -0.27081
4   -0.155843
5   -0.155448
6   -0.210576
7   -0.186236
8   -0.120137
9   -0.020183
10   0.097545
11   -0.380203
12   0.149779
13   0.154607
14   0.144425
15   0.147557
16   0.153325
17   0.146026
18   0.137466
19   0.140453
20   0.154981
21   0.153828
22   0.150003
23   0.165906
24   0.138818
25   0.355605

$$$$

