PCCDB-ID:  11326
public computational chemistry database (PCCDB) project, http://pccdb.org

 24 25  0  0  0  0  0  0  0  0999 V2000
    0.8758   -0.0419   -0.0524 C   0  0  0  0  0  0  0  0  0  0  0  0
    4.5553   -3.8279    0.0930 C   0  0  0  0  0  0  0  0  0  0  0  0
    7.3332   -1.2041    0.2721 C   0  0  0  0  0  0  0  0  0  0  0  0
    6.6386   -2.4356    0.2200 C   0  0  0  0  0  0  0  0  0  0  0  0
    6.6380   -0.0185    0.2528 C   0  0  0  0  0  0  0  0  0  0  0  0
    3.0994    1.1724    0.0845 C   0  0  0  0  0  0  0  0  0  0  0  0
    4.4715    1.1869    0.1570 C   0  0  0  0  0  0  0  0  0  0  0  0
    3.0961   -1.2372    0.0497 C   0  0  0  0  0  0  0  0  0  0  0  0
    2.3838   -0.0543    0.0281 C   0  0  0  0  0  0  0  0  0  0  0  0
    5.2602   -2.4930    0.1481 C   0  0  0  0  0  0  0  0  0  0  0  0
    5.2201   -0.0204    0.1795 C   0  0  0  0  0  0  0  0  0  0  0  0
    4.5162   -1.2677    0.1255 C   0  0  0  0  0  0  0  0  0  0  0  0
    0.5280    0.4949   -0.9443 H   0  0  0  0  0  0  0  0  0  0  0  0
    0.4338    0.4632    0.8161 H   0  0  0  0  0  0  0  0  0  0  0  0
    0.4685   -1.0569   -0.0921 H   0  0  0  0  0  0  0  0  0  0  0  0
    5.2768   -4.6492    0.1383 H   0  0  0  0  0  0  0  0  0  0  0  0
    3.9759   -3.9447   -0.8319 H   0  0  0  0  0  0  0  0  0  0  0  0
    3.8545   -3.9540    0.9280 H   0  0  0  0  0  0  0  0  0  0  0  0
    8.4185   -1.2038    0.3283 H   0  0  0  0  0  0  0  0  0  0  0  0
    7.2069   -3.3628    0.2378 H   0  0  0  0  0  0  0  0  0  0  0  0
    7.1613    0.9340    0.2932 H   0  0  0  0  0  0  0  0  0  0  0  0
    2.5469    2.1095    0.0684 H   0  0  0  0  0  0  0  0  0  0  0  0
    5.0078    2.1324    0.1991 H   0  0  0  0  0  0  0  0  0  0  0  0
    2.5518   -2.1761    0.0062 H   0  0  0  0  0  0  0  0  0  0  0  0
  1  9  1  0  0  0  0
  1 14  1  0  0  0  0
  2 16  1  0  0  0  0
  2 10  1  0  0  0  0
  2 18  1  0  0  0  0
  3 19  1  0  0  0  0
  4 20  1  0  0  0  0
  4  3  2  0  0  0  0
  5  3  1  0  0  0  0
  5 21  1  0  0  0  0
  6  7  2  0  0  0  0
  7 11  1  0  0  0  0
  7 23  1  0  0  0  0
  8 12  1  0  0  0  0
  9  8  2  0  0  0  0
  9  6  1  0  0  0  0
 10  4  1  0  0  0  0
 11  5  2  0  0  0  0
 12 10  2  0  0  0  0
 12 11  1  0  0  0  0
 13  1  1  0  0  0  0
 15  1  1  0  0  0  0
 17  2  1  0  0  0  0
 22  6  1  0  0  0  0
 24  8  1  0  0  0  0
M  END
>  <HBA>
0

>  <HBD>
0

>  <TPSA>
0.0

>  <cid>
11326

>  <dipole>
0.53

>  <excitation_energy_1>
4.26

>  <excitation_energy_2>
4.375

>  <excitation_energy_3>
5.325

>  <excitation_energy_4>
5.521

>  <homo_energy>
-5.589

>  <homo_lumo_gap>
4.759

>  <logP>
3.457

>  <lumo_energy>
-0.83

>  <melting_point>
57.33

>  <molecular_refractivity>
53.88

>  <oscillator_strength_1>
0.0633

>  <oscillator_strength_2>
0.0158

>  <oscillator_strength_3>
0.0004

>  <oscillator_strength_4>
0.0038

>  <open_babel_can_smiles>
Cc1ccc2c(c1)c(C)ccc2

>  <mulliken_charges>
24
1   -0.533255
2   -0.5336
3   -0.129617
4   -0.204209
5   -0.195225
6   -0.181501
7   -0.193074
8   -0.272488
9   0.190036
10   0.133539
11   0.1372
12   0.087014
13   0.161076
14   0.161197
15   0.155076
16   0.154825
17   0.161689
18   0.161397
19   0.126286
20   0.119351
21   0.1254
22   0.121227
23   0.127508
24   0.12015

>  <lowdin_charges>
24
1   -0.442214
2   -0.443974
3   -0.158135
4   -0.17224
5   -0.161722
6   -0.16737
7   -0.154129
8   -0.177751
9   0.001624
10   -0.001266
11   -0.00164
12   -0.007459
13   0.160305
14   0.160571
15   0.155866
16   0.158147
17   0.159316
18   0.159525
19   0.154986
20   0.153989
21   0.155825
22   0.155142
23   0.156612
24   0.155993

$$$$

