PCCDB-ID:  70258
public computational chemistry database (PCCDB) project, http://pccdb.org

 11 11  0  0  0  0  0  0  0  0999 V2000
    1.0260    0.6720    0.0262 C   0  0  0  0  0  0  0  0  0  0  0  0
    1.0258   -0.6730    0.0248 C   0  0  0  0  0  0  0  0  0  0  0  0
   -1.3118    0.0000   -0.0642 C   0  0  0  0  0  0  0  0  0  0  0  0
   -0.3695    1.2038   -0.0274 C   0  0  0  0  0  0  0  0  0  0  0  0
   -0.3701   -1.2042   -0.0262 C   0  0  0  0  0  0  0  0  0  0  0  0
   -0.6799    2.3769   -0.0406 O   0  0  0  0  0  0  0  0  0  0  0  0
   -0.6812   -2.3771   -0.0329 O   0  0  0  0  0  0  0  0  0  0  0  0
    1.8865    1.3319    0.0600 H   0  0  0  0  0  0  0  0  0  0  0  0
    1.8860   -1.3333    0.0560 H   0  0  0  0  0  0  0  0  0  0  0  0
   -1.9265    0.0002   -0.9714 H   0  0  0  0  0  0  0  0  0  0  0  0
   -1.9979    0.0002    0.7902 H   0  0  0  0  0  0  0  0  0  0  0  0
  1  8  1  0  0  0  0
  2  1  2  0  0  0  0
  2  9  1  0  0  0  0
  3  4  1  0  0  0  0
  3  5  1  0  0  0  0
  3 11  1  0  0  0  0
  4  1  1  0  0  0  0
  5  2  1  0  0  0  0
  6  4  2  0  0  0  0
  7  5  2  0  0  0  0
 10  3  1  0  0  0  0
M  END
>  <HBA>
2

>  <HBD>
0

>  <TPSA>
34.14

>  <cid>
70258

>  <dipole>
1.63

>  <excitation_energy_1>
2.889

>  <excitation_energy_2>
3.642

>  <excitation_energy_3>
5.055

>  <excitation_energy_4>
5.653

>  <homo_energy>
-6.909

>  <homo_lumo_gap>
4.212

>  <logP>
0.085

>  <lumo_energy>
-2.697

>  <melting_point>
49.25

>  <molecular_refractivity>
23.96

>  <oscillator_strength_1>
0.0

>  <oscillator_strength_2>
0.0

>  <oscillator_strength_3>
0.0

>  <oscillator_strength_4>
0.3157

>  <open_babel_can_smiles>
O=C1C=CC(=O)C1

>  <mulliken_charges>
11
1   -0.145844
2   -0.14611
3   -0.450093
4   0.430354
5   0.430441
6   -0.443368
7   -0.443365
8   0.17401
9   0.174012
10   0.210013
11   0.209949

>  <lowdin_charges>
11
1   -0.147418
2   -0.147434
3   -0.335949
4   0.148204
5   0.148215
6   -0.209689
7   -0.20969
8   0.182321
9   0.182323
10   0.194488
11   0.19463

$$$$

