PCCDB-ID:  69099
public computational chemistry database (PCCDB) project, http://pccdb.org

 18 18  0  0  0  0  0  0  0  0999 V2000
   -1.1847   -0.6813    0.0576 C   0  0  0  0  0  0  0  0  0  0  0  0
    0.0114   -1.3947    0.0489 C   0  0  0  0  0  0  0  0  0  0  0  0
   -1.1882    0.7121    0.0168 C   0  0  0  0  0  0  0  0  0  0  0  0
    1.2341   -0.7074    0.0204 C   0  0  0  0  0  0  0  0  0  0  0  0
    0.0266    1.4099   -0.0362 C   0  0  0  0  0  0  0  0  0  0  0  0
    1.2409    0.7013   -0.0143 C   0  0  0  0  0  0  0  0  0  0  0  0
    2.4636   -1.3733   -0.0062 N   0  0  0  0  0  0  0  0  0  0  0  0
    0.0683    2.8247   -0.0463 N   0  0  0  0  0  0  0  0  0  0  0  0
    2.5067    1.3628    0.0360 N   0  0  0  0  0  0  0  0  0  0  0  0
   -2.1289   -1.2186    0.0915 H   0  0  0  0  0  0  0  0  0  0  0  0
    0.0073   -2.4817    0.0737 H   0  0  0  0  0  0  0  0  0  0  0  0
   -2.1262    1.2624    0.0068 H   0  0  0  0  0  0  0  0  0  0  0  0
    2.4387   -2.2992    0.4050 H   0  0  0  0  0  0  0  0  0  0  0  0
    3.2039   -0.8008    0.3920 H   0  0  0  0  0  0  0  0  0  0  0  0
   -0.8525    3.2341   -0.1659 H   0  0  0  0  0  0  0  0  0  0  0  0
    0.6879    3.1912   -0.7644 H   0  0  0  0  0  0  0  0  0  0  0  0
    2.9919    1.3721   -0.8598 H   0  0  0  0  0  0  0  0  0  0  0  0
    2.4125    2.3159    0.3754 H   0  0  0  0  0  0  0  0  0  0  0  0
  1 10  1  0  0  0  0
  2  1  1  0  0  0  0
  2 11  1  0  0  0  0
  3  1  2  0  0  0  0
  4  2  2  0  0  0  0
  5  6  2  0  0  0  0
  5  3  1  0  0  0  0
  6  4  1  0  0  0  0
  6  9  1  0  0  0  0
  7  4  1  0  0  0  0
  7 14  1  0  0  0  0
  7 13  1  0  0  0  0
  8  5  1  0  0  0  0
  9 18  1  0  0  0  0
 12  3  1  0  0  0  0
 15  8  1  0  0  0  0
 16  8  1  0  0  0  0
 17  9  1  0  0  0  0
M  END
>  <HBA>
3

>  <HBD>
3

>  <TPSA>
78.06

>  <cid>
69099

>  <dipole>
1.64

>  <excitation_energy_1>
4.354

>  <excitation_energy_2>
4.466

>  <excitation_energy_3>
4.724

>  <excitation_energy_4>
4.962

>  <homo_energy>
-5.015

>  <homo_lumo_gap>
5.723

>  <logP>
2.177

>  <lumo_energy>
0.708

>  <melting_point>
152.79

>  <molecular_refractivity>
39.66

>  <oscillator_strength_1>
0.0079

>  <oscillator_strength_2>
0.0066

>  <oscillator_strength_3>
0.0069

>  <oscillator_strength_4>
0.0014

>  <open_babel_can_smiles>
Nc1c(N)cccc1N

>  <mulliken_charges>
18
1   -0.143432
2   -0.18966
3   -0.192464
4   0.279921
5   0.255929
6   0.181249
7   -0.798657
8   -0.800093
9   -0.825955
10   0.117548
11   0.107288
12   0.103836
13   0.312128
14   0.33253
15   0.316993
16   0.304177
17   0.317015
18   0.321647

>  <lowdin_charges>
18
1   -0.151141
2   -0.218012
3   -0.226781
4   0.048535
5   0.03404
6   -0.030754
7   -0.49652
8   -0.508492
9   -0.524041
10   0.153747
11   0.147765
12   0.147984
13   0.270031
14   0.280067
15   0.270593
16   0.265766
17   0.268097
18   0.269116

$$$$

