PCCDB-ID:  7002
public computational chemistry database (PCCDB) project, http://pccdb.org

 21 22  0  0  0  0  0  0  0  0999 V2000
    0.9267    0.1439   -0.1704 C   0  0  0  0  0  0  0  0  0  0  0  0
    4.6304   -3.5156    0.2099 C   0  0  0  0  0  0  0  0  0  0  0  0
    3.2240   -3.5454    0.0635 C   0  0  0  0  0  0  0  0  0  0  0  0
    4.5385    1.3441    0.2122 C   0  0  0  0  0  0  0  0  0  0  0  0
    3.1309    1.3180    0.0649 C   0  0  0  0  0  0  0  0  0  0  0  0
    5.2875   -2.3082    0.2812 C   0  0  0  0  0  0  0  0  0  0  0  0
    5.2479    0.1698    0.2834 C   0  0  0  0  0  0  0  0  0  0  0  0
    2.5050   -2.3719   -0.0082 C   0  0  0  0  0  0  0  0  0  0  0  0
    2.4287    0.1316   -0.0114 C   0  0  0  0  0  0  0  0  0  0  0  0
    4.5766   -1.0805    0.2106 C   0  0  0  0  0  0  0  0  0  0  0  0
    3.1495   -1.1061    0.0618 C   0  0  0  0  0  0  0  0  0  0  0  0
    0.5498    1.1702   -0.2090 H   0  0  0  0  0  0  0  0  0  0  0  0
    0.4239   -0.3643    0.6623 H   0  0  0  0  0  0  0  0  0  0  0  0
    0.6106   -0.3619   -1.0916 H   0  0  0  0  0  0  0  0  0  0  0  0
    5.1884   -4.4465    0.2648 H   0  0  0  0  0  0  0  0  0  0  0  0
    2.7085   -4.5006    0.0078 H   0  0  0  0  0  0  0  0  0  0  0  0
    5.0522    2.3001    0.2681 H   0  0  0  0  0  0  0  0  0  0  0  0
    2.5885    2.2590    0.0097 H   0  0  0  0  0  0  0  0  0  0  0  0
    6.3689   -2.2761    0.3941 H   0  0  0  0  0  0  0  0  0  0  0  0
    6.3295    0.1792    0.3958 H   0  0  0  0  0  0  0  0  0  0  0  0
    1.4263   -2.4135   -0.1205 H   0  0  0  0  0  0  0  0  0  0  0  0
  1  9  1  0  0  0  0
  1 13  1  0  0  0  0
  2 15  1  0  0  0  0
  2  6  2  0  0  0  0
  3  2  1  0  0  0  0
  4 17  1  0  0  0  0
  4  7  1  0  0  0  0
  5  4  2  0  0  0  0
  6 19  1  0  0  0  0
  7 20  1  0  0  0  0
  8 11  1  0  0  0  0
  8  3  2  0  0  0  0
  9 11  2  0  0  0  0
  9  5  1  0  0  0  0
 10  6  1  0  0  0  0
 10  7  2  0  0  0  0
 11 10  1  0  0  0  0
 12  1  1  0  0  0  0
 14  1  1  0  0  0  0
 16  3  1  0  0  0  0
 18  5  1  0  0  0  0
 21  8  1  0  0  0  0
M  END
>  <HBA>
0

>  <HBD>
0

>  <TPSA>
0.0

>  <cid>
7002

>  <dipole>
0.3

>  <excitation_energy_1>
4.276

>  <excitation_energy_2>
4.41

>  <excitation_energy_3>
5.383

>  <excitation_energy_4>
5.525

>  <homo_energy>
-5.674

>  <homo_lumo_gap>
4.751

>  <logP>
3.148

>  <lumo_energy>
-0.922

>  <melting_point>
52.49

>  <molecular_refractivity>
48.91

>  <oscillator_strength_1>
0.0843

>  <oscillator_strength_2>
0.0003

>  <oscillator_strength_3>
0.0014

>  <oscillator_strength_4>
0.0347

>  <open_babel_can_smiles>
Cc1cccc2c1cccc2

>  <mulliken_charges>
21
1   -0.535093
2   -0.133797
3   -0.132497
4   -0.128347
5   -0.202995
6   -0.194283
7   -0.194502
8   -0.197785
9   0.135583
10   0.139576
11   0.075588
12   0.155851
13   0.162454
14   0.162467
15   0.128537
16   0.127672
17   0.127713
18   0.120595
19   0.128384
20   0.126892
21   0.127984

>  <lowdin_charges>
21
1   -0.443838
2   -0.160358
3   -0.158047
4   -0.158521
5   -0.171782
6   -0.153449
7   -0.158889
8   -0.159892
9   0.001072
10   0.00136
11   -0.009652
12   0.157358
13   0.160557
14   0.159928
15   0.158139
16   0.157435
17   0.157738
18   0.154395
19   0.154757
20   0.154423
21   0.157264

$$$$

