PCCDB-ID:  56302
public computational chemistry database (PCCDB) project, http://pccdb.org

 30 31  0  0  1  0  0  0  0  0999 V2000
    1.4587   -1.9747    0.3571 C   0  0  0  0  0  0  0  0  0  0  0  0
    4.2042   -1.3952   -3.7167 C   0  0  0  0  0  0  0  0  0  0  0  0
    4.7799    2.2526    4.4015 C   0  0  0  0  0  0  0  0  0  0  0  0
    3.9387   -0.9773   -2.4166 C   0  0  0  0  0  0  0  0  0  0  0  0
    5.3533    1.6117    3.3069 C   0  0  0  0  0  0  0  0  0  0  0  0
    3.6594   -2.5983   -4.1639 C   0  0  0  0  0  0  0  0  0  0  0  0
    3.4385    2.6271    4.3213 C   0  0  0  0  0  0  0  0  0  0  0  0
    2.6282   -2.9622   -2.1602 C   0  0  0  0  0  0  0  0  0  0  0  0
    3.2276    1.7854    2.2036 C   0  0  0  0  0  0  0  0  0  0  0  0
    2.7562   -1.4232   -0.1919 C   0  0  0  0  0  0  0  0  0  0  0  0
    3.1278   -1.7749   -1.5883 C   0  0  0  0  0  0  0  0  0  0  0  0
    4.5673    1.3585    2.1731 C   0  0  0  0  0  0  0  0  0  0  0  0
    5.1611    0.6809    0.9934 C   0  0  2  0  0  0  0  0  0  0  0  0
    2.8813   -3.3785   -3.4037 N   0  0  0  0  0  0  0  0  0  0  0  0
    2.6716    2.4083    3.2448 N   0  0  0  0  0  0  0  0  0  0  0  0
    3.4137   -0.6882    0.6491 N   0  0  0  0  0  0  0  0  0  0  0  0
    4.6548   -0.2260    0.2354 N   0  0  0  0  0  0  0  0  0  0  0  0
    6.4407    1.0360    0.6846 O   0  0  0  0  0  0  0  0  0  0  0  0
    1.5114   -3.0619    0.4961 H   0  0  0  0  0  0  0  0  0  0  0  0
    0.6184   -1.7752   -0.3180 H   0  0  0  0  0  0  0  0  0  0  0  0
    1.2618   -1.5198    1.3295 H   0  0  0  0  0  0  0  0  0  0  0  0
    4.8236   -0.7942   -4.3760 H   0  0  0  0  0  0  0  0  0  0  0  0
    5.3568    2.4522    5.2993 H   0  0  0  0  0  0  0  0  0  0  0  0
    4.3500   -0.0508   -2.0412 H   0  0  0  0  0  0  0  0  0  0  0  0
    6.3888    1.2817    3.3413 H   0  0  0  0  0  0  0  0  0  0  0  0
    3.8486   -2.9514   -5.1765 H   0  0  0  0  0  0  0  0  0  0  0  0
    2.9543    3.1265    5.1588 H   0  0  0  0  0  0  0  0  0  0  0  0
    1.9945   -3.6243   -1.5754 H   0  0  0  0  0  0  0  0  0  0  0  0
    2.5896    1.6208    1.3419 H   0  0  0  0  0  0  0  0  0  0  0  0
    6.6468    1.8715    1.1325 H   0  0  0  0  0  0  0  0  0  0  0  0
  1 19  1  0  0  0  0
  1 21  1  0  0  0  0
  2  4  1  0  0  0  0
  3 23  1  0  0  0  0
  4 24  1  0  0  0  0
  4 11  2  0  0  0  0
  5 25  1  0  0  0  0
  5  3  2  0  0  0  0
  6  2  2  0  0  0  0
  6 14  1  0  0  0  0
  7  3  1  0  0  0  0
  7 27  1  0  0  0  0
  8 11  1  0  0  0  0
  8 28  1  0  0  0  0
  9 15  1  0  0  0  0
 10  1  1  0  0  0  0
 10 16  2  0  0  0  0
 11 10  1  0  0  0  0
 12  9  2  0  0  0  0
 12  5  1  0  0  0  0
 13 17  1  1  0  0  0
 13 12  1  0  0  0  0
 14  8  2  0  0  0  0
 15  7  2  0  0  0  0
 17 16  1  0  0  0  0
 18 13  1  0  0  0  0
 18 30  1  0  0  0  0
 20  1  1  0  0  0  0
 22  2  1  0  0  0  0
 26  6  1  0  0  0  0
 29  9  1  0  0  0  0
M  RAD  2  13   2  17   2
M  END
>  <HBA>
5

>  <HBD>
1

>  <TPSA>
67.24

>  <cid>
56302

>  <dipole>
4.36

>  <excitation_energy_1>
3.324

>  <excitation_energy_2>
3.926

>  <excitation_energy_3>
4.116

>  <excitation_energy_4>
4.381

>  <homo_energy>
-6.071

>  <homo_lumo_gap>
4.321

>  <logP>
2.022

>  <lumo_energy>
-1.75

>  <melting_point>
143.99

>  <molecular_refractivity>
68.01

>  <oscillator_strength_1>
0.0028

>  <oscillator_strength_2>
0.3662

>  <oscillator_strength_3>
0.0535

>  <oscillator_strength_4>
0.0501

>  <open_babel_can_smiles>
O[C](c1cccnc1)[N]/N=C(\c1cccnc1)/C

>  <mulliken_charges>
30
1   -0.517523
2   -0.150503
3   -0.141987
4   -0.111069
5   -0.158305
6   0.044571
7   0.048328
8   -0.005375
9   0.047131
10   0.250302
11   0.113213
12   0.06376
13   0.446047
14   -0.415651
15   -0.413622
16   -0.336171
17   -0.327936
18   -0.579806
19   0.1689
20   0.164504
21   0.1798
22   0.139099
23   0.147814
24   0.171856
25   0.15854
26   0.143053
27   0.152066
28   0.141503
29   0.166823
30   0.410636

>  <lowdin_charges>
30
1   -0.446599
2   -0.17936
3   -0.17407
4   -0.113274
5   -0.135723
6   -0.081702
7   -0.077487
8   -0.091344
9   -0.067541
10   0.050208
11   -0.041022
12   -0.056913
13   0.127745
14   -0.14955
15   -0.141885
16   -0.123364
17   -0.137789
18   -0.352929
19   0.162636
20   0.162838
21   0.172555
22   0.166594
23   0.169789
24   0.180091
25   0.167047
26   0.15622
27   0.162914
28   0.160526
29   0.172485
30   0.358901

$$$$

