PCCDB-ID:  21458
public computational chemistry database (PCCDB) project, http://pccdb.org

 17 16  0  0  0  0  0  0  0  0999 V2000
    0.9604   -0.0342    0.2154 C   0  0  0  0  0  0  0  0  0  0  0  0
    2.8680   -1.1781   -1.0099 C   0  0  0  0  0  0  0  0  0  0  0  0
    3.8200    2.1089    0.0197 C   0  0  0  0  0  0  0  0  0  0  0  0
    2.9393    1.2813   -0.5645 C   0  0  0  0  0  0  0  0  0  0  0  0
    4.1921    3.3887   -0.5990 C   0  0  0  0  0  0  0  0  0  0  0  0
    2.4818   -0.0485   -0.0342 C   0  0  0  0  0  0  0  0  0  0  0  0
    4.9798    4.1841   -0.1212 O   0  0  0  0  0  0  0  0  0  0  0  0
    0.6286   -1.0011    0.6108 H   0  0  0  0  0  0  0  0  0  0  0  0
    0.4108    0.1530   -0.7156 H   0  0  0  0  0  0  0  0  0  0  0  0
    0.6816    0.7433    0.9343 H   0  0  0  0  0  0  0  0  0  0  0  0
    2.5413   -2.1488   -0.6197 H   0  0  0  0  0  0  0  0  0  0  0  0
    3.9513   -1.2183   -1.1646 H   0  0  0  0  0  0  0  0  0  0  0  0
    2.3918   -1.0331   -1.9876 H   0  0  0  0  0  0  0  0  0  0  0  0
    4.2926    1.8697    0.9708 H   0  0  0  0  0  0  0  0  0  0  0  0
    2.5023    1.5833   -1.5209 H   0  0  0  0  0  0  0  0  0  0  0  0
    3.6896    3.5962   -1.5722 H   0  0  0  0  0  0  0  0  0  0  0  0
    2.9877   -0.2304    0.9234 H   0  0  0  0  0  0  0  0  0  0  0  0
  1  8  1  0  0  0  0
  1 10  1  0  0  0  0
  2 11  1  0  0  0  0
  2  6  1  0  0  0  0
  3 14  1  0  0  0  0
  4  6  1  0  0  0  0
  4  3  2  0  0  0  0
  5  7  2  0  0  0  0
  5  3  1  0  0  0  0
  6  1  1  0  0  0  0
  6 17  1  0  0  0  0
  9  1  1  0  0  0  0
 12  2  1  0  0  0  0
 13  2  1  0  0  0  0
 15  4  1  0  0  0  0
 16  5  1  0  0  0  0
M  END
>  <HBA>
1

>  <HBD>
0

>  <TPSA>
17.07

>  <cid>
21458

>  <dipole>
4.02

>  <excitation_energy_1>
3.713

>  <excitation_energy_2>
5.879

>  <excitation_energy_3>
6.526

>  <excitation_energy_4>
6.552

>  <homo_energy>
-6.729

>  <homo_lumo_gap>
5.26

>  <logP>
1.397

>  <lumo_energy>
-1.469

>  <melting_point>
14.95

>  <molecular_refractivity>
30.68

>  <oscillator_strength_1>
0.0003

>  <oscillator_strength_2>
0.5556

>  <oscillator_strength_3>
0.0275

>  <oscillator_strength_4>
0.0

>  <open_babel_can_smiles>
O=C/C=C/C(C)C

>  <mulliken_charges>
17
1   -0.44511
2   -0.444957
3   -0.157913
4   -0.069458
5   0.230328
6   -0.126561
7   -0.416436
8   0.15164
9   0.14598
10   0.156904
11   0.15166
12   0.156944
13   0.145996
14   0.146432
15   0.137278
16   0.095937
17   0.141338

>  <lowdin_charges>
17
1   -0.441942
2   -0.438355
3   -0.206749
4   -0.102617
5   0.042227
6   -0.119203
7   -0.231839
8   0.154549
9   0.149887
10   0.157065
11   0.154376
12   0.154462
13   0.149357
14   0.165989
15   0.154498
16   0.110946
17   0.147349

$$$$

