PCCDB-ID:  56837
public computational chemistry database (PCCDB) project, http://pccdb.org

 32 32  0  0  0  0  0  0  0  0999 V2000
    5.5186    1.2275   -4.1525 C   0  0  0  0  0  0  0  0  0  0  0  0
    8.0758    7.7185    6.8263 C   0  0  0  0  0  0  0  0  0  0  0  0
    5.7205    0.8537   -2.6806 C   0  0  0  0  0  0  0  0  0  0  0  0
    5.6734    2.0640   -1.7388 C   0  0  0  0  0  0  0  0  0  0  0  0
    5.8627    1.6911   -0.2630 C   0  0  0  0  0  0  0  0  0  0  0  0
    5.8262    2.9042    0.6661 C   0  0  0  0  0  0  0  0  0  0  0  0
    8.1542    5.9538    4.8823 C   0  0  0  0  0  0  0  0  0  0  0  0
    7.5804    6.6763    5.8848 C   0  0  0  0  0  0  0  0  0  0  0  0
    7.0945    5.1364    4.4044 C   0  0  0  0  0  0  0  0  0  0  0  0
    7.1821    4.1340    3.2976 C   0  0  0  0  0  0  0  0  0  0  0  0
    5.9525    2.4590    2.0695 N   0  0  0  0  0  0  0  0  0  0  0  0
    6.0001    3.5506    2.9582 N   0  0  0  0  0  0  0  0  0  0  0  0
    5.9737    5.3431    5.0634 N   0  0  0  0  0  0  0  0  0  0  0  0
    8.2535    3.8670    2.7593 O   0  0  0  0  0  0  0  0  0  0  0  0
    6.2753    6.3207    6.0046 O   0  0  0  0  0  0  0  0  0  0  0  0
    5.5620    0.3438   -4.7993 H   0  0  0  0  0  0  0  0  0  0  0  0
    6.2910    1.9280   -4.4933 H   0  0  0  0  0  0  0  0  0  0  0  0
    4.5449    1.7078   -4.3095 H   0  0  0  0  0  0  0  0  0  0  0  0
    9.1243    7.9439    6.6181 H   0  0  0  0  0  0  0  0  0  0  0  0
    7.9911    7.3804    7.8654 H   0  0  0  0  0  0  0  0  0  0  0  0
    7.4935    8.6417    6.7302 H   0  0  0  0  0  0  0  0  0  0  0  0
    6.6853    0.3408   -2.5612 H   0  0  0  0  0  0  0  0  0  0  0  0
    4.9515    0.1295   -2.3769 H   0  0  0  0  0  0  0  0  0  0  0  0
    4.7109    2.5819   -1.8633 H   0  0  0  0  0  0  0  0  0  0  0  0
    6.4484    2.7852   -2.0370 H   0  0  0  0  0  0  0  0  0  0  0  0
    6.8252    1.1711   -0.1421 H   0  0  0  0  0  0  0  0  0  0  0  0
    5.0848    0.9822    0.0499 H   0  0  0  0  0  0  0  0  0  0  0  0
    4.8639    3.4214    0.5727 H   0  0  0  0  0  0  0  0  0  0  0  0
    6.6163    3.6207    0.3953 H   0  0  0  0  0  0  0  0  0  0  0  0
    9.1697    5.9799    4.5202 H   0  0  0  0  0  0  0  0  0  0  0  0
    6.8523    1.9850    2.1694 H   0  0  0  0  0  0  0  0  0  0  0  0
    5.1926    3.6753    3.5565 H   0  0  0  0  0  0  0  0  0  0  0  0
  1  3  1  0  0  0  0
  2 20  1  0  0  0  0
  3 22  1  0  0  0  0
  3 23  1  0  0  0  0
  3  4  1  0  0  0  0
  4  5  1  0  0  0  0
  5 26  1  0  0  0  0
  5 27  1  0  0  0  0
  5  6  1  0  0  0  0
  6 11  1  0  0  0  0
  7  8  2  0  0  0  0
  8 15  1  0  0  0  0
  8  2  1  0  0  0  0
  9  7  1  0  0  0  0
  9 13  2  0  0  0  0
 10  9  1  0  0  0  0
 11 31  1  0  0  0  0
 11 12  1  0  0  0  0
 12 10  1  0  0  0  0
 12 32  1  0  0  0  0
 13 15  1  0  0  0  0
 14 10  2  0  0  0  0
 16  1  1  0  0  0  0
 17  1  1  0  0  0  0
 18  1  1  0  0  0  0
 19  2  1  0  0  0  0
 21  2  1  0  0  0  0
 24  4  1  0  0  0  0
 25  4  1  0  0  0  0
 28  6  1  0  0  0  0
 29  6  1  0  0  0  0
 30  7  1  0  0  0  0
M  END
>  <HBA>
5

>  <HBD>
2

>  <TPSA>
67.16

>  <cid>
56837

>  <dipole>
1.88

>  <excitation_energy_1>
4.462

>  <excitation_energy_2>
4.776

>  <excitation_energy_3>
5.422

>  <excitation_energy_4>
5.688

>  <homo_energy>
-6.378

>  <homo_lumo_gap>
5.211

>  <logP>
2.189

>  <lumo_energy>
-1.167

>  <melting_point>
109.49

>  <molecular_refractivity>
56.49

>  <oscillator_strength_1>
0.0303

>  <oscillator_strength_2>
0.011

>  <oscillator_strength_3>
0.0679

>  <oscillator_strength_4>
0.0153

>  <open_babel_can_smiles>
CCCCCNNC(=O)c1noc(c1)C

>  <mulliken_charges>
32
1   -0.442278
2   -0.528717
3   -0.246726
4   -0.249675
5   -0.274402
6   -0.108828
7   -0.28004
8   0.418151
9   0.270254
10   0.587534
11   -0.430514
12   -0.496867
13   -0.252362
14   -0.533916
15   -0.361027
16   0.142735
17   0.142359
18   0.141716
19   0.179189
20   0.187828
21   0.187444
22   0.132264
23   0.132073
24   0.129694
25   0.132444
26   0.133253
27   0.14653
28   0.142942
29   0.145706
30   0.17131
31   0.321466
32   0.36046

>  <lowdin_charges>
32
1   -0.445624
2   -0.439481
3   -0.272052
4   -0.273497
5   -0.28082
6   -0.206301
7   -0.224129
8   0.101158
9   -0.008239
10   0.146576
11   -0.280096
12   -0.2072
13   -0.087774
14   -0.309528
15   -0.067132
16   0.150272
17   0.147732
18   0.146181
19   0.174565
20   0.176706
21   0.177757
22   0.139619
23   0.140682
24   0.138685
25   0.140957
26   0.140435
27   0.148706
28   0.143304
29   0.138191
30   0.189496
31   0.262688
32   0.298164

$$$$

