PCCDB-ID:  7798
public computational chemistry database (PCCDB) project, http://pccdb.org

 25 24  0  0  0  0  0  0  0  0999 V2000
    2.1688    1.8915    2.4906 C   0  0  0  0  0  0  0  0  0  0  0  0
   10.6445   -0.5847    0.9718 C   0  0  0  0  0  0  0  0  0  0  0  0
    3.3164    0.8830    2.5935 C   0  0  0  0  0  0  0  0  0  0  0  0
    9.4217   -1.0171    1.7859 C   0  0  0  0  0  0  0  0  0  0  0  0
    3.3905   -0.0382    1.3584 C   0  0  0  0  0  0  0  0  0  0  0  0
    8.1067   -0.5771    1.1385 C   0  0  0  0  0  0  0  0  0  0  0  0
    4.4972   -1.0604    1.4640 C   0  0  0  0  0  0  0  0  0  0  0  0
    6.8861   -1.0069    1.9186 C   0  0  0  0  0  0  0  0  0  0  0  0
    4.3706   -2.2479    1.5767 O   0  0  0  0  0  0  0  0  0  0  0  0
    6.8649   -1.6975    2.8989 O   0  0  0  0  0  0  0  0  0  0  0  0
    5.7406   -0.4308    1.3636 O   0  0  0  0  0  0  0  0  0  0  0  0
    2.1302    2.5321    3.3783 H   0  0  0  0  0  0  0  0  0  0  0  0
    1.2005    1.3848    2.4020 H   0  0  0  0  0  0  0  0  0  0  0  0
    2.2869    2.5405    1.6143 H   0  0  0  0  0  0  0  0  0  0  0  0
   11.5719   -0.9123    1.4536 H   0  0  0  0  0  0  0  0  0  0  0  0
   10.6911    0.5063    0.8665 H   0  0  0  0  0  0  0  0  0  0  0  0
   10.6251   -1.0141   -0.0375 H   0  0  0  0  0  0  0  0  0  0  0  0
    3.1906    0.2679    3.4934 H   0  0  0  0  0  0  0  0  0  0  0  0
    4.2707    1.4110    2.7038 H   0  0  0  0  0  0  0  0  0  0  0  0
    9.4785   -0.6033    2.7998 H   0  0  0  0  0  0  0  0  0  0  0  0
    9.4130   -2.1064    1.9056 H   0  0  0  0  0  0  0  0  0  0  0  0
    3.5593    0.5701    0.4606 H   0  0  0  0  0  0  0  0  0  0  0  0
    2.4541   -0.5886    1.2297 H   0  0  0  0  0  0  0  0  0  0  0  0
    8.0064   -0.9915    0.1248 H   0  0  0  0  0  0  0  0  0  0  0  0
    8.0645    0.5130    1.0115 H   0  0  0  0  0  0  0  0  0  0  0  0
  1  3  1  0  0  0  0
  1 12  1  0  0  0  0
  2 15  1  0  0  0  0
  2  4  1  0  0  0  0
  3 19  1  0  0  0  0
  3 18  1  0  0  0  0
  4 21  1  0  0  0  0
  4 20  1  0  0  0  0
  5  7  1  0  0  0  0
  5  3  1  0  0  0  0
  6  4  1  0  0  0  0
  6  8  1  0  0  0  0
  7  9  2  0  0  0  0
  8 10  2  0  0  0  0
 11  7  1  0  0  0  0
 11  8  1  0  0  0  0
 13  1  1  0  0  0  0
 14  1  1  0  0  0  0
 16  2  1  0  0  0  0
 17  2  1  0  0  0  0
 22  5  1  0  0  0  0
 23  5  1  0  0  0  0
 24  6  1  0  0  0  0
 25  6  1  0  0  0  0
M  END
>  <HBA>
3

>  <HBD>
0

>  <TPSA>
43.37

>  <cid>
7798

>  <dipole>
3.69

>  <excitation_energy_1>
5.02

>  <excitation_energy_2>
5.533

>  <excitation_energy_3>
6.492

>  <excitation_energy_4>
6.873

>  <homo_energy>
-7.309

>  <homo_lumo_gap>
6.637

>  <logP>
1.656

>  <lumo_energy>
-0.672

>  <melting_point>
5.94

>  <molecular_refractivity>
42.05

>  <oscillator_strength_1>
0.0034

>  <oscillator_strength_2>
0.0001

>  <oscillator_strength_3>
0.0006

>  <oscillator_strength_4>
0.0076

>  <open_babel_can_smiles>
CCCC(=O)OC(=O)CCC

>  <mulliken_charges>
25
1   -0.443402
2   -0.44825
3   -0.264927
4   -0.24785
5   -0.334816
6   -0.358933
7   0.60383
8   0.622513
9   -0.414344
10   -0.415043
11   -0.496988
12   0.152615
13   0.150102
14   0.146178
15   0.15181
16   0.143026
17   0.144608
18   0.157745
19   0.154274
20   0.152116
21   0.159744
22   0.165534
23   0.170627
24   0.176989
25   0.172842

>  <lowdin_charges>
25
1   -0.443297
2   -0.441892
3   -0.26801
4   -0.266098
5   -0.29512
6   -0.298739
7   0.218029
8   0.219391
9   -0.204955
10   -0.202759
11   -0.200048
12   0.15594
13   0.150525
14   0.149272
15   0.155197
16   0.145207
17   0.147218
18   0.152652
19   0.150519
20   0.150971
21   0.153589
22   0.166751
23   0.16736
24   0.170978
25   0.167319

$$$$

