PCCDB-ID:  69184
public computational chemistry database (PCCDB) project, http://pccdb.org

 18 18  0  0  0  0  0  0  0  0999 V2000
    0.9341   -0.1103    0.0872 C   0  0  0  0  0  0  0  0  0  0  0  0
    3.1770    1.0796   -0.0294 C   0  0  0  0  0  0  0  0  0  0  0  0
    4.5663    1.0793   -0.1246 C   0  0  0  0  0  0  0  0  0  0  0  0
    3.1594   -1.3000   -0.1728 C   0  0  0  0  0  0  0  0  0  0  0  0
    5.1943   -2.6696   -0.4013 C   0  0  0  0  0  0  0  0  0  0  0  0
    2.4394   -0.1121   -0.0468 C   0  0  0  0  0  0  0  0  0  0  0  0
    4.5589   -1.3407   -0.2708 C   0  0  0  0  0  0  0  0  0  0  0  0
    5.2748   -0.1216   -0.2445 C   0  0  0  0  0  0  0  0  0  0  0  0
    6.3812   -2.9102   -0.4918 O   0  0  0  0  0  0  0  0  0  0  0  0
    6.6271   -0.1478   -0.3423 O   0  0  0  0  0  0  0  0  0  0  0  0
    0.5059    0.8449   -0.2344 H   0  0  0  0  0  0  0  0  0  0  0  0
    0.6218   -0.2732    1.1274 H   0  0  0  0  0  0  0  0  0  0  0  0
    0.4766   -0.9020   -0.5159 H   0  0  0  0  0  0  0  0  0  0  0  0
    2.6564    2.0304    0.0599 H   0  0  0  0  0  0  0  0  0  0  0  0
    5.1114    2.0218   -0.1110 H   0  0  0  0  0  0  0  0  0  0  0  0
    2.6238   -2.2481   -0.1980 H   0  0  0  0  0  0  0  0  0  0  0  0
    4.4491   -3.4999   -0.4108 H   0  0  0  0  0  0  0  0  0  0  0  0
    6.9574    0.7646   -0.3126 H   0  0  0  0  0  0  0  0  0  0  0  0
  1 12  1  0  0  0  0
  2 14  1  0  0  0  0
  3 15  1  0  0  0  0
  3  2  2  0  0  0  0
  4  6  2  0  0  0  0
  5  7  1  0  0  0  0
  6  2  1  0  0  0  0
  6  1  1  0  0  0  0
  7  8  2  0  0  0  0
  7  4  1  0  0  0  0
  8  3  1  0  0  0  0
  9  5  2  0  0  0  0
 10 18  1  0  0  0  0
 10  8  1  0  0  0  0
 11  1  1  0  0  0  0
 13  1  1  0  0  0  0
 16  4  1  0  0  0  0
 17  5  1  0  0  0  0
M  END
>  <HBA>
2

>  <HBD>
1

>  <TPSA>
37.3

>  <cid>
69184

>  <dipole>
4.46

>  <excitation_energy_1>
3.598

>  <excitation_energy_2>
4.143

>  <excitation_energy_3>
5.196

>  <excitation_energy_4>
5.362

>  <homo_energy>
-6.199

>  <homo_lumo_gap>
4.762

>  <logP>
1.513

>  <lumo_energy>
-1.437

>  <melting_point>
82.9

>  <molecular_refractivity>
38.82

>  <oscillator_strength_1>
0.0001

>  <oscillator_strength_2>
0.0704

>  <oscillator_strength_3>
0.0695

>  <oscillator_strength_4>
0.0001

>  <open_babel_can_smiles>
O=Cc1cc(C)ccc1O

>  <mulliken_charges>
18
1   -0.530426
2   -0.178371
3   -0.18674
4   -0.261399
5   0.192265
6   0.181735
7   0.096319
8   0.303665
9   -0.39846
10   -0.602471
11   0.157305
12   0.167888
13   0.161347
14   0.133558
15   0.124943
16   0.135472
17   0.093997
18   0.409373

>  <lowdin_charges>
18
1   -0.441535
2   -0.136709
3   -0.212779
4   -0.141127
5   0.038087
6   -0.019934
7   -0.080055
8   0.123163
9   -0.218257
10   -0.340641
11   0.158396
12   0.161271
13   0.161481
14   0.16052
15   0.156775
16   0.15973
17   0.113858
18   0.357758

$$$$

