PCCDB-ID:  7966
public computational chemistry database (PCCDB) project, http://pccdb.org

 19 19  0  0  0  0  0  0  0  0999 V2000
    0.7406    1.2874   -0.2542 C   0  0  0  0  0  0  0  0  0  0  0  0
    1.4777    0.0226    0.2151 C   0  0  0  0  0  0  0  0  0  0  0  0
   -0.7210    1.2937    0.2229 C   0  0  0  0  0  0  0  0  0  0  0  0
    0.7369   -1.2538   -0.2189 C   0  0  0  0  0  0  0  0  0  0  0  0
   -1.4604    0.0158   -0.2096 C   0  0  0  0  0  0  0  0  0  0  0  0
   -0.7305   -1.2602    0.2470 C   0  0  0  0  0  0  0  0  0  0  0  0
   -0.8340   -1.4503    1.6627 O   0  0  0  0  0  0  0  0  0  0  0  0
    0.7589    1.3252   -1.3536 H   0  0  0  0  0  0  0  0  0  0  0  0
    1.2616    2.1867    0.0981 H   0  0  0  0  0  0  0  0  0  0  0  0
    1.5729    0.0412    1.3120 H   0  0  0  0  0  0  0  0  0  0  0  0
    2.5040    0.0107   -0.1717 H   0  0  0  0  0  0  0  0  0  0  0  0
   -1.2455    2.1783   -0.1584 H   0  0  0  0  0  0  0  0  0  0  0  0
   -0.7463    1.3817    1.3204 H   0  0  0  0  0  0  0  0  0  0  0  0
    1.2391   -2.1465    0.1718 H   0  0  0  0  0  0  0  0  0  0  0  0
    0.7571   -1.3249   -1.3160 H   0  0  0  0  0  0  0  0  0  0  0  0
   -1.5410    0.0008   -1.3062 H   0  0  0  0  0  0  0  0  0  0  0  0
   -2.4816    0.0046    0.1890 H   0  0  0  0  0  0  0  0  0  0  0  0
   -1.2383   -2.1357   -0.1727 H   0  0  0  0  0  0  0  0  0  0  0  0
   -0.3936   -0.7024    2.0948 H   0  0  0  0  0  0  0  0  0  0  0  0
  1  9  1  0  0  0  0
  1  2  1  0  0  0  0
  1  3  1  0  0  0  0
  2 10  1  0  0  0  0
  3 13  1  0  0  0  0
  4 14  1  0  0  0  0
  4  2  1  0  0  0  0
  4  6  1  0  0  0  0
  5 17  1  0  0  0  0
  5  3  1  0  0  0  0
  5  6  1  0  0  0  0
  6  7  1  0  0  0  0
  7 19  1  0  0  0  0
  8  1  1  0  0  0  0
 11  2  1  0  0  0  0
 12  3  1  0  0  0  0
 15  4  1  0  0  0  0
 16  5  1  0  0  0  0
 18  6  1  0  0  0  0
M  END
>  <HBA>
1

>  <HBD>
1

>  <TPSA>
20.23

>  <cid>
7966

>  <dipole>
1.8

>  <excitation_energy_1>
6.353

>  <excitation_energy_2>
6.799

>  <excitation_energy_3>
7.246

>  <excitation_energy_4>
7.285

>  <homo_energy>
-6.936

>  <homo_lumo_gap>
8.626

>  <logP>
1.311

>  <lumo_energy>
1.69

>  <melting_point>
14.63

>  <molecular_refractivity>
30.0

>  <oscillator_strength_1>
0.0107

>  <oscillator_strength_2>
0.0004

>  <oscillator_strength_3>
0.0035

>  <oscillator_strength_4>
0.0167

>  <open_babel_can_smiles>
OC1CCCCC1

>  <mulliken_charges>
19
1   -0.253112
2   -0.27618
3   -0.275572
4   -0.269448
5   -0.269609
6   0.136218
7   -0.634469
8   0.130863
9   0.132725
10   0.120054
11   0.138561
12   0.138415
13   0.120139
14   0.143483
15   0.127143
16   0.127117
17   0.143582
18   0.130961
19   0.389127

>  <lowdin_charges>
19
1   -0.277451
2   -0.27957
3   -0.281377
4   -0.29441
5   -0.292619
6   -0.002699
7   -0.471906
8   0.137129
9   0.144712
10   0.129703
11   0.147114
12   0.148721
13   0.129795
14   0.15138
15   0.140401
16   0.140347
17   0.149886
18   0.144664
19   0.336179

$$$$

