PCCDB-ID:  17332
public computational chemistry database (PCCDB) project, http://pccdb.org

 28 27  0  0  0  0  0  0  0  0999 V2000
    1.6439   -0.0769    0.0608 C   0  0  0  0  0  0  0  0  0  0  0  0
    2.1904   -0.5840   -1.2823 C   0  0  0  0  0  0  0  0  0  0  0  0
    2.6298    0.7909    0.8616 C   0  0  0  0  0  0  0  0  0  0  0  0
    1.1880   -1.4741   -2.0294 C   0  0  0  0  0  0  0  0  0  0  0  0
    2.8728    2.1713    0.2336 C   0  0  0  0  0  0  0  0  0  0  0  0
    1.7643   -2.0166   -3.3439 C   0  0  0  0  0  0  0  0  0  0  0  0
    3.7807    3.0319    0.9908 N   0  0  0  0  0  0  0  0  0  0  0  0
    0.8434   -2.8423   -4.1241 N   0  0  0  0  0  0  0  0  0  0  0  0
    5.1325    2.7183    0.9947 N   0  0  0  0  0  0  0  0  0  0  0  0
    0.4862   -4.0848   -3.6244 N   0  0  0  0  0  0  0  0  0  0  0  0
    5.7866    3.1882    1.9227 O   0  0  0  0  0  0  0  0  0  0  0  0
    5.5618    2.0521    0.0560 O   0  0  0  0  0  0  0  0  0  0  0  0
   -0.5535   -4.5629   -4.0732 O   0  0  0  0  0  0  0  0  0  0  0  0
    1.2546   -4.6152   -2.8259 O   0  0  0  0  0  0  0  0  0  0  0  0
    1.3640   -0.9418    0.6759 H   0  0  0  0  0  0  0  0  0  0  0  0
    0.7143    0.4869   -0.1091 H   0  0  0  0  0  0  0  0  0  0  0  0
    3.1160   -1.1486   -1.1026 H   0  0  0  0  0  0  0  0  0  0  0  0
    2.4696    0.2630   -1.9244 H   0  0  0  0  0  0  0  0  0  0  0  0
    3.5903    0.2694    0.9565 H   0  0  0  0  0  0  0  0  0  0  0  0
    2.2405    0.9317    1.8791 H   0  0  0  0  0  0  0  0  0  0  0  0
    0.2718   -0.9040   -2.2411 H   0  0  0  0  0  0  0  0  0  0  0  0
    0.8992   -2.3207   -1.3949 H   0  0  0  0  0  0  0  0  0  0  0  0
    1.9339    2.7315    0.1559 H   0  0  0  0  0  0  0  0  0  0  0  0
    3.2914    2.0885   -0.7701 H   0  0  0  0  0  0  0  0  0  0  0  0
    2.6544   -2.6212   -3.1580 H   0  0  0  0  0  0  0  0  0  0  0  0
    2.0556   -1.1979   -4.0114 H   0  0  0  0  0  0  0  0  0  0  0  0
    3.5206    3.3039    1.9332 H   0  0  0  0  0  0  0  0  0  0  0  0
    0.0143   -2.4115   -4.5192 H   0  0  0  0  0  0  0  0  0  0  0  0
  1 15  1  0  0  0  0
  1  3  1  0  0  0  0
  2 17  1  0  0  0  0
  2  1  1  0  0  0  0
  3 19  1  0  0  0  0
  3 20  1  0  0  0  0
  4 22  1  0  0  0  0
  4  2  1  0  0  0  0
  5  3  1  0  0  0  0
  5  7  1  0  0  0  0
  6 25  1  0  0  0  0
  6  4  1  0  0  0  0
  7  9  1  0  0  0  0
  7 27  1  0  0  0  0
  8 10  1  0  0  0  0
  8  6  1  0  0  0  0
  9 11  2  0  0  0  0
 10 14  2  0  0  0  0
 12  9  2  0  0  0  0
 13 10  2  0  0  0  0
 16  1  1  0  0  0  0
 18  2  1  0  0  0  0
 21  4  1  0  0  0  0
 23  5  1  0  0  0  0
 24  5  1  0  0  0  0
 26  6  1  0  0  0  0
 28  8  1  0  0  0  0
M  END
>  <HBA>
2

>  <HBD>
2

>  <TPSA>
115.7

>  <cid>
17332

>  <dipole>
4.93

>  <excitation_energy_1>
4.583

>  <excitation_energy_2>
4.584

>  <excitation_energy_3>
5.293

>  <excitation_energy_4>
5.297

>  <homo_energy>
-7.832

>  <homo_lumo_gap>
6.425

>  <logP>
1.938

>  <lumo_energy>
-1.407

>  <melting_point>
89.31

>  <molecular_refractivity>
52.77

>  <oscillator_strength_1>
0.0

>  <oscillator_strength_2>
0.0

>  <oscillator_strength_3>
0.0403

>  <oscillator_strength_4>
0.0156

>  <open_babel_can_smiles>
O=N(=O)NCCCCCCNN(=O)=O

>  <mulliken_charges>
28
1   -0.264779
2   -0.265363
3   -0.272041
4   -0.270531
5   -0.15338
6   -0.151824
7   -0.390158
8   -0.38948
9   0.614933
10   0.614841
11   -0.412802
12   -0.412392
13   -0.414947
14   -0.411485
15   0.148654
16   0.132607
17   0.15169
18   0.137864
19   0.164678
20   0.13606
21   0.132219
22   0.16682
23   0.162322
24   0.195953
25   0.196067
26   0.163667
27   0.345632
28   0.345176

>  <lowdin_charges>
28
1   -0.2741
2   -0.27668
3   -0.289482
4   -0.290581
5   -0.212985
6   -0.21161
7   -0.237175
8   -0.239317
9   0.339808
10   0.339482
11   -0.270989
12   -0.27039
13   -0.271906
14   -0.269809
15   0.152752
16   0.14027
17   0.149952
18   0.141784
19   0.1563
20   0.144474
21   0.140755
22   0.157853
23   0.160109
24   0.172557
25   0.175343
26   0.16232
27   0.289788
28   0.291477

$$$$

