PCCDB-ID:  12150
public computational chemistry database (PCCDB) project, http://pccdb.org

 20 20  0  0  0  0  0  0  0  0999 V2000
    1.9852    1.0933    1.1174 C   0  0  0  0  0  0  0  0  0  0  0  0
    3.4010    1.4847    1.5047 C   0  0  0  0  0  0  0  0  0  0  0  0
    7.5796    1.6187    2.2760 C   0  0  0  0  0  0  0  0  0  0  0  0
    7.7269   -0.6518    1.4734 C   0  0  0  0  0  0  0  0  0  0  0  0
    6.1991    1.6186    2.0409 C   0  0  0  0  0  0  0  0  0  0  0  0
    6.3593   -0.6548    1.2394 C   0  0  0  0  0  0  0  0  0  0  0  0
    8.3476    0.4903    1.9964 C   0  0  0  0  0  0  0  0  0  0  0  0
    5.5808    0.4788    1.5208 C   0  0  0  0  0  0  0  0  0  0  0  0
    9.7032    0.4331    2.2079 O   0  0  0  0  0  0  0  0  0  0  0  0
    4.2419    0.3639    1.2536 O   0  0  0  0  0  0  0  0  0  0  0  0
    1.2995    1.9280    1.2995 H   0  0  0  0  0  0  0  0  0  0  0  0
    1.6494    0.2329    1.7047 H   0  0  0  0  0  0  0  0  0  0  0  0
    1.9351    0.8273    0.0569 H   0  0  0  0  0  0  0  0  0  0  0  0
    3.4519    1.7623    2.5683 H   0  0  0  0  0  0  0  0  0  0  0  0
    3.7420    2.3500    0.9167 H   0  0  0  0  0  0  0  0  0  0  0  0
    8.0511    2.5126    2.6812 H   0  0  0  0  0  0  0  0  0  0  0  0
    8.3323   -1.5261    1.2556 H   0  0  0  0  0  0  0  0  0  0  0  0
    5.6284    2.5112    2.2692 H   0  0  0  0  0  0  0  0  0  0  0  0
    5.8660   -1.5330    0.8345 H   0  0  0  0  0  0  0  0  0  0  0  0
    9.9981    1.2841    2.5663 H   0  0  0  0  0  0  0  0  0  0  0  0
  1 11  1  0  0  0  0
  1  2  1  0  0  0  0
  1 12  1  0  0  0  0
  2 14  1  0  0  0  0
  3 16  1  0  0  0  0
  4  7  1  0  0  0  0
  5 18  1  0  0  0  0
  5  3  1  0  0  0  0
  6  4  2  0  0  0  0
  6  8  1  0  0  0  0
  7  9  1  0  0  0  0
  7  3  2  0  0  0  0
  8  5  2  0  0  0  0
  9 20  1  0  0  0  0
 10  2  1  0  0  0  0
 10  8  1  0  0  0  0
 13  1  1  0  0  0  0
 15  2  1  0  0  0  0
 17  4  1  0  0  0  0
 19  6  1  0  0  0  0
M  END
>  <HBA>
2

>  <HBD>
1

>  <TPSA>
29.46

>  <cid>
12150

>  <dipole>
2.48

>  <excitation_energy_1>
4.622

>  <excitation_energy_2>
4.72

>  <excitation_energy_3>
5.161

>  <excitation_energy_4>
5.587

>  <homo_energy>
-5.325

>  <homo_lumo_gap>
5.363

>  <logP>
1.791

>  <lumo_energy>
0.038

>  <melting_point>
48.73

>  <molecular_refractivity>
39.76

>  <oscillator_strength_1>
0.0599

>  <oscillator_strength_2>
0.0

>  <oscillator_strength_3>
0.0053

>  <oscillator_strength_4>
0.0007

>  <open_babel_can_smiles>
CCOc1ccc(cc1)O

>  <mulliken_charges>
20
1   -0.456131
2   -0.025422
3   -0.204347
4   -0.161143
5   -0.199993
6   -0.180762
7   0.348333
8   0.376427
9   -0.650475
10   -0.522965
11   0.146385
12   0.162976
13   0.162804
14   0.136408
15   0.13654
16   0.116287
17   0.140099
18   0.132484
19   0.138167
20   0.404326

>  <lowdin_charges>
20
1   -0.447377
2   -0.122771
3   -0.208104
4   -0.175689
5   -0.204971
6   -0.170329
7   0.088268
8   0.087257
9   -0.389057
10   -0.209857
11   0.156631
12   0.160328
13   0.158089
14   0.133687
15   0.136142
16   0.152845
17   0.168608
18   0.163093
19   0.167869
20   0.355338

$$$$

