PCCDB-ID:  22360
public computational chemistry database (PCCDB) project, http://pccdb.org

 21 21  0  0  0  0  0  0  0  0999 V2000
   -0.6661    1.3967   -0.1284 C   0  0  0  0  0  0  0  0  0  0  0  0
   -1.3434    0.1917   -0.2788 C   0  0  0  0  0  0  0  0  0  0  0  0
    0.7286    1.4193   -0.0317 C   0  0  0  0  0  0  0  0  0  0  0  0
    0.7759   -1.0066   -0.2398 C   0  0  0  0  0  0  0  0  0  0  0  0
   -3.7968   -4.0414    0.4336 C   0  0  0  0  0  0  0  0  0  0  0  0
   -3.7028   -3.8089   -1.9860 C   0  0  0  0  0  0  0  0  0  0  0  0
   -0.6175   -1.0108   -0.3340 C   0  0  0  0  0  0  0  0  0  0  0  0
   -2.9482   -3.7130   -0.7247 C   0  0  0  0  0  0  0  0  0  0  0  0
    1.4247    0.2145   -0.0889 C   0  0  0  0  0  0  0  0  0  0  0  0
   -4.4364   -4.2940    1.3668 N   0  0  0  0  0  0  0  0  0  0  0  0
   -4.2670   -3.8764   -2.9964 N   0  0  0  0  0  0  0  0  0  0  0  0
   -1.2025   -2.3008   -0.4876 N   0  0  0  0  0  0  0  0  0  0  0  0
   -2.4477   -2.3055   -0.5691 N   0  0  0  0  0  0  0  0  0  0  0  0
    2.8959    0.2313    0.0129 N   0  0  0  0  0  0  0  0  0  0  0  0
    3.4413    1.3250    0.1435 O   0  0  0  0  0  0  0  0  0  0  0  0
    3.4793   -0.8490   -0.0393 O   0  0  0  0  0  0  0  0  0  0  0  0
   -1.2208    2.3287   -0.0857 H   0  0  0  0  0  0  0  0  0  0  0  0
   -2.4245    0.1607   -0.3557 H   0  0  0  0  0  0  0  0  0  0  0  0
    1.2768    2.3461    0.0856 H   0  0  0  0  0  0  0  0  0  0  0  0
    1.3341   -1.9333   -0.2832 H   0  0  0  0  0  0  0  0  0  0  0  0
   -2.0964   -4.4069   -0.7573 H   0  0  0  0  0  0  0  0  0  0  0  0
  1 17  1  0  0  0  0
  1  3  2  0  0  0  0
  2  1  1  0  0  0  0
  3 19  1  0  0  0  0
  4  9  2  0  0  0  0
  5 10  3  0  0  0  0
  6  8  1  0  0  0  0
  7  2  2  0  0  0  0
  7  4  1  0  0  0  0
  8 13  1  0  0  0  0
  8  5  1  0  0  0  0
  9  3  1  0  0  0  0
  9 14  1  0  0  0  0
 11  6  3  0  0  0  0
 12  7  1  0  0  0  0
 13 12  1  0  0  0  0
 14 15  2  0  0  0  0
 16 14  2  0  0  0  0
 18  2  1  0  0  0  0
 20  4  1  0  0  0  0
 21  8  1  0  0  0  0
M  RAD  2  12   2  13   2
M  END
>  <HBA>
4

>  <HBD>
0

>  <TPSA>
118.12

>  <cid>
22360

>  <dipole>
2.59

>  <excitation_energy_1>
3.027

>  <excitation_energy_2>
3.726

>  <excitation_energy_3>
4.119

>  <excitation_energy_4>
4.2

>  <homo_energy>
-7.864

>  <homo_lumo_gap>
4.419

>  <logP>
2.617

>  <lumo_energy>
-3.445

>  <melting_point>
132.49

>  <molecular_refractivity>
54.76

>  <oscillator_strength_1>
0.0002

>  <oscillator_strength_2>
0.0

>  <oscillator_strength_3>
0.0365

>  <oscillator_strength_4>
0.0

>  <open_babel_can_smiles>
N#CC([N][N]c1cccc(c1)N(=O)=O)C#N

>  <mulliken_charges>
21
1   -0.152499
2   -0.098202
3   -0.129803
4   -0.160845
5   0.39493
6   0.394253
7   0.246646
8   -0.105551
9   0.270833
10   -0.428328
11   -0.428675
12   -0.265113
13   -0.159776
14   0.385381
15   -0.384865
16   -0.383366
17   0.168975
18   0.187764
19   0.198466
20   0.203559
21   0.246217

>  <lowdin_charges>
21
1   -0.138526
2   -0.115999
3   -0.115658
4   -0.11878
5   -0.008351
6   -0.008565
7   0.00911
8   -0.060013
9   0.006276
10   -0.067887
11   -0.068008
12   -0.047453
13   -0.073717
14   0.309398
15   -0.235692
16   -0.23474
17   0.17758
18   0.186644
19   0.195813
20   0.201647
21   0.206923

$$$$

