PCCDB-ID:  34696
public computational chemistry database (PCCDB) project, http://pccdb.org

 18 18  0  0  0  0  0  0  0  0999 V2000
    4.9688   -0.3401   -1.7374 C   0  0  0  0  0  0  0  0  0  0  0  0
    4.9188   -1.7901   -2.0730 C   0  0  0  0  0  0  0  0  0  0  0  0
    4.8830    0.4902   -0.6697 C   0  0  0  0  0  0  0  0  0  0  0  0
    5.0034   -3.0050   -1.4785 C   0  0  0  0  0  0  0  0  0  0  0  0
    4.7309    0.2015    0.8123 C   0  0  0  0  0  0  0  0  0  0  0  0
    5.1576   -3.3961   -0.0204 C   0  0  0  0  0  0  0  0  0  0  0  0
    4.4558   -1.2605    0.9477 C   0  0  0  0  0  0  0  0  0  0  0  0
    5.4344   -2.1418    0.7421 C   0  0  0  0  0  0  0  0  0  0  0  0
    5.0786    0.2206   -2.6673 H   0  0  0  0  0  0  0  0  0  0  0  0
    4.8082   -1.8852   -3.1547 H   0  0  0  0  0  0  0  0  0  0  0  0
    4.9435    1.5539   -0.9096 H   0  0  0  0  0  0  0  0  0  0  0  0
    4.9414   -3.8553   -2.1609 H   0  0  0  0  0  0  0  0  0  0  0  0
    3.9419    0.8402    1.2327 H   0  0  0  0  0  0  0  0  0  0  0  0
    5.6641    0.4879    1.3230 H   0  0  0  0  0  0  0  0  0  0  0  0
    5.9466   -4.1547    0.0756 H   0  0  0  0  0  0  0  0  0  0  0  0
    4.2250   -3.8771    0.3149 H   0  0  0  0  0  0  0  0  0  0  0  0
    3.4190   -1.5796    0.8301 H   0  0  0  0  0  0  0  0  0  0  0  0
    6.4711   -1.8033    0.7740 H   0  0  0  0  0  0  0  0  0  0  0  0
  1  3  2  0  0  0  0
  2  1  1  0  0  0  0
  2  4  2  0  0  0  0
  3  5  1  0  0  0  0
  4  6  1  0  0  0  0
  5  7  1  0  0  0  0
  5 13  1  0  0  0  0
  5 14  1  0  0  0  0
  6 15  1  0  0  0  0
  6 16  1  0  0  0  0
  6  8  1  0  0  0  0
  8 18  1  0  0  0  0
  8  7  1  0  0  0  0
  9  1  1  0  0  0  0
 10  2  1  0  0  0  0
 11  3  1  0  0  0  0
 12  4  1  0  0  0  0
 17  7  1  0  0  0  0
M  RAD  2   7   2   8   2
M  END
>  <HBA>
0

>  <HBD>
0

>  <TPSA>
0.0

>  <cid>
34696

>  <dipole>
0.1

>  <excitation_energy_1>
4.588

>  <excitation_energy_2>
4.786

>  <excitation_energy_3>
5.225

>  <excitation_energy_4>
5.39

>  <homo_energy>
-5.853

>  <homo_lumo_gap>
5.23

>  <logP>
2.449

>  <lumo_energy>
-0.623

>  <melting_point>
24.06

>  <molecular_refractivity>
37.03

>  <oscillator_strength_1>
0.0101

>  <oscillator_strength_2>
0.111

>  <oscillator_strength_3>
0.0784

>  <oscillator_strength_4>
0.0002

>  <open_babel_can_smiles>
[CH]1[CH]CC=CC=CC1

>  <mulliken_charges>
18
1   -0.117581
2   -0.117713
3   -0.114439
4   -0.114314
5   -0.336345
6   -0.336198
7   -0.102899
8   -0.10255
9   0.117633
10   0.117665
11   0.122525
12   0.122499
13   0.145683
14   0.157715
15   0.145639
16   0.157663
17   0.127483
18   0.127533

>  <lowdin_charges>
18
1   -0.179552
2   -0.178665
3   -0.155301
4   -0.15735
5   -0.27352
6   -0.272689
7   -0.159616
8   -0.158725
9   0.155694
10   0.153275
11   0.148544
12   0.151027
13   0.154093
14   0.160497
15   0.153513
16   0.160519
17   0.149124
18   0.149131

$$$$

