PCCDB-ID:  69220
public computational chemistry database (PCCDB) project, http://pccdb.org

 18 17  0  0  0  0  0  0  0  0999 V2000
    3.3901    0.2056   -1.2775 C   0  0  0  0  0  0  0  0  0  0  0  0
    3.0845    0.2802    3.8710 C   0  0  0  0  0  0  0  0  0  0  0  0
    3.7234   -0.4635    0.0581 C   0  0  0  0  0  0  0  0  0  0  0  0
    3.5766   -0.4247    2.6048 C   0  0  0  0  0  0  0  0  0  0  0  0
    3.4417    0.3905    1.3068 C   0  0  0  0  0  0  0  0  0  0  0  0
    4.4600    1.9473    1.3421 S   0  0  0  0  0  0  0  0  0  0  0  0
    3.5867   -0.4774   -2.1115 H   0  0  0  0  0  0  0  0  0  0  0  0
    3.9844    1.1113   -1.4296 H   0  0  0  0  0  0  0  0  0  0  0  0
    2.3310    0.4886   -1.3217 H   0  0  0  0  0  0  0  0  0  0  0  0
    3.1873   -0.3754    4.7429 H   0  0  0  0  0  0  0  0  0  0  0  0
    2.0254    0.5527    3.7829 H   0  0  0  0  0  0  0  0  0  0  0  0
    3.6504    1.1965    4.0634 H   0  0  0  0  0  0  0  0  0  0  0  0
    4.7775   -0.7757    0.0692 H   0  0  0  0  0  0  0  0  0  0  0  0
    3.1335   -1.3868    0.1538 H   0  0  0  0  0  0  0  0  0  0  0  0
    3.0061   -1.3549    2.4674 H   0  0  0  0  0  0  0  0  0  0  0  0
    4.6259   -0.7288    2.7276 H   0  0  0  0  0  0  0  0  0  0  0  0
    2.4176    0.7830    1.2414 H   0  0  0  0  0  0  0  0  0  0  0  0
    5.6620    1.3315    1.4180 H   0  0  0  0  0  0  0  0  0  0  0  0
  1  3  1  0  0  0  0
  2 12  1  0  0  0  0
  2 10  1  0  0  0  0
  3 13  1  0  0  0  0
  3 14  1  0  0  0  0
  3  5  1  0  0  0  0
  4 16  1  0  0  0  0
  4  2  1  0  0  0  0
  5  6  1  0  0  0  0
  5  4  1  0  0  0  0
  6 18  1  0  0  0  0
  7  1  1  0  0  0  0
  8  1  1  0  0  0  0
  9  1  1  0  0  0  0
 11  2  1  0  0  0  0
 15  4  1  0  0  0  0
 17  5  1  0  0  0  0
M  END
>  <HBA>
1

>  <HBD>
1

>  <TPSA>
38.8

>  <cid>
69220

>  <dipole>
1.78

>  <excitation_energy_1>
5.356

>  <excitation_energy_2>
5.786

>  <excitation_energy_3>
6.19

>  <excitation_energy_4>
6.423

>  <homo_energy>
-6.324

>  <homo_lumo_gap>
7.138

>  <logP>
2.105

>  <lumo_energy>
0.814

>  <melting_point>
-5.64

>  <molecular_refractivity>
34.08

>  <oscillator_strength_1>
0.0073

>  <oscillator_strength_2>
0.0366

>  <oscillator_strength_3>
0.0009

>  <oscillator_strength_4>
0.0071

>  <open_babel_can_smiles>
CCC(CC)S

>  <mulliken_charges>
18
1   -0.445822
2   -0.445944
3   -0.242061
4   -0.242118
5   -0.234162
6   -0.097733
7   0.142206
8   0.172526
9   0.140359
10   0.142282
11   0.14034
12   0.172538
13   0.134837
14   0.137968
15   0.13797
16   0.134971
17   0.162821
18   0.089023

>  <lowdin_charges>
18
1   -0.447131
2   -0.446837
3   -0.274368
4   -0.274452
5   -0.213479
6   -0.097332
7   0.151157
8   0.161987
9   0.14529
10   0.150976
11   0.145228
12   0.161966
13   0.140746
14   0.144756
15   0.144723
16   0.140919
17   0.15688
18   0.108971

$$$$

