PCCDB-ID:  58843
public computational chemistry database (PCCDB) project, http://pccdb.org

 33 33  0  0  1  0  0  0  0  0999 V2000
    2.6726   -0.0922   -1.0704 C   0  0  0  0  0  0  0  0  0  0  0  0
    1.0423   -1.5294    6.7460 C   0  0  0  0  0  0  0  0  0  0  0  0
    2.3455   -0.6157    0.3311 C   0  0  0  0  0  0  0  0  0  0  0  0
    2.5081   -1.6386    4.6810 C   0  0  0  0  0  0  0  0  0  0  0  0
    0.7918    0.0383    4.7686 C   0  0  0  0  0  0  0  0  0  0  0  0
    2.9009   -1.1774    3.4273 C   0  0  0  0  0  0  0  0  0  0  0  0
    1.1889    0.5105    3.5173 C   0  0  0  0  0  0  0  0  0  0  0  0
    6.0310    1.9044    1.8336 C   0  0  0  0  0  0  0  0  0  0  0  0
    1.4460   -1.0403    5.3748 C   0  0  0  0  0  0  0  0  0  0  0  0
    2.2423   -0.0955    2.8273 C   0  0  0  0  0  0  0  0  0  0  0  0
    2.6321    0.3897    1.4487 C   0  0  1  0  0  0  0  0  0  0  0  0
    6.6514    3.3067    1.6900 C   0  0  0  0  0  0  0  0  0  0  0  0
    4.5186    1.8236    1.8410 C   0  0  0  0  0  0  0  0  0  0  0  0
    7.7753    3.4401    1.2714 O   0  0  0  0  0  0  0  0  0  0  0  0
    5.9092    4.3410    2.1055 O   0  0  0  0  0  0  0  0  0  0  0  0
    3.7881    2.7262    2.2273 O   0  0  0  0  0  0  0  0  0  0  0  0
    4.0825    0.6429    1.4027 O   0  0  0  0  0  0  0  0  0  0  0  0
    2.4214   -0.8400   -1.8298 H   0  0  0  0  0  0  0  0  0  0  0  0
    3.7371    0.1424   -1.1683 H   0  0  0  0  0  0  0  0  0  0  0  0
    2.1037    0.8175   -1.2981 H   0  0  0  0  0  0  0  0  0  0  0  0
    1.1278   -2.6188    6.8248 H   0  0  0  0  0  0  0  0  0  0  0  0
    0.0099   -1.2526    6.9823 H   0  0  0  0  0  0  0  0  0  0  0  0
    1.6834   -1.0976    7.5260 H   0  0  0  0  0  0  0  0  0  0  0  0
    2.9009   -1.5400    0.5332 H   0  0  0  0  0  0  0  0  0  0  0  0
    1.2813   -0.8730    0.3999 H   0  0  0  0  0  0  0  0  0  0  0  0
    3.0333   -2.4790    5.1298 H   0  0  0  0  0  0  0  0  0  0  0  0
   -0.0331    0.5233    5.2853 H   0  0  0  0  0  0  0  0  0  0  0  0
    3.7303   -1.6568    2.9136 H   0  0  0  0  0  0  0  0  0  0  0  0
    0.6749    1.3605    3.0751 H   0  0  0  0  0  0  0  0  0  0  0  0
    6.3775    1.5002    2.7959 H   0  0  0  0  0  0  0  0  0  0  0  0
    6.4511    1.2594    1.0603 H   0  0  0  0  0  0  0  0  0  0  0  0
    2.1344    1.3399    1.2377 H   0  0  0  0  0  0  0  0  0  0  0  0
    5.0019    4.0187    2.3266 H   0  0  0  0  0  0  0  0  0  0  0  0
  1  3  1  0  0  0  0
  2 21  1  0  0  0  0
  2 22  1  0  0  0  0
  2 23  1  0  0  0  0
  3 25  1  0  0  0  0
  3 24  1  0  0  0  0
  3 11  1  0  0  0  0
  4 26  1  0  0  0  0
  4  9  2  0  0  0  0
  5 27  1  0  0  0  0
  5  9  1  0  0  0  0
  6  4  1  0  0  0  0
  7  5  2  0  0  0  0
  8 13  1  0  0  0  0
  8 30  1  0  0  0  0
  9  2  1  0  0  0  0
 10  6  2  0  0  0  0
 10  7  1  0  0  0  0
 11 32  1  6  0  0  0
 11 10  1  0  0  0  0
 12  8  1  0  0  0  0
 12 15  1  0  0  0  0
 13 16  2  0  0  0  0
 14 12  2  0  0  0  0
 15 33  1  0  0  0  0
 17 11  1  0  0  0  0
 17 13  1  0  0  0  0
 18  1  1  0  0  0  0
 19  1  1  0  0  0  0
 20  1  1  0  0  0  0
 28  6  1  0  0  0  0
 29  7  1  0  0  0  0
 31  8  1  0  0  0  0
M  END
>  <HBA>
4

>  <HBD>
1

>  <TPSA>
63.6

>  <cid>
58843

>  <dipole>
6.59

>  <excitation_energy_1>
5.209

>  <excitation_energy_2>
5.384

>  <excitation_energy_3>
5.675

>  <excitation_energy_4>
5.756

>  <homo_energy>
-6.765

>  <homo_lumo_gap>
6.234

>  <logP>
2.464

>  <lumo_energy>
-0.531

>  <melting_point>
98.27

>  <molecular_refractivity>
63.47

>  <oscillator_strength_1>
0.0003

>  <oscillator_strength_2>
0.0092

>  <oscillator_strength_3>
0.0102

>  <oscillator_strength_4>
0.0325

>  <open_babel_can_smiles>
CC[C@@H](c1ccc(cc1)C)OC(=O)CC(=O)O

>  <mulliken_charges>
33
1   -0.452407
2   -0.5306
3   -0.266177
4   -0.17935
5   -0.181942
6   -0.177761
7   -0.174523
8   -0.493785
9   0.179371
10   0.150286
11   0.027358
12   0.605844
13   0.661831
14   -0.451614
15   -0.57883
16   -0.50467
17   -0.46487
18   0.153926
19   0.160366
20   0.148459
21   0.160787
22   0.159506
23   0.170201
24   0.15155
25   0.154304
26   0.127544
27   0.12884
28   0.136316
29   0.136469
30   0.222098
31   0.212094
32   0.168366
33   0.441014

>  <lowdin_charges>
33
1   -0.447464
2   -0.440795
3   -0.274893
4   -0.164045
5   -0.16516
6   -0.158958
7   -0.154459
8   -0.343956
9   0.007123
10   -0.027545
11   0.012224
12   0.186744
13   0.209909
14   -0.248181
15   -0.352463
16   -0.284485
17   -0.171652
18   0.157947
19   0.154171
20   0.150756
21   0.15853
22   0.158577
23   0.165708
24   0.152767
25   0.156325
26   0.157795
27   0.158843
28   0.160816
29   0.16179
30   0.203209
31   0.195694
32   0.161229
33   0.363898

$$$$

