PCCDB-ID:  7753
public computational chemistry database (PCCDB) project, http://pccdb.org

 25 24  0  0  1  0  0  0  0  0999 V2000
    2.3842    1.8831   -0.3732 C   0  0  0  0  0  0  0  0  0  0  0  0
    2.1035   -0.7821   -2.0827 C   0  0  0  0  0  0  0  0  0  0  0  0
    5.4508   -1.6206    0.8575 C   0  0  0  0  0  0  0  0  0  0  0  0
    2.3473    0.4399    0.1471 C   0  0  0  0  0  0  0  0  0  0  0  0
    4.4185   -0.4104   -1.1530 C   0  0  0  0  0  0  0  0  0  0  0  0
    2.9346   -0.6362   -0.7966 C   0  0  2  0  0  0  0  0  0  0  0  0
    5.4164   -0.3338    0.0157 C   0  0  2  0  0  0  0  0  0  0  0  0
    6.7294    0.0404   -0.5408 N   0  0  0  0  0  0  0  0  0  0  0  0
    1.9212    2.5630    0.3512 H   0  0  0  0  0  0  0  0  0  0  0  0
    1.8385    1.9908   -1.3172 H   0  0  0  0  0  0  0  0  0  0  0  0
    3.4096    2.2318   -0.5400 H   0  0  0  0  0  0  0  0  0  0  0  0
    1.0455   -0.9581   -1.8534 H   0  0  0  0  0  0  0  0  0  0  0  0
    2.4594   -1.6256   -2.6862 H   0  0  0  0  0  0  0  0  0  0  0  0
    2.1646    0.1157   -2.7091 H   0  0  0  0  0  0  0  0  0  0  0  0
    4.4857   -1.8362    1.3313 H   0  0  0  0  0  0  0  0  0  0  0  0
    6.1993   -1.5410    1.6557 H   0  0  0  0  0  0  0  0  0  0  0  0
    5.7169   -2.4845    0.2333 H   0  0  0  0  0  0  0  0  0  0  0  0
    1.3056    0.1660    0.3654 H   0  0  0  0  0  0  0  0  0  0  0  0
    2.8714    0.3976    1.1112 H   0  0  0  0  0  0  0  0  0  0  0  0
    4.5247    0.5121   -1.7371 H   0  0  0  0  0  0  0  0  0  0  0  0
    4.7385   -1.2274   -1.8196 H   0  0  0  0  0  0  0  0  0  0  0  0
    2.8561   -1.5933   -0.2604 H   0  0  0  0  0  0  0  0  0  0  0  0
    5.1232    0.4968    0.6722 H   0  0  0  0  0  0  0  0  0  0  0  0
    7.0563   -0.7083   -1.1540 H   0  0  0  0  0  0  0  0  0  0  0  0
    7.4144    0.0951    0.2133 H   0  0  0  0  0  0  0  0  0  0  0  0
  1  4  1  0  0  0  0
  1  9  1  0  0  0  0
  2 12  1  0  0  0  0
  2  6  1  0  0  0  0
  3 15  1  0  0  0  0
  3 16  1  0  0  0  0
  4 18  1  0  0  0  0
  4 19  1  0  0  0  0
  5  6  1  0  0  0  0
  5  7  1  0  0  0  0
  6 22  1  1  0  0  0
  6  4  1  0  0  0  0
  7 23  1  1  0  0  0
  7  3  1  0  0  0  0
  8  7  1  0  0  0  0
  8 25  1  0  0  0  0
 10  1  1  0  0  0  0
 11  1  1  0  0  0  0
 13  2  1  0  0  0  0
 14  2  1  0  0  0  0
 17  3  1  0  0  0  0
 20  5  1  0  0  0  0
 21  5  1  0  0  0  0
 24  8  1  0  0  0  0
M  END
>  <HBA>
1

>  <HBD>
1

>  <TPSA>
26.02

>  <cid>
7753

>  <dipole>
1.33

>  <excitation_energy_1>
5.671

>  <excitation_energy_2>
6.312

>  <excitation_energy_3>
6.388

>  <excitation_energy_4>
6.538

>  <homo_energy>
-6.234

>  <homo_lumo_gap>
8.253

>  <logP>
2.47

>  <lumo_energy>
2.019

>  <melting_point>
27.02

>  <molecular_refractivity>
38.47

>  <oscillator_strength_1>
0.0386

>  <oscillator_strength_2>
0.0072

>  <oscillator_strength_3>
0.0029

>  <oscillator_strength_4>
0.0047

>  <open_babel_can_smiles>
CC[C@H](C[C@H](N)C)C

>  <mulliken_charges>
25
1   -0.453516
2   -0.449384
3   -0.451258
4   -0.256118
5   -0.249067
6   -0.072189
7   0.021373
8   -0.710433
9   0.140856
10   0.145411
11   0.154563
12   0.137475
13   0.13863
14   0.144223
15   0.145649
16   0.133461
17   0.133221
18   0.126856
19   0.131325
20   0.148559
21   0.113167
22   0.119431
23   0.133412
24   0.285131
25   0.289222

>  <lowdin_charges>
25
1   -0.450918
2   -0.44517
3   -0.465126
4   -0.275962
5   -0.283781
6   -0.126031
7   -0.067263
8   -0.552928
9   0.151248
10   0.147671
11   0.150401
12   0.1451
13   0.148201
14   0.147221
15   0.149779
16   0.145363
17   0.143792
18   0.138961
19   0.138716
20   0.151206
21   0.135766
22   0.135722
23   0.139147
24   0.248331
25   0.250557

$$$$

