PCCDB-ID:  72917
public computational chemistry database (PCCDB) project, http://pccdb.org

 17 18  0  0  0  0  0  0  0  0999 V2000
    2.0772   -0.7576   -0.0221 C   0  0  0  0  0  0  0  0  0  0  0  0
    0.8785   -1.4499   -0.0393 C   0  0  0  0  0  0  0  0  0  0  0  0
    0.9512    1.4208    0.0392 C   0  0  0  0  0  0  0  0  0  0  0  0
    2.1197    0.6640    0.0067 C   0  0  0  0  0  0  0  0  0  0  0  0
   -0.3044   -0.6955   -0.0323 C   0  0  0  0  0  0  0  0  0  0  0  0
   -0.2538    0.7145    0.0096 C   0  0  0  0  0  0  0  0  0  0  0  0
    3.4132    1.4279    0.0318 C   0  0  0  0  0  0  0  0  0  0  0  0
   -1.6261   -1.0929   -0.0488 N   0  0  0  0  0  0  0  0  0  0  0  0
   -1.5727    1.0657    0.0171 N   0  0  0  0  0  0  0  0  0  0  0  0
   -2.3712   -0.0373   -0.0193 N   0  0  0  0  0  0  0  0  0  0  0  0
    3.5033    2.5620    0.4381 O   0  0  0  0  0  0  0  0  0  0  0  0
    4.5150    0.7847   -0.4382 O   0  0  0  0  0  0  0  0  0  0  0  0
    3.0034   -1.3251    0.0186 H   0  0  0  0  0  0  0  0  0  0  0  0
    0.8433   -2.5341   -0.0466 H   0  0  0  0  0  0  0  0  0  0  0  0
    1.0121    2.5023    0.0861 H   0  0  0  0  0  0  0  0  0  0  0  0
   -2.0034    1.9791    0.0414 H   0  0  0  0  0  0  0  0  0  0  0  0
    4.2609   -0.0455   -0.8727 H   0  0  0  0  0  0  0  0  0  0  0  0
  1  4  2  0  0  0  0
  1 13  1  0  0  0  0
  2  5  2  0  0  0  0
  2  1  1  0  0  0  0
  3 15  1  0  0  0  0
  4  7  1  0  0  0  0
  4  3  1  0  0  0  0
  5  6  1  0  0  0  0
  6  9  1  0  0  0  0
  6  3  2  0  0  0  0
  7 11  2  0  0  0  0
  8  5  1  0  0  0  0
  8 10  2  0  0  0  0
  9 16  1  0  0  0  0
 10  9  1  0  0  0  0
 12  7  1  0  0  0  0
 14  2  1  0  0  0  0
 17 12  1  0  0  0  0
M  END
>  <HBA>
4

>  <HBD>
2

>  <TPSA>
78.87

>  <cid>
72917

>  <dipole>
1.31

>  <excitation_energy_1>
4.451

>  <excitation_energy_2>
4.564

>  <excitation_energy_3>
4.681

>  <excitation_energy_4>
4.943

>  <homo_energy>
-7.132

>  <homo_lumo_gap>
5.059

>  <logP>
0.656

>  <lumo_energy>
-2.074

>  <melting_point>
218.27

>  <molecular_refractivity>
40.85

>  <oscillator_strength_1>
0.0294

>  <oscillator_strength_2>
0.0235

>  <oscillator_strength_3>
0.0078

>  <oscillator_strength_4>
0.1079

>  <open_babel_can_smiles>
OC(=O)c1ccc2c(c1)[nH]nn2

>  <mulliken_charges>
17
1   -0.217999
2   -0.146805
3   -0.179675
4   0.03667
5   0.254643
6   0.388021
7   0.556957
8   -0.356054
9   -0.562131
10   -0.01323
11   -0.443972
12   -0.572519
13   0.140613
14   0.165169
15   0.180034
16   0.35685
17   0.413427

>  <lowdin_charges>
17
1   -0.177873
2   -0.132553
3   -0.142281
4   -0.04808
5   -0.004108
6   0.017103
7   0.191182
8   -0.120144
9   -0.1417
10   -0.045426
11   -0.237253
12   -0.349959
13   0.161867
14   0.177476
15   0.185079
16   0.307542
17   0.359129

$$$$

