PCCDB-ID:  69027
public computational chemistry database (PCCDB) project, http://pccdb.org

 20 19  0  0  0  0  0  0  0  0999 V2000
    0.8004    0.2470    0.2208 C   0  0  0  0  0  0  0  0  0  0  0  0
    2.9482    1.4850   -0.2700 C   0  0  0  0  0  0  0  0  0  0  0  0
    2.9323   -0.3998    1.4138 C   0  0  0  0  0  0  0  0  0  0  0  0
    2.4158   -1.3759   -3.3136 C   0  0  0  0  0  0  0  0  0  0  0  0
    2.6604   -0.8889   -1.0174 C   0  0  0  0  0  0  0  0  0  0  0  0
    2.3345    0.1147    0.0954 C   0  0  0  0  0  0  0  0  0  0  0  0
    3.2901   -1.9163   -0.8825 O   0  0  0  0  0  0  0  0  0  0  0  0
    2.1538   -0.4937   -2.2114 O   0  0  0  0  0  0  0  0  0  0  0  0
    0.5549    0.9542    1.0217 H   0  0  0  0  0  0  0  0  0  0  0  0
    0.3389   -0.7155    0.4707 H   0  0  0  0  0  0  0  0  0  0  0  0
    0.3542    0.6104   -0.7091 H   0  0  0  0  0  0  0  0  0  0  0  0
    2.7334    2.2101    0.5237 H   0  0  0  0  0  0  0  0  0  0  0  0
    2.5371    1.8688   -1.2079 H   0  0  0  0  0  0  0  0  0  0  0  0
    4.0373    1.4160   -0.3749 H   0  0  0  0  0  0  0  0  0  0  0  0
    2.7104    0.3055    2.2228 H   0  0  0  0  0  0  0  0  0  0  0  0
    4.0181   -0.5121    1.3397 H   0  0  0  0  0  0  0  0  0  0  0  0
    2.5180   -1.3764    1.6817 H   0  0  0  0  0  0  0  0  0  0  0  0
    1.9457   -0.9096   -4.1803 H   0  0  0  0  0  0  0  0  0  0  0  0
    1.9848   -2.3633   -3.1276 H   0  0  0  0  0  0  0  0  0  0  0  0
    3.4921   -1.4847   -3.4726 H   0  0  0  0  0  0  0  0  0  0  0  0
  1 10  1  0  0  0  0
  1  9  1  0  0  0  0
  2  6  1  0  0  0  0
  2 12  1  0  0  0  0
  3 17  1  0  0  0  0
  3 15  1  0  0  0  0
  4 19  1  0  0  0  0
  4  8  1  0  0  0  0
  5  7  2  0  0  0  0
  5  6  1  0  0  0  0
  6  1  1  0  0  0  0
  6  3  1  0  0  0  0
  8  5  1  0  0  0  0
 11  1  1  0  0  0  0
 13  2  1  0  0  0  0
 14  2  1  0  0  0  0
 16  3  1  0  0  0  0
 18  4  1  0  0  0  0
 20  4  1  0  0  0  0
M  END
>  <HBA>
2

>  <HBD>
0

>  <TPSA>
26.3

>  <cid>
69027

>  <dipole>
1.74

>  <excitation_energy_1>
5.716

>  <excitation_energy_2>
6.807

>  <excitation_energy_3>
7.267

>  <excitation_energy_4>
7.601

>  <homo_energy>
-7.159

>  <homo_lumo_gap>
7.581

>  <logP>
1.206

>  <lumo_energy>
0.422

>  <melting_point>
4.57

>  <molecular_refractivity>
31.98

>  <oscillator_strength_1>
0.0025

>  <oscillator_strength_2>
0.0037

>  <oscillator_strength_3>
0.0171

>  <oscillator_strength_4>
0.0009

>  <open_babel_can_smiles>
COC(=O)C(C)(C)C

>  <mulliken_charges>
20
1   -0.449726
2   -0.450284
3   -0.432295
4   -0.216475
5   0.637573
6   -0.002172
7   -0.485702
8   -0.460506
9   0.146178
10   0.149171
11   0.161847
12   0.146389
13   0.161791
14   0.149374
15   0.134928
16   0.154888
17   0.154639
18   0.162006
19   0.169192
20   0.169184

>  <lowdin_charges>
20
1   -0.440415
2   -0.4382
3   -0.43532
4   -0.276681
5   0.195284
6   -0.007603
7   -0.261966
8   -0.195117
9   0.152431
10   0.152327
11   0.158539
12   0.152455
13   0.158349
14   0.150509
15   0.147867
16   0.155567
17   0.157082
18   0.159833
19   0.158119
20   0.15694

$$$$

