PCCDB-ID:  40732
public computational chemistry database (PCCDB) project, http://pccdb.org

 21 22  0  0  0  0  0  0  0  0999 V2000
    3.2305   -1.3432    0.0430 C   0  0  0  0  0  0  0  0  0  0  0  0
    2.8773    2.4862   -0.4726 C   0  0  0  0  0  0  0  0  0  0  0  0
    3.3728    3.5395   -1.2195 C   0  0  0  0  0  0  0  0  0  0  0  0
    5.8512    2.0148   -3.4117 C   0  0  0  0  0  0  0  0  0  0  0  0
    5.9294    3.3278   -3.7885 C   0  0  0  0  0  0  0  0  0  0  0  0
    4.3342    0.8867   -1.6015 C   0  0  0  0  0  0  0  0  0  0  0  0
    2.7480    0.0922    0.2059 C   0  0  0  0  0  0  0  0  0  0  0  0
    3.3469    1.1588   -0.6510 C   0  0  0  0  0  0  0  0  0  0  0  0
    4.8572    1.9322   -2.3755 C   0  0  0  0  0  0  0  0  0  0  0  0
    4.3640    3.2522   -2.1686 C   0  0  0  0  0  0  0  0  0  0  0  0
    5.0330    4.0769   -3.0428 N   0  0  0  0  0  0  0  0  0  0  0  0
    1.8811    0.3560    1.0284 O   0  0  0  0  0  0  0  0  0  0  0  0
    4.3079   -1.4247    0.2292 H   0  0  0  0  0  0  0  0  0  0  0  0
    3.0447   -1.7100   -0.9736 H   0  0  0  0  0  0  0  0  0  0  0  0
    2.6932   -1.9715    0.7555 H   0  0  0  0  0  0  0  0  0  0  0  0
    2.1090    2.6489    0.2754 H   0  0  0  0  0  0  0  0  0  0  0  0
    3.0049    4.5521   -1.0751 H   0  0  0  0  0  0  0  0  0  0  0  0
    6.4317    1.2003   -3.8223 H   0  0  0  0  0  0  0  0  0  0  0  0
    6.5508    3.8041   -4.5339 H   0  0  0  0  0  0  0  0  0  0  0  0
    4.7006   -0.1249   -1.7473 H   0  0  0  0  0  0  0  0  0  0  0  0
    4.8991    5.0729   -3.1234 H   0  0  0  0  0  0  0  0  0  0  0  0
  1  7  1  0  0  0  0
  1 13  1  0  0  0  0
  1 15  1  0  0  0  0
  2 16  1  0  0  0  0
  3 17  1  0  0  0  0
  3  2  2  0  0  0  0
  4  9  1  0  0  0  0
  5  4  2  0  0  0  0
  5 11  1  0  0  0  0
  6  8  2  0  0  0  0
  7 12  2  0  0  0  0
  8  2  1  0  0  0  0
  8  7  1  0  0  0  0
  9 10  2  0  0  0  0
  9  6  1  0  0  0  0
 10  3  1  0  0  0  0
 11 10  1  0  0  0  0
 14  1  1  0  0  0  0
 18  4  1  0  0  0  0
 19  5  1  0  0  0  0
 20  6  1  0  0  0  0
 21 11  1  0  0  0  0
M  END
>  <HBA>
1

>  <HBD>
1

>  <TPSA>
32.86

>  <cid>
40732

>  <dipole>
4.91

>  <excitation_energy_1>
3.861

>  <excitation_energy_2>
4.051

>  <excitation_energy_3>
4.553

>  <excitation_energy_4>
5.007

>  <homo_energy>
-5.785

>  <homo_lumo_gap>
4.759

>  <logP>
2.37

>  <lumo_energy>
-1.026

>  <melting_point>
130.82

>  <molecular_refractivity>
48.49

>  <oscillator_strength_1>
0.0001

>  <oscillator_strength_2>
0.0159

>  <oscillator_strength_3>
0.0664

>  <oscillator_strength_4>
0.0025

>  <open_babel_can_smiles>
CC(=O)c1ccc2c(c1)cc[nH]2

>  <mulliken_charges>
21
1   -0.54063
2   -0.189712
3   -0.158713
4   -0.220378
5   0.050067
6   -0.26948
7   0.404395
8   0.0748
9   0.117991
10   0.324219
11   -0.680526
12   -0.465229
13   0.166762
14   0.167376
15   0.177331
16   0.159264
17   0.128648
18   0.134562
19   0.155335
20   0.131866
21   0.33205

>  <lowdin_charges>
21
1   -0.475461
2   -0.139154
3   -0.183592
4   -0.219471
5   -0.121644
6   -0.148604
7   0.158521
8   -0.06703
9   -0.02895
10   0.038337
11   -0.188517
12   -0.25415
13   0.165548
14   0.166945
15   0.174015
16   0.176288
17   0.157927
18   0.167392
19   0.169009
20   0.160668
21   0.291924

$$$$

