PCCDB-ID:  14948
public computational chemistry database (PCCDB) project, http://pccdb.org

 24 25  0  0  0  0  0  0  0  0999 V2000
   -1.4311   -0.1404    0.4819 C   0  0  0  0  0  0  0  0  0  0  0  0
    5.6486    0.3698   -0.6800 C   0  0  0  0  0  0  0  0  0  0  0  0
   -0.9128    0.9200   -0.2614 C   0  0  0  0  0  0  0  0  0  0  0  0
   -0.5618   -1.1128    0.9812 C   0  0  0  0  0  0  0  0  0  0  0  0
    4.9226    1.4813   -0.5572 C   0  0  0  0  0  0  0  0  0  0  0  0
    5.0432   -1.0062   -0.6687 C   0  0  0  0  0  0  0  0  0  0  0  0
    0.4578    1.0057   -0.5067 C   0  0  0  0  0  0  0  0  0  0  0  0
    0.8066   -1.0246    0.7368 C   0  0  0  0  0  0  0  0  0  0  0  0
    3.4256    1.4912   -0.4018 C   0  0  0  0  0  0  0  0  0  0  0  0
    3.5567   -0.9970   -0.4391 C   0  0  0  0  0  0  0  0  0  0  0  0
    1.3469    0.0285   -0.0248 C   0  0  0  0  0  0  0  0  0  0  0  0
    2.8074    0.1091   -0.2954 C   0  0  0  0  0  0  0  0  0  0  0  0
   -2.4979   -0.2045    0.6781 H   0  0  0  0  0  0  0  0  0  0  0  0
    6.7293    0.4350   -0.7956 H   0  0  0  0  0  0  0  0  0  0  0  0
   -1.5765    1.6859   -0.6548 H   0  0  0  0  0  0  0  0  0  0  0  0
   -0.9488   -1.9356    1.5769 H   0  0  0  0  0  0  0  0  0  0  0  0
    5.4123    2.4539   -0.5730 H   0  0  0  0  0  0  0  0  0  0  0  0
    5.5313   -1.6252    0.1034 H   0  0  0  0  0  0  0  0  0  0  0  0
    5.2712   -1.5265   -1.6150 H   0  0  0  0  0  0  0  0  0  0  0  0
    0.8342    1.8358   -1.0967 H   0  0  0  0  0  0  0  0  0  0  0  0
    1.4748   -1.7674    1.1627 H   0  0  0  0  0  0  0  0  0  0  0  0
    2.9836    2.0360   -1.2522 H   0  0  0  0  0  0  0  0  0  0  0  0
    3.1440    2.0882    0.4802 H   0  0  0  0  0  0  0  0  0  0  0  0
    3.0757   -1.9727   -0.4014 H   0  0  0  0  0  0  0  0  0  0  0  0
  1 13  1  0  0  0  0
  1  4  2  0  0  0  0
  2  6  1  0  0  0  0
  2  5  2  0  0  0  0
  3  1  1  0  0  0  0
  4 16  1  0  0  0  0
  5  9  1  0  0  0  0
  6 10  1  0  0  0  0
  6 18  1  0  0  0  0
  7  3  2  0  0  0  0
  7 11  1  0  0  0  0
  8  4  1  0  0  0  0
  8 21  1  0  0  0  0
  9 12  1  0  0  0  0
  9 23  1  0  0  0  0
 10 24  1  0  0  0  0
 10 12  2  0  0  0  0
 11  8  2  0  0  0  0
 12 11  1  0  0  0  0
 14  2  1  0  0  0  0
 15  3  1  0  0  0  0
 17  5  1  0  0  0  0
 19  6  1  0  0  0  0
 20  7  1  0  0  0  0
 22  9  1  0  0  0  0
M  END
>  <HBA>
0

>  <HBD>
0

>  <TPSA>
0.0

>  <cid>
14948

>  <dipole>
0.21

>  <excitation_energy_1>
4.737

>  <excitation_energy_2>
4.857

>  <excitation_energy_3>
5.26

>  <excitation_energy_4>
5.363

>  <homo_energy>
-5.821

>  <homo_lumo_gap>
5.344

>  <logP>
3.42

>  <lumo_energy>
-0.476

>  <melting_point>
49.06

>  <molecular_refractivity>
53.17

>  <oscillator_strength_1>
0.1862

>  <oscillator_strength_2>
0.0168

>  <oscillator_strength_3>
0.0991

>  <oscillator_strength_4>
0.0027

>  <open_babel_can_smiles>
C1=CCC(=CC1)c1ccccc1

>  <mulliken_charges>
24
1   -0.128545
2   -0.10216
3   -0.13189
4   -0.133
5   -0.098084
6   -0.339238
7   -0.18323
8   -0.176638
9   -0.378443
10   -0.17694
11   0.105353
12   0.118016
13   0.127461
14   0.12065
15   0.127853
16   0.127885
17   0.120543
18   0.152242
19   0.154713
20   0.124751
21   0.128777
22   0.156936
23   0.158592
24   0.124394

>  <lowdin_charges>
24
1   -0.158296
2   -0.167389
3   -0.157182
4   -0.156539
5   -0.168602
6   -0.271714
7   -0.166743
8   -0.162011
9   -0.273545
10   -0.172027
11   -0.000925
12   -0.013926
13   0.155167
14   0.150527
15   0.157866
16   0.157616
17   0.152373
18   0.155953
19   0.155779
20   0.156962
21   0.159411
22   0.156073
23   0.157585
24   0.153587

$$$$

