PCCDB-ID:  59128
public computational chemistry database (PCCDB) project, http://pccdb.org

 26 27  0  0  0  0  0  0  0  0999 V2000
    2.7025    1.3583    0.0126 C   0  0  0  0  0  0  0  0  0  0  0  0
    2.9082   -0.0033    0.3443 C   0  0  0  0  0  0  0  0  0  0  0  0
    1.4333    1.8289   -0.2409 C   0  0  0  0  0  0  0  0  0  0  0  0
    1.8403   -0.8692    0.4173 C   0  0  0  0  0  0  0  0  0  0  0  0
   -2.0796    0.5462   -0.3564 C   0  0  0  0  0  0  0  0  0  0  0  0
   -1.0143    1.4099   -0.4323 C   0  0  0  0  0  0  0  0  0  0  0  0
   -0.6043   -1.2819    0.2249 C   0  0  0  0  0  0  0  0  0  0  0  0
   -3.0566   -1.7480    0.0554 C   0  0  0  0  0  0  0  0  0  0  0  0
   -1.8803   -0.8218   -0.0225 C   0  0  0  0  0  0  0  0  0  0  0  0
    0.3110    0.9615   -0.1765 C   0  0  0  0  0  0  0  0  0  0  0  0
    0.5190   -0.4153    0.1606 C   0  0  0  0  0  0  0  0  0  0  0  0
   -4.9152   -2.9908   -3.0391 O   0  0  0  0  0  0  0  0  0  0  0  0
   -4.8643   -4.0720   -0.8189 O   0  0  0  0  0  0  0  0  0  0  0  0
   -5.9931   -1.8177   -1.1043 O   0  0  0  0  0  0  0  0  0  0  0  0
   -3.4993   -2.0165   -1.3241 O   0  0  0  0  0  0  0  0  0  0  0  0
   -4.9369   -2.7644   -1.4358 S   0  0  0  0  0  0  0  0  0  0  0  0
    3.5533    2.0320   -0.0403 H   0  0  0  0  0  0  0  0  0  0  0  0
    3.9147   -0.3618    0.5415 H   0  0  0  0  0  0  0  0  0  0  0  0
    1.2734    2.8739   -0.4955 H   0  0  0  0  0  0  0  0  0  0  0  0
    1.9946   -1.9150    0.6719 H   0  0  0  0  0  0  0  0  0  0  0  0
   -3.0881    0.9013   -0.5522 H   0  0  0  0  0  0  0  0  0  0  0  0
   -1.1736    2.4552   -0.6860 H   0  0  0  0  0  0  0  0  0  0  0  0
   -0.4427   -2.3281    0.4761 H   0  0  0  0  0  0  0  0  0  0  0  0
   -3.8927   -1.2926    0.5965 H   0  0  0  0  0  0  0  0  0  0  0  0
   -2.7974   -2.7030    0.5185 H   0  0  0  0  0  0  0  0  0  0  0  0
   -5.2511   -2.1774   -3.4615 H   0  0  0  0  0  0  0  0  0  0  0  0
  1  2  2  0  0  0  0
  2  4  1  0  0  0  0
  2 18  1  0  0  0  0
  3 10  2  0  0  0  0
  3  1  1  0  0  0  0
  4 20  1  0  0  0  0
  5  9  1  0  0  0  0
  6  5  2  0  0  0  0
  6 10  1  0  0  0  0
  7 23  1  0  0  0  0
  8 25  1  0  0  0  0
  8 24  1  0  0  0  0
  9  8  1  0  0  0  0
  9  7  2  0  0  0  0
 10 11  1  0  0  0  0
 11  7  1  0  0  0  0
 11  4  2  0  0  0  0
 12 16  1  0  0  0  0
 15  8  1  0  0  0  0
 16 15  1  0  0  0  0
 16 14  2  0  0  0  0
 16 13  2  0  0  0  0
 17  1  1  0  0  0  0
 19  3  1  0  0  0  0
 21  5  1  0  0  0  0
 22  6  1  0  0  0  0
 26 12  1  0  0  0  0
M  END
>  <HBA>
4

>  <HBD>
1

>  <TPSA>
71.98

>  <cid>
59128

>  <dipole>
4.21

>  <excitation_energy_1>
4.284

>  <excitation_energy_2>
4.412

>  <excitation_energy_3>
5.326

>  <excitation_energy_4>
5.556

>  <homo_energy>
-6.174

>  <homo_lumo_gap>
4.784

>  <logP>
3.24

>  <lumo_energy>
-1.391

>  <melting_point>
126.87

>  <molecular_refractivity>
60.53

>  <oscillator_strength_1>
0.0369

>  <oscillator_strength_2>
0.0163

>  <oscillator_strength_3>
0.2132

>  <oscillator_strength_4>
0.0063

>  <open_babel_can_smiles>
OS(=O)(=O)OCc1ccc2c(c1)cccc2

>  <mulliken_charges>
26
1   -0.13191
2   -0.136124
3   -0.191386
4   -0.186577
5   -0.165558
6   -0.192482
7   -0.248801
8   -0.163015
9   0.1518
10   0.139092
11   0.137572
12   -0.596818
13   -0.478592
14   -0.503553
15   -0.505189
16   1.292431
17   0.135764
18   0.136025
19   0.134569
20   0.13589
21   0.14197
22   0.13711
23   0.139095
24   0.183391
25   0.186236
26   0.449061

>  <lowdin_charges>
26
1   -0.153403
2   -0.154063
3   -0.153444
4   -0.150717
5   -0.153687
6   -0.149626
7   -0.148063
8   -0.122717
9   -0.023038
10   0.003782
11   -0.000549
12   -0.548397
13   -0.538747
14   -0.566331
15   -0.409543
16   1.421451
17   0.162195
18   0.160902
19   0.158586
20   0.159092
21   0.16388
22   0.159898
23   0.160268
24   0.166893
25   0.166665
26   0.388713

$$$$

