PCCDB-ID:  69424
public computational chemistry database (PCCDB) project, http://pccdb.org

 48 47  0  0  0  0  0  0  0  0999 V2000
    1.5542   -2.4805   -0.0629 C   0  0  0  0  0  0  0  0  0  0  0  0
    1.2727   -1.8742    1.3167 C   0  0  0  0  0  0  0  0  0  0  0  0
    1.6572   -2.7804    2.5003 C   0  0  0  0  0  0  0  0  0  0  0  0
    3.1496   -3.1379    2.6184 C   0  0  0  0  0  0  0  0  0  0  0  0
    4.0801   -1.9373    2.8443 C   0  0  0  0  0  0  0  0  0  0  0  0
    5.5470   -2.3413    3.0474 C   0  0  0  0  0  0  0  0  0  0  0  0
    6.4862   -1.1429    3.2505 C   0  0  0  0  0  0  0  0  0  0  0  0
    7.9737   -1.5107    3.3843 C   0  0  0  0  0  0  0  0  0  0  0  0
    8.3311   -2.2892    4.6593 C   0  0  0  0  0  0  0  0  0  0  0  0
    9.8352   -2.5692    4.7883 C   0  0  0  0  0  0  0  0  0  0  0  0
   10.2513   -3.2603    6.0984 C   0  0  0  0  0  0  0  0  0  0  0  0
    9.6957   -4.6839    6.2632 C   0  0  0  0  0  0  0  0  0  0  0  0
   10.2634   -5.5039    7.4370 C   0  0  0  0  0  0  0  0  0  0  0  0
    9.9455   -4.9830    8.8545 C   0  0  0  0  0  0  0  0  0  0  0  0
   10.9858   -3.9775    9.4003 C   0  0  0  0  0  0  0  0  0  0  0  0
   10.6593   -3.5155   10.7531 C   0  0  0  0  0  0  0  0  0  0  0  0
   10.3826   -3.1600   11.8230 N   0  0  0  0  0  0  0  0  0  0  0  0
    1.2016   -1.8196   -0.8631 H   0  0  0  0  0  0  0  0  0  0  0  0
    1.0460   -3.4461   -0.1811 H   0  0  0  0  0  0  0  0  0  0  0  0
    2.6248   -2.6496   -0.2249 H   0  0  0  0  0  0  0  0  0  0  0  0
    0.2012   -1.6454    1.3940 H   0  0  0  0  0  0  0  0  0  0  0  0
    1.7894   -0.9090    1.4043 H   0  0  0  0  0  0  0  0  0  0  0  0
    1.0779   -3.7124    2.4302 H   0  0  0  0  0  0  0  0  0  0  0  0
    1.3378   -2.2932    3.4328 H   0  0  0  0  0  0  0  0  0  0  0  0
    3.4749   -3.6819    1.7205 H   0  0  0  0  0  0  0  0  0  0  0  0
    3.2723   -3.8414    3.4540 H   0  0  0  0  0  0  0  0  0  0  0  0
    3.7327   -1.3689    3.7201 H   0  0  0  0  0  0  0  0  0  0  0  0
    4.0164   -1.2488    1.9905 H   0  0  0  0  0  0  0  0  0  0  0  0
    5.8865   -2.9188    2.1744 H   0  0  0  0  0  0  0  0  0  0  0  0
    5.6159   -3.0214    3.9073 H   0  0  0  0  0  0  0  0  0  0  0  0
    6.1691   -0.5781    4.1395 H   0  0  0  0  0  0  0  0  0  0  0  0
    6.3697   -0.4589    2.3982 H   0  0  0  0  0  0  0  0  0  0  0  0
    8.5689   -0.5864    3.3587 H   0  0  0  0  0  0  0  0  0  0  0  0
    8.2834   -2.0946    2.5047 H   0  0  0  0  0  0  0  0  0  0  0  0
    7.7746   -3.2352    4.6808 H   0  0  0  0  0  0  0  0  0  0  0  0
    7.9949   -1.7163    5.5372 H   0  0  0  0  0  0  0  0  0  0  0  0
   10.3786   -1.6173    4.7040 H   0  0  0  0  0  0  0  0  0  0  0  0
   10.1672   -3.1826    3.9373 H   0  0  0  0  0  0  0  0  0  0  0  0
    9.9285   -2.6318    6.9406 H   0  0  0  0  0  0  0  0  0  0  0  0
   11.3496   -3.2975    6.1426 H   0  0  0  0  0  0  0  0  0  0  0  0
    9.8952   -5.2429    5.3375 H   0  0  0  0  0  0  0  0  0  0  0  0
    8.6025   -4.6446    6.3629 H   0  0  0  0  0  0  0  0  0  0  0  0
   11.3525   -5.6086    7.3214 H   0  0  0  0  0  0  0  0  0  0  0  0
    9.8573   -6.5198    7.3543 H   0  0  0  0  0  0  0  0  0  0  0  0
    9.9059   -5.8267    9.5528 H   0  0  0  0  0  0  0  0  0  0  0  0
    8.9505   -4.5211    8.8737 H   0  0  0  0  0  0  0  0  0  0  0  0
   11.0696   -3.1017    8.7487 H   0  0  0  0  0  0  0  0  0  0  0  0
   11.9779   -4.4463    9.4258 H   0  0  0  0  0  0  0  0  0  0  0  0
  1  2  1  0  0  0  0
  2 21  1  0  0  0  0
  2 22  1  0  0  0  0
  2  3  1  0  0  0  0
  3  4  1  0  0  0  0
  3 24  1  0  0  0  0
  4  5  1  0  0  0  0
  4 26  1  0  0  0  0
  5  6  1  0  0  0  0
  5 27  1  0  0  0  0
  6  7  1  0  0  0  0
  6 30  1  0  0  0  0
  7  8  1  0  0  0  0
  7 31  1  0  0  0  0
  8  9  1  0  0  0  0
  9 35  1  0  0  0  0
  9 10  1  0  0  0  0
  9 36  1  0  0  0  0
 10 11  1  0  0  0  0
 11 40  1  0  0  0  0
 11 12  1  0  0  0  0
 11 39  1  0  0  0  0
 12 42  1  0  0  0  0
 12 13  1  0  0  0  0
 13 14  1  0  0  0  0
 14 46  1  0  0  0  0
 14 15  1  0  0  0  0
 14 45  1  0  0  0  0
 15 48  1  0  0  0  0
 15 16  1  0  0  0  0
 16 17  3  0  0  0  0
 18  1  1  0  0  0  0
 19  1  1  0  0  0  0
 20  1  1  0  0  0  0
 23  3  1  0  0  0  0
 25  4  1  0  0  0  0
 28  5  1  0  0  0  0
 29  6  1  0  0  0  0
 32  7  1  0  0  0  0
 33  8  1  0  0  0  0
 34  8  1  0  0  0  0
 37 10  1  0  0  0  0
 38 10  1  0  0  0  0
 41 12  1  0  0  0  0
 43 13  1  0  0  0  0
 44 13  1  0  0  0  0
 47 15  1  0  0  0  0
M  END
>  <HBA>
1

>  <HBD>
0

>  <TPSA>
23.79

>  <cid>
69424

>  <dipole>
4.29

>  <excitation_energy_1>
7.523

>  <excitation_energy_2>
7.581

>  <excitation_energy_3>
7.637

>  <excitation_energy_4>
7.695

>  <homo_energy>
-8.071

>  <homo_lumo_gap>
9.089

>  <logP>
5.991

>  <lumo_energy>
1.018

>  <melting_point>
0.7

>  <molecular_refractivity>
78.78

>  <oscillator_strength_1>
0.0012

>  <oscillator_strength_2>
0.0005

>  <oscillator_strength_3>
0.0044

>  <oscillator_strength_4>
0.0034

>  <open_babel_can_smiles>
CCCCCCCCCCCCCCCC#N

>  <mulliken_charges>
48
1   -0.443387
2   -0.250688
3   -0.25188
4   -0.256541
5   -0.254142
6   -0.254618
7   -0.255667
8   -0.254742
9   -0.257801
10   -0.256838
11   -0.261915
12   -0.2563
13   -0.26811
14   -0.262319
15   -0.346501
16   0.346043
17   -0.474176
18   0.141713
19   0.140567
20   0.144713
21   0.130695
22   0.134673
23   0.125738
24   0.126396
25   0.13034
26   0.126229
27   0.126725
28   0.132176
29   0.125408
30   0.130586
31   0.127341
32   0.127814
33   0.127305
34   0.12673
35   0.139059
36   0.126539
37   0.130136
38   0.129124
39   0.131956
40   0.126433
41   0.133488
42   0.139194
43   0.132628
44   0.142592
45   0.157986
46   0.157641
47   0.197901
48   0.189752

>  <lowdin_charges>
48
1   -0.446608
2   -0.273998
3   -0.277011
4   -0.279346
5   -0.277769
6   -0.277575
7   -0.276411
8   -0.275443
9   -0.279909
10   -0.275129
11   -0.279116
12   -0.275507
13   -0.275176
14   -0.268565
15   -0.277312
16   -0.018511
17   -0.132508
18   0.150542
19   0.145549
20   0.14484
21   0.140358
22   0.139294
23   0.139492
24   0.139677
25   0.13886
26   0.140581
27   0.138172
28   0.139313
29   0.137395
30   0.138218
31   0.138539
32   0.141143
33   0.140126
34   0.138195
35   0.14067
36   0.137693
37   0.141459
38   0.139177
39   0.138159
40   0.136707
41   0.143588
42   0.140113
43   0.138635
44   0.15018
45   0.156852
46   0.153464
47   0.181584
48   0.177319

$$$$

