PCCDB-ID:  11379
public computational chemistry database (PCCDB) project, http://pccdb.org

 19 20  0  0  1  0  0  0  0  0999 V2000
    2.4444    0.7139    0.0084 C   0  0  0  0  0  0  0  0  0  0  0  0
    2.4287   -0.6886    0.0245 C   0  0  0  0  0  0  0  0  0  0  0  0
    1.2421    1.4090   -0.0061 C   0  0  0  0  0  0  0  0  0  0  0  0
    1.2286   -1.3889    0.0260 C   0  0  0  0  0  0  0  0  0  0  0  0
   -1.2675    1.3982   -0.0211 C   0  0  0  0  0  0  0  0  0  0  0  0
   -2.4309    0.7076   -0.0210 C   0  0  0  0  0  0  0  0  0  0  0  0
    0.0126    0.7296   -0.0053 C   0  0  1  0  0  0  0  0  0  0  0  0
    0.0109   -0.6885    0.0113 C   0  0  0  0  0  0  0  0  0  0  0  0
   -2.4621   -0.7548   -0.0038 C   0  0  0  0  0  0  0  0  0  0  0  0
   -3.4861   -1.5379   -0.0011 N   0  0  0  0  0  0  0  0  0  0  0  0
   -1.1980   -1.3480    0.0122 N   0  0  0  0  0  0  0  0  0  0  0  0
    3.3881    1.2503    0.0074 H   0  0  0  0  0  0  0  0  0  0  0  0
    3.3647   -1.2404    0.0356 H   0  0  0  0  0  0  0  0  0  0  0  0
    1.2366    2.4964   -0.0193 H   0  0  0  0  0  0  0  0  0  0  0  0
    1.2226   -2.4760    0.0378 H   0  0  0  0  0  0  0  0  0  0  0  0
   -1.2776    2.4859   -0.0343 H   0  0  0  0  0  0  0  0  0  0  0  0
   -3.3883    1.2199   -0.0335 H   0  0  0  0  0  0  0  0  0  0  0  0
   -4.3451   -0.9861   -0.0140 H   0  0  0  0  0  0  0  0  0  0  0  0
   -1.2134   -2.3609    0.0250 H   0  0  0  0  0  0  0  0  0  0  0  0
  1  2  1  0  0  0  0
  2  4  1  0  0  0  0
  2 13  1  0  0  0  0
  3  7  1  0  0  0  0
  3  1  2  0  0  0  0
  4 15  1  0  0  0  0
  5  6  2  0  0  0  0
  6  9  1  0  0  0  0
  7  5  1  6  0  0  0
  7  8  1  0  0  0  0
  8 11  1  0  0  0  0
  8  4  2  0  0  0  0
  9 10  2  0  0  0  0
  9 11  1  0  0  0  0
 11 19  1  0  0  0  0
 12  1  1  0  0  0  0
 14  3  1  0  0  0  0
 16  5  1  0  0  0  0
 17  6  1  0  0  0  0
 18 10  1  0  0  0  0
M  RAD  2   2   2   7   2
M  END
>  <HBA>
2

>  <HBD>
1

>  <TPSA>
38.91

>  <cid>
11379

>  <dipole>
2.45

>  <excitation_energy_1>
3.532

>  <excitation_energy_2>
4.501

>  <excitation_energy_3>
4.792

>  <excitation_energy_4>
4.926

>  <homo_energy>
-5.355

>  <homo_lumo_gap>
4.065

>  <logP>
2.398

>  <lumo_energy>
-1.29

>  <melting_point>
113.31

>  <molecular_refractivity>
46.15

>  <oscillator_strength_1>
0.1029

>  <oscillator_strength_2>
0.0004

>  <oscillator_strength_3>
0.0017

>  <oscillator_strength_4>
0.0001

>  <open_babel_can_smiles>
N=C1C=C[C]2C(=C[CH]C=C2)N1

>  <mulliken_charges>
19
1   -0.135607
2   -0.134388
3   -0.212443
4   -0.177628
5   -0.13102
6   -0.200509
7   0.118227
8   0.369227
9   0.504175
10   -0.668229
11   -0.75679
12   0.130925
13   0.135553
14   0.133663
15   0.131801
16   0.143073
17   0.139106
18   0.27827
19   0.332595

>  <lowdin_charges>
19
1   -0.179608
2   -0.138486
3   -0.143638
4   -0.191591
5   -0.125645
6   -0.192868
7   -0.037578
8   0.070448
9   0.090242
10   -0.45937
11   -0.202965
12   0.160293
13   0.162008
14   0.157587
15   0.157441
16   0.162389
17   0.166239
18   0.252372
19   0.29273

$$$$

