PCCDB-ID:  21003
public computational chemistry database (PCCDB) project, http://pccdb.org

 27 28  0  0  1  0  0  0  0  0999 V2000
   -0.9337   -0.9359    0.1067 C   0  0  0  0  0  0  0  0  0  0  0  0
    0.6172   -1.0745    0.1136 C   0  0  0  0  0  0  0  0  0  0  0  0
    0.8811    3.5888   -2.5239 C   0  0  0  0  0  0  0  0  0  0  0  0
   -1.2217    0.5803    0.2189 C   0  0  0  0  0  0  0  0  0  0  0  0
    1.1642    0.3688    0.2282 C   0  0  0  0  0  0  0  0  0  0  0  0
    1.3094    2.1047   -2.4509 C   0  0  0  0  0  0  0  0  0  0  0  0
   -0.5895    3.5276   -2.9612 C   0  0  0  0  0  0  0  0  0  0  0  0
    0.0436    1.2750   -0.3354 C   0  0  0  0  0  0  0  0  0  0  0  0
    0.0766    1.3560   -1.8937 C   0  0  1  0  0  0  0  0  0  0  0  0
   -1.1043    2.1812   -2.4376 C   0  0  0  0  0  0  0  0  0  0  0  0
   -2.2636    1.8233   -2.4718 O   0  0  0  0  0  0  0  0  0  0  0  0
   -1.4040   -1.4945    0.9226 H   0  0  0  0  0  0  0  0  0  0  0  0
   -1.3512   -1.3352   -0.8242 H   0  0  0  0  0  0  0  0  0  0  0  0
    0.9661   -1.5461   -0.8123 H   0  0  0  0  0  0  0  0  0  0  0  0
    0.9773   -1.7035    0.9345 H   0  0  0  0  0  0  0  0  0  0  0  0
    1.5099    4.1730   -3.2029 H   0  0  0  0  0  0  0  0  0  0  0  0
    0.9612    4.0525   -1.5329 H   0  0  0  0  0  0  0  0  0  0  0  0
   -1.3331    0.8617    1.2741 H   0  0  0  0  0  0  0  0  0  0  0  0
   -2.1364    0.8745   -0.2999 H   0  0  0  0  0  0  0  0  0  0  0  0
    2.1309    0.4952   -0.2704 H   0  0  0  0  0  0  0  0  0  0  0  0
    1.3170    0.6276    1.2839 H   0  0  0  0  0  0  0  0  0  0  0  0
    2.2122    1.9612   -1.8502 H   0  0  0  0  0  0  0  0  0  0  0  0
    1.5350    1.7406   -3.4618 H   0  0  0  0  0  0  0  0  0  0  0  0
   -0.6826    3.5082   -4.0565 H   0  0  0  0  0  0  0  0  0  0  0  0
   -1.2201    4.3489   -2.6061 H   0  0  0  0  0  0  0  0  0  0  0  0
    0.1338    2.2946    0.0626 H   0  0  0  0  0  0  0  0  0  0  0  0
   -0.0073    0.3385   -2.2932 H   0  0  0  0  0  0  0  0  0  0  0  0
  1  2  1  0  0  0  0
  1  4  1  0  0  0  0
  1 12  1  0  0  0  0
  2  5  1  0  0  0  0
  2 15  1  0  0  0  0
  3  6  1  0  0  0  0
  3 17  1  0  0  0  0
  4 18  1  0  0  0  0
  5 21  1  0  0  0  0
  6  9  1  0  0  0  0
  6 22  1  0  0  0  0
  7 25  1  0  0  0  0
  7  3  1  0  0  0  0
  7 10  1  0  0  0  0
  8 26  1  0  0  0  0
  8  4  1  0  0  0  0
  8  5  1  0  0  0  0
  9 27  1  6  0  0  0
  9  8  1  0  0  0  0
 10  9  1  0  0  0  0
 11 10  2  0  0  0  0
 13  1  1  0  0  0  0
 14  2  1  0  0  0  0
 16  3  1  0  0  0  0
 19  4  1  0  0  0  0
 20  5  1  0  0  0  0
 23  6  1  0  0  0  0
 24  7  1  0  0  0  0
M  END
>  <HBA>
1

>  <HBD>
0

>  <TPSA>
17.07

>  <cid>
21003

>  <dipole>
2.63

>  <excitation_energy_1>
4.081

>  <excitation_energy_2>
5.893

>  <excitation_energy_3>
6.193

>  <excitation_energy_4>
6.375

>  <homo_energy>
-6.313

>  <homo_lumo_gap>
5.859

>  <logP>
2.546

>  <lumo_energy>
-0.454

>  <melting_point>
37.33

>  <molecular_refractivity>
46.16

>  <oscillator_strength_1>
0.0007

>  <oscillator_strength_2>
0.0135

>  <oscillator_strength_3>
0.0013

>  <oscillator_strength_4>
0.0002

>  <open_babel_can_smiles>
O=C1CCC[C@H]1C1CCCC1

>  <mulliken_charges>
27
1   -0.27564
2   -0.274436
3   -0.283664
4   -0.281734
5   -0.272187
6   -0.29253
7   -0.3519
8   -0.108227
9   -0.166416
10   0.446129
11   -0.455309
12   0.13609
13   0.144862
14   0.136107
15   0.136849
16   0.143964
17   0.14699
18   0.128424
19   0.174141
20   0.134272
21   0.135947
22   0.145093
23   0.140552
24   0.171429
25   0.170454
26   0.119744
27   0.150996

>  <lowdin_charges>
27
1   -0.289265
2   -0.290274
3   -0.284541
4   -0.289139
5   -0.282291
6   -0.283596
7   -0.314537
8   -0.124745
9   -0.16617
10   0.160379
11   -0.233242
12   0.147247
13   0.146492
14   0.141964
15   0.147185
16   0.151866
17   0.144904
18   0.139485
19   0.164373
20   0.142839
21   0.142793
22   0.150032
23   0.144851
24   0.16822
25   0.169525
26   0.136618
27   0.159027

$$$$

