PCCDB-ID:  14221
public computational chemistry database (PCCDB) project, http://pccdb.org

 30 29  0  0  0  0  0  0  0  0999 V2000
    1.1879   -1.1144    1.8619 C   0  0  0  0  0  0  0  0  0  0  0  0
    8.3901    4.1636    4.7107 C   0  0  0  0  0  0  0  0  0  0  0  0
    9.0864    3.1309    2.5945 C   0  0  0  0  0  0  0  0  0  0  0  0
    2.6421   -0.6612    2.0287 C   0  0  0  0  0  0  0  0  0  0  0  0
    3.0959    0.3049    0.9253 C   0  0  0  0  0  0  0  0  0  0  0  0
    4.5727    0.7269    1.0042 C   0  0  0  0  0  0  0  0  0  0  0  0
    4.9240    1.5788    2.2315 C   0  0  0  0  0  0  0  0  0  0  0  0
    6.3890    2.0246    2.2313 C   0  0  0  0  0  0  0  0  0  0  0  0
    6.7379    2.8687    3.4619 C   0  0  0  0  0  0  0  0  0  0  0  0
    8.0304    3.3357    3.5693 N   0  0  0  0  0  0  0  0  0  0  0  0
    5.8929    3.1128    4.3186 O   0  0  0  0  0  0  0  0  0  0  0  0
    0.8891   -1.8042    2.6596 H   0  0  0  0  0  0  0  0  0  0  0  0
    1.0398   -1.6287    0.9041 H   0  0  0  0  0  0  0  0  0  0  0  0
    0.5012   -0.2593    1.8875 H   0  0  0  0  0  0  0  0  0  0  0  0
    9.2231    3.7113    5.2653 H   0  0  0  0  0  0  0  0  0  0  0  0
    7.5205    4.2484    5.3606 H   0  0  0  0  0  0  0  0  0  0  0  0
    8.7004    5.1650    4.3813 H   0  0  0  0  0  0  0  0  0  0  0  0
    9.9809    2.7252    3.0863 H   0  0  0  0  0  0  0  0  0  0  0  0
    9.3702    4.0785    2.1133 H   0  0  0  0  0  0  0  0  0  0  0  0
    8.7814    2.4307    1.8187 H   0  0  0  0  0  0  0  0  0  0  0  0
    3.3022   -1.5410    2.0298 H   0  0  0  0  0  0  0  0  0  0  0  0
    2.7620   -0.1889    3.0122 H   0  0  0  0  0  0  0  0  0  0  0  0
    2.4609    1.2031    0.9466 H   0  0  0  0  0  0  0  0  0  0  0  0
    2.9175   -0.1686   -0.0510 H   0  0  0  0  0  0  0  0  0  0  0  0
    4.8262    1.2894    0.0937 H   0  0  0  0  0  0  0  0  0  0  0  0
    5.2057   -0.1737    0.9883 H   0  0  0  0  0  0  0  0  0  0  0  0
    4.7241    1.0288    3.1568 H   0  0  0  0  0  0  0  0  0  0  0  0
    4.2799    2.4658    2.2683 H   0  0  0  0  0  0  0  0  0  0  0  0
    6.6047    2.5988    1.3191 H   0  0  0  0  0  0  0  0  0  0  0  0
    7.0460    1.1439    2.1938 H   0  0  0  0  0  0  0  0  0  0  0  0
  1 14  1  0  0  0  0
  1  4  1  0  0  0  0
  1 12  1  0  0  0  0
  2 15  1  0  0  0  0
  2 16  1  0  0  0  0
  3 18  1  0  0  0  0
  3 10  1  0  0  0  0
  4 21  1  0  0  0  0
  4 22  1  0  0  0  0
  5 23  1  0  0  0  0
  5  6  1  0  0  0  0
  5  4  1  0  0  0  0
  6  7  1  0  0  0  0
  7 28  1  0  0  0  0
  7 27  1  0  0  0  0
  8  7  1  0  0  0  0
  8  9  1  0  0  0  0
  9 10  1  0  0  0  0
  9 11  2  0  0  0  0
 10  2  1  0  0  0  0
 13  1  1  0  0  0  0
 17  2  1  0  0  0  0
 19  3  1  0  0  0  0
 20  3  1  0  0  0  0
 24  5  1  0  0  0  0
 25  6  1  0  0  0  0
 26  6  1  0  0  0  0
 29  8  1  0  0  0  0
 30  8  1  0  0  0  0
M  END
>  <HBA>
2

>  <HBD>
0

>  <TPSA>
20.31

>  <cid>
14221

>  <dipole>
3.41

>  <excitation_energy_1>
5.662

>  <excitation_energy_2>
5.735

>  <excitation_energy_3>
6.096

>  <excitation_energy_4>
6.323

>  <homo_energy>
-6.338

>  <homo_lumo_gap>
7.285

>  <logP>
2.045

>  <lumo_energy>
0.947

>  <melting_point>
-4.53

>  <molecular_refractivity>
48.47

>  <oscillator_strength_1>
0.001

>  <oscillator_strength_2>
0.0188

>  <oscillator_strength_3>
0.0084

>  <oscillator_strength_4>
0.0054

>  <open_babel_can_smiles>
CCCCCCC(=O)N(C)C

>  <mulliken_charges>
30
1   -0.441476
2   -0.320898
3   -0.314999
4   -0.250031
5   -0.246946
6   -0.259923
7   -0.243252
8   -0.382496
9   0.605121
10   -0.411812
11   -0.520761
12   0.141228
13   0.139051
14   0.14229
15   0.147796
16   0.206097
17   0.147663
18   0.156984
19   0.155596
20   0.172062
21   0.126699
22   0.142543
23   0.128323
24   0.124447
25   0.122085
26   0.121949
27   0.155652
28   0.147848
29   0.153878
30   0.155281

>  <lowdin_charges>
30
1   -0.445323
2   -0.357506
3   -0.35431
4   -0.274731
5   -0.274766
6   -0.277596
7   -0.271359
8   -0.310014
9   0.162207
10   -0.112953
11   -0.316277
12   0.149797
13   0.144671
14   0.147212
15   0.14746
16   0.185912
17   0.145119
18   0.151422
19   0.147884
20   0.167214
21   0.137386
22   0.143282
23   0.138776
24   0.138518
25   0.137573
26   0.134974
27   0.153465
28   0.15113
29   0.155023
30   0.155812

$$$$

