PCCDB-ID:  39383
public computational chemistry database (PCCDB) project, http://pccdb.org

 27 28  0  0  1  0  0  0  0  0999 V2000
    1.1297    0.0646    0.6329 C   0  0  0  0  0  0  0  0  0  0  0  0
    4.0391   -0.9055   -1.6580 C   0  0  0  0  0  0  0  0  0  0  0  0
    2.6138   -1.1168   -1.1268 C   0  0  0  0  0  0  0  0  0  0  0  0
    4.2957    0.6159   -1.5039 C   0  0  0  0  0  0  0  0  0  0  0  0
    2.4953    3.0841   -1.8528 C   0  0  0  0  0  0  0  0  0  0  0  0
    2.9269    4.1630   -0.8652 C   0  0  0  0  0  0  0  0  0  0  0  0
    3.7675    2.0322    0.6132 C   0  0  0  0  0  0  0  0  0  0  0  0
    2.5290   -0.1269    0.0464 C   0  0  1  0  0  0  0  0  0  0  0  0
    3.2106    1.1567   -0.5189 C   0  0  2  0  0  0  0  0  0  0  0  0
    2.1629    1.8549   -1.2250 O   0  0  0  0  0  0  0  0  0  0  0  0
    4.4344    3.6482    0.0450 S   0  0  0  0  0  0  0  0  0  0  0  0
    0.7512   -0.8864    1.0258 H   0  0  0  0  0  0  0  0  0  0  0  0
    0.4331    0.4260   -0.1278 H   0  0  0  0  0  0  0  0  0  0  0  0
    1.1279    0.7857    1.4587 H   0  0  0  0  0  0  0  0  0  0  0  0
    4.1684   -1.2477   -2.6901 H   0  0  0  0  0  0  0  0  0  0  0  0
    4.7485   -1.4730   -1.0423 H   0  0  0  0  0  0  0  0  0  0  0  0
    2.4131   -2.1508   -0.8238 H   0  0  0  0  0  0  0  0  0  0  0  0
    1.8724   -0.8404   -1.8872 H   0  0  0  0  0  0  0  0  0  0  0  0
    4.2005    1.1222   -2.4681 H   0  0  0  0  0  0  0  0  0  0  0  0
    5.3073    0.8305   -1.1448 H   0  0  0  0  0  0  0  0  0  0  0  0
    3.2807    2.9475   -2.6107 H   0  0  0  0  0  0  0  0  0  0  0  0
    1.5785    3.3937   -2.3684 H   0  0  0  0  0  0  0  0  0  0  0  0
    2.1222    4.3728   -0.1512 H   0  0  0  0  0  0  0  0  0  0  0  0
    3.1738    5.0896   -1.3932 H   0  0  0  0  0  0  0  0  0  0  0  0
    4.5938    1.5205    1.1158 H   0  0  0  0  0  0  0  0  0  0  0  0
    2.9848    2.2236    1.3556 H   0  0  0  0  0  0  0  0  0  0  0  0
    3.1942   -0.5008    0.8413 H   0  0  0  0  0  0  0  0  0  0  0  0
  1 12  1  0  0  0  0
  1 14  1  0  0  0  0
  2  4  1  0  0  0  0
  2  3  1  0  0  0  0
  2 16  1  0  0  0  0
  3 17  1  0  0  0  0
  3  8  1  0  0  0  0
  4 20  1  0  0  0  0
  4  9  1  0  0  0  0
  5 10  1  0  0  0  0
  5  6  1  0  0  0  0
  6 23  1  0  0  0  0
  6 11  1  0  0  0  0
  7 25  1  0  0  0  0
  7 26  1  0  0  0  0
  8  1  1  0  0  0  0
  8 27  1  1  0  0  0
  9 10  1  6  0  0  0
  9  8  1  0  0  0  0
  9  7  1  0  0  0  0
 11  7  1  0  0  0  0
 13  1  1  0  0  0  0
 15  2  1  0  0  0  0
 18  3  1  0  0  0  0
 19  4  1  0  0  0  0
 21  5  1  0  0  0  0
 22  5  1  0  0  0  0
 24  6  1  0  0  0  0
M  END
>  <HBA>
2

>  <HBD>
0

>  <TPSA>
34.53

>  <cid>
39383

>  <dipole>
0.79

>  <excitation_energy_1>
5.102

>  <excitation_energy_2>
5.408

>  <excitation_energy_3>
5.716

>  <excitation_energy_4>
5.799

>  <homo_energy>
-5.872

>  <homo_lumo_gap>
6.882

>  <logP>
2.309

>  <lumo_energy>
1.01

>  <melting_point>
27.64

>  <molecular_refractivity>
49.86

>  <oscillator_strength_1>
0.0014

>  <oscillator_strength_2>
0.016

>  <oscillator_strength_3>
0.017

>  <oscillator_strength_4>
0.0175

>  <open_babel_can_smiles>
C[C@H]1CCC[C@@]21CSCCO2

>  <mulliken_charges>
27
1   -0.446739
2   -0.280339
3   -0.266356
4   -0.29455
5   -0.023359
6   -0.423846
7   -0.458318
8   -0.101894
9   0.346852
10   -0.509648
11   0.080021
12   0.137007
13   0.165024
14   0.136945
15   0.136166
16   0.133835
17   0.131253
18   0.14544
19   0.150634
20   0.146692
21   0.137216
22   0.148097
23   0.174752
24   0.171307
25   0.169693
26   0.174823
27   0.119291

>  <lowdin_charges>
27
1   -0.445917
2   -0.281484
3   -0.280832
4   -0.296235
5   -0.138379
6   -0.391412
7   -0.388506
8   -0.13076
9   0.113988
10   -0.274498
11   0.087883
12   0.148455
13   0.160279
14   0.146566
15   0.145418
16   0.142178
17   0.142873
18   0.148104
19   0.155273
20   0.152068
21   0.13533
22   0.151633
23   0.159472
24   0.17105
25   0.169376
26   0.159568
27   0.138508

$$$$

