PCCDB-ID:  24306
public computational chemistry database (PCCDB) project, http://pccdb.org

 24 24  0  0  1  0  0  0  0  0999 V2000
    3.1241   -1.8603    0.1391 C   0  0  0  0  0  0  0  0  0  0  0  0
    1.1361   -0.0824    2.8593 C   0  0  0  0  0  0  0  0  0  0  0  0
    2.6284   -0.4077    0.1139 C   0  0  0  0  0  0  0  0  0  0  0  0
    2.6561    0.0042    2.6807 C   0  0  0  0  0  0  0  0  0  0  0  0
    3.0949    0.4921    1.2831 C   0  0  0  0  0  0  0  0  0  0  0  0
    4.6205    0.6972    1.2639 C   0  0  1  0  0  0  0  0  0  0  0  0
    5.6745    2.6454    1.6019 C   0  0  0  0  0  0  0  0  0  0  0  0
    6.1697    3.6554    2.1717 N   0  0  0  0  0  0  0  0  0  0  0  0
    5.0906    1.2591   -0.0200 N   0  0  0  0  0  0  0  0  0  0  0  0
    5.6689    2.3451    0.1730 N   0  0  0  0  0  0  0  0  0  0  0  0
    5.0430    1.6368    2.2509 O   0  0  0  0  0  0  0  0  0  0  0  0
    2.7107   -2.4121   -0.7121 H   0  0  0  0  0  0  0  0  0  0  0  0
    2.8181   -2.3874    1.0497 H   0  0  0  0  0  0  0  0  0  0  0  0
    4.2156   -1.9260    0.0632 H   0  0  0  0  0  0  0  0  0  0  0  0
    0.8874   -0.3434    3.8937 H   0  0  0  0  0  0  0  0  0  0  0  0
    0.6840   -0.8416    2.2119 H   0  0  0  0  0  0  0  0  0  0  0  0
    0.6552    0.8776    2.6355 H   0  0  0  0  0  0  0  0  0  0  0  0
    1.5322   -0.4043    0.1098 H   0  0  0  0  0  0  0  0  0  0  0  0
    2.9382    0.0589   -0.8273 H   0  0  0  0  0  0  0  0  0  0  0  0
    3.1073   -0.9761    2.8862 H   0  0  0  0  0  0  0  0  0  0  0  0
    3.0661    0.6921    3.4280 H   0  0  0  0  0  0  0  0  0  0  0  0
    2.6593    1.4896    1.1235 H   0  0  0  0  0  0  0  0  0  0  0  0
    5.1538   -0.2484    1.4248 H   0  0  0  0  0  0  0  0  0  0  0  0
    6.5890    4.2614    1.4640 H   0  0  0  0  0  0  0  0  0  0  0  0
  1 13  1  0  0  0  0
  2 15  1  0  0  0  0
  3  1  1  0  0  0  0
  3  5  1  0  0  0  0
  4  2  1  0  0  0  0
  4 20  1  0  0  0  0
  4 21  1  0  0  0  0
  5  4  1  0  0  0  0
  6  5  1  0  0  0  0
  6 23  1  1  0  0  0
  6 11  1  0  0  0  0
  7  8  1  0  0  0  0
  7 11  1  0  0  0  0
  9 10  1  0  0  0  0
  9  6  1  0  0  0  0
 10  7  2  0  0  0  0
 12  1  1  0  0  0  0
 14  1  1  0  0  0  0
 16  2  1  0  0  0  0
 17  2  1  0  0  0  0
 18  3  1  0  0  0  0
 19  3  1  0  0  0  0
 22  5  1  0  0  0  0
 24  8  1  0  0  0  0
M  RAD  2   8   2   9   2
M  END
>  <HBA>
4

>  <HBD>
1

>  <TPSA>
57.8

>  <cid>
24306

>  <dipole>
2.84

>  <excitation_energy_1>
3.421

>  <excitation_energy_2>
4.518

>  <excitation_energy_3>
4.854

>  <excitation_energy_4>
5.629

>  <homo_energy>
-7.276

>  <homo_lumo_gap>
4.898

>  <logP>
1.137

>  <lumo_energy>
-2.378

>  <melting_point>
33.22

>  <molecular_refractivity>
49.83

>  <oscillator_strength_1>
0.0034

>  <oscillator_strength_2>
0.1337

>  <oscillator_strength_3>
0.0012

>  <oscillator_strength_4>
0.0009

>  <open_babel_can_smiles>
CCC([C@H]1[N]N=C(O1)[NH])CC

>  <mulliken_charges>
24
1   -0.460196
2   -0.45366
3   -0.273347
4   -0.267644
5   -0.087248
6   0.191919
7   0.628746
8   -0.598787
9   -0.155119
10   -0.221569
11   -0.45627
12   0.154512
13   0.151225
14   0.149877
15   0.152334
16   0.14999
17   0.148533
18   0.146447
19   0.165185
20   0.136663
21   0.167559
22   0.137161
23   0.178411
24   0.315278

>  <lowdin_charges>
24
1   -0.450131
2   -0.445717
3   -0.278219
4   -0.280422
5   -0.132902
6   0.01823
7   0.11706
8   -0.360948
9   -0.052801
10   -0.081951
11   -0.168036
12   0.158608
13   0.150035
14   0.146501
15   0.155258
16   0.150232
17   0.150403
18   0.148543
19   0.15799
20   0.142337
21   0.160497
22   0.149161
23   0.165633
24   0.280639

$$$$

