PCCDB-ID:  12985
public computational chemistry database (PCCDB) project, http://pccdb.org

 21 20  0  0  0  0  0  0  0  0999 V2000
    4.7550    0.0583    2.1305 C   0  0  0  0  0  0  0  0  0  0  0  0
    1.6780   -1.1773    2.7875 C   0  0  0  0  0  0  0  0  0  0  0  0
    1.3449   -2.8490    0.9588 C   0  0  0  0  0  0  0  0  0  0  0  0
    3.3940   -3.0207    2.3807 C   0  0  0  0  0  0  0  0  0  0  0  0
    3.9944   -0.3723    0.8871 C   0  0  0  0  0  0  0  0  0  0  0  0
    2.4051   -2.0316    1.7272 C   0  0  0  0  0  0  0  0  0  0  0  0
    3.0583   -1.1986    0.7057 N   0  0  0  0  0  0  0  0  0  0  0  0
    4.4322    0.2799   -0.2448 O   0  0  0  0  0  0  0  0  0  0  0  0
    4.4133   -0.4436    3.0324 H   0  0  0  0  0  0  0  0  0  0  0  0
    4.6468    1.1403    2.2805 H   0  0  0  0  0  0  0  0  0  0  0  0
    5.8249   -0.1547    2.0074 H   0  0  0  0  0  0  0  0  0  0  0  0
    1.0760   -1.8174    3.4429 H   0  0  0  0  0  0  0  0  0  0  0  0
    1.0059   -0.4639    2.2983 H   0  0  0  0  0  0  0  0  0  0  0  0
    2.3675   -0.6117    3.4219 H   0  0  0  0  0  0  0  0  0  0  0  0
    0.7887   -3.5116    1.6327 H   0  0  0  0  0  0  0  0  0  0  0  0
    1.8241   -3.4570    0.1846 H   0  0  0  0  0  0  0  0  0  0  0  0
    0.6365   -2.1772    0.4633 H   0  0  0  0  0  0  0  0  0  0  0  0
    2.8554   -3.7338    3.0155 H   0  0  0  0  0  0  0  0  0  0  0  0
    4.1422   -2.5234    3.0058 H   0  0  0  0  0  0  0  0  0  0  0  0
    3.9233   -3.5876    1.6070 H   0  0  0  0  0  0  0  0  0  0  0  0
    5.1480    0.8882   -0.0050 H   0  0  0  0  0  0  0  0  0  0  0  0
  1 10  1  0  0  0  0
  1  9  1  0  0  0  0
  2 14  1  0  0  0  0
  2 12  1  0  0  0  0
  3 15  1  0  0  0  0
  3  6  1  0  0  0  0
  4 19  1  0  0  0  0
  4 18  1  0  0  0  0
  5  1  1  0  0  0  0
  6  4  1  0  0  0  0
  6  2  1  0  0  0  0
  7  5  2  0  0  0  0
  7  6  1  0  0  0  0
  8 21  1  0  0  0  0
  8  5  1  0  0  0  0
 11  1  1  0  0  0  0
 13  2  1  0  0  0  0
 16  3  1  0  0  0  0
 17  3  1  0  0  0  0
 20  4  1  0  0  0  0
M  END
>  <HBA>
2

>  <HBD>
1

>  <TPSA>
29.1

>  <cid>
12985

>  <dipole>
3.41

>  <excitation_energy_1>
5.37

>  <excitation_energy_2>
5.547

>  <excitation_energy_3>
5.905

>  <excitation_energy_4>
6.185

>  <homo_energy>
-6.245

>  <homo_lumo_gap>
6.98

>  <logP>
1.312

>  <lumo_energy>
0.735

>  <melting_point>
33.03

>  <molecular_refractivity>
34.0

>  <oscillator_strength_1>
0.0006

>  <oscillator_strength_2>
0.0206

>  <oscillator_strength_3>
0.0005

>  <oscillator_strength_4>
0.0157

>  <open_babel_can_smiles>
C/C(=N\C(C)(C)C)/O

>  <mulliken_charges>
21
1   -0.560687
2   -0.450641
3   -0.424167
4   -0.450875
5   0.490176
6   0.195653
7   -0.417903
8   -0.578948
9   0.183042
10   0.170309
11   0.170957
12   0.141101
13   0.153677
14   0.132958
15   0.124093
16   0.147173
17   0.147254
18   0.141125
19   0.13292
20   0.153654
21   0.399132

>  <lowdin_charges>
21
1   -0.484002
2   -0.454162
3   -0.444544
4   -0.453948
5   0.132871
6   0.07416
7   -0.201316
8   -0.378249
9   0.172229
10   0.165274
11   0.165768
12   0.152027
13   0.156706
14   0.144559
15   0.140631
16   0.154365
17   0.154549
18   0.151918
19   0.144375
20   0.156705
21   0.350086

$$$$

