PCCDB-ID:  48374
public computational chemistry database (PCCDB) project, http://pccdb.org

 24 24  0  0  0  0  0  0  0  0999 V2000
    2.7331   -1.5778    0.8415 C   0  0  0  0  0  0  0  0  0  0  0  0
    5.0116    2.6295    2.3529 C   0  0  0  0  0  0  0  0  0  0  0  0
    5.5061    1.3471    2.5653 C   0  0  0  0  0  0  0  0  0  0  0  0
    3.4779    1.7396    0.7020 C   0  0  0  0  0  0  0  0  0  0  0  0
    3.9887    2.8412    1.4148 C   0  0  0  0  0  0  0  0  0  0  0  0
    4.9955    0.2576    1.8522 C   0  0  0  0  0  0  0  0  0  0  0  0
    3.9605    0.4569    0.9089 C   0  0  0  0  0  0  0  0  0  0  0  0
    3.4076    4.1714    1.1551 C   0  0  0  0  0  0  0  0  0  0  0  0
    3.8188    5.3969    2.0198 C   0  0  0  0  0  0  0  0  0  0  0  0
    5.4631   -1.0100    2.0132 O   0  0  0  0  0  0  0  0  0  0  0  0
    2.5991    4.3723    0.2508 O   0  0  0  0  0  0  0  0  0  0  0  0
    5.1992    5.6720    1.8245 O   0  0  0  0  0  0  0  0  0  0  0  0
    3.0110    6.4715    1.6817 O   0  0  0  0  0  0  0  0  0  0  0  0
    3.4802   -0.5746    0.1453 O   0  0  0  0  0  0  0  0  0  0  0  0
    2.3878   -2.2768    0.0769 H   0  0  0  0  0  0  0  0  0  0  0  0
    1.8653   -1.1348    1.3475 H   0  0  0  0  0  0  0  0  0  0  0  0
    3.3535   -2.1087    1.5700 H   0  0  0  0  0  0  0  0  0  0  0  0
    5.4480    3.4643    2.8882 H   0  0  0  0  0  0  0  0  0  0  0  0
    6.3100    1.1848    3.2812 H   0  0  0  0  0  0  0  0  0  0  0  0
    2.6921    1.8940   -0.0295 H   0  0  0  0  0  0  0  0  0  0  0  0
    3.7271    5.1746    3.0890 H   0  0  0  0  0  0  0  0  0  0  0  0
    6.1765   -1.0029    2.6711 H   0  0  0  0  0  0  0  0  0  0  0  0
    5.2729    6.0933    0.9514 H   0  0  0  0  0  0  0  0  0  0  0  0
    2.5094    6.1721    0.8922 H   0  0  0  0  0  0  0  0  0  0  0  0
  1 16  1  0  0  0  0
  1 17  1  0  0  0  0
  2  3  1  0  0  0  0
  2 18  1  0  0  0  0
  3 19  1  0  0  0  0
  4  7  2  0  0  0  0
  4  5  1  0  0  0  0
  5  2  2  0  0  0  0
  6 10  1  0  0  0  0
  6  3  2  0  0  0  0
  7  6  1  0  0  0  0
  8  5  1  0  0  0  0
  8  9  1  0  0  0  0
  9 21  1  0  0  0  0
 10 22  1  0  0  0  0
 11  8  2  0  0  0  0
 12  9  1  0  0  0  0
 13  9  1  0  0  0  0
 14  1  1  0  0  0  0
 14  7  1  0  0  0  0
 15  1  1  0  0  0  0
 20  4  1  0  0  0  0
 23 12  1  0  0  0  0
 24 13  1  0  0  0  0
M  END
>  <HBA>
5

>  <HBD>
3

>  <TPSA>
86.99

>  <cid>
48374

>  <dipole>
4.4

>  <excitation_energy_1>
3.836

>  <excitation_energy_2>
4.177

>  <excitation_energy_3>
4.586

>  <excitation_energy_4>
5.085

>  <homo_energy>
-6.433

>  <homo_lumo_gap>
4.659

>  <logP>
-0.106

>  <lumo_energy>
-1.774

>  <melting_point>
122.53

>  <molecular_refractivity>
47.48

>  <oscillator_strength_1>
0.0026

>  <oscillator_strength_2>
0.1085

>  <oscillator_strength_3>
0.2177

>  <oscillator_strength_4>
0.0005

>  <open_babel_can_smiles>
COc1cc(ccc1O)C(=O)C(O)O

>  <mulliken_charges>
24
1   -0.216897
2   -0.1736
3   -0.209103
4   -0.2157
5   0.077107
6   0.333883
7   0.338271
8   0.343142
9   0.260515
10   -0.626797
11   -0.492089
12   -0.597912
13   -0.622316
14   -0.518415
15   0.165805
16   0.14403
17   0.166381
18   0.173098
19   0.132426
20   0.171447
21   0.146234
22   0.416667
23   0.391156
24   0.412665

>  <lowdin_charges>
24
1   -0.278646
2   -0.134959
3   -0.209988
4   -0.13734
5   -0.063179
6   0.098078
7   0.066439
8   0.129024
9   0.064668
10   -0.356141
11   -0.257413
12   -0.450642
13   -0.440209
14   -0.218203
15   0.161463
16   0.142097
17   0.152913
18   0.180863
19   0.159884
20   0.185992
21   0.144062
22   0.364816
23   0.345142
24   0.351277

$$$$

