PCCDB-ID:  15308
public computational chemistry database (PCCDB) project, http://pccdb.org

 18 17  0  0  0  0  0  0  0  0999 V2000
    1.5175   -2.6317    2.0191 C   0  0  0  0  0  0  0  0  0  0  0  0
    2.3958   -2.2046    1.1052 C   0  0  0  0  0  0  0  0  0  0  0  0
    3.0240   -0.8361    1.0715 C   0  0  0  0  0  0  0  0  0  0  0  0
    4.5637   -0.8677    0.9591 C   0  0  0  0  0  0  0  0  0  0  0  0
    5.2856   -1.6771    2.0597 C   0  0  0  0  0  0  0  0  0  0  0  0
    5.0201   -1.1298    3.4580 C   0  0  0  0  0  0  0  0  0  0  0  0
    5.7193   -0.3123    4.0035 O   0  0  0  0  0  0  0  0  0  0  0  0
    3.8967   -1.5906    4.0723 O   0  0  0  0  0  0  0  0  0  0  0  0
    1.0891   -3.6296    1.9786 H   0  0  0  0  0  0  0  0  0  0  0  0
    1.1667   -1.9840    2.8211 H   0  0  0  0  0  0  0  0  0  0  0  0
    2.6967   -2.8862    0.3066 H   0  0  0  0  0  0  0  0  0  0  0  0
    2.7175   -0.2670    1.9572 H   0  0  0  0  0  0  0  0  0  0  0  0
    2.6371   -0.2877    0.2003 H   0  0  0  0  0  0  0  0  0  0  0  0
    4.9407    0.1614    0.9722 H   0  0  0  0  0  0  0  0  0  0  0  0
    4.8475   -1.2955   -0.0112 H   0  0  0  0  0  0  0  0  0  0  0  0
    6.3649   -1.6225    1.8955 H   0  0  0  0  0  0  0  0  0  0  0  0
    4.9908   -2.7326    2.0016 H   0  0  0  0  0  0  0  0  0  0  0  0
    3.4249   -2.2124    3.4873 H   0  0  0  0  0  0  0  0  0  0  0  0
  1 10  1  0  0  0  0
  2  1  2  0  0  0  0
  3  2  1  0  0  0  0
  3 12  1  0  0  0  0
  4 14  1  0  0  0  0
  4  3  1  0  0  0  0
  4  5  1  0  0  0  0
  5  6  1  0  0  0  0
  6  7  2  0  0  0  0
  6  8  1  0  0  0  0
  9  1  1  0  0  0  0
 11  2  1  0  0  0  0
 13  3  1  0  0  0  0
 15  4  1  0  0  0  0
 16  5  1  0  0  0  0
 17  5  1  0  0  0  0
 18  8  1  0  0  0  0
M  END
>  <HBA>
2

>  <HBD>
1

>  <TPSA>
37.3

>  <cid>
15308

>  <dipole>
4.73

>  <excitation_energy_1>
5.568

>  <excitation_energy_2>
6.206

>  <excitation_energy_3>
6.67

>  <excitation_energy_4>
6.733

>  <homo_energy>
-7.113

>  <homo_lumo_gap>
6.914

>  <logP>
1.427

>  <lumo_energy>
-0.199

>  <melting_point>
30.0

>  <molecular_refractivity>
32.25

>  <oscillator_strength_1>
0.0009

>  <oscillator_strength_2>
0.0043

>  <oscillator_strength_3>
0.0319

>  <oscillator_strength_4>
0.0028

>  <open_babel_can_smiles>
C=CCCCC(=O)O

>  <mulliken_charges>
18
1   -0.370795
2   -0.056347
3   -0.324042
4   -0.27136
5   -0.366545
6   0.581552
7   -0.442536
8   -0.578785
9   0.153553
10   0.161437
11   0.136956
12   0.164348
13   0.161614
14   0.166547
15   0.147346
16   0.178274
17   0.147578
18   0.411206

>  <lowdin_charges>
18
1   -0.353746
2   -0.145443
3   -0.286632
4   -0.267427
5   -0.315556
6   0.193552
7   -0.245668
8   -0.369276
9   0.164139
10   0.164953
11   0.155022
12   0.157508
13   0.163088
14   0.158847
15   0.149353
16   0.172941
17   0.15068
18   0.353665

$$$$

