PCCDB-ID:  33826
public computational chemistry database (PCCDB) project, http://pccdb.org

 32 32  0  0  1  0  0  0  0  0999 V2000
    2.1690    2.2133   -2.8814 C   0  0  0  0  0  0  0  0  0  0  0  0
    3.4124    5.8331   -0.1706 C   0  0  0  0  0  0  0  0  0  0  0  0
    4.1528    7.0875   -2.2466 C   0  0  0  0  0  0  0  0  0  0  0  0
    9.3449    2.5954   -0.6878 C   0  0  0  0  0  0  0  0  0  0  0  0
    3.1264    1.2941   -2.7302 C   0  0  0  0  0  0  0  0  0  0  0  0
    3.6231    0.7670   -1.4016 C   0  0  0  0  0  0  0  0  0  0  0  0
    4.1984    5.7552   -1.4901 C   0  0  0  0  0  0  0  0  0  0  0  0
    7.8577    2.6844   -0.8890 C   0  0  1  0  0  0  0  0  0  0  0  0
    5.7788    1.7306   -1.2276 C   0  0  0  0  0  0  0  0  0  0  0  0
    5.9783    4.2120   -1.1403 C   0  0  0  0  0  0  0  0  0  0  0  0
    5.0757    0.6632   -1.3108 N   0  0  0  0  0  0  0  0  0  0  0  0
    5.5970    5.4261   -1.2265 N   0  0  0  0  0  0  0  0  0  0  0  0
    7.1593    1.6123   -1.0606 N   0  0  0  0  0  0  0  0  0  0  0  0
    7.3241    3.9515   -0.8661 N   0  0  0  0  0  0  0  0  0  0  0  0
    5.2436    3.0422   -1.2745 N   0  0  0  0  0  0  0  0  0  0  0  0
    1.8366    2.5384   -3.8637 H   0  0  0  0  0  0  0  0  0  0  0  0
    1.6596    2.6563   -2.0264 H   0  0  0  0  0  0  0  0  0  0  0  0
    2.3689    6.1160   -0.3525 H   0  0  0  0  0  0  0  0  0  0  0  0
    3.8633    6.5818    0.4901 H   0  0  0  0  0  0  0  0  0  0  0  0
    3.4214    4.8717    0.3553 H   0  0  0  0  0  0  0  0  0  0  0  0
    3.1199    7.3746   -2.4751 H   0  0  0  0  0  0  0  0  0  0  0  0
    4.7096    7.0166   -3.1867 H   0  0  0  0  0  0  0  0  0  0  0  0
    4.6107    7.8793   -1.6431 H   0  0  0  0  0  0  0  0  0  0  0  0
    9.6436    1.5475   -0.7154 H   0  0  0  0  0  0  0  0  0  0  0  0
    9.6344    3.0278    0.2779 H   0  0  0  0  0  0  0  0  0  0  0  0
    9.8794    3.1446   -1.4727 H   0  0  0  0  0  0  0  0  0  0  0  0
    3.6095    0.8630   -3.6070 H   0  0  0  0  0  0  0  0  0  0  0  0
    3.2274   -0.2478   -1.2616 H   0  0  0  0  0  0  0  0  0  0  0  0
    3.2010    1.3790   -0.5851 H   0  0  0  0  0  0  0  0  0  0  0  0
    3.7146    4.9993   -2.1361 H   0  0  0  0  0  0  0  0  0  0  0  0
    7.9046    4.7733   -0.7647 H   0  0  0  0  0  0  0  0  0  0  0  0
    4.2945    3.1380   -1.6116 H   0  0  0  0  0  0  0  0  0  0  0  0
  1  5  2  0  0  0  0
  1 17  1  0  0  0  0
  2 20  1  0  0  0  0
  2 19  1  0  0  0  0
  3 23  1  0  0  0  0
  3  7  1  0  0  0  0
  4 25  1  0  0  0  0
  5  6  1  0  0  0  0
  6 11  1  0  0  0  0
  6 28  1  0  0  0  0
  6 29  1  0  0  0  0
  7 12  1  0  0  0  0
  7  2  1  0  0  0  0
  8 14  1  0  0  0  0
  8  4  1  1  0  0  0
  9 13  2  0  0  0  0
 10 14  1  0  0  0  0
 11  9  1  0  0  0  0
 12 10  2  0  0  0  0
 13  8  1  0  0  0  0
 14 31  1  0  0  0  0
 15  9  1  0  0  0  0
 15 10  1  0  0  0  0
 16  1  1  0  0  0  0
 18  2  1  0  0  0  0
 21  3  1  0  0  0  0
 22  3  1  0  0  0  0
 24  4  1  0  0  0  0
 26  4  1  0  0  0  0
 27  5  1  0  0  0  0
 30  7  1  0  0  0  0
 32 15  1  0  0  0  0
M  RAD  2   8   2  11   2
M  END
>  <HBA>
5

>  <HBD>
2

>  <TPSA>
62.73

>  <cid>
33826

>  <dipole>
2.74

>  <excitation_energy_1>
4.801

>  <excitation_energy_2>
4.849

>  <excitation_energy_3>
5.037

>  <excitation_energy_4>
5.359

>  <homo_energy>
-6.177

>  <homo_lumo_gap>
5.581

>  <logP>
1.744

>  <lumo_energy>
-0.596

>  <melting_point>
101.53

>  <molecular_refractivity>
62.16

>  <oscillator_strength_1>
0.0039

>  <oscillator_strength_2>
0.0606

>  <oscillator_strength_3>
0.0812

>  <oscillator_strength_4>
0.029

>  <open_babel_can_smiles>
C=CC[N]C1=N[C](C)N/C(=N/C(C)C)/N1

>  <mulliken_charges>
32
1   -0.352292
2   -0.435186
3   -0.428588
4   -0.534929
5   -0.066429
6   -0.214072
7   0.007677
8   0.517023
9   0.633425
10   0.739715
11   -0.453533
12   -0.50033
13   -0.485763
14   -0.667608
15   -0.735575
16   0.148807
17   0.141882
18   0.139988
19   0.155109
20   0.140974
21   0.133494
22   0.146537
23   0.149512
24   0.204704
25   0.17435
26   0.173069
27   0.14942
28   0.168141
29   0.132504
30   0.110519
31   0.345875
32   0.361582

>  <lowdin_charges>
32
1   -0.355951
2   -0.449792
3   -0.442857
4   -0.450258
5   -0.151643
6   -0.210908
7   -0.057249
8   0.119954
9   0.125802
10   0.134205
11   -0.224507
12   -0.263984
13   -0.197512
14   -0.232862
15   -0.274134
16   0.162678
17   0.1559
18   0.148174
19   0.156498
20   0.147377
21   0.14472
22   0.152618
23   0.154027
24   0.186938
25   0.169784
26   0.170243
27   0.162851
28   0.161434
29   0.135769
30   0.120773
31   0.303806
32   0.298103

$$$$

