PCCDB-ID:  25042
public computational chemistry database (PCCDB) project, http://pccdb.org

 22 22  0  0  0  0  0  0  0  0999 V2000
    3.0549   -1.6303   -0.4394 C   0  0  0  0  0  0  0  0  0  0  0  0
    0.7503   -0.6135    2.3319 C   0  0  0  0  0  0  0  0  0  0  0  0
    2.5481   -0.2032   -0.1990 C   0  0  0  0  0  0  0  0  0  0  0  0
    2.2755   -0.4567    2.3567 C   0  0  0  0  0  0  0  0  0  0  0  0
    2.6121    1.8942    1.3134 C   0  0  0  0  0  0  0  0  0  0  0  0
    4.3463    0.7634    1.4002 C   0  0  0  0  0  0  0  0  0  0  0  0
    2.8587    0.3649    1.1956 C   0  0  0  0  0  0  0  0  0  0  0  0
    4.0186    2.1666    1.4931 O   0  0  0  0  0  0  0  0  0  0  0  0
    2.8863   -1.9315   -1.4792 H   0  0  0  0  0  0  0  0  0  0  0  0
    2.5459   -2.3594    0.2006 H   0  0  0  0  0  0  0  0  0  0  0  0
    4.1313   -1.7109   -0.2436 H   0  0  0  0  0  0  0  0  0  0  0  0
    0.3991   -1.1282    3.2330 H   0  0  0  0  0  0  0  0  0  0  0  0
    0.4113   -1.1956    1.4679 H   0  0  0  0  0  0  0  0  0  0  0  0
    0.2486    0.3614    2.2931 H   0  0  0  0  0  0  0  0  0  0  0  0
    1.4644   -0.1642   -0.3740 H   0  0  0  0  0  0  0  0  0  0  0  0
    2.9960    0.4667   -0.9455 H   0  0  0  0  0  0  0  0  0  0  0  0
    2.7466   -1.4490    2.3724 H   0  0  0  0  0  0  0  0  0  0  0  0
    2.5701    0.0284    3.2973 H   0  0  0  0  0  0  0  0  0  0  0  0
    2.0208    2.2145    2.1828 H   0  0  0  0  0  0  0  0  0  0  0  0
    2.2120    2.3818    0.4136 H   0  0  0  0  0  0  0  0  0  0  0  0
    5.0154    0.5565    0.5532 H   0  0  0  0  0  0  0  0  0  0  0  0
    4.8148    0.3904    2.3217 H   0  0  0  0  0  0  0  0  0  0  0  0
  1 11  1  0  0  0  0
  1  3  1  0  0  0  0
  1 10  1  0  0  0  0
  2  4  1  0  0  0  0
  2 12  1  0  0  0  0
  3  7  1  0  0  0  0
  4 17  1  0  0  0  0
  4 18  1  0  0  0  0
  5  8  1  0  0  0  0
  5 19  1  0  0  0  0
  6  8  1  0  0  0  0
  6 22  1  0  0  0  0
  7  5  1  0  0  0  0
  7  6  1  0  0  0  0
  7  4  1  0  0  0  0
  9  1  1  0  0  0  0
 13  2  1  0  0  0  0
 14  2  1  0  0  0  0
 15  3  1  0  0  0  0
 16  3  1  0  0  0  0
 20  5  1  0  0  0  0
 21  6  1  0  0  0  0
M  END
>  <HBA>
1

>  <HBD>
0

>  <TPSA>
9.23

>  <cid>
25042

>  <dipole>
2.16

>  <excitation_energy_1>
6.204

>  <excitation_energy_2>
6.373

>  <excitation_energy_3>
6.473

>  <excitation_energy_4>
6.675

>  <homo_energy>
-6.544

>  <homo_lumo_gap>
8.417

>  <logP>
1.823

>  <lumo_energy>
1.872

>  <melting_point>
5.09

>  <molecular_refractivity>
34.47

>  <oscillator_strength_1>
0.0155

>  <oscillator_strength_2>
0.0004

>  <oscillator_strength_3>
0.0005

>  <oscillator_strength_4>
0.0007

>  <open_babel_can_smiles>
CCC1(CC)COC1

>  <mulliken_charges>
22
1   -0.454649
2   -0.454789
3   -0.284704
4   -0.284664
5   -0.015732
6   -0.015713
7   0.055046
8   -0.502785
9   0.148246
10   0.149456
11   0.146378
12   0.14828
13   0.149461
14   0.14643
15   0.138301
16   0.139153
17   0.138337
18   0.138978
19   0.12848
20   0.128984
21   0.128643
22   0.128862

>  <lowdin_charges>
22
1   -0.446926
2   -0.449428
3   -0.27541
4   -0.275657
5   -0.126629
6   -0.127156
7   -0.013932
8   -0.306674
9   0.1527
10   0.150299
11   0.146391
12   0.154256
13   0.149724
14   0.147859
15   0.14206
16   0.146878
17   0.143496
18   0.145648
19   0.135585
20   0.135794
21   0.135487
22   0.135633

$$$$

