PCCDB-ID:  71918
public computational chemistry database (PCCDB) project, http://pccdb.org

 28 28  0  0  0  0  0  0  0  0999 V2000
    0.2434    0.7568   -0.7929 C   0  0  0  0  0  0  0  0  0  0  0  0
    5.8708    2.8909   -2.9161 C   0  0  0  0  0  0  0  0  0  0  0  0
    4.5384   -4.8643   -2.0332 C   0  0  0  0  0  0  0  0  0  0  0  0
    4.9128   -3.3974   -2.1757 C   0  0  0  0  0  0  0  0  0  0  0  0
    3.5952    1.4938   -2.0170 C   0  0  0  0  0  0  0  0  0  0  0  0
    2.5736   -0.6595   -1.5071 C   0  0  0  0  0  0  0  0  0  0  0  0
    4.8709   -0.5614   -2.3171 C   0  0  0  0  0  0  0  0  0  0  0  0
    2.4997    0.7281   -1.5774 C   0  0  0  0  0  0  0  0  0  0  0  0
    4.7683    0.8411   -2.3804 C   0  0  0  0  0  0  0  0  0  0  0  0
    3.7720   -1.2925   -1.8830 C   0  0  0  0  0  0  0  0  0  0  0  0
    3.4526   -5.2105   -2.8738 O   0  0  0  0  0  0  0  0  0  0  0  0
    1.3948    1.4550   -1.2388 O   0  0  0  0  0  0  0  0  0  0  0  0
    5.8947    1.4757   -2.8184 O   0  0  0  0  0  0  0  0  0  0  0  0
    3.7573   -2.6576   -1.7787 O   0  0  0  0  0  0  0  0  0  0  0  0
   -0.5092    1.5208   -0.5886 H   0  0  0  0  0  0  0  0  0  0  0  0
    0.4452    0.1911    0.1262 H   0  0  0  0  0  0  0  0  0  0  0  0
   -0.1351    0.0705   -1.5618 H   0  0  0  0  0  0  0  0  0  0  0  0
    6.8577    3.1821   -3.2807 H   0  0  0  0  0  0  0  0  0  0  0  0
    5.6908    3.3592   -1.9396 H   0  0  0  0  0  0  0  0  0  0  0  0
    5.1055    3.2328   -3.6251 H   0  0  0  0  0  0  0  0  0  0  0  0
    4.3169   -5.0790   -0.9754 H   0  0  0  0  0  0  0  0  0  0  0  0
    5.3865   -5.4881   -2.3340 H   0  0  0  0  0  0  0  0  0  0  0  0
    5.1638   -3.1697   -3.2200 H   0  0  0  0  0  0  0  0  0  0  0  0
    5.7715   -3.1425   -1.5385 H   0  0  0  0  0  0  0  0  0  0  0  0
    3.4852    2.5695   -2.0553 H   0  0  0  0  0  0  0  0  0  0  0  0
    1.7490   -1.2746   -1.1716 H   0  0  0  0  0  0  0  0  0  0  0  0
    5.8053   -1.0220   -2.6094 H   0  0  0  0  0  0  0  0  0  0  0  0
    2.7473   -4.5744   -2.6707 H   0  0  0  0  0  0  0  0  0  0  0  0
  1 15  1  0  0  0  0
  1 16  1  0  0  0  0
  2 13  1  0  0  0  0
  2 19  1  0  0  0  0
  3 21  1  0  0  0  0
  4  3  1  0  0  0  0
  4 14  1  0  0  0  0
  4 24  1  0  0  0  0
  5  8  2  0  0  0  0
  6 26  1  0  0  0  0
  7 10  1  0  0  0  0
  8  6  1  0  0  0  0
  8 12  1  0  0  0  0
  9  7  2  0  0  0  0
  9  5  1  0  0  0  0
 10 14  1  0  0  0  0
 10  6  2  0  0  0  0
 11 28  1  0  0  0  0
 11  3  1  0  0  0  0
 12  1  1  0  0  0  0
 13  9  1  0  0  0  0
 17  1  1  0  0  0  0
 18  2  1  0  0  0  0
 20  2  1  0  0  0  0
 22  3  1  0  0  0  0
 23  4  1  0  0  0  0
 25  5  1  0  0  0  0
 27  7  1  0  0  0  0
M  END
>  <HBA>
4

>  <HBD>
1

>  <TPSA>
47.92

>  <cid>
71918

>  <dipole>
1.93

>  <excitation_energy_1>
5.065

>  <excitation_energy_2>
5.446

>  <excitation_energy_3>
5.493

>  <excitation_energy_4>
5.632

>  <homo_energy>
-5.755

>  <homo_lumo_gap>
6.316

>  <logP>
1.075

>  <lumo_energy>
0.561

>  <melting_point>
38.59

>  <molecular_refractivity>
51.89

>  <oscillator_strength_1>
0.0001

>  <oscillator_strength_2>
0.0024

>  <oscillator_strength_3>
0.0011

>  <oscillator_strength_4>
0.004

>  <open_babel_can_smiles>
OCCOc1cc(OC)cc(c1)OC

>  <mulliken_charges>
28
1   -0.21257
2   -0.213034
3   -0.0407
4   -0.050181
5   -0.262903
6   -0.267213
7   -0.261019
8   0.385766
9   0.38569
10   0.391855
11   -0.617589
12   -0.512859
13   -0.512843
14   -0.54796
15   0.168338
16   0.15328
17   0.152801
18   0.167928
19   0.153736
20   0.154081
21   0.133825
22   0.149882
23   0.154747
24   0.141361
25   0.135735
26   0.130069
27   0.138662
28   0.401114

>  <lowdin_charges>
28
1   -0.279585
2   -0.276707
3   -0.137765
4   -0.146329
5   -0.259705
6   -0.265951
7   -0.260475
8   0.119227
9   0.11847
10   0.120858
11   -0.465846
12   -0.197471
13   -0.19835
14   -0.214008
15   0.163016
16   0.146061
17   0.14711
18   0.161528
19   0.146247
20   0.147563
21   0.132402
22   0.153762
23   0.146283
24   0.14466
25   0.168754
26   0.168727
27   0.171233
28   0.34629

$$$$

