PCCDB-ID:  18713
public computational chemistry database (PCCDB) project, http://pccdb.org

 20 19  0  0  1  0  0  0  0  0999 V2000
    0.6428   -1.0895    1.5345 C   0  0  0  0  0  0  0  0  0  0  0  0
    4.2493   -1.4427    2.2659 C   0  0  0  0  0  0  0  0  0  0  0  0
    2.9888   -1.3262    1.4190 C   0  0  0  0  0  0  0  0  0  0  0  0
    4.2553   -2.6584    3.2030 C   0  0  1  0  0  0  0  0  0  0  0  0
    5.6869   -3.0231    3.6589 C   0  0  0  0  0  0  0  0  0  0  0  0
    3.3961   -2.5691    4.3998 N   0  0  0  0  0  0  0  0  0  0  0  0
    6.6707   -2.8530    2.9767 O   0  0  0  0  0  0  0  0  0  0  0  0
    5.7256   -3.5889    4.8750 O   0  0  0  0  0  0  0  0  0  0  0  0
    1.8465   -1.2381    2.2618 O   0  0  0  0  0  0  0  0  0  0  0  0
   -0.1701   -1.0219    2.2621 H   0  0  0  0  0  0  0  0  0  0  0  0
    0.4598   -1.9488    0.8699 H   0  0  0  0  0  0  0  0  0  0  0  0
    0.6525   -0.1744    0.9221 H   0  0  0  0  0  0  0  0  0  0  0  0
    4.3823   -0.5266    2.8575 H   0  0  0  0  0  0  0  0  0  0  0  0
    5.1148   -1.5177    1.5988 H   0  0  0  0  0  0  0  0  0  0  0  0
    2.8950   -2.2029    0.7540 H   0  0  0  0  0  0  0  0  0  0  0  0
    3.0490   -0.4337    0.7743 H   0  0  0  0  0  0  0  0  0  0  0  0
    3.9075   -3.5362    2.6381 H   0  0  0  0  0  0  0  0  0  0  0  0
    3.5081   -1.6450    4.8197 H   0  0  0  0  0  0  0  0  0  0  0  0
    2.4219   -2.6081    4.1065 H   0  0  0  0  0  0  0  0  0  0  0  0
    4.7882   -3.5621    5.1965 H   0  0  0  0  0  0  0  0  0  0  0  0
  1  9  1  0  0  0  0
  1 10  1  0  0  0  0
  2 13  1  0  0  0  0
  2  4  1  0  0  0  0
  3  9  1  0  0  0  0
  3  2  1  0  0  0  0
  4 17  1  6  0  0  0
  4  5  1  0  0  0  0
  4  6  1  0  0  0  0
  5  8  1  0  0  0  0
  6 18  1  0  0  0  0
  7  5  2  0  0  0  0
  8 20  1  0  0  0  0
 11  1  1  0  0  0  0
 12  1  1  0  0  0  0
 14  2  1  0  0  0  0
 15  3  1  0  0  0  0
 16  3  1  0  0  0  0
 19  6  1  0  0  0  0
M  END
>  <HBA>
4

>  <HBD>
2

>  <TPSA>
72.55

>  <cid>
18713

>  <dipole>
5.7

>  <excitation_energy_1>
5.496

>  <excitation_energy_2>
6.281

>  <excitation_energy_3>
6.584

>  <excitation_energy_4>
6.669

>  <homo_energy>
-6.814

>  <homo_lumo_gap>
7.309

>  <logP>
0.135

>  <lumo_energy>
0.495

>  <melting_point>
96.56

>  <molecular_refractivity>
31.71

>  <oscillator_strength_1>
0.001

>  <oscillator_strength_2>
0.0046

>  <oscillator_strength_3>
0.0085

>  <oscillator_strength_4>
0.0449

>  <open_babel_can_smiles>
COCC[C@@H](C(=O)O)N

>  <mulliken_charges>
20
1   -0.196103
2   -0.283138
3   -0.026669
4   -0.094675
5   0.608857
6   -0.760714
7   -0.467597
8   -0.582929
9   -0.4731
10   0.160718
11   0.136287
12   0.138578
13   0.14539
14   0.182738
15   0.12556
16   0.131424
17   0.173826
18   0.315297
19   0.334739
20   0.431513

>  <lowdin_charges>
20
1   -0.282099
2   -0.293084
3   -0.131755
4   -0.109369
5   0.176986
6   -0.543306
7   -0.259603
8   -0.355811
9   -0.28214
10   0.157221
11   0.135737
12   0.136833
13   0.150692
14   0.177095
15   0.128054
16   0.134754
17   0.165906
18   0.262689
19   0.272698
20   0.358503

$$$$

