PCCDB-ID:  8794
public computational chemistry database (PCCDB) project, http://pccdb.org

 16 16  0  0  0  0  0  0  0  0999 V2000
   -1.4997    0.0999    0.0476 C   0  0  0  0  0  0  0  0  0  0  0  0
   -0.8208    1.3182   -0.0097 C   0  0  0  0  0  0  0  0  0  0  0  0
   -0.7807   -1.0961    0.0116 C   0  0  0  0  0  0  0  0  0  0  0  0
    0.5711    1.3398   -0.1030 C   0  0  0  0  0  0  0  0  0  0  0  0
    0.6113   -1.0730   -0.0815 C   0  0  0  0  0  0  0  0  0  0  0  0
    2.8177    0.1693   -0.2356 C   0  0  0  0  0  0  0  0  0  0  0  0
    3.4722    0.2024    1.0807 C   0  0  0  0  0  0  0  0  0  0  0  0
    1.2971    0.1447   -0.1401 C   0  0  0  0  0  0  0  0  0  0  0  0
    3.9820    0.2287    2.1231 N   0  0  0  0  0  0  0  0  0  0  0  0
   -2.5838    0.0824    0.1166 H   0  0  0  0  0  0  0  0  0  0  0  0
   -1.3737    2.2532    0.0175 H   0  0  0  0  0  0  0  0  0  0  0  0
   -1.3023   -2.0482    0.0548 H   0  0  0  0  0  0  0  0  0  0  0  0
    1.0962    2.2912   -0.1472 H   0  0  0  0  0  0  0  0  0  0  0  0
    1.1677   -2.0070   -0.1082 H   0  0  0  0  0  0  0  0  0  0  0  0
    3.1826   -0.7128   -0.7754 H   0  0  0  0  0  0  0  0  0  0  0  0
    3.1522    1.0454   -0.8043 H   0  0  0  0  0  0  0  0  0  0  0  0
  1 10  1  0  0  0  0
  2 11  1  0  0  0  0
  2  1  2  0  0  0  0
  3  1  1  0  0  0  0
  3 12  1  0  0  0  0
  4  2  1  0  0  0  0
  5  3  2  0  0  0  0
  6  8  1  0  0  0  0
  6  7  1  0  0  0  0
  7  9  3  0  0  0  0
  8  4  2  0  0  0  0
  8  5  1  0  0  0  0
 13  4  1  0  0  0  0
 14  5  1  0  0  0  0
 15  6  1  0  0  0  0
 16  6  1  0  0  0  0
M  END
>  <HBA>
1

>  <HBD>
0

>  <TPSA>
23.79

>  <cid>
8794

>  <dipole>
4.03

>  <excitation_energy_1>
5.31

>  <excitation_energy_2>
5.897

>  <excitation_energy_3>
6.247

>  <excitation_energy_4>
6.275

>  <homo_energy>
-7.059

>  <homo_lumo_gap>
6.566

>  <logP>
1.753

>  <lumo_energy>
-0.493

>  <melting_point>
40.39

>  <molecular_refractivity>
35.96

>  <oscillator_strength_1>
0.0002

>  <oscillator_strength_2>
0.0207

>  <oscillator_strength_3>
0.0172

>  <oscillator_strength_4>
0.0306

>  <open_babel_can_smiles>
N#CCc1ccccc1

>  <mulliken_charges>
16
1   -0.1256
2   -0.126904
3   -0.126706
4   -0.166706
5   -0.167113
6   -0.443045
7   0.36788
8   0.163115
9   -0.464081
10   0.13711
11   0.138271
12   0.138197
13   0.135437
14   0.135315
15   0.202361
16   0.20247

>  <lowdin_charges>
16
1   -0.148476
2   -0.149581
3   -0.149386
4   -0.158974
5   -0.159356
6   -0.270717
7   -0.015784
8   -0.001232
9   -0.125423
10   0.159519
11   0.162329
12   0.162132
13   0.160277
14   0.16038
15   0.187117
16   0.187175

$$$$

