PCCDB-ID:  31236
public computational chemistry database (PCCDB) project, http://pccdb.org

 20 20  0  0  0  0  0  0  0  0999 V2000
   -2.1027    0.0352    0.1413 C   0  0  0  0  0  0  0  0  0  0  0  0
   -1.3997    1.2007   -0.1543 C   0  0  0  0  0  0  0  0  0  0  0  0
   -1.3942   -1.1468    0.3826 C   0  0  0  0  0  0  0  0  0  0  0  0
   -0.0023    1.2027   -0.2142 C   0  0  0  0  0  0  0  0  0  0  0  0
   -0.0049   -1.1615    0.3273 C   0  0  0  0  0  0  0  0  0  0  0  0
    4.2915    0.5670   -0.3643 C   0  0  0  0  0  0  0  0  0  0  0  0
    2.8481    1.0447   -0.3376 C   0  0  0  0  0  0  0  0  0  0  0  0
    0.6964    0.0150    0.0275 C   0  0  0  0  0  0  0  0  0  0  0  0
    4.4943   -0.4336   -1.3451 O   0  0  0  0  0  0  0  0  0  0  0  0
    2.0612   -0.0979   -0.0001 O   0  0  0  0  0  0  0  0  0  0  0  0
   -3.1878    0.0439    0.1846 H   0  0  0  0  0  0  0  0  0  0  0  0
   -1.9357    2.1271   -0.3437 H   0  0  0  0  0  0  0  0  0  0  0  0
   -1.9278   -2.0647    0.6150 H   0  0  0  0  0  0  0  0  0  0  0  0
    0.5227    2.1220   -0.4468 H   0  0  0  0  0  0  0  0  0  0  0  0
    0.5598   -2.0701    0.5128 H   0  0  0  0  0  0  0  0  0  0  0  0
    4.5728    0.2138    0.6408 H   0  0  0  0  0  0  0  0  0  0  0  0
    4.9471    1.4047   -0.6238 H   0  0  0  0  0  0  0  0  0  0  0  0
    2.5571    1.4241   -1.3263 H   0  0  0  0  0  0  0  0  0  0  0  0
    2.7101    1.8423    0.4066 H   0  0  0  0  0  0  0  0  0  0  0  0
    3.8387   -1.1259   -1.1599 H   0  0  0  0  0  0  0  0  0  0  0  0
  1 11  1  0  0  0  0
  1  3  2  0  0  0  0
  2  1  1  0  0  0  0
  3 13  1  0  0  0  0
  4  2  2  0  0  0  0
  4  8  1  0  0  0  0
  5  3  1  0  0  0  0
  5 15  1  0  0  0  0
  6  7  1  0  0  0  0
  6 16  1  0  0  0  0
  7 10  1  0  0  0  0
  7 19  1  0  0  0  0
  8  5  2  0  0  0  0
  9 20  1  0  0  0  0
  9  6  1  0  0  0  0
 10  8  1  0  0  0  0
 12  2  1  0  0  0  0
 14  4  1  0  0  0  0
 17  6  1  0  0  0  0
 18  7  1  0  0  0  0
M  END
>  <HBA>
2

>  <HBD>
1

>  <TPSA>
29.46

>  <cid>
31236

>  <dipole>
1.62

>  <excitation_energy_1>
5.078

>  <excitation_energy_2>
5.645

>  <excitation_energy_3>
5.783

>  <excitation_energy_4>
5.919

>  <homo_energy>
-6.055

>  <homo_lumo_gap>
6.006

>  <logP>
1.058

>  <lumo_energy>
-0.049

>  <melting_point>
26.37

>  <molecular_refractivity>
38.9

>  <oscillator_strength_1>
0.0305

>  <oscillator_strength_2>
0.001

>  <oscillator_strength_3>
0.0846

>  <oscillator_strength_4>
0.0028

>  <open_babel_can_smiles>
OCCOc1ccccc1

>  <mulliken_charges>
20
1   -0.132323
2   -0.137329
3   -0.132564
4   -0.192154
5   -0.174575
6   -0.040401
7   -0.052478
8   0.380735
9   -0.616592
10   -0.540518
11   0.127395
12   0.131319
13   0.131799
14   0.134717
15   0.133414
16   0.135407
17   0.150242
18   0.1527
19   0.139336
20   0.401872

>  <lowdin_charges>
20
1   -0.174495
2   -0.145627
3   -0.146191
4   -0.213132
5   -0.185142
6   -0.138711
7   -0.147846
8   0.104936
9   -0.464766
10   -0.215222
11   0.155667
12   0.15875
13   0.159627
14   0.163171
15   0.164594
16   0.134244
17   0.153947
18   0.145831
19   0.143387
20   0.34698

$$$$

