PCCDB-ID:  66354
public computational chemistry database (PCCDB) project, http://pccdb.org

 11 11  0  0  0  0  0  0  0  0999 V2000
    0.9075    0.0431    0.0593 C   0  0  0  0  0  0  0  0  0  0  0  0
    3.2171   -1.0152    0.0598 C   0  0  0  0  0  0  0  0  0  0  0  0
    3.2000    1.1374    0.0606 C   0  0  0  0  0  0  0  0  0  0  0  0
    4.4668   -0.6221    0.0600 N   0  0  0  0  0  0  0  0  0  0  0  0
    4.4560    0.7621    0.0605 N   0  0  0  0  0  0  0  0  0  0  0  0
    2.3620    0.0545    0.0603 N   0  0  0  0  0  0  0  0  0  0  0  0
    0.5626   -0.9927    0.0515 H   0  0  0  0  0  0  0  0  0  0  0  0
    0.5177    0.5491   -0.8291 H   0  0  0  0  0  0  0  0  0  0  0  0
    0.5162    0.5363    0.9543 H   0  0  0  0  0  0  0  0  0  0  0  0
    2.8745   -2.0410    0.0595 H   0  0  0  0  0  0  0  0  0  0  0  0
    2.8455    2.1592    0.0612 H   0  0  0  0  0  0  0  0  0  0  0  0
  1  6  1  0  0  0  0
  1  9  1  0  0  0  0
  2  4  2  0  0  0  0
  2  6  1  0  0  0  0
  3 11  1  0  0  0  0
  4  5  1  0  0  0  0
  5  3  2  0  0  0  0
  6  3  1  0  0  0  0
  7  1  1  0  0  0  0
  8  1  1  0  0  0  0
 10  2  1  0  0  0  0
M  END
>  <HBA>
3

>  <HBD>
0

>  <TPSA>
30.71

>  <cid>
66354

>  <dipole>
6.09

>  <excitation_energy_1>
5.74

>  <excitation_energy_2>
6.171

>  <excitation_energy_3>
6.308

>  <excitation_energy_4>
6.443

>  <homo_energy>
-6.784

>  <homo_lumo_gap>
7.227

>  <logP>
-0.185

>  <lumo_energy>
0.444

>  <melting_point>
36.49

>  <molecular_refractivity>
21.28

>  <oscillator_strength_1>
0.0002

>  <oscillator_strength_2>
0.0

>  <oscillator_strength_3>
0.0

>  <oscillator_strength_4>
0.0125

>  <open_babel_can_smiles>
Cn1cnnc1

>  <mulliken_charges>
11
1   -0.328669
2   0.206957
3   0.206806
4   -0.30008
5   -0.300137
6   -0.376568
7   0.182843
8   0.186573
9   0.186597
10   0.168036
11   0.167642

>  <lowdin_charges>
11
1   -0.343744
2   -0.109736
3   -0.110879
4   -0.139834
5   -0.136309
6   -0.017393
7   0.17232
8   0.169431
9   0.169298
10   0.17319
11   0.173654

$$$$

