PCCDB-ID:  51575
public computational chemistry database (PCCDB) project, http://pccdb.org

 36 37  0  0  0  0  0  0  0  0999 V2000
    3.6588    3.3356    3.4183 C   0  0  0  0  0  0  0  0  0  0  0  0
    0.8750    1.0245    4.0675 C   0  0  0  0  0  0  0  0  0  0  0  0
    3.7376    1.9567    4.0980 C   0  0  0  0  0  0  0  0  0  0  0  0
    1.8526    0.8927    2.8986 C   0  0  0  0  0  0  0  0  0  0  0  0
    9.5891    0.8089    0.1505 C   0  0  0  0  0  0  0  0  0  0  0  0
    8.9734    1.4913    1.2201 C   0  0  0  0  0  0  0  0  0  0  0  0
    9.0717   -0.3881   -0.3281 C   0  0  0  0  0  0  0  0  0  0  0  0
    7.8298    0.9900    1.8308 C   0  0  0  0  0  0  0  0  0  0  0  0
    7.1253   -2.1015    0.0524 C   0  0  0  0  0  0  0  0  0  0  0  0
    6.1109   -2.0750    0.9725 C   0  0  0  0  0  0  0  0  0  0  0  0
    4.1669    0.3983    2.2572 C   0  0  0  0  0  0  0  0  0  0  0  0
    5.2598   -0.5475    2.7934 C   0  0  0  0  0  0  0  0  0  0  0  0
    7.9158   -0.9227    0.2683 C   0  0  0  0  0  0  0  0  0  0  0  0
    7.3118   -0.2184    1.3492 C   0  0  0  0  0  0  0  0  0  0  0  0
    3.2535    0.8054    3.3240 N   0  0  0  0  0  0  0  0  0  0  0  0
    6.2126   -0.9472    1.7707 N   0  0  0  0  0  0  0  0  0  0  0  0
    4.1017    4.0983    4.0693 H   0  0  0  0  0  0  0  0  0  0  0  0
    2.6236    3.6335    3.2187 H   0  0  0  0  0  0  0  0  0  0  0  0
    4.2022    3.3564    2.4671 H   0  0  0  0  0  0  0  0  0  0  0  0
   -0.1545    0.9402    3.7022 H   0  0  0  0  0  0  0  0  0  0  0  0
    0.9614    1.9896    4.5781 H   0  0  0  0  0  0  0  0  0  0  0  0
    1.0486    0.2316    4.8030 H   0  0  0  0  0  0  0  0  0  0  0  0
    3.1854    1.9899    5.0440 H   0  0  0  0  0  0  0  0  0  0  0  0
    4.7791    1.7520    4.3726 H   0  0  0  0  0  0  0  0  0  0  0  0
    1.6757    1.7149    2.1794 H   0  0  0  0  0  0  0  0  0  0  0  0
    1.6261   -0.0359    2.3618 H   0  0  0  0  0  0  0  0  0  0  0  0
   10.4814    1.2302   -0.3044 H   0  0  0  0  0  0  0  0  0  0  0  0
    9.3976    2.4277    1.5723 H   0  0  0  0  0  0  0  0  0  0  0  0
    9.5535   -0.9079   -1.1525 H   0  0  0  0  0  0  0  0  0  0  0  0
    7.3586    1.5237    2.6514 H   0  0  0  0  0  0  0  0  0  0  0  0
    7.2966   -2.8750   -0.6839 H   0  0  0  0  0  0  0  0  0  0  0  0
    5.3087   -2.7809    1.1432 H   0  0  0  0  0  0  0  0  0  0  0  0
    3.6004   -0.1425    1.4915 H   0  0  0  0  0  0  0  0  0  0  0  0
    4.6427    1.2488    1.7413 H   0  0  0  0  0  0  0  0  0  0  0  0
    4.7894   -1.4466    3.2021 H   0  0  0  0  0  0  0  0  0  0  0  0
    5.8114   -0.0777    3.6146 H   0  0  0  0  0  0  0  0  0  0  0  0
  1 17  1  0  0  0  0
  1  3  1  0  0  0  0
  2 21  1  0  0  0  0
  2 22  1  0  0  0  0
  3 24  1  0  0  0  0
  3 23  1  0  0  0  0
  4 15  1  0  0  0  0
  4  2  1  0  0  0  0
  5  6  1  0  0  0  0
  6 28  1  0  0  0  0
  6  8  2  0  0  0  0
  7  5  2  0  0  0  0
  7 13  1  0  0  0  0
  8 30  1  0  0  0  0
  9 13  1  0  0  0  0
  9 10  2  0  0  0  0
 10 32  1  0  0  0  0
 10 16  1  0  0  0  0
 11 12  1  0  0  0  0
 11 15  1  0  0  0  0
 12 35  1  0  0  0  0
 12 36  1  0  0  0  0
 13 14  2  0  0  0  0
 14 16  1  0  0  0  0
 14  8  1  0  0  0  0
 15  3  1  0  0  0  0
 16 12  1  0  0  0  0
 18  1  1  0  0  0  0
 19  1  1  0  0  0  0
 20  2  1  0  0  0  0
 25  4  1  0  0  0  0
 26  4  1  0  0  0  0
 27  5  1  0  0  0  0
 29  7  1  0  0  0  0
 31  9  1  0  0  0  0
 33 11  1  0  0  0  0
 34 11  1  0  0  0  0
M  END
>  <HBA>
2

>  <HBD>
0

>  <TPSA>
8.17

>  <cid>
51575

>  <dipole>
2.56

>  <excitation_energy_1>
4.495

>  <excitation_energy_2>
4.764

>  <excitation_energy_3>
4.835

>  <excitation_energy_4>
4.99

>  <homo_energy>
-5.233

>  <homo_lumo_gap>
5.2

>  <logP>
2.983

>  <lumo_energy>
-0.033

>  <melting_point>
50.13

>  <molecular_refractivity>
70.13

>  <oscillator_strength_1>
0.0899

>  <oscillator_strength_2>
0.0167

>  <oscillator_strength_3>
0.0302

>  <oscillator_strength_4>
0.0015

>  <open_babel_can_smiles>
CCN(CCn1ccc2c1cccc2)CC

>  <mulliken_charges>
36
1   -0.460306
2   -0.457734
3   -0.14157
4   -0.111977
5   -0.136969
6   -0.155078
7   -0.20914
8   -0.165346
9   -0.239602
10   0.034313
11   -0.129998
12   -0.157255
13   0.113312
14   0.298563
15   -0.382904
16   -0.497591
17   0.14568
18   0.1509
19   0.15355
20   0.145908
21   0.149586
22   0.155823
23   0.147575
24   0.136721
25   0.118811
26   0.138111
27   0.11763
28   0.119338
29   0.122256
30   0.12072
31   0.126662
32   0.144099
33   0.143449
34   0.141206
35   0.161104
36   0.160154

>  <lowdin_charges>
36
1   -0.466177
2   -0.45154
3   -0.202848
4   -0.196963
5   -0.17802
6   -0.16701
7   -0.162546
8   -0.193618
9   -0.228387
10   -0.12792
11   -0.212633
12   -0.201986
13   -0.026698
14   0.023817
15   -0.193931
16   -0.025505
17   0.155799
18   0.149428
19   0.151223
20   0.15392
21   0.149101
22   0.155374
23   0.146315
24   0.140761
25   0.120291
26   0.144116
27   0.153757
28   0.153864
29   0.156034
30   0.154746
31   0.162888
32   0.162659
33   0.151158
34   0.135711
35   0.159436
36   0.155385

$$$$

