PCCDB-ID:  57055
public computational chemistry database (PCCDB) project, http://pccdb.org

 24 25  0  0  0  0  0  0  0  0999 V2000
    0.9748   -0.5402    0.0335 C   0  0  0  0  0  0  0  0  0  0  0  0
    5.3428    4.8736    0.0290 C   0  0  0  0  0  0  0  0  0  0  0  0
    5.6983    2.0622    0.0731 C   0  0  0  0  0  0  0  0  0  0  0  0
    5.8480    0.6764    0.0837 C   0  0  0  0  0  0  0  0  0  0  0  0
    3.2599    1.8818    0.0457 C   0  0  0  0  0  0  0  0  0  0  0  0
    2.4686   -0.6164    0.0519 C   0  0  0  0  0  0  0  0  0  0  0  0
    4.4166    2.6624    0.0538 C   0  0  0  0  0  0  0  0  0  0  0  0
    3.3985    0.4884    0.0570 C   0  0  0  0  0  0  0  0  0  0  0  0
    4.6867   -0.0810    0.0752 C   0  0  0  0  0  0  0  0  0  0  0  0
    3.2758   -1.7241    0.0678 C   0  0  0  0  0  0  0  0  0  0  0  0
    2.9262   -3.1082    0.0712 N   0  0  0  0  0  0  0  0  0  0  0  0
    1.7142   -3.3647    0.0477 O   0  0  0  0  0  0  0  0  0  0  0  0
    3.8335   -3.9382    0.0973 O   0  0  0  0  0  0  0  0  0  0  0  0
    4.2143    4.0133    0.0440 O   0  0  0  0  0  0  0  0  0  0  0  0
    4.6112   -1.4475    0.0822 O   0  0  0  0  0  0  0  0  0  0  0  0
    0.6440    0.5019    0.0360 H   0  0  0  0  0  0  0  0  0  0  0  0
    0.5438   -1.0500    0.9007 H   0  0  0  0  0  0  0  0  0  0  0  0
    0.5663   -1.0381   -0.8516 H   0  0  0  0  0  0  0  0  0  0  0  0
    4.9418    5.8883    0.0065 H   0  0  0  0  0  0  0  0  0  0  0  0
    5.9646    4.7111   -0.8613 H   0  0  0  0  0  0  0  0  0  0  0  0
    5.9595    4.7494    0.9290 H   0  0  0  0  0  0  0  0  0  0  0  0
    6.5878    2.6803    0.0802 H   0  0  0  0  0  0  0  0  0  0  0  0
    6.8277    0.2117    0.0986 H   0  0  0  0  0  0  0  0  0  0  0  0
    2.2914    2.3704    0.0309 H   0  0  0  0  0  0  0  0  0  0  0  0
  1 16  1  0  0  0  0
  1  6  1  0  0  0  0
  1 17  1  0  0  0  0
  2 14  1  0  0  0  0
  2 21  1  0  0  0  0
  3 22  1  0  0  0  0
  3  4  2  0  0  0  0
  4 23  1  0  0  0  0
  5  7  2  0  0  0  0
  5  8  1  0  0  0  0
  6  8  1  0  0  0  0
  6 10  2  0  0  0  0
  7  3  1  0  0  0  0
  8  9  2  0  0  0  0
  9 15  1  0  0  0  0
  9  4  1  0  0  0  0
 10 11  1  0  0  0  0
 10 15  1  0  0  0  0
 11 13  2  0  0  0  0
 12 11  2  0  0  0  0
 14  7  1  0  0  0  0
 18  1  1  0  0  0  0
 19  2  1  0  0  0  0
 20  2  1  0  0  0  0
 24  5  1  0  0  0  0
M  END
>  <HBA>
2

>  <HBD>
0

>  <TPSA>
68.19

>  <cid>
57055

>  <dipole>
6.37

>  <excitation_energy_1>
3.138

>  <excitation_energy_2>
3.717

>  <excitation_energy_3>
3.878

>  <excitation_energy_4>
4.231

>  <homo_energy>
-6.261

>  <homo_lumo_gap>
3.774

>  <logP>
3.181

>  <lumo_energy>
-2.487

>  <melting_point>
97.63

>  <molecular_refractivity>
56.49

>  <oscillator_strength_1>
0.026

>  <oscillator_strength_2>
0.0004

>  <oscillator_strength_3>
0.4264

>  <oscillator_strength_4>
0.0003

>  <open_babel_can_smiles>
COc1ccc2c(c1)c(C)c(o2)N(=O)=O

>  <mulliken_charges>
24
1   -0.508229
2   -0.218466
3   -0.204424
4   -0.193935
5   -0.259349
6   0.129863
7   0.384352
8   0.078953
9   0.331961
10   0.454314
11   0.327789
12   -0.413163
13   -0.388878
14   -0.509989
15   -0.496678
16   0.159143
17   0.191089
18   0.190987
19   0.175839
20   0.154752
21   0.15468
22   0.145364
23   0.162518
24   0.151505

>  <lowdin_charges>
24
1   -0.433856
2   -0.278151
3   -0.194419
4   -0.161161
5   -0.180534
6   0.001139
7   0.102635
8   -0.02791
9   0.087473
10   0.070603
11   0.30195
12   -0.259721
13   -0.23793
14   -0.20048
15   -0.093228
16   0.159402
17   0.181447
18   0.181268
19   0.165349
20   0.146965
21   0.146698
22   0.170955
23   0.177936
24   0.17357

$$$$

