PCCDB-ID:  10583
public computational chemistry database (PCCDB) project, http://pccdb.org

 39 39  0  0  1  0  0  0  0  0999 V2000
    1.1919   -0.2875   -1.1788 C   0  0  0  0  0  0  0  0  0  0  0  0
    5.5941   -4.9988    2.7866 C   0  0  0  0  0  0  0  0  0  0  0  0
    3.8506   -6.4597    1.8006 C   0  0  0  0  0  0  0  0  0  0  0  0
    0.5656   -2.0850    2.0573 C   0  0  0  0  0  0  0  0  0  0  0  0
    1.6619   -0.9644    3.9668 C   0  0  0  0  0  0  0  0  0  0  0  0
    4.4215   -0.5998   -0.0841 C   0  0  0  0  0  0  0  0  0  0  0  0
    2.0042   -0.2309   -0.1227 C   0  0  0  0  0  0  0  0  0  0  0  0
    3.8183   -3.7092    0.0849 C   0  0  0  0  0  0  0  0  0  0  0  0
    2.9099   -2.5902   -0.4474 C   0  0  0  0  0  0  0  0  0  0  0  0
    3.9569   -2.5852    2.3181 C   0  0  0  0  0  0  0  0  0  0  0  0
    4.4441   -5.1044    2.1113 C   0  0  0  0  0  0  0  0  0  0  0  0
    1.6738   -1.5329    2.5635 C   0  0  0  0  0  0  0  0  0  0  0  0
    3.6445   -3.9100    1.6080 C   0  0  2  0  0  0  0  0  0  0  0  0
    3.0303   -1.4201    1.8645 C   0  0  2  0  0  0  0  0  0  0  0  0
    3.0571   -1.2411    0.2991 C   0  0  1  0  0  0  0  0  0  0  0  0
    0.5091    0.5275   -1.4039 H   0  0  0  0  0  0  0  0  0  0  0  0
    1.1620   -1.1373   -1.8553 H   0  0  0  0  0  0  0  0  0  0  0  0
    6.1374   -5.8820    3.1140 H   0  0  0  0  0  0  0  0  0  0  0  0
    6.0404   -4.0428    3.0424 H   0  0  0  0  0  0  0  0  0  0  0  0
    4.4982   -7.2722    2.1445 H   0  0  0  0  0  0  0  0  0  0  0  0
    3.6836   -6.5958    0.7242 H   0  0  0  0  0  0  0  0  0  0  0  0
    2.8714   -6.5770    2.2853 H   0  0  0  0  0  0  0  0  0  0  0  0
   -0.3481   -2.1359    2.6453 H   0  0  0  0  0  0  0  0  0  0  0  0
    0.5022   -2.4744    1.0488 H   0  0  0  0  0  0  0  0  0  0  0  0
    0.7101   -1.1539    4.4724 H   0  0  0  0  0  0  0  0  0  0  0  0
    1.8256    0.1223    3.9477 H   0  0  0  0  0  0  0  0  0  0  0  0
    2.4632   -1.3881    4.5866 H   0  0  0  0  0  0  0  0  0  0  0  0
    4.4826   -0.4679   -1.1696 H   0  0  0  0  0  0  0  0  0  0  0  0
    5.2738   -1.2100    0.2308 H   0  0  0  0  0  0  0  0  0  0  0  0
    4.5323    0.3887    0.3773 H   0  0  0  0  0  0  0  0  0  0  0  0
    1.9735    0.6635    0.5034 H   0  0  0  0  0  0  0  0  0  0  0  0
    4.8741   -3.4870   -0.1197 H   0  0  0  0  0  0  0  0  0  0  0  0
    3.5893   -4.6352   -0.4562 H   0  0  0  0  0  0  0  0  0  0  0  0
    1.8706   -2.9334   -0.3931 H   0  0  0  0  0  0  0  0  0  0  0  0
    3.1192   -2.4305   -1.5131 H   0  0  0  0  0  0  0  0  0  0  0  0
    4.9994   -2.3054    2.1235 H   0  0  0  0  0  0  0  0  0  0  0  0
    3.8752   -2.7169    3.4031 H   0  0  0  0  0  0  0  0  0  0  0  0
    2.5818   -4.1370    1.7866 H   0  0  0  0  0  0  0  0  0  0  0  0
    3.4815   -0.5007    2.2673 H   0  0  0  0  0  0  0  0  0  0  0  0
  1  7  2  0  0  0  0
  2 19  1  0  0  0  0
  2 18  1  0  0  0  0
  3 11  1  0  0  0  0
  3 20  1  0  0  0  0
  3 22  1  0  0  0  0
  4 12  2  0  0  0  0
  4 23  1  0  0  0  0
  5 25  1  0  0  0  0
  5 27  1  0  0  0  0
  6 29  1  0  0  0  0
  6 15  1  0  0  0  0
  6 30  1  0  0  0  0
  7 31  1  0  0  0  0
  8 13  1  0  0  0  0
  9 34  1  0  0  0  0
  9  8  1  0  0  0  0
  9 15  1  0  0  0  0
 10 37  1  0  0  0  0
 11  2  2  0  0  0  0
 12  5  1  0  0  0  0
 13 38  1  1  0  0  0
 13 11  1  0  0  0  0
 13 10  1  0  0  0  0
 14 39  1  1  0  0  0
 14 10  1  0  0  0  0
 14 12  1  0  0  0  0
 15  7  1  6  0  0  0
 15 14  1  0  0  0  0
 16  1  1  0  0  0  0
 17  1  1  0  0  0  0
 21  3  1  0  0  0  0
 24  4  1  0  0  0  0
 26  5  1  0  0  0  0
 28  6  1  0  0  0  0
 32  8  1  0  0  0  0
 33  8  1  0  0  0  0
 35  9  1  0  0  0  0
 36 10  1  0  0  0  0
M  END
>  <HBA>
0

>  <HBD>
0

>  <TPSA>
0.0

>  <cid>
10583

>  <dipole>
0.16

>  <excitation_energy_1>
5.843

>  <excitation_energy_2>
5.967

>  <excitation_energy_3>
5.987

>  <excitation_energy_4>
6.052

>  <homo_energy>
-6.359

>  <homo_lumo_gap>
7.031

>  <logP>
4.747

>  <lumo_energy>
0.672

>  <melting_point>
-46.23

>  <molecular_refractivity>
70.42

>  <oscillator_strength_1>
0.0008

>  <oscillator_strength_2>
0.0211

>  <oscillator_strength_3>
0.0087

>  <oscillator_strength_4>
0.0172

>  <open_babel_can_smiles>
C=C[C@]1(C)CC[C@H](C[C@@H]1C(=C)C)C(=C)C

>  <mulliken_charges>
39
1   -0.35528
2   -0.408339
3   -0.515982
4   -0.399143
5   -0.515774
6   -0.457724
7   -0.041352
8   -0.271284
9   -0.28845
10   -0.29081
11   0.227387
12   0.219776
13   -0.141489
14   -0.164584
15   0.056776
16   0.13467
17   0.134686
18   0.127698
19   0.133246
20   0.150958
21   0.153796
22   0.154544
23   0.128421
24   0.143123
25   0.152031
26   0.152091
27   0.15477
28   0.150038
29   0.148353
30   0.140205
31   0.116499
32   0.136151
33   0.131785
34   0.141275
35   0.133566
36   0.136099
37   0.14222
38   0.131494
39   0.118556

>  <lowdin_charges>
39
1   -0.357333
2   -0.373076
3   -0.440382
4   -0.363396
5   -0.441317
6   -0.440157
7   -0.13374
8   -0.273625
9   -0.275731
10   -0.270636
11   0.010175
12   0.005315
13   -0.128863
14   -0.12819
15   0.008862
16   0.158478
17   0.154879
18   0.153846
19   0.154284
20   0.156359
21   0.152223
22   0.155311
23   0.153173
24   0.156469
25   0.155577
26   0.151944
27   0.154478
28   0.151799
29   0.149173
30   0.147635
31   0.148519
32   0.140195
33   0.144418
34   0.143119
35   0.143628
36   0.140908
37   0.147079
38   0.144881
39   0.143722

$$$$

