PCCDB-ID:  44623
public computational chemistry database (PCCDB) project, http://pccdb.org

 31 33  0  0  0  0  0  0  0  0999 V2000
    0.9971   -0.1079   -0.0075 C   0  0  0  0  0  0  0  0  0  0  0  0
    5.2002    3.0714   -0.4666 C   0  0  0  0  0  0  0  0  0  0  0  0
    3.9170    3.4438    0.2929 C   0  0  0  0  0  0  0  0  0  0  0  0
    5.7123    1.6756   -0.0623 C   0  0  0  0  0  0  0  0  0  0  0  0
    2.7557    2.4802   -0.0299 C   0  0  0  0  0  0  0  0  0  0  0  0
    5.2753   -3.0685    0.0145 C   0  0  0  0  0  0  0  0  0  0  0  0
    5.6159   -1.7224   -0.0010 C   0  0  0  0  0  0  0  0  0  0  0  0
    2.8972   -2.5380    0.0220 C   0  0  0  0  0  0  0  0  0  0  0  0
    3.9231   -3.4887    0.0259 C   0  0  0  0  0  0  0  0  0  0  0  0
    4.5777    0.6905   -0.0265 C   0  0  0  0  0  0  0  0  0  0  0  0
    4.6058   -0.7489   -0.0045 C   0  0  0  0  0  0  0  0  0  0  0  0
    3.2586    1.0683   -0.0167 C   0  0  0  0  0  0  0  0  0  0  0  0
    3.2534   -1.1860    0.0106 C   0  0  0  0  0  0  0  0  0  0  0  0
    3.6238   -4.8623    0.1054 N   0  0  0  0  0  0  0  0  0  0  0  0
    2.4426   -0.0671    0.0022 N   0  0  0  0  0  0  0  0  0  0  0  0
    0.6008    0.9088   -0.0190 H   0  0  0  0  0  0  0  0  0  0  0  0
    0.6097   -0.6191    0.8832 H   0  0  0  0  0  0  0  0  0  0  0  0
    0.6225   -0.6325   -0.8961 H   0  0  0  0  0  0  0  0  0  0  0  0
    5.9765    3.8248   -0.2848 H   0  0  0  0  0  0  0  0  0  0  0  0
    4.9936    3.0826   -1.5461 H   0  0  0  0  0  0  0  0  0  0  0  0
    3.6161    4.4716    0.0570 H   0  0  0  0  0  0  0  0  0  0  0  0
    4.1181    3.4109    1.3724 H   0  0  0  0  0  0  0  0  0  0  0  0
    6.2052    1.7352    0.9211 H   0  0  0  0  0  0  0  0  0  0  0  0
    6.4897    1.3471   -0.7660 H   0  0  0  0  0  0  0  0  0  0  0  0
    2.3267    2.7314   -1.0136 H   0  0  0  0  0  0  0  0  0  0  0  0
    1.9462    2.6260    0.6993 H   0  0  0  0  0  0  0  0  0  0  0  0
    6.0578   -3.8242    0.0255 H   0  0  0  0  0  0  0  0  0  0  0  0
    6.6637   -1.4322   -0.0123 H   0  0  0  0  0  0  0  0  0  0  0  0
    1.8565   -2.8527    0.0357 H   0  0  0  0  0  0  0  0  0  0  0  0
    4.3366   -5.4571   -0.3016 H   0  0  0  0  0  0  0  0  0  0  0  0
    2.7131   -5.1039   -0.2684 H   0  0  0  0  0  0  0  0  0  0  0  0
  1 15  1  0  0  0  0
  1 17  1  0  0  0  0
  2 19  1  0  0  0  0
  2  4  1  0  0  0  0
  2  3  1  0  0  0  0
  3 22  1  0  0  0  0
  4 10  1  0  0  0  0
  4 23  1  0  0  0  0
  5 12  1  0  0  0  0
  5  3  1  0  0  0  0
  5 26  1  0  0  0  0
  6 27  1  0  0  0  0
  6  9  2  0  0  0  0
  7  6  1  0  0  0  0
  8  9  1  0  0  0  0
  8 29  1  0  0  0  0
  9 14  1  0  0  0  0
 10 12  2  0  0  0  0
 10 11  1  0  0  0  0
 11  7  2  0  0  0  0
 11 13  1  0  0  0  0
 12 15  1  0  0  0  0
 13  8  2  0  0  0  0
 15 13  1  0  0  0  0
 16  1  1  0  0  0  0
 18  1  1  0  0  0  0
 20  2  1  0  0  0  0
 21  3  1  0  0  0  0
 24  4  1  0  0  0  0
 25  5  1  0  0  0  0
 28  7  1  0  0  0  0
 30 14  1  0  0  0  0
 31 14  1  0  0  0  0
M  END
>  <HBA>
2

>  <HBD>
1

>  <TPSA>
30.95

>  <cid>
44623

>  <dipole>
2.3

>  <excitation_energy_1>
4.012

>  <excitation_energy_2>
4.114

>  <excitation_energy_3>
4.246

>  <excitation_energy_4>
4.521

>  <homo_energy>
-4.49

>  <homo_lumo_gap>
4.784

>  <logP>
3.22

>  <lumo_energy>
0.294

>  <melting_point>
131.9

>  <molecular_refractivity>
65.04

>  <oscillator_strength_1>
0.003

>  <oscillator_strength_2>
0.1036

>  <oscillator_strength_3>
0.0077

>  <oscillator_strength_4>
0.0045

>  <open_babel_can_smiles>
Nc1ccc2c(c1)n(C)c1c2CCCC1

>  <mulliken_charges>
31
1   -0.325994
2   -0.266
3   -0.264528
4   -0.334197
5   -0.343005
6   -0.18814
7   -0.218693
8   -0.242665
9   0.29723
10   0.035898
11   0.060545
12   0.288408
13   0.316879
14   -0.789022
15   -0.583792
16   0.168713
17   0.16603
18   0.163286
19   0.129519
20   0.136137
21   0.130743
22   0.141547
23   0.139436
24   0.138373
25   0.145567
26   0.1417
27   0.105914
28   0.118547
29   0.107442
30   0.313082
31   0.311039

>  <lowdin_charges>
31
1   -0.348057
2   -0.272533
3   -0.268065
4   -0.269834
5   -0.279042
6   -0.216037
7   -0.153135
8   -0.240574
9   0.055986
10   -0.077992
11   -0.05158
12   0.000461
13   0.03708
14   -0.499473
15   -0.041197
16   0.165083
17   0.155985
18   0.154669
19   0.144072
20   0.139413
21   0.14305
22   0.142316
23   0.143284
24   0.148491
25   0.146421
26   0.149054
27   0.149509
28   0.152707
29   0.148928
30   0.272118
31   0.268894

$$$$

