PCCDB-ID:  9223
public computational chemistry database (PCCDB) project, http://pccdb.org

 15 16  0  0  0  0  0  0  0  0999 V2000
    2.1372    0.6998   -0.0008 C   0  0  0  0  0  0  0  0  0  0  0  0
    2.1093   -0.7079   -0.0000 C   0  0  0  0  0  0  0  0  0  0  0  0
    0.9634    1.4476   -0.0006 C   0  0  0  0  0  0  0  0  0  0  0  0
    0.9035   -1.4076    0.0004 C   0  0  0  0  0  0  0  0  0  0  0  0
   -1.6585    1.1404   -0.0004 C   0  0  0  0  0  0  0  0  0  0  0  0
   -2.3574   -0.0209    0.0001 C   0  0  0  0  0  0  0  0  0  0  0  0
   -0.2636    0.7665   -0.0001 C   0  0  0  0  0  0  0  0  0  0  0  0
   -0.2561   -0.6417    0.0003 C   0  0  0  0  0  0  0  0  0  0  0  0
   -1.5389   -1.1239    0.0005 O   0  0  0  0  0  0  0  0  0  0  0  0
    3.0964    1.2102   -0.0017 H   0  0  0  0  0  0  0  0  0  0  0  0
    3.0447   -1.2601    0.0009 H   0  0  0  0  0  0  0  0  0  0  0  0
    0.9970    2.5336    0.0000 H   0  0  0  0  0  0  0  0  0  0  0  0
    0.8636   -2.4919    0.0000 H   0  0  0  0  0  0  0  0  0  0  0  0
   -2.0743    2.1384   -0.0002 H   0  0  0  0  0  0  0  0  0  0  0  0
   -3.4151   -0.2389    0.0002 H   0  0  0  0  0  0  0  0  0  0  0  0
  1  3  2  0  0  0  0
  1  2  1  0  0  0  0
  2  4  2  0  0  0  0
  2 11  1  0  0  0  0
  3  7  1  0  0  0  0
  3 12  1  0  0  0  0
  5 14  1  0  0  0  0
  5  7  1  0  0  0  0
  5  6  2  0  0  0  0
  6 15  1  0  0  0  0
  6  9  1  0  0  0  0
  7  8  2  0  0  0  0
  8  4  1  0  0  0  0
  8  9  1  0  0  0  0
 10  1  1  0  0  0  0
 13  4  1  0  0  0  0
M  END
>  <HBA>
1

>  <HBD>
0

>  <TPSA>
13.14

>  <cid>
9223

>  <dipole>
0.74

>  <excitation_energy_1>
4.966

>  <excitation_energy_2>
5.121

>  <excitation_energy_3>
5.727

>  <excitation_energy_4>
5.922

>  <homo_energy>
-5.97

>  <homo_lumo_gap>
5.527

>  <logP>
2.433

>  <lumo_energy>
-0.444

>  <melting_point>
46.88

>  <molecular_refractivity>
36.21

>  <oscillator_strength_1>
0.053

>  <oscillator_strength_2>
0.1326

>  <oscillator_strength_3>
0.0088

>  <oscillator_strength_4>
0.0015

>  <open_babel_can_smiles>
c1ccc2c(c1)occ2

>  <mulliken_charges>
15
1   -0.134827
2   -0.147662
3   -0.206004
4   -0.178345
5   -0.218244
6   0.083436
7   0.128655
8   0.309021
9   -0.475942
10   0.127631
11   0.130871
12   0.131672
13   0.143625
14   0.146234
15   0.15988

>  <lowdin_charges>
15
1   -0.167084
2   -0.15964
3   -0.157767
4   -0.17215
5   -0.211961
6   -0.053684
7   -0.029639
8   0.082502
9   -0.11552
10   0.157884
11   0.15973
12   0.157422
13   0.167076
14   0.171774
15   0.171055

$$$$

