PCCDB-ID:  34829
public computational chemistry database (PCCDB) project, http://pccdb.org

 27 28  0  0  0  0  0  0  0  0999 V2000
    0.9886    0.6285   -0.1099 C   0  0  0  0  0  0  0  0  0  0  0  0
    2.3200    3.1068    0.2264 C   0  0  0  0  0  0  0  0  0  0  0  0
    3.0194    4.2980    0.4065 C   0  0  0  0  0  0  0  0  0  0  0  0
    7.1124    2.0927    2.3674 C   0  0  0  0  0  0  0  0  0  0  0  0
    6.7183    1.5959    3.7695 C   0  0  0  0  0  0  0  0  0  0  0  0
    4.1902    1.8417    1.1348 C   0  0  0  0  0  0  0  0  0  0  0  0
    6.6005    4.5266    1.8742 C   0  0  0  0  0  0  0  0  0  0  0  0
    6.2413    3.2141    1.8622 C   0  0  0  0  0  0  0  0  0  0  0  0
    2.9073    1.8783    0.5894 C   0  0  0  0  0  0  0  0  0  0  0  0
    4.9040    3.0332    1.3252 C   0  0  0  0  0  0  0  0  0  0  0  0
    4.3020    4.2609    0.9508 C   0  0  0  0  0  0  0  0  0  0  0  0
    7.6264    0.5245    4.1944 N   0  0  0  0  0  0  0  0  0  0  0  0
    2.2929    0.6635    0.4435 O   0  0  0  0  0  0  0  0  0  0  0  0
    5.3781    5.6187    1.2582 S   0  0  0  0  0  0  0  0  0  0  0  0
    0.7015   -0.4246   -0.1322 H   0  0  0  0  0  0  0  0  0  0  0  0
    0.9701    1.0291   -1.1324 H   0  0  0  0  0  0  0  0  0  0  0  0
    0.2698    1.1849    0.5069 H   0  0  0  0  0  0  0  0  0  0  0  0
    1.3228    3.1406   -0.1964 H   0  0  0  0  0  0  0  0  0  0  0  0
    2.5616    5.2408    0.1212 H   0  0  0  0  0  0  0  0  0  0  0  0
    7.0676    1.2474    1.6645 H   0  0  0  0  0  0  0  0  0  0  0  0
    8.1598    2.4105    2.4011 H   0  0  0  0  0  0  0  0  0  0  0  0
    5.6509    1.3134    3.7711 H   0  0  0  0  0  0  0  0  0  0  0  0
    6.8220    2.4260    4.4782 H   0  0  0  0  0  0  0  0  0  0  0  0
    4.6132    0.8785    1.4017 H   0  0  0  0  0  0  0  0  0  0  0  0
    7.5431    4.9356    2.2167 H   0  0  0  0  0  0  0  0  0  0  0  0
    7.4656   -0.3052    3.6233 H   0  0  0  0  0  0  0  0  0  0  0  0
    7.4089    0.2496    5.1510 H   0  0  0  0  0  0  0  0  0  0  0  0
  1 13  1  0  0  0  0
  1 17  1  0  0  0  0
  2  3  2  0  0  0  0
  2  9  1  0  0  0  0
  3 11  1  0  0  0  0
  4 21  1  0  0  0  0
  4  5  1  0  0  0  0
  5 22  1  0  0  0  0
  5 12  1  0  0  0  0
  5 23  1  0  0  0  0
  6 10  1  0  0  0  0
  6 24  1  0  0  0  0
  7 25  1  0  0  0  0
  8  7  2  0  0  0  0
  8  4  1  0  0  0  0
  9  6  2  0  0  0  0
 10  8  1  0  0  0  0
 11 14  1  0  0  0  0
 11 10  2  0  0  0  0
 12 27  1  0  0  0  0
 13  9  1  0  0  0  0
 14  7  1  0  0  0  0
 15  1  1  0  0  0  0
 16  1  1  0  0  0  0
 18  2  1  0  0  0  0
 19  3  1  0  0  0  0
 20  4  1  0  0  0  0
 26 12  1  0  0  0  0
M  END
>  <HBA>
3

>  <HBD>
1

>  <TPSA>
63.49

>  <cid>
34829

>  <dipole>
2.48

>  <excitation_energy_1>
4.237

>  <excitation_energy_2>
4.658

>  <excitation_energy_3>
4.836

>  <excitation_energy_4>
5.065

>  <homo_energy>
-5.472

>  <homo_lumo_gap>
4.884

>  <logP>
3.111

>  <lumo_energy>
-0.588

>  <melting_point>
111.41

>  <molecular_refractivity>
60.8

>  <oscillator_strength_1>
0.0666

>  <oscillator_strength_2>
0.0188

>  <oscillator_strength_3>
0.0005

>  <oscillator_strength_4>
0.0047

>  <open_babel_can_smiles>
NCCc1csc2c1cc(OC)cc2

>  <mulliken_charges>
27
1   -0.213749
2   -0.186495
3   -0.176276
4   -0.331618
5   -0.136141
6   -0.243892
7   -0.414536
8   0.160894
9   0.374039
10   0.123759
11   -0.150104
12   -0.715604
13   -0.512526
14   0.216965
15   0.168819
16   0.151181
17   0.150649
18   0.132144
19   0.140559
20   0.140406
21   0.157899
22   0.126305
23   0.145733
24   0.132707
25   0.169214
26   0.292178
27   0.29749

>  <lowdin_charges>
27
1   -0.27628
2   -0.210481
3   -0.151311
4   -0.272319
5   -0.202886
6   -0.194237
7   -0.31224
8   -0.028992
9   0.098256
10   -0.012728
11   -0.150437
12   -0.55897
13   -0.203698
14   0.272129
15   0.16102
16   0.143211
17   0.145485
18   0.163095
19   0.164666
20   0.147855
21   0.158945
22   0.121302
23   0.145916
24   0.16587
25   0.179993
26   0.251561
27   0.255273

$$$$

