PCCDB-ID:  55205
public computational chemistry database (PCCDB) project, http://pccdb.org

 22 22  0  0  0  0  0  0  0  0999 V2000
    5.0686   -0.7039    2.4960 C   0  0  0  0  0  0  0  0  0  0  0  0
    1.2871   -4.0241    2.3932 C   0  0  0  0  0  0  0  0  0  0  0  0
    0.1926   -2.0137    3.2099 C   0  0  0  0  0  0  0  0  0  0  0  0
    2.1848   -3.2329    1.6807 C   0  0  0  0  0  0  0  0  0  0  0  0
    1.0936   -1.2356    2.4930 C   0  0  0  0  0  0  0  0  0  0  0  0
   -0.6434   -4.2240    3.9016 C   0  0  0  0  0  0  0  0  0  0  0  0
    3.0750   -0.9756    0.9424 C   0  0  0  0  0  0  0  0  0  0  0  0
    0.2841   -3.4164    3.1639 C   0  0  0  0  0  0  0  0  0  0  0  0
    2.0994   -1.8366    1.7198 C   0  0  0  0  0  0  0  0  0  0  0  0
   -1.3946   -4.8805    4.5001 N   0  0  0  0  0  0  0  0  0  0  0  0
    3.6821    1.1587    2.0051 N   0  0  0  0  0  0  0  0  0  0  0  0
    3.9235   -0.1447    1.8021 N   0  0  0  0  0  0  0  0  0  0  0  0
    2.6801    1.6071    1.4546 O   0  0  0  0  0  0  0  0  0  0  0  0
    4.7562   -1.4992    3.1824 H   0  0  0  0  0  0  0  0  0  0  0  0
    5.5359    0.1035    3.0626 H   0  0  0  0  0  0  0  0  0  0  0  0
    5.7918   -1.1152    1.7814 H   0  0  0  0  0  0  0  0  0  0  0  0
    1.3568   -5.1064    2.3577 H   0  0  0  0  0  0  0  0  0  0  0  0
   -0.5864   -1.5466    3.8037 H   0  0  0  0  0  0  0  0  0  0  0  0
    2.9589   -3.7094    1.0842 H   0  0  0  0  0  0  0  0  0  0  0  0
    1.0219   -0.1525    2.5235 H   0  0  0  0  0  0  0  0  0  0  0  0
    2.5400   -0.2750    0.2948 H   0  0  0  0  0  0  0  0  0  0  0  0
    3.7319   -1.5991    0.3266 H   0  0  0  0  0  0  0  0  0  0  0  0
  1 15  1  0  0  0  0
  1 14  1  0  0  0  0
  2  8  2  0  0  0  0
  3 18  1  0  0  0  0
  4  9  2  0  0  0  0
  4  2  1  0  0  0  0
  5 20  1  0  0  0  0
  5  3  2  0  0  0  0
  6 10  3  0  0  0  0
  7  9  1  0  0  0  0
  7 12  1  0  0  0  0
  8  3  1  0  0  0  0
  8  6  1  0  0  0  0
  9  5  1  0  0  0  0
 12 11  1  0  0  0  0
 12  1  1  0  0  0  0
 13 11  2  0  0  0  0
 16  1  1  0  0  0  0
 17  2  1  0  0  0  0
 19  4  1  0  0  0  0
 21  7  1  0  0  0  0
 22  7  1  0  0  0  0
M  END
>  <HBA>
4

>  <HBD>
0

>  <TPSA>
56.46

>  <cid>
55205

>  <dipole>
4.99

>  <excitation_energy_1>
3.384

>  <excitation_energy_2>
4.329

>  <excitation_energy_3>
4.841

>  <excitation_energy_4>
5.004

>  <homo_energy>
-6.479

>  <homo_lumo_gap>
4.827

>  <logP>
1.671

>  <lumo_energy>
-1.652

>  <melting_point>
66.91

>  <molecular_refractivity>
48.56

>  <oscillator_strength_1>
0.0006

>  <oscillator_strength_2>
0.0605

>  <oscillator_strength_3>
0.0057

>  <oscillator_strength_4>
0.0889

>  <open_babel_can_smiles>
O=NN(Cc1ccc(cc1)C#N)C

>  <mulliken_charges>
22
1   -0.311874
2   -0.133218
3   -0.134951
4   -0.194202
5   -0.181509
6   0.23966
7   -0.257708
8   0.127661
9   0.17746
10   -0.474305
11   0.159295
12   -0.198691
13   -0.375879
14   0.176394
15   0.196883
16   0.166318
17   0.162142
18   0.165578
19   0.140867
20   0.174621
21   0.21039
22   0.165068

>  <lowdin_charges>
22
1   -0.35833
2   -0.128843
3   -0.128359
4   -0.163685
5   -0.148866
6   -0.012566
7   -0.219167
8   -0.020679
9   -0.000552
10   -0.114878
11   0.06104
12   -0.038974
13   -0.273011
14   0.16305
15   0.181282
16   0.158501
17   0.173772
18   0.17832
19   0.164155
20   0.176836
21   0.18838
22   0.162578

$$$$

