PCCDB-ID:  12057
public computational chemistry database (PCCDB) project, http://pccdb.org

 15 15  0  0  0  0  0  0  0  0999 V2000
   -1.3960   -0.1061    0.0872 C   0  0  0  0  0  0  0  0  0  0  0  0
   -0.7877    1.1531    0.0912 C   0  0  0  0  0  0  0  0  0  0  0  0
   -0.6226   -1.2617   -0.0398 C   0  0  0  0  0  0  0  0  0  0  0  0
    0.5972    1.2601   -0.0311 C   0  0  0  0  0  0  0  0  0  0  0  0
    0.7646   -1.1652   -0.1664 C   0  0  0  0  0  0  0  0  0  0  0  0
    1.3602    0.0949   -0.1514 C   0  0  0  0  0  0  0  0  0  0  0  0
    3.4790    1.0850    1.0307 O   0  0  0  0  0  0  0  0  0  0  0  0
    3.6623   -1.1885   -0.2530 O   0  0  0  0  0  0  0  0  0  0  0  0
    3.1656    0.2129   -0.3774 S   0  0  3  0  0  0  0  0  0  0  0  0
   -2.4756   -0.1843    0.1818 H   0  0  0  0  0  0  0  0  0  0  0  0
   -1.3925    2.0500    0.1929 H   0  0  0  0  0  0  0  0  0  0  0  0
   -1.0988   -2.2383   -0.0417 H   0  0  0  0  0  0  0  0  0  0  0  0
    1.0805    2.2332   -0.0168 H   0  0  0  0  0  0  0  0  0  0  0  0
    1.3920   -2.0457   -0.2680 H   0  0  0  0  0  0  0  0  0  0  0  0
    3.1448    0.5722    1.7944 H   0  0  0  0  0  0  0  0  0  0  0  0
  1  2  1  0  0  0  0
  1 10  1  0  0  0  0
  2 11  1  0  0  0  0
  3  1  2  0  0  0  0
  4 13  1  0  0  0  0
  4  2  2  0  0  0  0
  5  6  2  0  0  0  0
  5  3  1  0  0  0  0
  6  4  1  0  0  0  0
  7 15  1  0  0  0  0
  9  8  1  0  0  0  0
  9  6  1  0  0  0  0
  9  7  1  0  0  0  0
 12  3  1  0  0  0  0
 14  5  1  0  0  0  0
M  RAD  1   8   2
M  END
>  <HBA>
2

>  <HBD>
1

>  <TPSA>
56.51

>  <cid>
12057

>  <dipole>
3.9

>  <excitation_energy_1>
4.648

>  <excitation_energy_2>
5.151

>  <excitation_energy_3>
5.454

>  <excitation_energy_4>
5.627

>  <homo_energy>
-6.833

>  <homo_lumo_gap>
5.698

>  <logP>
2.133

>  <lumo_energy>
-1.135

>  <melting_point>
78.47

>  <molecular_refractivity>
35.61

>  <oscillator_strength_1>
0.0236

>  <oscillator_strength_2>
0.0062

>  <oscillator_strength_3>
0.0042

>  <oscillator_strength_4>
0.1357

>  <open_babel_can_smiles>
O[S](c1ccccc1)[O]

>  <mulliken_charges>
15
1   -0.122639
2   -0.123465
3   -0.122233
4   -0.141479
5   -0.142007
6   -0.194008
7   -0.659847
8   -0.576035
9   0.900059
10   0.142301
11   0.143418
12   0.144166
13   0.159004
14   0.182254
15   0.41051

>  <lowdin_charges>
15
1   -0.140034
2   -0.151572
3   -0.148551
4   -0.148135
5   -0.146971
6   -0.198279
7   -0.60422
8   -0.621722
9   0.957904
10   0.161749
11   0.164839
12   0.164485
13   0.17204
14   0.183895
15   0.354573

$$$$

