PCCDB-ID:  11955
public computational chemistry database (PCCDB) project, http://pccdb.org

 18 18  0  0  0  0  0  0  0  0999 V2000
   -1.4913   -0.1893   -0.0525 C   0  0  0  0  0  0  0  0  0  0  0  0
   -0.8782    1.0654   -0.0800 C   0  0  0  0  0  0  0  0  0  0  0  0
   -0.7074   -1.3407    0.0440 C   0  0  0  0  0  0  0  0  0  0  0  0
    0.5095    1.1669   -0.0078 C   0  0  0  0  0  0  0  0  0  0  0  0
    0.6826   -1.2452    0.1073 C   0  0  0  0  0  0  0  0  0  0  0  0
    1.3100    0.0131    0.0817 C   0  0  0  0  0  0  0  0  0  0  0  0
    2.7874    0.1523    0.1903 C   0  0  0  0  0  0  0  0  0  0  0  0
    3.3679   -1.6536   -1.1282 N   0  0  0  0  0  0  0  0  0  0  0  0
    3.7084   -0.5654   -0.3268 N   0  0  0  0  0  0  0  0  0  0  0  0
    3.2323    1.2453    0.9038 O   0  0  0  0  0  0  0  0  0  0  0  0
   -2.5737   -0.2686   -0.1057 H   0  0  0  0  0  0  0  0  0  0  0  0
   -1.4814    1.9658   -0.1587 H   0  0  0  0  0  0  0  0  0  0  0  0
   -1.1791   -2.3191    0.0759 H   0  0  0  0  0  0  0  0  0  0  0  0
    0.9863    2.1426   -0.0402 H   0  0  0  0  0  0  0  0  0  0  0  0
    1.2882   -2.1415    0.1919 H   0  0  0  0  0  0  0  0  0  0  0  0
    2.5338   -1.4927   -1.6987 H   0  0  0  0  0  0  0  0  0  0  0  0
    4.1578   -1.8234   -1.7434 H   0  0  0  0  0  0  0  0  0  0  0  0
    2.5641    1.4545    1.5755 H   0  0  0  0  0  0  0  0  0  0  0  0
  1  3  1  0  0  0  0
  2  1  2  0  0  0  0
  2  4  1  0  0  0  0
  3 13  1  0  0  0  0
  3  5  2  0  0  0  0
  4  6  2  0  0  0  0
  5 15  1  0  0  0  0
  6  5  1  0  0  0  0
  6  7  1  0  0  0  0
  7 10  1  0  0  0  0
  8  9  1  0  0  0  0
  9  7  2  0  0  0  0
 10 18  1  0  0  0  0
 11  1  1  0  0  0  0
 12  2  1  0  0  0  0
 14  4  1  0  0  0  0
 16  8  1  0  0  0  0
 17  8  1  0  0  0  0
M  END
>  <HBA>
3

>  <HBD>
2

>  <TPSA>
55.12

>  <cid>
11955

>  <dipole>
3.58

>  <excitation_energy_1>
3.968

>  <excitation_energy_2>
4.304

>  <excitation_energy_3>
5.117

>  <excitation_energy_4>
5.178

>  <homo_energy>
-5.548

>  <homo_lumo_gap>
4.607

>  <logP>
1.381

>  <lumo_energy>
-0.942

>  <melting_point>
120.3

>  <molecular_refractivity>
37.34

>  <oscillator_strength_1>
0.1076

>  <oscillator_strength_2>
0.0067

>  <oscillator_strength_3>
0.0082

>  <oscillator_strength_4>
0.0402

>  <open_babel_can_smiles>
N/N=C(\c1ccccc1)/O

>  <mulliken_charges>
18
1   -0.123093
2   -0.130956
3   -0.134387
4   -0.18471
5   -0.177631
6   0.039329
7   0.41839
8   -0.576363
9   -0.309464
10   -0.595914
11   0.137651
12   0.138361
13   0.139441
14   0.148039
15   0.177421
16   0.302773
17   0.330002
18   0.40111

>  <lowdin_charges>
18
1   -0.14649
2   -0.153965
3   -0.153045
4   -0.16386
5   -0.157255
6   -0.048481
7   0.081761
8   -0.448217
9   -0.132023
10   -0.383522
11   0.159611
12   0.162333
13   0.162027
14   0.165404
15   0.178708
16   0.250907
17   0.272133
18   0.353974

$$$$

