PCCDB-ID:  65159
public computational chemistry database (PCCDB) project, http://pccdb.org

 25 26  0  0  1  0  0  0  0  0999 V2000
    1.2312    0.4777   -0.7533 C   0  0  0  0  0  0  0  0  0  0  0  0
    1.0723   -0.6898   -0.1380 C   0  0  0  0  0  0  0  0  0  0  0  0
   -1.9218   -4.3411   -0.5572 C   0  0  0  0  0  0  0  0  0  0  0  0
   -1.4924   -3.1854    0.0196 C   0  0  0  0  0  0  0  0  0  0  0  0
   -0.3898    2.4497   -0.5297 C   0  0  0  0  0  0  0  0  0  0  0  0
   -0.1053    1.0622   -1.1041 C   0  0  2  0  0  0  0  0  0  0  0  0
   -1.6422   -4.4759   -1.9552 C   0  0  0  0  0  0  0  0  0  0  0  0
   -0.3994   -0.9882   -0.0011 C   0  0  2  0  0  0  0  0  0  0  0  0
   -0.6469   -2.3781   -2.1188 C   0  0  0  0  0  0  0  0  0  0  0  0
   -1.0486   -3.5705   -2.6757 N   0  0  0  0  0  0  0  0  0  0  0  0
   -0.8446   -2.2286   -0.6920 N   0  0  0  0  0  0  0  0  0  0  0  0
   -1.7157    2.8607   -0.8061 O   0  0  0  0  0  0  0  0  0  0  0  0
   -1.9980   -5.6027   -2.6112 O   0  0  0  0  0  0  0  0  0  0  0  0
   -0.1371   -1.4706   -2.7489 O   0  0  0  0  0  0  0  0  0  0  0  0
   -1.0578    0.1501   -0.4998 O   0  0  0  0  0  0  0  0  0  0  0  0
    2.1722    0.9499   -1.0129 H   0  0  0  0  0  0  0  0  0  0  0  0
    1.8411   -1.3651    0.2195 H   0  0  0  0  0  0  0  0  0  0  0  0
   -2.4387   -5.0990    0.0201 H   0  0  0  0  0  0  0  0  0  0  0  0
   -1.6440   -2.9778    1.0749 H   0  0  0  0  0  0  0  0  0  0  0  0
   -0.1838    2.4391    0.5534 H   0  0  0  0  0  0  0  0  0  0  0  0
    0.2736    3.1873   -0.9947 H   0  0  0  0  0  0  0  0  0  0  0  0
   -0.2706    1.0618   -2.1889 H   0  0  0  0  0  0  0  0  0  0  0  0
   -0.6970   -1.1464    1.0453 H   0  0  0  0  0  0  0  0  0  0  0  0
   -2.2885    2.1389   -0.4984 H   0  0  0  0  0  0  0  0  0  0  0  0
   -2.4301   -6.2132   -1.9932 H   0  0  0  0  0  0  0  0  0  0  0  0
  1  2  2  0  0  0  0
  2  8  1  0  0  0  0
  2 17  1  0  0  0  0
  3  4  2  0  0  0  0
  3 18  1  0  0  0  0
  4 19  1  0  0  0  0
  5 20  1  0  0  0  0
  6 22  1  6  0  0  0
  6  1  1  0  0  0  0
  6  5  1  0  0  0  0
  6 15  1  0  0  0  0
  7  3  1  0  0  0  0
  8 23  1  1  0  0  0
  9 11  1  0  0  0  0
 10  9  1  0  0  0  0
 10  7  2  0  0  0  0
 11  8  1  0  0  0  0
 11  4  1  0  0  0  0
 12  5  1  0  0  0  0
 12 24  1  0  0  0  0
 13 25  1  0  0  0  0
 13  7  1  0  0  0  0
 14  9  2  0  0  0  0
 15  8  1  0  0  0  0
 16  1  1  0  0  0  0
 21  5  1  0  0  0  0
M  END
>  <HBA>
5

>  <HBD>
2

>  <TPSA>
84.32

>  <cid>
65159

>  <dipole>
7.23

>  <excitation_energy_1>
4.482

>  <excitation_energy_2>
4.603

>  <excitation_energy_3>
4.985

>  <excitation_energy_4>
5.207

>  <homo_energy>
-6.468

>  <homo_lumo_gap>
5.233

>  <logP>
-1.018

>  <lumo_energy>
-1.235

>  <melting_point>
163.02

>  <molecular_refractivity>
51.47

>  <oscillator_strength_1>
0.0097

>  <oscillator_strength_2>
0.0696

>  <oscillator_strength_3>
0.0018

>  <oscillator_strength_4>
0.0049

>  <open_babel_can_smiles>
OC[C@H]1C=C[C@@H](O1)n1ccc(nc1=O)O

>  <mulliken_charges>
25
1   -0.105515
2   -0.131508
3   -0.268921
4   0.120859
5   -0.025323
6   0.092627
7   0.527243
8   0.238454
9   0.716017
10   -0.508552
11   -0.470758
12   -0.618679
13   -0.57636
14   -0.500467
15   -0.521096
16   0.156241
17   0.150966
18   0.142881
19   0.173388
20   0.119789
21   0.14446
22   0.188036
23   0.139538
24   0.402869
25   0.413811

>  <lowdin_charges>
25
1   -0.140984
2   -0.186159
3   -0.287097
4   -0.04511
5   -0.141846
6   -0.004495
7   0.166057
8   0.074074
9   0.183732
10   -0.196597
11   -0.064732
12   -0.463039
13   -0.333977
14   -0.282276
15   -0.261674
16   0.173718
17   0.171022
18   0.171177
19   0.170589
20   0.126037
21   0.15218
22   0.166453
23   0.142322
24   0.347809
25   0.362814

$$$$

