PCCDB-ID:  7665
public computational chemistry database (PCCDB) project, http://pccdb.org

 27 27  0  0  0  0  0  0  0  0999 V2000
    1.6620   -0.9440   -2.1285 C   0  0  0  0  0  0  0  0  0  0  0  0
    2.9361   -0.6784   -1.3206 C   0  0  0  0  0  0  0  0  0  0  0  0
    3.8011    0.4387   -1.9172 C   0  0  0  0  0  0  0  0  0  0  0  0
    7.5834    3.4603   -1.5758 C   0  0  0  0  0  0  0  0  0  0  0  0
    7.6910    1.5656   -0.0951 C   0  0  0  0  0  0  0  0  0  0  0  0
    8.7574    3.9633   -1.0224 C   0  0  0  0  0  0  0  0  0  0  0  0
    8.8706    2.0660    0.4550 C   0  0  0  0  0  0  0  0  0  0  0  0
    5.0678    0.7161   -1.1061 C   0  0  0  0  0  0  0  0  0  0  0  0
    7.0248    2.2506   -1.1270 C   0  0  0  0  0  0  0  0  0  0  0  0
    9.4130    3.2667   -0.0027 C   0  0  0  0  0  0  0  0  0  0  0  0
    5.8678    1.7528   -1.7419 N   0  0  0  0  0  0  0  0  0  0  0  0
   10.5759    3.7129    0.5815 O   0  0  0  0  0  0  0  0  0  0  0  0
    1.0661   -1.7465   -1.6795 H   0  0  0  0  0  0  0  0  0  0  0  0
    1.8996   -1.2404   -3.1574 H   0  0  0  0  0  0  0  0  0  0  0  0
    1.0303   -0.0487   -2.1796 H   0  0  0  0  0  0  0  0  0  0  0  0
    3.5294   -1.6014   -1.2595 H   0  0  0  0  0  0  0  0  0  0  0  0
    2.6676   -0.4194   -0.2869 H   0  0  0  0  0  0  0  0  0  0  0  0
    3.2027    1.3608   -1.9834 H   0  0  0  0  0  0  0  0  0  0  0  0
    4.0884    0.1800   -2.9452 H   0  0  0  0  0  0  0  0  0  0  0  0
    7.0911    4.0121   -2.3742 H   0  0  0  0  0  0  0  0  0  0  0  0
    7.2911    0.6334    0.2891 H   0  0  0  0  0  0  0  0  0  0  0  0
    9.1639    4.9049   -1.3889 H   0  0  0  0  0  0  0  0  0  0  0  0
    9.3775    1.5302    1.2518 H   0  0  0  0  0  0  0  0  0  0  0  0
    5.6660   -0.2032   -1.0508 H   0  0  0  0  0  0  0  0  0  0  0  0
    4.7975    0.9784   -0.0665 H   0  0  0  0  0  0  0  0  0  0  0  0
    5.3015    2.4836   -2.1575 H   0  0  0  0  0  0  0  0  0  0  0  0
   10.8307    4.5486    0.1619 H   0  0  0  0  0  0  0  0  0  0  0  0
  1 13  1  0  0  0  0
  1  2  1  0  0  0  0
  2 16  1  0  0  0  0
  2 17  1  0  0  0  0
  3  2  1  0  0  0  0
  3  8  1  0  0  0  0
  4  9  2  0  0  0  0
  4  6  1  0  0  0  0
  5 21  1  0  0  0  0
  5  7  2  0  0  0  0
  6 10  2  0  0  0  0
  7 23  1  0  0  0  0
  8 24  1  0  0  0  0
  8 25  1  0  0  0  0
  9  5  1  0  0  0  0
 10  7  1  0  0  0  0
 10 12  1  0  0  0  0
 11  9  1  0  0  0  0
 11  8  1  0  0  0  0
 14  1  1  0  0  0  0
 15  1  1  0  0  0  0
 18  3  1  0  0  0  0
 19  3  1  0  0  0  0
 20  4  1  0  0  0  0
 22  6  1  0  0  0  0
 26 11  1  0  0  0  0
 27 12  1  0  0  0  0
M  END
>  <HBA>
2

>  <HBD>
2

>  <TPSA>
32.26

>  <cid>
7665

>  <dipole>
2.24

>  <excitation_energy_1>
4.194

>  <excitation_energy_2>
4.348

>  <excitation_energy_3>
4.537

>  <excitation_energy_4>
4.774

>  <homo_energy>
-4.797

>  <homo_lumo_gap>
4.996

>  <logP>
2.677

>  <lumo_energy>
0.199

>  <melting_point>
76.85

>  <molecular_refractivity>
52.19

>  <oscillator_strength_1>
0.0442

>  <oscillator_strength_2>
0.0039

>  <oscillator_strength_3>
0.0033

>  <oscillator_strength_4>
0.0117

>  <open_babel_can_smiles>
CCCCNc1ccc(cc1)O

>  <mulliken_charges>
27
1   -0.441645
2   -0.251371
3   -0.277329
4   -0.19528
5   -0.187045
6   -0.197724
7   -0.170773
8   -0.100427
9   0.351445
10   0.343049
11   -0.66879
12   -0.654157
13   0.145436
14   0.144629
15   0.142623
16   0.136308
17   0.135429
18   0.126782
19   0.147343
20   0.115572
21   0.125931
22   0.113012
23   0.134153
24   0.147028
25   0.128113
26   0.305599
27   0.402086

>  <lowdin_charges>
27
1   -0.443722
2   -0.270175
3   -0.278573
4   -0.189057
5   -0.195061
6   -0.20433
7   -0.178035
8   -0.194097
9   0.042896
10   0.080038
11   -0.310348
12   -0.39295
13   0.152386
14   0.147051
15   0.147264
16   0.142089
17   0.14012
18   0.136724
19   0.146553
20   0.152972
21   0.159105
22   0.150818
23   0.165823
24   0.144385
25   0.125225
26   0.268746
27   0.354155

$$$$

