PCCDB-ID:  33029
public computational chemistry database (PCCDB) project, http://pccdb.org

 23 25  0  0  0  0  0  0  0  0999 V2000
   -1.4754   -0.4049    0.1426 C   0  0  0  0  0  0  0  0  0  0  0  0
   -0.9126    0.7286   -0.4505 C   0  0  0  0  0  0  0  0  0  0  0  0
   -0.6439   -1.4146    0.6277 C   0  0  0  0  0  0  0  0  0  0  0  0
    0.4694    0.8487   -0.5654 C   0  0  0  0  0  0  0  0  0  0  0  0
    0.7414   -1.2974    0.5129 C   0  0  0  0  0  0  0  0  0  0  0  0
    3.5664   -2.5044   -0.5798 C   0  0  0  0  0  0  0  0  0  0  0  0
    1.3152   -0.1664   -0.0891 C   0  0  0  0  0  0  0  0  0  0  0  0
    3.6774   -1.1499   -0.4001 C   0  0  0  0  0  0  0  0  0  0  0  0
    2.7849   -0.0233   -0.2086 C   0  0  0  0  0  0  0  0  0  0  0  0
    5.0879   -0.9388   -0.4981 C   0  0  0  0  0  0  0  0  0  0  0  0
    5.6518    0.4195   -0.4122 C   0  0  0  0  0  0  0  0  0  0  0  0
    3.2778    1.1839   -0.1566 N   0  0  0  0  0  0  0  0  0  0  0  0
    4.6237    1.3543   -0.2694 N   0  0  0  0  0  0  0  0  0  0  0  0
    5.7641   -2.0481   -0.7035 N   0  0  0  0  0  0  0  0  0  0  0  0
    6.8228    0.7501   -0.4639 O   0  0  0  0  0  0  0  0  0  0  0  0
    4.7851   -3.0393   -0.7525 O   0  0  0  0  0  0  0  0  0  0  0  0
   -2.5544   -0.4980    0.2281 H   0  0  0  0  0  0  0  0  0  0  0  0
   -1.5540    1.5194   -0.8298 H   0  0  0  0  0  0  0  0  0  0  0  0
   -1.0714   -2.2921    1.1048 H   0  0  0  0  0  0  0  0  0  0  0  0
    0.9114    1.7248   -1.0280 H   0  0  0  0  0  0  0  0  0  0  0  0
    1.3782   -2.0707    0.9316 H   0  0  0  0  0  0  0  0  0  0  0  0
    2.7389   -3.1958   -0.6269 H   0  0  0  0  0  0  0  0  0  0  0  0
    4.9203    2.3209   -0.2018 H   0  0  0  0  0  0  0  0  0  0  0  0
  1 17  1  0  0  0  0
  1  3  2  0  0  0  0
  2  1  1  0  0  0  0
  3 19  1  0  0  0  0
  4  2  2  0  0  0  0
  4  7  1  0  0  0  0
  5  3  1  0  0  0  0
  5 21  1  0  0  0  0
  6  8  2  0  0  0  0
  7  5  2  0  0  0  0
  8  9  1  0  0  0  0
  9 12  2  0  0  0  0
  9  7  1  0  0  0  0
 10 11  1  0  0  0  0
 10  8  1  0  0  0  0
 11 13  1  0  0  0  0
 13 23  1  0  0  0  0
 13 12  1  0  0  0  0
 14 10  2  0  0  0  0
 15 11  2  0  0  0  0
 16 14  1  0  0  0  0
 16  6  1  0  0  0  0
 18  2  1  0  0  0  0
 20  4  1  0  0  0  0
 22  6  1  0  0  0  0
M  END
>  <HBA>
4

>  <HBD>
1

>  <TPSA>
71.78

>  <cid>
33029

>  <dipole>
5.67

>  <excitation_energy_1>
3.758

>  <excitation_energy_2>
4.092

>  <excitation_energy_3>
4.4

>  <excitation_energy_4>
4.657

>  <homo_energy>
-6.392

>  <homo_lumo_gap>
4.253

>  <logP>
1.578

>  <lumo_energy>
-2.139

>  <melting_point>
198.88

>  <molecular_refractivity>
57.86

>  <oscillator_strength_1>
0.2012

>  <oscillator_strength_2>
0.002

>  <oscillator_strength_3>
0.0034

>  <oscillator_strength_4>
0.0997

>  <open_babel_can_smiles>
O=c1[nH]nc(c2c1noc2)c1ccccc1

>  <mulliken_charges>
23
1   -0.121182
2   -0.135549
3   -0.13617
4   -0.151745
5   -0.187727
6   0.087334
7   0.124523
8   0.02589
9   0.19674
10   0.239451
11   0.621011
12   -0.325756
13   -0.484528
14   -0.228744
15   -0.48479
16   -0.304435
17   0.138592
18   0.140036
19   0.138114
20   0.153698
21   0.133733
22   0.200805
23   0.360696

>  <lowdin_charges>
23
1   -0.146012
2   -0.151338
3   -0.152977
4   -0.14189
5   -0.168024
6   -0.04536
7   -0.008734
8   -0.075954
9   0.02739
10   -0.015687
11   0.149668
12   -0.096897
13   -0.170111
14   -0.029694
15   -0.258421
16   -0.031011
17   0.160437
18   0.164071
19   0.162459
20   0.1722
21   0.160401
22   0.193655
23   0.301829

$$$$

