PCCDB-ID:  45770
public computational chemistry database (PCCDB) project, http://pccdb.org

 42 41  0  0  0  0  0  0  0  0999 V2000
    4.2821    3.2144   -0.1225 C   0  0  0  0  0  0  0  0  0  0  0  0
    4.2734    1.0038    0.7986 C   0  0  0  0  0  0  0  0  0  0  0  0
    5.6801   -6.6326   -9.5637 C   0  0  0  0  0  0  0  0  0  0  0  0
    3.4231   -5.8773   -9.2958 C   0  0  0  0  0  0  0  0  0  0  0  0
    4.8442   -1.7401   -3.9486 C   0  0  0  0  0  0  0  0  0  0  0  0
    4.3795   -2.1505   -5.3518 C   0  0  0  0  0  0  0  0  0  0  0  0
    4.2465   -0.4103   -3.4705 C   0  0  0  0  0  0  0  0  0  0  0  0
    4.9851   -3.4753   -5.8340 C   0  0  0  0  0  0  0  0  0  0  0  0
    4.7107   -0.0064   -2.0647 C   0  0  0  0  0  0  0  0  0  0  0  0
    4.5131   -3.8842   -7.2358 C   0  0  0  0  0  0  0  0  0  0  0  0
    4.1056    1.3258   -1.6078 C   0  0  0  0  0  0  0  0  0  0  0  0
    5.1329   -5.2073   -7.6996 C   0  0  0  0  0  0  0  0  0  0  0  0
    4.6532    1.8234   -0.3446 N   0  0  0  0  0  0  0  0  0  0  0  0
    4.8278   -5.5504   -9.0897 N   0  0  0  0  0  0  0  0  0  0  0  0
    4.7577    3.5811    0.7940 H   0  0  0  0  0  0  0  0  0  0  0  0
    3.1883    3.3673   -0.0215 H   0  0  0  0  0  0  0  0  0  0  0  0
    4.6338    3.8307   -0.9572 H   0  0  0  0  0  0  0  0  0  0  0  0
    4.7301    1.4121    1.7068 H   0  0  0  0  0  0  0  0  0  0  0  0
    4.6378   -0.0199    0.6763 H   0  0  0  0  0  0  0  0  0  0  0  0
    3.1763    0.9618    0.9578 H   0  0  0  0  0  0  0  0  0  0  0  0
    5.4807   -6.8212  -10.6245 H   0  0  0  0  0  0  0  0  0  0  0  0
    5.5287   -7.5847   -9.0155 H   0  0  0  0  0  0  0  0  0  0  0  0
    6.7331   -6.3480   -9.4617 H   0  0  0  0  0  0  0  0  0  0  0  0
    3.2548   -6.1087  -10.3532 H   0  0  0  0  0  0  0  0  0  0  0  0
    2.7879   -5.0254   -9.0380 H   0  0  0  0  0  0  0  0  0  0  0  0
    3.0878   -6.7498   -8.6982 H   0  0  0  0  0  0  0  0  0  0  0  0
    5.9419   -1.6698   -3.9353 H   0  0  0  0  0  0  0  0  0  0  0  0
    4.5828   -2.5337   -3.2329 H   0  0  0  0  0  0  0  0  0  0  0  0
    4.6344   -1.3543   -6.0666 H   0  0  0  0  0  0  0  0  0  0  0  0
    3.2821   -2.2276   -5.3626 H   0  0  0  0  0  0  0  0  0  0  0  0
    3.1486   -0.4796   -3.4878 H   0  0  0  0  0  0  0  0  0  0  0  0
    4.5117    0.3834   -4.1846 H   0  0  0  0  0  0  0  0  0  0  0  0
    4.7340   -4.2706   -5.1165 H   0  0  0  0  0  0  0  0  0  0  0  0
    6.0823   -3.3957   -5.8270 H   0  0  0  0  0  0  0  0  0  0  0  0
    5.8048    0.0838   -2.0413 H   0  0  0  0  0  0  0  0  0  0  0  0
    4.4470   -0.8080   -1.3622 H   0  0  0  0  0  0  0  0  0  0  0  0
    4.7754   -3.1047   -7.9633 H   0  0  0  0  0  0  0  0  0  0  0  0
    3.4173   -3.9542   -7.2328 H   0  0  0  0  0  0  0  0  0  0  0  0
    2.9991    1.2353   -1.5628 H   0  0  0  0  0  0  0  0  0  0  0  0
    4.3214    2.0826   -2.3732 H   0  0  0  0  0  0  0  0  0  0  0  0
    4.8325   -6.0212   -7.0053 H   0  0  0  0  0  0  0  0  0  0  0  0
    6.2246   -5.1228   -7.6205 H   0  0  0  0  0  0  0  0  0  0  0  0
  1 16  1  0  0  0  0
  1 15  1  0  0  0  0
  2 20  1  0  0  0  0
  2 18  1  0  0  0  0
  3 23  1  0  0  0  0
  3 14  1  0  0  0  0
  3 22  1  0  0  0  0
  4 14  1  0  0  0  0
  4 25  1  0  0  0  0
  4 26  1  0  0  0  0
  5 27  1  0  0  0  0
  5  7  1  0  0  0  0
  5 28  1  0  0  0  0
  6  5  1  0  0  0  0
  7  9  1  0  0  0  0
  8 34  1  0  0  0  0
  8  6  1  0  0  0  0
  8 33  1  0  0  0  0
  9 35  1  0  0  0  0
  9 11  1  0  0  0  0
  9 36  1  0  0  0  0
 10 38  1  0  0  0  0
 10  8  1  0  0  0  0
 11 39  1  0  0  0  0
 11 13  1  0  0  0  0
 12 42  1  0  0  0  0
 12 10  1  0  0  0  0
 12 41  1  0  0  0  0
 13  1  1  0  0  0  0
 13  2  1  0  0  0  0
 14 12  1  0  0  0  0
 17  1  1  0  0  0  0
 19  2  1  0  0  0  0
 21  3  1  0  0  0  0
 24  4  1  0  0  0  0
 29  6  1  0  0  0  0
 30  6  1  0  0  0  0
 31  7  1  0  0  0  0
 32  7  1  0  0  0  0
 37 10  1  0  0  0  0
 40 11  1  0  0  0  0
M  END
>  <HBA>
2

>  <HBD>
0

>  <TPSA>
6.48

>  <cid>
45770

>  <dipole>
0.78

>  <excitation_energy_1>
5.345

>  <excitation_energy_2>
5.346

>  <excitation_energy_3>
5.661

>  <excitation_energy_4>
5.665

>  <homo_energy>
-5.611

>  <homo_lumo_gap>
7.954

>  <logP>
2.45

>  <lumo_energy>
2.343

>  <melting_point>
-25.28

>  <molecular_refractivity>
65.59

>  <oscillator_strength_1>
0.0168

>  <oscillator_strength_2>
0.0307

>  <oscillator_strength_3>
0.0126

>  <oscillator_strength_4>
0.0015

>  <open_babel_can_smiles>
CN(CCCCCCCCN(C)C)C

>  <mulliken_charges>
42
1   -0.292097
2   -0.300031
3   -0.292129
4   -0.299783
5   -0.252177
6   -0.252234
7   -0.257883
8   -0.257837
9   -0.264412
10   -0.264505
11   -0.106625
12   -0.106388
13   -0.367817
14   -0.367956
15   0.145785
16   0.114593
17   0.147004
18   0.146466
19   0.153404
20   0.113606
21   0.145841
22   0.114614
23   0.14697
24   0.146353
25   0.153403
26   0.113579
27   0.128923
28   0.126658
29   0.128901
30   0.126685
31   0.128436
32   0.128202
33   0.128433
34   0.128195
35   0.142362
36   0.131569
37   0.14226
38   0.131632
39   0.103004
40   0.131049
41   0.102906
42   0.131042

>  <lowdin_charges>
42
1   -0.354574
2   -0.356109
3   -0.352622
4   -0.358553
5   -0.272109
6   -0.272092
7   -0.271976
8   -0.271982
9   -0.27938
10   -0.279043
11   -0.197011
12   -0.197889
13   -0.184205
14   -0.183733
15   0.14865
16   0.116307
17   0.149325
18   0.149886
19   0.149777
20   0.115929
21   0.146718
22   0.118085
23   0.146949
24   0.148159
25   0.151636
26   0.118622
27   0.136315
28   0.138113
29   0.139315
30   0.135102
31   0.13566
32   0.138578
33   0.138663
34   0.135558
35   0.144265
36   0.140175
37   0.14717
38   0.13724
39   0.10997
40   0.142412
41   0.113334
42   0.139363

$$$$

