PCCDB-ID:  7055
public computational chemistry database (PCCDB) project, http://pccdb.org

 21 22  0  0  0  0  0  0  0  0999 V2000
    0.9536    0.0219   -0.1085 C   0  0  0  0  0  0  0  0  0  0  0  0
    7.4146   -1.1351    0.2260 C   0  0  0  0  0  0  0  0  0  0  0  0
    6.7192   -2.3678    0.1738 C   0  0  0  0  0  0  0  0  0  0  0  0
    6.7197    0.0538    0.2023 C   0  0  0  0  0  0  0  0  0  0  0  0
    5.3440   -2.3880    0.1011 C   0  0  0  0  0  0  0  0  0  0  0  0
    3.1751    1.2437    0.0251 C   0  0  0  0  0  0  0  0  0  0  0  0
    4.5471    1.2705    0.0989 C   0  0  0  0  0  0  0  0  0  0  0  0
    3.1783   -1.1653   -0.0015 C   0  0  0  0  0  0  0  0  0  0  0  0
    2.4613    0.0126   -0.0273 C   0  0  0  0  0  0  0  0  0  0  0  0
    5.3017    0.0663    0.1267 C   0  0  0  0  0  0  0  0  0  0  0  0
    4.5977   -1.1795    0.0747 C   0  0  0  0  0  0  0  0  0  0  0  0
    0.6050    0.5527   -1.0037 H   0  0  0  0  0  0  0  0  0  0  0  0
    0.5101    0.5305    0.7571 H   0  0  0  0  0  0  0  0  0  0  0  0
    0.5485   -0.9942   -0.1430 H   0  0  0  0  0  0  0  0  0  0  0  0
    8.4998   -1.1317    0.2832 H   0  0  0  0  0  0  0  0  0  0  0  0
    7.2770   -3.3004    0.1940 H   0  0  0  0  0  0  0  0  0  0  0  0
    7.2499    1.0027    0.2440 H   0  0  0  0  0  0  0  0  0  0  0  0
    4.8087   -3.3341    0.0628 H   0  0  0  0  0  0  0  0  0  0  0  0
    2.6168    2.1773    0.0053 H   0  0  0  0  0  0  0  0  0  0  0  0
    5.0752    2.2207    0.1381 H   0  0  0  0  0  0  0  0  0  0  0  0
    2.6530   -2.1179   -0.0417 H   0  0  0  0  0  0  0  0  0  0  0  0
  1  9  1  0  0  0  0
  1 13  1  0  0  0  0
  2 15  1  0  0  0  0
  3 16  1  0  0  0  0
  3  2  2  0  0  0  0
  4  2  1  0  0  0  0
  4 17  1  0  0  0  0
  5  3  1  0  0  0  0
  6  7  2  0  0  0  0
  7 10  1  0  0  0  0
  7 20  1  0  0  0  0
  8 11  1  0  0  0  0
  9  8  2  0  0  0  0
  9  6  1  0  0  0  0
 10  4  2  0  0  0  0
 11  5  2  0  0  0  0
 11 10  1  0  0  0  0
 12  1  1  0  0  0  0
 14  1  1  0  0  0  0
 18  5  1  0  0  0  0
 19  6  1  0  0  0  0
 21  8  1  0  0  0  0
M  END
>  <HBA>
0

>  <HBD>
0

>  <TPSA>
0.0

>  <cid>
7055

>  <dipole>
0.42

>  <excitation_energy_1>
4.333

>  <excitation_energy_2>
4.443

>  <excitation_energy_3>
5.434

>  <excitation_energy_4>
5.481

>  <homo_energy>
-5.698

>  <homo_lumo_gap>
4.836

>  <logP>
3.148

>  <lumo_energy>
-0.863

>  <melting_point>
52.49

>  <molecular_refractivity>
48.91

>  <oscillator_strength_1>
0.034

>  <oscillator_strength_2>
0.0197

>  <oscillator_strength_3>
0.0003

>  <oscillator_strength_4>
0.0079

>  <open_babel_can_smiles>
Cc1ccc2c(c1)cccc2

>  <mulliken_charges>
21
1   -0.5322
2   -0.136054
3   -0.136361
4   -0.191848
5   -0.192117
6   -0.179865
7   -0.190581
8   -0.262477
9   0.182237
10   0.132815
11   0.145169
12   0.161543
13   0.161606
14   0.156056
15   0.12797
16   0.128096
17   0.127603
18   0.127439
19   0.122099
20   0.128231
21   0.120641

>  <lowdin_charges>
21
1   -0.441974
2   -0.158665
3   -0.159611
4   -0.157097
5   -0.158659
6   -0.166334
7   -0.154955
8   -0.172157
9   0.000501
10   -0.003491
11   0.001662
12   0.160586
13   0.160864
14   0.15646
15   0.155562
16   0.157964
17   0.156602
18   0.156608
19   0.155641
20   0.156958
21   0.153534

$$$$

