PCCDB-ID:  15072
public computational chemistry database (PCCDB) project, http://pccdb.org

 20 21  0  0  0  0  0  0  0  0999 V2000
   -0.1619   -0.2452    0.4455 C   0  0  0  0  0  0  0  0  0  0  0  0
   -0.3626    1.0706   -0.2516 C   0  0  0  0  0  0  0  0  0  0  0  0
   -0.7467   -3.0764   -2.1225 C   0  0  0  0  0  0  0  0  0  0  0  0
   -0.7120   -2.2987   -3.4023 C   0  0  0  0  0  0  0  0  0  0  0  0
   -0.4392   -0.2046   -1.0530 C   0  0  0  0  0  0  0  0  0  0  0  0
   -1.7746   -1.9819   -2.3592 C   0  0  0  0  0  0  0  0  0  0  0  0
   -1.7423   -0.7186   -1.5756 C   0  0  0  0  0  0  0  0  0  0  0  0
   -2.7878   -0.0367   -1.2633 N   0  0  0  0  0  0  0  0  0  0  0  0
   -3.9855   -0.6293   -1.7312 O   0  0  0  0  0  0  0  0  0  0  0  0
   -0.9664   -0.6078    1.0787 H   0  0  0  0  0  0  0  0  0  0  0  0
    0.8369   -0.5209    0.7746 H   0  0  0  0  0  0  0  0  0  0  0  0
    0.5035    1.7069   -0.4112 H   0  0  0  0  0  0  0  0  0  0  0  0
   -1.2951    1.5978   -0.0838 H   0  0  0  0  0  0  0  0  0  0  0  0
    0.0297   -2.8867   -1.3873 H   0  0  0  0  0  0  0  0  0  0  0  0
   -1.1033   -4.1024   -2.1422 H   0  0  0  0  0  0  0  0  0  0  0  0
   -1.0552   -2.7764   -4.3157 H   0  0  0  0  0  0  0  0  0  0  0  0
    0.0935   -1.5860   -3.5548 H   0  0  0  0  0  0  0  0  0  0  0  0
    0.4167   -0.4198   -1.6880 H   0  0  0  0  0  0  0  0  0  0  0  0
   -2.7765   -2.3137   -2.6012 H   0  0  0  0  0  0  0  0  0  0  0  0
   -4.6476    0.0097   -1.4275 H   0  0  0  0  0  0  0  0  0  0  0  0
  1 11  1  0  0  0  0
  1 10  1  0  0  0  0
  2 13  1  0  0  0  0
  2  1  1  0  0  0  0
  3 14  1  0  0  0  0
  4  6  1  0  0  0  0
  4  3  1  0  0  0  0
  5  2  1  0  0  0  0
  5  1  1  0  0  0  0
  6  3  1  0  0  0  0
  6  7  1  0  0  0  0
  7  8  2  0  0  0  0
  7  5  1  0  0  0  0
  9 20  1  0  0  0  0
  9  8  1  0  0  0  0
 12  2  1  0  0  0  0
 15  3  1  0  0  0  0
 16  4  1  0  0  0  0
 17  4  1  0  0  0  0
 18  5  1  0  0  0  0
 19  6  1  0  0  0  0
M  END
>  <HBA>
2

>  <HBD>
1

>  <TPSA>
32.59

>  <cid>
15072

>  <dipole>
0.86

>  <excitation_energy_1>
5.842

>  <excitation_energy_2>
5.868

>  <excitation_energy_3>
5.928

>  <excitation_energy_4>
6.011

>  <homo_energy>
-6.068

>  <homo_lumo_gap>
6.411

>  <logP>
1.637

>  <lumo_energy>
0.343

>  <melting_point>
89.7

>  <molecular_refractivity>
35.95

>  <oscillator_strength_1>
0.0148

>  <oscillator_strength_2>
0.0022

>  <oscillator_strength_3>
0.0784

>  <oscillator_strength_4>
0.1108

>  <open_babel_can_smiles>
ON=C(C1CC1)C1CC1

>  <mulliken_charges>
20
1   -0.302733
2   -0.306629
3   -0.307953
4   -0.313208
5   -0.19037
6   -0.182038
7   0.384432
8   -0.285129
9   -0.520016
10   0.165177
11   0.149113
12   0.14865
13   0.180792
14   0.16459
15   0.159315
16   0.160543
17   0.159003
18   0.143944
19   0.179306
20   0.413212

>  <lowdin_charges>
20
1   -0.303643
2   -0.304323
3   -0.30359
4   -0.304842
5   -0.163391
6   -0.166775
7   0.03823
8   -0.093853
9   -0.394305
10   0.165945
11   0.156374
12   0.159322
13   0.173945
14   0.164918
15   0.162568
16   0.164396
17   0.159826
18   0.158277
19   0.176615
20   0.354305

$$$$

