PCCDB-ID:  33596
public computational chemistry database (PCCDB) project, http://pccdb.org

 16 15  0  0  0  0  0  0  0  0999 V2000
    2.4210    0.7653    1.2415 C   0  0  0  0  0  0  0  0  0  0  0  0
    2.6186    0.2475    2.6657 C   0  0  0  0  0  0  0  0  0  0  0  0
    6.7126    0.4194    3.5430 C   0  0  0  0  0  0  0  0  0  0  0  0
    5.4536    0.3803    2.6736 C   0  0  0  0  0  0  0  0  0  0  0  0
    6.7686   -0.8329    4.8919 S   0  0  0  0  0  0  0  0  0  0  0  0
    3.9970    1.0374    3.5900 S   0  0  0  0  0  0  0  0  0  0  0  0
    1.5582    0.2724    0.7761 H   0  0  0  0  0  0  0  0  0  0  0  0
    3.2962    0.5626    0.6149 H   0  0  0  0  0  0  0  0  0  0  0  0
    2.2446    1.8455    1.2372 H   0  0  0  0  0  0  0  0  0  0  0  0
    2.7731   -0.8375    2.6755 H   0  0  0  0  0  0  0  0  0  0  0  0
    1.7325    0.4522    3.2760 H   0  0  0  0  0  0  0  0  0  0  0  0
    6.8682    1.4189    3.9610 H   0  0  0  0  0  0  0  0  0  0  0  0
    7.5841    0.1894    2.9214 H   0  0  0  0  0  0  0  0  0  0  0  0
    5.2419   -0.6495    2.3675 H   0  0  0  0  0  0  0  0  0  0  0  0
    5.6220    0.9849    1.7752 H   0  0  0  0  0  0  0  0  0  0  0  0
    5.6039   -0.4705    5.4721 H   0  0  0  0  0  0  0  0  0  0  0  0
  1  2  1  0  0  0  0
  2 10  1  0  0  0  0
  2 11  1  0  0  0  0
  2  6  1  0  0  0  0
  3 12  1  0  0  0  0
  3  5  1  0  0  0  0
  4  3  1  0  0  0  0
  4  6  1  0  0  0  0
  5 16  1  0  0  0  0
  7  1  1  0  0  0  0
  8  1  1  0  0  0  0
  9  1  1  0  0  0  0
 13  3  1  0  0  0  0
 14  4  1  0  0  0  0
 15  4  1  0  0  0  0
M  END
>  <HBA>
2

>  <HBD>
1

>  <TPSA>
64.1

>  <cid>
33596

>  <dipole>
2.52

>  <excitation_energy_1>
5.065

>  <excitation_energy_2>
5.319

>  <excitation_energy_3>
5.493

>  <excitation_energy_4>
5.801

>  <homo_energy>
-6.136

>  <homo_lumo_gap>
6.713

>  <logP>
1.669

>  <lumo_energy>
0.577

>  <melting_point>
3.99

>  <molecular_refractivity>
36.86

>  <oscillator_strength_1>
0.0029

>  <oscillator_strength_2>
0.005

>  <oscillator_strength_3>
0.0354

>  <oscillator_strength_4>
0.0177

>  <open_babel_can_smiles>
SCCSCC

>  <mulliken_charges>
16
1   -0.437355
2   -0.408099
3   -0.416343
4   -0.395733
5   -0.091673
6   0.074401
7   0.151482
8   0.153292
9   0.164851
10   0.173168
11   0.178092
12   0.192113
13   0.184382
14   0.18328
15   0.176709
16   0.117433

>  <lowdin_charges>
16
1   -0.447825
2   -0.368184
3   -0.372552
4   -0.377521
5   -0.094793
6   0.077982
7   0.155331
8   0.152297
9   0.157903
10   0.155605
11   0.169569
12   0.166091
13   0.173454
14   0.16431
15   0.160249
16   0.128085

$$$$

