PCCDB-ID:  33721
public computational chemistry database (PCCDB) project, http://pccdb.org

 16 16  0  0  0  0  0  0  0  0999 V2000
    0.7581    1.2605   -0.1882 C   0  0  0  0  0  0  0  0  0  0  0  0
   -1.4639   -0.0207   -0.1916 C   0  0  0  0  0  0  0  0  0  0  0  0
    1.4282   -0.0474    0.2722 C   0  0  0  0  0  0  0  0  0  0  0  0
   -0.6684   -1.2566    0.2688 C   0  0  0  0  0  0  0  0  0  0  0  0
   -0.7266    1.2672    0.1551 C   0  0  0  0  0  0  0  0  0  0  0  0
    0.6893   -1.1868   -0.2705 N   0  0  0  0  0  0  0  0  0  0  0  0
   -1.2777    2.2219    0.6685 O   0  0  0  0  0  0  0  0  0  0  0  0
    0.8515    1.3297   -1.2809 H   0  0  0  0  0  0  0  0  0  0  0  0
    1.2302    2.1397    0.2594 H   0  0  0  0  0  0  0  0  0  0  0  0
   -2.4622    0.0103    0.2543 H   0  0  0  0  0  0  0  0  0  0  0  0
   -1.5688   -0.0653   -1.2845 H   0  0  0  0  0  0  0  0  0  0  0  0
    1.4736   -0.0552    1.3789 H   0  0  0  0  0  0  0  0  0  0  0  0
    2.4592   -0.0869   -0.0957 H   0  0  0  0  0  0  0  0  0  0  0  0
   -1.1497   -2.1682   -0.1017 H   0  0  0  0  0  0  0  0  0  0  0  0
   -0.6868   -1.3012    1.3753 H   0  0  0  0  0  0  0  0  0  0  0  0
    1.1871   -2.0505   -0.0663 H   0  0  0  0  0  0  0  0  0  0  0  0
  1  5  1  0  0  0  0
  1  9  1  0  0  0  0
  1  3  1  0  0  0  0
  2  5  1  0  0  0  0
  2 10  1  0  0  0  0
  2  4  1  0  0  0  0
  3 12  1  0  0  0  0
  4 15  1  0  0  0  0
  5  7  2  0  0  0  0
  6 16  1  0  0  0  0
  6  4  1  0  0  0  0
  6  3  1  0  0  0  0
  8  1  1  0  0  0  0
 11  2  1  0  0  0  0
 13  3  1  0  0  0  0
 14  4  1  0  0  0  0
M  END
>  <HBA>
2

>  <HBD>
1

>  <TPSA>
29.1

>  <cid>
33721

>  <dipole>
3.17

>  <excitation_energy_1>
4.221

>  <excitation_energy_2>
4.909

>  <excitation_energy_3>
5.664

>  <excitation_energy_4>
6.063

>  <homo_energy>
-6.373

>  <homo_lumo_gap>
6.019

>  <logP>
0.268

>  <lumo_energy>
-0.354

>  <melting_point>
45.25

>  <molecular_refractivity>
30.95

>  <oscillator_strength_1>
0.0

>  <oscillator_strength_2>
0.003

>  <oscillator_strength_3>
0.0061

>  <oscillator_strength_4>
0.0002

>  <open_babel_can_smiles>
O=C1CCNCC1

>  <mulliken_charges>
16
1   -0.330125
2   -0.330474
3   -0.145634
4   -0.145449
5   0.43893
6   -0.547073
7   -0.443903
8   0.167383
9   0.160874
10   0.160919
11   0.167454
12   0.125194
13   0.146899
14   0.146859
15   0.12517
16   0.302979

>  <lowdin_charges>
16
1   -0.310425
2   -0.308511
3   -0.197958
4   -0.198909
5   0.159132
6   -0.368111
7   -0.233861
8   0.166105
9   0.164833
10   0.163515
11   0.166124
12   0.118781
13   0.149506
14   0.151062
15   0.118783
16   0.259935

$$$$

