PCCDB-ID:  17314
public computational chemistry database (PCCDB) project, http://pccdb.org

 24 24  0  0  0  0  0  0  0  0999 V2000
    1.0411   -0.0056    0.2377 C   0  0  0  0  0  0  0  0  0  0  0  0
    6.8909    0.0836   -0.1393 C   0  0  0  0  0  0  0  0  0  0  0  0
    2.5154   -2.5244    0.3562 C   0  0  0  0  0  0  0  0  0  0  0  0
    3.2481    1.1879    0.0244 C   0  0  0  0  0  0  0  0  0  0  0  0
    4.6383    1.2133   -0.0690 C   0  0  0  0  0  0  0  0  0  0  0  0
    2.5505   -0.0116    0.1703 C   0  0  0  0  0  0  0  0  0  0  0  0
    5.3848    0.0369   -0.0141 C   0  0  0  0  0  0  0  0  0  0  0  0
    3.2791   -1.2195    0.2456 C   0  0  0  0  0  0  0  0  0  0  0  0
    4.6864   -1.1787    0.1641 C   0  0  0  0  0  0  0  0  0  0  0  0
    5.5004   -2.4454    0.2413 C   0  0  0  0  0  0  0  0  0  0  0  0
    6.2485   -2.8382   -0.6197 O   0  0  0  0  0  0  0  0  0  0  0  0
    5.3760   -3.1561    1.4014 O   0  0  0  0  0  0  0  0  0  0  0  0
    0.6536    1.0161    0.1856 H   0  0  0  0  0  0  0  0  0  0  0  0
    0.6686   -0.4563    1.1667 H   0  0  0  0  0  0  0  0  0  0  0  0
    0.5930   -0.5732   -0.5882 H   0  0  0  0  0  0  0  0  0  0  0  0
    7.2388    1.1198   -0.1846 H   0  0  0  0  0  0  0  0  0  0  0  0
    7.2275   -0.4383   -1.0403 H   0  0  0  0  0  0  0  0  0  0  0  0
    7.3890   -0.4021    0.7083 H   0  0  0  0  0  0  0  0  0  0  0  0
    1.8991   -2.5545    1.2646 H   0  0  0  0  0  0  0  0  0  0  0  0
    3.1650   -3.4008    0.3661 H   0  0  0  0  0  0  0  0  0  0  0  0
    1.8251   -2.6381   -0.4885 H   0  0  0  0  0  0  0  0  0  0  0  0
    2.6920    2.1212   -0.0276 H   0  0  0  0  0  0  0  0  0  0  0  0
    5.1520    2.1636   -0.1907 H   0  0  0  0  0  0  0  0  0  0  0  0
    4.7911   -2.6700    2.0068 H   0  0  0  0  0  0  0  0  0  0  0  0
  1 14  1  0  0  0  0
  2  7  1  0  0  0  0
  2 18  1  0  0  0  0
  3 20  1  0  0  0  0
  3 19  1  0  0  0  0
  4  6  2  0  0  0  0
  5  7  2  0  0  0  0
  5  4  1  0  0  0  0
  6  1  1  0  0  0  0
  6  8  1  0  0  0  0
  7  9  1  0  0  0  0
  8  3  1  0  0  0  0
  9 10  1  0  0  0  0
  9  8  2  0  0  0  0
 10 12  1  0  0  0  0
 11 10  2  0  0  0  0
 12 24  1  0  0  0  0
 13  1  1  0  0  0  0
 15  1  1  0  0  0  0
 16  2  1  0  0  0  0
 17  2  1  0  0  0  0
 21  3  1  0  0  0  0
 22  4  1  0  0  0  0
 23  5  1  0  0  0  0
M  END
>  <HBA>
2

>  <HBD>
1

>  <TPSA>
37.3

>  <cid>
17314

>  <dipole>
4.39

>  <excitation_energy_1>
4.829

>  <excitation_energy_2>
5.09

>  <excitation_energy_3>
5.529

>  <excitation_energy_4>
5.777

>  <homo_energy>
-6.531

>  <homo_lumo_gap>
5.772

>  <logP>
2.31

>  <lumo_energy>
-0.759

>  <melting_point>
109.16

>  <molecular_refractivity>
48.3

>  <oscillator_strength_1>
0.0272

>  <oscillator_strength_2>
0.0292

>  <oscillator_strength_3>
0.0156

>  <oscillator_strength_4>
0.0137

>  <open_babel_can_smiles>
Cc1ccc(c(c1C)C(=O)O)C

>  <mulliken_charges>
24
1   -0.533486
2   -0.53009
3   -0.554815
4   -0.169616
5   -0.192559
6   0.128561
7   0.160042
8   0.090824
9   -0.080744
10   0.509449
11   -0.43373
12   -0.563454
13   0.158682
14   0.159731
15   0.164636
16   0.150372
17   0.19527
18   0.162603
19   0.159189
20   0.178452
21   0.173102
22   0.127381
23   0.128674
24   0.411526

>  <lowdin_charges>
24
1   -0.44177
2   -0.445249
3   -0.456352
4   -0.156346
5   -0.16816
6   -0.009977
7   0.012374
8   -0.010753
9   -0.077771
10   0.197031
11   -0.230964
12   -0.36009
13   0.158591
14   0.158746
15   0.16191
16   0.154598
17   0.178964
18   0.16294
19   0.158704
20   0.168741
21   0.167795
22   0.157491
23   0.158418
24   0.361129

$$$$

