PCCDB-ID:  33134
public computational chemistry database (PCCDB) project, http://pccdb.org

 17 16  0  0  0  0  0  0  0  0999 V2000
    0.9475   -1.8890   -0.8881 C   0  0  0  0  0  0  0  0  0  0  0  0
    5.7388   -2.1624   -2.6988 C   0  0  0  0  0  0  0  0  0  0  0  0
    2.3806   -1.4487   -0.8026 C   0  0  0  0  0  0  0  0  0  0  0  0
    2.9906   -0.6435   -1.6774 C   0  0  0  0  0  0  0  0  0  0  0  0
    4.4338   -0.2065   -1.5954 C   0  0  0  0  0  0  0  0  0  0  0  0
    5.2216   -0.7392   -2.8010 C   0  0  0  0  0  0  0  0  0  0  0  0
    5.3898   -0.0562   -3.7922 O   0  0  0  0  0  0  0  0  0  0  0  0
    0.8701   -2.9837   -0.9372 H   0  0  0  0  0  0  0  0  0  0  0  0
    0.4511   -1.4743   -1.7717 H   0  0  0  0  0  0  0  0  0  0  0  0
    0.3818   -1.5744   -0.0009 H   0  0  0  0  0  0  0  0  0  0  0  0
    6.5183   -2.2215   -1.9278 H   0  0  0  0  0  0  0  0  0  0  0  0
    6.1550   -2.4792   -3.6571 H   0  0  0  0  0  0  0  0  0  0  0  0
    4.9337   -2.8412   -2.3947 H   0  0  0  0  0  0  0  0  0  0  0  0
    2.9465   -1.8172    0.0556 H   0  0  0  0  0  0  0  0  0  0  0  0
    2.4352   -0.2659   -2.5370 H   0  0  0  0  0  0  0  0  0  0  0  0
    4.8806   -0.5645   -0.6597 H   0  0  0  0  0  0  0  0  0  0  0  0
    4.5033    0.8871   -1.6267 H   0  0  0  0  0  0  0  0  0  0  0  0
  1  3  1  0  0  0  0
  1 10  1  0  0  0  0
  2 13  1  0  0  0  0
  2 11  1  0  0  0  0
  3 14  1  0  0  0  0
  4  5  1  0  0  0  0
  4  3  2  0  0  0  0
  5 16  1  0  0  0  0
  6  2  1  0  0  0  0
  6  5  1  0  0  0  0
  7  6  2  0  0  0  0
  8  1  1  0  0  0  0
  9  1  1  0  0  0  0
 12  2  1  0  0  0  0
 15  4  1  0  0  0  0
 17  5  1  0  0  0  0
M  END
>  <HBA>
1

>  <HBD>
0

>  <TPSA>
17.07

>  <cid>
33134

>  <dipole>
2.97

>  <excitation_energy_1>
4.213

>  <excitation_energy_2>
5.574

>  <excitation_energy_3>
5.942

>  <excitation_energy_4>
6.174

>  <homo_energy>
-6.327

>  <homo_lumo_gap>
5.829

>  <logP>
1.542

>  <lumo_energy>
-0.498

>  <melting_point>
4.62

>  <molecular_refractivity>
30.68

>  <oscillator_strength_1>
0.0085

>  <oscillator_strength_2>
0.0445

>  <oscillator_strength_3>
0.0068

>  <oscillator_strength_4>
0.0728

>  <open_babel_can_smiles>
C/C=C/CC(=O)C

>  <mulliken_charges>
17
1   -0.487836
2   -0.529168
3   -0.086521
4   -0.100967
5   -0.377669
6   0.44639
7   -0.431053
8   0.156997
9   0.157136
10   0.158696
11   0.167994
12   0.178334
13   0.172944
14   0.121333
15   0.137922
16   0.144956
17   0.170513

>  <lowdin_charges>
17
1   -0.437861
2   -0.478703
3   -0.161783
4   -0.169595
5   -0.300686
6   0.169756
7   -0.235358
8   0.156109
9   0.157815
10   0.159372
11   0.170668
12   0.171912
13   0.1727
14   0.147555
15   0.156176
16   0.154902
17   0.167022

$$$$

