PCCDB-ID:  27518
public computational chemistry database (PCCDB) project, http://pccdb.org

 32 31  0  0  0  0  0  0  0  0999 V2000
    3.0009    1.2827    2.8096 C   0  0  0  0  0  0  0  0  0  0  0  0
    8.3259   -3.0269   -2.6038 C   0  0  0  0  0  0  0  0  0  0  0  0
    5.2700   -3.1705    3.0442 C   0  0  0  0  0  0  0  0  0  0  0  0
    3.9542    0.3030    2.1170 C   0  0  0  0  0  0  0  0  0  0  0  0
    7.7760   -3.6761   -1.3294 C   0  0  0  0  0  0  0  0  0  0  0  0
    3.3050   -1.0575    1.8263 C   0  0  0  0  0  0  0  0  0  0  0  0
    6.8818   -2.7372   -0.5079 C   0  0  0  0  0  0  0  0  0  0  0  0
    4.1859   -2.0372    1.0302 C   0  0  0  0  0  0  0  0  0  0  0  0
    6.3369   -3.3920    0.7697 C   0  0  0  0  0  0  0  0  0  0  0  0
    5.5096   -2.4732    1.6953 C   0  0  0  0  0  0  0  0  0  0  0  0
    3.4884    2.2437    3.0100 H   0  0  0  0  0  0  0  0  0  0  0  0
    2.6487    0.8821    3.7683 H   0  0  0  0  0  0  0  0  0  0  0  0
    2.1167    1.4799    2.1906 H   0  0  0  0  0  0  0  0  0  0  0  0
    8.9625   -3.7210   -3.1646 H   0  0  0  0  0  0  0  0  0  0  0  0
    8.9266   -2.1395   -2.3693 H   0  0  0  0  0  0  0  0  0  0  0  0
    7.5134   -2.7091   -3.2689 H   0  0  0  0  0  0  0  0  0  0  0  0
    4.7590   -2.5190    3.7611 H   0  0  0  0  0  0  0  0  0  0  0  0
    6.2184   -3.4802    3.4990 H   0  0  0  0  0  0  0  0  0  0  0  0
    4.6544   -4.0711    2.9163 H   0  0  0  0  0  0  0  0  0  0  0  0
    4.8466    0.1659    2.7424 H   0  0  0  0  0  0  0  0  0  0  0  0
    4.3094    0.7427    1.1737 H   0  0  0  0  0  0  0  0  0  0  0  0
    8.6117   -4.0196   -0.7033 H   0  0  0  0  0  0  0  0  0  0  0  0
    7.2057   -4.5776   -1.5947 H   0  0  0  0  0  0  0  0  0  0  0  0
    2.3816   -0.8888    1.2533 H   0  0  0  0  0  0  0  0  0  0  0  0
    2.9853   -1.5152    2.7726 H   0  0  0  0  0  0  0  0  0  0  0  0
    6.0546   -2.3920   -1.1427 H   0  0  0  0  0  0  0  0  0  0  0  0
    7.4556   -1.8372   -0.2396 H   0  0  0  0  0  0  0  0  0  0  0  0
    4.4080   -1.5797    0.0568 H   0  0  0  0  0  0  0  0  0  0  0  0
    3.5970   -2.9415    0.8124 H   0  0  0  0  0  0  0  0  0  0  0  0
    7.1880   -3.7850    1.3454 H   0  0  0  0  0  0  0  0  0  0  0  0
    5.7278   -4.2681    0.4985 H   0  0  0  0  0  0  0  0  0  0  0  0
    6.1140   -1.5730    1.8848 H   0  0  0  0  0  0  0  0  0  0  0  0
  1 11  1  0  0  0  0
  1 12  1  0  0  0  0
  2 15  1  0  0  0  0
  2  5  1  0  0  0  0
  3 18  1  0  0  0  0
  3 17  1  0  0  0  0
  4 20  1  0  0  0  0
  4  1  1  0  0  0  0
  5 22  1  0  0  0  0
  5  7  1  0  0  0  0
  6  4  1  0  0  0  0
  6 25  1  0  0  0  0
  7 27  1  0  0  0  0
  7  9  1  0  0  0  0
  8 10  1  0  0  0  0
  8  6  1  0  0  0  0
  9 30  1  0  0  0  0
  9 10  1  0  0  0  0
 10 32  1  0  0  0  0
 10  3  1  0  0  0  0
 13  1  1  0  0  0  0
 14  2  1  0  0  0  0
 16  2  1  0  0  0  0
 19  3  1  0  0  0  0
 21  4  1  0  0  0  0
 23  5  1  0  0  0  0
 24  6  1  0  0  0  0
 26  7  1  0  0  0  0
 28  8  1  0  0  0  0
 29  8  1  0  0  0  0
 31  9  1  0  0  0  0
M  END
>  <HBA>
0

>  <HBD>
0

>  <TPSA>
0.0

>  <cid>
27518

>  <dipole>
0.05

>  <excitation_energy_1>
7.685

>  <excitation_energy_2>
7.731

>  <excitation_energy_3>
7.893

>  <excitation_energy_4>
7.934

>  <homo_energy>
-8.03

>  <homo_lumo_gap>
10.335

>  <logP>
4.003

>  <lumo_energy>
2.305

>  <melting_point>
-29.22

>  <molecular_refractivity>
50.18

>  <oscillator_strength_1>
0.0038

>  <oscillator_strength_2>
0.0058

>  <oscillator_strength_3>
0.0025

>  <oscillator_strength_4>
0.0129

>  <open_babel_can_smiles>
CCCCC(CCCC)C

>  <mulliken_charges>
32
1   -0.441538
2   -0.44162
3   -0.451888
4   -0.249073
5   -0.247038
6   -0.254037
7   -0.253421
8   -0.259332
9   -0.251754
10   -0.070827
11   0.140699
12   0.140668
13   0.140822
14   0.141024
15   0.140824
16   0.140732
17   0.143789
18   0.138435
19   0.137451
20   0.135678
21   0.128983
22   0.129458
23   0.130137
24   0.125617
25   0.130385
26   0.132052
27   0.125399
28   0.130523
29   0.121675
30   0.123184
31   0.122698
32   0.120291

>  <lowdin_charges>
32
1   -0.444133
2   -0.447272
3   -0.448424
4   -0.275613
5   -0.273019
6   -0.277985
7   -0.278776
8   -0.2787
9   -0.276103
10   -0.126503
11   0.148413
12   0.145832
13   0.146153
14   0.150226
15   0.146313
16   0.146723
17   0.149439
18   0.147445
19   0.145145
20   0.140121
21   0.138338
22   0.139058
23   0.139056
24   0.140169
25   0.138344
26   0.139615
27   0.137005
28   0.14001
29   0.138582
30   0.139285
31   0.136682
32   0.134573

$$$$

