PCCDB-ID:  62384
public computational chemistry database (PCCDB) project, http://pccdb.org

 20 20  0  0  1  0  0  0  0  0999 V2000
    1.1479   -0.0382    0.3546 C   0  0  0  0  0  0  0  0  0  0  0  0
    4.9859   -1.7769   -1.6443 C   0  0  0  0  0  0  0  0  0  0  0  0
    3.1883   -1.3076   -3.3879 C   0  0  0  0  0  0  0  0  0  0  0  0
    3.0177    1.0130   -1.0906 C   0  0  0  0  0  0  0  0  0  0  0  0
    2.5682   -0.1259   -0.1752 C   0  0  2  0  0  0  0  0  0  0  0  0
    3.7250   -0.9899   -1.9943 C   0  0  0  0  0  0  0  0  0  0  0  0
    4.0323    0.4089   -1.8808 O   0  0  0  0  0  0  0  0  0  0  0  0
    2.6842   -1.2547   -1.0465 O   0  0  0  0  0  0  0  0  0  0  0  0
    1.0395    0.8229    1.0242 H   0  0  0  0  0  0  0  0  0  0  0  0
    0.8918   -0.9412    0.9171 H   0  0  0  0  0  0  0  0  0  0  0  0
    0.4366    0.0659   -0.4716 H   0  0  0  0  0  0  0  0  0  0  0  0
    5.8023   -1.5082   -2.3224 H   0  0  0  0  0  0  0  0  0  0  0  0
    4.7988   -2.8523   -1.7259 H   0  0  0  0  0  0  0  0  0  0  0  0
    5.2961   -1.5484   -0.6204 H   0  0  0  0  0  0  0  0  0  0  0  0
    3.9559   -1.1159   -4.1442 H   0  0  0  0  0  0  0  0  0  0  0  0
    2.3166   -0.6825   -3.6030 H   0  0  0  0  0  0  0  0  0  0  0  0
    2.8860   -2.3580   -3.4496 H   0  0  0  0  0  0  0  0  0  0  0  0
    3.4528    1.8651   -0.5599 H   0  0  0  0  0  0  0  0  0  0  0  0
    2.1798    1.3677   -1.7123 H   0  0  0  0  0  0  0  0  0  0  0  0
    3.2794   -0.2264    0.6610 H   0  0  0  0  0  0  0  0  0  0  0  0
  1 10  1  0  0  0  0
  1  9  1  0  0  0  0
  2 14  1  0  0  0  0
  3  6  1  0  0  0  0
  4 18  1  0  0  0  0
  4  5  1  0  0  0  0
  5  1  1  0  0  0  0
  5 20  1  1  0  0  0
  6  7  1  0  0  0  0
  6  2  1  0  0  0  0
  6  8  1  0  0  0  0
  7  4  1  0  0  0  0
  8  5  1  0  0  0  0
 11  1  1  0  0  0  0
 12  2  1  0  0  0  0
 13  2  1  0  0  0  0
 15  3  1  0  0  0  0
 16  3  1  0  0  0  0
 17  3  1  0  0  0  0
 19  4  1  0  0  0  0
M  END
>  <HBA>
2

>  <HBD>
0

>  <TPSA>
18.46

>  <cid>
62384

>  <dipole>
0.96

>  <excitation_energy_1>
6.429

>  <excitation_energy_2>
6.76

>  <excitation_energy_3>
6.79

>  <excitation_energy_4>
6.881

>  <homo_energy>
-6.71

>  <homo_lumo_gap>
9.121

>  <logP>
1.158

>  <lumo_energy>
2.411

>  <melting_point>
-10.86

>  <molecular_refractivity>
31.05

>  <oscillator_strength_1>
0.0068

>  <oscillator_strength_2>
0.0297

>  <oscillator_strength_3>
0.0113

>  <oscillator_strength_4>
0.0074

>  <open_babel_can_smiles>
C[C@@H]1COC(O1)(C)C

>  <mulliken_charges>
20
1   -0.46212
2   -0.446982
3   -0.44725
4   -0.037393
5   0.137735
6   0.53418
7   -0.511813
8   -0.523737
9   0.145296
10   0.164014
11   0.154365
12   0.151157
13   0.148319
14   0.149702
15   0.149011
16   0.149035
17   0.150632
18   0.145078
19   0.126768
20   0.124002

>  <lowdin_charges>
20
1   -0.449065
2   -0.452702
3   -0.4542
4   -0.148189
5   -0.006473
6   0.226529
7   -0.274368
8   -0.274249
9   0.155349
10   0.16324
11   0.156631
12   0.15928
13   0.154957
14   0.156326
15   0.157787
16   0.157512
17   0.157008
18   0.15251
19   0.132043
20   0.130072

$$$$

