PCCDB-ID:  33659
public computational chemistry database (PCCDB) project, http://pccdb.org

 25 25  0  0  0  0  0  0  0  0999 V2000
    3.4852   -0.2794    1.2247 C   0  0  0  0  0  0  0  0  0  0  0  0
    3.7950   -1.2493   -3.4034 C   0  0  0  0  0  0  0  0  0  0  0  0
    2.5933   -0.0593   -0.0109 C   0  0  0  0  0  0  0  0  0  0  0  0
    4.5700   -0.5501   -2.2711 C   0  0  0  0  0  0  0  0  0  0  0  0
    3.0533    3.4305   -1.4531 C   0  0  0  0  0  0  0  0  0  0  0  0
    2.6156    2.3595   -0.6805 C   0  0  0  0  0  0  0  0  0  0  0  0
    3.9720    3.2151   -2.4784 C   0  0  0  0  0  0  0  0  0  0  0  0
    3.0885    1.0583   -0.9123 C   0  0  0  0  0  0  0  0  0  0  0  0
    4.0236    0.8257   -1.9393 C   0  0  0  0  0  0  0  0  0  0  0  0
    4.4424    1.9227   -2.7167 C   0  0  0  0  0  0  0  0  0  0  0  0
    5.3394    1.6631   -3.7259 O   0  0  0  0  0  0  0  0  0  0  0  0
    3.0809   -1.0740    1.8627 H   0  0  0  0  0  0  0  0  0  0  0  0
    3.5530    0.6362    1.8229 H   0  0  0  0  0  0  0  0  0  0  0  0
    4.5044   -0.5608    0.9373 H   0  0  0  0  0  0  0  0  0  0  0  0
    4.2266   -2.2336   -3.6205 H   0  0  0  0  0  0  0  0  0  0  0  0
    3.8314   -0.6526   -4.3203 H   0  0  0  0  0  0  0  0  0  0  0  0
    2.7416   -1.3924   -3.1357 H   0  0  0  0  0  0  0  0  0  0  0  0
    1.5789    0.1870    0.3264 H   0  0  0  0  0  0  0  0  0  0  0  0
    2.5063   -0.9976   -0.5697 H   0  0  0  0  0  0  0  0  0  0  0  0
    5.6179   -0.4509   -2.5731 H   0  0  0  0  0  0  0  0  0  0  0  0
    4.5633   -1.1844   -1.3793 H   0  0  0  0  0  0  0  0  0  0  0  0
    2.6788    4.4332   -1.2650 H   0  0  0  0  0  0  0  0  0  0  0  0
    1.8913    2.5261    0.1133 H   0  0  0  0  0  0  0  0  0  0  0  0
    4.3198    4.0422   -3.0956 H   0  0  0  0  0  0  0  0  0  0  0  0
    5.5543    2.4978   -4.1699 H   0  0  0  0  0  0  0  0  0  0  0  0
  1 13  1  0  0  0  0
  1 12  1  0  0  0  0
  2 17  1  0  0  0  0
  2  4  1  0  0  0  0
  3 18  1  0  0  0  0
  3  1  1  0  0  0  0
  4  9  1  0  0  0  0
  4 21  1  0  0  0  0
  5 22  1  0  0  0  0
  5  6  2  0  0  0  0
  6 23  1  0  0  0  0
  7  5  1  0  0  0  0
  8  6  1  0  0  0  0
  8  3  1  0  0  0  0
  9  8  2  0  0  0  0
 10  7  2  0  0  0  0
 10  9  1  0  0  0  0
 11 10  1  0  0  0  0
 14  1  1  0  0  0  0
 15  2  1  0  0  0  0
 16  2  1  0  0  0  0
 19  3  1  0  0  0  0
 20  4  1  0  0  0  0
 24  7  1  0  0  0  0
 25 11  1  0  0  0  0
M  END
>  <HBA>
1

>  <HBD>
1

>  <TPSA>
20.23

>  <cid>
33659

>  <dipole>
0.98

>  <excitation_energy_1>
4.927

>  <excitation_energy_2>
5.082

>  <excitation_energy_3>
5.569

>  <excitation_energy_4>
5.67

>  <homo_energy>
-5.761

>  <homo_lumo_gap>
5.902

>  <logP>
2.517

>  <lumo_energy>
0.142

>  <melting_point>
51.64

>  <molecular_refractivity>
48.01

>  <oscillator_strength_1>
0.0398

>  <oscillator_strength_2>
0.0026

>  <oscillator_strength_3>
0.0067

>  <oscillator_strength_4>
0.0128

>  <open_babel_can_smiles>
CCc1c(CC)cccc1O

>  <mulliken_charges>
25
1   -0.437208
2   -0.439839
3   -0.346403
4   -0.332557
5   -0.134745
6   -0.186303
7   -0.191323
8   0.10963
9   0.076304
10   0.298608
11   -0.650042
12   0.142072
13   0.14952
14   0.152315
15   0.138983
16   0.160113
17   0.143377
18   0.142184
19   0.147007
20   0.159613
21   0.139148
22   0.125737
23   0.11562
24   0.111826
25   0.406362

>  <lowdin_charges>
25
1   -0.441829
2   -0.439408
3   -0.273139
4   -0.273504
5   -0.149672
6   -0.189362
7   -0.220813
8   2e-05
9   -0.041202
10   0.097363
11   -0.386279
12   0.149585
13   0.151256
14   0.149291
15   0.146719
16   0.155619
17   0.144354
18   0.148505
19   0.150068
20   0.157988
21   0.148193
22   0.15597
23   0.15261
24   0.151241
25   0.356427

$$$$

