PCCDB-ID:  42464
public computational chemistry database (PCCDB) project, http://pccdb.org

 30 31  0  0  0  0  0  0  0  0999 V2000
    0.9728   -0.0955   -0.4846 C   0  0  0  0  0  0  0  0  0  0  0  0
    3.4156   -0.2574   -1.1722 C   0  0  0  0  0  0  0  0  0  0  0  0
    6.8031   -2.3349    5.5145 C   0  0  0  0  0  0  0  0  0  0  0  0
    4.8794   -2.3806    3.4256 C   0  0  0  0  0  0  0  0  0  0  0  0
    3.9350   -2.3457    2.3955 C   0  0  0  0  0  0  0  0  0  0  0  0
    4.9867    0.0337    3.4210 C   0  0  0  0  0  0  0  0  0  0  0  0
    3.5400    1.3071    1.8265 C   0  0  0  0  0  0  0  0  0  0  0  0
    4.0406    0.0759    2.3907 C   0  0  0  0  0  0  0  0  0  0  0  0
    5.4139   -1.1903    3.9417 C   0  0  0  0  0  0  0  0  0  0  0  0
    3.5162   -1.1270    1.8723 C   0  0  0  0  0  0  0  0  0  0  0  0
    2.7705    1.2869    0.7210 C   0  0  0  0  0  0  0  0  0  0  0  0
    2.4306   -0.0058   -0.0211 C   0  0  0  0  0  0  0  0  0  0  0  0
    2.3813    2.5713    0.1514 N   0  0  0  0  0  0  0  0  0  0  0  0
    2.0101    2.5855   -1.0285 O   0  0  0  0  0  0  0  0  0  0  0  0
    2.4648    3.5785    0.8578 O   0  0  0  0  0  0  0  0  0  0  0  0
    6.3428   -1.1218    4.9418 O   0  0  0  0  0  0  0  0  0  0  0  0
    2.5358   -1.1165    0.9277 O   0  0  0  0  0  0  0  0  0  0  0  0
    0.7770    0.5931   -1.3056 H   0  0  0  0  0  0  0  0  0  0  0  0
    0.2929    0.1280    0.3432 H   0  0  0  0  0  0  0  0  0  0  0  0
    0.7833   -1.1203   -0.8172 H   0  0  0  0  0  0  0  0  0  0  0  0
    3.3487    0.5495   -1.9064 H   0  0  0  0  0  0  0  0  0  0  0  0
    3.1763   -1.2076   -1.6608 H   0  0  0  0  0  0  0  0  0  0  0  0
    4.4427   -0.3069   -0.7956 H   0  0  0  0  0  0  0  0  0  0  0  0
    7.5240   -2.0474    6.2819 H   0  0  0  0  0  0  0  0  0  0  0  0
    7.3020   -2.9704    4.7704 H   0  0  0  0  0  0  0  0  0  0  0  0
    5.9846   -2.8998    5.9807 H   0  0  0  0  0  0  0  0  0  0  0  0
    5.1923   -3.3426    3.8150 H   0  0  0  0  0  0  0  0  0  0  0  0
    3.5157   -3.2639    1.9974 H   0  0  0  0  0  0  0  0  0  0  0  0
    5.3986    0.9517    3.8295 H   0  0  0  0  0  0  0  0  0  0  0  0
    3.7936    2.2595    2.2801 H   0  0  0  0  0  0  0  0  0  0  0  0
  1 12  1  0  0  0  0
  1 19  1  0  0  0  0
  2 23  1  0  0  0  0
  2 12  1  0  0  0  0
  3 26  1  0  0  0  0
  3 24  1  0  0  0  0
  4 27  1  0  0  0  0
  4  9  1  0  0  0  0
  5  4  2  0  0  0  0
  6 29  1  0  0  0  0
  6  9  2  0  0  0  0
  7 30  1  0  0  0  0
  7  8  1  0  0  0  0
  8  6  1  0  0  0  0
  9 16  1  0  0  0  0
 10  8  2  0  0  0  0
 10  5  1  0  0  0  0
 11  7  2  0  0  0  0
 12 11  1  0  0  0  0
 12 17  1  0  0  0  0
 13 11  1  0  0  0  0
 13 15  2  0  0  0  0
 14 13  2  0  0  0  0
 16  3  1  0  0  0  0
 17 10  1  0  0  0  0
 18  1  1  0  0  0  0
 20  1  1  0  0  0  0
 21  2  1  0  0  0  0
 22  2  1  0  0  0  0
 25  3  1  0  0  0  0
 28  5  1  0  0  0  0
M  END
>  <HBA>
2

>  <HBD>
0

>  <TPSA>
64.28

>  <cid>
42464

>  <dipole>
5.66

>  <excitation_energy_1>
2.553

>  <excitation_energy_2>
3.538

>  <excitation_energy_3>
3.834

>  <excitation_energy_4>
4.135

>  <homo_energy>
-5.763

>  <homo_lumo_gap>
3.186

>  <logP>
3.007

>  <lumo_energy>
-2.577

>  <melting_point>
105.51

>  <molecular_refractivity>
65.16

>  <oscillator_strength_1>
0.0584

>  <oscillator_strength_2>
0.0539

>  <oscillator_strength_3>
0.2321

>  <oscillator_strength_4>
0.0226

>  <open_babel_can_smiles>
COc1ccc2c(c1)C=C(C(O2)(C)C)N(=O)=O

>  <mulliken_charges>
30
1   -0.465619
2   -0.453033
3   -0.217177
4   -0.191008
5   -0.193865
6   -0.254097
7   -0.175964
8   0.12804
9   0.380511
10   0.34343
11   0.227484
12   0.25868
13   0.383035
14   -0.399975
15   -0.400724
16   -0.511695
17   -0.566603
18   0.188154
19   0.156988
20   0.159678
21   0.179089
22   0.15771
23   0.153588
24   0.174439
25   0.152608
26   0.153214
27   0.142547
28   0.14764
29   0.151419
30   0.191507

>  <lowdin_charges>
30
1   -0.45033
2   -0.454253
3   -0.281352
4   -0.187386
5   -0.174601
6   -0.165737
7   -0.103487
8   -0.040653
9   0.090821
10   0.09818
11   -0.022962
12   0.146909
13   0.306198
14   -0.257788
15   -0.255933
16   -0.200645
17   -0.197905
18   0.174921
19   0.160283
20   0.161225
21   0.17199
22   0.159786
23   0.15676
24   0.166303
25   0.146719
26   0.146915
27   0.168496
28   0.172109
29   0.173837
30   0.19158

$$$$

