PCCDB-ID:  10697
public computational chemistry database (PCCDB) project, http://pccdb.org

 20 20  0  0  0  0  0  0  0  0999 V2000
    0.9415    0.1338   -0.0485 C   0  0  0  0  0  0  0  0  0  0  0  0
    2.4554   -2.4915   -0.0510 C   0  0  0  0  0  0  0  0  0  0  0  0
    3.1675    1.2883   -0.0549 C   0  0  0  0  0  0  0  0  0  0  0  0
    5.2634    0.0871   -0.0578 C   0  0  0  0  0  0  0  0  0  0  0  0
    2.4545    0.0807   -0.0527 C   0  0  0  0  0  0  0  0  0  0  0  0
    3.1409   -1.1455   -0.0530 C   0  0  0  0  0  0  0  0  0  0  0  0
    4.5622    1.2924   -0.0571 C   0  0  0  0  0  0  0  0  0  0  0  0
    4.5475   -1.1089   -0.0559 C   0  0  0  0  0  0  0  0  0  0  0  0
    5.2994    2.4469   -0.0585 O   0  0  0  0  0  0  0  0  0  0  0  0
    5.1878   -2.3219   -0.0569 O   0  0  0  0  0  0  0  0  0  0  0  0
    0.5883    1.1694   -0.0503 H   0  0  0  0  0  0  0  0  0  0  0  0
    0.5183   -0.3579    0.8359 H   0  0  0  0  0  0  0  0  0  0  0  0
    0.5128   -0.3629   -0.9274 H   0  0  0  0  0  0  0  0  0  0  0  0
    1.3676   -2.3973   -0.0401 H   0  0  0  0  0  0  0  0  0  0  0  0
    2.7513   -3.0860    0.8220 H   0  0  0  0  0  0  0  0  0  0  0  0
    2.7340   -3.0804   -0.9336 H   0  0  0  0  0  0  0  0  0  0  0  0
    2.6253    2.2323   -0.0551 H   0  0  0  0  0  0  0  0  0  0  0  0
    6.3504    0.0992   -0.0585 H   0  0  0  0  0  0  0  0  0  0  0  0
    4.6903    3.2014   -0.0658 H   0  0  0  0  0  0  0  0  0  0  0  0
    6.1451   -2.1681   -0.0598 H   0  0  0  0  0  0  0  0  0  0  0  0
  1 12  1  0  0  0  0
  2 14  1  0  0  0  0
  2 15  1  0  0  0  0
  3  5  2  0  0  0  0
  4  7  2  0  0  0  0
  4  8  1  0  0  0  0
  5  1  1  0  0  0  0
  6  5  1  0  0  0  0
  6  2  1  0  0  0  0
  7  3  1  0  0  0  0
  8  6  2  0  0  0  0
  9  7  1  0  0  0  0
 10  8  1  0  0  0  0
 11  1  1  0  0  0  0
 13  1  1  0  0  0  0
 16  2  1  0  0  0  0
 17  3  1  0  0  0  0
 18  4  1  0  0  0  0
 19  9  1  0  0  0  0
 20 10  1  0  0  0  0
M  END
>  <HBA>
2

>  <HBD>
2

>  <TPSA>
40.46

>  <cid>
10697

>  <dipole>
1.03

>  <excitation_energy_1>
4.873

>  <excitation_energy_2>
4.911

>  <excitation_energy_3>
5.027

>  <excitation_energy_4>
5.417

>  <homo_energy>
-5.494

>  <homo_lumo_gap>
5.85

>  <logP>
1.715

>  <lumo_energy>
0.356

>  <melting_point>
93.94

>  <molecular_refractivity>
40.42

>  <oscillator_strength_1>
0.0021

>  <oscillator_strength_2>
0.0369

>  <oscillator_strength_3>
0.0003

>  <oscillator_strength_4>
0.0009

>  <open_babel_can_smiles>
Oc1cc(C)c(c(c1)O)C

>  <mulliken_charges>
20
1   -0.538991
2   -0.515539
3   -0.266524
4   -0.24148
5   0.12383
6   0.074234
7   0.363455
8   0.306961
9   -0.652261
10   -0.647034
11   0.151294
12   0.163582
13   0.163475
14   0.14511
15   0.1638
16   0.16355
17   0.103797
18   0.123396
19   0.406965
20   0.40838

>  <lowdin_charges>
20
1   -0.44253
2   -0.439286
3   -0.249209
4   -0.247502
5   0.010946
6   -0.059131
7   0.10831
8   0.105448
9   -0.383165
10   -0.377779
11   0.153812
12   0.160983
13   0.160974
14   0.152947
15   0.162279
16   0.162042
17   0.148034
18   0.159077
19   0.357919
20   0.355834

$$$$

