PCCDB-ID:  7092
public computational chemistry database (PCCDB) project, http://pccdb.org

 20 21  0  0  0  0  0  0  0  0999 V2000
    0.8447    0.1166    0.0196 C   0  0  0  0  0  0  0  0  0  0  0  0
    3.0918    1.3003   -0.0897 C   0  0  0  0  0  0  0  0  0  0  0  0
    5.2460   -2.3403   -0.1548 C   0  0  0  0  0  0  0  0  0  0  0  0
    4.4819    1.3063   -0.1486 C   0  0  0  0  0  0  0  0  0  0  0  0
    6.5959   -2.2905   -0.2110 C   0  0  0  0  0  0  0  0  0  0  0  0
    3.0605   -1.0995   -0.0717 C   0  0  0  0  0  0  0  0  0  0  0  0
    2.3551    0.1022   -0.0494 C   0  0  0  0  0  0  0  0  0  0  0  0
    4.4644   -1.1289   -0.1307 C   0  0  0  0  0  0  0  0  0  0  0  0
    5.1653    0.0916   -0.1686 C   0  0  0  0  0  0  0  0  0  0  0  0
    7.3176   -1.0212   -0.2507 C   0  0  0  0  0  0  0  0  0  0  0  0
    8.5169   -0.8860   -0.3016 O   0  0  0  0  0  0  0  0  0  0  0  0
    6.5297    0.1308   -0.2273 O   0  0  0  0  0  0  0  0  0  0  0  0
    0.4553    1.1384   -0.0218 H   0  0  0  0  0  0  0  0  0  0  0  0
    0.4812   -0.3394    0.9488 H   0  0  0  0  0  0  0  0  0  0  0  0
    0.3992   -0.4435   -0.8113 H   0  0  0  0  0  0  0  0  0  0  0  0
    2.5610    2.2489   -0.0742 H   0  0  0  0  0  0  0  0  0  0  0  0
    4.7282   -3.2966   -0.1266 H   0  0  0  0  0  0  0  0  0  0  0  0
    5.0471    2.2318   -0.1798 H   0  0  0  0  0  0  0  0  0  0  0  0
    7.2145   -3.1802   -0.2302 H   0  0  0  0  0  0  0  0  0  0  0  0
    2.5223   -2.0450   -0.0427 H   0  0  0  0  0  0  0  0  0  0  0  0
  1 14  1  0  0  0  0
  2 16  1  0  0  0  0
  2  7  2  0  0  0  0
  3  8  1  0  0  0  0
  3 17  1  0  0  0  0
  4  2  1  0  0  0  0
  5  3  2  0  0  0  0
  6  7  1  0  0  0  0
  6 20  1  0  0  0  0
  7  1  1  0  0  0  0
  8  6  2  0  0  0  0
  9  4  2  0  0  0  0
  9  8  1  0  0  0  0
 10 12  1  0  0  0  0
 10  5  1  0  0  0  0
 11 10  2  0  0  0  0
 12  9  1  0  0  0  0
 13  1  1  0  0  0  0
 15  1  1  0  0  0  0
 18  4  1  0  0  0  0
 19  5  1  0  0  0  0
M  END
>  <HBA>
2

>  <HBD>
0

>  <TPSA>
30.21

>  <cid>
7092

>  <dipole>
5.27

>  <excitation_energy_1>
3.983

>  <excitation_energy_2>
4.449

>  <excitation_energy_3>
4.567

>  <excitation_energy_4>
5.276

>  <homo_energy>
-6.335

>  <homo_lumo_gap>
4.514

>  <logP>
2.101

>  <lumo_energy>
-1.82

>  <melting_point>
87.16

>  <molecular_refractivity>
47.45

>  <oscillator_strength_1>
0.1007

>  <oscillator_strength_2>
0.0

>  <oscillator_strength_3>
0.1892

>  <oscillator_strength_4>
0.0252

>  <open_babel_can_smiles>
Cc1ccc2c(c1)ccc(=O)o2

>  <mulliken_charges>
20
1   -0.531733
2   -0.184882
3   -0.116909
4   -0.16738
5   -0.220291
6   -0.256983
7   0.179633
8   0.134056
9   0.31149
10   0.596266
11   -0.464638
12   -0.517805
13   0.159635
14   0.167708
15   0.166466
16   0.136443
17   0.154799
18   0.156716
19   0.164699
20   0.132711

>  <lowdin_charges>
20
1   -0.4424
2   -0.146721
3   -0.108317
4   -0.172279
5   -0.198676
6   -0.155281
7   -0.005901
8   -0.038192
9   0.111453
10   0.190942
11   -0.238625
12   -0.133572
13   0.15875
14   0.163616
15   0.163826
16   0.162555
17   0.169614
18   0.176452
19   0.182959
20   0.159796

$$$$

