PCCDB-ID:  31368
public computational chemistry database (PCCDB) project, http://pccdb.org

 10  9  0  0  0  0  0  0  0  0999 V2000
    0.9050    0.0403   -0.0928 C   0  0  0  0  0  0  0  0  0  0  0  0
    3.0715   -0.4105    1.1230 C   0  0  0  0  0  0  0  0  0  0  0  0
    2.9815    0.4575   -1.2246 C   0  0  0  0  0  0  0  0  0  0  0  0
    2.2458    0.0287   -0.0638 C   0  0  0  0  0  0  0  0  0  0  0  0
    3.6094    0.7971   -2.1433 N   0  0  0  0  0  0  0  0  0  0  0  0
    0.3294   -0.2787    0.7712 H   0  0  0  0  0  0  0  0  0  0  0  0
    0.3532    0.3647   -0.9688 H   0  0  0  0  0  0  0  0  0  0  0  0
    2.4228   -0.7179    1.9478 H   0  0  0  0  0  0  0  0  0  0  0  0
    3.7189    0.4025    1.4713 H   0  0  0  0  0  0  0  0  0  0  0  0
    3.7221   -1.2516    0.8571 H   0  0  0  0  0  0  0  0  0  0  0  0
  1  4  2  0  0  0  0
  1  6  1  0  0  0  0
  2  9  1  0  0  0  0
  2  8  1  0  0  0  0
  3  4  1  0  0  0  0
  4  2  1  0  0  0  0
  5  3  3  0  0  0  0
  7  1  1  0  0  0  0
 10  2  1  0  0  0  0
M  END
>  <HBA>
1

>  <HBD>
0

>  <TPSA>
23.79

>  <cid>
31368

>  <dipole>
3.88

>  <excitation_energy_1>
6.122

>  <excitation_energy_2>
6.242

>  <excitation_energy_3>
6.782

>  <excitation_energy_4>
6.868

>  <homo_energy>
-7.54

>  <homo_lumo_gap>
6.313

>  <logP>
1.086

>  <lumo_energy>
-1.227

>  <melting_point>
-8.51

>  <molecular_refractivity>
20.62

>  <oscillator_strength_1>
0.3126

>  <oscillator_strength_2>
0.0

>  <oscillator_strength_3>
0.0035

>  <oscillator_strength_4>
0.0012

>  <open_babel_can_smiles>
CC(=C)C#N

>  <mulliken_charges>
10
1   -0.340285
2   -0.496922
3   0.276062
4   0.16651
5   -0.469919
6   0.160803
7   0.175862
8   0.164944
9   0.181491
10   0.181454

>  <lowdin_charges>
10
1   -0.292998
2   -0.431257
3   -0.013893
4   -0.005292
5   -0.116662
6   0.17058
7   0.178845
8   0.165275
9   0.172836
10   0.172567

$$$$

