PCCDB-ID:  59178
public computational chemistry database (PCCDB) project, http://pccdb.org

 24 24  0  0  0  0  0  0  0  0999 V2000
    2.4335   -3.5636    2.1007 C   0  0  0  0  0  0  0  0  0  0  0  0
    6.3477    2.7394    1.9762 C   0  0  0  0  0  0  0  0  0  0  0  0
    6.0973    1.4073    2.2911 C   0  0  0  0  0  0  0  0  0  0  0  0
    7.6536    3.1151    1.6537 C   0  0  0  0  0  0  0  0  0  0  0  0
    5.5072   -2.6322    3.2888 C   0  0  0  0  0  0  0  0  0  0  0  0
    5.2490   -3.4848    2.0494 C   0  0  0  0  0  0  0  0  0  0  0  0
    8.4382    0.9890    1.9274 C   0  0  0  0  0  0  0  0  0  0  0  0
    7.1669    0.5049    2.2682 C   0  0  0  0  0  0  0  0  0  0  0  0
    7.0197   -0.9418    2.5831 C   0  0  0  0  0  0  0  0  0  0  0  0
    8.6899    2.2656    1.6261 N   0  0  0  0  0  0  0  0  0  0  0  0
    7.9213   -1.7543    2.5125 O   0  0  0  0  0  0  0  0  0  0  0  0
    5.7584   -1.2516    2.9677 O   0  0  0  0  0  0  0  0  0  0  0  0
    3.8040   -3.0000    1.0307 S   0  0  0  0  0  0  0  0  0  0  0  0
    1.5088   -3.3735    1.5494 H   0  0  0  0  0  0  0  0  0  0  0  0
    2.3910   -3.0109    3.0441 H   0  0  0  0  0  0  0  0  0  0  0  0
    2.5052   -4.6369    2.3036 H   0  0  0  0  0  0  0  0  0  0  0  0
    5.5496    3.4756    1.9781 H   0  0  0  0  0  0  0  0  0  0  0  0
    5.1003    1.0633    2.5432 H   0  0  0  0  0  0  0  0  0  0  0  0
    7.8808    4.1501    1.4032 H   0  0  0  0  0  0  0  0  0  0  0  0
    6.3679   -3.0338    3.8325 H   0  0  0  0  0  0  0  0  0  0  0  0
    4.6391   -2.6070    3.9511 H   0  0  0  0  0  0  0  0  0  0  0  0
    5.1382   -4.5320    2.3567 H   0  0  0  0  0  0  0  0  0  0  0  0
    6.1158   -3.4324    1.3850 H   0  0  0  0  0  0  0  0  0  0  0  0
    9.2792    0.3005    1.9036 H   0  0  0  0  0  0  0  0  0  0  0  0
  1 16  1  0  0  0  0
  1 15  1  0  0  0  0
  2 17  1  0  0  0  0
  2  3  2  0  0  0  0
  3 18  1  0  0  0  0
  4  2  1  0  0  0  0
  5 20  1  0  0  0  0
  5 21  1  0  0  0  0
  6 22  1  0  0  0  0
  6  5  1  0  0  0  0
  7  8  2  0  0  0  0
  8  3  1  0  0  0  0
  8  9  1  0  0  0  0
  9 12  1  0  0  0  0
 10  4  2  0  0  0  0
 10  7  1  0  0  0  0
 11  9  2  0  0  0  0
 12  5  1  0  0  0  0
 13  6  1  0  0  0  0
 13  1  1  0  0  0  0
 14  1  1  0  0  0  0
 19  4  1  0  0  0  0
 23  6  1  0  0  0  0
 24  7  1  0  0  0  0
M  END
>  <HBA>
4

>  <HBD>
0

>  <TPSA>
64.49

>  <cid>
59178

>  <dipole>
4.09

>  <excitation_energy_1>
3.849

>  <excitation_energy_2>
4.265

>  <excitation_energy_3>
4.715

>  <excitation_energy_4>
4.912

>  <homo_energy>
-6.155

>  <homo_lumo_gap>
4.599

>  <logP>
1.601

>  <lumo_energy>
-1.557

>  <melting_point>
52.41

>  <molecular_refractivity>
52.72

>  <oscillator_strength_1>
0.0011

>  <oscillator_strength_2>
0.0006

>  <oscillator_strength_3>
0.0014

>  <oscillator_strength_4>
0.0014

>  <open_babel_can_smiles>
CSCCOC(=O)c1cccnc1

>  <mulliken_charges>
24
1   -0.589263
2   -0.147916
3   -0.120856
4   0.051047
5   -0.039837
6   -0.43985
7   0.026016
8   0.025676
9   0.600057
10   -0.413314
11   -0.489844
12   -0.469137
13   0.10319
14   0.188429
15   0.176336
16   0.176561
17   0.145814
18   0.174898
19   0.150525
20   0.177631
21   0.159244
22   0.171585
23   0.206716
24   0.176292

>  <lowdin_charges>
24
1   -0.547718
2   -0.176259
3   -0.109128
4   -0.07076
5   -0.135248
6   -0.391602
7   -0.065281
8   -0.062939
9   0.202923
10   -0.144329
11   -0.269377
12   -0.185856
13   0.104157
14   0.179083
15   0.159063
16   0.159781
17   0.169134
18   0.179369
19   0.15953
20   0.16546
21   0.155782
22   0.162745
23   0.184923
24   0.176548

$$$$

