PCCDB-ID:  36590
public computational chemistry database (PCCDB) project, http://pccdb.org

 18 18  0  0  0  0  0  0  0  0999 V2000
    1.1173   -1.3526    1.7717 C   0  0  0  0  0  0  0  0  0  0  0  0
    0.9367   -1.0346    3.0953 C   0  0  0  0  0  0  0  0  0  0  0  0
    2.2022   -0.9922    0.9426 C   0  0  0  0  0  0  0  0  0  0  0  0
    1.7813   -0.2784    3.9368 C   0  0  0  0  0  0  0  0  0  0  0  0
    3.3458   -0.2570    1.1771 C   0  0  0  0  0  0  0  0  0  0  0  0
    2.9853    0.3353    3.6709 C   0  0  0  0  0  0  0  0  0  0  0  0
    3.7767    0.3916    2.4116 C   0  0  0  0  0  0  0  0  0  0  0  0
    4.2399   -0.1431   -0.0717 C   0  0  0  0  0  0  0  0  0  0  0  0
    3.6205    1.0149    4.6450 O   0  0  0  0  0  0  0  0  0  0  0  0
    4.8451    1.0339    2.4781 O   0  0  0  0  0  0  0  0  0  0  0  0
    3.9187   -0.6732   -1.1164 O   0  0  0  0  0  0  0  0  0  0  0  0
    5.3642    0.5555    0.0428 O   0  0  0  0  0  0  0  0  0  0  0  0
    0.3424   -1.9508    1.2999 H   0  0  0  0  0  0  0  0  0  0  0  0
    0.0318   -1.4068    3.5701 H   0  0  0  0  0  0  0  0  0  0  0  0
    2.1493   -1.3525   -0.0824 H   0  0  0  0  0  0  0  0  0  0  0  0
    1.4212   -0.1626    4.9599 H   0  0  0  0  0  0  0  0  0  0  0  0
    3.1005    0.9716    5.4648 H   0  0  0  0  0  0  0  0  0  0  0  0
    5.4259    0.8953    0.9814 H   0  0  0  0  0  0  0  0  0  0  0  0
  1  2  2  0  0  0  0
  2 14  1  0  0  0  0
  2  4  1  0  0  0  0
  3  5  2  0  0  0  0
  3  1  1  0  0  0  0
  4 16  1  0  0  0  0
  5  7  1  0  0  0  0
  6  4  2  0  0  0  0
  6  9  1  0  0  0  0
  7 10  2  0  0  0  0
  7  6  1  0  0  0  0
  8 12  1  0  0  0  0
  8  5  1  0  0  0  0
  9 17  1  0  0  0  0
 11  8  2  0  0  0  0
 12 18  1  0  0  0  0
 13  1  1  0  0  0  0
 15  3  1  0  0  0  0
M  END
>  <HBA>
4

>  <HBD>
2

>  <TPSA>
74.6

>  <cid>
36590

>  <dipole>
8.66

>  <excitation_energy_1>
3.519

>  <excitation_energy_2>
3.612

>  <excitation_energy_3>
3.751

>  <excitation_energy_4>
4.025

>  <homo_energy>
-6.719

>  <homo_lumo_gap>
3.962

>  <logP>
0.451

>  <lumo_energy>
-2.757

>  <melting_point>
171.06

>  <molecular_refractivity>
41.69

>  <oscillator_strength_1>
0.0

>  <oscillator_strength_2>
0.148

>  <oscillator_strength_3>
0.0001

>  <oscillator_strength_4>
0.0

>  <open_babel_can_smiles>
OC(=O)c1ccccc(c1=O)O

>  <mulliken_charges>
18
1   -0.124139
2   -0.101754
3   -0.172784
4   -0.224307
5   -0.039591
6   0.348679
7   0.375077
8   0.5937
9   -0.564003
10   -0.553004
11   -0.475346
12   -0.590904
13   0.157607
14   0.158582
15   0.204556
16   0.140541
17   0.419874
18   0.447214

>  <lowdin_charges>
18
1   -0.160453
2   -0.112433
3   -0.092676
4   -0.201579
5   -0.083401
6   0.119093
7   0.124135
8   0.189239
9   -0.308479
10   -0.297265
11   -0.269407
12   -0.348897
13   0.174213
14   0.173788
15   0.197984
16   0.163434
17   0.364592
18   0.368114

$$$$

