PCCDB-ID:  23400
public computational chemistry database (PCCDB) project, http://pccdb.org

 22 22  0  0  1  0  0  0  0  0999 V2000
    3.0685    0.1667   -1.6505 C   0  0  0  0  0  0  0  0  0  0  0  0
    3.2772   -3.2953    4.5571 C   0  0  0  0  0  0  0  0  0  0  0  0
    3.3933   -1.9233    4.1511 C   0  0  0  0  0  0  0  0  0  0  0  0
    2.8618   -0.8243    0.6865 C   0  0  0  0  0  0  0  0  0  0  0  0
    2.3381   -0.6292    2.1224 C   0  0  0  0  0  0  0  0  0  0  0  0
    2.4536   -3.8858    3.6513 C   0  0  0  0  0  0  0  0  0  0  0  0
    2.6061    0.3944   -0.2104 C   0  0  1  0  0  0  0  0  0  0  0  0
    2.6315   -1.7767    3.0287 C   0  0  0  0  0  0  0  0  0  0  0  0
    3.1964    1.5788    0.3376 O   0  0  0  0  0  0  0  0  0  0  0  0
    2.0500   -2.9792    2.7124 O   0  0  0  0  0  0  0  0  0  0  0  0
    2.5492   -0.6839   -2.1067 H   0  0  0  0  0  0  0  0  0  0  0  0
    4.1461   -0.0454   -1.6841 H   0  0  0  0  0  0  0  0  0  0  0  0
    2.8770    1.0580   -2.2562 H   0  0  0  0  0  0  0  0  0  0  0  0
    3.7421   -3.7688    5.4109 H   0  0  0  0  0  0  0  0  0  0  0  0
    3.9686   -1.1453    4.6344 H   0  0  0  0  0  0  0  0  0  0  0  0
    2.3921   -1.7104    0.2414 H   0  0  0  0  0  0  0  0  0  0  0  0
    3.9428   -1.0295    0.7165 H   0  0  0  0  0  0  0  0  0  0  0  0
    1.2528   -0.4554    2.0837 H   0  0  0  0  0  0  0  0  0  0  0  0
    2.7826    0.2757    2.5477 H   0  0  0  0  0  0  0  0  0  0  0  0
    2.0670   -4.8865    3.5316 H   0  0  0  0  0  0  0  0  0  0  0  0
    1.5305    0.6128   -0.2110 H   0  0  0  0  0  0  0  0  0  0  0  0
    4.1598    1.4556    0.3110 H   0  0  0  0  0  0  0  0  0  0  0  0
  1  7  1  0  0  0  0
  2 14  1  0  0  0  0
  3  2  1  0  0  0  0
  3 15  1  0  0  0  0
  4 17  1  0  0  0  0
  4  5  1  0  0  0  0
  5 19  1  0  0  0  0
  5  8  1  0  0  0  0
  6  2  2  0  0  0  0
  7 21  1  6  0  0  0
  7  9  1  0  0  0  0
  7  4  1  0  0  0  0
  8  3  2  0  0  0  0
 10  8  1  0  0  0  0
 10  6  1  0  0  0  0
 11  1  1  0  0  0  0
 12  1  1  0  0  0  0
 13  1  1  0  0  0  0
 16  4  1  0  0  0  0
 18  5  1  0  0  0  0
 20  6  1  0  0  0  0
 22  9  1  0  0  0  0
M  END
>  <HBA>
2

>  <HBD>
1

>  <TPSA>
33.37

>  <cid>
23400

>  <dipole>
1.46

>  <excitation_energy_1>
5.44

>  <excitation_energy_2>
5.751

>  <excitation_energy_3>
5.836

>  <excitation_energy_4>
5.981

>  <homo_energy>
-5.774

>  <homo_lumo_gap>
6.387

>  <logP>
1.593

>  <lumo_energy>
0.612

>  <melting_point>
23.01

>  <molecular_refractivity>
39.26

>  <oscillator_strength_1>
0.0107

>  <oscillator_strength_2>
0.0805

>  <oscillator_strength_3>
0.1414

>  <oscillator_strength_4>
0.0069

>  <open_babel_can_smiles>
C[C@@H](CCc1ccco1)O

>  <mulliken_charges>
22
1   -0.458596
2   -0.182007
3   -0.212948
4   -0.270104
5   -0.346226
6   0.079097
7   0.136563
8   0.348996
9   -0.619651
10   -0.4425
11   0.146438
12   0.132588
13   0.159443
14   0.136649
15   0.132569
16   0.148585
17   0.125022
18   0.153114
19   0.16587
20   0.148621
21   0.137152
22   0.381325

>  <lowdin_charges>
22
1   -0.459183
2   -0.207828
3   -0.226721
4   -0.289767
5   -0.27447
6   -0.086473
7   0.002657
8   0.067728
9   -0.462732
10   -0.109155
11   0.155731
12   0.142234
13   0.159303
14   0.167581
15   0.166465
16   0.153701
17   0.137291
18   0.154631
19   0.166237
20   0.167218
21   0.140336
22   0.335217

$$$$

