PCCDB-ID:  16508
public computational chemistry database (PCCDB) project, http://pccdb.org

 19 19  0  0  1  0  0  0  0  0999 V2000
    3.3441    0.0013   -1.5471 C   0  0  0  0  0  0  0  0  0  0  0  0
    3.7873    1.5786    2.8952 C   0  0  0  0  0  0  0  0  0  0  0  0
    2.9805   -1.3190    0.6574 C   0  0  0  0  0  0  0  0  0  0  0  0
    3.1133   -0.8028    2.1123 C   0  0  0  0  0  0  0  0  0  0  0  0
    2.7108   -0.0370   -0.1664 C   0  0  1  0  0  0  0  0  0  0  0  0
    2.9222    0.7280    1.9806 C   0  0  2  0  0  0  0  0  0  0  0  0
    3.2506    1.0236    0.6226 O   0  0  0  0  0  0  0  0  0  0  0  0
    2.9361   -0.7949   -2.1799 H   0  0  0  0  0  0  0  0  0  0  0  0
    4.4287   -0.1340   -1.4711 H   0  0  0  0  0  0  0  0  0  0  0  0
    3.1506    0.9619   -2.0354 H   0  0  0  0  0  0  0  0  0  0  0  0
    3.5525    1.3755    3.9462 H   0  0  0  0  0  0  0  0  0  0  0  0
    3.6216    2.6440    2.7050 H   0  0  0  0  0  0  0  0  0  0  0  0
    4.8474    1.3593    2.7260 H   0  0  0  0  0  0  0  0  0  0  0  0
    2.1790   -2.0547    0.5355 H   0  0  0  0  0  0  0  0  0  0  0  0
    3.9119   -1.7901    0.3244 H   0  0  0  0  0  0  0  0  0  0  0  0
    4.1067   -1.0263    2.5166 H   0  0  0  0  0  0  0  0  0  0  0  0
    2.3764   -1.2435    2.7915 H   0  0  0  0  0  0  0  0  0  0  0  0
    1.6191    0.1084   -0.2579 H   0  0  0  0  0  0  0  0  0  0  0  0
    1.8577    0.9726    2.1481 H   0  0  0  0  0  0  0  0  0  0  0  0
  1  9  1  0  0  0  0
  1  5  1  0  0  0  0
  2 11  1  0  0  0  0
  3  4  1  0  0  0  0
  4 16  1  0  0  0  0
  4 17  1  0  0  0  0
  5 18  1  6  0  0  0
  5  7  1  0  0  0  0
  5  3  1  0  0  0  0
  6  4  1  0  0  0  0
  6 19  1  1  0  0  0
  6  2  1  0  0  0  0
  7  6  1  0  0  0  0
  8  1  1  0  0  0  0
 10  1  1  0  0  0  0
 12  2  1  0  0  0  0
 13  2  1  0  0  0  0
 14  3  1  0  0  0  0
 15  3  1  0  0  0  0
M  END
>  <HBA>
1

>  <HBD>
0

>  <TPSA>
9.23

>  <cid>
16508

>  <dipole>
1.31

>  <excitation_energy_1>
6.498

>  <excitation_energy_2>
6.778

>  <excitation_energy_3>
6.9

>  <excitation_energy_4>
7.106

>  <homo_energy>
-6.678

>  <homo_lumo_gap>
9.023

>  <logP>
1.574

>  <lumo_energy>
2.346

>  <melting_point>
-12.93

>  <molecular_refractivity>
29.93

>  <oscillator_strength_1>
0.0281

>  <oscillator_strength_2>
0.0229

>  <oscillator_strength_3>
0.0615

>  <oscillator_strength_4>
0.0229

>  <open_babel_can_smiles>
C[C@@H]1CC[C@@H](O1)C

>  <mulliken_charges>
19
1   -0.460301
2   -0.460679
3   -0.298513
4   -0.300314
5   0.172568
6   0.173693
7   -0.499374
8   0.141343
9   0.150476
10   0.156586
11   0.141416
12   0.15648
13   0.150631
14   0.137171
15   0.142044
16   0.142177
17   0.137357
18   0.108561
19   0.108677

>  <lowdin_charges>
19
1   -0.446537
2   -0.443175
3   -0.29884
4   -0.29926
5   0.006819
6   0.007475
7   -0.280812
8   0.153736
9   0.151719
10   0.158147
11   0.15146
12   0.156584
13   0.152177
14   0.148727
15   0.148331
16   0.147708
17   0.149303
18   0.117833
19   0.118605

$$$$

