PCCDB-ID:  21716
public computational chemistry database (PCCDB) project, http://pccdb.org

 15 15  0  0  0  0  0  0  0  0999 V2000
    1.9098   -0.7647    1.1659 C   0  0  0  0  0  0  0  0  0  0  0  0
    3.8337    0.2180   -2.0262 C   0  0  0  0  0  0  0  0  0  0  0  0
    3.9378   -2.1923   -2.5927 C   0  0  0  0  0  0  0  0  0  0  0  0
    2.5839    0.0963    0.1175 C   0  0  0  0  0  0  0  0  0  0  0  0
    3.2110   -0.5535   -1.0724 C   0  0  0  0  0  0  0  0  0  0  0  0
    3.2798   -1.9538   -1.4157 C   0  0  0  0  0  0  0  0  0  0  0  0
    2.6223    1.3134    0.2317 O   0  0  0  0  0  0  0  0  0  0  0  0
    2.7216   -2.9011   -0.6044 O   0  0  0  0  0  0  0  0  0  0  0  0
    4.4921   -0.7087   -3.3130 S   0  0  0  0  0  0  0  0  0  0  0  0
    1.0969   -1.3514    0.7240 H   0  0  0  0  0  0  0  0  0  0  0  0
    1.5202   -0.1145    1.9515 H   0  0  0  0  0  0  0  0  0  0  0  0
    2.6153   -1.4879    1.5893 H   0  0  0  0  0  0  0  0  0  0  0  0
    3.9196    1.2952   -2.0011 H   0  0  0  0  0  0  0  0  0  0  0  0
    4.1274   -3.1440   -3.0714 H   0  0  0  0  0  0  0  0  0  0  0  0
    2.8733   -3.7760   -0.9945 H   0  0  0  0  0  0  0  0  0  0  0  0
  1 12  1  0  0  0  0
  1 11  1  0  0  0  0
  2 13  1  0  0  0  0
  2  5  2  0  0  0  0
  3  6  2  0  0  0  0
  4  7  2  0  0  0  0
  4  1  1  0  0  0  0
  5  4  1  0  0  0  0
  6  5  1  0  0  0  0
  6  8  1  0  0  0  0
  9  3  1  0  0  0  0
  9  2  1  0  0  0  0
 10  1  1  0  0  0  0
 14  3  1  0  0  0  0
 15  8  1  0  0  0  0
M  END
>  <HBA>
3

>  <HBD>
1

>  <TPSA>
65.54

>  <cid>
21716

>  <dipole>
4.15

>  <excitation_energy_1>
3.847

>  <excitation_energy_2>
4.285

>  <excitation_energy_3>
4.947

>  <excitation_energy_4>
5.134

>  <homo_energy>
-6.27

>  <homo_lumo_gap>
4.985

>  <logP>
1.656

>  <lumo_energy>
-1.284

>  <melting_point>
78.42

>  <molecular_refractivity>
36.54

>  <oscillator_strength_1>
0.0001

>  <oscillator_strength_2>
0.0375

>  <oscillator_strength_3>
0.0014

>  <oscillator_strength_4>
0.1944

>  <open_babel_can_smiles>
CC(=O)c1cscc1O

>  <mulliken_charges>
15
1   -0.521987
2   -0.368396
3   -0.425663
4   0.40872
5   0.078518
6   0.328404
7   -0.462574
8   -0.636739
9   0.290783
10   0.176143
11   0.17037
12   0.175626
13   0.207297
14   0.164311
15   0.415186

>  <lowdin_charges>
15
1   -0.473087
2   -0.276752
3   -0.403288
4   0.165497
5   -0.093528
6   0.080247
7   -0.251968
8   -0.370495
9   0.358773
10   0.175313
11   0.170049
12   0.17514
13   0.199397
14   0.179717
15   0.364985

$$$$

