PCCDB-ID:  9266
public computational chemistry database (PCCDB) project, http://pccdb.org

 24 24  0  0  0  0  0  0  0  0999 V2000
   -1.5705    0.0011    0.7201 C   0  0  0  0  0  0  0  0  0  0  0  0
   -1.3921    1.3162   -0.0541 C   0  0  0  0  0  0  0  0  0  0  0  0
   -1.3940   -1.3141   -0.0543 C   0  0  0  0  0  0  0  0  0  0  0  0
    0.0042    1.6162   -0.6401 C   0  0  0  0  0  0  0  0  0  0  0  0
    0.0019   -1.6162   -0.6402 C   0  0  0  0  0  0  0  0  0  0  0  0
    1.2029    1.3275    0.2956 C   0  0  0  0  0  0  0  0  0  0  0  0
    1.2009   -1.3292    0.2956 C   0  0  0  0  0  0  0  0  0  0  0  0
    1.9444   -0.0014    0.0515 C   0  0  0  0  0  0  0  0  0  0  0  0
   -2.5856    0.0018    1.1409 H   0  0  0  0  0  0  0  0  0  0  0  0
   -0.9001    0.0005    1.5890 H   0  0  0  0  0  0  0  0  0  0  0  0
   -1.6524    2.1330    0.6343 H   0  0  0  0  0  0  0  0  0  0  0  0
   -2.1326    1.3626   -0.8655 H   0  0  0  0  0  0  0  0  0  0  0  0
   -2.1345   -1.3593   -0.8658 H   0  0  0  0  0  0  0  0  0  0  0  0
   -1.6556   -2.1307    0.6340 H   0  0  0  0  0  0  0  0  0  0  0  0
    0.0149    2.6789   -0.9154 H   0  0  0  0  0  0  0  0  0  0  0  0
    0.1449    1.0742   -1.5830 H   0  0  0  0  0  0  0  0  0  0  0  0
    0.1434   -1.0745   -1.5831 H   0  0  0  0  0  0  0  0  0  0  0  0
    0.0110   -2.6790   -0.9155 H   0  0  0  0  0  0  0  0  0  0  0  0
    0.8839    1.3903    1.3458 H   0  0  0  0  0  0  0  0  0  0  0  0
    1.9444    2.1273    0.1699 H   0  0  0  0  0  0  0  0  0  0  0  0
    1.9413   -2.1301    0.1698 H   0  0  0  0  0  0  0  0  0  0  0  0
    0.8819   -1.3916    1.3457 H   0  0  0  0  0  0  0  0  0  0  0  0
    2.8446   -0.0021    0.6819 H   0  0  0  0  0  0  0  0  0  0  0  0
    2.3086   -0.0017   -0.9872 H   0  0  0  0  0  0  0  0  0  0  0  0
  1  9  1  0  0  0  0
  1 10  1  0  0  0  0
  2 11  1  0  0  0  0
  2  1  1  0  0  0  0
  3 14  1  0  0  0  0
  3  1  1  0  0  0  0
  4  2  1  0  0  0  0
  4  6  1  0  0  0  0
  5  3  1  0  0  0  0
  5  7  1  0  0  0  0
  6 19  1  0  0  0  0
  7 22  1  0  0  0  0
  8  7  1  0  0  0  0
  8  6  1  0  0  0  0
  8 23  1  0  0  0  0
 12  2  1  0  0  0  0
 13  3  1  0  0  0  0
 15  4  1  0  0  0  0
 16  4  1  0  0  0  0
 17  5  1  0  0  0  0
 18  5  1  0  0  0  0
 20  6  1  0  0  0  0
 21  7  1  0  0  0  0
 24  8  1  0  0  0  0
M  END
>  <HBA>
0

>  <HBD>
0

>  <TPSA>
0.0

>  <cid>
9266

>  <dipole>
0.05

>  <excitation_energy_1>
7.253

>  <excitation_energy_2>
7.47

>  <excitation_energy_3>
7.595

>  <excitation_energy_4>
7.624

>  <homo_energy>
-7.755

>  <homo_lumo_gap>
9.919

>  <logP>
3.121

>  <lumo_energy>
2.163

>  <melting_point>
-5.31

>  <molecular_refractivity>
38.46

>  <oscillator_strength_1>
0.0021

>  <oscillator_strength_2>
0.0009

>  <oscillator_strength_3>
0.0067

>  <oscillator_strength_4>
0.0143

>  <open_babel_can_smiles>
C1CCCCCCC1

>  <mulliken_charges>
24
1   -0.257359
2   -0.257137
3   -0.257143
4   -0.258612
5   -0.258621
6   -0.256171
7   -0.25618
8   -0.262174
9   0.127178
10   0.132323
11   0.127836
12   0.125345
13   0.125347
14   0.127839
15   0.128725
16   0.134039
17   0.134038
18   0.128728
19   0.130689
20   0.128944
21   0.128947
22   0.130691
23   0.125542
24   0.127184

>  <lowdin_charges>
24
1   -0.282893
2   -0.279317
3   -0.27932
4   -0.282944
5   -0.282947
6   -0.28086
7   -0.280861
8   -0.274017
9   0.142882
10   0.138772
11   0.140716
12   0.139623
13   0.139624
14   0.14072
15   0.141289
16   0.13925
17   0.139249
18   0.141289
19   0.137509
20   0.144409
21   0.144409
22   0.13751
23   0.141078
24   0.13483

$$$$

