PCCDB-ID:  55020
public computational chemistry database (PCCDB) project, http://pccdb.org

 30 30  0  0  1  0  0  0  0  0999 V2000
    2.1469    0.3895    0.2672 C   0  0  0  0  0  0  0  0  0  0  0  0
    6.2489    0.1180   -1.6954 C   0  0  0  0  0  0  0  0  0  0  0  0
    3.2483    0.4353   -0.7976 C   0  0  0  0  0  0  0  0  0  0  0  0
    4.0586   -0.8679   -0.8634 C   0  0  0  0  0  0  0  0  0  0  0  0
    6.5349   -3.0175   -6.0514 C   0  0  0  0  0  0  0  0  0  0  0  0
    4.7358   -3.5243   -4.3279 C   0  0  0  0  0  0  0  0  0  0  0  0
    5.1325   -0.9030   -1.9741 C   0  0  2  0  0  0  0  0  0  0  0  0
    6.2330   -3.5242   -4.6342 C   0  0  2  0  0  0  0  0  0  0  0  0
    5.7225   -2.3283   -2.1182 C   0  0  1  0  0  0  0  0  0  0  0  0
    7.9212   -2.9706   -6.3413 O   0  0  0  0  0  0  0  0  0  0  0  0
    4.4980   -3.6505   -2.5206 S   0  0  0  0  0  0  0  0  0  0  0  0
    7.0851   -2.4464   -3.3855 S   0  0  0  0  0  0  0  0  0  0  0  0
    1.5795    1.3268    0.2936 H   0  0  0  0  0  0  0  0  0  0  0  0
    2.5684    0.2271    1.2668 H   0  0  0  0  0  0  0  0  0  0  0  0
    1.4387   -0.4249    0.0717 H   0  0  0  0  0  0  0  0  0  0  0  0
    5.8401    1.1289   -1.6053 H   0  0  0  0  0  0  0  0  0  0  0  0
    6.9931    0.1340   -2.4969 H   0  0  0  0  0  0  0  0  0  0  0  0
    6.7642   -0.1177   -0.7549 H   0  0  0  0  0  0  0  0  0  0  0  0
    3.9089    1.2873   -0.5923 H   0  0  0  0  0  0  0  0  0  0  0  0
    2.7961    0.6269   -1.7813 H   0  0  0  0  0  0  0  0  0  0  0  0
    3.3597   -1.6985   -1.0173 H   0  0  0  0  0  0  0  0  0  0  0  0
    4.5435   -1.0453    0.1094 H   0  0  0  0  0  0  0  0  0  0  0  0
    6.0561   -2.0372   -6.1979 H   0  0  0  0  0  0  0  0  0  0  0  0
    6.1011   -3.7165   -6.7764 H   0  0  0  0  0  0  0  0  0  0  0  0
    4.2388   -4.3867   -4.7842 H   0  0  0  0  0  0  0  0  0  0  0  0
    4.2602   -2.6127   -4.7067 H   0  0  0  0  0  0  0  0  0  0  0  0
    4.6538   -0.6453   -2.9299 H   0  0  0  0  0  0  0  0  0  0  0  0
    6.6415   -4.5323   -4.5194 H   0  0  0  0  0  0  0  0  0  0  0  0
    6.1700   -2.6277   -1.1644 H   0  0  0  0  0  0  0  0  0  0  0  0
    8.2943   -2.2217   -5.8486 H   0  0  0  0  0  0  0  0  0  0  0  0
  1 13  1  0  0  0  0
  1 14  1  0  0  0  0
  2 16  1  0  0  0  0
  2 18  1  0  0  0  0
  3 19  1  0  0  0  0
  3  1  1  0  0  0  0
  4  3  1  0  0  0  0
  4 22  1  0  0  0  0
  5  8  1  0  0  0  0
  6 11  1  0  0  0  0
  7 27  1  6  0  0  0
  7  2  1  0  0  0  0
  7  4  1  0  0  0  0
  8 28  1  1  0  0  0
  8  6  1  0  0  0  0
  8 12  1  0  0  0  0
  9  7  1  0  0  0  0
  9 29  1  1  0  0  0
 10  5  1  0  0  0  0
 10 30  1  0  0  0  0
 11  9  1  0  0  0  0
 12  9  1  0  0  0  0
 15  1  1  0  0  0  0
 17  2  1  0  0  0  0
 20  3  1  0  0  0  0
 21  4  1  0  0  0  0
 23  5  1  0  0  0  0
 24  5  1  0  0  0  0
 25  6  1  0  0  0  0
 26  6  1  0  0  0  0
M  END
>  <HBA>
3

>  <HBD>
1

>  <TPSA>
70.83

>  <cid>
55020

>  <dipole>
2.1

>  <excitation_energy_1>
4.814

>  <excitation_energy_2>
4.866

>  <excitation_energy_3>
5.636

>  <excitation_energy_4>
5.665

>  <homo_energy>
-6.251

>  <homo_lumo_gap>
6.174

>  <logP>
2.59

>  <lumo_energy>
-0.076

>  <melting_point>
30.58

>  <molecular_refractivity>
59.61

>  <oscillator_strength_1>
0.0089

>  <oscillator_strength_2>
0.0011

>  <oscillator_strength_3>
0.0035

>  <oscillator_strength_4>
0.0041

>  <open_babel_can_smiles>
CCC[C@H]([C@H]1SC[C@H](S1)CO)C

>  <mulliken_charges>
30
1   -0.443018
2   -0.465719
3   -0.254199
4   -0.260655
5   -0.029597
6   -0.429236
7   -0.052301
8   -0.251748
9   -0.42488
10   -0.611619
11   0.123978
12   0.072814
13   0.142904
14   0.142855
15   0.145339
16   0.1535
17   0.169575
18   0.141242
19   0.135972
20   0.13182
21   0.158349
22   0.12398
23   0.132964
24   0.152789
25   0.187747
26   0.180303
27   0.131425
28   0.191129
29   0.197674
30   0.406612

>  <lowdin_charges>
30
1   -0.44368
2   -0.451696
3   -0.272797
4   -0.28353
5   -0.139307
6   -0.381003
7   -0.130594
8   -0.236883
9   -0.318571
10   -0.459469
11   0.117148
12   0.060929
13   0.150044
14   0.146484
15   0.148596
16   0.154139
17   0.162646
18   0.147331
19   0.140814
20   0.139242
21   0.1552
22   0.136848
23   0.133376
24   0.15248
25   0.177064
26   0.159694
27   0.141705
28   0.167844
29   0.176068
30   0.349879

$$$$

