PCCDB-ID:  65614
public computational chemistry database (PCCDB) project, http://pccdb.org

 25 25  0  0  1  0  0  0  0  0999 V2000
    0.7179   -0.3874    0.2233 C   0  0  0  0  0  0  0  0  0  0  0  0
    1.6567   -4.6600   -2.7520 C   0  0  0  0  0  0  0  0  0  0  0  0
    0.9393   -3.5424   -3.1799 C   0  0  0  0  0  0  0  0  0  0  0  0
    2.7268   -4.4936   -1.8701 C   0  0  0  0  0  0  0  0  0  0  0  0
    1.2888   -2.2690   -2.7261 C   0  0  0  0  0  0  0  0  0  0  0  0
    3.0720   -3.2190   -1.4212 C   0  0  0  0  0  0  0  0  0  0  0  0
    2.7323   -0.7108   -1.3289 C   0  0  0  0  0  0  0  0  0  0  0  0
    3.5286    0.9578    1.5151 C   0  0  0  0  0  0  0  0  0  0  0  0
    2.2459   -0.4109    0.1126 C   0  0  1  0  0  0  0  0  0  0  0  0
    2.3568   -2.0861   -1.8375 C   0  0  0  0  0  0  0  0  0  0  0  0
    2.7706    0.8955    0.5056 N   0  0  0  0  0  0  0  0  0  0  0  0
    4.0626    2.1169    1.9584 O   0  0  0  0  0  0  0  0  0  0  0  0
    0.2862   -1.3406   -0.0974 H   0  0  0  0  0  0  0  0  0  0  0  0
    0.3048    0.4131   -0.4013 H   0  0  0  0  0  0  0  0  0  0  0  0
    0.4121   -0.1976    1.2577 H   0  0  0  0  0  0  0  0  0  0  0  0
    1.3893   -5.6517   -3.1070 H   0  0  0  0  0  0  0  0  0  0  0  0
    0.1086   -3.6591   -3.8712 H   0  0  0  0  0  0  0  0  0  0  0  0
    3.2985   -5.3564   -1.5377 H   0  0  0  0  0  0  0  0  0  0  0  0
    0.7274   -1.4027   -3.0689 H   0  0  0  0  0  0  0  0  0  0  0  0
    3.9150   -3.0983   -0.7434 H   0  0  0  0  0  0  0  0  0  0  0  0
    3.8237   -0.5989   -1.3393 H   0  0  0  0  0  0  0  0  0  0  0  0
    2.3317    0.0658   -1.9915 H   0  0  0  0  0  0  0  0  0  0  0  0
    3.8459    0.1213    2.1474 H   0  0  0  0  0  0  0  0  0  0  0  0
    2.6331   -1.2081    0.7726 H   0  0  0  0  0  0  0  0  0  0  0  0
    3.7385    2.8117    1.3546 H   0  0  0  0  0  0  0  0  0  0  0  0
  1 15  1  0  0  0  0
  2  4  1  0  0  0  0
  3  2  2  0  0  0  0
  3  5  1  0  0  0  0
  4 18  1  0  0  0  0
  4  6  2  0  0  0  0
  5 10  2  0  0  0  0
  6 20  1  0  0  0  0
  7  9  1  0  0  0  0
  8 12  1  0  0  0  0
  8 23  1  0  0  0  0
  9  1  1  0  0  0  0
  9 11  1  0  0  0  0
  9 24  1  1  0  0  0
 10  6  1  0  0  0  0
 10  7  1  0  0  0  0
 11  8  2  0  0  0  0
 13  1  1  0  0  0  0
 14  1  1  0  0  0  0
 16  2  1  0  0  0  0
 17  3  1  0  0  0  0
 19  5  1  0  0  0  0
 21  7  1  0  0  0  0
 22  7  1  0  0  0  0
 25 12  1  0  0  0  0
M  END
>  <HBA>
2

>  <HBD>
1

>  <TPSA>
29.1

>  <cid>
65614

>  <dipole>
0.45

>  <excitation_energy_1>
5.274

>  <excitation_energy_2>
5.793

>  <excitation_energy_3>
5.999

>  <excitation_energy_4>
6.039

>  <homo_energy>
-6.436

>  <homo_lumo_gap>
6.438

>  <logP>
2.39

>  <lumo_energy>
0.003

>  <melting_point>
53.73

>  <molecular_refractivity>
49.22

>  <oscillator_strength_1>
0.0011

>  <oscillator_strength_2>
0.0917

>  <oscillator_strength_3>
0.0038

>  <oscillator_strength_4>
0.0012

>  <open_babel_can_smiles>
O/C=N/[C@H](Cc1ccccc1)C

>  <mulliken_charges>
25
1   -0.43964
2   -0.131703
3   -0.127753
4   -0.12776
5   -0.184731
6   -0.180956
7   -0.340568
8   0.277528
9   0.016305
10   0.171465
11   -0.40059
12   -0.561461
13   0.155384
14   0.148878
15   0.143937
16   0.127888
17   0.128481
18   0.128038
19   0.125435
20   0.121143
21   0.145077
22   0.148148
23   0.138514
24   0.112673
25   0.40627

>  <lowdin_charges>
25
1   -0.450028
2   -0.161071
3   -0.155083
4   -0.156592
5   -0.169295
6   -0.167038
7   -0.276662
8   0.006746
9   -0.051079
10   -0.002594
11   -0.225789
12   -0.36258
13   0.157985
14   0.153624
15   0.150666
16   0.156498
17   0.15724
18   0.157592
19   0.15606
20   0.153212
21   0.151274
22   0.154744
23   0.139789
24   0.123585
25   0.358795

$$$$

