PCCDB-ID:  33152
public computational chemistry database (PCCDB) project, http://pccdb.org

 26 26  0  0  1  0  0  0  0  0999 V2000
    0.9786   -1.9649    0.4288 C   0  0  0  0  0  0  0  0  0  0  0  0
    5.0099    1.3976    4.3099 C   0  0  0  0  0  0  0  0  0  0  0  0
    2.4928   -2.0918    0.4246 C   0  0  0  0  0  0  0  0  0  0  0  0
    5.0911   -1.1427    4.1209 C   0  0  0  0  0  0  0  0  0  0  0  0
    4.6353   -2.3443    3.2941 C   0  0  0  0  0  0  0  0  0  0  0  0
    4.8470    0.2381    2.0535 C   0  0  0  0  0  0  0  0  0  0  0  0
    4.5105    0.1638    3.5528 C   0  0  2  0  0  0  0  0  0  0  0  0
    4.4368   -1.0342    1.3093 C   0  0  2  0  0  0  0  0  0  0  0  0
    3.0273   -1.0603    1.2532 O   0  0  0  0  0  0  0  0  0  0  0  0
    4.9764   -2.1991    1.9103 O   0  0  0  0  0  0  0  0  0  0  0  0
    0.5289   -2.7417   -0.1997 H   0  0  0  0  0  0  0  0  0  0  0  0
    0.6709   -0.9864    0.0459 H   0  0  0  0  0  0  0  0  0  0  0  0
    0.5861   -2.0727    1.4454 H   0  0  0  0  0  0  0  0  0  0  0  0
    4.7447    1.3445    5.3729 H   0  0  0  0  0  0  0  0  0  0  0  0
    4.5754    2.3180    3.9014 H   0  0  0  0  0  0  0  0  0  0  0  0
    6.1021    1.4863    4.2432 H   0  0  0  0  0  0  0  0  0  0  0  0
    2.8906   -1.9840   -0.5981 H   0  0  0  0  0  0  0  0  0  0  0  0
    2.8075   -3.0758    0.7955 H   0  0  0  0  0  0  0  0  0  0  0  0
    6.1894   -1.0919    4.1054 H   0  0  0  0  0  0  0  0  0  0  0  0
    4.7880   -1.2810    5.1678 H   0  0  0  0  0  0  0  0  0  0  0  0
    3.5498   -2.4852    3.3972 H   0  0  0  0  0  0  0  0  0  0  0  0
    5.1304   -3.2649    3.6170 H   0  0  0  0  0  0  0  0  0  0  0  0
    5.9310    0.3637    1.9278 H   0  0  0  0  0  0  0  0  0  0  0  0
    4.3578    1.0986    1.5826 H   0  0  0  0  0  0  0  0  0  0  0  0
    3.4165    0.1170    3.6459 H   0  0  0  0  0  0  0  0  0  0  0  0
    4.8493   -1.0486    0.2897 H   0  0  0  0  0  0  0  0  0  0  0  0
  1 13  1  0  0  0  0
  2 14  1  0  0  0  0
  3  1  1  0  0  0  0
  3 18  1  0  0  0  0
  3  9  1  0  0  0  0
  4 20  1  0  0  0  0
  5 21  1  0  0  0  0
  5 22  1  0  0  0  0
  5  4  1  0  0  0  0
  6  7  1  0  0  0  0
  7 25  1  1  0  0  0
  7  4  1  0  0  0  0
  7  2  1  0  0  0  0
  8 26  1  6  0  0  0
  8 10  1  0  0  0  0
  8  6  1  0  0  0  0
  9  8  1  0  0  0  0
 10  5  1  0  0  0  0
 11  1  1  0  0  0  0
 12  1  1  0  0  0  0
 15  2  1  0  0  0  0
 16  2  1  0  0  0  0
 17  3  1  0  0  0  0
 19  4  1  0  0  0  0
 23  6  1  0  0  0  0
 24  6  1  0  0  0  0
M  END
>  <HBA>
2

>  <HBD>
0

>  <TPSA>
18.46

>  <cid>
33152

>  <dipole>
0.44

>  <excitation_energy_1>
6.651

>  <excitation_energy_2>
6.849

>  <excitation_energy_3>
6.94

>  <excitation_energy_4>
7.005

>  <homo_energy>
-6.909

>  <homo_lumo_gap>
9.361

>  <logP>
1.796

>  <lumo_energy>
2.452

>  <melting_point>
-23.21

>  <molecular_refractivity>
40.63

>  <oscillator_strength_1>
0.0062

>  <oscillator_strength_2>
0.0126

>  <oscillator_strength_3>
0.0261

>  <oscillator_strength_4>
0.0252

>  <open_babel_can_smiles>
CCO[C@@H]1OCC[C@H](C1)C

>  <mulliken_charges>
26
1   -0.454904
2   -0.444717
3   -0.013013
4   -0.274893
5   -0.037845
6   -0.278412
7   -0.086427
8   0.350076
9   -0.489077
10   -0.486652
11   0.143425
12   0.155821
13   0.155618
14   0.140466
15   0.142189
16   0.138903
17   0.120166
18   0.14237
19   0.135041
20   0.129824
21   0.134371
22   0.141455
23   0.135221
24   0.143009
25   0.140902
26   0.117083

>  <lowdin_charges>
26
1   -0.448686
2   -0.439505
3   -0.125828
4   -0.288388
5   -0.133309
6   -0.292829
7   -0.123939
8   0.096624
9   -0.27466
10   -0.276762
11   0.155127
12   0.155169
13   0.154613
14   0.146959
15   0.149596
16   0.143518
17   0.126279
18   0.13714
19   0.140331
20   0.145225
21   0.131668
22   0.149136
23   0.145564
24   0.154838
25   0.14261
26   0.129511

$$$$

