PCCDB-ID:  16995
public computational chemistry database (PCCDB) project, http://pccdb.org

 29 28  0  0  0  0  0  0  0  0999 V2000
    0.7269    0.4037   -0.5080 C   0  0  0  0  0  0  0  0  0  0  0  0
    3.0094    1.2492   -1.1359 C   0  0  0  0  0  0  0  0  0  0  0  0
    2.4276    0.7843    1.2615 C   0  0  0  0  0  0  0  0  0  0  0  0
    2.9214   -1.6010   -2.7233 C   0  0  0  0  0  0  0  0  0  0  0  0
    3.3104   -3.3571   -0.9763 C   0  0  0  0  0  0  0  0  0  0  0  0
    1.0086   -2.5435   -1.3532 C   0  0  0  0  0  0  0  0  0  0  0  0
    2.2285    0.3036   -0.1945 C   0  0  0  0  0  0  0  0  0  0  0  0
    2.4863   -2.0977   -1.3298 C   0  0  0  0  0  0  0  0  0  0  0  0
    2.7073   -1.1243   -0.2023 N   0  0  0  0  0  0  0  0  0  0  0  0
    4.1497   -1.0185   -0.0204 O   0  0  0  0  0  0  0  0  0  0  0  0
    0.3917    1.4200   -0.2731 H   0  0  0  0  0  0  0  0  0  0  0  0
    0.1376   -0.2916    0.0974 H   0  0  0  0  0  0  0  0  0  0  0  0
    0.5040    0.2310   -1.5642 H   0  0  0  0  0  0  0  0  0  0  0  0
    2.7332    2.2883   -0.9211 H   0  0  0  0  0  0  0  0  0  0  0  0
    2.7871    1.0629   -2.1897 H   0  0  0  0  0  0  0  0  0  0  0  0
    4.0858    1.1444   -0.9830 H   0  0  0  0  0  0  0  0  0  0  0  0
    2.0555    1.8086    1.3751 H   0  0  0  0  0  0  0  0  0  0  0  0
    3.4844    0.7758    1.5394 H   0  0  0  0  0  0  0  0  0  0  0  0
    1.8792    0.1362    1.9539 H   0  0  0  0  0  0  0  0  0  0  0  0
    2.8946   -2.4281   -3.4429 H   0  0  0  0  0  0  0  0  0  0  0  0
    3.9436   -1.2125   -2.6924 H   0  0  0  0  0  0  0  0  0  0  0  0
    2.2586   -0.8177   -3.1034 H   0  0  0  0  0  0  0  0  0  0  0  0
    3.0616   -4.1647   -1.6730 H   0  0  0  0  0  0  0  0  0  0  0  0
    3.0717   -3.7005    0.0375 H   0  0  0  0  0  0  0  0  0  0  0  0
    4.3837   -3.1695   -1.0400 H   0  0  0  0  0  0  0  0  0  0  0  0
    0.9166   -3.4365   -1.9814 H   0  0  0  0  0  0  0  0  0  0  0  0
    0.3333   -1.7934   -1.7647 H   0  0  0  0  0  0  0  0  0  0  0  0
    0.6706   -2.8016   -0.3442 H   0  0  0  0  0  0  0  0  0  0  0  0
    4.2847   -1.4931    0.8142 H   0  0  0  0  0  0  0  0  0  0  0  0
  1 11  1  0  0  0  0
  1  7  1  0  0  0  0
  1 12  1  0  0  0  0
  2 16  1  0  0  0  0
  2 14  1  0  0  0  0
  2  7  1  0  0  0  0
  3 17  1  0  0  0  0
  3 18  1  0  0  0  0
  3 19  1  0  0  0  0
  4 21  1  0  0  0  0
  4  8  1  0  0  0  0
  5 24  1  0  0  0  0
  6  8  1  0  0  0  0
  6 28  1  0  0  0  0
  7  3  1  0  0  0  0
  8  5  1  0  0  0  0
  8  9  1  0  0  0  0
  9  7  1  0  0  0  0
  9 10  1  0  0  0  0
 10 29  1  0  0  0  0
 13  1  1  0  0  0  0
 15  2  1  0  0  0  0
 20  4  1  0  0  0  0
 22  4  1  0  0  0  0
 23  5  1  0  0  0  0
 25  5  1  0  0  0  0
 26  6  1  0  0  0  0
 27  6  1  0  0  0  0
M  END
>  <HBA>
2

>  <HBD>
1

>  <TPSA>
23.47

>  <cid>
16995

>  <dipole>
0.67

>  <excitation_energy_1>
5.272

>  <excitation_energy_2>
5.646

>  <excitation_energy_3>
5.906

>  <excitation_energy_4>
6.051

>  <homo_energy>
-5.728

>  <homo_lumo_gap>
7.546

>  <logP>
2.275

>  <lumo_energy>
1.818

>  <melting_point>
50.7

>  <molecular_refractivity>
44.27

>  <oscillator_strength_1>
0.0134

>  <oscillator_strength_2>
0.0094

>  <oscillator_strength_3>
0.0

>  <oscillator_strength_4>
0.0049

>  <open_babel_can_smiles>
ON(C(C)(C)C)C(C)(C)C

>  <mulliken_charges>
29
1   -0.463394
2   -0.455132
3   -0.443293
4   -0.457098
5   -0.458021
6   -0.451513
7   0.24842
8   0.249958
9   -0.264924
10   -0.523279
11   0.143884
12   0.152236
13   0.146795
14   0.132014
15   0.138666
16   0.169944
17   0.133606
18   0.147206
19   0.140401
20   0.135652
21   0.163874
22   0.139827
23   0.136189
24   0.137036
25   0.159115
26   0.139371
27   0.145425
28   0.149068
29   0.407966

>  <lowdin_charges>
29
1   -0.445731
2   -0.455665
3   -0.446988
4   -0.457291
5   -0.447526
6   -0.450536
7   0.074058
8   0.07255
9   -0.09273
10   -0.412879
11   0.153311
12   0.155984
13   0.146729
14   0.146214
15   0.146541
16   0.160976
17   0.144681
18   0.150214
19   0.149824
20   0.149727
21   0.159157
22   0.146479
23   0.148224
24   0.146031
25   0.154309
26   0.150963
27   0.152731
28   0.152787
29   0.347858

$$$$

