PCCDB-ID:  48460
public computational chemistry database (PCCDB) project, http://pccdb.org

 37 37  0  0  1  0  0  0  0  0999 V2000
    1.0897    0.5148   -0.2919 C   0  0  0  0  0  0  0  0  0  0  0  0
    4.5835    0.5596    3.9504 C   0  0  0  0  0  0  0  0  0  0  0  0
    7.5459    1.1865    1.3923 C   0  0  0  0  0  0  0  0  0  0  0  0
    7.8251   -2.4632    4.5022 C   0  0  0  0  0  0  0  0  0  0  0  0
    2.5815    0.2140   -0.1157 C   0  0  0  0  0  0  0  0  0  0  0  0
    3.1424    0.7105    1.2241 C   0  0  0  0  0  0  0  0  0  0  0  0
    4.6303    0.3659    1.4018 C   0  0  0  0  0  0  0  0  0  0  0  0
    5.2759    1.0033    2.6504 C   0  0  2  0  0  0  0  0  0  0  0  0
    7.3919    1.6545    3.8494 C   0  0  0  0  0  0  0  0  0  0  0  0
    7.1621   -0.6869    2.9871 C   0  0  0  0  0  0  0  0  0  0  0  0
    7.9498   -0.0983    5.2629 C   0  0  0  0  0  0  0  0  0  0  0  0
    6.8514    0.7929    2.7214 C   0  0  2  0  0  0  0  0  0  0  0  0
    7.8608    1.2630    4.9723 N   0  0  0  0  0  0  0  0  0  0  0  0
    7.6156   -1.0337    4.2420 N   0  0  0  0  0  0  0  0  0  0  0  0
    7.3593    2.9884    3.6646 O   0  0  0  0  0  0  0  0  0  0  0  0
    6.9834   -1.5331    2.1219 O   0  0  0  0  0  0  0  0  0  0  0  0
    8.3222   -0.4911    6.3488 O   0  0  0  0  0  0  0  0  0  0  0  0
    0.7199    0.1473   -1.2557 H   0  0  0  0  0  0  0  0  0  0  0  0
    0.8940    1.5934   -0.2495 H   0  0  0  0  0  0  0  0  0  0  0  0
    0.4935    0.0395    0.4967 H   0  0  0  0  0  0  0  0  0  0  0  0
    3.5342    0.8661    3.9473 H   0  0  0  0  0  0  0  0  0  0  0  0
    5.0476    1.0017    4.8376 H   0  0  0  0  0  0  0  0  0  0  0  0
    4.6078   -0.5310    4.0604 H   0  0  0  0  0  0  0  0  0  0  0  0
    7.1585    2.1298    0.9866 H   0  0  0  0  0  0  0  0  0  0  0  0
    7.3740    0.4072    0.6494 H   0  0  0  0  0  0  0  0  0  0  0  0
    8.6269    1.2914    1.5320 H   0  0  0  0  0  0  0  0  0  0  0  0
    6.9209   -3.0167    4.2409 H   0  0  0  0  0  0  0  0  0  0  0  0
    8.0576   -2.5748    5.5583 H   0  0  0  0  0  0  0  0  0  0  0  0
    8.6488   -2.8408    3.8896 H   0  0  0  0  0  0  0  0  0  0  0  0
    3.1479    0.6729   -0.9385 H   0  0  0  0  0  0  0  0  0  0  0  0
    2.7501   -0.8687   -0.1983 H   0  0  0  0  0  0  0  0  0  0  0  0
    2.5494    0.2742    2.0384 H   0  0  0  0  0  0  0  0  0  0  0  0
    3.0026    1.8005    1.2931 H   0  0  0  0  0  0  0  0  0  0  0  0
    5.1619    0.7058    0.5049 H   0  0  0  0  0  0  0  0  0  0  0  0
    4.7602   -0.7210    1.4382 H   0  0  0  0  0  0  0  0  0  0  0  0
    5.1400    2.0929    2.5607 H   0  0  0  0  0  0  0  0  0  0  0  0
    7.0182    3.1917    2.7790 H   0  0  0  0  0  0  0  0  0  0  0  0
  1 19  1  0  0  0  0
  1  5  1  0  0  0  0
  1 20  1  0  0  0  0
  2 23  1  0  0  0  0
  2 22  1  0  0  0  0
  3 26  1  0  0  0  0
  4 28  1  0  0  0  0
  5  6  1  0  0  0  0
  6 33  1  0  0  0  0
  6  7  1  0  0  0  0
  6 32  1  0  0  0  0
  7 35  1  0  0  0  0
  7  8  1  0  0  0  0
  8 36  1  6  0  0  0
  8 12  1  0  0  0  0
  8  2  1  0  0  0  0
  9 13  2  0  0  0  0
 10 14  1  0  0  0  0
 11 17  2  0  0  0  0
 12  3  1  6  0  0  0
 12 10  1  0  0  0  0
 12  9  1  0  0  0  0
 13 11  1  0  0  0  0
 14  4  1  0  0  0  0
 14 11  1  0  0  0  0
 15  9  1  0  0  0  0
 16 10  2  0  0  0  0
 18  1  1  0  0  0  0
 21  2  1  0  0  0  0
 24  3  1  0  0  0  0
 25  3  1  0  0  0  0
 27  4  1  0  0  0  0
 29  4  1  0  0  0  0
 30  5  1  0  0  0  0
 31  5  1  0  0  0  0
 34  7  1  0  0  0  0
 37 15  1  0  0  0  0
M  END
>  <HBA>
5

>  <HBD>
1

>  <TPSA>
66.48

>  <cid>
48460

>  <dipole>
5.24

>  <excitation_energy_1>
4.487

>  <excitation_energy_2>
4.808

>  <excitation_energy_3>
5.081

>  <excitation_energy_4>
5.263

>  <homo_energy>
-7.208

>  <homo_lumo_gap>
5.761

>  <logP>
1.794

>  <lumo_energy>
-1.448

>  <melting_point>
115.04

>  <molecular_refractivity>
71.94

>  <oscillator_strength_1>
0.0007

>  <oscillator_strength_2>
0.0007

>  <oscillator_strength_3>
0.0042

>  <oscillator_strength_4>
0.0516

>  <open_babel_can_smiles>
CCCC[C@H]([C@@]1(C)C(=NC(=O)N(C1=O)C)O)C

>  <mulliken_charges>
37
1   -0.442951
2   -0.485685
3   -0.494677
4   -0.322467
5   -0.250206
6   -0.257712
7   -0.265099
8   -0.088091
9   0.54389
10   0.635349
11   0.700154
12   -0.116299
13   -0.49068
14   -0.507267
15   -0.566722
16   -0.51178
17   -0.463628
18   0.146018
19   0.141655
20   0.143868
21   0.165148
22   0.170224
23   0.161919
24   0.139406
25   0.210712
26   0.175027
27   0.175979
28   0.2045
29   0.176798
30   0.130989
31   0.138828
32   0.138558
33   0.123617
34   0.132638
35   0.171019
36   0.113746
37   0.423224

>  <lowdin_charges>
37
1   -0.443825
2   -0.454967
3   -0.443117
4   -0.3505
5   -0.27038
6   -0.275535
7   -0.281792
8   -0.108837
9   0.161485
10   0.167752
11   0.183625
12   -0.052728
13   -0.185429
14   -0.090458
15   -0.318916
16   -0.280813
17   -0.24486
18   0.15162
19   0.144767
20   0.148664
21   0.16102
22   0.16247
23   0.155249
24   0.146298
25   0.185902
26   0.163677
27   0.167093
28   0.183788
29   0.165966
30   0.139842
31   0.14132
32   0.143212
33   0.133052
34   0.145234
35   0.158829
36   0.130239
37   0.36105

$$$$

