PCCDB-ID:  26160
public computational chemistry database (PCCDB) project, http://pccdb.org

 31 33  0  0  0  0  0  0  0  0999 V2000
    2.7160    0.1809   -0.8090 C   0  0  0  0  0  0  0  0  0  0  0  0
    2.5344   -1.1235   -0.3360 C   0  0  0  0  0  0  0  0  0  0  0  0
   -6.8572    0.2182    2.4901 C   0  0  0  0  0  0  0  0  0  0  0  0
   -7.1595    1.3300    1.7057 C   0  0  0  0  0  0  0  0  0  0  0  0
    1.6727    1.1033   -0.7429 C   0  0  0  0  0  0  0  0  0  0  0  0
   -5.5941   -0.3534    2.3803 C   0  0  0  0  0  0  0  0  0  0  0  0
    1.3062   -1.4937    0.1981 C   0  0  0  0  0  0  0  0  0  0  0  0
   -0.7025    1.7377   -0.1021 C   0  0  0  0  0  0  0  0  0  0  0  0
   -2.0748    1.0639   -0.2603 C   0  0  0  0  0  0  0  0  0  0  0  0
   -6.1704    1.8123    0.8444 C   0  0  0  0  0  0  0  0  0  0  0  0
   -3.3355   -0.4335    1.3991 C   0  0  0  0  0  0  0  0  0  0  0  0
    0.4301    0.7445   -0.2088 C   0  0  0  0  0  0  0  0  0  0  0  0
   -2.2343   -0.1001    0.6880 C   0  0  0  0  0  0  0  0  0  0  0  0
   -4.6550    0.1976    1.4855 C   0  0  0  0  0  0  0  0  0  0  0  0
    0.2494   -0.5719    0.2596 C   0  0  0  0  0  0  0  0  0  0  0  0
   -1.0478   -1.0128    0.8539 C   0  0  0  0  0  0  0  0  0  0  0  0
   -4.9566    1.2739    0.7255 N   0  0  0  0  0  0  0  0  0  0  0  0
   -1.1304   -2.0833    1.4515 O   0  0  0  0  0  0  0  0  0  0  0  0
    3.6719    0.4777   -1.2329 H   0  0  0  0  0  0  0  0  0  0  0  0
    3.3479   -1.8419   -0.3870 H   0  0  0  0  0  0  0  0  0  0  0  0
   -7.5914   -0.1965    3.1755 H   0  0  0  0  0  0  0  0  0  0  0  0
   -8.1309    1.8125    1.7537 H   0  0  0  0  0  0  0  0  0  0  0  0
    1.8207    2.1159   -1.1113 H   0  0  0  0  0  0  0  0  0  0  0  0
   -5.3232   -1.2207    2.9750 H   0  0  0  0  0  0  0  0  0  0  0  0
    1.1325   -2.4952    0.5784 H   0  0  0  0  0  0  0  0  0  0  0  0
   -0.6589    2.2380    0.8770 H   0  0  0  0  0  0  0  0  0  0  0  0
   -0.5835    2.5259   -0.8547 H   0  0  0  0  0  0  0  0  0  0  0  0
   -2.1603    0.6874   -1.2918 H   0  0  0  0  0  0  0  0  0  0  0  0
   -2.8863    1.7775   -0.1215 H   0  0  0  0  0  0  0  0  0  0  0  0
   -6.3695    2.6773    0.2129 H   0  0  0  0  0  0  0  0  0  0  0  0
   -3.2240   -1.3253    2.0133 H   0  0  0  0  0  0  0  0  0  0  0  0
  1  5  2  0  0  0  0
  1  2  1  0  0  0  0
  2  7  2  0  0  0  0
  3 21  1  0  0  0  0
  4 22  1  0  0  0  0
  4  3  2  0  0  0  0
  5 12  1  0  0  0  0
  6  3  1  0  0  0  0
  6 24  1  0  0  0  0
  7 15  1  0  0  0  0
  7 25  1  0  0  0  0
  8 26  1  0  0  0  0
  9 29  1  0  0  0  0
  9  8  1  0  0  0  0
  9 13  1  0  0  0  0
 10  4  1  0  0  0  0
 11 14  1  0  0  0  0
 11 31  1  0  0  0  0
 12  8  1  0  0  0  0
 12 15  2  0  0  0  0
 13 16  1  0  0  0  0
 13 11  2  0  0  0  0
 14  6  2  0  0  0  0
 15 16  1  0  0  0  0
 16 18  2  0  0  0  0
 17 10  2  0  0  0  0
 17 14  1  0  0  0  0
 19  1  1  0  0  0  0
 20  2  1  0  0  0  0
 23  5  1  0  0  0  0
 27  8  1  0  0  0  0
 28  9  1  0  0  0  0
 30 10  1  0  0  0  0
M  END
>  <HBA>
2

>  <HBD>
0

>  <TPSA>
29.96

>  <cid>
26160

>  <dipole>
2.75

>  <excitation_energy_1>
3.134

>  <excitation_energy_2>
3.764

>  <excitation_energy_3>
3.889

>  <excitation_energy_4>
4.022

>  <homo_energy>
-6.283

>  <homo_lumo_gap>
4.193

>  <logP>
3.294

>  <lumo_energy>
-2.09

>  <melting_point>
133.97

>  <molecular_refractivity>
71.7

>  <oscillator_strength_1>
0.0008

>  <oscillator_strength_2>
0.4559

>  <oscillator_strength_3>
0.0816

>  <oscillator_strength_4>
0.1428

>  <open_babel_can_smiles>
O=C1/C(=C/c2ccccn2)/CCc2c1cccc2

>  <mulliken_charges>
31
1   -0.115026
2   -0.138714
3   -0.102716
4   -0.146619
5   -0.200962
6   -0.17451
7   -0.15772
8   -0.356298
9   -0.353726
10   0.045467
11   -0.233213
12   0.133953
13   0.099556
14   0.335895
15   0.034375
16   0.347094
17   -0.485138
18   -0.492615
19   0.134129
20   0.134323
21   0.148
22   0.14279
23   0.127156
24   0.149717
25   0.160074
26   0.163337
27   0.147386
28   0.156459
29   0.190973
30   0.142729
31   0.163843

>  <lowdin_charges>
31
1   -0.137397
2   -0.162874
3   -0.127868
4   -0.173285
5   -0.169034
6   -0.165769
7   -0.124353
8   -0.274287
9   -0.283631
10   -0.084444
11   -0.141488
12   0.008482
13   -0.029676
14   0.049695
15   -0.056036
16   0.145998
17   -0.148215
18   -0.260562
19   0.159852
20   0.160936
21   0.167174
22   0.166172
23   0.155887
24   0.169221
25   0.174729
26   0.158051
27   0.154563
28   0.156707
29   0.177866
30   0.15741
31   0.176177

$$$$

