PCCDB-ID:  51586
public computational chemistry database (PCCDB) project, http://pccdb.org

 37 37  0  0  1  0  0  0  0  0999 V2000
    5.8148   -2.8133   -0.3542 C   0  0  0  0  0  0  0  0  0  0  0  0
   10.5187   -6.4294   -3.8586 C   0  0  0  0  0  0  0  0  0  0  0  0
    8.9074   -9.2100    0.0125 C   0  0  0  0  0  0  0  0  0  0  0  0
    7.8224   -5.2780   -4.1844 C   0  0  0  0  0  0  0  0  0  0  0  0
    6.1813   -8.1242   -0.3135 C   0  0  0  0  0  0  0  0  0  0  0  0
    6.1235   -3.7779   -1.5055 C   0  0  0  0  0  0  0  0  0  0  0  0
    9.6209   -7.7481   -1.9093 C   0  0  0  0  0  0  0  0  0  0  0  0
    9.3943   -6.8218   -2.9289 C   0  0  0  0  0  0  0  0  0  0  0  0
    8.6089   -8.1714   -1.0443 C   0  0  0  0  0  0  0  0  0  0  0  0
    8.1121   -6.2587   -3.0726 C   0  0  0  0  0  0  0  0  0  0  0  0
    7.3167   -7.6310   -1.1810 C   0  0  0  0  0  0  0  0  0  0  0  0
    5.4294   -5.1301   -1.3488 C   0  0  1  0  0  0  0  0  0  0  0  0
    7.1081   -6.6531   -2.1710 C   0  0  0  0  0  0  0  0  0  0  0  0
    3.9125   -5.0244   -1.5443 C   0  0  0  0  0  0  0  0  0  0  0  0
    3.3287   -4.0891   -2.0422 O   0  0  0  0  0  0  0  0  0  0  0  0
    3.2763   -6.1300   -1.0950 O   0  0  0  0  0  0  0  0  0  0  0  0
    5.8382   -6.1002   -2.3307 O   0  0  0  0  0  0  0  0  0  0  0  0
    6.3663   -1.8759   -0.4814 H   0  0  0  0  0  0  0  0  0  0  0  0
    6.1056   -3.2394    0.6143 H   0  0  0  0  0  0  0  0  0  0  0  0
    4.7487   -2.5689   -0.3156 H   0  0  0  0  0  0  0  0  0  0  0  0
   11.4508   -6.9303   -3.5798 H   0  0  0  0  0  0  0  0  0  0  0  0
   10.7031   -5.3474   -3.8440 H   0  0  0  0  0  0  0  0  0  0  0  0
   10.2974   -6.6952   -4.9008 H   0  0  0  0  0  0  0  0  0  0  0  0
    9.9716   -9.4644    0.0207 H   0  0  0  0  0  0  0  0  0  0  0  0
    8.3471  -10.1391   -0.1575 H   0  0  0  0  0  0  0  0  0  0  0  0
    8.6386   -8.8608    1.0175 H   0  0  0  0  0  0  0  0  0  0  0  0
    8.1333   -5.6838   -5.1550 H   0  0  0  0  0  0  0  0  0  0  0  0
    8.3687   -4.3346   -4.0491 H   0  0  0  0  0  0  0  0  0  0  0  0
    6.7580   -5.0490   -4.2382 H   0  0  0  0  0  0  0  0  0  0  0  0
    5.2120   -7.8314   -0.7198 H   0  0  0  0  0  0  0  0  0  0  0  0
    6.2476   -7.7423    0.7153 H   0  0  0  0  0  0  0  0  0  0  0  0
    6.1977   -9.2176   -0.2399 H   0  0  0  0  0  0  0  0  0  0  0  0
    7.2022   -3.9649   -1.5520 H   0  0  0  0  0  0  0  0  0  0  0  0
    5.8213   -3.3361   -2.4603 H   0  0  0  0  0  0  0  0  0  0  0  0
   10.6172   -8.1712   -1.7969 H   0  0  0  0  0  0  0  0  0  0  0  0
    5.6135   -5.5279   -0.3419 H   0  0  0  0  0  0  0  0  0  0  0  0
    2.3295   -6.0024   -1.2956 H   0  0  0  0  0  0  0  0  0  0  0  0
  1 20  1  0  0  0  0
  1 19  1  0  0  0  0
  2 22  1  0  0  0  0
  2 21  1  0  0  0  0
  2  8  1  0  0  0  0
  3 24  1  0  0  0  0
  3 26  1  0  0  0  0
  4 28  1  0  0  0  0
  4 10  1  0  0  0  0
  5 32  1  0  0  0  0
  5 31  1  0  0  0  0
  6 12  1  0  0  0  0
  6  1  1  0  0  0  0
  7 35  1  0  0  0  0
  7  9  2  0  0  0  0
  8  7  1  0  0  0  0
  9  3  1  0  0  0  0
 10  8  2  0  0  0  0
 10 13  1  0  0  0  0
 11  9  1  0  0  0  0
 11  5  1  0  0  0  0
 12 36  1  1  0  0  0
 13 11  2  0  0  0  0
 14 12  1  0  0  0  0
 14 16  1  0  0  0  0
 15 14  2  0  0  0  0
 17 13  1  0  0  0  0
 17 12  1  0  0  0  0
 18  1  1  0  0  0  0
 23  2  1  0  0  0  0
 25  3  1  0  0  0  0
 27  4  1  0  0  0  0
 29  4  1  0  0  0  0
 30  5  1  0  0  0  0
 33  6  1  0  0  0  0
 34  6  1  0  0  0  0
 37 16  1  0  0  0  0
M  END
>  <HBA>
3

>  <HBD>
1

>  <TPSA>
46.53

>  <cid>
51586

>  <dipole>
1.66

>  <excitation_energy_1>
4.87

>  <excitation_energy_2>
4.91

>  <excitation_energy_3>
5.116

>  <excitation_energy_4>
5.521

>  <homo_energy>
-6.011

>  <homo_lumo_gap>
5.758

>  <logP>
3.162

>  <lumo_energy>
-0.253

>  <melting_point>
102.94

>  <molecular_refractivity>
68.99

>  <oscillator_strength_1>
0.0083

>  <oscillator_strength_2>
0.0029

>  <oscillator_strength_3>
0.0024

>  <oscillator_strength_4>
0.0009

>  <open_babel_can_smiles>
CC[C@@H](C(=O)O)Oc1c(C)c(C)cc(c1C)C

>  <mulliken_charges>
37
1   -0.465435
2   -0.533238
3   -0.534777
4   -0.537982
5   -0.561479
6   -0.272796
7   -0.243443
8   0.122474
9   0.123587
10   0.10363
11   0.117588
12   0.094248
13   0.210748
14   0.579146
15   -0.454837
16   -0.558298
17   -0.568313
18   0.152082
19   0.14154
20   0.167119
21   0.153763
22   0.157387
23   0.160099
24   0.154287
25   0.160609
26   0.156858
27   0.154874
28   0.152888
29   0.178864
30   0.194157
31   0.152321
32   0.15561
33   0.150515
34   0.163563
35   0.110058
36   0.151041
37   0.411544

>  <lowdin_charges>
37
1   -0.447036
2   -0.437608
3   -0.439147
4   -0.445489
5   -0.449884
6   -0.284314
7   -0.184446
8   -0.008076
9   -0.007106
10   -0.03171
11   -0.035136
12   -0.010327
13   0.073509
14   0.193608
15   -0.252394
16   -0.343039
17   -0.229226
18   0.156702
19   0.145525
20   0.156863
21   0.156275
22   0.155625
23   0.157241
24   0.154987
25   0.158257
26   0.156419
27   0.157377
28   0.155081
29   0.167654
30   0.172948
31   0.153126
32   0.157126
33   0.154759
34   0.159773
35   0.149129
36   0.151049
37   0.361905

$$$$

