PCCDB-ID:  22560
public computational chemistry database (PCCDB) project, http://pccdb.org

 23 22  0  0  0  0  0  0  0  0999 V2000
    5.3820   -3.5715   -3.0885 C   0  0  0  0  0  0  0  0  0  0  0  0
    7.8366    1.5865   -3.7487 C   0  0  0  0  0  0  0  0  0  0  0  0
    4.2972   -2.5610   -3.4731 C   0  0  0  0  0  0  0  0  0  0  0  0
    7.7030    0.1748   -3.1489 C   0  0  0  0  0  0  0  0  0  0  0  0
    4.8320   -1.1261   -3.6772 C   0  0  0  0  0  0  0  0  0  0  0  0
    5.3427   -0.5122   -2.4083 C   0  0  0  0  0  0  0  0  0  0  0  0
    6.5495    0.0294   -2.1955 C   0  0  0  0  0  0  0  0  0  0  0  0
    6.7876    0.5884   -0.8373 N   0  0  0  0  0  0  0  0  0  0  0  0
    5.8903    0.5336    0.0038 O   0  0  0  0  0  0  0  0  0  0  0  0
    7.8973    1.0840   -0.6281 O   0  0  0  0  0  0  0  0  0  0  0  0
    4.9580   -4.5734   -2.9615 H   0  0  0  0  0  0  0  0  0  0  0  0
    5.8737   -3.2947   -2.1490 H   0  0  0  0  0  0  0  0  0  0  0  0
    6.1569   -3.6337   -3.8627 H   0  0  0  0  0  0  0  0  0  0  0  0
    8.6916    1.6278   -4.4321 H   0  0  0  0  0  0  0  0  0  0  0  0
    7.9952    2.3279   -2.9611 H   0  0  0  0  0  0  0  0  0  0  0  0
    6.9378    1.8642   -4.3102 H   0  0  0  0  0  0  0  0  0  0  0  0
    3.5143   -2.5458   -2.7029 H   0  0  0  0  0  0  0  0  0  0  0  0
    3.8092   -2.8791   -4.4029 H   0  0  0  0  0  0  0  0  0  0  0  0
    8.6281   -0.0852   -2.6265 H   0  0  0  0  0  0  0  0  0  0  0  0
    7.5734   -0.5551   -3.9541 H   0  0  0  0  0  0  0  0  0  0  0  0
    4.0054   -0.4974   -4.0412 H   0  0  0  0  0  0  0  0  0  0  0  0
    5.5952   -1.1223   -4.4633 H   0  0  0  0  0  0  0  0  0  0  0  0
    4.6522   -0.5031   -1.5679 H   0  0  0  0  0  0  0  0  0  0  0  0
  1 11  1  0  0  0  0
  1 12  1  0  0  0  0
  2  4  1  0  0  0  0
  2 15  1  0  0  0  0
  3  1  1  0  0  0  0
  3 17  1  0  0  0  0
  4 19  1  0  0  0  0
  4  7  1  0  0  0  0
  5  3  1  0  0  0  0
  5  6  1  0  0  0  0
  6  7  2  0  0  0  0
  6 23  1  0  0  0  0
  7  8  1  0  0  0  0
  8 10  2  0  0  0  0
  8  9  2  0  0  0  0
 13  1  1  0  0  0  0
 14  2  1  0  0  0  0
 16  2  1  0  0  0  0
 18  3  1  0  0  0  0
 20  4  1  0  0  0  0
 21  5  1  0  0  0  0
 22  5  1  0  0  0  0
M  END
>  <HBA>
0

>  <HBD>
0

>  <TPSA>
45.82

>  <cid>
22560

>  <dipole>
4.54

>  <excitation_energy_1>
3.71

>  <excitation_energy_2>
4.245

>  <excitation_energy_3>
4.702

>  <excitation_energy_4>
5.963

>  <homo_energy>
-7.502

>  <homo_lumo_gap>
5.336

>  <logP>
2.88

>  <lumo_energy>
-2.166

>  <melting_point>
16.74

>  <molecular_refractivity>
43.39

>  <oscillator_strength_1>
0.0001

>  <oscillator_strength_2>
0.001

>  <oscillator_strength_3>
0.1977

>  <oscillator_strength_4>
0.0733

>  <open_babel_can_smiles>
CCC/C=C(/N(=O)=O)\CC

>  <mulliken_charges>
23
1   -0.443259
2   -0.446424
3   -0.258308
4   -0.329899
5   -0.30949
6   -0.143097
7   0.276439
8   0.412284
9   -0.40556
10   -0.392217
11   0.151918
12   0.155376
13   0.143716
14   0.151568
15   0.174805
16   0.145855
17   0.144631
18   0.143734
19   0.178288
20   0.149123
21   0.163411
22   0.151044
23   0.186064

>  <lowdin_charges>
23
1   -0.447412
2   -0.444043
3   -0.269553
4   -0.27911
5   -0.275731
6   -0.121256
7   -0.007676
8   0.303395
9   -0.256756
10   -0.250778
11   0.1545
12   0.153316
13   0.148365
14   0.155405
15   0.163384
16   0.149314
17   0.146348
18   0.14849
19   0.171109
20   0.156203
21   0.165586
22   0.151789
23   0.185112

$$$$

