PCCDB-ID:  9247
public computational chemistry database (PCCDB) project, http://pccdb.org

 17 18  0  0  1  0  0  0  0  0999 V2000
   -1.5584    0.7834    0.1071 C   0  0  0  0  0  0  0  0  0  0  0  0
   -0.3685    1.5826   -0.4396 C   0  0  0  0  0  0  0  0  0  0  0  0
   -1.3838   -0.7332   -0.0991 C   0  0  0  0  0  0  0  0  0  0  0  0
    0.9092    1.2213    0.3289 C   0  0  0  0  0  0  0  0  0  0  0  0
    0.0310   -1.2330    0.2180 C   0  0  2  0  0  0  0  0  0  0  0  0
    1.1551   -0.2771    0.4126 C   0  0  1  0  0  0  0  0  0  0  0  0
    1.2905   -1.2623   -1.1467 S   0  0  0  0  0  0  0  0  0  0  0  0
   -2.4938    1.1069   -0.3649 H   0  0  0  0  0  0  0  0  0  0  0  0
   -1.6617    0.9975    1.1809 H   0  0  0  0  0  0  0  0  0  0  0  0
   -0.5559    2.6588   -0.3440 H   0  0  0  0  0  0  0  0  0  0  0  0
   -0.2340    1.3720   -1.5075 H   0  0  0  0  0  0  0  0  0  0  0  0
   -1.6374   -0.9973   -1.1311 H   0  0  0  0  0  0  0  0  0  0  0  0
   -2.0918   -1.2755    0.5403 H   0  0  0  0  0  0  0  0  0  0  0  0
    0.8187    1.5889    1.3632 H   0  0  0  0  0  0  0  0  0  0  0  0
    1.7856    1.7186   -0.1029 H   0  0  0  0  0  0  0  0  0  0  0  0
    0.0710   -2.1410    0.8170 H   0  0  0  0  0  0  0  0  0  0  0  0
    1.9112   -0.5652    1.1420 H   0  0  0  0  0  0  0  0  0  0  0  0
  1  9  1  0  0  0  0
  2 10  1  0  0  0  0
  2  1  1  0  0  0  0
  2  4  1  0  0  0  0
  3  1  1  0  0  0  0
  3  5  1  0  0  0  0
  3 13  1  0  0  0  0
  4  6  1  0  0  0  0
  4 14  1  0  0  0  0
  5  6  1  0  0  0  0
  5 16  1  1  0  0  0
  6 17  1  1  0  0  0
  7  5  1  0  0  0  0
  7  6  1  0  0  0  0
  8  1  1  0  0  0  0
 11  2  1  0  0  0  0
 12  3  1  0  0  0  0
 15  4  1  0  0  0  0
M  END
>  <HBA>
1

>  <HBD>
0

>  <TPSA>
25.3

>  <cid>
9247

>  <dipole>
2.42

>  <excitation_energy_1>
4.589

>  <excitation_energy_2>
5.28

>  <excitation_energy_3>
5.671

>  <excitation_energy_4>
5.902

>  <homo_energy>
-5.902

>  <homo_lumo_gap>
6.223

>  <logP>
2.044

>  <lumo_energy>
0.321

>  <melting_point>
27.56

>  <molecular_refractivity>
34.32

>  <oscillator_strength_1>
0.0

>  <oscillator_strength_2>
0.0155

>  <oscillator_strength_3>
0.0236

>  <oscillator_strength_4>
0.0128

>  <open_babel_can_smiles>
C1CC[C@H]2[C@@H](C1)S2

>  <mulliken_charges>
17
1   -0.265867
2   -0.272574
3   -0.26004
4   -0.251165
5   -0.205523
6   -0.203758
7   -0.054257
8   0.13826
9   0.131416
10   0.134974
11   0.161142
12   0.166355
13   0.141088
14   0.139002
15   0.153202
16   0.17516
17   0.172586

>  <lowdin_charges>
17
1   -0.274121
2   -0.277028
3   -0.279281
4   -0.273105
5   -0.197485
6   -0.197485
7   -0.031864
8   0.147957
9   0.136633
10   0.145446
11   0.153083
12   0.158608
13   0.152407
14   0.145747
15   0.156387
16   0.16742
17   0.16668

$$$$

