PCCDB-ID:  61184
public computational chemistry database (PCCDB) project, http://pccdb.org

 23 22  0  0  0  0  0  0  0  0999 V2000
    0.7254   -0.6327    2.0988 C   0  0  0  0  0  0  0  0  0  0  0  0
    7.0569    2.0393    2.0041 C   0  0  0  0  0  0  0  0  0  0  0  0
    6.5819    1.0267    4.2954 C   0  0  0  0  0  0  0  0  0  0  0  0
    2.2543   -0.6916    2.1531 C   0  0  0  0  0  0  0  0  0  0  0  0
    2.9137    0.5098    1.4442 C   0  0  0  0  0  0  0  0  0  0  0  0
    6.3689    0.9282    2.7912 C   0  0  0  0  0  0  0  0  0  0  0  0
    4.4245    0.4052    1.4827 C   0  0  0  0  0  0  0  0  0  0  0  0
    5.0970   -0.1836    0.6616 O   0  0  0  0  0  0  0  0  0  0  0  0
    4.9276    1.0101    2.5838 O   0  0  0  0  0  0  0  0  0  0  0  0
    0.2799   -1.4969    2.6042 H   0  0  0  0  0  0  0  0  0  0  0  0
    0.3657   -0.6293    1.0628 H   0  0  0  0  0  0  0  0  0  0  0  0
    0.3447    0.2727    2.5867 H   0  0  0  0  0  0  0  0  0  0  0  0
    8.1396    2.0058    2.1709 H   0  0  0  0  0  0  0  0  0  0  0  0
    6.6892    3.0211    2.3231 H   0  0  0  0  0  0  0  0  0  0  0  0
    6.8718    1.9214    0.9330 H   0  0  0  0  0  0  0  0  0  0  0  0
    7.6484    0.9413    4.5309 H   0  0  0  0  0  0  0  0  0  0  0  0
    6.0481    0.2262    4.8175 H   0  0  0  0  0  0  0  0  0  0  0  0
    6.2209    1.9880    4.6775 H   0  0  0  0  0  0  0  0  0  0  0  0
    2.6102   -1.6165    1.6826 H   0  0  0  0  0  0  0  0  0  0  0  0
    2.5907   -0.7175    3.1973 H   0  0  0  0  0  0  0  0  0  0  0  0
    2.5954    1.4435    1.9200 H   0  0  0  0  0  0  0  0  0  0  0  0
    2.6109    0.5308    0.3923 H   0  0  0  0  0  0  0  0  0  0  0  0
    6.6974   -0.0451    2.4154 H   0  0  0  0  0  0  0  0  0  0  0  0
  1  4  1  0  0  0  0
  1 12  1  0  0  0  0
  1 10  1  0  0  0  0
  2 13  1  0  0  0  0
  2 14  1  0  0  0  0
  2  6  1  0  0  0  0
  3 16  1  0  0  0  0
  3 18  1  0  0  0  0
  3 17  1  0  0  0  0
  4 20  1  0  0  0  0
  5  7  1  0  0  0  0
  5 21  1  0  0  0  0
  5  4  1  0  0  0  0
  6  3  1  0  0  0  0
  7  9  1  0  0  0  0
  8  7  2  0  0  0  0
  9  6  1  0  0  0  0
 11  1  1  0  0  0  0
 15  2  1  0  0  0  0
 19  4  1  0  0  0  0
 22  5  1  0  0  0  0
 23  6  1  0  0  0  0
M  END
>  <HBA>
2

>  <HBD>
0

>  <TPSA>
26.3

>  <cid>
61184

>  <dipole>
1.84

>  <excitation_energy_1>
5.711

>  <excitation_energy_2>
6.967

>  <excitation_energy_3>
7.346

>  <excitation_energy_4>
7.389

>  <homo_energy>
-7.113

>  <homo_lumo_gap>
7.573

>  <logP>
1.738

>  <lumo_energy>
0.46

>  <melting_point>
-14.79

>  <molecular_refractivity>
37.05

>  <oscillator_strength_1>
0.002

>  <oscillator_strength_2>
0.0279

>  <oscillator_strength_3>
0.0173

>  <oscillator_strength_4>
0.0015

>  <open_babel_can_smiles>
CCCC(=O)OC(C)C

>  <mulliken_charges>
23
1   -0.442274
2   -0.457892
3   -0.45117
4   -0.262438
5   -0.323633
6   0.12868
7   0.604527
8   -0.481571
9   -0.467524
10   0.148659
11   0.147607
12   0.145575
13   0.146853
14   0.149688
15   0.17369
16   0.1488
17   0.155782
18   0.154355
19   0.155246
20   0.147521
21   0.155926
22   0.162715
23   0.160878

>  <lowdin_charges>
23
1   -0.443709
2   -0.450238
3   -0.447268
4   -0.264906
5   -0.294852
6   0.012961
7   0.199221
8   -0.275916
9   -0.201347
10   0.154196
11   0.148599
12   0.148968
13   0.154617
14   0.152738
15   0.164585
16   0.155117
17   0.158856
18   0.155471
19   0.151376
20   0.145841
21   0.159602
22   0.162424
23   0.153663

$$$$

