PCCDB-ID:  62385
public computational chemistry database (PCCDB) project, http://pccdb.org

 22 22  0  0  0  0  0  0  0  0999 V2000
    2.0248   -0.3410    1.4304 C   0  0  0  0  0  0  0  0  0  0  0  0
    1.8936    1.3642   -0.3623 C   0  0  0  0  0  0  0  0  0  0  0  0
    4.3945   -3.8666   -3.6994 C   0  0  0  0  0  0  0  0  0  0  0  0
    4.0087   -1.4966   -2.8815 C   0  0  0  0  0  0  0  0  0  0  0  0
    3.1354   -3.3004   -1.5703 C   0  0  0  0  0  0  0  0  0  0  0  0
    3.4761   -0.5796   -1.9764 C   0  0  0  0  0  0  0  0  0  0  0  0
    2.6041   -2.3884   -0.6643 C   0  0  0  0  0  0  0  0  0  0  0  0
    2.2211   -0.0247    0.1408 C   0  0  0  0  0  0  0  0  0  0  0  0
    3.8495   -2.8746   -2.6991 C   0  0  0  0  0  0  0  0  0  0  0  0
    2.7721   -1.0022   -0.8365 C   0  0  0  0  0  0  0  0  0  0  0  0
    1.6006    0.3763    2.1275 H   0  0  0  0  0  0  0  0  0  0  0  0
    2.2951   -1.3090    1.8410 H   0  0  0  0  0  0  0  0  0  0  0  0
    1.3894    1.9504    0.4114 H   0  0  0  0  0  0  0  0  0  0  0  0
    1.2466    1.3285   -1.2475 H   0  0  0  0  0  0  0  0  0  0  0  0
    2.7990    1.9134   -0.6519 H   0  0  0  0  0  0  0  0  0  0  0  0
    5.2700   -3.4679   -4.2228 H   0  0  0  0  0  0  0  0  0  0  0  0
    3.6455   -4.1171   -4.4630 H   0  0  0  0  0  0  0  0  0  0  0  0
    4.6879   -4.8046   -3.2155 H   0  0  0  0  0  0  0  0  0  0  0  0
    4.5595   -1.1318   -3.7459 H   0  0  0  0  0  0  0  0  0  0  0  0
    2.9829   -4.3651   -1.4051 H   0  0  0  0  0  0  0  0  0  0  0  0
    3.6311    0.4799   -2.1554 H   0  0  0  0  0  0  0  0  0  0  0  0
    2.0299   -2.7551    0.1813 H   0  0  0  0  0  0  0  0  0  0  0  0
  1 12  1  0  0  0  0
  1 11  1  0  0  0  0
  2  8  1  0  0  0  0
  2 13  1  0  0  0  0
  3 18  1  0  0  0  0
  3  9  1  0  0  0  0
  4  9  2  0  0  0  0
  4  6  1  0  0  0  0
  5 20  1  0  0  0  0
  5  7  2  0  0  0  0
  6 10  2  0  0  0  0
  7 22  1  0  0  0  0
  8  1  2  0  0  0  0
  9  5  1  0  0  0  0
 10  7  1  0  0  0  0
 10  8  1  0  0  0  0
 14  2  1  0  0  0  0
 15  2  1  0  0  0  0
 16  3  1  0  0  0  0
 17  3  1  0  0  0  0
 19  4  1  0  0  0  0
 21  6  1  0  0  0  0
M  END
>  <HBA>
0

>  <HBD>
0

>  <TPSA>
0.0

>  <cid>
62385

>  <dipole>
0.56

>  <excitation_energy_1>
4.79

>  <excitation_energy_2>
4.853

>  <excitation_energy_3>
5.507

>  <excitation_energy_4>
5.664

>  <homo_energy>
-5.842

>  <homo_lumo_gap>
5.312

>  <logP>
3.028

>  <lumo_energy>
-0.531

>  <melting_point>
-6.86

>  <molecular_refractivity>
46.31

>  <oscillator_strength_1>
0.1271

>  <oscillator_strength_2>
0.2462

>  <oscillator_strength_3>
0.002

>  <oscillator_strength_4>
0.1228

>  <open_babel_can_smiles>
Cc1ccc(cc1)C(=C)C

>  <mulliken_charges>
22
1   -0.40144
2   -0.520401
3   -0.530439
4   -0.182432
5   -0.182148
6   -0.184588
7   -0.179361
8   0.166282
9   0.180635
10   0.114827
11   0.133875
12   0.139534
13   0.153095
14   0.160292
15   0.159324
16   0.156365
17   0.165426
18   0.157078
19   0.120291
20   0.120799
21   0.124023
22   0.128963

>  <lowdin_charges>
22
1   -0.355366
2   -0.44271
3   -0.443442
4   -0.167485
5   -0.165049
6   -0.160898
7   -0.154711
8   0.008755
9   0.00036
10   -0.01005
11   0.157516
12   0.157136
13   0.159083
14   0.158706
15   0.157822
16   0.158406
17   0.162496
18   0.158218
19   0.154065
20   0.152223
21   0.155596
22   0.159329

$$$$

