PCCDB-ID:  31721
public computational chemistry database (PCCDB) project, http://pccdb.org

 27 27  0  0  1  0  0  0  0  0999 V2000
    5.6409    0.2964   -1.6250 C   0  0  0  0  0  0  0  0  0  0  0  0
    1.1155   -2.3286   -6.9301 C   0  0  0  0  0  0  0  0  0  0  0  0
    2.0780    0.0227   -3.5455 C   0  0  0  0  0  0  0  0  0  0  0  0
    3.0313   -1.9305   -2.5403 C   0  0  0  0  0  0  0  0  0  0  0  0
    1.7414   -0.7105   -4.6867 C   0  0  0  0  0  0  0  0  0  0  0  0
    2.7041   -2.6791   -3.6645 C   0  0  0  0  0  0  0  0  0  0  0  0
    3.1058    0.2630   -1.2425 C   0  0  0  0  0  0  0  0  0  0  0  0
    4.3811    1.1370   -1.4127 C   0  0  1  0  0  0  0  0  0  0  0  0
    2.7275   -0.5620   -2.4536 C   0  0  0  0  0  0  0  0  0  0  0  0
    2.0567   -2.0724   -4.7496 C   0  0  0  0  0  0  0  0  0  0  0  0
    4.6117    2.0551   -0.2878 N   0  0  0  0  0  0  0  0  0  0  0  0
    1.7744   -2.8906   -5.8081 O   0  0  0  0  0  0  0  0  0  0  0  0
    5.5412   -0.3588   -2.4955 H   0  0  0  0  0  0  0  0  0  0  0  0
    5.8358   -0.3382   -0.7489 H   0  0  0  0  0  0  0  0  0  0  0  0
    6.5086    0.9473   -1.7674 H   0  0  0  0  0  0  0  0  0  0  0  0
    0.9925   -3.1441   -7.6455 H   0  0  0  0  0  0  0  0  0  0  0  0
    1.7111   -1.5295   -7.3919 H   0  0  0  0  0  0  0  0  0  0  0  0
    0.1273   -1.9305   -6.6625 H   0  0  0  0  0  0  0  0  0  0  0  0
    1.8171    1.0787   -3.5095 H   0  0  0  0  0  0  0  0  0  0  0  0
    3.5299   -2.4200   -1.7066 H   0  0  0  0  0  0  0  0  0  0  0  0
    1.2346   -0.2149   -5.5071 H   0  0  0  0  0  0  0  0  0  0  0  0
    2.9368   -3.7379   -3.7248 H   0  0  0  0  0  0  0  0  0  0  0  0
    2.2740    0.9351   -0.9875 H   0  0  0  0  0  0  0  0  0  0  0  0
    3.2505   -0.3941   -0.3729 H   0  0  0  0  0  0  0  0  0  0  0  0
    4.2343    1.7653   -2.3026 H   0  0  0  0  0  0  0  0  0  0  0  0
    4.7580    1.5115    0.5643 H   0  0  0  0  0  0  0  0  0  0  0  0
    3.7729    2.6112   -0.1200 H   0  0  0  0  0  0  0  0  0  0  0  0
  1  8  1  0  0  0  0
  1 14  1  0  0  0  0
  2 18  1  0  0  0  0
  2 12  1  0  0  0  0
  3 19  1  0  0  0  0
  3  9  2  0  0  0  0
  4  9  1  0  0  0  0
  4 20  1  0  0  0  0
  5  3  1  0  0  0  0
  6  4  2  0  0  0  0
  7 23  1  0  0  0  0
  7 24  1  0  0  0  0
  8 25  1  6  0  0  0
  8  7  1  0  0  0  0
  8 11  1  0  0  0  0
  9  7  1  0  0  0  0
 10  5  2  0  0  0  0
 10  6  1  0  0  0  0
 11 27  1  0  0  0  0
 11 26  1  0  0  0  0
 12 10  1  0  0  0  0
 13  1  1  0  0  0  0
 15  1  1  0  0  0  0
 16  2  1  0  0  0  0
 17  2  1  0  0  0  0
 21  5  1  0  0  0  0
 22  6  1  0  0  0  0
M  END
>  <HBA>
2

>  <HBD>
1

>  <TPSA>
35.25

>  <cid>
31721

>  <dipole>
1.73

>  <excitation_energy_1>
4.855

>  <excitation_energy_2>
5.164

>  <excitation_energy_3>
5.372

>  <excitation_energy_4>
5.55

>  <homo_energy>
-5.638

>  <homo_lumo_gap>
5.676

>  <logP>
2.285

>  <lumo_energy>
0.038

>  <melting_point>
66.18

>  <molecular_refractivity>
50.22

>  <oscillator_strength_1>
0.0353

>  <oscillator_strength_2>
0.0481

>  <oscillator_strength_3>
0.0504

>  <oscillator_strength_4>
0.1058

>  <open_babel_can_smiles>
COc1ccc(cc1)C[C@@H](N)C

>  <mulliken_charges>
27
1   -0.442289
2   -0.213555
3   -0.194319
4   -0.189569
5   -0.193241
6   -0.171339
7   -0.356235
8   0.032326
9   0.177844
10   0.371948
11   -0.702502
12   -0.507778
13   0.15643
14   0.127105
15   0.159011
16   0.168602
17   0.150745
18   0.150405
19   0.121597
20   0.124002
21   0.12929
22   0.135998
23   0.129476
24   0.127002
25   0.13303
26   0.286409
27   0.289608

>  <lowdin_charges>
27
1   -0.451078
2   -0.278978
3   -0.156083
4   -0.159291
5   -0.213745
6   -0.180672
7   -0.29334
8   -0.063035
9   -0.022875
10   0.097942
11   -0.548909
12   -0.200342
13   0.15864
14   0.141007
15   0.159483
16   0.162981
17   0.145478
18   0.143497
19   0.151879
20   0.156326
21   0.162155
22   0.164125
23   0.144446
24   0.142382
25   0.139124
26   0.249057
27   0.249824

$$$$

