PCCDB-ID:  34281
public computational chemistry database (PCCDB) project, http://pccdb.org

 29 30  0  0  0  0  0  0  0  0999 V2000
    0.9930   -2.1958   -1.3806 C   0  0  0  0  0  0  0  0  0  0  0  0
    2.9871    2.1748   -0.6697 C   0  0  0  0  0  0  0  0  0  0  0  0
    7.0207   -3.9549   -0.5753 C   0  0  0  0  0  0  0  0  0  0  0  0
    6.8016   -4.0038    0.8040 C   0  0  0  0  0  0  0  0  0  0  0  0
    6.8023   -2.7575   -1.2593 C   0  0  0  0  0  0  0  0  0  0  0  0
    6.3715   -2.8712    1.4923 C   0  0  0  0  0  0  0  0  0  0  0  0
    6.3555   -1.6243   -0.5809 C   0  0  0  0  0  0  0  0  0  0  0  0
    2.9968   -1.4717    0.1426 C   0  0  0  0  0  0  0  0  0  0  0  0
    1.9834   -1.2877   -0.7416 C   0  0  0  0  0  0  0  0  0  0  0  0
    2.8724    0.7147   -0.3886 C   0  0  0  0  0  0  0  0  0  0  0  0
    6.1219   -1.6713    0.8044 C   0  0  0  0  0  0  0  0  0  0  0  0
    3.5798   -0.1748    0.3868 C   0  0  0  0  0  0  0  0  0  0  0  0
    4.7002    0.1394    1.3015 C   0  0  0  0  0  0  0  0  0  0  0  0
    5.7486   -0.5383    1.5433 N   0  0  0  0  0  0  0  0  0  0  0  0
    4.5717    1.3140    1.9956 O   0  0  0  0  0  0  0  0  0  0  0  0
    1.9034    0.0456   -1.0767 O   0  0  0  0  0  0  0  0  0  0  0  0
    1.1598   -3.2214   -1.0410 H   0  0  0  0  0  0  0  0  0  0  0  0
    1.0799   -2.1781   -2.4739 H   0  0  0  0  0  0  0  0  0  0  0  0
   -0.0361   -1.9120   -1.1278 H   0  0  0  0  0  0  0  0  0  0  0  0
    2.0714    2.7128   -0.3929 H   0  0  0  0  0  0  0  0  0  0  0  0
    3.1544    2.3514   -1.7391 H   0  0  0  0  0  0  0  0  0  0  0  0
    3.8260    2.6037   -0.1175 H   0  0  0  0  0  0  0  0  0  0  0  0
    7.3698   -4.8354   -1.1074 H   0  0  0  0  0  0  0  0  0  0  0  0
    6.9794   -4.9264    1.3510 H   0  0  0  0  0  0  0  0  0  0  0  0
    6.9818   -2.7020   -2.3303 H   0  0  0  0  0  0  0  0  0  0  0  0
    6.2200   -2.8951    2.5676 H   0  0  0  0  0  0  0  0  0  0  0  0
    6.1960   -0.6913   -1.1134 H   0  0  0  0  0  0  0  0  0  0  0  0
    3.3075   -2.4076    0.5828 H   0  0  0  0  0  0  0  0  0  0  0  0
    3.6383    1.5781    1.9668 H   0  0  0  0  0  0  0  0  0  0  0  0
  1 19  1  0  0  0  0
  1 17  1  0  0  0  0
  1  9  1  0  0  0  0
  2 20  1  0  0  0  0
  2 10  1  0  0  0  0
  2 22  1  0  0  0  0
  3  4  2  0  0  0  0
  4 24  1  0  0  0  0
  4  6  1  0  0  0  0
  5  7  2  0  0  0  0
  5  3  1  0  0  0  0
  6 26  1  0  0  0  0
  7 11  1  0  0  0  0
  8 12  1  0  0  0  0
  8 28  1  0  0  0  0
  9  8  2  0  0  0  0
 10 12  2  0  0  0  0
 11  6  2  0  0  0  0
 11 14  1  0  0  0  0
 12 13  1  0  0  0  0
 13 14  2  0  0  0  0
 13 15  1  0  0  0  0
 16  9  1  0  0  0  0
 16 10  1  0  0  0  0
 18  1  1  0  0  0  0
 21  2  1  0  0  0  0
 23  3  1  0  0  0  0
 25  5  1  0  0  0  0
 27  7  1  0  0  0  0
 29 15  1  0  0  0  0
M  END
>  <HBA>
3

>  <HBD>
1

>  <TPSA>
42.24

>  <cid>
34281

>  <dipole>
4.25

>  <excitation_energy_1>
4.097

>  <excitation_energy_2>
4.774

>  <excitation_energy_3>
4.827

>  <excitation_energy_4>
5.118

>  <homo_energy>
-5.63

>  <homo_lumo_gap>
4.947

>  <logP>
3.222

>  <lumo_energy>
-0.683

>  <melting_point>
108.89

>  <molecular_refractivity>
62.85

>  <oscillator_strength_1>
0.0854

>  <oscillator_strength_2>
0.1047

>  <oscillator_strength_3>
0.0263

>  <oscillator_strength_4>
0.0162

>  <open_babel_can_smiles>
Cc1oc(c(c1)/C(=N/c1ccccc1)/O)C

>  <mulliken_charges>
29
1   -0.529206
2   -0.547437
3   -0.132287
4   -0.139389
5   -0.140454
6   -0.156004
7   -0.138603
8   -0.218986
9   0.341431
10   0.310885
11   0.240536
12   -0.029893
13   0.420221
14   -0.481594
15   -0.583129
16   -0.466523
17   0.173332
18   0.174626
19   0.172271
20   0.173408
21   0.182962
22   0.181099
23   0.121828
24   0.125596
25   0.124616
26   0.130714
27   0.124043
28   0.161606
29   0.40433

>  <lowdin_charges>
29
1   -0.436556
2   -0.451929
3   -0.176468
4   -0.155266
5   -0.151613
6   -0.177052
7   -0.181011
8   -0.208805
9   0.076649
10   0.06949
11   0.048806
12   -0.10378
13   0.146382
14   -0.166994
15   -0.361452
16   -0.108402
17   0.171641
18   0.167027
19   0.166632
20   0.168295
21   0.173132
22   0.176091
23   0.155397
24   0.156058
25   0.153361
26   0.159674
27   0.157811
28   0.180989
29   0.351897

$$$$

