PCCDB-ID:  7968
public computational chemistry database (PCCDB) project, http://pccdb.org

 11 11  0  0  0  0  0  0  0  0999 V2000
   -0.7791    1.1635    0.0021 C   0  0  0  0  0  0  0  0  0  0  0  0
    1.4049    0.0582   -0.0078 C   0  0  0  0  0  0  0  0  0  0  0  0
   -1.3327   -0.0625    0.0403 C   0  0  0  0  0  0  0  0  0  0  0  0
    0.7451   -1.1140    0.0304 C   0  0  0  0  0  0  0  0  0  0  0  0
    0.6808    1.3381   -0.0282 C   0  0  0  0  0  0  0  0  0  0  0  0
    1.2351    2.4339   -0.0671 O   0  0  0  0  0  0  0  0  0  0  0  0
   -0.6110   -1.2152    0.0546 O   0  0  0  0  0  0  0  0  0  0  0  0
   -1.4106    2.0450   -0.0075 H   0  0  0  0  0  0  0  0  0  0  0  0
    2.4890    0.0715   -0.0247 H   0  0  0  0  0  0  0  0  0  0  0  0
   -2.3958   -0.2724    0.0622 H   0  0  0  0  0  0  0  0  0  0  0  0
    1.2057   -2.0950    0.0458 H   0  0  0  0  0  0  0  0  0  0  0  0
  1  3  2  0  0  0  0
  2  4  2  0  0  0  0
  3  7  1  0  0  0  0
  3 10  1  0  0  0  0
  4 11  1  0  0  0  0
  4  7  1  0  0  0  0
  5  2  1  0  0  0  0
  5  1  1  0  0  0  0
  6  5  2  0  0  0  0
  8  1  1  0  0  0  0
  9  2  1  0  0  0  0
M  END
>  <HBA>
2

>  <HBD>
0

>  <TPSA>
30.21

>  <cid>
7968

>  <dipole>
3.78

>  <excitation_energy_1>
3.938

>  <excitation_energy_2>
4.855

>  <excitation_energy_3>
5.47

>  <excitation_energy_4>
5.565

>  <homo_energy>
-6.495

>  <homo_lumo_gap>
5.423

>  <logP>
0.64

>  <lumo_energy>
-1.072

>  <melting_point>
36.98

>  <molecular_refractivity>
24.98

>  <oscillator_strength_1>
0.0

>  <oscillator_strength_2>
0.0002

>  <oscillator_strength_3>
0.0251

>  <oscillator_strength_4>
0.1693

>  <open_babel_can_smiles>
O=c1ccocc1

>  <mulliken_charges>
11
1   -0.214709
2   -0.21492
3   0.112926
4   0.113075
5   0.450296
6   -0.515837
7   -0.412458
8   0.163749
9   0.163764
10   0.177059
11   0.177054

>  <lowdin_charges>
11
1   -0.214406
2   -0.211226
3   -0.02272
4   -0.021892
5   0.133857
6   -0.282699
7   -0.099375
8   0.184888
9   0.182402
10   0.174746
11   0.176426

$$$$

