PCCDB-ID:  26606
public computational chemistry database (PCCDB) project, http://pccdb.org

 33 33  0  0  0  0  0  0  0  0999 V2000
    0.1452   -1.3878   -1.4843 C   0  0  0  0  0  0  0  0  0  0  0  0
    2.2506   -0.0017   -1.7477 C   0  0  0  0  0  0  0  0  0  0  0  0
    2.1093    2.4016    5.0134 C   0  0  0  0  0  0  0  0  0  0  0  0
    2.5647   -5.7889    0.3749 C   0  0  0  0  0  0  0  0  0  0  0  0
    2.5620   -2.1930    2.9211 C   0  0  0  0  0  0  0  0  0  0  0  0
    2.4642   -3.2352    2.0002 C   0  0  0  0  0  0  0  0  0  0  0  0
    2.0936   -0.6228    1.1462 C   0  0  0  0  0  0  0  0  0  0  0  0
    1.6706   -1.3367   -1.2519 C   0  0  0  0  0  0  0  0  0  0  0  0
    2.3763   -0.8906    2.4827 C   0  0  0  0  0  0  0  0  0  0  0  0
    2.0060   -1.6509    0.2038 C   0  0  0  0  0  0  0  0  0  0  0  0
    2.1938   -2.9840    0.6494 C   0  0  0  0  0  0  0  0  0  0  0  0
    3.2703    1.1543    3.3865 C   0  0  0  0  0  0  0  0  0  0  0  0
    3.2121    2.2030    4.0882 N   0  0  0  0  0  0  0  0  0  0  0  0
    4.2776    0.9392    2.5090 O   0  0  0  0  0  0  0  0  0  0  0  0
    2.3804    0.1278    3.4400 O   0  0  0  0  0  0  0  0  0  0  0  0
    2.0597   -4.3057   -0.5554 S   0  0  0  0  0  0  0  0  0  0  0  0
   -0.0880   -1.2383   -2.5453 H   0  0  0  0  0  0  0  0  0  0  0  0
   -0.3581   -0.5997   -0.9113 H   0  0  0  0  0  0  0  0  0  0  0  0
   -0.2758   -2.3504   -1.1770 H   0  0  0  0  0  0  0  0  0  0  0  0
    2.0982    0.0895   -2.8290 H   0  0  0  0  0  0  0  0  0  0  0  0
    3.3249    0.0701   -1.5473 H   0  0  0  0  0  0  0  0  0  0  0  0
    1.7591    0.8599   -1.2808 H   0  0  0  0  0  0  0  0  0  0  0  0
    1.7699    3.4411    4.9429 H   0  0  0  0  0  0  0  0  0  0  0  0
    2.4548    2.2450    6.0438 H   0  0  0  0  0  0  0  0  0  0  0  0
    1.2529    1.7392    4.8355 H   0  0  0  0  0  0  0  0  0  0  0  0
    2.5596   -6.6023   -0.3552 H   0  0  0  0  0  0  0  0  0  0  0  0
    1.8595   -6.0314    1.1746 H   0  0  0  0  0  0  0  0  0  0  0  0
    3.5741   -5.6842    0.7818 H   0  0  0  0  0  0  0  0  0  0  0  0
    2.7729   -2.3871    3.9677 H   0  0  0  0  0  0  0  0  0  0  0  0
    2.6045   -4.2493    2.3551 H   0  0  0  0  0  0  0  0  0  0  0  0
    1.9513    0.4074    0.8403 H   0  0  0  0  0  0  0  0  0  0  0  0
    2.1248   -2.1233   -1.8686 H   0  0  0  0  0  0  0  0  0  0  0  0
    4.8375    1.7326    2.5797 H   0  0  0  0  0  0  0  0  0  0  0  0
  1  8  1  0  0  0  0
  1 19  1  0  0  0  0
  1 18  1  0  0  0  0
  2 21  1  0  0  0  0
  2 22  1  0  0  0  0
  2  8  1  0  0  0  0
  3 24  1  0  0  0  0
  4 28  1  0  0  0  0
  4 27  1  0  0  0  0
  5 29  1  0  0  0  0
  6 30  1  0  0  0  0
  6  5  2  0  0  0  0
  7  9  2  0  0  0  0
  8 10  1  0  0  0  0
  9  5  1  0  0  0  0
  9 15  1  0  0  0  0
 10 11  2  0  0  0  0
 10  7  1  0  0  0  0
 11  6  1  0  0  0  0
 12 15  1  0  0  0  0
 12 13  2  0  0  0  0
 13  3  1  0  0  0  0
 14 33  1  0  0  0  0
 14 12  1  0  0  0  0
 16  4  1  0  0  0  0
 16 11  1  0  0  0  0
 17  1  1  0  0  0  0
 20  2  1  0  0  0  0
 23  3  1  0  0  0  0
 25  3  1  0  0  0  0
 26  4  1  0  0  0  0
 31  7  1  0  0  0  0
 32  8  1  0  0  0  0
M  END
>  <HBA>
4

>  <HBD>
1

>  <TPSA>
63.63

>  <cid>
26606

>  <dipole>
1.62

>  <excitation_energy_1>
4.541

>  <excitation_energy_2>
4.829

>  <excitation_energy_3>
4.977

>  <excitation_energy_4>
5.239

>  <homo_energy>
-5.606

>  <homo_lumo_gap>
5.445

>  <logP>
3.641

>  <lumo_energy>
-0.161

>  <melting_point>
83.99

>  <molecular_refractivity>
67.43

>  <oscillator_strength_1>
0.0277

>  <oscillator_strength_2>
0.0129

>  <oscillator_strength_3>
0.2762

>  <oscillator_strength_4>
0.0008

>  <open_babel_can_smiles>
C/N=C(\Oc1ccc(c(c1)C(C)C)SC)/O

>  <mulliken_charges>
33
1   -0.437585
2   -0.452316
3   -0.323697
4   -0.606733
5   -0.148685
6   -0.175699
7   -0.184116
8   -0.17621
9   0.350861
10   0.130967
11   -0.125474
12   0.702592
13   -0.481792
14   -0.591178
15   -0.539435
16   0.135984
17   0.142786
18   0.143755
19   0.164802
20   0.145795
21   0.155762
22   0.14469
23   0.152698
24   0.153357
25   0.153142
26   0.191511
27   0.188051
28   0.189807
29   0.14152
30   0.134347
31   0.137761
32   0.160137
33   0.422593

>  <lowdin_charges>
33
1   -0.440896
2   -0.44082
3   -0.351979
4   -0.548714
5   -0.167247
6   -0.172301
7   -0.171511
8   -0.125901
9   0.095497
10   -0.002571
11   -0.130111
12   0.189225
13   -0.264239
14   -0.362099
15   -0.160946
16   0.154181
17   0.147906
18   0.149473
19   0.159148
20   0.15093
21   0.153861
22   0.147065
23   0.149938
24   0.149618
25   0.144431
26   0.182423
27   0.167826
28   0.169024
29   0.167823
30   0.161778
31   0.167505
32   0.159527
33   0.372156

$$$$

