PCCDB-ID:  28906
public computational chemistry database (PCCDB) project, http://pccdb.org

 25 25  0  0  0  0  0  0  0  0999 V2000
    2.7120   -0.6237    1.3143 C   0  0  0  0  0  0  0  0  0  0  0  0
    6.7660    3.3124   -1.0961 C   0  0  0  0  0  0  0  0  0  0  0  0
    4.1617    5.6023    0.3583 C   0  0  0  0  0  0  0  0  0  0  0  0
    2.4299    0.1540    0.0182 C   0  0  0  0  0  0  0  0  0  0  0  0
    6.1364    3.2761    0.3085 C   0  0  0  0  0  0  0  0  0  0  0  0
    1.9971    2.6665    0.1045 C   0  0  0  0  0  0  0  0  0  0  0  0
    3.7231    4.1611    0.2646 C   0  0  0  0  0  0  0  0  0  0  0  0
    2.8886    1.5910    0.0938 C   0  0  0  0  0  0  0  0  0  0  0  0
    4.6371    3.0816    0.2592 C   0  0  0  0  0  0  0  0  0  0  0  0
    2.4048    3.9362    0.1887 N   0  0  0  0  0  0  0  0  0  0  0  0
    4.2096    1.8163    0.1737 N   0  0  0  0  0  0  0  0  0  0  0  0
    2.3985   -1.6689    1.2171 H   0  0  0  0  0  0  0  0  0  0  0  0
    2.1751   -0.1852    2.1633 H   0  0  0  0  0  0  0  0  0  0  0  0
    3.7821   -0.6030    1.5428 H   0  0  0  0  0  0  0  0  0  0  0  0
    7.8548    3.4154   -1.0308 H   0  0  0  0  0  0  0  0  0  0  0  0
    6.3823    4.1519   -1.6876 H   0  0  0  0  0  0  0  0  0  0  0  0
    6.5406    2.3880   -1.6380 H   0  0  0  0  0  0  0  0  0  0  0  0
    4.6622    5.8124    1.3123 H   0  0  0  0  0  0  0  0  0  0  0  0
    3.2830    6.2463    0.2812 H   0  0  0  0  0  0  0  0  0  0  0  0
    4.8648    5.8696   -0.4395 H   0  0  0  0  0  0  0  0  0  0  0  0
    1.3584    0.1247   -0.2135 H   0  0  0  0  0  0  0  0  0  0  0  0
    2.9526   -0.3340   -0.8141 H   0  0  0  0  0  0  0  0  0  0  0  0
    6.3855    4.1953    0.8499 H   0  0  0  0  0  0  0  0  0  0  0  0
    6.5625    2.4384    0.8707 H   0  0  0  0  0  0  0  0  0  0  0  0
    0.9224    2.5014    0.0424 H   0  0  0  0  0  0  0  0  0  0  0  0
  1 14  1  0  0  0  0
  1 13  1  0  0  0  0
  2 15  1  0  0  0  0
  2  5  1  0  0  0  0
  3 18  1  0  0  0  0
  4  8  1  0  0  0  0
  4  1  1  0  0  0  0
  5 23  1  0  0  0  0
  5 24  1  0  0  0  0
  6 10  1  0  0  0  0
  7  3  1  0  0  0  0
  8  6  2  0  0  0  0
  8 11  1  0  0  0  0
  9  7  1  0  0  0  0
  9  5  1  0  0  0  0
 10  7  2  0  0  0  0
 11  9  2  0  0  0  0
 12  1  1  0  0  0  0
 16  2  1  0  0  0  0
 17  2  1  0  0  0  0
 19  3  1  0  0  0  0
 20  3  1  0  0  0  0
 21  4  1  0  0  0  0
 22  4  1  0  0  0  0
 25  6  1  0  0  0  0
M  END
>  <HBA>
2

>  <HBD>
0

>  <TPSA>
25.78

>  <cid>
28906

>  <dipole>
0.69

>  <excitation_energy_1>
4.05

>  <excitation_energy_2>
4.765

>  <excitation_energy_3>
4.969

>  <excitation_energy_4>
5.534

>  <homo_energy>
-6.408

>  <homo_lumo_gap>
5.402

>  <logP>
1.91

>  <lumo_energy>
-1.007

>  <melting_point>
46.51

>  <molecular_refractivity>
46.54

>  <oscillator_strength_1>
0.0053

>  <oscillator_strength_2>
0.0001

>  <oscillator_strength_3>
0.162

>  <oscillator_strength_4>
0.0002

>  <open_babel_can_smiles>
CCc1cnc(c(n1)CC)C

>  <mulliken_charges>
25
1   -0.4416
2   -0.445862
3   -0.527971
4   -0.31875
5   -0.315361
6   -0.0168
7   0.267561
8   0.302407
9   0.266393
10   -0.433585
11   -0.497398
12   0.144844
13   0.145461
14   0.167407
15   0.148555
16   0.146779
17   0.163717
18   0.164287
19   0.178787
20   0.162577
21   0.140713
22   0.158173
23   0.141022
24   0.160535
25   0.138109

>  <lowdin_charges>
25
1   -0.438275
2   -0.438349
3   -0.450905
4   -0.272975
5   -0.279179
6   -0.123488
7   0.025027
8   0.032132
9   0.033214
10   -0.131089
11   -0.142566
12   0.14964
13   0.149813
14   0.157949
15   0.150519
16   0.148589
17   0.157823
18   0.16224
19   0.172931
20   0.161836
21   0.146169
22   0.160396
23   0.150137
24   0.162878
25   0.155532

$$$$

