PCCDB-ID:  26049
public computational chemistry database (PCCDB) project, http://pccdb.org

 26 27  0  0  1  0  0  0  0  0999 V2000
    0.8576    0.0546    0.3617 C   0  0  0  0  0  0  0  0  0  0  0  0
    6.5039    1.9471    0.5561 C   0  0  0  0  0  0  0  0  0  0  0  0
    6.6331    1.1776   -1.8636 C   0  0  0  0  0  0  0  0  0  0  0  0
    2.9228   -1.1337   -0.3770 C   0  0  0  0  0  0  0  0  0  0  0  0
    4.4149   -1.3107   -0.7020 C   0  0  0  0  0  0  0  0  0  0  0  0
    3.0562    1.3748    0.0642 C   0  0  0  0  0  0  0  0  0  0  0  0
    2.3222    0.0156    0.0033 C   0  0  0  0  0  0  0  0  0  0  0  0
    5.0457   -0.0560   -0.1410 C   0  0  2  0  0  0  0  0  0  0  0  0
    4.3269    1.1447   -0.7203 C   0  0  2  0  0  0  0  0  0  0  0  0
    5.8406    1.1686   -0.5673 C   0  0  0  0  0  0  0  0  0  0  0  0
    0.3957   -0.9368    0.3132 H   0  0  0  0  0  0  0  0  0  0  0  0
    0.3005    0.7228   -0.3101 H   0  0  0  0  0  0  0  0  0  0  0  0
    0.7105    0.4459    1.3786 H   0  0  0  0  0  0  0  0  0  0  0  0
    7.4803    1.5155    0.8112 H   0  0  0  0  0  0  0  0  0  0  0  0
    5.8921    1.9523    1.4645 H   0  0  0  0  0  0  0  0  0  0  0  0
    6.6662    2.9902    0.2565 H   0  0  0  0  0  0  0  0  0  0  0  0
    7.6365    0.7634   -1.7027 H   0  0  0  0  0  0  0  0  0  0  0  0
    6.7494    2.1994   -2.2471 H   0  0  0  0  0  0  0  0  0  0  0  0
    6.1468    0.5803   -2.6422 H   0  0  0  0  0  0  0  0  0  0  0  0
    2.3117   -2.0359   -0.4211 H   0  0  0  0  0  0  0  0  0  0  0  0
    4.5680   -1.4219   -1.7855 H   0  0  0  0  0  0  0  0  0  0  0  0
    4.7858   -2.2365   -0.2383 H   0  0  0  0  0  0  0  0  0  0  0  0
    3.2388    1.6627    1.1098 H   0  0  0  0  0  0  0  0  0  0  0  0
    2.4090    2.1556   -0.3633 H   0  0  0  0  0  0  0  0  0  0  0  0
    4.9562   -0.0674    0.9475 H   0  0  0  0  0  0  0  0  0  0  0  0
    4.0739    0.9716   -1.7687 H   0  0  0  0  0  0  0  0  0  0  0  0
  1 13  1  0  0  0  0
  2 14  1  0  0  0  0
  2 15  1  0  0  0  0
  3 17  1  0  0  0  0
  3 10  1  0  0  0  0
  4  7  2  0  0  0  0
  5  4  1  0  0  0  0
  5 22  1  0  0  0  0
  5  8  1  0  0  0  0
  6 23  1  0  0  0  0
  7  6  1  0  0  0  0
  7  1  1  0  0  0  0
  8 25  1  1  0  0  0
  9 26  1  6  0  0  0
  9 10  1  0  0  0  0
  9  8  1  0  0  0  0
  9  6  1  0  0  0  0
 10  8  1  0  0  0  0
 10  2  1  0  0  0  0
 11  1  1  0  0  0  0
 12  1  1  0  0  0  0
 16  2  1  0  0  0  0
 18  3  1  0  0  0  0
 19  3  1  0  0  0  0
 20  4  1  0  0  0  0
 21  5  1  0  0  0  0
 24  6  1  0  0  0  0
M  END
>  <HBA>
0

>  <HBD>
0

>  <TPSA>
0.0

>  <cid>
26049

>  <dipole>
0.17

>  <excitation_energy_1>
5.715

>  <excitation_energy_2>
5.785

>  <excitation_energy_3>
5.846

>  <excitation_energy_4>
6.108

>  <homo_energy>
-6.18

>  <homo_lumo_gap>
7.034

>  <logP>
2.999

>  <lumo_energy>
0.854

>  <melting_point>
47.83

>  <molecular_refractivity>
45.22

>  <oscillator_strength_1>
0.0098

>  <oscillator_strength_2>
0.0002

>  <oscillator_strength_3>
0.011

>  <oscillator_strength_4>
0.0258

>  <open_babel_can_smiles>
CC1=CC[C@@H]2[C@@H](C1)C2(C)C

>  <mulliken_charges>
26
1   -0.513975
2   -0.472518
3   -0.472655
4   -0.17941
5   -0.300516
6   -0.329601
7   0.178613
8   -0.137682
9   -0.139124
10   0.12235
11   0.150811
12   0.149528
13   0.148879
14   0.144629
15   0.143475
16   0.145105
17   0.145226
18   0.144313
19   0.14403
20   0.111054
21   0.141844
22   0.135456
23   0.142102
24   0.134217
25   0.131569
26   0.132281

>  <lowdin_charges>
26
1   -0.44036
2   -0.432023
3   -0.433266
4   -0.195038
5   -0.265182
6   -0.26894
7   -0.013654
8   -0.17836
9   -0.179372
10   0.019672
11   0.15401
12   0.153863
13   0.152003
14   0.149838
15   0.150865
16   0.149621
17   0.150242
18   0.14919
19   0.152095
20   0.146924
21   0.147297
22   0.145254
23   0.148397
24   0.145088
25   0.145261
26   0.146575

$$$$

