PCCDB-ID:  12111
public computational chemistry database (PCCDB) project, http://pccdb.org

 27 28  0  0  0  0  0  0  0  0999 V2000
   -1.6096    0.5771    1.0866 C   0  0  0  0  0  0  0  0  0  0  0  0
   -0.1047   -0.2415   -0.5915 C   0  0  0  0  0  0  0  0  0  0  0  0
   -2.1353    3.0367   -1.5161 C   0  0  0  0  0  0  0  0  0  0  0  0
   -1.3671    4.4613    0.2533 C   0  0  0  0  0  0  0  0  0  0  0  0
   -2.0413   -0.7228    1.3405 C   0  0  0  0  0  0  0  0  0  0  0  0
   -0.5266   -1.5485   -0.3526 C   0  0  0  0  0  0  0  0  0  0  0  0
   -3.1207    3.9657   -1.8430 C   0  0  0  0  0  0  0  0  0  0  0  0
   -2.3479    5.4014   -0.0586 C   0  0  0  0  0  0  0  0  0  0  0  0
   -0.1449    2.2621   -0.1333 C   0  0  0  0  0  0  0  0  0  0  0  0
   -0.6318    0.8441    0.1192 C   0  0  0  0  0  0  0  0  0  0  0  0
   -1.2378    3.2659   -0.4650 C   0  0  0  0  0  0  0  0  0  0  0  0
   -1.4998   -1.7929    0.6189 C   0  0  0  0  0  0  0  0  0  0  0  0
   -3.2304    5.1547   -1.1127 C   0  0  0  0  0  0  0  0  0  0  0  0
   -1.8835   -3.0919    0.8220 O   0  0  0  0  0  0  0  0  0  0  0  0
   -4.1788    6.1050   -1.3832 O   0  0  0  0  0  0  0  0  0  0  0  0
   -2.0461    1.3996    1.6478 H   0  0  0  0  0  0  0  0  0  0  0  0
    0.6558   -0.0642   -1.3490 H   0  0  0  0  0  0  0  0  0  0  0  0
   -2.0677    2.1129   -2.0853 H   0  0  0  0  0  0  0  0  0  0  0  0
   -0.6847    4.6659    1.0756 H   0  0  0  0  0  0  0  0  0  0  0  0
   -2.8015   -0.9072    2.0983 H   0  0  0  0  0  0  0  0  0  0  0  0
   -0.1147   -2.3846   -0.9091 H   0  0  0  0  0  0  0  0  0  0  0  0
   -3.8075    3.7661   -2.6642 H   0  0  0  0  0  0  0  0  0  0  0  0
   -2.4434    6.3246    0.5043 H   0  0  0  0  0  0  0  0  0  0  0  0
    0.5898    2.2366   -0.9498 H   0  0  0  0  0  0  0  0  0  0  0  0
    0.4036    2.6247    0.7468 H   0  0  0  0  0  0  0  0  0  0  0  0
   -2.5659   -3.1121    1.5106 H   0  0  0  0  0  0  0  0  0  0  0  0
   -4.7181    5.8049   -2.1311 H   0  0  0  0  0  0  0  0  0  0  0  0
  1  5  1  0  0  0  0
  1 16  1  0  0  0  0
  2  6  2  0  0  0  0
  2 10  1  0  0  0  0
  3 11  1  0  0  0  0
  4 19  1  0  0  0  0
  5 20  1  0  0  0  0
  6 12  1  0  0  0  0
  7  3  2  0  0  0  0
  7 13  1  0  0  0  0
  8  4  1  0  0  0  0
  8 23  1  0  0  0  0
  9 10  1  0  0  0  0
  9 25  1  0  0  0  0
 10  1  2  0  0  0  0
 11  9  1  0  0  0  0
 11  4  2  0  0  0  0
 12 14  1  0  0  0  0
 12  5  2  0  0  0  0
 13  8  2  0  0  0  0
 14 26  1  0  0  0  0
 15 13  1  0  0  0  0
 17  2  1  0  0  0  0
 18  3  1  0  0  0  0
 21  6  1  0  0  0  0
 22  7  1  0  0  0  0
 24  9  1  0  0  0  0
 27 15  1  0  0  0  0
M  END
>  <HBA>
2

>  <HBD>
2

>  <TPSA>
40.46

>  <cid>
12111

>  <dipole>
1.31

>  <excitation_energy_1>
4.721

>  <excitation_energy_2>
4.922

>  <excitation_energy_3>
5.06

>  <excitation_energy_4>
5.061

>  <homo_energy>
-5.641

>  <homo_lumo_gap>
5.559

>  <logP>
2.689

>  <lumo_energy>
-0.082

>  <melting_point>
119.49

>  <molecular_refractivity>
59.94

>  <oscillator_strength_1>
0.0505

>  <oscillator_strength_2>
0.019

>  <oscillator_strength_3>
0.0002

>  <oscillator_strength_4>
0.0009

>  <open_babel_can_smiles>
Oc1ccc(cc1)Cc1ccc(cc1)O

>  <mulliken_charges>
27
1   -0.182208
2   -0.205567
3   -0.182507
4   -0.205525
5   -0.193631
6   -0.156744
7   -0.193746
8   -0.15668
9   -0.439324
10   0.18274
11   0.18321
12   0.347863
13   0.347919
14   -0.644603
15   -0.644635
16   0.133672
17   0.123946
18   0.133761
19   0.123799
20   0.117281
21   0.137369
22   0.117215
23   0.137272
24   0.15352
25   0.153317
26   0.406152
27   0.406136

>  <lowdin_charges>
27
1   -0.150042
2   -0.158765
3   -0.148779
4   -0.159253
5   -0.211276
6   -0.188987
7   -0.212082
8   -0.187752
9   -0.269888
10   -0.024788
11   -0.024512
12   0.099822
13   0.099565
14   -0.382319
15   -0.381949
16   0.16186
17   0.155499
18   0.160817
19   0.155557
20   0.152731
21   0.167359
22   0.152759
23   0.166334
24   0.156489
25   0.156611
26   0.357306
27   0.357686

$$$$

