PCCDB-ID:  7147
public computational chemistry database (PCCDB) project, http://pccdb.org

 22 22  0  0  1  0  0  0  0  0999 V2000
    1.1129   -0.9289    0.1894 C   0  0  0  0  0  0  0  0  0  0  0  0
    2.6220   -0.8267    0.4338 C   0  0  0  0  0  0  0  0  0  0  0  0
    1.5510   -1.1412    5.4936 C   0  0  0  0  0  0  0  0  0  0  0  0
    1.2458    0.1275    4.9999 C   0  0  0  0  0  0  0  0  0  0  0  0
    2.3165   -2.0158    4.7193 C   0  0  0  0  0  0  0  0  0  0  0  0
    1.7074    0.5183    3.7416 C   0  0  0  0  0  0  0  0  0  0  0  0
    2.7693   -1.6222    3.4602 C   0  0  0  0  0  0  0  0  0  0  0  0
    2.4737   -0.3478    2.9532 C   0  0  0  0  0  0  0  0  0  0  0  0
    3.0059    0.1015    1.5986 C   0  0  1  0  0  0  0  0  0  0  0  0
    4.4250    0.3051    1.6372 O   0  0  0  0  0  0  0  0  0  0  0  0
    0.8999   -1.5613   -0.6793 H   0  0  0  0  0  0  0  0  0  0  0  0
    0.6762    0.0586   -0.0047 H   0  0  0  0  0  0  0  0  0  0  0  0
    0.5942   -1.3580    1.0534 H   0  0  0  0  0  0  0  0  0  0  0  0
    3.1260   -0.4412   -0.4606 H   0  0  0  0  0  0  0  0  0  0  0  0
    3.0364   -1.8290    0.6151 H   0  0  0  0  0  0  0  0  0  0  0  0
    1.1943   -1.4484    6.4730 H   0  0  0  0  0  0  0  0  0  0  0  0
    0.6528    0.8170    5.5952 H   0  0  0  0  0  0  0  0  0  0  0  0
    2.5563   -3.0076    5.0938 H   0  0  0  0  0  0  0  0  0  0  0  0
    1.4736    1.5120    3.3661 H   0  0  0  0  0  0  0  0  0  0  0  0
    3.3556   -2.3223    2.8675 H   0  0  0  0  0  0  0  0  0  0  0  0
    2.6016    1.0983    1.3872 H   0  0  0  0  0  0  0  0  0  0  0  0
    4.8289   -0.5267    1.9320 H   0  0  0  0  0  0  0  0  0  0  0  0
  1  2  1  0  0  0  0
  1 13  1  0  0  0  0
  2 15  1  0  0  0  0
  2  9  1  0  0  0  0
  3 16  1  0  0  0  0
  4  3  1  0  0  0  0
  4 17  1  0  0  0  0
  5 18  1  0  0  0  0
  5  3  2  0  0  0  0
  6  4  2  0  0  0  0
  7  5  1  0  0  0  0
  8  7  2  0  0  0  0
  8  6  1  0  0  0  0
  9 21  1  6  0  0  0
  9 10  1  0  0  0  0
  9  8  1  0  0  0  0
 10 22  1  0  0  0  0
 11  1  1  0  0  0  0
 12  1  1  0  0  0  0
 14  2  1  0  0  0  0
 19  6  1  0  0  0  0
 20  7  1  0  0  0  0
M  END
>  <HBA>
1

>  <HBD>
1

>  <TPSA>
20.23

>  <cid>
7147

>  <dipole>
1.69

>  <excitation_energy_1>
5.305

>  <excitation_energy_2>
5.901

>  <excitation_energy_3>
6.052

>  <excitation_energy_4>
6.118

>  <homo_energy>
-6.661

>  <homo_lumo_gap>
6.504

>  <logP>
2.13

>  <lumo_energy>
-0.158

>  <melting_point>
24.44

>  <molecular_refractivity>
42.18

>  <oscillator_strength_1>
0.0004

>  <oscillator_strength_2>
0.0245

>  <oscillator_strength_3>
0.003

>  <oscillator_strength_4>
0.0125

>  <open_babel_can_smiles>
CC[C@@H](c1ccccc1)O

>  <mulliken_charges>
22
1   -0.451112
2   -0.268084
3   -0.129789
4   -0.125489
5   -0.127956
6   -0.189075
7   -0.199138
8   0.18148
9   0.047957
10   -0.619275
11   0.14606
12   0.143176
13   0.156318
14   0.148774
15   0.123302
16   0.130968
17   0.13158
18   0.130531
19   0.13013
20   0.120885
21   0.134959
22   0.383799

>  <lowdin_charges>
22
1   -0.448993
2   -0.288278
3   -0.156332
4   -0.154492
5   -0.152957
6   -0.160201
7   -0.173317
8   -0.01499
9   0.000546
10   -0.460837
11   0.15327
12   0.147301
13   0.154912
14   0.152174
15   0.135811
16   0.157948
17   0.160149
18   0.157262
19   0.156866
20   0.151864
21   0.144843
22   0.337452

$$$$

