PCCDB-ID:  10286
public computational chemistry database (PCCDB) project, http://pccdb.org

 17 18  0  0  0  0  0  0  0  0999 V2000
   -2.4174   -0.7197   -0.0168 C   0  0  0  0  0  0  0  0  0  0  0  0
   -2.3968    0.6851   -0.0332 C   0  0  0  0  0  0  0  0  0  0  0  0
   -1.2258   -1.4287   -0.0014 C   0  0  0  0  0  0  0  0  0  0  0  0
   -1.1921    1.3761   -0.0352 C   0  0  0  0  0  0  0  0  0  0  0  0
    2.4680   -0.6324    0.0077 C   0  0  0  0  0  0  0  0  0  0  0  0
    2.3454    0.7091   -0.0102 C   0  0  0  0  0  0  0  0  0  0  0  0
    0.0068   -0.7552   -0.0021 C   0  0  0  0  0  0  0  0  0  0  0  0
    1.2898   -1.5004    0.0143 C   0  0  0  0  0  0  0  0  0  0  0  0
    0.0009    0.6473   -0.0201 C   0  0  0  0  0  0  0  0  0  0  0  0
    1.3483   -2.7279    0.0318 O   0  0  0  0  0  0  0  0  0  0  0  0
    1.1673    1.3757   -0.0244 O   0  0  0  0  0  0  0  0  0  0  0  0
   -3.3671   -1.2466   -0.0170 H   0  0  0  0  0  0  0  0  0  0  0  0
   -3.3302    1.2409   -0.0446 H   0  0  0  0  0  0  0  0  0  0  0  0
   -1.2026   -2.5138    0.0110 H   0  0  0  0  0  0  0  0  0  0  0  0
   -1.1514    2.4603   -0.0486 H   0  0  0  0  0  0  0  0  0  0  0  0
    3.4517   -1.0876    0.0186 H   0  0  0  0  0  0  0  0  0  0  0  0
    3.1779    1.4038   -0.0151 H   0  0  0  0  0  0  0  0  0  0  0  0
  1  3  2  0  0  0  0
  2  1  1  0  0  0  0
  3 14  1  0  0  0  0
  4  2  2  0  0  0  0
  4  9  1  0  0  0  0
  5  8  1  0  0  0  0
  5 16  1  0  0  0  0
  6  5  2  0  0  0  0
  7  3  1  0  0  0  0
  7  8  1  0  0  0  0
  8 10  2  0  0  0  0
  9  7  2  0  0  0  0
 11  9  1  0  0  0  0
 11  6  1  0  0  0  0
 12  1  1  0  0  0  0
 13  2  1  0  0  0  0
 15  4  1  0  0  0  0
 17  6  1  0  0  0  0
M  END
>  <HBA>
2

>  <HBD>
0

>  <TPSA>
30.21

>  <cid>
10286

>  <dipole>
3.47

>  <excitation_energy_1>
3.729

>  <excitation_energy_2>
4.502

>  <excitation_energy_3>
4.979

>  <excitation_energy_4>
5.063

>  <homo_energy>
-6.572

>  <homo_lumo_gap>
5.07

>  <logP>
1.793

>  <lumo_energy>
-1.502

>  <melting_point>
82.32

>  <molecular_refractivity>
42.48

>  <oscillator_strength_1>
0.0

>  <oscillator_strength_2>
0.0872

>  <oscillator_strength_3>
0.0163

>  <oscillator_strength_4>
0.0

>  <open_babel_can_smiles>
O=c1ccoc2c1cccc2

>  <mulliken_charges>
17
1   -0.129325
2   -0.13048
3   -0.17512
4   -0.170511
5   -0.220391
6   0.113064
7   0.052452
8   0.421747
9   0.293324
10   -0.509989
11   -0.484548
12   0.141647
13   0.143836
14   0.169995
15   0.151717
16   0.159919
17   0.172663

>  <lowdin_charges>
17
1   -0.159554
2   -0.135071
3   -0.120457
4   -0.170935
5   -0.228714
6   -0.01589
7   -0.063113
8   0.135411
9   0.103171
10   -0.276613
11   -0.107575
12   0.164383
13   0.165663
14   0.178764
15   0.171132
16   0.183007
17   0.176391

$$$$

