PCCDB-ID:  20010
public computational chemistry database (PCCDB) project, http://pccdb.org

 21 20  0  0  0  0  0  0  0  0999 V2000
    4.3361    2.5436    1.0811 C   0  0  0  0  0  0  0  0  0  0  0  0
    2.3300    0.6075   -2.8020 C   0  0  0  0  0  0  0  0  0  0  0  0
    6.2275   -1.1664   -2.2796 C   0  0  0  0  0  0  0  0  0  0  0  0
    3.9865    1.4857    0.6124 C   0  0  0  0  0  0  0  0  0  0  0  0
    3.7777    0.8143   -2.3537 C   0  0  0  0  0  0  0  0  0  0  0  0
    5.6536   -0.2499   -1.1972 C   0  0  0  0  0  0  0  0  0  0  0  0
    3.5811    0.1994    0.0063 C   0  0  0  0  0  0  0  0  0  0  0  0
    4.1919   -0.1127   -1.2900 N   0  0  0  0  0  0  0  0  0  0  0  0
    4.6363    3.4794    1.4953 H   0  0  0  0  0  0  0  0  0  0  0  0
    2.1009    1.2670   -3.6471 H   0  0  0  0  0  0  0  0  0  0  0  0
    1.6102    0.8378   -2.0089 H   0  0  0  0  0  0  0  0  0  0  0  0
    2.1705   -0.4290   -3.1170 H   0  0  0  0  0  0  0  0  0  0  0  0
    7.3087   -1.2832   -2.1408 H   0  0  0  0  0  0  0  0  0  0  0  0
    6.0682   -0.7692   -3.2880 H   0  0  0  0  0  0  0  0  0  0  0  0
    5.7597   -2.1549   -2.2289 H   0  0  0  0  0  0  0  0  0  0  0  0
    3.9360    1.8655   -2.0512 H   0  0  0  0  0  0  0  0  0  0  0  0
    4.4334    0.6356   -3.2113 H   0  0  0  0  0  0  0  0  0  0  0  0
    6.1552    0.7340   -1.2218 H   0  0  0  0  0  0  0  0  0  0  0  0
    5.8809   -0.6829   -0.2160 H   0  0  0  0  0  0  0  0  0  0  0  0
    2.4912    0.1883   -0.1086 H   0  0  0  0  0  0  0  0  0  0  0  0
    3.8197   -0.6173    0.6997 H   0  0  0  0  0  0  0  0  0  0  0  0
  1  9  1  0  0  0  0
  2  5  1  0  0  0  0
  2 11  1  0  0  0  0
  3 15  1  0  0  0  0
  3 13  1  0  0  0  0
  3  6  1  0  0  0  0
  4  1  3  0  0  0  0
  5 16  1  0  0  0  0
  5  8  1  0  0  0  0
  6 19  1  0  0  0  0
  7  4  1  0  0  0  0
  7 21  1  0  0  0  0
  8  6  1  0  0  0  0
  8  7  1  0  0  0  0
 10  2  1  0  0  0  0
 12  2  1  0  0  0  0
 14  3  1  0  0  0  0
 17  5  1  0  0  0  0
 18  6  1  0  0  0  0
 20  7  1  0  0  0  0
M  END
>  <HBA>
1

>  <HBD>
0

>  <TPSA>
3.24

>  <cid>
20010

>  <dipole>
0.35

>  <excitation_energy_1>
5.45

>  <excitation_energy_2>
5.718

>  <excitation_energy_3>
5.754

>  <excitation_energy_4>
5.952

>  <homo_energy>
-5.829

>  <homo_lumo_gap>
7.132

>  <logP>
0.961

>  <lumo_energy>
1.303

>  <melting_point>
-7.24

>  <molecular_refractivity>
36.82

>  <oscillator_strength_1>
0.0158

>  <oscillator_strength_2>
0.0187

>  <oscillator_strength_3>
0.0426

>  <oscillator_strength_4>
0.0258

>  <open_babel_can_smiles>
CCN(CC#C)CC

>  <mulliken_charges>
21
1   -0.487527
2   -0.448876
3   -0.441581
4   0.328666
5   -0.124986
6   -0.119956
7   -0.296114
8   -0.363148
9   0.185656
10   0.142597
11   0.146309
12   0.154535
13   0.140834
14   0.14632
15   0.15361
16   0.131285
17   0.140029
18   0.12797
19   0.136878
20   0.174503
21   0.172994

>  <lowdin_charges>
21
1   -0.261278
2   -0.450386
3   -0.446033
4   -0.055994
5   -0.200624
6   -0.196092
7   -0.192423
8   -0.184162
9   0.2032
10   0.153207
11   0.148224
12   0.153096
13   0.149277
14   0.147018
15   0.153205
16   0.127646
17   0.147437
18   0.127942
19   0.144915
20   0.164825
21   0.167001

$$$$

