PCCDB-ID:  10264
public computational chemistry database (PCCDB) project, http://pccdb.org

 21 20  0  0  1  0  0  0  0  0999 V2000
   -2.0346    0.7146    0.7110 C   0  0  0  0  0  0  0  0  0  0  0  0
   -0.5458    0.8419    1.0060 C   0  0  1  0  0  0  0  0  0  0  0  0
    0.0683    2.2465    1.0318 C   0  0  1  0  0  0  0  0  0  0  0  0
   -0.6218    3.2428    1.9896 C   0  0  1  0  0  0  0  0  0  0  0  0
    0.1000    4.6062    2.0643 C   0  0  0  0  0  0  0  0  0  0  0  0
   -2.2879   -0.6956    0.7947 O   0  0  0  0  0  0  0  0  0  0  0  0
   -0.2588    0.2809    2.2902 O   0  0  0  0  0  0  0  0  0  0  0  0
    1.4469    2.0832    1.4244 O   0  0  0  0  0  0  0  0  0  0  0  0
   -1.9478    3.4733    1.5750 O   0  0  0  0  0  0  0  0  0  0  0  0
   -0.5541    5.6297    2.0270 O   0  0  0  0  0  0  0  0  0  0  0  0
    1.4225    4.6010    2.2073 O   0  0  0  0  0  0  0  0  0  0  0  0
   -2.2648    1.1052   -0.2900 H   0  0  0  0  0  0  0  0  0  0  0  0
   -2.6209    1.2720    1.4460 H   0  0  0  0  0  0  0  0  0  0  0  0
   -0.0024    0.2737    0.2337 H   0  0  0  0  0  0  0  0  0  0  0  0
    0.0702    2.6682    0.0217 H   0  0  0  0  0  0  0  0  0  0  0  0
   -0.5962    2.8050    3.0019 H   0  0  0  0  0  0  0  0  0  0  0  0
   -3.2435   -0.8264    0.8795 H   0  0  0  0  0  0  0  0  0  0  0  0
   -0.7313   -0.5698    2.3112 H   0  0  0  0  0  0  0  0  0  0  0  0
    1.4405    1.3591    2.0810 H   0  0  0  0  0  0  0  0  0  0  0  0
   -2.0572    4.4461    1.6344 H   0  0  0  0  0  0  0  0  0  0  0  0
    1.7407    3.6730    2.0616 H   0  0  0  0  0  0  0  0  0  0  0  0
  1  6  1  0  0  0  0
  1  2  1  0  0  0  0
  1 13  1  0  0  0  0
  2 14  1  6  0  0  0
  2  3  1  0  0  0  0
  2  7  1  0  0  0  0
  3 15  1  6  0  0  0
  3  8  1  0  0  0  0
  3  4  1  0  0  0  0
  4  5  1  0  0  0  0
  4 16  1  1  0  0  0
  5 11  1  0  0  0  0
  6 17  1  0  0  0  0
  7 18  1  0  0  0  0
  8 19  1  0  0  0  0
  9 20  1  0  0  0  0
  9  4  1  0  0  0  0
 10  5  2  0  0  0  0
 12  1  1  0  0  0  0
 21 11  1  0  0  0  0
M  END
>  <HBA>
6

>  <HBD>
5

>  <TPSA>
118.22

>  <cid>
10264

>  <dipole>
4.7

>  <excitation_energy_1>
5.924

>  <excitation_energy_2>
6.565

>  <excitation_energy_3>
6.708

>  <excitation_energy_4>
6.861

>  <homo_energy>
-7.472

>  <homo_lumo_gap>
7.625

>  <logP>
-2.854

>  <lumo_energy>
0.152

>  <melting_point>
125.73

>  <molecular_refractivity>
32.57

>  <oscillator_strength_1>
0.0006

>  <oscillator_strength_2>
0.0153

>  <oscillator_strength_3>
0.005

>  <oscillator_strength_4>
0.0156

>  <open_babel_can_smiles>
OC[C@@H]([C@@H]([C@@H](C(=O)O)O)O)O

>  <mulliken_charges>
21
1   -0.063135
2   0.108596
3   0.106986
4   0.0342
5   0.583964
6   -0.640543
7   -0.6707
8   -0.666355
9   -0.653082
10   -0.477729
11   -0.5776
12   0.138603
13   0.176515
14   0.148565
15   0.161468
16   0.164657
17   0.406455
18   0.421972
19   0.433254
20   0.419586
21   0.444324

>  <lowdin_charges>
21
1   -0.15707
2   -0.020112
3   -0.016797
4   -0.059636
5   0.179175
6   -0.478713
7   -0.477496
8   -0.457654
9   -0.458127
10   -0.26369
11   -0.341853
12   0.142824
13   0.16005
14   0.146664
15   0.15883
16   0.154672
17   0.351824
18   0.35825
19   0.361001
20   0.353556
21   0.3643

$$$$

