PCCDB-ID:  34043
public computational chemistry database (PCCDB) project, http://pccdb.org

 21 21  0  0  1  0  0  0  0  0999 V2000
    2.6129   -1.7786    1.5182 C   0  0  0  0  0  0  0  0  0  0  0  0
    3.8103   -1.6229    1.5088 C   0  0  0  0  0  0  0  0  0  0  0  0
    6.4992   -4.1333   -1.5649 C   0  0  0  0  0  0  0  0  0  0  0  0
    7.7381   -4.3659   -0.6935 C   0  0  0  0  0  0  0  0  0  0  0  0
    5.2683   -1.4387    1.4791 C   0  0  0  0  0  0  0  0  0  0  0  0
    5.6337   -1.8100   -0.8458 C   0  0  0  0  0  0  0  0  0  0  0  0
    6.5165   -2.6031   -1.7989 C   0  0  1  0  0  0  0  0  0  0  0  0
    8.6109   -3.1416   -0.9450 C   0  0  0  0  0  0  0  0  0  0  0  0
    9.7565   -2.9610   -0.6277 O   0  0  0  0  0  0  0  0  0  0  0  0
    5.9183   -2.2161    0.4834 O   0  0  0  0  0  0  0  0  0  0  0  0
    7.8919   -2.2020   -1.6312 O   0  0  0  0  0  0  0  0  0  0  0  0
    1.5548   -1.9133    1.5318 H   0  0  0  0  0  0  0  0  0  0  0  0
    5.5704   -4.4569   -1.0895 H   0  0  0  0  0  0  0  0  0  0  0  0
    6.5946   -4.6560   -2.5218 H   0  0  0  0  0  0  0  0  0  0  0  0
    8.2972   -5.2730   -0.9352 H   0  0  0  0  0  0  0  0  0  0  0  0
    7.4924   -4.3899    0.3724 H   0  0  0  0  0  0  0  0  0  0  0  0
    5.7061   -1.7558    2.4315 H   0  0  0  0  0  0  0  0  0  0  0  0
    5.5050   -0.3710    1.3433 H   0  0  0  0  0  0  0  0  0  0  0  0
    4.5764   -1.9934   -1.0933 H   0  0  0  0  0  0  0  0  0  0  0  0
    5.8327   -0.7343   -0.9708 H   0  0  0  0  0  0  0  0  0  0  0  0
    6.2337   -2.3348   -2.8221 H   0  0  0  0  0  0  0  0  0  0  0  0
  1 12  1  0  0  0  0
  2  1  3  0  0  0  0
  3 13  1  0  0  0  0
  3  4  1  0  0  0  0
  4 16  1  0  0  0  0
  5  2  1  0  0  0  0
  5 17  1  0  0  0  0
  6 10  1  0  0  0  0
  7 21  1  6  0  0  0
  7 11  1  0  0  0  0
  7  3  1  0  0  0  0
  7  6  1  0  0  0  0
  8  4  1  0  0  0  0
  8  9  2  0  0  0  0
 10  5  1  0  0  0  0
 11  8  1  0  0  0  0
 14  3  1  0  0  0  0
 15  4  1  0  0  0  0
 18  5  1  0  0  0  0
 19  6  1  0  0  0  0
 20  6  1  0  0  0  0
M  END
>  <HBA>
3

>  <HBD>
0

>  <TPSA>
35.53

>  <cid>
34043

>  <dipole>
4.85

>  <excitation_energy_1>
5.703

>  <excitation_energy_2>
6.171

>  <excitation_energy_3>
6.525

>  <excitation_energy_4>
6.611

>  <homo_energy>
-7.045

>  <homo_lumo_gap>
7.546

>  <logP>
0.342

>  <lumo_energy>
0.501

>  <melting_point>
15.53

>  <molecular_refractivity>
38.99

>  <oscillator_strength_1>
0.0003

>  <oscillator_strength_2>
0.0001

>  <oscillator_strength_3>
0.0037

>  <oscillator_strength_4>
0.0111

>  <open_babel_can_smiles>
C([C@@H]1CCC(=O)O1)OCC#C

>  <mulliken_charges>
21
1   -0.465598
2   0.307408
3   -0.307666
4   -0.376165
5   -0.157939
6   -0.02372
7   0.095428
8   0.619358
9   -0.458153
10   -0.4676
11   -0.452939
12   0.196941
13   0.166858
14   0.157638
15   0.178157
16   0.198558
17   0.187134
18   0.165558
19   0.14182
20   0.143429
21   0.151494

>  <lowdin_charges>
21
1   -0.23429
2   -0.060113
3   -0.290004
4   -0.312083
5   -0.112313
6   -0.139489
7   -0.003208
8   0.193496
9   -0.23723
10   -0.262552
11   -0.190978
12   0.20694
13   0.164147
14   0.155585
15   0.173253
16   0.181378
17   0.175837
18   0.154777
19   0.141447
20   0.141428
21   0.153973

$$$$

