PCCDB-ID:  13367
public computational chemistry database (PCCDB) project, http://pccdb.org

 10  9  0  0  0  0  0  0  0  0999 V2000
    0.9284   -0.2880   -0.0030 C   0  0  0  0  0  0  0  0  0  0  0  0
    2.2248    0.0092    0.1034 C   0  0  0  0  0  0  0  0  0  0  0  0
    2.9240    1.0227   -0.7484 C   0  0  0  0  0  0  0  0  0  0  0  0
    3.6471    2.4202    0.2336 S   0  0  0  0  0  0  0  0  0  0  0  0
    0.4586   -1.0301    0.6363 H   0  0  0  0  0  0  0  0  0  0  0  0
    0.2885    0.1964   -0.7380 H   0  0  0  0  0  0  0  0  0  0  0  0
    2.8394   -0.4851    0.8547 H   0  0  0  0  0  0  0  0  0  0  0  0
    2.2603    1.4235   -1.5198 H   0  0  0  0  0  0  0  0  0  0  0  0
    3.7957    0.5868   -1.2497 H   0  0  0  0  0  0  0  0  0  0  0  0
    2.4905    2.8065    0.8139 H   0  0  0  0  0  0  0  0  0  0  0  0
  1  2  2  0  0  0  0
  1  5  1  0  0  0  0
  2  7  1  0  0  0  0
  3  2  1  0  0  0  0
  3  4  1  0  0  0  0
  4 10  1  0  0  0  0
  6  1  1  0  0  0  0
  8  3  1  0  0  0  0
  9  3  1  0  0  0  0
M  END
>  <HBA>
1

>  <HBD>
1

>  <TPSA>
38.8

>  <cid>
13367

>  <dipole>
1.61

>  <excitation_energy_1>
5.121

>  <excitation_energy_2>
5.508

>  <excitation_energy_3>
6.18

>  <excitation_energy_4>
6.381

>  <homo_energy>
-6.463

>  <homo_lumo_gap>
6.457

>  <logP>
1.102

>  <lumo_energy>
-0.005

>  <melting_point>
-24.91

>  <molecular_refractivity>
23.99

>  <oscillator_strength_1>
0.0138

>  <oscillator_strength_2>
0.0501

>  <oscillator_strength_3>
0.014

>  <oscillator_strength_4>
0.0419

>  <open_babel_can_smiles>
SCC=C

>  <mulliken_charges>
10
1   -0.335091
2   -0.036754
3   -0.453457
4   -0.081115
5   0.14815
6   0.140479
7   0.146409
8   0.181896
9   0.189013
10   0.100469

>  <lowdin_charges>
10
1   -0.337559
2   -0.15466
3   -0.364088
4   -0.086259
5   0.164371
6   0.157655
7   0.162358
8   0.165102
9   0.175856
10   0.117223

$$$$

