PCCDB-ID:  7497
public computational chemistry database (PCCDB) project, http://pccdb.org

 23 22  0  0  0  0  0  0  0  0999 V2000
    2.8728    1.2398   -0.8167 C   0  0  0  0  0  0  0  0  0  0  0  0
    1.5746   -2.8912   -0.2865 C   0  0  0  0  0  0  0  0  0  0  0  0
    2.5338   -0.1182   -1.4349 C   0  0  0  0  0  0  0  0  0  0  0  0
    2.7594   -2.5412   -1.1914 C   0  0  0  0  0  0  0  0  0  0  0  0
    4.7688   -1.1397   -1.1589 C   0  0  0  0  0  0  0  0  0  0  0  0
    5.2334   -1.2468   -2.6241 C   0  0  0  0  0  0  0  0  0  0  0  0
    3.3329   -1.2229   -0.8965 N   0  0  0  0  0  0  0  0  0  0  0  0
    6.6555   -1.2380   -2.7175 O   0  0  0  0  0  0  0  0  0  0  0  0
    2.1550    1.9953   -1.1553 H   0  0  0  0  0  0  0  0  0  0  0  0
    3.8712    1.5919   -1.0983 H   0  0  0  0  0  0  0  0  0  0  0  0
    2.8282    1.1826    0.2761 H   0  0  0  0  0  0  0  0  0  0  0  0
    1.2154   -3.9034   -0.5069 H   0  0  0  0  0  0  0  0  0  0  0  0
    0.7300   -2.2076   -0.4253 H   0  0  0  0  0  0  0  0  0  0  0  0
    1.8744   -2.8472    0.7655 H   0  0  0  0  0  0  0  0  0  0  0  0
    2.5965   -0.0488   -2.5384 H   0  0  0  0  0  0  0  0  0  0  0  0
    1.4856   -0.3406   -1.2096 H   0  0  0  0  0  0  0  0  0  0  0  0
    2.4546   -2.6369   -2.2513 H   0  0  0  0  0  0  0  0  0  0  0  0
    3.5476   -3.2863   -1.0315 H   0  0  0  0  0  0  0  0  0  0  0  0
    5.1453   -0.1949   -0.7430 H   0  0  0  0  0  0  0  0  0  0  0  0
    5.2659   -1.9386   -0.5951 H   0  0  0  0  0  0  0  0  0  0  0  0
    4.7913   -0.4477   -3.2394 H   0  0  0  0  0  0  0  0  0  0  0  0
    4.9178   -2.2016   -3.0565 H   0  0  0  0  0  0  0  0  0  0  0  0
    6.9636   -0.3822   -2.3803 H   0  0  0  0  0  0  0  0  0  0  0  0
  1 11  1  0  0  0  0
  2 14  1  0  0  0  0
  3 16  1  0  0  0  0
  3  7  1  0  0  0  0
  3  1  1  0  0  0  0
  4 18  1  0  0  0  0
  4  7  1  0  0  0  0
  4  2  1  0  0  0  0
  5  7  1  0  0  0  0
  5 19  1  0  0  0  0
  5 20  1  0  0  0  0
  6  5  1  0  0  0  0
  8  6  1  0  0  0  0
  8 23  1  0  0  0  0
  9  1  1  0  0  0  0
 10  1  1  0  0  0  0
 12  2  1  0  0  0  0
 13  2  1  0  0  0  0
 15  3  1  0  0  0  0
 17  4  1  0  0  0  0
 21  6  1  0  0  0  0
 22  6  1  0  0  0  0
M  END
>  <HBA>
2

>  <HBD>
1

>  <TPSA>
23.47

>  <cid>
7497

>  <dipole>
1.47

>  <excitation_energy_1>
4.853

>  <excitation_energy_2>
5.239

>  <excitation_energy_3>
5.475

>  <excitation_energy_4>
5.53

>  <homo_energy>
-5.448

>  <homo_lumo_gap>
7.328

>  <logP>
0.321

>  <lumo_energy>
1.88

>  <melting_point>
-5.31

>  <molecular_refractivity>
35.01

>  <oscillator_strength_1>
0.0059

>  <oscillator_strength_2>
0.0159

>  <oscillator_strength_3>
0.0223

>  <oscillator_strength_4>
0.0123

>  <open_babel_can_smiles>
OCCN(CC)CC

>  <mulliken_charges>
23
1   -0.450742
2   -0.439759
3   -0.116395
4   -0.120146
5   -0.16695
6   -0.042556
7   -0.375151
8   -0.61415
9   0.143497
10   0.140696
11   0.157656
12   0.139118
13   0.14538
14   0.154113
15   0.113517
16   0.140937
17   0.115554
18   0.139039
19   0.126174
20   0.150729
21   0.123444
22   0.149435
23   0.38656

>  <lowdin_charges>
23
1   -0.448816
2   -0.44812
3   -0.195124
4   -0.196031
5   -0.22787
6   -0.154197
7   -0.190683
8   -0.467241
9   0.154195
10   0.144108
11   0.153791
12   0.149415
13   0.147712
14   0.152705
15   0.113523
16   0.144877
17   0.118184
18   0.146775
19   0.137206
20   0.150493
21   0.127777
22   0.1476
23   0.33972

$$$$

