PCCDB-ID:  69407
public computational chemistry database (PCCDB) project, http://pccdb.org

 23 22  0  0  0  0  0  0  0  0999 V2000
    1.5207    1.2974   -1.1416 C   0  0  0  0  0  0  0  0  0  0  0  0
    4.0002    1.7445   -1.3161 C   0  0  0  0  0  0  0  0  0  0  0  0
    3.0759    0.2288    0.5322 C   0  0  0  0  0  0  0  0  0  0  0  0
    4.3680   -0.5405    0.8194 C   0  0  0  0  0  0  0  0  0  0  0  0
    2.9264    0.7184   -0.9213 C   0  0  0  0  0  0  0  0  0  0  0  0
    5.4156   -1.7811    2.6769 C   0  0  0  0  0  0  0  0  0  0  0  0
    6.3940   -2.3416    2.0729 N   0  0  0  0  0  0  0  0  0  0  0  0
    4.3537   -1.0619    2.1791 N   0  0  0  0  0  0  0  0  0  0  0  0
    5.3124   -1.8893    4.0307 O   0  0  0  0  0  0  0  0  0  0  0  0
    1.3835    1.6166   -2.1811 H   0  0  0  0  0  0  0  0  0  0  0  0
    1.3526    2.1729   -0.5008 H   0  0  0  0  0  0  0  0  0  0  0  0
    0.7428    0.5603   -0.9100 H   0  0  0  0  0  0  0  0  0  0  0  0
    3.8501    2.0855   -2.3471 H   0  0  0  0  0  0  0  0  0  0  0  0
    5.0135    1.3337   -1.2512 H   0  0  0  0  0  0  0  0  0  0  0  0
    3.9548    2.6279   -0.6656 H   0  0  0  0  0  0  0  0  0  0  0  0
    3.0114    1.0945    1.2099 H   0  0  0  0  0  0  0  0  0  0  0  0
    2.2303   -0.4265    0.7798 H   0  0  0  0  0  0  0  0  0  0  0  0
    5.2498    0.0968    0.6503 H   0  0  0  0  0  0  0  0  0  0  0  0
    4.4462   -1.3883    0.1254 H   0  0  0  0  0  0  0  0  0  0  0  0
    3.0352   -0.1572   -1.5797 H   0  0  0  0  0  0  0  0  0  0  0  0
    6.3664   -2.1858    1.0668 H   0  0  0  0  0  0  0  0  0  0  0  0
    3.8730   -0.5012    2.8715 H   0  0  0  0  0  0  0  0  0  0  0  0
    6.0777   -2.4304    4.2926 H   0  0  0  0  0  0  0  0  0  0  0  0
  1  5  1  0  0  0  0
  1 12  1  0  0  0  0
  1 11  1  0  0  0  0
  2 14  1  0  0  0  0
  2  5  1  0  0  0  0
  2 15  1  0  0  0  0
  3 17  1  0  0  0  0
  3  4  1  0  0  0  0
  3 16  1  0  0  0  0
  4  8  1  0  0  0  0
  5  3  1  0  0  0  0
  6  9  1  0  0  0  0
  7  6  2  0  0  0  0
  8  6  1  0  0  0  0
  8 22  1  0  0  0  0
  9 23  1  0  0  0  0
 10  1  1  0  0  0  0
 13  2  1  0  0  0  0
 18  4  1  0  0  0  0
 19  4  1  0  0  0  0
 20  5  1  0  0  0  0
 21  7  1  0  0  0  0
M  END
>  <HBA>
3

>  <HBD>
2

>  <TPSA>
55.12

>  <cid>
69407

>  <dipole>
2.84

>  <excitation_energy_1>
5.7

>  <excitation_energy_2>
6.047

>  <excitation_energy_3>
6.19

>  <excitation_energy_4>
6.508

>  <homo_energy>
-6.182

>  <homo_lumo_gap>
7.949

>  <logP>
1.792

>  <lumo_energy>
1.766

>  <melting_point>
86.59

>  <molecular_refractivity>
37.05

>  <oscillator_strength_1>
0.0069

>  <oscillator_strength_2>
0.0152

>  <oscillator_strength_3>
0.0045

>  <oscillator_strength_4>
0.0189

>  <open_babel_can_smiles>
CC(CCNC(=N)O)C

>  <mulliken_charges>
23
1   -0.442903
2   -0.447899
3   -0.283705
4   -0.117237
5   -0.071046
6   0.645579
7   -0.668605
8   -0.604222
9   -0.611129
10   0.144559
11   0.141093
12   0.14377
13   0.14598
14   0.146878
15   0.141476
16   0.130549
17   0.148951
18   0.148141
19   0.150555
20   0.126771
21   0.282529
22   0.331208
23   0.418707

>  <lowdin_charges>
23
1   -0.443579
2   -0.44612
3   -0.282236
4   -0.196514
5   -0.119193
6   0.161774
7   -0.495874
8   -0.30556
9   -0.388822
10   0.149506
11   0.147201
12   0.150199
13   0.150755
14   0.148233
15   0.147295
16   0.139773
17   0.151101
18   0.137726
19   0.146959
20   0.137969
21   0.254841
22   0.287303
23   0.367264

$$$$

