PCCDB-ID:  40058
public computational chemistry database (PCCDB) project, http://pccdb.org

 31 30  0  0  1  0  0  0  0  0999 V2000
    4.4888   -2.1128   -3.2599 C   0  0  0  0  0  0  0  0  0  0  0  0
    2.8966   -3.1249   -1.5613 C   0  0  0  0  0  0  0  0  0  0  0  0
    6.7849    0.0530    1.7917 C   0  0  0  0  0  0  0  0  0  0  0  0
    4.1674   -1.1848    0.5471 C   0  0  0  0  0  0  0  0  0  0  0  0
    9.0100   -2.1120    2.1784 C   0  0  0  0  0  0  0  0  0  0  0  0
    4.5247   -1.3022   -0.9132 C   0  0  0  0  0  0  0  0  0  0  0  0
    5.1583   -1.8942    1.5005 C   0  0  0  0  0  0  0  0  0  0  0  0
    7.4894   -2.3436    2.3227 C   0  0  0  0  0  0  0  0  0  0  0  0
    9.7940   -3.0504    2.9871 C   0  0  0  0  0  0  0  0  0  0  0  0
    3.9963   -2.1267   -1.8319 C   0  0  0  0  0  0  0  0  0  0  0  0
    6.6290   -1.4313    1.4251 C   0  0  2  0  0  0  0  0  0  0  0  0
   10.3976   -3.8019    3.6343 N   0  0  0  0  0  0  0  0  0  0  0  0
    4.8782   -3.0975   -3.5548 H   0  0  0  0  0  0  0  0  0  0  0  0
    5.2829   -1.3748   -3.4121 H   0  0  0  0  0  0  0  0  0  0  0  0
    3.6718   -1.8818   -3.9580 H   0  0  0  0  0  0  0  0  0  0  0  0
    3.2409   -4.1457   -1.7781 H   0  0  0  0  0  0  0  0  0  0  0  0
    2.0363   -2.9430   -2.2203 H   0  0  0  0  0  0  0  0  0  0  0  0
    2.5393   -3.1071   -0.5291 H   0  0  0  0  0  0  0  0  0  0  0  0
    6.1858    0.6938    1.1367 H   0  0  0  0  0  0  0  0  0  0  0  0
    7.8228    0.3931    1.7047 H   0  0  0  0  0  0  0  0  0  0  0  0
    6.4584    0.2357    2.8240 H   0  0  0  0  0  0  0  0  0  0  0  0
    3.1705   -1.5971    0.7380 H   0  0  0  0  0  0  0  0  0  0  0  0
    4.1030   -0.1210    0.8135 H   0  0  0  0  0  0  0  0  0  0  0  0
    9.2846   -1.0943    2.4780 H   0  0  0  0  0  0  0  0  0  0  0  0
    9.3121   -2.2249    1.1289 H   0  0  0  0  0  0  0  0  0  0  0  0
    5.3206   -0.6355   -1.2492 H   0  0  0  0  0  0  0  0  0  0  0  0
    5.1216   -2.9709    1.2864 H   0  0  0  0  0  0  0  0  0  0  0  0
    4.8009   -1.7696    2.5336 H   0  0  0  0  0  0  0  0  0  0  0  0
    7.2059   -2.2051    3.3744 H   0  0  0  0  0  0  0  0  0  0  0  0
    7.2784   -3.3917    2.0785 H   0  0  0  0  0  0  0  0  0  0  0  0
    6.9707   -1.5695    0.3882 H   0  0  0  0  0  0  0  0  0  0  0  0
  1 10  1  0  0  0  0
  2 18  1  0  0  0  0
  3 21  1  0  0  0  0
  4 22  1  0  0  0  0
  4 23  1  0  0  0  0
  4  7  1  0  0  0  0
  5  8  1  0  0  0  0
  5 24  1  0  0  0  0
  5  9  1  0  0  0  0
  6  4  1  0  0  0  0
  7 28  1  0  0  0  0
  8 29  1  0  0  0  0
  9 12  3  0  0  0  0
 10  2  1  0  0  0  0
 10  6  2  0  0  0  0
 11 31  1  6  0  0  0
 11  7  1  0  0  0  0
 11  3  1  0  0  0  0
 11  8  1  0  0  0  0
 13  1  1  0  0  0  0
 14  1  1  0  0  0  0
 15  1  1  0  0  0  0
 16  2  1  0  0  0  0
 17  2  1  0  0  0  0
 19  3  1  0  0  0  0
 20  3  1  0  0  0  0
 25  5  1  0  0  0  0
 26  6  1  0  0  0  0
 27  7  1  0  0  0  0
 30  8  1  0  0  0  0
M  END
>  <HBA>
1

>  <HBD>
0

>  <TPSA>
23.79

>  <cid>
40058

>  <dipole>
4.42

>  <excitation_energy_1>
5.659

>  <excitation_energy_2>
6.033

>  <excitation_energy_3>
6.147

>  <excitation_energy_4>
6.21

>  <homo_energy>
-6.389

>  <homo_lumo_gap>
6.999

>  <logP>
3.673

>  <lumo_energy>
0.61

>  <melting_point>
17.23

>  <molecular_refractivity>
54.27

>  <oscillator_strength_1>
0.0171

>  <oscillator_strength_2>
0.0126

>  <oscillator_strength_3>
0.0636

>  <oscillator_strength_4>
0.046

>  <open_babel_can_smiles>
N#CCC[C@@H](CCC=C(C)C)C

>  <mulliken_charges>
31
1   -0.505847
2   -0.512985
3   -0.461652
4   -0.314621
5   -0.34673
6   -0.165294
7   -0.251304
8   -0.262921
9   0.347151
10   0.188625
11   -0.072241
12   -0.475524
13   0.150339
14   0.150277
15   0.151129
16   0.15427
17   0.153424
18   0.154347
19   0.154079
20   0.143347
21   0.145281
22   0.141156
23   0.140615
24   0.193376
25   0.189566
26   0.111412
27   0.13523
28   0.128109
29   0.15238
30   0.155886
31   0.129121

>  <lowdin_charges>
31
1   -0.440682
2   -0.444101
3   -0.449632
4   -0.276398
5   -0.275904
6   -0.198213
7   -0.269297
8   -0.263236
9   -0.015514
10   -0.005825
11   -0.12592
12   -0.133195
13   0.152861
14   0.154499
15   0.154353
16   0.155912
17   0.156496
18   0.154701
19   0.155708
20   0.146803
21   0.148068
22   0.149525
23   0.145564
24   0.178613
25   0.17711
26   0.144715
27   0.141951
28   0.139115
29   0.150209
30   0.153564
31   0.13815

$$$$

