PCCDB-ID:  3765
public computational chemistry database (PCCDB) project, http://pccdb.org

 18 18  0  0  0  0  0  0  0  0999 V2000
   -0.3784   -1.3569   -0.0487 C   0  0  0  0  0  0  0  0  0  0  0  0
   -1.0240    1.0469    0.0409 C   0  0  0  0  0  0  0  0  0  0  0  0
    1.0852   -1.0149   -0.0095 C   0  0  0  0  0  0  0  0  0  0  0  0
    0.4316    1.2920   -0.3626 C   0  0  0  0  0  0  0  0  0  0  0  0
   -1.3478   -0.4287    0.0051 C   0  0  0  0  0  0  0  0  0  0  0  0
   -2.7993   -0.7892   -0.0841 C   0  0  0  0  0  0  0  0  0  0  0  0
    1.2920    0.3733    0.3871 N   0  0  0  0  0  0  0  0  0  0  0  0
   -3.6388   -0.0443   -0.5343 O   0  0  0  0  0  0  0  0  0  0  0  0
   -3.1566   -2.0257    0.3635 O   0  0  0  0  0  0  0  0  0  0  0  0
   -0.6146   -2.4124   -0.1806 H   0  0  0  0  0  0  0  0  0  0  0  0
   -1.7136    1.5729   -0.6279 H   0  0  0  0  0  0  0  0  0  0  0  0
   -1.2036    1.4379    1.0514 H   0  0  0  0  0  0  0  0  0  0  0  0
    1.5149   -1.2644   -1.0030 H   0  0  0  0  0  0  0  0  0  0  0  0
    1.5911   -1.6712    0.7128 H   0  0  0  0  0  0  0  0  0  0  0  0
    0.7245    2.3189   -0.1213 H   0  0  0  0  0  0  0  0  0  0  0  0
    0.5279    1.1694   -1.4587 H   0  0  0  0  0  0  0  0  0  0  0  0
    2.2701    0.6217    0.2630 H   0  0  0  0  0  0  0  0  0  0  0  0
   -2.4089   -2.4190    0.8425 H   0  0  0  0  0  0  0  0  0  0  0  0
  1  3  1  0  0  0  0
  1  5  2  0  0  0  0
  2 12  1  0  0  0  0
  3  7  1  0  0  0  0
  3 14  1  0  0  0  0
  4 15  1  0  0  0  0
  4  2  1  0  0  0  0
  4  7  1  0  0  0  0
  5  2  1  0  0  0  0
  6  5  1  0  0  0  0
  6  9  1  0  0  0  0
  8  6  2  0  0  0  0
  9 18  1  0  0  0  0
 10  1  1  0  0  0  0
 11  2  1  0  0  0  0
 13  3  1  0  0  0  0
 16  4  1  0  0  0  0
 17  7  1  0  0  0  0
M  END
>  <HBA>
3

>  <HBD>
2

>  <TPSA>
49.33

>  <cid>
3765

>  <dipole>
4.96

>  <excitation_energy_1>
4.359

>  <excitation_energy_2>
4.811

>  <excitation_energy_3>
5.384

>  <excitation_energy_4>
5.795

>  <homo_energy>
-6.348

>  <homo_lumo_gap>
5.293

>  <logP>
0.32

>  <lumo_energy>
-1.056

>  <melting_point>
113.56

>  <molecular_refractivity>
36.86

>  <oscillator_strength_1>
0.0181

>  <oscillator_strength_2>
0.0011

>  <oscillator_strength_3>
0.0026

>  <oscillator_strength_4>
0.1869

>  <open_babel_can_smiles>
OC(=O)C1=CCNCC1

>  <mulliken_charges>
18
1   -0.188885
2   -0.306709
3   -0.154686
4   -0.155463
5   0.073531
6   0.551536
7   -0.552209
8   -0.447584
9   -0.572527
10   0.135676
11   0.179058
12   0.165134
13   0.136886
14   0.15801
15   0.144603
16   0.123771
17   0.303623
18   0.406235

>  <lowdin_charges>
18
1   -0.165291
2   -0.275616
3   -0.200605
4   -0.198564
5   -0.055997
6   0.194945
7   -0.36251
8   -0.241456
9   -0.361361
10   0.155258
11   0.173657
12   0.161404
13   0.133319
14   0.158814
15   0.149675
16   0.119458
17   0.257912
18   0.356956

$$$$

