PCCDB-ID:  31775
public computational chemistry database (PCCDB) project, http://pccdb.org

 23 25  0  0  1  0  0  0  0  0999 V2000
    0.9589    2.6396   -0.0164 C   0  0  0  0  0  0  0  0  0  0  0  0
    1.8701    1.5958   -0.0147 C   0  0  0  0  0  0  0  0  0  0  0  0
   -0.4306    2.4055   -0.0097 C   0  0  0  0  0  0  0  0  0  0  0  0
    2.2171   -0.9091   -0.0237 C   0  0  0  0  0  0  0  0  0  0  0  0
    1.4032    0.2630    0.0120 C   0  0  0  0  0  0  0  0  0  0  0  0
   -0.9147    1.1049    0.0238 C   0  0  0  0  0  0  0  0  0  0  0  0
    0.0102    0.0380    0.0521 C   0  0  0  0  0  0  0  0  0  0  0  0
   -2.3421    0.7687    0.0181 C   0  0  1  0  0  0  0  0  0  0  0  0
   -0.4138   -1.3208    0.0846 C   0  0  0  0  0  0  0  0  0  0  0  0
   -4.5563    1.2153    0.0720 N   0  0  0  0  0  0  0  0  0  0  0  0
    1.7436   -2.1349   -0.0506 N   0  0  0  0  0  0  0  0  0  0  0  0
   -3.2358    1.6996    0.0571 N   0  0  0  0  0  0  0  0  0  0  0  0
    0.4028   -2.3570   -0.0048 N   0  0  0  0  0  0  0  0  0  0  0  0
   -2.7211   -0.5852   -0.0607 N   0  0  0  0  0  0  0  0  0  0  0  0
   -1.7596   -1.6005    0.2403 N   0  0  0  0  0  0  0  0  0  0  0  0
    1.3177    3.6649   -0.0379 H   0  0  0  0  0  0  0  0  0  0  0  0
    2.9386    1.7913   -0.0395 H   0  0  0  0  0  0  0  0  0  0  0  0
   -1.1327    3.2313   -0.0372 H   0  0  0  0  0  0  0  0  0  0  0  0
    3.3017   -0.8229   -0.0518 H   0  0  0  0  0  0  0  0  0  0  0  0
   -5.1671    2.0226   -0.0113 H   0  0  0  0  0  0  0  0  0  0  0  0
   -4.7301    0.6030   -0.7323 H   0  0  0  0  0  0  0  0  0  0  0  0
   -3.5370   -0.7248    0.5413 H   0  0  0  0  0  0  0  0  0  0  0  0
   -2.0213   -2.4799   -0.1964 H   0  0  0  0  0  0  0  0  0  0  0  0
  1  2  2  0  0  0  0
  1  3  1  0  0  0  0
  2  5  1  0  0  0  0
  3  6  2  0  0  0  0
  4  5  1  0  0  0  0
  5  7  2  0  0  0  0
  6  7  1  0  0  0  0
  7  9  1  0  0  0  0
  8  6  1  0  0  0  0
  8 12  1  6  0  0  0
  9 15  1  0  0  0  0
 11  4  2  0  0  0  0
 11 13  1  0  0  0  0
 12 10  1  0  0  0  0
 13  9  2  0  0  0  0
 14  8  1  0  0  0  0
 14 15  1  0  0  0  0
 14 22  1  0  0  0  0
 16  1  1  0  0  0  0
 17  2  1  0  0  0  0
 18  3  1  0  0  0  0
 19  4  1  0  0  0  0
 20 10  1  0  0  0  0
 21 10  1  0  0  0  0
 23 15  1  0  0  0  0
M  RAD  2   8   2  12   2
M  END
>  <HBA>
5

>  <HBD>
3

>  <TPSA>
92.51

>  <cid>
31775

>  <dipole>
4.17

>  <excitation_energy_1>
3.355

>  <excitation_energy_2>
3.613

>  <excitation_energy_3>
3.791

>  <excitation_energy_4>
3.806

>  <homo_energy>
-5.646

>  <homo_lumo_gap>
3.921

>  <logP>
1.565

>  <lumo_energy>
-1.725

>  <melting_point>
277.25

>  <molecular_refractivity>
56.4

>  <oscillator_strength_1>
0.0157

>  <oscillator_strength_2>
0.006

>  <oscillator_strength_3>
0.1333

>  <oscillator_strength_4>
0.019

>  <open_babel_can_smiles>
N[N][C]1NNc2c3c1cccc3cnn2

>  <mulliken_charges>
23
1   -0.122507
2   -0.198024
3   -0.200287
4   -0.021772
5   0.139315
6   0.148416
7   0.039222
8   0.474139
9   0.470267
10   -0.592505
11   -0.257257
12   -0.398325
13   -0.398585
14   -0.545256
15   -0.504134
16   0.145106
17   0.145982
18   0.166881
19   0.147395
20   0.334543
21   0.315365
22   0.359882
23   0.352139

>  <lowdin_charges>
23
1   -0.137358
2   -0.147276
3   -0.138911
4   -0.128839
5   -0.002515
6   -0.000974
7   -0.030374
8   0.050341
9   0.077089
10   -0.45512
11   -0.086875
12   -0.170506
13   -0.157672
14   -0.248468
15   -0.211703
16   0.165284
17   0.164937
18   0.18063
19   0.161285
20   0.274816
21   0.257393
22   0.2904
23   0.294414

$$$$

