PCCDB-ID:  70365
public computational chemistry database (PCCDB) project, http://pccdb.org

 31 32  0  0  0  0  0  0  0  0999 V2000
    3.4096    3.1325    1.5736 C   0  0  0  0  0  0  0  0  0  0  0  0
    2.2755    2.5895    2.1776 C   0  0  0  0  0  0  0  0  0  0  0  0
    4.1456    2.3620    0.6692 C   0  0  0  0  0  0  0  0  0  0  0  0
    1.8810    1.2834    1.8777 C   0  0  0  0  0  0  0  0  0  0  0  0
    3.7462    1.0607    0.3683 C   0  0  0  0  0  0  0  0  0  0  0  0
    4.0487   -4.0543   -0.2675 C   0  0  0  0  0  0  0  0  0  0  0  0
    5.0220   -3.0103    1.8469 C   0  0  0  0  0  0  0  0  0  0  0  0
    2.8447   -3.1126   -0.0865 C   0  0  0  0  0  0  0  0  0  0  0  0
    3.7568   -2.1432    1.9238 C   0  0  0  0  0  0  0  0  0  0  0  0
    2.1474   -0.8924    0.5997 C   0  0  0  0  0  0  0  0  0  0  0  0
    2.6069    0.5065    0.9687 C   0  0  0  0  0  0  0  0  0  0  0  0
    4.7614   -4.2597    1.0451 C   0  0  0  0  0  0  0  0  0  0  0  0
    5.1428   -5.3734    1.5498 N   0  0  0  0  0  0  0  0  0  0  0  0
    3.2358   -1.8712    0.5814 N   0  0  0  0  0  0  0  0  0  0  0  0
    4.8544   -6.4725    0.7051 O   0  0  0  0  0  0  0  0  0  0  0  0
    3.7211    4.1471    1.8075 H   0  0  0  0  0  0  0  0  0  0  0  0
    1.6999    3.1781    2.8874 H   0  0  0  0  0  0  0  0  0  0  0  0
    5.0321    2.7776    0.1967 H   0  0  0  0  0  0  0  0  0  0  0  0
    0.9988    0.8626    2.3557 H   0  0  0  0  0  0  0  0  0  0  0  0
    4.3202    0.4536   -0.3259 H   0  0  0  0  0  0  0  0  0  0  0  0
    4.7493   -3.5931   -0.9775 H   0  0  0  0  0  0  0  0  0  0  0  0
    3.7267   -5.0099   -0.6855 H   0  0  0  0  0  0  0  0  0  0  0  0
    5.3761   -3.2761    2.8474 H   0  0  0  0  0  0  0  0  0  0  0  0
    5.8092   -2.4244    1.3516 H   0  0  0  0  0  0  0  0  0  0  0  0
    2.0503   -3.6435    0.4763 H   0  0  0  0  0  0  0  0  0  0  0  0
    2.4297   -2.8633   -1.0698 H   0  0  0  0  0  0  0  0  0  0  0  0
    3.9912   -1.1899    2.4064 H   0  0  0  0  0  0  0  0  0  0  0  0
    2.9968   -2.6527    2.5507 H   0  0  0  0  0  0  0  0  0  0  0  0
    1.7187   -0.8707   -0.4116 H   0  0  0  0  0  0  0  0  0  0  0  0
    1.3260   -1.1999    1.2768 H   0  0  0  0  0  0  0  0  0  0  0  0
    5.1779   -7.2155    1.2369 H   0  0  0  0  0  0  0  0  0  0  0  0
  1 16  1  0  0  0  0
  1  2  2  0  0  0  0
  2 17  1  0  0  0  0
  3  1  1  0  0  0  0
  4  2  1  0  0  0  0
  4 19  1  0  0  0  0
  5  3  2  0  0  0  0
  5 11  1  0  0  0  0
  6  8  1  0  0  0  0
  6 12  1  0  0  0  0
  7  9  1  0  0  0  0
  7 23  1  0  0  0  0
  8 25  1  0  0  0  0
  8 14  1  0  0  0  0
  9 27  1  0  0  0  0
  9 28  1  0  0  0  0
 10 11  1  0  0  0  0
 10 30  1  0  0  0  0
 11  4  2  0  0  0  0
 12 13  2  0  0  0  0
 12  7  1  0  0  0  0
 14 10  1  0  0  0  0
 14  9  1  0  0  0  0
 15 31  1  0  0  0  0
 15 13  1  0  0  0  0
 18  3  1  0  0  0  0
 20  5  1  0  0  0  0
 21  6  1  0  0  0  0
 22  6  1  0  0  0  0
 24  7  1  0  0  0  0
 26  8  1  0  0  0  0
 29 10  1  0  0  0  0
M  END
>  <HBA>
3

>  <HBD>
1

>  <TPSA>
35.83

>  <cid>
70365

>  <dipole>
0.78

>  <excitation_energy_1>
4.924

>  <excitation_energy_2>
5.095

>  <excitation_energy_3>
5.175

>  <excitation_energy_4>
5.332

>  <homo_energy>
-5.965

>  <homo_lumo_gap>
5.927

>  <logP>
2.05

>  <lumo_energy>
-0.038

>  <melting_point>
100.81

>  <molecular_refractivity>
64.55

>  <oscillator_strength_1>
0.0001

>  <oscillator_strength_2>
0.0093

>  <oscillator_strength_3>
0.0056

>  <oscillator_strength_4>
0.0025

>  <open_babel_can_smiles>
ON=C1CCN(CC1)Cc1ccccc1

>  <mulliken_charges>
31
1   -0.129167
2   -0.128517
3   -0.131089
4   -0.18579
5   -0.163095
6   -0.323926
7   -0.313884
8   -0.127628
9   -0.135478
10   -0.190657
11   0.140811
12   0.327351
13   -0.251856
14   -0.395513
15   -0.517219
16   0.128029
17   0.128415
18   0.128732
19   0.123474
20   0.136883
21   0.161283
22   0.179238
23   0.158663
24   0.157446
25   0.1211
26   0.141516
27   0.158433
28   0.117724
29   0.152044
30   0.119002
31   0.413676

>  <lowdin_charges>
31
1   -0.158553
2   -0.157849
3   -0.155836
4   -0.168948
5   -0.1605
6   -0.295897
7   -0.278015
8   -0.197694
9   -0.203496
10   -0.195151
11   -0.014141
12   0.018526
13   -0.077235
14   -0.189302
15   -0.394386
16   0.155983
17   0.158375
18   0.15732
19   0.154755
20   0.163818
21   0.164257
22   0.171817
23   0.162873
24   0.159235
25   0.121807
26   0.147091
27   0.157489
28   0.120941
29   0.153327
30   0.125003
31   0.354386

$$$$

