PCCDB-ID:  23174
public computational chemistry database (PCCDB) project, http://pccdb.org

 20 21  0  0  0  0  0  0  0  0999 V2000
    0.3168    1.0113    0.3112 C   0  0  0  0  0  0  0  0  0  0  0  0
   -1.3366   -4.0898   -1.4428 C   0  0  0  0  0  0  0  0  0  0  0  0
   -1.0582    0.3480   -0.0175 C   0  0  0  0  0  0  0  0  0  0  0  0
    1.0412   -0.3333   -0.0139 C   0  0  0  0  0  0  0  0  0  0  0  0
    0.0350   -3.4377   -1.0793 C   0  0  0  0  0  0  0  0  0  0  0  0
   -2.0642   -2.7556   -1.0838 C   0  0  0  0  0  0  0  0  0  0  0  0
   -0.3174   -0.9460   -0.3369 C   0  0  0  0  0  0  0  0  0  0  0  0
   -0.7067   -2.1469   -0.7489 C   0  0  0  0  0  0  0  0  0  0  0  0
    0.4235    1.3459    1.3471 H   0  0  0  0  0  0  0  0  0  0  0  0
    0.5875    1.8415   -0.3474 H   0  0  0  0  0  0  0  0  0  0  0  0
   -1.6147   -4.9420   -0.8159 H   0  0  0  0  0  0  0  0  0  0  0  0
   -1.4316   -4.3888   -2.4906 H   0  0  0  0  0  0  0  0  0  0  0  0
   -1.5996    0.7963   -0.8603 H   0  0  0  0  0  0  0  0  0  0  0  0
   -1.7545    0.2883    0.8288 H   0  0  0  0  0  0  0  0  0  0  0  0
    1.5679   -0.7897    0.8340 H   0  0  0  0  0  0  0  0  0  0  0  0
    1.7446   -0.2890   -0.8551 H   0  0  0  0  0  0  0  0  0  0  0  0
    0.7492   -3.3664   -1.9094 H   0  0  0  0  0  0  0  0  0  0  0  0
    0.5564   -3.9038   -0.2334 H   0  0  0  0  0  0  0  0  0  0  0  0
   -2.7639   -2.8250   -0.2411 H   0  0  0  0  0  0  0  0  0  0  0  0
   -2.5962   -2.2790   -1.9170 H   0  0  0  0  0  0  0  0  0  0  0  0
  1  9  1  0  0  0  0
  2  6  1  0  0  0  0
  2  5  1  0  0  0  0
  2 11  1  0  0  0  0
  3  1  1  0  0  0  0
  3 14  1  0  0  0  0
  4  1  1  0  0  0  0
  4 15  1  0  0  0  0
  5  8  1  0  0  0  0
  5 18  1  0  0  0  0
  6  8  1  0  0  0  0
  6 19  1  0  0  0  0
  7  3  1  0  0  0  0
  7  4  1  0  0  0  0
  8  7  2  0  0  0  0
 10  1  1  0  0  0  0
 12  2  1  0  0  0  0
 13  3  1  0  0  0  0
 16  4  1  0  0  0  0
 17  5  1  0  0  0  0
 20  6  1  0  0  0  0
M  END
>  <HBA>
0

>  <HBD>
0

>  <TPSA>
0.0

>  <cid>
23174

>  <dipole>
0.01

>  <excitation_energy_1>
5.646

>  <excitation_energy_2>
5.836

>  <excitation_energy_3>
5.985

>  <excitation_energy_4>
6.007

>  <homo_energy>
-5.875

>  <homo_lumo_gap>
6.43

>  <logP>
2.651

>  <lumo_energy>
0.555

>  <melting_point>
33.9

>  <molecular_refractivity>
35.87

>  <oscillator_strength_1>
0.0025

>  <oscillator_strength_2>
0.0

>  <oscillator_strength_3>
0.2917

>  <oscillator_strength_4>
0.0257

>  <open_babel_can_smiles>
C1CC(=C2CCC2)C1

>  <mulliken_charges>
20
1   -0.282931
2   -0.282876
3   -0.326545
4   -0.326579
5   -0.326635
6   -0.326595
7   0.075686
8   0.075712
9   0.1394
10   0.139796
11   0.13938
12   0.139807
13   0.145209
14   0.14537
15   0.145362
16   0.145222
17   0.145212
18   0.145408
19   0.145374
20   0.145223

>  <lowdin_charges>
20
1   -0.280538
2   -0.28025
3   -0.286003
4   -0.286279
5   -0.286061
6   -0.286384
7   -0.03947
8   -0.039493
9   0.144529
10   0.146456
11   0.146166
12   0.14455
13   0.150484
14   0.150189
15   0.150598
16   0.150042
17   0.150074
18   0.150654
19   0.150195
20   0.15054

$$$$

