PCCDB-ID:  41502
public computational chemistry database (PCCDB) project, http://pccdb.org

 31 32  0  0  1  0  0  0  0  0999 V2000
    2.1246   -1.7266   -2.5637 C   0  0  0  0  0  0  0  0  0  0  0  0
    5.6763   -2.6011    4.1561 C   0  0  0  0  0  0  0  0  0  0  0  0
    6.1531    2.3123    2.4230 C   0  0  0  0  0  0  0  0  0  0  0  0
    6.5026    1.7976    3.6883 C   0  0  0  0  0  0  0  0  0  0  0  0
    5.6047    1.4966    1.4409 C   0  0  0  0  0  0  0  0  0  0  0  0
    6.3118    0.4555    3.9985 C   0  0  0  0  0  0  0  0  0  0  0  0
    3.9558   -2.2821   -1.0260 C   0  0  0  0  0  0  0  0  0  0  0  0
    4.9176   -2.0639    1.8105 C   0  0  0  0  0  0  0  0  0  0  0  0
    5.3915    0.1372    1.7279 C   0  0  0  0  0  0  0  0  0  0  0  0
    4.8530   -0.9731    0.9759 C   0  0  0  0  0  0  0  0  0  0  0  0
    5.7536   -0.3619    3.0083 C   0  0  0  0  0  0  0  0  0  0  0  0
    4.3187   -0.9080   -0.4268 C   0  0  1  0  0  0  0  0  0  0  0  0
    3.4826   -2.2402   -2.4048 N   0  0  0  0  0  0  0  0  0  0  0  0
    5.4520   -1.7116    3.0359 N   0  0  0  0  0  0  0  0  0  0  0  0
    5.2432   -0.2316   -1.3054 O   0  0  0  0  0  0  0  0  0  0  0  0
    1.8686   -1.7197   -3.6285 H   0  0  0  0  0  0  0  0  0  0  0  0
    1.9528   -0.7087   -2.1704 H   0  0  0  0  0  0  0  0  0  0  0  0
    1.4222   -2.4012   -2.0589 H   0  0  0  0  0  0  0  0  0  0  0  0
    5.3125   -3.5978    3.8973 H   0  0  0  0  0  0  0  0  0  0  0  0
    5.1378   -2.2539    5.0458 H   0  0  0  0  0  0  0  0  0  0  0  0
    6.7436   -2.6711    4.3991 H   0  0  0  0  0  0  0  0  0  0  0  0
    6.3227    3.3649    2.2130 H   0  0  0  0  0  0  0  0  0  0  0  0
    6.9331    2.4604    4.4341 H   0  0  0  0  0  0  0  0  0  0  0  0
    5.3570    1.8894    0.4598 H   0  0  0  0  0  0  0  0  0  0  0  0
    6.5864    0.0618    4.9732 H   0  0  0  0  0  0  0  0  0  0  0  0
    3.1891   -2.7706   -0.4101 H   0  0  0  0  0  0  0  0  0  0  0  0
    4.8526   -2.9183   -0.9887 H   0  0  0  0  0  0  0  0  0  0  0  0
    4.6121   -3.0872    1.6392 H   0  0  0  0  0  0  0  0  0  0  0  0
    3.4309   -0.2636   -0.4516 H   0  0  0  0  0  0  0  0  0  0  0  0
    4.1282   -1.6490   -2.9272 H   0  0  0  0  0  0  0  0  0  0  0  0
    6.1249   -0.5897   -1.1082 H   0  0  0  0  0  0  0  0  0  0  0  0
  1 13  1  0  0  0  0
  1 17  1  0  0  0  0
  1 18  1  0  0  0  0
  2 21  1  0  0  0  0
  2 20  1  0  0  0  0
  3  4  2  0  0  0  0
  4  6  1  0  0  0  0
  4 23  1  0  0  0  0
  5  9  2  0  0  0  0
  5  3  1  0  0  0  0
  6 25  1  0  0  0  0
  7 27  1  0  0  0  0
  7 12  1  0  0  0  0
  7 26  1  0  0  0  0
  8 14  1  0  0  0  0
  9 11  1  0  0  0  0
 10  9  1  0  0  0  0
 10  8  2  0  0  0  0
 11 14  1  0  0  0  0
 11  6  2  0  0  0  0
 12 29  1  1  0  0  0
 12 10  1  0  0  0  0
 13  7  1  0  0  0  0
 14  2  1  0  0  0  0
 15 31  1  0  0  0  0
 15 12  1  0  0  0  0
 16  1  1  0  0  0  0
 19  2  1  0  0  0  0
 22  3  1  0  0  0  0
 24  5  1  0  0  0  0
 28  8  1  0  0  0  0
 30 13  1  0  0  0  0
M  END
>  <HBA>
3

>  <HBD>
2

>  <TPSA>
37.19

>  <cid>
41502

>  <dipole>
3.31

>  <excitation_energy_1>
4.509

>  <excitation_energy_2>
4.735

>  <excitation_energy_3>
4.815

>  <excitation_energy_4>
4.855

>  <homo_energy>
-5.407

>  <homo_lumo_gap>
5.208

>  <logP>
1.822

>  <lumo_energy>
-0.199

>  <melting_point>
100.13

>  <molecular_refractivity>
61.74

>  <oscillator_strength_1>
0.0831

>  <oscillator_strength_2>
0.0072

>  <oscillator_strength_3>
0.0209

>  <oscillator_strength_4>
0.0244

>  <open_babel_can_smiles>
CNC[C@@H](c1cn(c2c1cccc2)C)O

>  <mulliken_charges>
31
1   -0.306756
2   -0.322291
3   -0.140611
4   -0.149605
5   -0.212933
6   -0.169875
7   -0.147735
8   -0.012584
9   0.069252
10   0.009811
11   0.304888
12   0.054903
13   -0.535254
14   -0.50821
15   -0.62716
16   0.148829
17   0.126511
18   0.144976
19   0.169645
20   0.173192
21   0.172027
22   0.121304
23   0.12221
24   0.144508
25   0.122433
26   0.132545
27   0.126619
28   0.151286
29   0.147131
30   0.304827
31   0.386116

>  <lowdin_charges>
31
1   -0.360157
2   -0.343963
3   -0.173837
4   -0.164449
5   -0.160244
6   -0.192027
7   -0.225278
8   -0.135956
9   -0.032052
10   -0.094274
11   0.025246
12   -0.011088
13   -0.362566
14   -0.027973
15   -0.468453
16   0.149444
17   0.121352
18   0.146037
19   0.166095
20   0.160675
21   0.157384
22   0.153375
23   0.156588
24   0.165641
25   0.155898
26   0.145031
27   0.138052
28   0.163484
29   0.149089
30   0.258653
31   0.340271

$$$$

