PCCDB-ID:  15672
public computational chemistry database (PCCDB) project, http://pccdb.org

 16 15  0  0  0  0  0  0  0  0999 V2000
    0.9459   -0.0160   -0.3053 C   0  0  0  0  0  0  0  0  0  0  0  0
    2.4726    0.0141   -0.1797 C   0  0  0  0  0  0  0  0  0  0  0  0
    2.9960   -0.9885    0.8595 C   0  0  0  0  0  0  0  0  0  0  0  0
    4.5080   -0.9528    0.9698 C   0  0  0  0  0  0  0  0  0  0  0  0
    6.1675   -2.0594    2.1924 C   0  0  0  0  0  0  0  0  0  0  0  0
    7.3066   -2.1986    2.4031 N   0  0  0  0  0  0  0  0  0  0  0  0
    4.8957   -1.9376    1.9911 O   0  0  0  0  0  0  0  0  0  0  0  0
    0.5976    0.7100   -1.0477 H   0  0  0  0  0  0  0  0  0  0  0  0
    0.4652    0.2252    0.6501 H   0  0  0  0  0  0  0  0  0  0  0  0
    0.5932   -1.0068   -0.6149 H   0  0  0  0  0  0  0  0  0  0  0  0
    2.7978    1.0275    0.0929 H   0  0  0  0  0  0  0  0  0  0  0  0
    2.9246   -0.2018   -1.1576 H   0  0  0  0  0  0  0  0  0  0  0  0
    2.6836   -2.0058    0.5923 H   0  0  0  0  0  0  0  0  0  0  0  0
    2.5641   -0.7699    1.8443 H   0  0  0  0  0  0  0  0  0  0  0  0
    4.8769    0.0268    1.2912 H   0  0  0  0  0  0  0  0  0  0  0  0
    4.9991   -1.2294    0.0312 H   0  0  0  0  0  0  0  0  0  0  0  0
  1  2  1  0  0  0  0
  1  9  1  0  0  0  0
  2 11  1  0  0  0  0
  2  3  1  0  0  0  0
  3  4  1  0  0  0  0
  3 14  1  0  0  0  0
  4 15  1  0  0  0  0
  4  7  1  0  0  0  0
  5  6  3  0  0  0  0
  7  5  1  0  0  0  0
  8  1  1  0  0  0  0
 10  1  1  0  0  0  0
 12  2  1  0  0  0  0
 13  3  1  0  0  0  0
 16  4  1  0  0  0  0
M  END
>  <HBA>
2

>  <HBD>
0

>  <TPSA>
33.02

>  <cid>
15672

>  <dipole>
5.18

>  <excitation_energy_1>
6.863

>  <excitation_energy_2>
7.045

>  <excitation_energy_3>
7.626

>  <excitation_energy_4>
7.642

>  <homo_energy>
-7.777

>  <homo_lumo_gap>
8.895

>  <logP>
1.284

>  <lumo_energy>
1.118

>  <melting_point>
-0.95

>  <molecular_refractivity>
26.98

>  <oscillator_strength_1>
0.0249

>  <oscillator_strength_2>
0.0009

>  <oscillator_strength_3>
0.0185

>  <oscillator_strength_4>
0.0004

>  <open_babel_can_smiles>
CCCCOC#N

>  <mulliken_charges>
16
1   -0.442699
2   -0.263738
3   -0.277306
4   -0.048678
5   0.501143
6   -0.423639
7   -0.446256
8   0.152417
9   0.149949
10   0.150024
11   0.1423
12   0.142227
13   0.160187
14   0.16031
15   0.171798
16   0.171962

>  <lowdin_charges>
16
1   -0.442381
2   -0.270825
3   -0.279716
4   -0.105668
5   0.040085
6   -0.177977
7   -0.136522
8   0.156372
9   0.151076
10   0.150736
11   0.14384
12   0.144246
13   0.155336
14   0.155848
15   0.157439
16   0.158109

$$$$

