PCCDB-ID:  65681
public computational chemistry database (PCCDB) project, http://pccdb.org

 33 34  0  0  0  0  0  0  0  0999 V2000
    1.0987    0.5333   -1.5666 C   0  0  0  0  0  0  0  0  0  0  0  0
    3.1053    1.7715   -0.6305 C   0  0  0  0  0  0  0  0  0  0  0  0
    9.2186   -0.8725   -2.4351 C   0  0  0  0  0  0  0  0  0  0  0  0
    6.0139   -1.0123   -6.1014 C   0  0  0  0  0  0  0  0  0  0  0  0
    3.2334   -0.7161   -1.1856 C   0  0  0  0  0  0  0  0  0  0  0  0
    5.5854   -0.7369   -0.2501 C   0  0  0  0  0  0  0  0  0  0  0  0
    2.6296    0.6497   -1.5615 C   0  0  0  0  0  0  0  0  0  0  0  0
    5.4626   -0.8118   -2.4315 C   0  0  0  0  0  0  0  0  0  0  0  0
    6.7744   -0.8151   -1.9947 C   0  0  0  0  0  0  0  0  0  0  0  0
    5.0863   -0.8853   -3.8128 C   0  0  0  0  0  0  0  0  0  0  0  0
    7.5751   -0.9371   -4.2474 C   0  0  0  0  0  0  0  0  0  0  0  0
    6.8574   -0.7679   -0.6389 N   0  0  0  0  0  0  0  0  0  0  0  0
    7.8258   -0.8728   -2.8806 N   0  0  0  0  0  0  0  0  0  0  0  0
    6.2265   -0.9385   -4.6526 N   0  0  0  0  0  0  0  0  0  0  0  0
    4.6955   -0.7654   -1.2732 N   0  0  0  0  0  0  0  0  0  0  0  0
    3.9400   -0.9001   -4.2589 O   0  0  0  0  0  0  0  0  0  0  0  0
    8.4852   -0.9904   -5.0622 O   0  0  0  0  0  0  0  0  0  0  0  0
    0.6410    1.4840   -1.8606 H   0  0  0  0  0  0  0  0  0  0  0  0
    0.7139    0.2755   -0.5708 H   0  0  0  0  0  0  0  0  0  0  0  0
    0.7589   -0.2337   -2.2717 H   0  0  0  0  0  0  0  0  0  0  0  0
    2.6907    2.7353   -0.9462 H   0  0  0  0  0  0  0  0  0  0  0  0
    4.1966    1.8667   -0.6281 H   0  0  0  0  0  0  0  0  0  0  0  0
    2.7780    1.5941    0.4030 H   0  0  0  0  0  0  0  0  0  0  0  0
    9.2182   -0.8426   -1.3461 H   0  0  0  0  0  0  0  0  0  0  0  0
    9.7416   -0.0010   -2.8375 H   0  0  0  0  0  0  0  0  0  0  0  0
    9.7246   -1.7736   -2.7902 H   0  0  0  0  0  0  0  0  0  0  0  0
    4.9393   -0.9952   -6.2721 H   0  0  0  0  0  0  0  0  0  0  0  0
    6.4504   -1.9326   -6.4974 H   0  0  0  0  0  0  0  0  0  0  0  0
    6.4964   -0.1641   -6.5925 H   0  0  0  0  0  0  0  0  0  0  0  0
    2.8397   -1.4884   -1.8506 H   0  0  0  0  0  0  0  0  0  0  0  0
    2.9711   -0.9813   -0.1548 H   0  0  0  0  0  0  0  0  0  0  0  0
    5.2610   -0.7000    0.7815 H   0  0  0  0  0  0  0  0  0  0  0  0
    2.9560    0.8677   -2.5855 H   0  0  0  0  0  0  0  0  0  0  0  0
  1  7  1  0  0  0  0
  1 19  1  0  0  0  0
  2 22  1  0  0  0  0
  2 23  1  0  0  0  0
  3 24  1  0  0  0  0
  4 14  1  0  0  0  0
  5 31  1  0  0  0  0
  6 32  1  0  0  0  0
  7  5  1  0  0  0  0
  7  2  1  0  0  0  0
  8  9  2  0  0  0  0
  8 15  1  0  0  0  0
  9 12  1  0  0  0  0
 10  8  1  0  0  0  0
 11 13  1  0  0  0  0
 12  6  2  0  0  0  0
 13  3  1  0  0  0  0
 13  9  1  0  0  0  0
 14 11  1  0  0  0  0
 14 10  1  0  0  0  0
 15  5  1  0  0  0  0
 15  6  1  0  0  0  0
 16 10  2  0  0  0  0
 17 11  2  0  0  0  0
 18  1  1  0  0  0  0
 20  1  1  0  0  0  0
 21  2  1  0  0  0  0
 25  3  1  0  0  0  0
 26  3  1  0  0  0  0
 27  4  1  0  0  0  0
 28  4  1  0  0  0  0
 29  4  1  0  0  0  0
 30  5  1  0  0  0  0
 33  7  1  0  0  0  0
M  END
>  <HBA>
6

>  <HBD>
0

>  <TPSA>
61.82

>  <cid>
65681

>  <dipole>
3.7

>  <excitation_energy_1>
4.606

>  <excitation_energy_2>
4.963

>  <excitation_energy_3>
5.401

>  <excitation_energy_4>
5.587

>  <homo_energy>
-5.94

>  <homo_lumo_gap>
5.129

>  <logP>
0.09

>  <lumo_energy>
-0.811

>  <melting_point>
141.55

>  <molecular_refractivity>
66.46

>  <oscillator_strength_1>
0.1294

>  <oscillator_strength_2>
0.0001

>  <oscillator_strength_3>
0.0028

>  <oscillator_strength_4>
0.0245

>  <open_babel_can_smiles>
CC(Cn1cnc2c1c(=O)n(C)c(=O)n2C)C

>  <mulliken_charges>
33
1   -0.450906
2   -0.454919
3   -0.321765
4   -0.315125
5   -0.14606
6   0.218448
7   -0.085153
8   0.214279
9   0.474513
10   0.640558
11   0.78501
12   -0.515206
13   -0.589579
14   -0.575325
15   -0.489641
16   -0.544434
17   -0.527162
18   0.152549
19   0.138071
20   0.157936
21   0.153418
22   0.155487
23   0.135799
24   0.198066
25   0.180759
26   0.182117
27   0.198083
28   0.177319
29   0.177463
30   0.188008
31   0.149401
32   0.169886
33   0.168106

>  <lowdin_charges>
33
1   -0.44395
2   -0.447009
3   -0.340857
4   -0.348204
5   -0.191403
6   -0.062627
7   -0.129176
8   -0.08258
9   0.063451
10   0.158445
11   0.192567
12   -0.206307
13   -0.057115
14   -0.091798
15   0.014678
16   -0.315332
17   -0.310632
18   0.156356
19   0.144509
20   0.157685
21   0.155963
22   0.151845
23   0.142753
24   0.178644
25   0.168371
26   0.16926
27   0.17976
28   0.166351
29   0.16728
30   0.17455
31   0.152547
32   0.173455
33   0.158518

$$$$

