PCCDB-ID:  46516
public computational chemistry database (PCCDB) project, http://pccdb.org

 28 28  0  0  1  0  0  0  0  0999 V2000
    1.4093   -2.7368   -1.3338 C   0  0  0  0  0  0  0  0  0  0  0  0
    6.5801    1.1972   -1.2077 C   0  0  0  0  0  0  0  0  0  0  0  0
    2.9279   -2.5330   -1.3379 C   0  0  0  0  0  0  0  0  0  0  0  0
    5.1047    0.7866   -1.2146 C   0  0  0  0  0  0  0  0  0  0  0  0
    3.3146   -1.0491   -1.2767 C   0  0  0  0  0  0  0  0  0  0  0  0
    5.4884   -1.3322   -2.5384 C   0  0  0  0  0  0  0  0  0  0  0  0
    5.5131   -1.4379   -0.0870 C   0  0  0  0  0  0  0  0  0  0  0  0
    6.9238   -2.7495   -1.3858 C   0  0  0  0  0  0  0  0  0  0  0  0
    4.8488   -0.7550   -1.2788 C   0  0  1  0  0  0  0  0  0  0  0  0
    6.4044   -2.2127   -2.5939 N   0  0  0  0  0  0  0  0  0  0  0  0
    6.4305   -2.3179   -0.1258 N   0  0  0  0  0  0  0  0  0  0  0  0
    5.0336   -0.8521   -3.7197 O   0  0  0  0  0  0  0  0  0  0  0  0
    5.0819   -1.0626    1.1401 O   0  0  0  0  0  0  0  0  0  0  0  0
    7.7974   -3.5851   -1.4308 O   0  0  0  0  0  0  0  0  0  0  0  0
    1.1600   -3.8018   -1.3782 H   0  0  0  0  0  0  0  0  0  0  0  0
    0.9370   -2.2487   -2.1951 H   0  0  0  0  0  0  0  0  0  0  0  0
    0.9522   -2.3263   -0.4251 H   0  0  0  0  0  0  0  0  0  0  0  0
    6.6667    2.2877   -1.1671 H   0  0  0  0  0  0  0  0  0  0  0  0
    7.0963    0.8532   -2.1100 H   0  0  0  0  0  0  0  0  0  0  0  0
    7.1076    0.7865   -0.3406 H   0  0  0  0  0  0  0  0  0  0  0  0
    3.3564   -2.9863   -2.2405 H   0  0  0  0  0  0  0  0  0  0  0  0
    3.3718   -3.0630   -0.4860 H   0  0  0  0  0  0  0  0  0  0  0  0
    4.5917    1.2611   -2.0620 H   0  0  0  0  0  0  0  0  0  0  0  0
    4.6030    1.1875   -0.3235 H   0  0  0  0  0  0  0  0  0  0  0  0
    2.8684   -0.5916   -0.3819 H   0  0  0  0  0  0  0  0  0  0  0  0
    2.8522   -0.5160   -2.1199 H   0  0  0  0  0  0  0  0  0  0  0  0
    4.3372   -0.1938   -3.5699 H   0  0  0  0  0  0  0  0  0  0  0  0
    4.3834   -0.3943    1.0615 H   0  0  0  0  0  0  0  0  0  0  0  0
  1 17  1  0  0  0  0
  2 18  1  0  0  0  0
  2 20  1  0  0  0  0
  3  1  1  0  0  0  0
  3  5  1  0  0  0  0
  3 22  1  0  0  0  0
  4  2  1  0  0  0  0
  4 24  1  0  0  0  0
  5 25  1  0  0  0  0
  6  9  1  0  0  0  0
  7 13  1  0  0  0  0
  8 11  1  0  0  0  0
  9  5  1  1  0  0  0
  9  4  1  0  0  0  0
  9  7  1  0  0  0  0
 10  6  2  0  0  0  0
 10  8  2  0  0  0  0
 11  7  2  0  0  0  0
 12 27  1  0  0  0  0
 12  6  1  0  0  0  0
 14  8  2  0  0  0  0
 15  1  1  0  0  0  0
 16  1  1  0  0  0  0
 19  2  1  0  0  0  0
 21  3  1  0  0  0  0
 23  4  1  0  0  0  0
 26  5  1  0  0  0  0
 28 13  1  0  0  0  0
M  END
>  <HBA>
5

>  <HBD>
2

>  <TPSA>
75.27

>  <cid>
46516

>  <dipole>
9.8

>  <excitation_energy_1>
3.993

>  <excitation_energy_2>
4.164

>  <excitation_energy_3>
5.237

>  <excitation_energy_4>
5.477

>  <homo_energy>
-6.898

>  <homo_lumo_gap>
5.382

>  <logP>
1.206

>  <lumo_energy>
-1.516

>  <melting_point>
141.57

>  <molecular_refractivity>
57.43

>  <oscillator_strength_1>
0.0

>  <oscillator_strength_2>
0.0

>  <oscillator_strength_3>
0.0001

>  <oscillator_strength_4>
0.0012

>  <open_babel_can_smiles>
CCC[C@@]1(CC)C(=N[C](=[N]=C1O)=O)O

>  <mulliken_charges>
28
1   -0.447612
2   -0.467928
3   -0.275602
4   -0.272422
5   -0.274322
6   0.55353
7   0.553544
8   0.620237
9   -0.149747
10   -0.471565
11   -0.471503
12   -0.580943
13   -0.580932
14   -0.430975
15   0.163382
16   0.146706
17   0.146709
18   0.162
19   0.181285
20   0.181259
21   0.169779
22   0.169686
23   0.137982
24   0.138034
25   0.132977
26   0.132951
27   0.416751
28   0.416739

>  <lowdin_charges>
28
1   -0.442286
2   -0.451988
3   -0.283306
4   -0.270806
5   -0.273704
6   0.145685
7   0.145922
8   0.169222
9   -0.065318
10   -0.183368
11   -0.183367
12   -0.331616
13   -0.331788
14   -0.206851
15   0.160148
16   0.149752
17   0.149416
18   0.16084
19   0.167426
20   0.167667
21   0.159238
22   0.159544
23   0.144784
24   0.144451
25   0.142287
26   0.142606
27   0.357764
28   0.357648

$$$$

