PCCDB-ID:  73021
public computational chemistry database (PCCDB) project, http://pccdb.org

 31 32  0  0  0  0  0  0  0  0999 V2000
    7.1957   -0.3157    2.1536 C   0  0  0  0  0  0  0  0  0  0  0  0
    4.0616   -6.3374   -1.2915 C   0  0  0  0  0  0  0  0  0  0  0  0
    6.5872   -2.3272   -5.1377 C   0  0  0  0  0  0  0  0  0  0  0  0
    6.0186   -0.6446    1.2818 C   0  0  0  0  0  0  0  0  0  0  0  0
    5.9551   -0.4324   -0.0350 C   0  0  0  0  0  0  0  0  0  0  0  0
    4.7501   -0.7620   -0.8749 C   0  0  0  0  0  0  0  0  0  0  0  0
    5.1976   -5.9976   -3.5222 C   0  0  0  0  0  0  0  0  0  0  0  0
    4.9054   -4.1815   -2.3404 C   0  0  0  0  0  0  0  0  0  0  0  0
    5.5334   -3.9108   -3.5405 C   0  0  0  0  0  0  0  0  0  0  0  0
    4.5875   -3.1810   -1.3640 C   0  0  0  0  0  0  0  0  0  0  0  0
    5.6561   -1.5806   -2.9998 C   0  0  0  0  0  0  0  0  0  0  0  0
    5.7180   -5.0369   -4.2804 N   0  0  0  0  0  0  0  0  0  0  0  0
    4.6927   -5.5525   -2.3444 N   0  0  0  0  0  0  0  0  0  0  0  0
    5.9027   -2.6294   -3.8813 N   0  0  0  0  0  0  0  0  0  0  0  0
    4.9932   -1.8955   -1.7989 N   0  0  0  0  0  0  0  0  0  0  0  0
    4.0293   -3.3663   -0.2854 O   0  0  0  0  0  0  0  0  0  0  0  0
    5.9998   -0.4363   -3.2661 O   0  0  0  0  0  0  0  0  0  0  0  0
    7.5756   -1.2134    2.6602 H   0  0  0  0  0  0  0  0  0  0  0  0
    6.9180    0.3947    2.9441 H   0  0  0  0  0  0  0  0  0  0  0  0
    8.0163    0.1228    1.5760 H   0  0  0  0  0  0  0  0  0  0  0  0
    4.0185   -7.3791   -1.6164 H   0  0  0  0  0  0  0  0  0  0  0  0
    3.0526   -5.9668   -1.0996 H   0  0  0  0  0  0  0  0  0  0  0  0
    4.6380   -6.2624   -0.3665 H   0  0  0  0  0  0  0  0  0  0  0  0
    6.6683   -3.2554   -5.7023 H   0  0  0  0  0  0  0  0  0  0  0  0
    7.5811   -1.9186   -4.9372 H   0  0  0  0  0  0  0  0  0  0  0  0
    6.0166   -1.5873   -5.7041 H   0  0  0  0  0  0  0  0  0  0  0  0
    5.1575   -1.0914    1.7811 H   0  0  0  0  0  0  0  0  0  0  0  0
    6.8022    0.0007   -0.5658 H   0  0  0  0  0  0  0  0  0  0  0  0
    4.4658    0.0901   -1.4961 H   0  0  0  0  0  0  0  0  0  0  0  0
    3.9091   -1.0577   -0.2478 H   0  0  0  0  0  0  0  0  0  0  0  0
    5.1642   -7.0444   -3.7943 H   0  0  0  0  0  0  0  0  0  0  0  0
  1 18  1  0  0  0  0
  1 19  1  0  0  0  0
  2 22  1  0  0  0  0
  2 23  1  0  0  0  0
  3 25  1  0  0  0  0
  3 14  1  0  0  0  0
  4 27  1  0  0  0  0
  4  1  1  0  0  0  0
  5  4  2  0  0  0  0
  6 30  1  0  0  0  0
  6  5  1  0  0  0  0
  7 13  1  0  0  0  0
  8 10  1  0  0  0  0
  9  8  2  0  0  0  0
 10 16  2  0  0  0  0
 11 15  1  0  0  0  0
 12  9  1  0  0  0  0
 12  7  2  0  0  0  0
 13  8  1  0  0  0  0
 13  2  1  0  0  0  0
 14  9  1  0  0  0  0
 14 11  1  0  0  0  0
 15 10  1  0  0  0  0
 15  6  1  0  0  0  0
 17 11  2  0  0  0  0
 20  1  1  0  0  0  0
 21  2  1  0  0  0  0
 24  3  1  0  0  0  0
 26  3  1  0  0  0  0
 28  5  1  0  0  0  0
 29  6  1  0  0  0  0
 31  7  1  0  0  0  0
M  END
>  <HBA>
6

>  <HBD>
0

>  <TPSA>
61.82

>  <cid>
73021

>  <dipole>
3.8

>  <excitation_energy_1>
4.605

>  <excitation_energy_2>
4.873

>  <excitation_energy_3>
5.106

>  <excitation_energy_4>
5.324

>  <homo_energy>
-5.929

>  <homo_lumo_gap>
5.138

>  <logP>
0.01

>  <lumo_energy>
-0.792

>  <melting_point>
151.34

>  <molecular_refractivity>
65.99

>  <oscillator_strength_1>
0.1448

>  <oscillator_strength_2>
0.0008

>  <oscillator_strength_3>
0.0074

>  <oscillator_strength_4>
0.0011

>  <open_babel_can_smiles>
C/C=C/Cn1c(=O)c2n(C)cnc2n(c1=O)C

>  <mulliken_charges>
31
1   -0.489016
2   -0.315478
3   -0.321368
4   -0.079368
5   -0.099661
6   -0.19749
7   0.219492
8   0.216627
9   0.474782
10   0.644229
11   0.788801
12   -0.511493
13   -0.485886
14   -0.588722
15   -0.576653
16   -0.544679
17   -0.533762
18   0.155989
19   0.155601
20   0.154635
21   0.165908
22   0.199939
23   0.197846
24   0.197353
25   0.180595
26   0.182081
27   0.136523
28   0.141042
29   0.180001
30   0.183141
31   0.168989

>  <lowdin_charges>
31
1   -0.441424
2   -0.33882
3   -0.342734
4   -0.149786
5   -0.184037
6   -0.192576
7   -0.05909
8   -0.080748
9   0.066791
10   0.159577
11   0.188362
12   -0.206251
13   0.010312
14   -0.055671
15   -0.088425
16   -0.312525
17   -0.314063
18   0.158174
19   0.158207
20   0.15652
21   0.163539
22   0.177638
23   0.177029
24   0.180406
25   0.166695
26   0.170219
27   0.155282
28   0.158446
29   0.172218
30   0.17436
31   0.172376

$$$$

