PCCDB-ID:  22535
public computational chemistry database (PCCDB) project, http://pccdb.org

 27 28  0  0  0  0  0  0  0  0999 V2000
    0.7328   -0.5047   -0.0755 C   0  0  0  0  0  0  0  0  0  0  0  0
    2.8957   -0.9991    1.2093 C   0  0  0  0  0  0  0  0  0  0  0  0
    3.6254   -3.7298   -3.6686 C   0  0  0  0  0  0  0  0  0  0  0  0
    2.8975   -3.8272   -2.4610 C   0  0  0  0  0  0  0  0  0  0  0  0
    4.2820    1.0262   -2.9229 C   0  0  0  0  0  0  0  0  0  0  0  0
    4.1312   -2.5121   -4.0581 C   0  0  0  0  0  0  0  0  0  0  0  0
    4.4701   -0.0977   -3.6877 C   0  0  0  0  0  0  0  0  0  0  0  0
    2.6924   -2.7152   -1.6741 C   0  0  0  0  0  0  0  0  0  0  0  0
    3.5538    0.9421   -1.7146 C   0  0  0  0  0  0  0  0  0  0  0  0
    2.2371   -0.1924    0.0702 C   0  0  0  0  0  0  0  0  0  0  0  0
    3.9381   -1.3457   -3.2693 C   0  0  0  0  0  0  0  0  0  0  0  0
    3.0083   -0.2426   -1.2508 C   0  0  0  0  0  0  0  0  0  0  0  0
    3.1975   -1.4333   -2.0382 C   0  0  0  0  0  0  0  0  0  0  0  0
    0.2174   -0.3130    0.8734 H   0  0  0  0  0  0  0  0  0  0  0  0
    0.5375   -1.5444   -0.3531 H   0  0  0  0  0  0  0  0  0  0  0  0
    0.2781    0.1323   -0.8421 H   0  0  0  0  0  0  0  0  0  0  0  0
    2.3787   -0.7997    2.1558 H   0  0  0  0  0  0  0  0  0  0  0  0
    3.9457   -0.7112    1.3304 H   0  0  0  0  0  0  0  0  0  0  0  0
    2.8680   -2.0793    1.0398 H   0  0  0  0  0  0  0  0  0  0  0  0
    3.7815   -4.6127   -4.2824 H   0  0  0  0  0  0  0  0  0  0  0  0
    2.4965   -4.7880   -2.1491 H   0  0  0  0  0  0  0  0  0  0  0  0
    4.6878    1.9836   -3.2386 H   0  0  0  0  0  0  0  0  0  0  0  0
    4.6937   -2.4202   -4.9845 H   0  0  0  0  0  0  0  0  0  0  0  0
    5.0269   -0.0517   -4.6206 H   0  0  0  0  0  0  0  0  0  0  0  0
    2.1310   -2.8274   -0.7563 H   0  0  0  0  0  0  0  0  0  0  0  0
    3.4170    1.8473   -1.1272 H   0  0  0  0  0  0  0  0  0  0  0  0
    2.2884    0.8575    0.3879 H   0  0  0  0  0  0  0  0  0  0  0  0
  1 10  1  0  0  0  0
  1 14  1  0  0  0  0
  2 18  1  0  0  0  0
  2 17  1  0  0  0  0
  3  4  1  0  0  0  0
  4 21  1  0  0  0  0
  4  8  2  0  0  0  0
  5  9  2  0  0  0  0
  6  3  2  0  0  0  0
  6 11  1  0  0  0  0
  7 11  2  0  0  0  0
  7  5  1  0  0  0  0
  8 25  1  0  0  0  0
  9 12  1  0  0  0  0
  9 26  1  0  0  0  0
 10 27  1  0  0  0  0
 10  2  1  0  0  0  0
 11 13  1  0  0  0  0
 12 10  1  0  0  0  0
 13  8  1  0  0  0  0
 13 12  2  0  0  0  0
 15  1  1  0  0  0  0
 16  1  1  0  0  0  0
 19  2  1  0  0  0  0
 20  3  1  0  0  0  0
 22  5  1  0  0  0  0
 23  6  1  0  0  0  0
 24  7  1  0  0  0  0
M  END
>  <HBA>
0

>  <HBD>
0

>  <TPSA>
0.0

>  <cid>
22535

>  <dipole>
0.27

>  <excitation_energy_1>
4.286

>  <excitation_energy_2>
4.407

>  <excitation_energy_3>
5.312

>  <excitation_energy_4>
5.469

>  <homo_energy>
-5.657

>  <homo_lumo_gap>
4.754

>  <logP>
3.963

>  <lumo_energy>
-0.903

>  <melting_point>
51.16

>  <molecular_refractivity>
58.53

>  <oscillator_strength_1>
0.0901

>  <oscillator_strength_2>
0.0012

>  <oscillator_strength_3>
0.0001

>  <oscillator_strength_4>
0.0041

>  <open_babel_can_smiles>
CC(c1cccc2c1cccc2)C

>  <mulliken_charges>
27
1   -0.445942
2   -0.446306
3   -0.133388
4   -0.137358
5   -0.125688
6   -0.194263
7   -0.194716
8   -0.196376
9   -0.215297
10   -0.156927
11   0.140154
12   0.128341
13   0.072602
14   0.140697
15   0.149585
16   0.150642
17   0.140828
18   0.150725
19   0.149604
20   0.128485
21   0.127121
22   0.127718
23   0.128105
24   0.127246
25   0.130731
26   0.122286
27   0.13139

>  <lowdin_charges>
27
1   -0.446092
2   -0.442703
3   -0.161024
4   -0.159902
5   -0.159727
6   -0.155465
7   -0.159148
8   -0.163175
9   -0.17325
10   -0.117209
11   0.0016
12   -0.001293
13   -0.007072
14   0.14854
15   0.148613
16   0.154997
17   0.148501
18   0.152576
19   0.147728
20   0.158446
21   0.157139
22   0.157642
23   0.156401
24   0.156139
25   0.159557
26   0.153932
27   0.144248

$$$$

