PCCDB-ID:  9960
public computational chemistry database (PCCDB) project, http://pccdb.org

 14 14  0  0  1  0  0  0  0  0999 V2000
   -0.8001   -1.0554   -0.1635 C   0  0  0  0  0  0  0  0  0  0  0  0
    0.7486   -1.0038   -0.0630 C   0  0  0  0  0  0  0  0  0  0  0  0
    0.0452    1.1636   -0.2447 C   0  0  0  0  0  0  0  0  0  0  0  0
   -1.2242    0.4015    0.1432 C   0  0  2  0  0  0  0  0  0  0  0  0
   -1.5293    0.5971    1.5187 O   0  0  0  0  0  0  0  0  0  0  0  0
    1.0849    0.3459    0.2945 O   0  0  0  0  0  0  0  0  0  0  0  0
   -1.2582   -1.7361    0.5588 H   0  0  0  0  0  0  0  0  0  0  0  0
   -1.1223   -1.3578   -1.1655 H   0  0  0  0  0  0  0  0  0  0  0  0
    1.2185   -1.2619   -1.0235 H   0  0  0  0  0  0  0  0  0  0  0  0
    1.1648   -1.6574    0.7086 H   0  0  0  0  0  0  0  0  0  0  0  0
    0.1124    2.1522    0.2159 H   0  0  0  0  0  0  0  0  0  0  0  0
    0.1430    1.2616   -1.3394 H   0  0  0  0  0  0  0  0  0  0  0  0
   -2.1117    0.7142   -0.4128 H   0  0  0  0  0  0  0  0  0  0  0  0
   -0.6909    0.4804    1.9976 H   0  0  0  0  0  0  0  0  0  0  0  0
  1  2  1  0  0  0  0
  1  4  1  0  0  0  0
  1  7  1  0  0  0  0
  2  6  1  0  0  0  0
  2 10  1  0  0  0  0
  3  4  1  0  0  0  0
  3 11  1  0  0  0  0
  3  6  1  0  0  0  0
  4 13  1  6  0  0  0
  4  5  1  0  0  0  0
  5 14  1  0  0  0  0
  8  1  1  0  0  0  0
  9  2  1  0  0  0  0
 12  3  1  0  0  0  0
M  END
>  <HBA>
2

>  <HBD>
1

>  <TPSA>
29.46

>  <cid>
9960

>  <dipole>
1.56

>  <excitation_energy_1>
6.331

>  <excitation_energy_2>
6.703

>  <excitation_energy_3>
7.011

>  <excitation_energy_4>
7.102

>  <homo_energy>
-6.765

>  <homo_lumo_gap>
8.781

>  <logP>
-0.232

>  <lumo_energy>
2.016

>  <melting_point>
7.01

>  <molecular_refractivity>
21.47

>  <oscillator_strength_1>
0.011

>  <oscillator_strength_2>
0.0146

>  <oscillator_strength_3>
0.008

>  <oscillator_strength_4>
0.012

>  <open_babel_can_smiles>
O[C@H]1COCC1

>  <mulliken_charges>
14
1   -0.334286
2   -0.029013
3   -0.063539
4   0.125812
5   -0.624215
6   -0.483696
7   0.163181
8   0.146225
9   0.134414
10   0.14899
11   0.159154
12   0.124339
13   0.140464
14   0.392172

>  <lowdin_charges>
14
1   -0.321508
2   -0.140442
3   -0.151571
4   -0.015572
5   -0.461341
6   -0.287482
7   0.163083
8   0.152783
9   0.134747
10   0.150528
11   0.15615
12   0.128713
13   0.150008
14   0.341904

$$$$

