PCCDB-ID:  10353
public computational chemistry database (PCCDB) project, http://pccdb.org

 31 31  0  0  1  0  0  0  0  0999 V2000
    0.8067    0.2076   -0.0379 C   0  0  0  0  0  0  0  0  0  0  0  0
    7.0926   -1.4203   -2.0668 C   0  0  0  0  0  0  0  0  0  0  0  0
    7.2256    1.0806   -2.1114 C   0  0  0  0  0  0  0  0  0  0  0  0
    2.9790    1.3327   -0.7339 C   0  0  0  0  0  0  0  0  0  0  0  0
    2.8456   -1.1701   -0.6809 C   0  0  0  0  0  0  0  0  0  0  0  0
    4.5132    1.2594   -0.7512 C   0  0  0  0  0  0  0  0  0  0  0  0
    4.3794   -1.2595   -0.6989 C   0  0  0  0  0  0  0  0  0  0  0  0
    2.3370    0.1262   -0.0319 C   0  0  2  0  0  0  0  0  0  0  0  0
    5.0374   -0.0451   -1.3898 C   0  0  2  0  0  0  0  0  0  0  0  0
    6.5927   -0.1274   -1.3969 C   0  0  0  0  0  0  0  0  0  0  0  0
    6.9954   -0.1234   -0.0132 O   0  0  0  0  0  0  0  0  0  0  0  0
    0.4538    1.1247    0.4494 H   0  0  0  0  0  0  0  0  0  0  0  0
    0.3591   -0.6449    0.4875 H   0  0  0  0  0  0  0  0  0  0  0  0
    0.4169    0.2063   -1.0644 H   0  0  0  0  0  0  0  0  0  0  0  0
    6.7228   -1.5087   -3.0953 H   0  0  0  0  0  0  0  0  0  0  0  0
    6.7808   -2.3052   -1.5069 H   0  0  0  0  0  0  0  0  0  0  0  0
    8.1897   -1.4229   -2.1110 H   0  0  0  0  0  0  0  0  0  0  0  0
    6.8636    1.1733   -3.1424 H   0  0  0  0  0  0  0  0  0  0  0  0
    8.3164    0.9630   -2.1556 H   0  0  0  0  0  0  0  0  0  0  0  0
    7.0129    2.0122   -1.5818 H   0  0  0  0  0  0  0  0  0  0  0  0
    2.6021    1.3817   -1.7681 H   0  0  0  0  0  0  0  0  0  0  0  0
    2.6608    2.2646   -0.2467 H   0  0  0  0  0  0  0  0  0  0  0  0
    2.4323   -2.0416   -0.1548 H   0  0  0  0  0  0  0  0  0  0  0  0
    2.4625   -1.2229   -1.7126 H   0  0  0  0  0  0  0  0  0  0  0  0
    4.8998    1.3262    0.2736 H   0  0  0  0  0  0  0  0  0  0  0  0
    4.8998    2.1321   -1.2896 H   0  0  0  0  0  0  0  0  0  0  0  0
    4.6703   -2.1895   -1.2002 H   0  0  0  0  0  0  0  0  0  0  0  0
    4.7601   -1.3248    0.3283 H   0  0  0  0  0  0  0  0  0  0  0  0
    2.6765    0.1303    1.0167 H   0  0  0  0  0  0  0  0  0  0  0  0
    4.7278   -0.0508   -2.4479 H   0  0  0  0  0  0  0  0  0  0  0  0
    7.9643   -0.1740    0.0068 H   0  0  0  0  0  0  0  0  0  0  0  0
  1  8  1  0  0  0  0
  1 12  1  0  0  0  0
  1 13  1  0  0  0  0
  2 16  1  0  0  0  0
  2 10  1  0  0  0  0
  3 20  1  0  0  0  0
  3 10  1  0  0  0  0
  4 22  1  0  0  0  0
  4  8  1  0  0  0  0
  5 23  1  0  0  0  0
  5  8  1  0  0  0  0
  6  4  1  0  0  0  0
  6 25  1  0  0  0  0
  7  5  1  0  0  0  0
  7 28  1  0  0  0  0
  8 29  1  1  0  0  0
  9 30  1  6  0  0  0
  9  6  1  0  0  0  0
  9  7  1  0  0  0  0
 10  9  1  0  0  0  0
 10 11  1  0  0  0  0
 11 31  1  0  0  0  0
 14  1  1  0  0  0  0
 15  2  1  0  0  0  0
 17  2  1  0  0  0  0
 18  3  1  0  0  0  0
 19  3  1  0  0  0  0
 21  4  1  0  0  0  0
 24  5  1  0  0  0  0
 26  6  1  0  0  0  0
 27  7  1  0  0  0  0
M  END
>  <HBA>
1

>  <HBD>
1

>  <TPSA>
20.23

>  <cid>
10353

>  <dipole>
1.47

>  <excitation_energy_1>
6.302

>  <excitation_energy_2>
6.997

>  <excitation_energy_3>
7.1

>  <excitation_energy_4>
7.151

>  <homo_energy>
-7.012

>  <homo_lumo_gap>
8.787

>  <logP>
2.584

>  <lumo_energy>
1.774

>  <melting_point>
23.0

>  <molecular_refractivity>
49.27

>  <oscillator_strength_1>
0.0167

>  <oscillator_strength_2>
0.0007

>  <oscillator_strength_3>
0.0187

>  <oscillator_strength_4>
0.0047

>  <open_babel_can_smiles>
C[C@@H]1CC[C@H](CC1)C(O)(C)C

>  <mulliken_charges>
31
1   -0.444516
2   -0.467682
3   -0.467649
4   -0.258719
5   -0.258987
6   -0.277142
7   -0.276954
8   -0.065742
9   -0.075394
10   0.316732
11   -0.642681
12   0.137602
13   0.137606
14   0.136028
15   0.141297
16   0.161124
17   0.126507
18   0.141254
19   0.126495
20   0.161206
21   0.11853
22   0.124648
23   0.124765
24   0.11859
25   0.151199
26   0.125601
27   0.125503
28   0.151329
29   0.118107
30   0.107728
31   0.383614

>  <lowdin_charges>
31
1   -0.444298
2   -0.457173
3   -0.45672
4   -0.276306
5   -0.276993
6   -0.281692
7   -0.281067
8   -0.124313
9   -0.130028
10   0.124906
11   -0.46345
12   0.147147
13   0.147626
14   0.143281
15   0.150895
16   0.158127
17   0.140405
18   0.150835
19   0.140529
20   0.157771
21   0.132164
22   0.140847
23   0.141468
24   0.132228
25   0.149197
26   0.142458
27   0.141868
28   0.149228
29   0.132526
30   0.131778
31   0.336759

$$$$

