PCCDB-ID:  46399
public computational chemistry database (PCCDB) project, http://pccdb.org

 18 19  0  0  0  0  0  0  0  0999 V2000
    2.1143   -0.6634   -0.0167 C   0  0  0  0  0  0  0  0  0  0  0  0
    0.9020   -1.3675    0.0236 C   0  0  0  0  0  0  0  0  0  0  0  0
    0.9469    1.4783   -0.1195 C   0  0  0  0  0  0  0  0  0  0  0  0
    2.1503    0.7401   -0.0895 C   0  0  0  0  0  0  0  0  0  0  0  0
   -0.2420    0.7676   -0.0772 C   0  0  0  0  0  0  0  0  0  0  0  0
   -0.2605   -0.6276   -0.0075 C   0  0  0  0  0  0  0  0  0  0  0  0
   -2.4048    0.0175   -0.0289 C   0  0  0  0  0  0  0  0  0  0  0  0
    3.3773    1.4131   -0.1952 N   0  0  0  0  0  0  0  0  0  0  0  0
   -3.6647   -0.1314   -0.0224 N   0  0  0  0  0  0  0  0  0  0  0  0
   -1.5809    1.1462   -0.0798 N   0  0  0  0  0  0  0  0  0  0  0  0
   -1.5680   -1.0780    0.0260 O   0  0  0  0  0  0  0  0  0  0  0  0
    3.0497   -1.2161    0.0036 H   0  0  0  0  0  0  0  0  0  0  0  0
    0.8796   -2.4503    0.0812 H   0  0  0  0  0  0  0  0  0  0  0  0
    0.9633    2.5627   -0.1838 H   0  0  0  0  0  0  0  0  0  0  0  0
    4.1668    0.8913    0.1663 H   0  0  0  0  0  0  0  0  0  0  0  0
    3.3717    2.3544    0.1797 H   0  0  0  0  0  0  0  0  0  0  0  0
   -4.1426    0.7684   -0.0633 H   0  0  0  0  0  0  0  0  0  0  0  0
   -1.9379    2.0843   -0.1659 H   0  0  0  0  0  0  0  0  0  0  0  0
  1 12  1  0  0  0  0
  1  2  1  0  0  0  0
  2 13  1  0  0  0  0
  3  4  1  0  0  0  0
  3  5  2  0  0  0  0
  4  1  2  0  0  0  0
  5  6  1  0  0  0  0
  6  2  2  0  0  0  0
  6 11  1  0  0  0  0
  7  9  2  0  0  0  0
  7 11  1  0  0  0  0
  8  4  1  0  0  0  0
  8 15  1  0  0  0  0
  8 16  1  0  0  0  0
 10  5  1  0  0  0  0
 10  7  1  0  0  0  0
 14  3  1  0  0  0  0
 17  9  1  0  0  0  0
 18 10  1  0  0  0  0
M  END
>  <HBA>
4

>  <HBD>
2

>  <TPSA>
78.07

>  <cid>
46399

>  <dipole>
5.46

>  <excitation_energy_1>
4.284

>  <excitation_energy_2>
4.337

>  <excitation_energy_3>
4.515

>  <excitation_energy_4>
5.13

>  <homo_energy>
-5.11

>  <homo_lumo_gap>
5.029

>  <logP>
2.155

>  <lumo_energy>
-0.082

>  <melting_point>
162.7

>  <molecular_refractivity>
42.82

>  <oscillator_strength_1>
0.127

>  <oscillator_strength_2>
0.0179

>  <oscillator_strength_3>
0.0035

>  <oscillator_strength_4>
0.0257

>  <open_babel_can_smiles>
Nc1ccc2c(c1)[nH]c(=N)o2

>  <mulliken_charges>
18
1   -0.192361
2   -0.203016
3   -0.227779
4   0.299969
5   0.377003
6   0.318063
7   0.710596
8   -0.787526
9   -0.65206
10   -0.772125
11   -0.511382
12   0.120635
13   0.150627
14   0.123007
15   0.319803
16   0.317641
17   0.2769
18   0.332005

>  <lowdin_charges>
18
1   -0.21173
2   -0.159462
3   -0.229044
4   0.061728
5   0.039858
6   0.058783
7   0.167054
8   -0.491541
9   -0.436274
10   -0.255943
11   -0.132222
12   0.156812
13   0.171551
14   0.155839
15   0.275933
16   0.272937
17   0.258904
18   0.296818

$$$$

