PCCDB-ID:  69659
public computational chemistry database (PCCDB) project, http://pccdb.org

 25 24  0  0  0  0  0  0  0  0999 V2000
    3.0489    0.7414    2.6854 C   0  0  0  0  0  0  0  0  0  0  0  0
    2.4661    1.5684    1.5334 C   0  0  0  0  0  0  0  0  0  0  0  0
    2.8848    1.0881    0.1320 C   0  0  0  0  0  0  0  0  0  0  0  0
    4.3867    1.1848   -0.1931 C   0  0  0  0  0  0  0  0  0  0  0  0
    4.9167    2.6246   -0.2753 C   0  0  0  0  0  0  0  0  0  0  0  0
    6.4236    2.7422   -0.5585 C   0  0  0  0  0  0  0  0  0  0  0  0
    6.8170    2.2149   -1.9430 C   0  0  0  0  0  0  0  0  0  0  0  0
    8.2866    2.4536   -2.1651 N   0  0  0  0  0  0  0  0  0  0  0  0
    9.0613    1.5945   -1.7516 O   0  0  0  0  0  0  0  0  0  0  0  0
    8.6104    3.5109   -2.6999 O   0  0  0  0  0  0  0  0  0  0  0  0
    2.6640    1.0876    3.6512 H   0  0  0  0  0  0  0  0  0  0  0  0
    4.1422    0.8068    2.7277 H   0  0  0  0  0  0  0  0  0  0  0  0
    2.7853   -0.3189    2.5832 H   0  0  0  0  0  0  0  0  0  0  0  0
    2.7383    2.6243    1.6665 H   0  0  0  0  0  0  0  0  0  0  0  0
    1.3700    1.5356    1.5909 H   0  0  0  0  0  0  0  0  0  0  0  0
    2.3247    1.6610   -0.6209 H   0  0  0  0  0  0  0  0  0  0  0  0
    2.5701    0.0419    0.0127 H   0  0  0  0  0  0  0  0  0  0  0  0
    4.5583    0.6730   -1.1499 H   0  0  0  0  0  0  0  0  0  0  0  0
    4.9694    0.6272    0.5533 H   0  0  0  0  0  0  0  0  0  0  0  0
    4.7215    3.1427    0.6716 H   0  0  0  0  0  0  0  0  0  0  0  0
    4.3569    3.1781   -1.0434 H   0  0  0  0  0  0  0  0  0  0  0  0
    6.9953    2.1945    0.2007 H   0  0  0  0  0  0  0  0  0  0  0  0
    6.7252    3.7947   -0.4976 H   0  0  0  0  0  0  0  0  0  0  0  0
    6.2982    2.7477   -2.7417 H   0  0  0  0  0  0  0  0  0  0  0  0
    6.6706    1.1386   -2.0359 H   0  0  0  0  0  0  0  0  0  0  0  0
  1 12  1  0  0  0  0
  1 11  1  0  0  0  0
  2 15  1  0  0  0  0
  2 14  1  0  0  0  0
  2  1  1  0  0  0  0
  3  2  1  0  0  0  0
  4  3  1  0  0  0  0
  4 19  1  0  0  0  0
  5  4  1  0  0  0  0
  5 20  1  0  0  0  0
  6 23  1  0  0  0  0
  6  5  1  0  0  0  0
  6 22  1  0  0  0  0
  7  6  1  0  0  0  0
  8  7  1  0  0  0  0
  8  9  2  0  0  0  0
 10  8  2  0  0  0  0
 13  1  1  0  0  0  0
 16  3  1  0  0  0  0
 17  3  1  0  0  0  0
 18  4  1  0  0  0  0
 21  5  1  0  0  0  0
 24  7  1  0  0  0  0
 25  7  1  0  0  0  0
M  END
>  <HBA>
0

>  <HBD>
0

>  <TPSA>
45.82

>  <cid>
69659

>  <dipole>
4.17

>  <excitation_energy_1>
4.089

>  <excitation_energy_2>
4.421

>  <excitation_energy_3>
6.057

>  <excitation_energy_4>
6.24

>  <homo_energy>
-7.826

>  <homo_lumo_gap>
6.106

>  <logP>
2.757

>  <lumo_energy>
-1.72

>  <melting_point>
3.53

>  <molecular_refractivity>
43.87

>  <oscillator_strength_1>
0.0

>  <oscillator_strength_2>
0.001

>  <oscillator_strength_3>
0.0069

>  <oscillator_strength_4>
0.0137

>  <open_babel_can_smiles>
CCCCCCCN(=O)=O

>  <mulliken_charges>
25
1   -0.444184
2   -0.253426
3   -0.253401
4   -0.264654
5   -0.266711
6   -0.278665
7   -0.152253
8   0.444378
9   -0.379224
10   -0.37912
11   0.146025
12   0.144485
13   0.143723
14   0.13448
15   0.136025
16   0.12945
17   0.132383
18   0.13159
19   0.140488
20   0.15037
21   0.137123
22   0.165525
23   0.165278
24   0.182478
25   0.187838

>  <lowdin_charges>
25
1   -0.443708
2   -0.272435
3   -0.276063
4   -0.283166
5   -0.27727
6   -0.276546
7   -0.21886
8   0.298922
9   -0.250254
10   -0.248386
11   0.151799
12   0.144199
13   0.146023
14   0.137671
15   0.14268
16   0.142453
17   0.141862
18   0.140581
19   0.144653
20   0.152039
21   0.143861
22   0.158722
23   0.15822
24   0.172235
25   0.170769

$$$$

