PCCDB-ID:  49856
public computational chemistry database (PCCDB) project, http://pccdb.org

 36 35  0  0  0  0  0  0  0  0999 V2000
    2.5097    2.6692    1.1877 C   0  0  0  0  0  0  0  0  0  0  0  0
    9.7274   -0.8956    3.8870 C   0  0  0  0  0  0  0  0  0  0  0  0
    2.4935    2.3925   -0.3191 C   0  0  0  0  0  0  0  0  0  0  0  0
    3.8755    2.5217   -0.9718 C   0  0  0  0  0  0  0  0  0  0  0  0
    3.8617    2.2594   -2.4826 C   0  0  0  0  0  0  0  0  0  0  0  0
    5.2481    2.3654   -3.1528 C   0  0  0  0  0  0  0  0  0  0  0  0
    6.2155    1.2990   -2.7141 C   0  0  0  0  0  0  0  0  0  0  0  0
    7.4067    1.5116   -2.1480 C   0  0  0  0  0  0  0  0  0  0  0  0
    8.3693    0.4366   -1.7198 C   0  0  0  0  0  0  0  0  0  0  0  0
    8.6719    0.4749   -0.2092 C   0  0  0  0  0  0  0  0  0  0  0  0
    9.6949   -0.5834    0.1910 C   0  0  0  0  0  0  0  0  0  0  0  0
    9.2553   -1.1259    2.4698 C   0  0  0  0  0  0  0  0  0  0  0  0
    8.2882   -1.7844    2.1538 O   0  0  0  0  0  0  0  0  0  0  0  0
   10.0532   -0.4772    1.5880 O   0  0  0  0  0  0  0  0  0  0  0  0
    1.5096    2.5694    1.6250 H   0  0  0  0  0  0  0  0  0  0  0  0
    2.8662    3.6849    1.3999 H   0  0  0  0  0  0  0  0  0  0  0  0
    3.1736    1.9704    1.7113 H   0  0  0  0  0  0  0  0  0  0  0  0
   10.8167   -0.9625    3.9522 H   0  0  0  0  0  0  0  0  0  0  0  0
    9.2584   -1.6255    4.5482 H   0  0  0  0  0  0  0  0  0  0  0  0
    9.4379    0.1121    4.2072 H   0  0  0  0  0  0  0  0  0  0  0  0
    1.7928    3.0824   -0.8110 H   0  0  0  0  0  0  0  0  0  0  0  0
    2.1009    1.3819   -0.5013 H   0  0  0  0  0  0  0  0  0  0  0  0
    4.5760    1.8285   -0.4862 H   0  0  0  0  0  0  0  0  0  0  0  0
    4.2719    3.5315   -0.7846 H   0  0  0  0  0  0  0  0  0  0  0  0
    3.1809    2.9717   -2.9694 H   0  0  0  0  0  0  0  0  0  0  0  0
    3.4450    1.2598   -2.6767 H   0  0  0  0  0  0  0  0  0  0  0  0
    5.6768    3.3581   -2.9591 H   0  0  0  0  0  0  0  0  0  0  0  0
    5.1083    2.2943   -4.2423 H   0  0  0  0  0  0  0  0  0  0  0  0
    5.8942    0.2685   -2.8869 H   0  0  0  0  0  0  0  0  0  0  0  0
    7.7301    2.5398   -1.9697 H   0  0  0  0  0  0  0  0  0  0  0  0
    9.3160    0.5511   -2.2717 H   0  0  0  0  0  0  0  0  0  0  0  0
    7.9673   -0.5487   -1.9907 H   0  0  0  0  0  0  0  0  0  0  0  0
    7.7469    0.3119    0.3546 H   0  0  0  0  0  0  0  0  0  0  0  0
    9.0555    1.4649    0.0705 H   0  0  0  0  0  0  0  0  0  0  0  0
   10.6380   -0.4441   -0.3455 H   0  0  0  0  0  0  0  0  0  0  0  0
    9.3147   -1.5903   -0.0019 H   0  0  0  0  0  0  0  0  0  0  0  0
  1 16  1  0  0  0  0
  1 15  1  0  0  0  0
  1 17  1  0  0  0  0
  2 18  1  0  0  0  0
  2 20  1  0  0  0  0
  2 19  1  0  0  0  0
  3  1  1  0  0  0  0
  4 24  1  0  0  0  0
  4 23  1  0  0  0  0
  4  3  1  0  0  0  0
  5  4  1  0  0  0  0
  6 27  1  0  0  0  0
  6  7  1  0  0  0  0
  6  5  1  0  0  0  0
  7  8  2  0  0  0  0
  8 30  1  0  0  0  0
  8  9  1  0  0  0  0
  9 10  1  0  0  0  0
 10 34  1  0  0  0  0
 10 11  1  0  0  0  0
 10 33  1  0  0  0  0
 11 14  1  0  0  0  0
 12  2  1  0  0  0  0
 13 12  2  0  0  0  0
 14 12  1  0  0  0  0
 21  3  1  0  0  0  0
 22  3  1  0  0  0  0
 25  5  1  0  0  0  0
 26  5  1  0  0  0  0
 28  6  1  0  0  0  0
 29  7  1  0  0  0  0
 31  9  1  0  0  0  0
 32  9  1  0  0  0  0
 35 11  1  0  0  0  0
 36 11  1  0  0  0  0
M  END
>  <HBA>
2

>  <HBD>
0

>  <TPSA>
26.3

>  <cid>
49856

>  <dipole>
1.65

>  <excitation_energy_1>
5.808

>  <excitation_energy_2>
6.116

>  <excitation_energy_3>
6.197

>  <excitation_energy_4>
6.334

>  <homo_energy>
-6.495

>  <homo_lumo_gap>
6.906

>  <logP>
3.466

>  <lumo_energy>
0.411

>  <melting_point>
-8.32

>  <molecular_refractivity>
60.61

>  <oscillator_strength_1>
0.0008

>  <oscillator_strength_2>
0.0173

>  <oscillator_strength_3>
0.0817

>  <oscillator_strength_4>
0.0038

>  <open_babel_can_smiles>
CCCCC/C=C/CCCOC(=O)C

>  <mulliken_charges>
36
1   -0.441795
2   -0.524085
3   -0.246334
4   -0.242358
5   -0.258611
6   -0.303796
7   -0.087886
8   -0.093629
9   -0.313516
10   -0.278492
11   -0.043306
12   0.601043
13   -0.469112
14   -0.456148
15   0.140629
16   0.139618
17   0.143599
18   0.178322
19   0.18213
20   0.18361
21   0.128002
22   0.130306
23   0.138338
24   0.122709
25   0.128845
26   0.128884
27   0.134341
28   0.139487
29   0.11635
30   0.115891
31   0.138745
32   0.144483
33   0.166801
34   0.142147
35   0.147452
36   0.167331

>  <lowdin_charges>
36
1   -0.44465
2   -0.463546
3   -0.272294
4   -0.277858
5   -0.274635
6   -0.268976
7   -0.163765
8   -0.170188
9   -0.268864
10   -0.285793
11   -0.131357
12   0.198837
13   -0.268478
14   -0.198618
15   0.148135
16   0.14461
17   0.148629
18   0.172866
19   0.176911
20   0.178811
21   0.13866
22   0.138083
23   0.144777
24   0.135148
25   0.141747
26   0.137831
27   0.14341
28   0.147337
29   0.144318
30   0.144376
31   0.145562
32   0.147888
33   0.158658
34   0.145832
35   0.150122
36   0.156473

$$$$

