PCCDB-ID:  71015
public computational chemistry database (PCCDB) project, http://pccdb.org

 26 28  0  0  0  0  0  0  0  0999 V2000
    1.1681   -0.0015   -0.9654 C   0  0  0  0  0  0  0  0  0  0  0  0
    3.0257    3.5191    0.5334 C   0  0  0  0  0  0  0  0  0  0  0  0
    3.0283   -3.5397    0.4875 C   0  0  0  0  0  0  0  0  0  0  0  0
    4.4135    3.6359    0.5254 C   0  0  0  0  0  0  0  0  0  0  0  0
    4.4162   -3.6552    0.4783 C   0  0  0  0  0  0  0  0  0  0  0  0
    2.4129    2.3165    0.1755 C   0  0  0  0  0  0  0  0  0  0  0  0
    2.4147   -2.3330    0.1448 C   0  0  0  0  0  0  0  0  0  0  0  0
    5.1892    2.5368    0.1514 C   0  0  0  0  0  0  0  0  0  0  0  0
    5.1911   -2.5508    0.1186 C   0  0  0  0  0  0  0  0  0  0  0  0
    3.1794    1.2150   -0.2346 C   0  0  0  0  0  0  0  0  0  0  0  0
    3.1803   -1.2256   -0.2505 C   0  0  0  0  0  0  0  0  0  0  0  0
    4.5826    1.3455   -0.2445 C   0  0  0  0  0  0  0  0  0  0  0  0
    4.5837   -1.3549   -0.2620 C   0  0  0  0  0  0  0  0  0  0  0  0
    2.5851   -0.0030   -0.6402 N   0  0  0  0  0  0  0  0  0  0  0  0
    5.5760   -0.0004   -0.8600 S   0  0  0  0  0  0  0  0  0  0  0  0
    0.9411    0.8882   -1.5577 H   0  0  0  0  0  0  0  0  0  0  0  0
    0.5103   -0.0088   -0.0816 H   0  0  0  0  0  0  0  0  0  0  0  0
    0.9424   -0.8823   -1.5713 H   0  0  0  0  0  0  0  0  0  0  0  0
    2.4069    4.3603    0.8333 H   0  0  0  0  0  0  0  0  0  0  0  0
    2.4100   -4.3850    0.7765 H   0  0  0  0  0  0  0  0  0  0  0  0
    4.8926    4.5674    0.8120 H   0  0  0  0  0  0  0  0  0  0  0  0
    4.8961   -4.5897    0.7533 H   0  0  0  0  0  0  0  0  0  0  0  0
    1.3324    2.2399    0.2203 H   0  0  0  0  0  0  0  0  0  0  0  0
    1.3340   -2.2580    0.1904 H   0  0  0  0  0  0  0  0  0  0  0  0
    6.2735    2.6032    0.1483 H   0  0  0  0  0  0  0  0  0  0  0  0
    6.2755   -2.6163    0.1151 H   0  0  0  0  0  0  0  0  0  0  0  0
  1 14  1  0  0  0  0
  1 17  1  0  0  0  0
  2 19  1  0  0  0  0
  3 20  1  0  0  0  0
  4  2  1  0  0  0  0
  4 21  1  0  0  0  0
  5  3  1  0  0  0  0
  5 22  1  0  0  0  0
  6 23  1  0  0  0  0
  6  2  2  0  0  0  0
  7 24  1  0  0  0  0
  7  3  2  0  0  0  0
  8  4  2  0  0  0  0
  9  5  2  0  0  0  0
 10  6  1  0  0  0  0
 11  7  1  0  0  0  0
 12 10  2  0  0  0  0
 12  8  1  0  0  0  0
 13 11  2  0  0  0  0
 13  9  1  0  0  0  0
 14 11  1  0  0  0  0
 14 10  1  0  0  0  0
 15 13  1  0  0  0  0
 15 12  1  0  0  0  0
 16  1  1  0  0  0  0
 18  1  1  0  0  0  0
 25  8  1  0  0  0  0
 26  9  1  0  0  0  0
M  END
>  <HBA>
1

>  <HBD>
0

>  <TPSA>
28.54

>  <cid>
71015

>  <dipole>
2.2

>  <excitation_energy_1>
3.728

>  <excitation_energy_2>
4.036

>  <excitation_energy_3>
4.165

>  <excitation_energy_4>
4.551

>  <homo_energy>
-5.029

>  <homo_lumo_gap>
4.71

>  <logP>
3.984

>  <lumo_energy>
-0.318

>  <melting_point>
89.83

>  <molecular_refractivity>
67.94

>  <oscillator_strength_1>
0.0005

>  <oscillator_strength_2>
0.0292

>  <oscillator_strength_3>
0.1053

>  <oscillator_strength_4>
0.003

>  <open_babel_can_smiles>
CN1c2ccccc2Sc2c1cccc2

>  <mulliken_charges>
26
1   -0.326848
2   -0.144613
3   -0.144625
4   -0.118436
5   -0.118424
6   -0.171258
7   -0.171239
8   -0.177404
9   -0.17742
10   0.312099
11   0.312088
12   -0.122901
13   -0.122873
14   -0.561808
15   0.162996
16   0.173939
17   0.15146
18   0.173954
19   0.130697
20   0.130696
21   0.129929
22   0.129929
23   0.131619
24   0.131609
25   0.143416
26   0.143419

>  <lowdin_charges>
26
1   -0.353701
2   -0.153963
3   -0.153945
4   -0.169336
5   -0.169314
6   -0.191003
7   -0.190974
8   -0.155485
9   -0.155476
10   0.050407
11   0.050384
12   -0.143195
13   -0.143197
14   -0.090107
15   0.20601
16   0.166085
17   0.14112
18   0.166109
19   0.159942
20   0.159918
21   0.160016
22   0.15999
23   0.160348
24   0.160351
25   0.164508
26   0.164508

$$$$

