PCCDB-ID:  37066
public computational chemistry database (PCCDB) project, http://pccdb.org

 29 28  0  0  0  0  0  0  0  0999 V2000
    4.7076    6.0171   -3.9767 C   0  0  0  0  0  0  0  0  0  0  0  0
    4.3763    5.8639   -1.4746 C   0  0  0  0  0  0  0  0  0  0  0  0
    6.5324    2.2246    1.1179 C   0  0  0  0  0  0  0  0  0  0  0  0
    7.2624    0.2687   -0.3150 C   0  0  0  0  0  0  0  0  0  0  0  0
    5.2062    3.8315   -2.8068 C   0  0  0  0  0  0  0  0  0  0  0  0
    5.7316    3.1089   -1.5935 C   0  0  0  0  0  0  0  0  0  0  0  0
    7.9642    2.5324   -2.4663 C   0  0  0  0  0  0  0  0  0  0  0  0
    5.2053    5.3787   -2.6724 C   0  0  0  0  0  0  0  0  0  0  0  0
    7.3304    1.7984   -0.1205 C   0  0  0  0  0  0  0  0  0  0  0  0
    6.9321    2.5172   -1.4045 C   0  0  0  0  0  0  0  0  0  0  0  0
    9.0788    2.0512   -2.3413 O   0  0  0  0  0  0  0  0  0  0  0  0
    4.7475    7.1110   -3.9186 H   0  0  0  0  0  0  0  0  0  0  0  0
    3.6672    5.7327   -4.1814 H   0  0  0  0  0  0  0  0  0  0  0  0
    5.3142    5.7045   -4.8350 H   0  0  0  0  0  0  0  0  0  0  0  0
    4.3724    6.9587   -1.4240 H   0  0  0  0  0  0  0  0  0  0  0  0
    4.7717    5.4914   -0.5235 H   0  0  0  0  0  0  0  0  0  0  0  0
    3.3325    5.5331   -1.5595 H   0  0  0  0  0  0  0  0  0  0  0  0
    6.9528    1.7510    2.0121 H   0  0  0  0  0  0  0  0  0  0  0  0
    5.4812    1.9162    1.0562 H   0  0  0  0  0  0  0  0  0  0  0  0
    6.5599    3.3102    1.2670 H   0  0  0  0  0  0  0  0  0  0  0  0
    7.6172   -0.2473    0.5850 H   0  0  0  0  0  0  0  0  0  0  0  0
    7.8874   -0.0487   -1.1542 H   0  0  0  0  0  0  0  0  0  0  0  0
    6.2315   -0.0541   -0.5067 H   0  0  0  0  0  0  0  0  0  0  0  0
    4.1686    3.5046   -2.9731 H   0  0  0  0  0  0  0  0  0  0  0  0
    5.7597    3.5626   -3.7114 H   0  0  0  0  0  0  0  0  0  0  0  0
    5.0331    3.0841   -0.7586 H   0  0  0  0  0  0  0  0  0  0  0  0
    7.6875    3.0284   -3.4175 H   0  0  0  0  0  0  0  0  0  0  0  0
    6.2478    5.6908   -2.5139 H   0  0  0  0  0  0  0  0  0  0  0  0
    8.3852    2.0488    0.0494 H   0  0  0  0  0  0  0  0  0  0  0  0
  1 12  1  0  0  0  0
  1  8  1  0  0  0  0
  2 15  1  0  0  0  0
  2 16  1  0  0  0  0
  3 20  1  0  0  0  0
  3 18  1  0  0  0  0
  4  9  1  0  0  0  0
  4 21  1  0  0  0  0
  5  8  1  0  0  0  0
  5  6  1  0  0  0  0
  6 10  2  0  0  0  0
  6 26  1  0  0  0  0
  7 11  2  0  0  0  0
  7 10  1  0  0  0  0
  8 28  1  0  0  0  0
  8  2  1  0  0  0  0
  9 29  1  0  0  0  0
  9  3  1  0  0  0  0
 10  9  1  0  0  0  0
 13  1  1  0  0  0  0
 14  1  1  0  0  0  0
 17  2  1  0  0  0  0
 19  3  1  0  0  0  0
 22  4  1  0  0  0  0
 23  4  1  0  0  0  0
 24  5  1  0  0  0  0
 25  5  1  0  0  0  0
 27  7  1  0  0  0  0
M  END
>  <HBA>
1

>  <HBD>
0

>  <TPSA>
17.07

>  <cid>
37066

>  <dipole>
3.3

>  <excitation_energy_1>
3.583

>  <excitation_energy_2>
5.258

>  <excitation_energy_3>
6.115

>  <excitation_energy_4>
6.253

>  <homo_energy>
-6.659

>  <homo_lumo_gap>
5.192

>  <logP>
2.814

>  <lumo_energy>
-1.467

>  <melting_point>
15.72

>  <molecular_refractivity>
49.91

>  <oscillator_strength_1>
0.0003

>  <oscillator_strength_2>
0.3151

>  <oscillator_strength_3>
0.0016

>  <oscillator_strength_4>
0.0076

>  <open_babel_can_smiles>
O=C/C(=C\CC(C)C)/C(C)C

>  <mulliken_charges>
29
1   -0.442937
2   -0.448948
3   -0.456
4   -0.444084
5   -0.306401
6   -0.169303
7   0.196946
8   -0.065211
9   -0.131076
10   0.109342
11   -0.415099
12   0.146628
13   0.14184
14   0.14378
15   0.147338
16   0.148525
17   0.139764
18   0.147727
19   0.140401
20   0.145456
21   0.142297
22   0.166412
23   0.135939
24   0.143436
25   0.148413
26   0.144012
27   0.103277
28   0.132728
29   0.154797

>  <lowdin_charges>
29
1   -0.44194
2   -0.444689
3   -0.442769
4   -0.441789
5   -0.281421
6   -0.129215
7   0.036104
8   -0.114315
9   -0.118309
10   -0.056928
11   -0.236334
12   0.149864
13   0.146045
14   0.150008
15   0.150562
16   0.150838
17   0.144913
18   0.154462
19   0.143039
20   0.147674
21   0.149754
22   0.161496
23   0.142857
24   0.151112
25   0.151
26   0.160712
27   0.121613
28   0.139169
29   0.15649

$$$$

