PCCDB-ID:  69817
public computational chemistry database (PCCDB) project, http://pccdb.org

 17 16  0  0  0  0  0  0  0  0999 V2000
    1.3837    0.6818   -0.3656 C   0  0  0  0  0  0  0  0  0  0  0  0
    2.3472   -0.2388   -0.3150 C   0  0  0  0  0  0  0  0  0  0  0  0
    3.0032   -0.8791   -1.5075 C   0  0  0  0  0  0  0  0  0  0  0  0
    4.5172   -0.5932   -1.5710 C   0  0  0  0  0  0  0  0  0  0  0  0
    5.2142   -1.2599   -2.7606 C   0  0  0  0  0  0  0  0  0  0  0  0
    5.3694   -2.7610   -2.6513 C   0  0  0  0  0  0  0  0  0  0  0  0
    5.0515   -3.4268   -1.6898 O   0  0  0  0  0  0  0  0  0  0  0  0
    0.9504    1.1088    0.5350 H   0  0  0  0  0  0  0  0  0  0  0  0
    0.9862    1.0416   -1.3130 H   0  0  0  0  0  0  0  0  0  0  0  0
    2.7132   -0.5698    0.6588 H   0  0  0  0  0  0  0  0  0  0  0  0
    2.5216   -0.5239   -2.4290 H   0  0  0  0  0  0  0  0  0  0  0  0
    2.8577   -1.9664   -1.4632 H   0  0  0  0  0  0  0  0  0  0  0  0
    4.9907   -0.9392   -0.6441 H   0  0  0  0  0  0  0  0  0  0  0  0
    4.6747    0.4908   -1.6236 H   0  0  0  0  0  0  0  0  0  0  0  0
    6.2299   -0.8559   -2.9012 H   0  0  0  0  0  0  0  0  0  0  0  0
    4.6953   -1.0462   -3.7084 H   0  0  0  0  0  0  0  0  0  0  0  0
    5.8315   -3.2451   -3.5425 H   0  0  0  0  0  0  0  0  0  0  0  0
  1  2  2  0  0  0  0
  1  8  1  0  0  0  0
  2 10  1  0  0  0  0
  3 12  1  0  0  0  0
  3  2  1  0  0  0  0
  4  3  1  0  0  0  0
  4 13  1  0  0  0  0
  5  6  1  0  0  0  0
  5  4  1  0  0  0  0
  6  7  2  0  0  0  0
  9  1  1  0  0  0  0
 11  3  1  0  0  0  0
 14  4  1  0  0  0  0
 15  5  1  0  0  0  0
 16  5  1  0  0  0  0
 17  6  1  0  0  0  0
M  END
>  <HBA>
1

>  <HBD>
0

>  <TPSA>
17.07

>  <cid>
69817

>  <dipole>
2.43

>  <excitation_energy_1>
4.322

>  <excitation_energy_2>
5.418

>  <excitation_energy_3>
6.42

>  <excitation_energy_4>
6.47

>  <homo_energy>
-6.803

>  <homo_lumo_gap>
6.18

>  <logP>
1.542

>  <lumo_energy>
-0.623

>  <melting_point>
-15.44

>  <molecular_refractivity>
30.68

>  <oscillator_strength_1>
0.0001

>  <oscillator_strength_2>
0.0038

>  <oscillator_strength_3>
0.0073

>  <oscillator_strength_4>
0.0416

>  <open_babel_can_smiles>
C=CCCCC=O

>  <mulliken_charges>
17
1   -0.341859
2   -0.043924
3   -0.305843
4   -0.253005
5   -0.351597
6   0.25564
7   -0.382907
8   0.137724
9   0.131982
10   0.128065
11   0.129732
12   0.166776
13   0.154729
14   0.14177
15   0.166324
16   0.160332
17   0.10606

>  <lowdin_charges>
17
1   -0.346616
2   -0.142324
3   -0.273324
4   -0.271067
5   -0.313805
6   0.057384
7   -0.221914
8   0.15834
9   0.152413
10   0.150797
11   0.141887
12   0.158663
13   0.154199
14   0.146953
15   0.168311
16   0.162868
17   0.117235

$$$$

