PCCDB-ID:  31201
public computational chemistry database (PCCDB) project, http://pccdb.org

 32 32  0  0  0  0  0  0  0  0999 V2000
    0.8959   -0.8440   -0.8109 C   0  0  0  0  0  0  0  0  0  0  0  0
    3.3466   -0.4996   -1.2140 C   0  0  0  0  0  0  0  0  0  0  0  0
    2.8687    4.2907    4.2798 C   0  0  0  0  0  0  0  0  0  0  0  0
    5.0479    3.6198    3.3164 C   0  0  0  0  0  0  0  0  0  0  0  0
    4.1785   -0.9559    2.0688 C   0  0  0  0  0  0  0  0  0  0  0  0
    2.5737   -2.1806    0.5135 C   0  0  0  0  0  0  0  0  0  0  0  0
    2.2818    0.2761    0.9600 C   0  0  0  0  0  0  0  0  0  0  0  0
    3.8397   -2.2025    1.3650 C   0  0  0  0  0  0  0  0  0  0  0  0
    3.4637    0.1683    1.8846 C   0  0  0  0  0  0  0  0  0  0  0  0
    3.0270    2.1606    3.1394 C   0  0  0  0  0  0  0  0  0  0  0  0
    2.2813   -0.8129   -0.1438 C   0  0  0  0  0  0  0  0  0  0  0  0
    3.6382    3.3165    3.5195 N   0  0  0  0  0  0  0  0  0  0  0  0
    4.5164   -3.2143    1.4895 O   0  0  0  0  0  0  0  0  0  0  0  0
    1.8591    1.8768    3.3284 O   0  0  0  0  0  0  0  0  0  0  0  0
    3.9239    1.3129    2.5136 O   0  0  0  0  0  0  0  0  0  0  0  0
    0.8611   -1.6025   -1.6018 H   0  0  0  0  0  0  0  0  0  0  0  0
    0.6568    0.1250   -1.2665 H   0  0  0  0  0  0  0  0  0  0  0  0
    0.1079   -1.0775   -0.0850 H   0  0  0  0  0  0  0  0  0  0  0  0
    3.3568   -1.2781   -1.9856 H   0  0  0  0  0  0  0  0  0  0  0  0
    4.3538   -0.4405   -0.7881 H   0  0  0  0  0  0  0  0  0  0  0  0
    3.1331    0.4569   -1.7062 H   0  0  0  0  0  0  0  0  0  0  0  0
    2.8738    5.2605    3.7665 H   0  0  0  0  0  0  0  0  0  0  0  0
    3.3017    4.4258    5.2797 H   0  0  0  0  0  0  0  0  0  0  0  0
    1.8439    3.9357    4.3742 H   0  0  0  0  0  0  0  0  0  0  0  0
    5.1482    4.6078    2.8501 H   0  0  0  0  0  0  0  0  0  0  0  0
    5.5066    2.8749    2.6709 H   0  0  0  0  0  0  0  0  0  0  0  0
    5.5817    3.6384    4.2764 H   0  0  0  0  0  0  0  0  0  0  0  0
    5.0351   -0.9713    2.7348 H   0  0  0  0  0  0  0  0  0  0  0  0
    1.7381   -2.4489    1.1788 H   0  0  0  0  0  0  0  0  0  0  0  0
    2.6531   -2.9775   -0.2334 H   0  0  0  0  0  0  0  0  0  0  0  0
    2.2711    1.2752    0.5061 H   0  0  0  0  0  0  0  0  0  0  0  0
    1.3659    0.2118    1.5593 H   0  0  0  0  0  0  0  0  0  0  0  0
  1 11  1  0  0  0  0
  1 18  1  0  0  0  0
  2 20  1  0  0  0  0
  2 11  1  0  0  0  0
  3 24  1  0  0  0  0
  3 23  1  0  0  0  0
  4 12  1  0  0  0  0
  4 27  1  0  0  0  0
  5 28  1  0  0  0  0
  6 29  1  0  0  0  0
  6  8  1  0  0  0  0
  7 32  1  0  0  0  0
  7  9  1  0  0  0  0
  8 13  2  0  0  0  0
  8  5  1  0  0  0  0
  9  5  2  0  0  0  0
  9 15  1  0  0  0  0
 10 14  2  0  0  0  0
 10 12  1  0  0  0  0
 11  6  1  0  0  0  0
 11  7  1  0  0  0  0
 12  3  1  0  0  0  0
 15 10  1  0  0  0  0
 16  1  1  0  0  0  0
 17  1  1  0  0  0  0
 19  2  1  0  0  0  0
 21  2  1  0  0  0  0
 22  3  1  0  0  0  0
 25  4  1  0  0  0  0
 26  4  1  0  0  0  0
 30  6  1  0  0  0  0
 31  7  1  0  0  0  0
M  END
>  <HBA>
4

>  <HBD>
0

>  <TPSA>
46.61

>  <cid>
31201

>  <dipole>
5.13

>  <excitation_energy_1>
3.712

>  <excitation_energy_2>
5.032

>  <excitation_energy_3>
5.352

>  <excitation_energy_4>
5.785

>  <homo_energy>
-6.332

>  <homo_lumo_gap>
5.162

>  <logP>
1.958

>  <lumo_energy>
-1.17

>  <melting_point>
71.39

>  <molecular_refractivity>
56.91

>  <oscillator_strength_1>
0.0004

>  <oscillator_strength_2>
0.1607

>  <oscillator_strength_3>
0.1889

>  <oscillator_strength_4>
0.0878

>  <open_babel_can_smiles>
O=C1C=C(OC(=O)N(C)C)CC(C1)(C)C

>  <mulliken_charges>
32
1   -0.448775
2   -0.451066
3   -0.320007
4   -0.317393
5   -0.244748
6   -0.353415
7   -0.336103
8   0.44698
9   0.392619
10   0.790486
11   0.066458
12   -0.435161
13   -0.486676
14   -0.510432
15   -0.534562
16   0.146257
17   0.142642
18   0.144063
19   0.148726
20   0.153499
21   0.140312
22   0.15799
23   0.158998
24   0.207043
25   0.159469
26   0.200209
27   0.161798
28   0.149945
29   0.161406
30   0.16022
31   0.152174
32   0.197047

>  <lowdin_charges>
32
1   -0.441879
2   -0.44719
3   -0.348592
4   -0.351606
5   -0.232752
6   -0.306146
7   -0.288229
8   0.150227
9   0.1391
10   0.211189
11   0.013095
12   -0.099868
13   -0.253553
14   -0.304424
15   -0.167896
16   0.152488
17   0.149578
18   0.150296
19   0.15344
20   0.153729
21   0.14812
22   0.151825
23   0.150987
24   0.185212
25   0.152871
26   0.18132
27   0.152273
28   0.176442
29   0.165803
30   0.164325
31   0.159021
32   0.180794

$$$$

