PCCDB-ID:  58912
public computational chemistry database (PCCDB) project, http://pccdb.org

 26 27  0  0  0  0  0  0  0  0999 V2000
    1.1111    0.4605    0.9242 C   0  0  0  0  0  0  0  0  0  0  0  0
    4.3600   -2.9983    3.1965 C   0  0  0  0  0  0  0  0  0  0  0  0
    4.7518   -1.6592    3.2140 C   0  0  0  0  0  0  0  0  0  0  0  0
    3.4622   -3.4748    2.2440 C   0  0  0  0  0  0  0  0  0  0  0  0
    4.2228   -0.7872    2.2640 C   0  0  0  0  0  0  0  0  0  0  0  0
    0.9205   -6.3814    0.0373 C   0  0  0  0  0  0  0  0  0  0  0  0
    0.2848   -5.6594   -1.1841 C   0  0  0  0  0  0  0  0  0  0  0  0
    2.9313   -2.6011    1.2811 C   0  0  0  0  0  0  0  0  0  0  0  0
    3.3103   -1.2348    1.3037 C   0  0  0  0  0  0  0  0  0  0  0  0
    1.5352   -4.2721    0.0608 C   0  0  0  0  0  0  0  0  0  0  0  0
    1.7029   -5.3513    0.7275 N   0  0  0  0  0  0  0  0  0  0  0  0
    2.0355   -3.0219    0.2936 N   0  0  0  0  0  0  0  0  0  0  0  0
    0.7405   -4.2931   -1.0566 O   0  0  0  0  0  0  0  0  0  0  0  0
    2.6640   -0.0722    0.0953 S   0  0  0  0  0  0  0  0  0  0  0  0
    0.6232    1.1721    0.2523 H   0  0  0  0  0  0  0  0  0  0  0  0
    1.3344    0.9540    1.8729 H   0  0  0  0  0  0  0  0  0  0  0  0
    0.4453   -0.3889    1.0958 H   0  0  0  0  0  0  0  0  0  0  0  0
    4.7607   -3.6917    3.9314 H   0  0  0  0  0  0  0  0  0  0  0  0
    5.4567   -1.2965    3.9563 H   0  0  0  0  0  0  0  0  0  0  0  0
    3.1602   -4.5143    2.2256 H   0  0  0  0  0  0  0  0  0  0  0  0
    4.5120    0.2595    2.2554 H   0  0  0  0  0  0  0  0  0  0  0  0
    1.5693   -7.2115   -0.2679 H   0  0  0  0  0  0  0  0  0  0  0  0
    0.1600   -6.7953    0.7111 H   0  0  0  0  0  0  0  0  0  0  0  0
   -0.8091   -5.6547   -1.1717 H   0  0  0  0  0  0  0  0  0  0  0  0
    0.6294   -6.0439   -2.1488 H   0  0  0  0  0  0  0  0  0  0  0  0
    1.8081   -2.3249   -0.4082 H   0  0  0  0  0  0  0  0  0  0  0  0
  1 17  1  0  0  0  0
  1 16  1  0  0  0  0
  2  3  1  0  0  0  0
  2 18  1  0  0  0  0
  3 19  1  0  0  0  0
  4  2  2  0  0  0  0
  5  3  2  0  0  0  0
  6 23  1  0  0  0  0
  6 11  1  0  0  0  0
  7 24  1  0  0  0  0
  7 13  1  0  0  0  0
  7  6  1  0  0  0  0
  8  9  2  0  0  0  0
  8  4  1  0  0  0  0
  9  5  1  0  0  0  0
 10 12  1  0  0  0  0
 10 11  2  0  0  0  0
 12  8  1  0  0  0  0
 13 10  1  0  0  0  0
 14  1  1  0  0  0  0
 14  9  1  0  0  0  0
 15  1  1  0  0  0  0
 20  4  1  0  0  0  0
 21  5  1  0  0  0  0
 22  6  1  0  0  0  0
 25  7  1  0  0  0  0
 26 12  1  0  0  0  0
M  END
>  <HBA>
4

>  <HBD>
1

>  <TPSA>
58.92

>  <cid>
58912

>  <dipole>
1.82

>  <excitation_energy_1>
4.483

>  <excitation_energy_2>
4.815

>  <excitation_energy_3>
5.0

>  <excitation_energy_4>
5.259

>  <homo_energy>
-5.649

>  <homo_lumo_gap>
5.244

>  <logP>
1.715

>  <lumo_energy>
-0.405

>  <melting_point>
81.85

>  <molecular_refractivity>
63.06

>  <oscillator_strength_1>
0.0834

>  <oscillator_strength_2>
0.0002

>  <oscillator_strength_3>
0.1744

>  <oscillator_strength_4>
0.0248

>  <open_babel_can_smiles>
CSc1ccccc1NC1=NCCO1

>  <mulliken_charges>
26
1   -0.576825
2   -0.145633
3   -0.119938
4   -0.15515
5   -0.147074
6   -0.162659
7   -0.058168
8   0.351675
9   -0.177447
10   0.760567
11   -0.499878
12   -0.773016
13   -0.507711
14   0.067959
15   0.182459
16   0.188328
17   0.186759
18   0.134567
19   0.128586
20   0.191562
21   0.144716
22   0.153589
23   0.152602
24   0.157248
25   0.158292
26   0.36459

>  <lowdin_charges>
26
1   -0.543336
2   -0.140329
3   -0.178363
4   -0.188348
5   -0.145388
6   -0.209987
7   -0.135026
8   0.065492
9   -0.168802
10   0.164123
11   -0.273882
12   -0.232705
13   -0.227446
14   0.125046
15   0.175806
16   0.16822
17   0.167087
18   0.161426
19   0.159704
20   0.189472
21   0.165288
22   0.149925
23   0.149442
24   0.148863
25   0.15113
26   0.302586

$$$$

