PCCDB-ID:  40002
public computational chemistry database (PCCDB) project, http://pccdb.org

 28 28  0  0  0  0  0  0  0  0999 V2000
   -1.6540    0.6986   -0.2159 C   0  0  0  0  0  0  0  0  0  0  0  0
   -0.3991    1.4069   -0.7554 C   0  0  0  0  0  0  0  0  0  0  0  0
   -1.5022   -0.8029    0.0718 C   0  0  0  0  0  0  0  0  0  0  0  0
    0.7363    1.4840    0.2821 C   0  0  0  0  0  0  0  0  0  0  0  0
    1.4659   -3.3659   -0.5800 C   0  0  0  0  0  0  0  0  0  0  0  0
   -0.2682   -1.1997    0.8978 C   0  0  0  0  0  0  0  0  0  0  0  0
    1.6555    0.2519    0.3529 C   0  0  0  0  0  0  0  0  0  0  0  0
    1.9015   -2.1560    0.2539 C   0  0  0  0  0  0  0  0  0  0  0  0
    2.4347   -4.4571   -0.4191 N   0  0  0  0  0  0  0  0  0  0  0  0
    0.9785   -1.0277    0.1399 N   0  0  0  0  0  0  0  0  0  0  0  0
   -2.4817    0.8341   -0.9253 H   0  0  0  0  0  0  0  0  0  0  0  0
   -1.9620    1.2119    0.7076 H   0  0  0  0  0  0  0  0  0  0  0  0
   -0.6826    2.4278   -1.0433 H   0  0  0  0  0  0  0  0  0  0  0  0
   -0.0443    0.9108   -1.6681 H   0  0  0  0  0  0  0  0  0  0  0  0
   -1.4462   -1.3543   -0.8758 H   0  0  0  0  0  0  0  0  0  0  0  0
   -2.4059   -1.1533    0.5911 H   0  0  0  0  0  0  0  0  0  0  0  0
    0.2924    1.6772    1.2678 H   0  0  0  0  0  0  0  0  0  0  0  0
    1.3776    2.3504    0.0750 H   0  0  0  0  0  0  0  0  0  0  0  0
    1.3162   -3.0296   -1.6207 H   0  0  0  0  0  0  0  0  0  0  0  0
    0.4950   -3.7338   -0.2263 H   0  0  0  0  0  0  0  0  0  0  0  0
   -0.3638   -2.2573    1.1670 H   0  0  0  0  0  0  0  0  0  0  0  0
   -0.2444   -0.6485    1.8550 H   0  0  0  0  0  0  0  0  0  0  0  0
    2.1965    0.2787    1.3214 H   0  0  0  0  0  0  0  0  0  0  0  0
    2.4210    0.3368   -0.4302 H   0  0  0  0  0  0  0  0  0  0  0  0
    2.8804   -1.8237   -0.1172 H   0  0  0  0  0  0  0  0  0  0  0  0
    2.0602   -2.4776    1.2997 H   0  0  0  0  0  0  0  0  0  0  0  0
    3.3103   -4.2051   -0.8772 H   0  0  0  0  0  0  0  0  0  0  0  0
    2.0994   -5.2886   -0.9021 H   0  0  0  0  0  0  0  0  0  0  0  0
  1  3  1  0  0  0  0
  1 12  1  0  0  0  0
  2  1  1  0  0  0  0
  2  4  1  0  0  0  0
  3 16  1  0  0  0  0
  3  6  1  0  0  0  0
  4  7  1  0  0  0  0
  4 17  1  0  0  0  0
  5  9  1  0  0  0  0
  5 20  1  0  0  0  0
  5  8  1  0  0  0  0
  6 21  1  0  0  0  0
  6 22  1  0  0  0  0
  7 23  1  0  0  0  0
  8 26  1  0  0  0  0
 10  8  1  0  0  0  0
 10  7  1  0  0  0  0
 10  6  1  0  0  0  0
 11  1  1  0  0  0  0
 13  2  1  0  0  0  0
 14  2  1  0  0  0  0
 15  3  1  0  0  0  0
 18  4  1  0  0  0  0
 19  5  1  0  0  0  0
 24  7  1  0  0  0  0
 25  8  1  0  0  0  0
 27  9  1  0  0  0  0
 28  9  1  0  0  0  0
M  END
>  <HBA>
2

>  <HBD>
1

>  <TPSA>
29.26

>  <cid>
40002

>  <dipole>
0.94

>  <excitation_energy_1>
4.959

>  <excitation_energy_2>
5.19

>  <excitation_energy_3>
5.292

>  <excitation_energy_4>
5.447

>  <homo_energy>
-5.38

>  <homo_lumo_gap>
7.646

>  <logP>
1.459

>  <lumo_energy>
2.267

>  <melting_point>
51.57

>  <molecular_refractivity>
47.97

>  <oscillator_strength_1>
0.0049

>  <oscillator_strength_2>
0.0294

>  <oscillator_strength_3>
0.0253

>  <oscillator_strength_4>
0.0467

>  <open_babel_can_smiles>
NCCN1CCCCCC1

>  <mulliken_charges>
28
1   -0.260789
2   -0.244523
3   -0.236609
4   -0.287962
5   -0.140712
6   -0.141801
7   -0.108018
8   -0.110449
9   -0.719806
10   -0.39055
11   0.127543
12   0.124334
13   0.125351
14   0.14094
15   0.135295
16   0.11961
17   0.134114
18   0.134301
19   0.121495
20   0.138833
21   0.138005
22   0.120091
23   0.107358
24   0.132422
25   0.124044
26   0.128926
27   0.291656
28   0.296902

>  <lowdin_charges>
28
1   -0.277556
2   -0.27734
3   -0.28249
4   -0.288718
5   -0.212376
6   -0.200207
7   -0.199099
8   -0.201534
9   -0.559478
10   -0.196218
11   0.142554
12   0.13497
13   0.140921
14   0.146447
15   0.142798
16   0.13955
17   0.13868
18   0.148953
19   0.120922
20   0.140105
21   0.14545
22   0.126572
23   0.115847
24   0.138623
25   0.138882
26   0.126549
27   0.250939
28   0.256255

$$$$

