PCCDB-ID:  23347
public computational chemistry database (PCCDB) project, http://pccdb.org

 18 19  0  0  0  0  0  0  0  0999 V2000
   -1.0602    1.8772   -0.9839 C   0  0  0  0  0  0  0  0  0  0  0  0
   -0.3443   -4.5030    3.7222 C   0  0  0  0  0  0  0  0  0  0  0  0
   -0.0955    0.8413   -1.1083 C   0  0  0  0  0  0  0  0  0  0  0  0
    0.4068   -4.2334    2.5464 C   0  0  0  0  0  0  0  0  0  0  0  0
   -1.5167    2.0244    0.3018 C   0  0  0  0  0  0  0  0  0  0  0  0
   -1.5750   -3.8959    3.7154 C   0  0  0  0  0  0  0  0  0  0  0  0
    0.1766    0.2049    0.0838 C   0  0  0  0  0  0  0  0  0  0  0  0
   -0.2561   -3.4217    1.6510 C   0  0  0  0  0  0  0  0  0  0  0  0
   -0.7757    0.9006    1.3847 S   0  0  0  0  0  0  0  0  0  0  0  0
   -1.8392   -2.9842    2.2718 S   0  0  0  0  0  0  0  0  0  0  0  0
    1.3516   -1.0691    0.3643 S   0  0  0  0  0  0  0  0  0  0  0  0
    0.2958   -2.9192    0.0620 S   0  0  0  0  0  0  0  0  0  0  0  0
   -1.4008    2.4896   -1.8117 H   0  0  0  0  0  0  0  0  0  0  0  0
    0.0109   -5.1224    4.5385 H   0  0  0  0  0  0  0  0  0  0  0  0
    0.3901    0.5640   -2.0371 H   0  0  0  0  0  0  0  0  0  0  0  0
    1.4018   -4.6181    2.3529 H   0  0  0  0  0  0  0  0  0  0  0  0
   -2.2445    2.7359    0.6703 H   0  0  0  0  0  0  0  0  0  0  0  0
   -2.3410   -3.9401    4.4789 H   0  0  0  0  0  0  0  0  0  0  0  0
  1  5  2  0  0  0  0
  2 14  1  0  0  0  0
  3  1  1  0  0  0  0
  3  7  2  0  0  0  0
  4  2  1  0  0  0  0
  5 17  1  0  0  0  0
  5  9  1  0  0  0  0
  6  2  2  0  0  0  0
  6 18  1  0  0  0  0
  7 11  1  0  0  0  0
  7  9  1  0  0  0  0
  8 10  1  0  0  0  0
  8  4  2  0  0  0  0
 10  6  1  0  0  0  0
 12 11  1  0  0  0  0
 12  8  1  0  0  0  0
 13  1  1  0  0  0  0
 15  3  1  0  0  0  0
 16  4  1  0  0  0  0
M  END
>  <HBA>
4

>  <HBD>
0

>  <TPSA>
107.08

>  <cid>
23347

>  <dipole>
1.94

>  <excitation_energy_1>
3.728

>  <excitation_energy_2>
3.776

>  <excitation_energy_3>
3.916

>  <excitation_energy_4>
4.408

>  <homo_energy>
-6.248

>  <homo_lumo_gap>
4.302

>  <logP>
4.609

>  <lumo_energy>
-1.946

>  <melting_point>
54.63

>  <molecular_refractivity>
60.35

>  <oscillator_strength_1>
0.0075

>  <oscillator_strength_2>
0.1146

>  <oscillator_strength_3>
0.2698

>  <oscillator_strength_4>
0.0269

>  <open_babel_can_smiles>
c1csc(c1)SSc1cccs1

>  <mulliken_charges>
18
1   -0.08995
2   -0.090196
3   -0.080389
4   -0.08026
5   -0.346341
6   -0.346427
7   -0.321086
8   -0.320877
9   0.303477
10   0.303408
11   0.040504
12   0.040489
13   0.149253
14   0.14927
15   0.162246
16   0.162251
17   0.182283
18   0.182345

>  <lowdin_charges>
18
1   -0.18159
2   -0.181498
3   -0.159679
4   -0.15884
5   -0.309874
6   -0.30984
7   -0.31318
8   -0.313256
9   0.341327
10   0.341373
11   0.089817
12   0.089858
13   0.170448
14   0.170337
15   0.176565
16   0.175669
17   0.186289
18   0.186073

$$$$

