PCCDB-ID:  7062
public computational chemistry database (PCCDB) project, http://pccdb.org

 27 27  0  0  0  0  0  0  0  0999 V2000
    2.8284   -0.8583   -0.2016 C   0  0  0  0  0  0  0  0  0  0  0  0
    2.0309    3.2185    1.6678 C   0  0  0  0  0  0  0  0  0  0  0  0
    2.9952    0.6655   -0.2884 C   0  0  0  0  0  0  0  0  0  0  0  0
    2.4366    1.7520    1.8705 C   0  0  0  0  0  0  0  0  0  0  0  0
    7.1556    0.9795    0.7014 C   0  0  0  0  0  0  0  0  0  0  0  0
    5.8061    0.8294    0.4020 C   0  0  0  0  0  0  0  0  0  0  0  0
    7.5872    1.6989    1.8153 C   0  0  0  0  0  0  0  0  0  0  0  0
    5.2569    2.1509    2.3526 C   0  0  0  0  0  0  0  0  0  0  0  0
    4.8171    1.4197    1.2285 C   0  0  0  0  0  0  0  0  0  0  0  0
    6.6159    2.2791    2.6358 C   0  0  0  0  0  0  0  0  0  0  0  0
    3.4637    1.2847    0.9461 N   0  0  0  0  0  0  0  0  0  0  0  0
    6.9408    3.0097    3.7506 O   0  0  0  0  0  0  0  0  0  0  0  0
    2.4569   -1.2607   -1.1518 H   0  0  0  0  0  0  0  0  0  0  0  0
    2.1130   -1.1284    0.5835 H   0  0  0  0  0  0  0  0  0  0  0  0
    3.7800   -1.3464    0.0314 H   0  0  0  0  0  0  0  0  0  0  0  0
    1.2474    3.5037    2.3803 H   0  0  0  0  0  0  0  0  0  0  0  0
    1.6432    3.3797    0.6553 H   0  0  0  0  0  0  0  0  0  0  0  0
    2.8850    3.8880    1.8093 H   0  0  0  0  0  0  0  0  0  0  0  0
    2.0320    1.1236   -0.5440 H   0  0  0  0  0  0  0  0  0  0  0  0
    3.6750    0.9281   -1.1059 H   0  0  0  0  0  0  0  0  0  0  0  0
    1.5575    1.1089    1.7413 H   0  0  0  0  0  0  0  0  0  0  0  0
    2.7759    1.5886    2.8990 H   0  0  0  0  0  0  0  0  0  0  0  0
    7.8919    0.5133    0.0512 H   0  0  0  0  0  0  0  0  0  0  0  0
    5.5258    0.2380   -0.4605 H   0  0  0  0  0  0  0  0  0  0  0  0
    8.6457    1.8048    2.0424 H   0  0  0  0  0  0  0  0  0  0  0  0
    4.5645    2.6515    3.0169 H   0  0  0  0  0  0  0  0  0  0  0  0
    7.9068    3.0384    3.8271 H   0  0  0  0  0  0  0  0  0  0  0  0
  1 15  1  0  0  0  0
  1 14  1  0  0  0  0
  2 18  1  0  0  0  0
  2  4  1  0  0  0  0
  2 16  1  0  0  0  0
  3  1  1  0  0  0  0
  3 11  1  0  0  0  0
  4 22  1  0  0  0  0
  5  7  1  0  0  0  0
  6  5  2  0  0  0  0
  6  9  1  0  0  0  0
  7 25  1  0  0  0  0
  7 10  2  0  0  0  0
  8 10  1  0  0  0  0
  8 26  1  0  0  0  0
  9  8  2  0  0  0  0
 10 12  1  0  0  0  0
 11  9  1  0  0  0  0
 11  4  1  0  0  0  0
 12 27  1  0  0  0  0
 13  1  1  0  0  0  0
 17  2  1  0  0  0  0
 19  3  1  0  0  0  0
 20  3  1  0  0  0  0
 21  4  1  0  0  0  0
 23  5  1  0  0  0  0
 24  6  1  0  0  0  0
M  END
>  <HBA>
2

>  <HBD>
1

>  <TPSA>
23.47

>  <cid>
7062

>  <dipole>
1.05

>  <excitation_energy_1>
4.439

>  <excitation_energy_2>
4.5

>  <excitation_energy_3>
4.59

>  <excitation_energy_4>
4.839

>  <homo_energy>
-4.874

>  <homo_lumo_gap>
5.391

>  <logP>
2.238

>  <lumo_energy>
0.517

>  <melting_point>
52.31

>  <molecular_refractivity>
52.29

>  <oscillator_strength_1>
0.0064

>  <oscillator_strength_2>
0.0511

>  <oscillator_strength_3>
0.0138

>  <oscillator_strength_4>
0.1002

>  <open_babel_can_smiles>
CCN(c1cccc(c1)O)CC

>  <mulliken_charges>
27
1   -0.442276
2   -0.443331
3   -0.149048
4   -0.147923
5   -0.14023
6   -0.199949
7   -0.210827
8   -0.24734
9   0.372979
10   0.352331
11   -0.481392
12   -0.649512
13   0.140972
14   0.148442
15   0.162128
16   0.141808
17   0.147058
18   0.16515
19   0.144231
20   0.154464
21   0.14342
22   0.157226
23   0.122068
24   0.118451
25   0.10534
26   0.131223
27   0.404537

>  <lowdin_charges>
27
1   -0.45798
2   -0.457396
3   -0.195336
4   -0.195001
5   -0.138233
6   -0.23699
7   -0.252111
8   -0.251213
9   0.074723
10   0.113056
11   -0.114908
12   -0.38342
13   0.150631
14   0.151538
15   0.156835
16   0.151884
17   0.14936
18   0.158786
19   0.146459
20   0.151339
21   0.146749
22   0.150906
23   0.156281
24   0.156543
25   0.147293
26   0.167197
27   0.353004

$$$$

