PCCDB-ID:  41042
public computational chemistry database (PCCDB) project, http://pccdb.org

 25 25  0  0  0  0  0  0  0  0999 V2000
    0.9192    0.4021    0.1001 C   0  0  0  0  0  0  0  0  0  0  0  0
    2.4138    0.0427    0.1815 C   0  0  0  0  0  0  0  0  0  0  0  0
    2.6961   -2.4801    0.0980 C   0  0  0  0  0  0  0  0  0  0  0  0
    3.1022   -1.2269   -1.9065 C   0  0  0  0  0  0  0  0  0  0  0  0
    2.9734   -3.6640   -0.5835 C   0  0  0  0  0  0  0  0  0  0  0  0
    3.3843   -2.4107   -2.5903 C   0  0  0  0  0  0  0  0  0  0  0  0
    3.5669   -4.9390   -2.6998 C   0  0  0  0  0  0  0  0  0  0  0  0
    2.2950   -5.4545   -3.4018 C   0  0  0  0  0  0  0  0  0  0  0  0
    2.7520   -1.2389   -0.5508 C   0  0  0  0  0  0  0  0  0  0  0  0
    3.3237   -3.6531   -1.9408 C   0  0  0  0  0  0  0  0  0  0  0  0
    1.7900   -4.5463   -4.3679 O   0  0  0  0  0  0  0  0  0  0  0  0
    0.7098    1.3328    0.6399 H   0  0  0  0  0  0  0  0  0  0  0  0
    0.3004   -0.3904    0.5361 H   0  0  0  0  0  0  0  0  0  0  0  0
    0.6030    0.5345   -0.9408 H   0  0  0  0  0  0  0  0  0  0  0  0
    2.7045   -0.0493    1.2357 H   0  0  0  0  0  0  0  0  0  0  0  0
    3.0053    0.8689   -0.2329 H   0  0  0  0  0  0  0  0  0  0  0  0
    2.4390   -2.5186    1.1548 H   0  0  0  0  0  0  0  0  0  0  0  0
    3.1683   -0.2769   -2.4331 H   0  0  0  0  0  0  0  0  0  0  0  0
    2.9263   -4.6120   -0.0513 H   0  0  0  0  0  0  0  0  0  0  0  0
    3.6738   -2.3712   -3.6380 H   0  0  0  0  0  0  0  0  0  0  0  0
    4.3405   -4.7874   -3.4623 H   0  0  0  0  0  0  0  0  0  0  0  0
    3.9283   -5.7192   -2.0173 H   0  0  0  0  0  0  0  0  0  0  0  0
    1.5308   -5.6971   -2.6451 H   0  0  0  0  0  0  0  0  0  0  0  0
    2.5237   -6.3750   -3.9488 H   0  0  0  0  0  0  0  0  0  0  0  0
    1.5686   -3.7258   -3.8976 H   0  0  0  0  0  0  0  0  0  0  0  0
  1  2  1  0  0  0  0
  1 13  1  0  0  0  0
  1 12  1  0  0  0  0
  2 15  1  0  0  0  0
  3 17  1  0  0  0  0
  4  9  2  0  0  0  0
  5 19  1  0  0  0  0
  5  3  2  0  0  0  0
  6 10  2  0  0  0  0
  6  4  1  0  0  0  0
  7 22  1  0  0  0  0
  7 10  1  0  0  0  0
  8  7  1  0  0  0  0
  8 23  1  0  0  0  0
  9  3  1  0  0  0  0
  9  2  1  0  0  0  0
 10  5  1  0  0  0  0
 11 25  1  0  0  0  0
 11  8  1  0  0  0  0
 14  1  1  0  0  0  0
 16  2  1  0  0  0  0
 18  4  1  0  0  0  0
 20  6  1  0  0  0  0
 21  7  1  0  0  0  0
 24  8  1  0  0  0  0
M  END
>  <HBA>
1

>  <HBD>
1

>  <TPSA>
20.23

>  <cid>
41042

>  <dipole>
1.93

>  <excitation_energy_1>
5.166

>  <excitation_energy_2>
5.616

>  <excitation_energy_3>
5.91

>  <excitation_energy_4>
6.19

>  <homo_energy>
-6.376

>  <homo_lumo_gap>
6.264

>  <logP>
1.784

>  <lumo_energy>
-0.112

>  <melting_point>
29.28

>  <molecular_refractivity>
47.15

>  <oscillator_strength_1>
0.0032

>  <oscillator_strength_2>
0.1392

>  <oscillator_strength_3>
0.0001

>  <oscillator_strength_4>
0.0539

>  <open_babel_can_smiles>
OCCc1ccc(cc1)CC

>  <mulliken_charges>
25
1   -0.433713
2   -0.340286
3   -0.180285
4   -0.180643
5   -0.179823
6   -0.205445
7   -0.354341
8   -0.024638
9   0.176315
10   0.147207
11   -0.618461
12   0.144789
13   0.149075
14   0.148903
15   0.143618
16   0.144009
17   0.123385
18   0.124591
19   0.123537
20   0.138089
21   0.153612
22   0.138697
23   0.122394
24   0.145853
25   0.39356

>  <lowdin_charges>
25
1   -0.440636
2   -0.270707
3   -0.16213
4   -0.16707
5   -0.166594
6   -0.176706
7   -0.294302
8   -0.133396
9   -0.002274
10   -0.014153
11   -0.469033
12   0.15011
13   0.151525
14   0.149307
15   0.147742
16   0.150273
17   0.153055
18   0.155227
19   0.154629
20   0.158444
21   0.156379
22   0.153426
23   0.12703
24   0.147657
25   0.342196

$$$$

