PCCDB-ID:  11526
public computational chemistry database (PCCDB) project, http://pccdb.org

 17 17  0  0  0  0  0  0  0  0999 V2000
    0.9993    0.0514    0.0947 C   0  0  0  0  0  0  0  0  0  0  0  0
    6.7558   -0.0925   -0.4941 C   0  0  0  0  0  0  0  0  0  0  0  0
    3.2179    1.2828   -0.1470 C   0  0  0  0  0  0  0  0  0  0  0  0
    4.6050    1.2495   -0.2858 C   0  0  0  0  0  0  0  0  0  0  0  0
    3.2545   -1.0925   -0.1242 C   0  0  0  0  0  0  0  0  0  0  0  0
    2.5003    0.0886   -0.0611 C   0  0  0  0  0  0  0  0  0  0  0  0
    5.2590    0.0147   -0.3373 C   0  0  0  0  0  0  0  0  0  0  0  0
    4.5807   -1.1448   -0.2558 N   0  0  0  0  0  0  0  0  0  0  0  0
    0.5735    1.0597    0.0760 H   0  0  0  0  0  0  0  0  0  0  0  0
    0.7049   -0.4159    1.0427 H   0  0  0  0  0  0  0  0  0  0  0  0
    0.5256   -0.5258   -0.7087 H   0  0  0  0  0  0  0  0  0  0  0  0
    7.2403    0.8876   -0.4478 H   0  0  0  0  0  0  0  0  0  0  0  0
    7.0094   -0.5577   -1.4543 H   0  0  0  0  0  0  0  0  0  0  0  0
    7.1769   -0.7311    0.2899 H   0  0  0  0  0  0  0  0  0  0  0  0
    2.6956    2.2364   -0.1039 H   0  0  0  0  0  0  0  0  0  0  0  0
    5.1746    2.1722   -0.3543 H   0  0  0  0  0  0  0  0  0  0  0  0
    2.7483   -2.0571   -0.0627 H   0  0  0  0  0  0  0  0  0  0  0  0
  1 10  1  0  0  0  0
  2 12  1  0  0  0  0
  2  7  1  0  0  0  0
  2 14  1  0  0  0  0
  3 15  1  0  0  0  0
  3  6  2  0  0  0  0
  4  3  1  0  0  0  0
  5 17  1  0  0  0  0
  5  6  1  0  0  0  0
  6  1  1  0  0  0  0
  7  4  2  0  0  0  0
  7  8  1  0  0  0  0
  8  5  2  0  0  0  0
  9  1  1  0  0  0  0
 11  1  1  0  0  0  0
 13  2  1  0  0  0  0
 16  4  1  0  0  0  0
M  END
>  <HBA>
1

>  <HBD>
0

>  <TPSA>
12.89

>  <cid>
11526

>  <dipole>
1.92

>  <excitation_energy_1>
4.831

>  <excitation_energy_2>
5.201

>  <excitation_energy_3>
5.217

>  <excitation_energy_4>
5.942

>  <homo_energy>
-6.52

>  <homo_lumo_gap>
6.101

>  <logP>
1.698

>  <lumo_energy>
-0.419

>  <melting_point>
27.5

>  <molecular_refractivity>
34.17

>  <oscillator_strength_1>
0.004

>  <oscillator_strength_2>
0.0012

>  <oscillator_strength_3>
0.0498

>  <oscillator_strength_4>
0.106

>  <open_babel_can_smiles>
Cc1ccc(cn1)C

>  <mulliken_charges>
17
1   -0.53369
2   -0.502359
3   -0.149109
4   -0.168269
5   -0.006657
6   0.155349
7   0.299161
8   -0.460926
9   0.156298
10   0.16717
11   0.166302
12   0.145854
13   0.169398
14   0.170706
15   0.131518
16   0.12822
17   0.131033

>  <lowdin_charges>
17
1   -0.442153
2   -0.445369
3   -0.141507
4   -0.185863
5   -0.09814
6   -0.023435
7   0.05213
8   -0.157619
9   0.157308
10   0.163283
11   0.164038
12   0.152063
13   0.166931
14   0.169162
15   0.157873
16   0.16
17   0.151297

$$$$

