PCCDB-ID:  23395
public computational chemistry database (PCCDB) project, http://pccdb.org

 22 21  0  0  0  0  0  0  0  0999 V2000
    0.8107   -0.0958   -0.0561 C   0  0  0  0  0  0  0  0  0  0  0  0
    2.3419   -0.1134   -0.1055 C   0  0  0  0  0  0  0  0  0  0  0  0
    2.9794    0.9077    0.8452 C   0  0  0  0  0  0  0  0  0  0  0  0
    6.7700    3.0180    2.7558 C   0  0  0  0  0  0  0  0  0  0  0  0
    8.2176    3.1987    2.8787 C   0  0  0  0  0  0  0  0  0  0  0  0
    4.5013    0.8913    0.7934 C   0  0  0  0  0  0  0  0  0  0  0  0
    6.4044    1.9392    1.7266 C   0  0  0  0  0  0  0  0  0  0  0  0
    9.3680    3.3276    2.9623 N   0  0  0  0  0  0  0  0  0  0  0  0
    4.9977    1.8643    1.7039 O   0  0  0  0  0  0  0  0  0  0  0  0
    0.3819   -0.8339   -0.7430 H   0  0  0  0  0  0  0  0  0  0  0  0
    0.4169    0.8889   -0.3353 H   0  0  0  0  0  0  0  0  0  0  0  0
    0.4446   -0.3251    0.9520 H   0  0  0  0  0  0  0  0  0  0  0  0
    2.6764    0.0854   -1.1335 H   0  0  0  0  0  0  0  0  0  0  0  0
    2.7034   -1.1211    0.1439 H   0  0  0  0  0  0  0  0  0  0  0  0
    2.6624    0.7098    1.8776 H   0  0  0  0  0  0  0  0  0  0  0  0
    2.6321    1.9197    0.5986 H   0  0  0  0  0  0  0  0  0  0  0  0
    6.3080    3.9679    2.4633 H   0  0  0  0  0  0  0  0  0  0  0  0
    6.3531    2.7429    3.7314 H   0  0  0  0  0  0  0  0  0  0  0  0
    4.8571    1.1147   -0.2270 H   0  0  0  0  0  0  0  0  0  0  0  0
    4.8881   -0.1068    1.0614 H   0  0  0  0  0  0  0  0  0  0  0  0
    6.8517    0.9740    2.0141 H   0  0  0  0  0  0  0  0  0  0  0  0
    6.8064    2.2085    0.7365 H   0  0  0  0  0  0  0  0  0  0  0  0
  1 12  1  0  0  0  0
  2  1  1  0  0  0  0
  2 14  1  0  0  0  0
  2  3  1  0  0  0  0
  3 15  1  0  0  0  0
  4  5  1  0  0  0  0
  4 18  1  0  0  0  0
  5  8  3  0  0  0  0
  6  3  1  0  0  0  0
  6 20  1  0  0  0  0
  6  9  1  0  0  0  0
  7 21  1  0  0  0  0
  7  4  1  0  0  0  0
  9  7  1  0  0  0  0
 10  1  1  0  0  0  0
 11  1  1  0  0  0  0
 13  2  1  0  0  0  0
 16  3  1  0  0  0  0
 17  4  1  0  0  0  0
 19  6  1  0  0  0  0
 22  7  1  0  0  0  0
M  END
>  <HBA>
2

>  <HBD>
0

>  <TPSA>
33.02

>  <cid>
23395

>  <dipole>
4.04

>  <excitation_energy_1>
6.747

>  <excitation_energy_2>
7.134

>  <excitation_energy_3>
7.329

>  <excitation_energy_4>
7.384

>  <homo_energy>
-7.369

>  <homo_lumo_gap>
8.24

>  <logP>
1.717

>  <lumo_energy>
0.871

>  <melting_point>
-2.28

>  <molecular_refractivity>
36.6

>  <oscillator_strength_1>
0.0102

>  <oscillator_strength_2>
0.0228

>  <oscillator_strength_3>
0.0014

>  <oscillator_strength_4>
0.0283

>  <open_babel_can_smiles>
CCCCOCCC#N

>  <mulliken_charges>
22
1   -0.440777
2   -0.258161
3   -0.266962
4   -0.355545
5   0.344452
6   -0.009884
7   -0.000819
8   -0.468864
9   -0.48318
10   0.145903
11   0.145373
12   0.145383
13   0.134996
14   0.135051
15   0.145523
16   0.145451
17   0.206211
18   0.206151
19   0.122752
20   0.122889
21   0.141964
22   0.142093

>  <lowdin_charges>
22
1   -0.442987
2   -0.270627
3   -0.278106
4   -0.27564
5   -0.019134
6   -0.126133
7   -0.119376
8   -0.124492
9   -0.273049
10   0.152743
11   0.148217
12   0.147936
13   0.139829
14   0.140162
15   0.147502
16   0.147769
17   0.188173
18   0.187874
19   0.126724
20   0.127069
21   0.137928
22   0.137617

$$$$

