PCCDB-ID:  36793
public computational chemistry database (PCCDB) project, http://pccdb.org

 32 33  0  0  1  0  0  0  0  0999 V2000
    0.8013    1.3709   -1.1756 C   0  0  0  0  0  0  0  0  0  0  0  0
    9.2691    0.9771   -3.2031 C   0  0  0  0  0  0  0  0  0  0  0  0
    2.2775    1.0719   -1.4236 C   0  0  0  0  0  0  0  0  0  0  0  0
    8.2515    5.5856   -3.0397 C   0  0  0  0  0  0  0  0  0  0  0  0
    6.8654    5.4349   -3.1622 C   0  0  0  0  0  0  0  0  0  0  0  0
    9.0681    4.4753   -2.8154 C   0  0  0  0  0  0  0  0  0  0  0  0
    4.8971    3.6625   -3.1383 C   0  0  0  0  0  0  0  0  0  0  0  0
    4.5475    2.0005   -1.2010 C   0  0  0  0  0  0  0  0  0  0  0  0
    6.3219    4.1604   -3.0420 C   0  0  0  0  0  0  0  0  0  0  0  0
    5.0292    2.2019   -2.6448 C   0  0  2  0  0  0  0  0  0  0  0  0
    8.5329    3.1868   -2.6895 C   0  0  0  0  0  0  0  0  0  0  0  0
    7.1427    3.0585   -2.7996 C   0  0  0  0  0  0  0  0  0  0  0  0
    3.1089    2.2261   -1.0757 N   0  0  0  0  0  0  0  0  0  0  0  0
    9.3864    2.1530   -2.3997 O   0  0  0  0  0  0  0  0  0  0  0  0
    6.4522    1.8780   -2.6810 O   0  0  0  0  0  0  0  0  0  0  0  0
    0.1769    0.5192   -1.4663 H   0  0  0  0  0  0  0  0  0  0  0  0
    0.4843    2.2488   -1.7479 H   0  0  0  0  0  0  0  0  0  0  0  0
    0.6125    1.5728   -0.1133 H   0  0  0  0  0  0  0  0  0  0  0  0
   10.0576    0.3029   -2.8609 H   0  0  0  0  0  0  0  0  0  0  0  0
    9.4297    1.2122   -4.2641 H   0  0  0  0  0  0  0  0  0  0  0  0
    8.2934    0.4983   -3.0819 H   0  0  0  0  0  0  0  0  0  0  0  0
    2.4275    0.8459   -2.4870 H   0  0  0  0  0  0  0  0  0  0  0  0
    2.5750    0.1606   -0.8693 H   0  0  0  0  0  0  0  0  0  0  0  0
    8.7011    6.5706   -3.1266 H   0  0  0  0  0  0  0  0  0  0  0  0
    6.2283    6.2960   -3.3455 H   0  0  0  0  0  0  0  0  0  0  0  0
   10.1447    4.5819   -2.7221 H   0  0  0  0  0  0  0  0  0  0  0  0
    4.5260    3.7092   -4.1704 H   0  0  0  0  0  0  0  0  0  0  0  0
    4.1855    4.2126   -2.5139 H   0  0  0  0  0  0  0  0  0  0  0  0
    5.0703    2.7298   -0.5709 H   0  0  0  0  0  0  0  0  0  0  0  0
    4.8625    0.9959   -0.8667 H   0  0  0  0  0  0  0  0  0  0  0  0
    4.5381    1.4905   -3.3145 H   0  0  0  0  0  0  0  0  0  0  0  0
    2.8959    2.5036   -0.1202 H   0  0  0  0  0  0  0  0  0  0  0  0
  1 18  1  0  0  0  0
  2 21  1  0  0  0  0
  2 19  1  0  0  0  0
  2 14  1  0  0  0  0
  3  1  1  0  0  0  0
  3 13  1  0  0  0  0
  3 23  1  0  0  0  0
  4  6  2  0  0  0  0
  5  9  2  0  0  0  0
  5  4  1  0  0  0  0
  6 26  1  0  0  0  0
  6 11  1  0  0  0  0
  7  9  1  0  0  0  0
  7 10  1  0  0  0  0
  7 28  1  0  0  0  0
  8 13  1  0  0  0  0
  8 30  1  0  0  0  0
  8 29  1  0  0  0  0
  9 12  1  0  0  0  0
 10 31  1  6  0  0  0
 10  8  1  0  0  0  0
 11 14  1  0  0  0  0
 12 11  2  0  0  0  0
 12 15  1  0  0  0  0
 13 32  1  0  0  0  0
 15 10  1  0  0  0  0
 16  1  1  0  0  0  0
 17  1  1  0  0  0  0
 20  2  1  0  0  0  0
 22  3  1  0  0  0  0
 24  4  1  0  0  0  0
 25  5  1  0  0  0  0
 27  7  1  0  0  0  0
M  END
>  <HBA>
3

>  <HBD>
1

>  <TPSA>
30.49

>  <cid>
36793

>  <dipole>
2.49

>  <excitation_energy_1>
4.776

>  <excitation_energy_2>
5.227

>  <excitation_energy_3>
5.379

>  <excitation_energy_4>
5.43

>  <homo_energy>
-5.453

>  <homo_lumo_gap>
5.72

>  <logP>
1.999

>  <lumo_energy>
0.267

>  <melting_point>
67.13

>  <molecular_refractivity>
59.5

>  <oscillator_strength_1>
0.0424

>  <oscillator_strength_2>
0.0025

>  <oscillator_strength_3>
0.0129

>  <oscillator_strength_4>
0.0121

>  <open_babel_can_smiles>
CCNC[C@H]1Cc2c(O1)c(OC)ccc2

>  <mulliken_charges>
32
1   -0.45309
2   -0.219623
3   -0.115853
4   -0.14366
5   -0.205966
6   -0.182291
7   -0.365404
8   -0.143995
9   0.102833
10   0.129588
11   0.301431
12   0.317645
13   -0.553833
14   -0.522991
15   -0.554373
16   0.148232
17   0.160062
18   0.14048
19   0.156307
20   0.140132
21   0.173783
22   0.143106
23   0.116894
24   0.123715
25   0.122561
26   0.133104
27   0.157461
28   0.175915
29   0.146071
30   0.132054
31   0.140728
32   0.298977

>  <lowdin_charges>
32
1   -0.447802
2   -0.277565
3   -0.197498
4   -0.170666
5   -0.174349
6   -0.174148
7   -0.286291
8   -0.216615
9   -0.040769
10   0.008966
11   0.065713
12   0.061756
13   -0.364257
14   -0.219559
15   -0.219328
16   0.155571
17   0.157265
18   0.144549
19   0.15601
20   0.138001
21   0.154686
22   0.13885
23   0.118838
24   0.156126
25   0.156986
26   0.163371
27   0.156338
28   0.169465
29   0.153211
30   0.130688
31   0.147131
32   0.255328

$$$$

