PCCDB-ID:  26865
public computational chemistry database (PCCDB) project, http://pccdb.org

 17 17  0  0  0  0  0  0  0  0999 V2000
    4.6514    0.2644   -0.0062 C   0  0  0  0  0  0  0  0  0  0  0  0
   -0.0046   -3.3344   -1.5284 C   0  0  0  0  0  0  0  0  0  0  0  0
    0.2634   -2.1196   -2.3483 C   0  0  0  0  0  0  0  0  0  0  0  0
    2.0480   -2.2765   -0.6452 C   0  0  0  0  0  0  0  0  0  0  0  0
    2.7355   -0.9191   -0.7016 C   0  0  0  0  0  0  0  0  0  0  0  0
    0.6325   -2.1569   -0.9368 N   0  0  0  0  0  0  0  0  0  0  0  0
    2.3603    0.0388   -1.3368 O   0  0  0  0  0  0  0  0  0  0  0  0
    3.8725   -0.9431    0.0304 O   0  0  0  0  0  0  0  0  0  0  0  0
    5.5340    0.0621    0.6013 H   0  0  0  0  0  0  0  0  0  0  0  0
    4.0819    1.0996    0.4099 H   0  0  0  0  0  0  0  0  0  0  0  0
    4.9374    0.5075   -1.0331 H   0  0  0  0  0  0  0  0  0  0  0  0
    0.6135   -4.2134   -1.7176 H   0  0  0  0  0  0  0  0  0  0  0  0
   -1.0064   -3.5546   -1.1670 H   0  0  0  0  0  0  0  0  0  0  0  0
   -0.5367   -1.4293   -2.6024 H   0  0  0  0  0  0  0  0  0  0  0  0
    1.0615   -2.1792   -3.0885 H   0  0  0  0  0  0  0  0  0  0  0  0
    2.1818   -2.7034    0.3540 H   0  0  0  0  0  0  0  0  0  0  0  0
    2.5907   -2.9388   -1.3499 H   0  0  0  0  0  0  0  0  0  0  0  0
  1  8  1  0  0  0  0
  1 10  1  0  0  0  0
  1  9  1  0  0  0  0
  2 13  1  0  0  0  0
  2  6  1  0  0  0  0
  3  2  1  0  0  0  0
  3  6  1  0  0  0  0
  4 16  1  0  0  0  0
  5  4  1  0  0  0  0
  5  8  1  0  0  0  0
  6  4  1  0  0  0  0
  7  5  2  0  0  0  0
 11  1  1  0  0  0  0
 12  2  1  0  0  0  0
 14  3  1  0  0  0  0
 15  3  1  0  0  0  0
 17  4  1  0  0  0  0
M  END
>  <HBA>
3

>  <HBD>
0

>  <TPSA>
29.31

>  <cid>
26865

>  <dipole>
2.13

>  <excitation_energy_1>
5.578

>  <excitation_energy_2>
5.852

>  <excitation_energy_3>
6.145

>  <excitation_energy_4>
6.459

>  <homo_energy>
-6.438

>  <homo_lumo_gap>
6.765

>  <logP>
-0.587

>  <lumo_energy>
0.327

>  <melting_point>
-2.17

>  <molecular_refractivity>
32.13

>  <oscillator_strength_1>
0.0091

>  <oscillator_strength_2>
0.0016

>  <oscillator_strength_3>
0.02

>  <oscillator_strength_4>
0.0149

>  <open_babel_can_smiles>
COC(=O)CN1CC1

>  <mulliken_charges>
17
1   -0.218637
2   -0.200591
3   -0.174888
4   -0.220985
5   0.622875
6   -0.338456
7   -0.465133
8   -0.452422
9   0.164784
10   0.173552
11   0.169513
12   0.142913
13   0.160577
14   0.165195
15   0.147623
16   0.179547
17   0.144533

>  <lowdin_charges>
17
1   -0.278903
2   -0.244981
3   -0.233473
4   -0.225618
5   0.194456
6   -0.182008
7   -0.251759
8   -0.196151
9   0.161067
10   0.16191
11   0.158164
12   0.14723
13   0.160272
14   0.165149
15   0.150387
16   0.168933
17   0.145326

$$$$

