PCCDB-ID:  8503
public computational chemistry database (PCCDB) project, http://pccdb.org

 21 20  0  0  0  0  0  0  0  0999 V2000
    1.7917    0.8488   -1.3913 C   0  0  0  0  0  0  0  0  0  0  0  0
    2.5536    3.4910    3.2724 C   0  0  0  0  0  0  0  0  0  0  0  0
    2.6517   -0.0760    3.7816 C   0  0  0  0  0  0  0  0  0  0  0  0
    2.5862    0.7018    0.9019 C   0  0  0  0  0  0  0  0  0  0  0  0
    3.1363    1.5337    2.0591 C   0  0  0  0  0  0  0  0  0  0  0  0
    2.3487    1.5623   -0.2495 N   0  0  0  0  0  0  0  0  0  0  0  0
    2.1131    2.4384    2.4247 O   0  0  0  0  0  0  0  0  0  0  0  0
    3.6044    0.7758    3.1538 O   0  0  0  0  0  0  0  0  0  0  0  0
    1.5753    1.5601   -2.1953 H   0  0  0  0  0  0  0  0  0  0  0  0
    0.8650    0.2852   -1.1701 H   0  0  0  0  0  0  0  0  0  0  0  0
    2.5300    0.1322   -1.7712 H   0  0  0  0  0  0  0  0  0  0  0  0
    1.6814    4.1155    3.4805 H   0  0  0  0  0  0  0  0  0  0  0  0
    3.3245    4.1005    2.7779 H   0  0  0  0  0  0  0  0  0  0  0  0
    2.9605    3.1049    4.2144 H   0  0  0  0  0  0  0  0  0  0  0  0
    3.0911   -0.3745    4.7370 H   0  0  0  0  0  0  0  0  0  0  0  0
    2.4541   -0.9799    3.1896 H   0  0  0  0  0  0  0  0  0  0  0  0
    1.7052    0.4453    3.9666 H   0  0  0  0  0  0  0  0  0  0  0  0
    1.6796    0.1611    1.2328 H   0  0  0  0  0  0  0  0  0  0  0  0
    3.3388   -0.0512    0.6370 H   0  0  0  0  0  0  0  0  0  0  0  0
    4.0216    2.0879    1.7195 H   0  0  0  0  0  0  0  0  0  0  0  0
    1.7087    2.2981    0.0431 H   0  0  0  0  0  0  0  0  0  0  0  0
  1 10  1  0  0  0  0
  1  6  1  0  0  0  0
  2 12  1  0  0  0  0
  2 14  1  0  0  0  0
  3 17  1  0  0  0  0
  3 15  1  0  0  0  0
  4 18  1  0  0  0  0
  4  5  1  0  0  0  0
  5  7  1  0  0  0  0
  5  8  1  0  0  0  0
  6 21  1  0  0  0  0
  6  4  1  0  0  0  0
  7  2  1  0  0  0  0
  8  3  1  0  0  0  0
  9  1  1  0  0  0  0
 11  1  1  0  0  0  0
 13  2  1  0  0  0  0
 16  3  1  0  0  0  0
 19  4  1  0  0  0  0
 20  5  1  0  0  0  0
M  END
>  <HBA>
3

>  <HBD>
1

>  <TPSA>
30.49

>  <cid>
8503

>  <dipole>
1.23

>  <excitation_energy_1>
5.559

>  <excitation_energy_2>
5.985

>  <excitation_energy_3>
6.024

>  <excitation_energy_4>
6.181

>  <homo_energy>
-5.891

>  <homo_lumo_gap>
8.441

>  <logP>
0.216

>  <lumo_energy>
2.55

>  <melting_point>
-16.62

>  <molecular_refractivity>
31.12

>  <oscillator_strength_1>
0.0037

>  <oscillator_strength_2>
0.0312

>  <oscillator_strength_3>
0.0109

>  <oscillator_strength_4>
0.01

>  <open_babel_can_smiles>
CNCC(OC)OC

>  <mulliken_charges>
21
1   -0.296818
2   -0.205168
3   -0.215457
4   -0.150352
5   0.350806
6   -0.550784
7   -0.479091
8   -0.476478
9   0.148352
10   0.118453
11   0.149287
12   0.155998
13   0.138859
14   0.153724
15   0.155537
16   0.139377
17   0.15281
18   0.119864
19   0.148525
20   0.134415
21   0.308142

>  <lowdin_charges>
21
1   -0.360575
2   -0.284808
3   -0.288529
4   -0.222355
5   0.087762
6   -0.363189
7   -0.272097
8   -0.267659
9   0.151515
10   0.120046
11   0.147996
12   0.155315
13   0.139307
14   0.14488
15   0.154467
16   0.136718
17   0.1447
18   0.125645
19   0.151778
20   0.140091
21   0.258992

$$$$

