PCCDB-ID:  57488
public computational chemistry database (PCCDB) project, http://pccdb.org

 21 22  0  0  1  0  0  0  0  0999 V2000
    0.8499   -0.0985   -0.1346 C   0  0  0  0  0  0  0  0  0  0  0  0
    3.1383   -1.1845   -0.0036 C   0  0  0  0  0  0  0  0  0  0  0  0
    4.5401   -1.1484    0.0372 C   0  0  0  0  0  0  0  0  0  0  0  0
    3.0114    1.2258   -0.1230 C   0  0  0  0  0  0  0  0  0  0  0  0
    2.3591   -0.0243   -0.0888 C   0  0  0  0  0  0  0  0  0  0  0  0
    4.3933    1.2679   -0.0908 C   0  0  0  0  0  0  0  0  0  0  0  0
    5.1643    0.0891   -0.0154 C   0  0  0  0  0  0  0  0  0  0  0  0
    5.3764    2.4122   -0.0602 C   0  0  1  0  0  0  0  0  0  0  0  0
    6.6845    1.6100   -0.1011 C   0  0  0  0  0  0  0  0  0  0  0  0
    6.5694    0.3337   -0.0343 N   0  0  0  0  0  0  0  0  0  0  0  0
    5.3164    3.4222   -1.0634 O   0  0  0  0  0  0  0  0  0  0  0  0
    7.8583    2.2477   -0.2095 O   0  0  0  0  0  0  0  0  0  0  0  0
    0.5019   -1.1361   -0.1285 H   0  0  0  0  0  0  0  0  0  0  0  0
    0.4492    0.3809   -1.0367 H   0  0  0  0  0  0  0  0  0  0  0  0
    0.3947    0.4087    0.7258 H   0  0  0  0  0  0  0  0  0  0  0  0
    2.6374   -2.1494    0.0294 H   0  0  0  0  0  0  0  0  0  0  0  0
    5.1258   -2.0601    0.1006 H   0  0  0  0  0  0  0  0  0  0  0  0
    2.4287    2.1435   -0.1798 H   0  0  0  0  0  0  0  0  0  0  0  0
    5.3235    2.9591    0.8911 H   0  0  0  0  0  0  0  0  0  0  0  0
    5.1751    2.9743   -1.9145 H   0  0  0  0  0  0  0  0  0  0  0  0
    7.6579    3.1763   -0.4278 H   0  0  0  0  0  0  0  0  0  0  0  0
  1 13  1  0  0  0  0
  1  5  1  0  0  0  0
  1 15  1  0  0  0  0
  2 16  1  0  0  0  0
  2  3  1  0  0  0  0
  3 17  1  0  0  0  0
  4  6  2  0  0  0  0
  4  5  1  0  0  0  0
  5  2  2  0  0  0  0
  6  8  1  0  0  0  0
  6  7  1  0  0  0  0
  7  3  2  0  0  0  0
  8 19  1  1  0  0  0
  9  8  1  0  0  0  0
  9 10  2  0  0  0  0
 10  7  1  0  0  0  0
 11  8  1  0  0  0  0
 12  9  1  0  0  0  0
 14  1  1  0  0  0  0
 18  4  1  0  0  0  0
 20 11  1  0  0  0  0
 21 12  1  0  0  0  0
M  END
>  <HBA>
3

>  <HBD>
2

>  <TPSA>
49.33

>  <cid>
57488

>  <dipole>
2.98

>  <excitation_energy_1>
4.013

>  <excitation_energy_2>
4.7

>  <excitation_energy_3>
4.947

>  <excitation_energy_4>
5.315

>  <homo_energy>
-5.829

>  <homo_lumo_gap>
4.874

>  <logP>
1.119

>  <lumo_energy>
-0.955

>  <melting_point>
110.13

>  <molecular_refractivity>
47.86

>  <oscillator_strength_1>
0.0397

>  <oscillator_strength_2>
0.0079

>  <oscillator_strength_3>
0.0274

>  <oscillator_strength_4>
0.0294

>  <open_babel_can_smiles>
Cc1ccc2c(c1)[C@H](O)C(=N2)O

>  <mulliken_charges>
21
1   -0.529847
2   -0.188879
3   -0.188475
4   -0.256679
5   0.172571
6   0.084152
7   0.258063
8   -0.035766
9   0.500276
10   -0.498317
11   -0.616629
12   -0.590036
13   0.156207
14   0.159912
15   0.162023
16   0.125025
17   0.142765
18   0.12969
19   0.186507
20   0.403371
21   0.424065

>  <lowdin_charges>
21
1   -0.442398
2   -0.157918
3   -0.16946
4   -0.161498
5   -0.008473
6   -0.064334
7   0.038175
8   -0.033971
9   0.103241
10   -0.183508
11   -0.447078
12   -0.326754
13   0.156492
14   0.159369
15   0.160552
16   0.156443
17   0.168721
18   0.158905
19   0.172862
20   0.352929
21   0.367702

$$$$

