PCCDB-ID:  56018
public computational chemistry database (PCCDB) project, http://pccdb.org

 20 19  0  0  0  0  0  0  0  0999 V2000
    1.2470   -1.1632    0.6174 C   0  0  0  0  0  0  0  0  0  0  0  0
    2.6675   -0.7653    0.2056 C   0  0  0  0  0  0  0  0  0  0  0  0
    2.8311    0.7555    0.0149 C   0  0  0  0  0  0  0  0  0  0  0  0
    4.2390    1.1573   -0.3264 C   0  0  0  0  0  0  0  0  0  0  0  0
    4.6161    1.7811   -1.4468 C   0  0  0  0  0  0  0  0  0  0  0  0
    6.0379    2.1475   -1.7954 C   0  0  0  0  0  0  0  0  0  0  0  0
    6.5651    1.2617   -2.9161 C   0  0  0  0  0  0  0  0  0  0  0  0
    6.9430    1.6619   -3.9934 O   0  0  0  0  0  0  0  0  0  0  0  0
    1.1592   -2.2479    0.7459 H   0  0  0  0  0  0  0  0  0  0  0  0
    0.5139   -0.8571   -0.1388 H   0  0  0  0  0  0  0  0  0  0  0  0
    0.9621   -0.6905    1.5654 H   0  0  0  0  0  0  0  0  0  0  0  0
    2.9423   -1.2734   -0.7280 H   0  0  0  0  0  0  0  0  0  0  0  0
    3.3821   -1.1134    0.9647 H   0  0  0  0  0  0  0  0  0  0  0  0
    2.5250    1.2576    0.9460 H   0  0  0  0  0  0  0  0  0  0  0  0
    2.1441    1.1049   -0.7672 H   0  0  0  0  0  0  0  0  0  0  0  0
    4.9996    0.9049    0.4166 H   0  0  0  0  0  0  0  0  0  0  0  0
    3.8643    2.0338   -2.1957 H   0  0  0  0  0  0  0  0  0  0  0  0
    6.6849    1.9990   -0.9190 H   0  0  0  0  0  0  0  0  0  0  0  0
    6.1241    3.1900   -2.1221 H   0  0  0  0  0  0  0  0  0  0  0  0
    6.5634    0.1743   -2.6748 H   0  0  0  0  0  0  0  0  0  0  0  0
  1  9  1  0  0  0  0
  1 11  1  0  0  0  0
  2  1  1  0  0  0  0
  2 13  1  0  0  0  0
  3  2  1  0  0  0  0
  3 14  1  0  0  0  0
  4  3  1  0  0  0  0
  4 16  1  0  0  0  0
  5  4  2  0  0  0  0
  6  5  1  0  0  0  0
  6 18  1  0  0  0  0
  7 20  1  0  0  0  0
  7  6  1  0  0  0  0
  8  7  2  0  0  0  0
 10  1  1  0  0  0  0
 12  2  1  0  0  0  0
 15  3  1  0  0  0  0
 17  5  1  0  0  0  0
 19  6  1  0  0  0  0
M  END
>  <HBA>
1

>  <HBD>
0

>  <TPSA>
17.07

>  <cid>
56018

>  <dipole>
3.03

>  <excitation_energy_1>
4.128

>  <excitation_energy_2>
5.355

>  <excitation_energy_3>
6.305

>  <excitation_energy_4>
6.347

>  <homo_energy>
-6.582

>  <homo_lumo_gap>
5.802

>  <logP>
1.932

>  <lumo_energy>
-0.781

>  <melting_point>
14.29

>  <molecular_refractivity>
35.49

>  <oscillator_strength_1>
0.0094

>  <oscillator_strength_2>
0.0692

>  <oscillator_strength_3>
0.0609

>  <oscillator_strength_4>
0.082

>  <open_babel_can_smiles>
CCC/C=C/CC=O

>  <mulliken_charges>
20
1   -0.442408
2   -0.249239
3   -0.297905
4   -0.082184
5   -0.116658
6   -0.375774
7   0.257876
8   -0.377804
9   0.146531
10   0.144788
11   0.143426
12   0.140731
13   0.133526
14   0.142945
15   0.139906
16   0.120798
17   0.135599
18   0.160782
19   0.169736
20   0.105327

>  <lowdin_charges>
20
1   -0.443617
2   -0.271934
3   -0.27231
4   -0.155603
5   -0.175865
6   -0.302745
7   0.05778
8   -0.213961
9   0.15026
10   0.149048
11   0.147416
12   0.144212
13   0.1414
14   0.149257
15   0.147852
16   0.147858
17   0.155085
18   0.165991
19   0.165808
20   0.114066

$$$$

