PCCDB-ID:  25002
public computational chemistry database (PCCDB) project, http://pccdb.org

 43 42  0  0  1  0  0  0  0  0999 V2000
    1.0571    2.3719    5.0123 C   0  0  0  0  0  0  0  0  0  0  0  0
    7.9654    3.8603    7.4245 C   0  0  0  0  0  0  0  0  0  0  0  0
    9.8562    4.6228    5.9374 C   0  0  0  0  0  0  0  0  0  0  0  0
    8.9077   -0.3178    6.1322 C   0  0  0  0  0  0  0  0  0  0  0  0
    3.5590   -0.6716    1.7506 C   0  0  0  0  0  0  0  0  0  0  0  0
    1.6106    1.1592    4.9863 C   0  0  0  0  0  0  0  0  0  0  0  0
    6.1661    0.1286    4.5911 C   0  0  0  0  0  0  0  0  0  0  0  0
    7.3897    1.0575    4.6135 C   0  0  0  0  0  0  0  0  0  0  0  0
    5.3649    0.2400    3.2855 C   0  0  0  0  0  0  0  0  0  0  0  0
    9.2416    2.1745    5.9815 C   0  0  0  0  0  0  0  0  0  0  0  0
    3.1077   -0.5110    4.2310 C   0  0  0  0  0  0  0  0  0  0  0  0
    8.7056    3.6171    6.1000 C   0  0  0  0  0  0  0  0  0  0  0  0
    8.2014    1.0331    5.9264 C   0  0  2  0  0  0  0  0  0  0  0  0
    4.1749   -0.7332    3.1572 C   0  0  1  0  0  0  0  0  0  0  0  0
    2.5949    0.8187    4.1096 O   0  0  0  0  0  0  0  0  0  0  0  0
    0.2722    2.5929    5.7258 H   0  0  0  0  0  0  0  0  0  0  0  0
    1.3697    3.1545    4.3289 H   0  0  0  0  0  0  0  0  0  0  0  0
    7.6089    4.8952    7.4894 H   0  0  0  0  0  0  0  0  0  0  0  0
    8.6300    3.6835    8.2808 H   0  0  0  0  0  0  0  0  0  0  0  0
    7.0948    3.2055    7.5386 H   0  0  0  0  0  0  0  0  0  0  0  0
    9.4923    5.6557    5.9930 H   0  0  0  0  0  0  0  0  0  0  0  0
   10.3642    4.4969    4.9737 H   0  0  0  0  0  0  0  0  0  0  0  0
   10.6071    4.4926    6.7280 H   0  0  0  0  0  0  0  0  0  0  0  0
    8.2028   -1.1560    6.1368 H   0  0  0  0  0  0  0  0  0  0  0  0
    9.4485   -0.3368    7.0860 H   0  0  0  0  0  0  0  0  0  0  0  0
    9.6386   -0.5017    5.3334 H   0  0  0  0  0  0  0  0  0  0  0  0
    4.3106   -0.8957    0.9852 H   0  0  0  0  0  0  0  0  0  0  0  0
    3.1521    0.3243    1.5475 H   0  0  0  0  0  0  0  0  0  0  0  0
    2.7425   -1.3959    1.6417 H   0  0  0  0  0  0  0  0  0  0  0  0
    1.3018    0.3672    5.6700 H   0  0  0  0  0  0  0  0  0  0  0  0
    5.5242    0.3768    5.4478 H   0  0  0  0  0  0  0  0  0  0  0  0
    6.4806   -0.9149    4.7314 H   0  0  0  0  0  0  0  0  0  0  0  0
    7.0411    2.0805    4.4193 H   0  0  0  0  0  0  0  0  0  0  0  0
    8.0594    0.8020    3.7777 H   0  0  0  0  0  0  0  0  0  0  0  0
    6.0440    0.0566    2.4406 H   0  0  0  0  0  0  0  0  0  0  0  0
    4.9963    1.2670    3.1676 H   0  0  0  0  0  0  0  0  0  0  0  0
    9.9138    1.9947    6.8345 H   0  0  0  0  0  0  0  0  0  0  0  0
    9.8741    2.1057    5.0830 H   0  0  0  0  0  0  0  0  0  0  0  0
    3.5260   -0.6531    5.2372 H   0  0  0  0  0  0  0  0  0  0  0  0
    2.2892   -1.2352    4.1013 H   0  0  0  0  0  0  0  0  0  0  0  0
    7.9957    3.7981    5.2801 H   0  0  0  0  0  0  0  0  0  0  0  0
    7.4956    1.1666    6.7598 H   0  0  0  0  0  0  0  0  0  0  0  0
    4.5503   -1.7551    3.3241 H   0  0  0  0  0  0  0  0  0  0  0  0
  1 16  1  0  0  0  0
  2 18  1  0  0  0  0
  2 20  1  0  0  0  0
  2 19  1  0  0  0  0
  3 21  1  0  0  0  0
  3 12  1  0  0  0  0
  3 23  1  0  0  0  0
  4 24  1  0  0  0  0
  4 25  1  0  0  0  0
  5 14  1  0  0  0  0
  6  1  2  0  0  0  0
  6 30  1  0  0  0  0
  7  8  1  0  0  0  0
  7 32  1  0  0  0  0
  7 31  1  0  0  0  0
  8 13  1  0  0  0  0
  9  7  1  0  0  0  0
 10 12  1  0  0  0  0
 10 37  1  0  0  0  0
 11 39  1  0  0  0  0
 12  2  1  0  0  0  0
 13 10  1  0  0  0  0
 13  4  1  0  0  0  0
 13 42  1  1  0  0  0
 14  9  1  0  0  0  0
 14 43  1  1  0  0  0
 14 11  1  0  0  0  0
 15 11  1  0  0  0  0
 15  6  1  0  0  0  0
 17  1  1  0  0  0  0
 22  3  1  0  0  0  0
 26  4  1  0  0  0  0
 27  5  1  0  0  0  0
 28  5  1  0  0  0  0
 29  5  1  0  0  0  0
 33  8  1  0  0  0  0
 34  8  1  0  0  0  0
 35  9  1  0  0  0  0
 36  9  1  0  0  0  0
 38 10  1  0  0  0  0
 40 11  1  0  0  0  0
 41 12  1  0  0  0  0
M  END
>  <HBA>
1

>  <HBD>
0

>  <TPSA>
9.23

>  <cid>
25002

>  <dipole>
1.43

>  <excitation_energy_1>
5.516

>  <excitation_energy_2>
5.881

>  <excitation_energy_3>
5.975

>  <excitation_energy_4>
6.044

>  <homo_energy>
-5.889

>  <homo_lumo_gap>
6.961

>  <logP>
4.635

>  <lumo_energy>
1.072

>  <melting_point>
-61.42

>  <molecular_refractivity>
70.02

>  <oscillator_strength_1>
0.0335

>  <oscillator_strength_2>
0.0133

>  <oscillator_strength_3>
0.0221

>  <oscillator_strength_4>
0.0248

>  <open_babel_can_smiles>
C=COC[C@H](CCC[C@H](CC(C)C)C)C

>  <mulliken_charges>
43
1   -0.397772
2   -0.444358
3   -0.441481
4   -0.451477
5   -0.448891
6   0.183165
7   -0.270885
8   -0.258785
9   -0.253129
10   -0.247292
11   -0.033089
12   -0.074009
13   -0.075745
14   -0.103375
15   -0.45957
16   0.138254
17   0.142556
18   0.13964
19   0.136475
20   0.14481
21   0.138446
22   0.138758
23   0.137295
24   0.141907
25   0.139524
26   0.137508
27   0.141253
28   0.164621
29   0.136537
30   0.122819
31   0.134511
32   0.127941
33   0.135248
34   0.122834
35   0.126431
36   0.150707
37   0.120061
38   0.120706
39   0.136839
40   0.131373
41   0.126308
42   0.120404
43   0.122927

>  <lowdin_charges>
43
1   -0.402633
2   -0.44667
3   -0.442705
4   -0.446907
5   -0.446614
6   -0.037805
7   -0.278388
8   -0.276239
9   -0.27733
10   -0.276796
11   -0.129131
12   -0.123733
13   -0.126489
14   -0.129454
15   -0.210167
16   0.166141
17   0.16544
18   0.1472
19   0.14478
20   0.14833
21   0.145872
22   0.146489
23   0.145032
24   0.14744
25   0.147359
26   0.145222
27   0.149709
28   0.157735
29   0.147239
30   0.143917
31   0.140341
32   0.135342
33   0.141271
34   0.136793
35   0.14113
36   0.148771
37   0.138162
38   0.138066
39   0.135396
40   0.136007
41   0.136696
42   0.135429
43   0.13975

$$$$

