PCCDB-ID:  61283
public computational chemistry database (PCCDB) project, http://pccdb.org

 24 24  0  0  0  0  0  0  0  0999 V2000
    1.1931   -0.3505   -1.1446 C   0  0  0  0  0  0  0  0  0  0  0  0
    4.5939   -0.8259    0.8194 C   0  0  0  0  0  0  0  0  0  0  0  0
   -0.2617    4.4473    1.0709 C   0  0  0  0  0  0  0  0  0  0  0  0
    0.5583    4.0195    2.1176 C   0  0  0  0  0  0  0  0  0  0  0  0
   -0.2217    3.7766   -0.1530 C   0  0  0  0  0  0  0  0  0  0  0  0
    1.4032    2.9284    1.9378 C   0  0  0  0  0  0  0  0  0  0  0  0
    0.6149    2.6761   -0.3294 C   0  0  0  0  0  0  0  0  0  0  0  0
    2.3565    1.0799    0.6143 C   0  0  0  0  0  0  0  0  0  0  0  0
    2.3027   -0.0174   -0.1791 C   0  0  0  0  0  0  0  0  0  0  0  0
    3.4047   -1.0320   -0.1128 C   0  0  0  0  0  0  0  0  0  0  0  0
    1.4363    2.2192    0.7200 C   0  0  0  0  0  0  0  0  0  0  0  0
    3.3596   -2.0318   -0.8179 O   0  0  0  0  0  0  0  0  0  0  0  0
    0.2315    0.0456   -0.8077 H   0  0  0  0  0  0  0  0  0  0  0  0
    1.1227   -1.4346   -1.2559 H   0  0  0  0  0  0  0  0  0  0  0  0
    1.3929    0.0533   -2.1464 H   0  0  0  0  0  0  0  0  0  0  0  0
    5.1454    0.0879    0.5703 H   0  0  0  0  0  0  0  0  0  0  0  0
    5.2582   -1.6848    0.7111 H   0  0  0  0  0  0  0  0  0  0  0  0
    4.2793   -0.7467    1.8663 H   0  0  0  0  0  0  0  0  0  0  0  0
   -0.9174    5.3035    1.2039 H   0  0  0  0  0  0  0  0  0  0  0  0
    0.5434    4.5400    3.0714 H   0  0  0  0  0  0  0  0  0  0  0  0
   -0.8401    4.1167   -0.9794 H   0  0  0  0  0  0  0  0  0  0  0  0
    2.0448    2.6046    2.7541 H   0  0  0  0  0  0  0  0  0  0  0  0
    0.6534    2.1901   -1.2969 H   0  0  0  0  0  0  0  0  0  0  0  0
    3.1865    1.1416    1.3147 H   0  0  0  0  0  0  0  0  0  0  0  0
  1 13  1  0  0  0  0
  1  9  1  0  0  0  0
  2 18  1  0  0  0  0
  3 19  1  0  0  0  0
  3  4  2  0  0  0  0
  4 20  1  0  0  0  0
  5  3  1  0  0  0  0
  6  4  1  0  0  0  0
  6 22  1  0  0  0  0
  7  5  2  0  0  0  0
  7 11  1  0  0  0  0
  8 11  1  0  0  0  0
  8 24  1  0  0  0  0
  9 10  1  0  0  0  0
  9  8  2  0  0  0  0
 10  2  1  0  0  0  0
 11  6  2  0  0  0  0
 12 10  2  0  0  0  0
 14  1  1  0  0  0  0
 15  1  1  0  0  0  0
 16  2  1  0  0  0  0
 17  2  1  0  0  0  0
 21  5  1  0  0  0  0
 23  7  1  0  0  0  0
M  END
>  <HBA>
1

>  <HBD>
0

>  <TPSA>
17.07

>  <cid>
61283

>  <dipole>
3.51

>  <excitation_energy_1>
3.532

>  <excitation_energy_2>
4.319

>  <excitation_energy_3>
4.53

>  <excitation_energy_4>
5.382

>  <homo_energy>
-6.31

>  <homo_lumo_gap>
4.566

>  <logP>
2.679

>  <lumo_energy>
-1.744

>  <melting_point>
49.66

>  <molecular_refractivity>
51.15

>  <oscillator_strength_1>
0.0018

>  <oscillator_strength_2>
0.6296

>  <oscillator_strength_3>
0.0064

>  <oscillator_strength_4>
0.052

>  <open_babel_can_smiles>
C/C(=C\c1ccccc1)/C(=O)C

>  <mulliken_charges>
24
1   -0.531695
2   -0.542241
3   -0.125066
4   -0.130423
5   -0.133982
6   -0.182765
7   -0.178559
8   -0.250786
9   0.098663
10   0.419128
11   0.170674
12   -0.459552
13   0.158207
14   0.185842
15   0.163326
16   0.169855
17   0.180386
18   0.166973
19   0.135639
20   0.13543
21   0.136149
22   0.131378
23   0.145864
24   0.137555

>  <lowdin_charges>
24
1   -0.447778
2   -0.477247
3   -0.148842
4   -0.154576
5   -0.155151
6   -0.154413
7   -0.154268
8   -0.146966
9   -0.039491
10   0.153338
11   -0.005836
12   -0.245812
13   0.160378
14   0.174411
15   0.16134
16   0.168943
17   0.175015
18   0.165713
19   0.160977
20   0.160488
21   0.161639
22   0.15879
23   0.166811
24   0.162537

$$$$

