PCCDB-ID:  25093
public computational chemistry database (PCCDB) project, http://pccdb.org

 27 27  0  0  0  0  0  0  0  0999 V2000
   -0.5466   -1.5916    1.6519 C   0  0  0  0  0  0  0  0  0  0  0  0
    0.9554   -1.2020    1.5165 C   0  0  0  0  0  0  0  0  0  0  0  0
   -1.3338   -0.3140    1.2862 C   0  0  0  0  0  0  0  0  0  0  0  0
    0.9795    0.2043    0.8551 C   0  0  0  0  0  0  0  0  0  0  0  0
   -0.4388    0.4110    0.2662 C   0  0  0  0  0  0  0  0  0  0  0  0
    0.1645   -0.2362   -4.6449 C   0  0  0  0  0  0  0  0  0  0  0  0
   -0.0415    0.3721   -2.1960 C   0  0  0  0  0  0  0  0  0  0  0  0
   -0.4401   -0.9651   -5.5153 N   0  0  0  0  0  0  0  0  0  0  0  0
    1.2071    0.6452   -4.8202 N   0  0  0  0  0  0  0  0  0  0  0  0
    0.5891    1.4938   -2.2832 N   0  0  0  0  0  0  0  0  0  0  0  0
   -0.6266   -0.1773   -1.0608 N   0  0  0  0  0  0  0  0  0  0  0  0
   -0.2447   -0.4338   -3.3108 N   0  0  0  0  0  0  0  0  0  0  0  0
   -0.7990   -1.9541    2.6532 H   0  0  0  0  0  0  0  0  0  0  0  0
   -0.7963   -2.4074    0.9611 H   0  0  0  0  0  0  0  0  0  0  0  0
    1.4956   -1.9353    0.9090 H   0  0  0  0  0  0  0  0  0  0  0  0
    1.4531   -1.1808    2.4912 H   0  0  0  0  0  0  0  0  0  0  0  0
   -1.4389    0.3261    2.1701 H   0  0  0  0  0  0  0  0  0  0  0  0
   -2.3384   -0.5086    0.8971 H   0  0  0  0  0  0  0  0  0  0  0  0
    1.7588    0.3050    0.0937 H   0  0  0  0  0  0  0  0  0  0  0  0
    1.1643    0.9767    1.6121 H   0  0  0  0  0  0  0  0  0  0  0  0
   -0.7015    1.4714    0.1869 H   0  0  0  0  0  0  0  0  0  0  0  0
   -0.0589   -0.8008   -6.4481 H   0  0  0  0  0  0  0  0  0  0  0  0
    1.3083    0.9946   -5.7632 H   0  0  0  0  0  0  0  0  0  0  0  0
    1.3056    1.3353   -4.0716 H   0  0  0  0  0  0  0  0  0  0  0  0
    0.7341    1.9192   -1.3716 H   0  0  0  0  0  0  0  0  0  0  0  0
   -0.6940   -1.1882   -1.0723 H   0  0  0  0  0  0  0  0  0  0  0  0
   -1.0140   -1.0900   -3.2740 H   0  0  0  0  0  0  0  0  0  0  0  0
  1 13  1  0  0  0  0
  2  1  1  0  0  0  0
  2 16  1  0  0  0  0
  3  1  1  0  0  0  0
  3 17  1  0  0  0  0
  4  2  1  0  0  0  0
  4 20  1  0  0  0  0
  5  4  1  0  0  0  0
  5  3  1  0  0  0  0
  6 12  1  0  0  0  0
  7 11  1  0  0  0  0
  8  6  1  0  0  0  0
  9  6  2  0  0  0  0
  9 24  1  0  0  0  0
 10  7  2  0  0  0  0
 10 25  1  0  0  0  0
 11  5  1  0  0  0  0
 12 27  1  0  0  0  0
 12  7  1  0  0  0  0
 14  1  1  0  0  0  0
 15  2  1  0  0  0  0
 18  3  1  0  0  0  0
 19  4  1  0  0  0  0
 21  5  1  0  0  0  0
 22  8  1  0  0  0  0
 23  9  1  0  0  0  0
 26 11  1  0  0  0  0
M  RAD  1   8   2
M  END
>  <HBA>
5

>  <HBD>
3

>  <TPSA>
102.78

>  <cid>
25093

>  <dipole>
3.71

>  <excitation_energy_1>
5.19

>  <excitation_energy_2>
5.548

>  <excitation_energy_3>
5.618

>  <excitation_energy_4>
5.733

>  <homo_energy>
-5.698

>  <homo_lumo_gap>
6.61

>  <logP>
1.618

>  <lumo_energy>
0.912

>  <melting_point>
193.82

>  <molecular_refractivity>
49.14

>  <oscillator_strength_1>
0.0006

>  <oscillator_strength_2>
0.0011

>  <oscillator_strength_3>
0.0124

>  <oscillator_strength_4>
0.0082

>  <open_babel_can_smiles>
N=C(NC(=[NH2])[NH])NC1CCCC1

>  <mulliken_charges>
27
1   -0.28655
2   -0.27809
3   -0.288532
4   -0.277944
5   0.014034
6   0.610151
7   0.730278
8   -0.668492
9   -0.76327
10   -0.715215
11   -0.634581
12   -0.676661
13   0.148276
14   0.136244
15   0.147086
16   0.146722
17   0.148029
18   0.151713
19   0.157615
20   0.140527
21   0.146302
22   0.266976
23   0.315437
24   0.375442
25   0.293613
26   0.321549
27   0.33934

>  <lowdin_charges>
27
1   -0.289896
2   -0.290458
3   -0.284768
4   -0.302997
5   -0.06425
6   0.146058
7   0.147186
8   -0.495423
9   -0.503484
10   -0.495369
11   -0.306403
12   -0.264125
13   0.152087
14   0.140302
15   0.150494
16   0.150603
17   0.152504
18   0.153031
19   0.156535
20   0.148604
21   0.147559
22   0.247072
23   0.275972
24   0.301525
25   0.257822
26   0.274659
27   0.295159

$$$$

