PCCDB-ID:  7737
public computational chemistry database (PCCDB) project, http://pccdb.org

 16 16  0  0  0  0  0  0  0  0999 V2000
   -0.7689    1.1111    0.1231 C   0  0  0  0  0  0  0  0  0  0  0  0
   -1.3797   -0.1352    0.0841 C   0  0  0  0  0  0  0  0  0  0  0  0
    1.3870    0.0285   -0.2570 C   0  0  0  0  0  0  0  0  0  0  0  0
    0.7702   -1.2060   -0.2900 C   0  0  0  0  0  0  0  0  0  0  0  0
    0.6221    1.1993   -0.0454 C   0  0  0  0  0  0  0  0  0  0  0  0
   -0.6230   -1.2959   -0.1185 C   0  0  0  0  0  0  0  0  0  0  0  0
    1.3043    2.4155    0.0688 N   0  0  0  0  0  0  0  0  0  0  0  0
   -1.3525   -2.5209   -0.1410 N   0  0  0  0  0  0  0  0  0  0  0  0
    0.5028    3.5589   -0.1868 O   0  0  0  0  0  0  0  0  0  0  0  0
   -0.6739   -3.5295   -0.3192 O   0  0  0  0  0  0  0  0  0  0  0  0
   -1.3454    2.0166    0.2636 H   0  0  0  0  0  0  0  0  0  0  0  0
   -2.4545   -0.2365    0.2053 H   0  0  0  0  0  0  0  0  0  0  0  0
    2.4644    0.1092   -0.3843 H   0  0  0  0  0  0  0  0  0  0  0  0
    1.3310   -2.1207   -0.4516 H   0  0  0  0  0  0  0  0  0  0  0  0
    2.1149    2.4778   -0.5427 H   0  0  0  0  0  0  0  0  0  0  0  0
    0.5329    4.0423    0.6559 H   0  0  0  0  0  0  0  0  0  0  0  0
  1 11  1  0  0  0  0
  2  1  1  0  0  0  0
  2 12  1  0  0  0  0
  3  5  1  0  0  0  0
  4  3  2  0  0  0  0
  4  6  1  0  0  0  0
  5  7  1  0  0  0  0
  5  1  2  0  0  0  0
  6  2  2  0  0  0  0
  8  6  1  0  0  0  0
  9  7  1  0  0  0  0
  9 16  1  0  0  0  0
 10  8  2  0  0  0  0
 13  3  1  0  0  0  0
 14  4  1  0  0  0  0
 15  7  1  0  0  0  0
M  END
>  <HBA>
4

>  <HBD>
2

>  <TPSA>
61.69

>  <cid>
7737

>  <dipole>
5.76

>  <excitation_energy_1>
1.583

>  <excitation_energy_2>
3.866

>  <excitation_energy_3>
4.164

>  <excitation_energy_4>
4.196

>  <homo_energy>
-5.581

>  <homo_lumo_gap>
3.284

>  <logP>
1.959

>  <lumo_energy>
-2.297

>  <melting_point>
120.53

>  <molecular_refractivity>
37.13

>  <oscillator_strength_1>
0.0003

>  <oscillator_strength_2>
0.3657

>  <oscillator_strength_3>
0.0005

>  <oscillator_strength_4>
0.0188

>  <open_babel_can_smiles>
ONc1ccc(cc1)N=O

>  <mulliken_charges>
16
1   -0.168302
2   -0.133517
3   -0.190659
4   -0.128497
5   0.336883
6   0.219368
7   -0.424256
8   -0.072817
9   -0.501836
10   -0.309435
11   0.150602
12   0.155733
13   0.13702
14   0.164341
15   0.340584
16   0.424788

>  <lowdin_charges>
16
1   -0.19157
2   -0.114775
3   -0.182284
4   -0.124418
5   0.065116
6   -0.04104
7   -0.174242
8   0.034736
9   -0.390433
10   -0.204692
11   0.172447
12   0.172527
13   0.159131
14   0.178899
15   0.280473
16   0.360126

$$$$

