PCCDB-ID:  34519
public computational chemistry database (PCCDB) project, http://pccdb.org

 30 30  0  0  0  0  0  0  0  0999 V2000
    1.0210    0.3562    0.9466 C   0  0  0  0  0  0  0  0  0  0  0  0
    6.1167    0.8272   -1.9119 C   0  0  0  0  0  0  0  0  0  0  0  0
    2.9098    1.7364   -0.0353 C   0  0  0  0  0  0  0  0  0  0  0  0
    4.1167    1.8314   -0.7303 C   0  0  0  0  0  0  0  0  0  0  0  0
    3.0125   -0.6552   -0.2316 C   0  0  0  0  0  0  0  0  0  0  0  0
    2.3405    0.4869    0.2205 C   0  0  0  0  0  0  0  0  0  0  0  0
    4.8045    0.7021   -1.1762 C   0  0  0  0  0  0  0  0  0  0  0  0
    4.2355   -0.5650   -0.9100 C   0  0  0  0  0  0  0  0  0  0  0  0
    6.1517   -3.9136   -2.7964 C   0  0  0  0  0  0  0  0  0  0  0  0
    4.9473   -2.9453   -0.7786 C   0  0  0  0  0  0  0  0  0  0  0  0
    6.4075   -2.7954   -3.3833 N   0  0  0  0  0  0  0  0  0  0  0  0
    6.5164   -5.1865   -3.2450 N   0  0  0  0  0  0  0  0  0  0  0  0
    4.5589   -3.3235    0.3863 N   0  0  0  0  0  0  0  0  0  0  0  0
    4.9011   -1.7106   -1.3859 N   0  0  0  0  0  0  0  0  0  0  0  0
    5.5104   -3.9706   -1.5735 N   0  0  0  0  0  0  0  0  0  0  0  0
    0.6421    1.3335    1.2621 H   0  0  0  0  0  0  0  0  0  0  0  0
    1.1144   -0.2714    1.8414 H   0  0  0  0  0  0  0  0  0  0  0  0
    0.2569   -0.1069    0.3094 H   0  0  0  0  0  0  0  0  0  0  0  0
    6.4555    1.8674   -1.9244 H   0  0  0  0  0  0  0  0  0  0  0  0
    6.0421    0.4930   -2.9558 H   0  0  0  0  0  0  0  0  0  0  0  0
    6.9000    0.2170   -1.4456 H   0  0  0  0  0  0  0  0  0  0  0  0
    2.4093    2.6398    0.3043 H   0  0  0  0  0  0  0  0  0  0  0  0
    4.5450    2.8126   -0.9233 H   0  0  0  0  0  0  0  0  0  0  0  0
    2.5628   -1.6323   -0.0822 H   0  0  0  0  0  0  0  0  0  0  0  0
    6.8048   -2.9358   -4.3105 H   0  0  0  0  0  0  0  0  0  0  0  0
    6.8662   -5.2054   -4.1945 H   0  0  0  0  0  0  0  0  0  0  0  0
    5.8311   -5.9159   -3.0809 H   0  0  0  0  0  0  0  0  0  0  0  0
    4.2125   -2.5337    0.9275 H   0  0  0  0  0  0  0  0  0  0  0  0
    5.4740   -1.6379   -2.2317 H   0  0  0  0  0  0  0  0  0  0  0  0
    5.6180   -4.8172   -1.0302 H   0  0  0  0  0  0  0  0  0  0  0  0
  1 16  1  0  0  0  0
  1 17  1  0  0  0  0
  2 21  1  0  0  0  0
  2  7  1  0  0  0  0
  3  6  1  0  0  0  0
  3 22  1  0  0  0  0
  4  3  2  0  0  0  0
  5 24  1  0  0  0  0
  5  6  2  0  0  0  0
  6  1  1  0  0  0  0
  7  8  2  0  0  0  0
  7  4  1  0  0  0  0
  8  5  1  0  0  0  0
  9 15  1  0  0  0  0
 10 13  2  0  0  0  0
 11  9  1  0  0  0  0
 12 27  1  0  0  0  0
 12  9  2  0  0  0  0
 13 28  1  0  0  0  0
 14  8  1  0  0  0  0
 14 10  1  0  0  0  0
 15 30  1  0  0  0  0
 15 10  1  0  0  0  0
 18  1  1  0  0  0  0
 19  2  1  0  0  0  0
 20  2  1  0  0  0  0
 23  4  1  0  0  0  0
 25 11  1  0  0  0  0
 26 12  1  0  0  0  0
 29 14  1  0  0  0  0
M  RAD  1  11   2
M  END
>  <HBA>
5

>  <HBD>
3

>  <TPSA>
102.78

>  <cid>
34519

>  <dipole>
3.85

>  <excitation_energy_1>
4.56

>  <excitation_energy_2>
4.604

>  <excitation_energy_3>
4.85

>  <excitation_energy_4>
5.306

>  <homo_energy>
-5.331

>  <homo_lumo_gap>
5.418

>  <logP>
2.624

>  <lumo_energy>
0.087

>  <melting_point>
218.18

>  <molecular_refractivity>
62.2

>  <oscillator_strength_1>
0.0596

>  <oscillator_strength_2>
0.006

>  <oscillator_strength_3>
0.1708

>  <oscillator_strength_4>
0.0023

>  <open_babel_can_smiles>
Cc1ccc(cc1NC(=N)NC(=[NH2])[NH])C

>  <mulliken_charges>
30
1   -0.529439
2   -0.542605
3   -0.180404
4   -0.198074
5   -0.23555
6   0.16752
7   0.146939
8   0.287249
9   0.669511
10   0.651734
11   -0.69757
12   -0.756998
13   -0.673022
14   -0.764893
15   -0.666795
16   0.152732
17   0.160806
18   0.161404
19   0.152766
20   0.165952
21   0.169878
22   0.115513
23   0.118987
24   0.142033
25   0.280907
26   0.328108
27   0.332192
28   0.289919
29   0.403865
30   0.347335

>  <lowdin_charges>
30
1   -0.443203
2   -0.444958
3   -0.185333
4   -0.160707
5   -0.201709
6   0.003359
7   -0.024787
8   0.048116
9   0.148422
10   0.143362
11   -0.487281
12   -0.497644
13   -0.485456
14   -0.271298
15   -0.257476
16   0.155484
17   0.159899
18   0.161077
19   0.156381
20   0.159098
21   0.164835
22   0.153217
23   0.153178
24   0.163236
25   0.256288
26   0.280153
27   0.285059
28   0.259643
29   0.308593
30   0.300449

$$$$

