PCCDB-ID:  69853
public computational chemistry database (PCCDB) project, http://pccdb.org

 26 26  0  0  0  0  0  0  0  0999 V2000
    0.8739    0.1197    0.1434 C   0  0  0  0  0  0  0  0  0  0  0  0
    5.1990   -2.5670   -0.2521 C   0  0  0  0  0  0  0  0  0  0  0  0
    2.4082   -3.4687    0.8118 C   0  0  0  0  0  0  0  0  0  0  0  0
    1.7960   -2.7822   -1.4516 C   0  0  0  0  0  0  0  0  0  0  0  0
    4.5384    1.1532    0.1783 C   0  0  0  0  0  0  0  0  0  0  0  0
    3.1467    1.2058    0.1968 C   0  0  0  0  0  0  0  0  0  0  0  0
    5.1764   -0.0766    0.0471 C   0  0  0  0  0  0  0  0  0  0  0  0
    2.3816    0.0389    0.1006 C   0  0  0  0  0  0  0  0  0  0  0  0
    4.4461   -1.2669   -0.0676 C   0  0  0  0  0  0  0  0  0  0  0  0
    3.0350   -1.2089   -0.0278 C   0  0  0  0  0  0  0  0  0  0  0  0
    2.1971   -2.3708   -0.1160 N   0  0  0  0  0  0  0  0  0  0  0  0
    0.5467    1.1176    0.4526 H   0  0  0  0  0  0  0  0  0  0  0  0
    0.4585   -0.6211    0.8332 H   0  0  0  0  0  0  0  0  0  0  0  0
    0.4247   -0.0843   -0.8374 H   0  0  0  0  0  0  0  0  0  0  0  0
    6.2286   -2.3684   -0.5662 H   0  0  0  0  0  0  0  0  0  0  0  0
    4.7365   -3.2052   -1.0113 H   0  0  0  0  0  0  0  0  0  0  0  0
    5.2494   -3.1535    0.6739 H   0  0  0  0  0  0  0  0  0  0  0  0
    1.4615   -4.0094    0.9478 H   0  0  0  0  0  0  0  0  0  0  0  0
    2.7096   -3.0713    1.7855 H   0  0  0  0  0  0  0  0  0  0  0  0
    3.1633   -4.2073    0.4919 H   0  0  0  0  0  0  0  0  0  0  0  0
    2.5759   -3.3430   -2.0003 H   0  0  0  0  0  0  0  0  0  0  0  0
    1.5360   -1.9030   -2.0485 H   0  0  0  0  0  0  0  0  0  0  0  0
    0.9082   -3.4249   -1.3876 H   0  0  0  0  0  0  0  0  0  0  0  0
    5.1227    2.0660    0.2611 H   0  0  0  0  0  0  0  0  0  0  0  0
    2.6410    2.1631    0.3007 H   0  0  0  0  0  0  0  0  0  0  0  0
    6.2629   -0.1219    0.0164 H   0  0  0  0  0  0  0  0  0  0  0  0
  1 12  1  0  0  0  0
  1 13  1  0  0  0  0
  2  9  1  0  0  0  0
  2 17  1  0  0  0  0
  3 18  1  0  0  0  0
  3 19  1  0  0  0  0
  4 23  1  0  0  0  0
  4 11  1  0  0  0  0
  5  6  1  0  0  0  0
  5 24  1  0  0  0  0
  6 25  1  0  0  0  0
  7  5  2  0  0  0  0
  8  1  1  0  0  0  0
  8  6  2  0  0  0  0
  9 10  2  0  0  0  0
  9  7  1  0  0  0  0
 10  8  1  0  0  0  0
 11 10  1  0  0  0  0
 11  3  1  0  0  0  0
 14  1  1  0  0  0  0
 15  2  1  0  0  0  0
 16  2  1  0  0  0  0
 20  3  1  0  0  0  0
 21  4  1  0  0  0  0
 22  4  1  0  0  0  0
 26  7  1  0  0  0  0
M  END
>  <HBA>
1

>  <HBD>
0

>  <TPSA>
3.24

>  <cid>
69853

>  <dipole>
0.75

>  <excitation_energy_1>
4.492

>  <excitation_energy_2>
4.653

>  <excitation_energy_3>
4.931

>  <excitation_energy_4>
5.285

>  <homo_energy>
-5.393

>  <homo_lumo_gap>
5.567

>  <logP>
2.369

>  <lumo_energy>
0.174

>  <melting_point>
22.34

>  <molecular_refractivity>
50.58

>  <oscillator_strength_1>
0.0362

>  <oscillator_strength_2>
0.0068

>  <oscillator_strength_3>
0.0179

>  <oscillator_strength_4>
0.0104

>  <open_babel_can_smiles>
CN(c1c(C)cccc1C)C

>  <mulliken_charges>
26
1   -0.513992
2   -0.534776
3   -0.297482
4   -0.294672
5   -0.113048
6   -0.207326
7   -0.207902
8   0.171508
9   0.180578
10   0.122808
11   -0.454855
12   0.143629
13   0.166613
14   0.153581
15   0.15271
16   0.162101
17   0.161276
18   0.144445
19   0.156619
20   0.124452
21   0.12583
22   0.1565
23   0.144035
24   0.122688
25   0.117952
26   0.116727

>  <lowdin_charges>
26
1   -0.440233
2   -0.442595
3   -0.352511
4   -0.349518
5   -0.160627
6   -0.173991
7   -0.171356
8   -0.004845
9   -0.014607
10   0.019887
11   -0.167238
12   0.150321
13   0.165913
14   0.155345
15   0.155302
16   0.159799
17   0.158957
18   0.14573
19   0.155867
20   0.126114
21   0.125073
22   0.155417
23   0.145924
24   0.155716
25   0.152589
26   0.149565

$$$$

