PCCDB-ID:  69826
public computational chemistry database (PCCDB) project, http://pccdb.org

 43 42  0  0  0  0  0  0  0  0999 V2000
    1.8889    1.7368    2.5662 C   0  0  0  0  0  0  0  0  0  0  0  0
    5.1701    0.3037   11.7482 C   0  0  0  0  0  0  0  0  0  0  0  0
    2.4358    1.0646    1.3011 C   0  0  0  0  0  0  0  0  0  0  0  0
    6.4271    0.5645   12.1225 C   0  0  0  0  0  0  0  0  0  0  0  0
    3.9308    0.7090    1.3623 C   0  0  0  0  0  0  0  0  0  0  0  0
    4.2905   -0.3439    2.4217 C   0  0  0  0  0  0  0  0  0  0  0  0
    5.7478   -0.8358    2.3577 C   0  0  0  0  0  0  0  0  0  0  0  0
    6.8296    0.2329    2.6045 C   0  0  0  0  0  0  0  0  0  0  0  0
    6.7881    0.9268    3.9777 C   0  0  0  0  0  0  0  0  0  0  0  0
    7.0203   -0.0069    5.1740 C   0  0  0  0  0  0  0  0  0  0  0  0
    7.0462    0.7284    6.5205 C   0  0  0  0  0  0  0  0  0  0  0  0
    7.2755   -0.2023    7.7188 C   0  0  0  0  0  0  0  0  0  0  0  0
    7.2853    0.5336    9.0654 C   0  0  0  0  0  0  0  0  0  0  0  0
    7.5444   -0.4120   10.2385 C   0  0  0  0  0  0  0  0  0  0  0  0
    7.5956    0.2688   11.4967 O   0  0  0  0  0  0  0  0  0  0  0  0
    0.8405    2.0287    2.4350 H   0  0  0  0  0  0  0  0  0  0  0  0
    2.4575    2.6436    2.8089 H   0  0  0  0  0  0  0  0  0  0  0  0
    1.9376    1.0725    3.4362 H   0  0  0  0  0  0  0  0  0  0  0  0
    4.3591    0.6016   12.4027 H   0  0  0  0  0  0  0  0  0  0  0  0
    4.9014   -0.1925   10.8229 H   0  0  0  0  0  0  0  0  0  0  0  0
    2.2692    1.7314    0.4442 H   0  0  0  0  0  0  0  0  0  0  0  0
    1.8568    0.1531    1.0932 H   0  0  0  0  0  0  0  0  0  0  0  0
    6.6436    1.0763   13.0572 H   0  0  0  0  0  0  0  0  0  0  0  0
    4.5080    1.6281    1.5367 H   0  0  0  0  0  0  0  0  0  0  0  0
    4.2440    0.3359    0.3762 H   0  0  0  0  0  0  0  0  0  0  0  0
    3.6292   -1.2131    2.2912 H   0  0  0  0  0  0  0  0  0  0  0  0
    4.0753    0.0471    3.4250 H   0  0  0  0  0  0  0  0  0  0  0  0
    5.9249   -1.2798    1.3675 H   0  0  0  0  0  0  0  0  0  0  0  0
    5.8747   -1.6553    3.0775 H   0  0  0  0  0  0  0  0  0  0  0  0
    6.7661    1.0003    1.8217 H   0  0  0  0  0  0  0  0  0  0  0  0
    7.8146   -0.2394    2.4790 H   0  0  0  0  0  0  0  0  0  0  0  0
    5.8287    1.4477    4.1059 H   0  0  0  0  0  0  0  0  0  0  0  0
    7.5570    1.7125    3.9904 H   0  0  0  0  0  0  0  0  0  0  0  0
    7.9712   -0.5430    5.0344 H   0  0  0  0  0  0  0  0  0  0  0  0
    6.2383   -0.7784    5.2051 H   0  0  0  0  0  0  0  0  0  0  0  0
    6.0982    1.2691    6.6581 H   0  0  0  0  0  0  0  0  0  0  0  0
    7.8339    1.4959    6.5021 H   0  0  0  0  0  0  0  0  0  0  0  0
    8.2283   -0.7360    7.5847 H   0  0  0  0  0  0  0  0  0  0  0  0
    6.4932   -0.9759    7.7300 H   0  0  0  0  0  0  0  0  0  0  0  0
    6.3308    1.0522    9.2149 H   0  0  0  0  0  0  0  0  0  0  0  0
    8.0659    1.3056    9.0667 H   0  0  0  0  0  0  0  0  0  0  0  0
    8.5294   -0.8790   10.1366 H   0  0  0  0  0  0  0  0  0  0  0  0
    6.7964   -1.2153   10.2816 H   0  0  0  0  0  0  0  0  0  0  0  0
  1 17  1  0  0  0  0
  1 18  1  0  0  0  0
  2  4  2  0  0  0  0
  2 19  1  0  0  0  0
  3  5  1  0  0  0  0
  3  1  1  0  0  0  0
  4 23  1  0  0  0  0
  5 24  1  0  0  0  0
  5  6  1  0  0  0  0
  6 27  1  0  0  0  0
  7  6  1  0  0  0  0
  7  8  1  0  0  0  0
  7 29  1  0  0  0  0
  8  9  1  0  0  0  0
  9 33  1  0  0  0  0
  9 32  1  0  0  0  0
  9 10  1  0  0  0  0
 10 35  1  0  0  0  0
 10 11  1  0  0  0  0
 11 36  1  0  0  0  0
 11 12  1  0  0  0  0
 12 39  1  0  0  0  0
 12 13  1  0  0  0  0
 13 41  1  0  0  0  0
 13 40  1  0  0  0  0
 13 14  1  0  0  0  0
 14 43  1  0  0  0  0
 14 15  1  0  0  0  0
 15  4  1  0  0  0  0
 16  1  1  0  0  0  0
 20  2  1  0  0  0  0
 21  3  1  0  0  0  0
 22  3  1  0  0  0  0
 25  5  1  0  0  0  0
 26  6  1  0  0  0  0
 28  7  1  0  0  0  0
 30  8  1  0  0  0  0
 31  8  1  0  0  0  0
 34 10  1  0  0  0  0
 37 11  1  0  0  0  0
 38 12  1  0  0  0  0
 42 14  1  0  0  0  0
M  END
>  <HBA>
1

>  <HBD>
0

>  <TPSA>
9.23

>  <cid>
69826

>  <dipole>
1.25

>  <excitation_energy_1>
5.76

>  <excitation_energy_2>
5.938

>  <excitation_energy_3>
6.071

>  <excitation_energy_4>
6.14

>  <homo_energy>
-5.976

>  <homo_lumo_gap>
7.203

>  <logP>
5.067

>  <lumo_energy>
1.227

>  <melting_point>
-61.42

>  <molecular_refractivity>
70.02

>  <oscillator_strength_1>
0.0295

>  <oscillator_strength_2>
0.006

>  <oscillator_strength_3>
0.0082

>  <oscillator_strength_4>
0.0015

>  <open_babel_can_smiles>
CCCCCCCCCCCCOC=C

>  <mulliken_charges>
43
1   -0.443266
2   -0.398627
3   -0.248988
4   0.154036
5   -0.250337
6   -0.257507
7   -0.260397
8   -0.259263
9   -0.25824
10   -0.25492
11   -0.251769
12   -0.262882
13   -0.278711
14   -0.03779
15   -0.452791
16   0.141901
17   0.139847
18   0.145642
19   0.140011
20   0.137676
21   0.129837
22   0.129056
23   0.140168
24   0.131208
25   0.125945
26   0.125822
27   0.135129
28   0.126662
29   0.130468
30   0.132541
31   0.126113
32   0.132097
33   0.127478
34   0.1266
35   0.13285
36   0.130078
37   0.130197
38   0.130199
39   0.129799
40   0.151291
41   0.145026
42   0.148695
43   0.139112

>  <lowdin_charges>
43
1   -0.446793
2   -0.435276
3   -0.273349
4   -0.033668
5   -0.278015
6   -0.28041
7   -0.278836
8   -0.279375
9   -0.27874
10   -0.27729
11   -0.272876
12   -0.274573
13   -0.290346
14   -0.129778
15   -0.199033
16   0.14836
17   0.145627
18   0.147344
19   0.1687
20   0.158962
21   0.141635
22   0.138376
23   0.157227
24   0.138452
25   0.138886
26   0.140468
27   0.138604
28   0.139664
29   0.140804
30   0.142344
31   0.139672
32   0.138464
33   0.141366
34   0.137352
35   0.13957
36   0.139127
37   0.139636
38   0.13867
39   0.138775
40   0.151199
41   0.148911
42   0.150053
43   0.140111

$$$$

