PCCDB-ID:  9079
public computational chemistry database (PCCDB) project, http://pccdb.org

 25 25  0  0  0  0  0  0  0  0999 V2000
   -0.1783   -0.0595    0.2521 C   0  0  0  0  0  0  0  0  0  0  0  0
    2.0614   -1.2470    0.1498 C   0  0  0  0  0  0  0  0  0  0  0  0
    2.0117    1.1171   -0.2488 C   0  0  0  0  0  0  0  0  0  0  0  0
    3.4478   -1.2456   -0.0149 C   0  0  0  0  0  0  0  0  0  0  0  0
    3.3951    1.1196   -0.4141 C   0  0  0  0  0  0  0  0  0  0  0  0
    5.6419   -0.0610   -0.5115 C   0  0  0  0  0  0  0  0  0  0  0  0
    6.0553   -0.1157   -1.9925 C   0  0  0  0  0  0  0  0  0  0  0  0
    1.3180   -0.0665    0.0400 C   0  0  0  0  0  0  0  0  0  0  0  0
    4.1412   -0.0623   -0.2995 C   0  0  0  0  0  0  0  0  0  0  0  0
    5.8962   -1.2947   -4.0530 N   0  0  0  0  0  0  0  0  0  0  0  0
    5.6345   -1.3807   -2.5984 N   0  0  0  0  0  0  0  0  0  0  0  0
   -0.6092   -1.0543    0.0985 H   0  0  0  0  0  0  0  0  0  0  0  0
   -0.6780    0.6343   -0.4334 H   0  0  0  0  0  0  0  0  0  0  0  0
   -0.4359    0.2539    1.2727 H   0  0  0  0  0  0  0  0  0  0  0  0
    1.5507   -2.1819    0.3708 H   0  0  0  0  0  0  0  0  0  0  0  0
    1.4604    2.0507   -0.3416 H   0  0  0  0  0  0  0  0  0  0  0  0
    4.0013   -2.1774    0.0777 H   0  0  0  0  0  0  0  0  0  0  0  0
    3.9055    2.0548   -0.6355 H   0  0  0  0  0  0  0  0  0  0  0  0
    6.0753    0.8475   -0.0746 H   0  0  0  0  0  0  0  0  0  0  0  0
    6.0923   -0.9154    0.0066 H   0  0  0  0  0  0  0  0  0  0  0  0
    7.1517   -0.0619   -2.0536 H   0  0  0  0  0  0  0  0  0  0  0  0
    5.6577    0.7584   -2.5364 H   0  0  0  0  0  0  0  0  0  0  0  0
    6.9189   -1.2861   -4.1126 H   0  0  0  0  0  0  0  0  0  0  0  0
    5.6607   -2.2310   -4.3937 H   0  0  0  0  0  0  0  0  0  0  0  0
    4.6134   -1.3852   -2.5483 H   0  0  0  0  0  0  0  0  0  0  0  0
  1 14  1  0  0  0  0
  2 15  1  0  0  0  0
  3  8  2  0  0  0  0
  4 17  1  0  0  0  0
  4  2  2  0  0  0  0
  5  9  2  0  0  0  0
  5  3  1  0  0  0  0
  6  9  1  0  0  0  0
  6 19  1  0  0  0  0
  6 20  1  0  0  0  0
  7  6  1  0  0  0  0
  8  2  1  0  0  0  0
  8  1  1  0  0  0  0
  9  4  1  0  0  0  0
 10 11  1  0  0  0  0
 11 25  1  0  0  0  0
 11  7  1  0  0  0  0
 12  1  1  0  0  0  0
 13  1  1  0  0  0  0
 16  3  1  0  0  0  0
 18  5  1  0  0  0  0
 21  7  1  0  0  0  0
 22  7  1  0  0  0  0
 23 10  1  0  0  0  0
 24 10  1  0  0  0  0
M  END
>  <HBA>
2

>  <HBD>
2

>  <TPSA>
38.05

>  <cid>
9079

>  <dipole>
0.39

>  <excitation_energy_1>
4.572

>  <excitation_energy_2>
4.616

>  <excitation_energy_3>
4.868

>  <excitation_energy_4>
5.177

>  <homo_energy>
-5.214

>  <homo_lumo_gap>
5.274

>  <logP>
2.092

>  <lumo_energy>
0.06

>  <melting_point>
92.75

>  <molecular_refractivity>
46.69

>  <oscillator_strength_1>
0.0019

>  <oscillator_strength_2>
0.0012

>  <oscillator_strength_3>
0.0043

>  <oscillator_strength_4>
0.0019

>  <open_babel_can_smiles>
NNCCc1ccc(cc1)C

>  <mulliken_charges>
25
1   -0.529427
2   -0.179778
3   -0.176502
4   -0.187577
5   -0.177256
6   -0.351536
7   -0.10704
8   0.176061
9   0.149438
10   -0.59336
11   -0.477295
12   0.155091
13   0.157545
14   0.16475
15   0.120891
16   0.121037
17   0.132159
18   0.122965
19   0.14446
20   0.152902
21   0.130626
22   0.132462
23   0.301049
24   0.302704
25   0.315631

>  <lowdin_charges>
25
1   -0.442623
2   -0.168531
3   -0.165266
4   -0.170891
5   -0.164494
6   -0.27962
7   -0.204804
8   -0.001126
9   -0.012755
10   -0.492017
11   -0.324361
12   0.156542
13   0.159606
14   0.160506
15   0.154024
16   0.154157
17   0.15854
18   0.15449
19   0.154851
20   0.156283
21   0.134613
22   0.128928
23   0.248301
24   0.252094
25   0.253554

$$$$

