PCCDB-ID:  28567
public computational chemistry database (PCCDB) project, http://pccdb.org

 28 28  0  0  0  0  0  0  0  0999 V2000
    3.4999   -0.2672   -0.9878 C   0  0  0  0  0  0  0  0  0  0  0  0
    1.1965   -0.4355    0.0706 C   0  0  0  0  0  0  0  0  0  0  0  0
    2.9394    2.8735    1.6680 C   0  0  0  0  0  0  0  0  0  0  0  0
    3.9337    1.4479    3.4713 C   0  0  0  0  0  0  0  0  0  0  0  0
    3.5872   -0.8722    2.0403 C   0  0  0  0  0  0  0  0  0  0  0  0
    2.5432    0.3144    0.0710 C   0  0  0  0  0  0  0  0  0  0  0  0
    3.3527    1.5192    2.2008 C   0  0  0  0  0  0  0  0  0  0  0  0
    3.1738    0.3283    1.4616 C   0  0  0  0  0  0  0  0  0  0  0  0
    4.1705   -0.9619    3.3104 C   0  0  0  0  0  0  0  0  0  0  0  0
    4.3382    0.2351    4.0242 C   0  0  0  0  0  0  0  0  0  0  0  0
    4.5624   -2.3364    3.7837 C   0  0  0  0  0  0  0  0  0  0  0  0
    4.9072    0.1845    5.2792 O   0  0  0  0  0  0  0  0  0  0  0  0
    4.3821   -3.3227    3.1027 O   0  0  0  0  0  0  0  0  0  0  0  0
    5.1282   -2.4504    5.0037 O   0  0  0  0  0  0  0  0  0  0  0  0
    3.0458   -0.2149   -1.9844 H   0  0  0  0  0  0  0  0  0  0  0  0
    3.7333   -1.3184   -0.7840 H   0  0  0  0  0  0  0  0  0  0  0  0
    4.4461    0.2847   -1.0153 H   0  0  0  0  0  0  0  0  0  0  0  0
    0.7346   -0.3981   -0.9232 H   0  0  0  0  0  0  0  0  0  0  0  0
    0.4953    0.0038    0.7890 H   0  0  0  0  0  0  0  0  0  0  0  0
    1.3294   -1.4901    0.3381 H   0  0  0  0  0  0  0  0  0  0  0  0
    3.1442    3.6608    2.3997 H   0  0  0  0  0  0  0  0  0  0  0  0
    1.8689    2.9095    1.4336 H   0  0  0  0  0  0  0  0  0  0  0  0
    3.4779    3.1292    0.7475 H   0  0  0  0  0  0  0  0  0  0  0  0
    4.0743    2.3627    4.0458 H   0  0  0  0  0  0  0  0  0  0  0  0
    3.4677   -1.8103    1.5079 H   0  0  0  0  0  0  0  0  0  0  0  0
    2.3356    1.3496   -0.2202 H   0  0  0  0  0  0  0  0  0  0  0  0
    4.9676    1.0757    5.6561 H   0  0  0  0  0  0  0  0  0  0  0  0
    5.2113   -1.5737    5.4259 H   0  0  0  0  0  0  0  0  0  0  0  0
  1 16  1  0  0  0  0
  1  6  1  0  0  0  0
  2  6  1  0  0  0  0
  2 20  1  0  0  0  0
  2 19  1  0  0  0  0
  3  7  1  0  0  0  0
  3 21  1  0  0  0  0
  4 10  1  0  0  0  0
  4 24  1  0  0  0  0
  5  9  1  0  0  0  0
  6  8  1  0  0  0  0
  7  4  2  0  0  0  0
  8  5  2  0  0  0  0
  8  7  1  0  0  0  0
  9 11  1  0  0  0  0
  9 10  2  0  0  0  0
 10 12  1  0  0  0  0
 11 14  1  0  0  0  0
 12 27  1  0  0  0  0
 13 11  2  0  0  0  0
 14 28  1  0  0  0  0
 15  1  1  0  0  0  0
 17  1  1  0  0  0  0
 18  2  1  0  0  0  0
 22  3  1  0  0  0  0
 23  3  1  0  0  0  0
 25  5  1  0  0  0  0
 26  6  1  0  0  0  0
M  END
>  <HBA>
3

>  <HBD>
2

>  <TPSA>
57.53

>  <cid>
28567

>  <dipole>
6.83

>  <excitation_energy_1>
4.568

>  <excitation_energy_2>
4.739

>  <excitation_energy_3>
5.188

>  <excitation_energy_4>
5.339

>  <homo_energy>
-6.395

>  <homo_lumo_gap>
5.304

>  <logP>
2.522

>  <lumo_energy>
-1.091

>  <melting_point>
143.97

>  <molecular_refractivity>
54.97

>  <oscillator_strength_1>
0.0615

>  <oscillator_strength_2>
0.0

>  <oscillator_strength_3>
0.0

>  <oscillator_strength_4>
0.13

>  <open_babel_can_smiles>
CC(c1cc(C(=O)O)c(cc1C)O)C

>  <mulliken_charges>
28
1   -0.441183
2   -0.439525
3   -0.542143
4   -0.250734
5   -0.256059
6   -0.160119
7   0.126541
8   0.136397
9   0.025733
10   0.313329
11   0.575465
12   -0.691373
13   -0.465598
14   -0.602803
15   0.142884
16   0.155977
17   0.146493
18   0.142998
19   0.145438
20   0.155541
21   0.156234
22   0.172193
23   0.172442
24   0.116398
25   0.171328
26   0.128023
27   0.425886
28   0.440239

>  <lowdin_charges>
28
1   -0.439604
2   -0.440658
3   -0.443446
4   -0.221743
5   -0.122584
6   -0.120522
7   0.016242
8   -0.022294
9   -0.092645
10   0.105211
11   0.198633
12   -0.38877
13   -0.261834
14   -0.363282
15   0.148929
16   0.152013
17   0.151082
18   0.148851
19   0.151687
20   0.152061
21   0.158093
22   0.163694
23   0.165605
24   0.153267
25   0.180488
26   0.143937
27   0.368479
28   0.359111

$$$$

