PCCDB-ID:  50540
public computational chemistry database (PCCDB) project, http://pccdb.org

 15 14  0  0  0  0  0  0  0  0999 V2000
    0.8134   -0.1387    0.1717 C   0  0  0  0  0  0  0  0  0  0  0  0
    2.4806    0.4370   -2.4329 C   0  0  0  0  0  0  0  0  0  0  0  0
    4.5296   -0.2417   -1.0975 C   0  0  0  0  0  0  0  0  0  0  0  0
    2.2985   -0.2784   -0.0138 C   0  0  0  0  0  0  0  0  0  0  0  0
    3.0322   -0.0400   -1.1115 C   0  0  0  0  0  0  0  0  0  0  0  0
    0.5856    0.5715    0.9786 H   0  0  0  0  0  0  0  0  0  0  0  0
    0.3644   -1.0974    0.4664 H   0  0  0  0  0  0  0  0  0  0  0  0
    0.2962    0.2061   -0.7278 H   0  0  0  0  0  0  0  0  0  0  0  0
    2.9411    1.3918   -2.7231 H   0  0  0  0  0  0  0  0  0  0  0  0
    1.3974    0.5781   -2.4255 H   0  0  0  0  0  0  0  0  0  0  0  0
    2.7200   -0.2770   -3.2335 H   0  0  0  0  0  0  0  0  0  0  0  0
    4.8380   -0.9793   -1.8522 H   0  0  0  0  0  0  0  0  0  0  0  0
    4.8868   -0.5866   -0.1220 H   0  0  0  0  0  0  0  0  0  0  0  0
    5.0580    0.6907   -1.3428 H   0  0  0  0  0  0  0  0  0  0  0  0
    2.8321   -0.6204    0.8748 H   0  0  0  0  0  0  0  0  0  0  0  0
  1  7  1  0  0  0  0
  1  6  1  0  0  0  0
  2 10  1  0  0  0  0
  2  5  1  0  0  0  0
  3 13  1  0  0  0  0
  4  1  1  0  0  0  0
  4 15  1  0  0  0  0
  5  3  1  0  0  0  0
  5  4  2  0  0  0  0
  8  1  1  0  0  0  0
  9  2  1  0  0  0  0
 11  2  1  0  0  0  0
 12  3  1  0  0  0  0
 14  3  1  0  0  0  0
M  END
>  <HBA>
0

>  <HBD>
0

>  <TPSA>
0.0

>  <cid>
50540

>  <dipole>
0.18

>  <excitation_energy_1>
5.751

>  <excitation_energy_2>
6.239

>  <excitation_energy_3>
6.359

>  <excitation_energy_4>
6.515

>  <homo_energy>
-6.139

>  <homo_lumo_gap>
7.173

>  <logP>
1.972

>  <lumo_energy>
1.034

>  <melting_point>
-12.69

>  <molecular_refractivity>
25.68

>  <oscillator_strength_1>
0.0001

>  <oscillator_strength_2>
0.0003

>  <oscillator_strength_3>
0.0063

>  <oscillator_strength_4>
0.209

>  <open_babel_can_smiles>
CC=C(C)C

>  <mulliken_charges>
15
1   -0.486909
2   -0.512308
3   -0.505267
4   -0.154092
5   0.193962
6   0.152527
7   0.152575
8   0.150635
9   0.1506
10   0.152266
11   0.150591
12   0.147507
13   0.149546
14   0.147494
15   0.110874

>  <lowdin_charges>
15
1   -0.443982
2   -0.442981
3   -0.440198
4   -0.18952
5   -0.012268
6   0.155938
7   0.155314
8   0.153098
9   0.154244
10   0.152821
11   0.154954
12   0.152208
13   0.153405
14   0.151567
15   0.1454

$$$$

