PCCDB-ID:  17148
public computational chemistry database (PCCDB) project, http://pccdb.org

 21 21  0  0  1  0  0  0  0  0999 V2000
    1.0640   -0.0230    0.4788 C   0  0  0  0  0  0  0  0  0  0  0  0
    2.0424   -1.4031   -2.0901 C   0  0  0  0  0  0  0  0  0  0  0  0
    4.1630    1.0054   -1.5671 C   0  0  0  0  0  0  0  0  0  0  0  0
    2.8680    1.3391   -0.7769 C   0  0  0  0  0  0  0  0  0  0  0  0
    4.3555   -0.5330   -1.4345 C   0  0  0  0  0  0  0  0  0  0  0  0
    2.5156    0.0528    0.0031 C   0  0  2  0  0  0  0  0  0  0  0  0
    3.0018   -1.0863   -0.9322 C   0  0  1  0  0  0  0  0  0  0  0  0
    0.8381    0.7934    1.1754 H   0  0  0  0  0  0  0  0  0  0  0  0
    0.8602   -0.9672    0.9991 H   0  0  0  0  0  0  0  0  0  0  0  0
    0.3601    0.0566   -0.3580 H   0  0  0  0  0  0  0  0  0  0  0  0
    2.4761   -2.1675   -2.7456 H   0  0  0  0  0  0  0  0  0  0  0  0
    1.8371   -0.5203   -2.7080 H   0  0  0  0  0  0  0  0  0  0  0  0
    1.0811   -1.7854   -1.7290 H   0  0  0  0  0  0  0  0  0  0  0  0
    5.0297    1.5419   -1.1663 H   0  0  0  0  0  0  0  0  0  0  0  0
    4.0707    1.3087   -2.6157 H   0  0  0  0  0  0  0  0  0  0  0  0
    2.0502    1.5883   -1.4655 H   0  0  0  0  0  0  0  0  0  0  0  0
    2.9876    2.2018   -0.1119 H   0  0  0  0  0  0  0  0  0  0  0  0
    5.1341   -0.7476   -0.6920 H   0  0  0  0  0  0  0  0  0  0  0  0
    4.6763   -1.0010   -2.3722 H   0  0  0  0  0  0  0  0  0  0  0  0
    3.1627    0.0169    0.8934 H   0  0  0  0  0  0  0  0  0  0  0  0
    3.1510   -2.0093   -0.3554 H   0  0  0  0  0  0  0  0  0  0  0  0
  1  9  1  0  0  0  0
  1  8  1  0  0  0  0
  2 13  1  0  0  0  0
  2  7  1  0  0  0  0
  3  5  1  0  0  0  0
  3 14  1  0  0  0  0
  3  4  1  0  0  0  0
  4 17  1  0  0  0  0
  4  6  1  0  0  0  0
  5  7  1  0  0  0  0
  5 18  1  0  0  0  0
  6  1  1  0  0  0  0
  6 20  1  1  0  0  0
  7 21  1  1  0  0  0
  7  6  1  0  0  0  0
 10  1  1  0  0  0  0
 11  2  1  0  0  0  0
 12  2  1  0  0  0  0
 15  3  1  0  0  0  0
 16  4  1  0  0  0  0
 19  5  1  0  0  0  0
M  END
>  <HBA>
0

>  <HBD>
0

>  <TPSA>
0.0

>  <cid>
17148

>  <dipole>
0.1

>  <excitation_energy_1>
7.487

>  <excitation_energy_2>
7.675

>  <excitation_energy_3>
7.778

>  <excitation_energy_4>
7.978

>  <homo_energy>
-8.063

>  <homo_lumo_gap>
10.144

>  <logP>
2.442

>  <lumo_energy>
2.082

>  <melting_point>
-4.65

>  <molecular_refractivity>
33.65

>  <oscillator_strength_1>
0.0064

>  <oscillator_strength_2>
0.012

>  <oscillator_strength_3>
0.0156

>  <oscillator_strength_4>
0.0153

>  <open_babel_can_smiles>
C[C@@H]1CCC[C@@H]1C

>  <mulliken_charges>
21
1   -0.452563
2   -0.455089
3   -0.273435
4   -0.272765
5   -0.271257
6   -0.068986
7   -0.080442
8   0.140152
9   0.138742
10   0.142445
11   0.140457
12   0.141835
13   0.144175
14   0.134557
15   0.135212
16   0.131431
17   0.131138
18   0.131335
19   0.129367
20   0.11775
21   0.11594

>  <lowdin_charges>
21
1   -0.447089
2   -0.450678
3   -0.287365
4   -0.288068
5   -0.285764
6   -0.12816
7   -0.131369
8   0.149812
9   0.147515
10   0.1474
11   0.149918
12   0.146653
13   0.148899
14   0.145046
15   0.142199
16   0.139884
17   0.144181
18   0.142331
19   0.14268
20   0.135649
21   0.136324

$$$$

