PCCDB-ID:  34436
public computational chemistry database (PCCDB) project, http://pccdb.org

 24 24  0  0  0  0  0  0  0  0999 V2000
    2.3375    0.0817   -2.5822 C   0  0  0  0  0  0  0  0  0  0  0  0
    1.5708   -0.7992   -0.3247 C   0  0  0  0  0  0  0  0  0  0  0  0
    7.6971   -1.2315   -2.1800 C   0  0  0  0  0  0  0  0  0  0  0  0
    6.9764   -0.0459   -2.0813 C   0  0  0  0  0  0  0  0  0  0  0  0
    7.0602   -2.4558   -1.9615 C   0  0  0  0  0  0  0  0  0  0  0  0
    5.6111   -0.0834   -1.7683 C   0  0  0  0  0  0  0  0  0  0  0  0
    2.7539   -0.3484   -1.1747 C   0  0  0  0  0  0  0  0  0  0  0  0
    5.7004   -2.5149   -1.6432 C   0  0  0  0  0  0  0  0  0  0  0  0
    4.9733   -1.3027   -1.5492 C   0  0  0  0  0  0  0  0  0  0  0  0
    5.0516   -3.7204   -1.3610 N   0  0  0  0  0  0  0  0  0  0  0  0
    3.6458   -1.4741   -1.2288 O   0  0  0  0  0  0  0  0  0  0  0  0
    1.6815    0.9584   -2.5360 H   0  0  0  0  0  0  0  0  0  0  0  0
    1.7929   -0.7301   -3.0774 H   0  0  0  0  0  0  0  0  0  0  0  0
    3.2063    0.3348   -3.1965 H   0  0  0  0  0  0  0  0  0  0  0  0
    0.8470    0.0155   -0.2147 H   0  0  0  0  0  0  0  0  0  0  0  0
    1.9067   -1.1057    0.6704 H   0  0  0  0  0  0  0  0  0  0  0  0
    1.0641   -1.6491   -0.7956 H   0  0  0  0  0  0  0  0  0  0  0  0
    8.7551   -1.2138   -2.4262 H   0  0  0  0  0  0  0  0  0  0  0  0
    7.4596    0.9122   -2.2494 H   0  0  0  0  0  0  0  0  0  0  0  0
    7.6219   -3.3850   -2.0316 H   0  0  0  0  0  0  0  0  0  0  0  0
    5.0567    0.8459   -1.7014 H   0  0  0  0  0  0  0  0  0  0  0  0
    3.2626    0.4795   -0.6629 H   0  0  0  0  0  0  0  0  0  0  0  0
    5.4383   -4.5255   -1.8376 H   0  0  0  0  0  0  0  0  0  0  0  0
    4.0452   -3.6642   -1.4554 H   0  0  0  0  0  0  0  0  0  0  0  0
  1 12  1  0  0  0  0
  1  7  1  0  0  0  0
  2 15  1  0  0  0  0
  2 16  1  0  0  0  0
  3  4  2  0  0  0  0
  3  5  1  0  0  0  0
  4  6  1  0  0  0  0
  5  8  2  0  0  0  0
  6 21  1  0  0  0  0
  6  9  2  0  0  0  0
  7 22  1  0  0  0  0
  7  2  1  0  0  0  0
  8  9  1  0  0  0  0
  8 10  1  0  0  0  0
  9 11  1  0  0  0  0
 11  7  1  0  0  0  0
 13  1  1  0  0  0  0
 14  1  1  0  0  0  0
 17  2  1  0  0  0  0
 18  3  1  0  0  0  0
 19  4  1  0  0  0  0
 20  5  1  0  0  0  0
 23 10  1  0  0  0  0
 24 10  1  0  0  0  0
M  END
>  <HBA>
2

>  <HBD>
1

>  <TPSA>
35.25

>  <cid>
34436

>  <dipole>
1.92

>  <excitation_energy_1>
4.563

>  <excitation_energy_2>
4.718

>  <excitation_energy_3>
4.903

>  <excitation_energy_4>
5.096

>  <homo_energy>
-4.988

>  <homo_lumo_gap>
5.494

>  <logP>
2.637

>  <lumo_energy>
0.506

>  <melting_point>
57.25

>  <molecular_refractivity>
46.95

>  <oscillator_strength_1>
0.0341

>  <oscillator_strength_2>
0.0401

>  <oscillator_strength_3>
0.0097

>  <oscillator_strength_4>
0.0015

>  <open_babel_can_smiles>
CC(Oc1ccccc1N)C

>  <mulliken_charges>
24
1   -0.45771
2   -0.451219
3   -0.137566
4   -0.148693
5   -0.182621
6   -0.200022
7   0.142909
8   0.250749
9   0.35693
10   -0.788527
11   -0.562294
12   0.145055
13   0.151376
14   0.164016
15   0.145774
16   0.162438
17   0.151085
18   0.118899
19   0.118261
20   0.1134
21   0.127783
22   0.13475
23   0.314088
24   0.331138

>  <lowdin_charges>
24
1   -0.46069
2   -0.44767
3   -0.165604
4   -0.180307
5   -0.197611
6   -0.209448
7   0.012111
8   0.035158
9   0.073094
10   -0.489698
11   -0.220032
12   0.155287
13   0.155818
14   0.161947
15   0.155599
16   0.160513
17   0.154845
18   0.152525
19   0.153717
20   0.152117
21   0.158951
22   0.137932
23   0.273581
24   0.277865

$$$$

