PCCDB-ID:  20985
public computational chemistry database (PCCDB) project, http://pccdb.org

 25 25  0  0  0  0  0  0  0  0999 V2000
    0.6888    0.8193    0.9662 C   0  0  0  0  0  0  0  0  0  0  0  0
    1.9731    1.0811    1.1827 C   0  0  0  0  0  0  0  0  0  0  0  0
    6.8377   -1.9186    1.8838 C   0  0  0  0  0  0  0  0  0  0  0  0
    5.3484   -2.2237    1.6608 C   0  0  0  0  0  0  0  0  0  0  0  0
    7.1464   -0.4313    1.6514 C   0  0  0  0  0  0  0  0  0  0  0  0
    4.8880   -1.7765    0.2658 C   0  0  0  0  0  0  0  0  0  0  0  0
    6.6689    0.0454    0.2696 C   0  0  0  0  0  0  0  0  0  0  0  0
    5.1853   -0.2780    0.0067 C   0  0  0  0  0  0  0  0  0  0  0  0
    4.2660    0.6345    0.8068 C   0  0  0  0  0  0  0  0  0  0  0  0
    4.6034    1.5257    1.5515 O   0  0  0  0  0  0  0  0  0  0  0  0
    2.9511    0.3344    0.5484 O   0  0  0  0  0  0  0  0  0  0  0  0
   -0.0715    1.4083    1.4660 H   0  0  0  0  0  0  0  0  0  0  0  0
    0.3699    0.0264    0.2976 H   0  0  0  0  0  0  0  0  0  0  0  0
    2.3555    1.8576    1.8346 H   0  0  0  0  0  0  0  0  0  0  0  0
    7.4355   -2.5288    1.1898 H   0  0  0  0  0  0  0  0  0  0  0  0
    7.1385   -2.2137    2.8970 H   0  0  0  0  0  0  0  0  0  0  0  0
    4.7503   -1.7095    2.4277 H   0  0  0  0  0  0  0  0  0  0  0  0
    5.1538   -3.2963    1.7859 H   0  0  0  0  0  0  0  0  0  0  0  0
    8.2245   -0.2505    1.7467 H   0  0  0  0  0  0  0  0  0  0  0  0
    6.6561    0.1721    2.4244 H   0  0  0  0  0  0  0  0  0  0  0  0
    3.8217   -1.9765    0.1227 H   0  0  0  0  0  0  0  0  0  0  0  0
    5.4278   -2.3573   -0.4947 H   0  0  0  0  0  0  0  0  0  0  0  0
    7.2597   -0.4532   -0.5112 H   0  0  0  0  0  0  0  0  0  0  0  0
    6.8386    1.1220    0.1633 H   0  0  0  0  0  0  0  0  0  0  0  0
    4.9481   -0.0687   -1.0466 H   0  0  0  0  0  0  0  0  0  0  0  0
  1  2  2  0  0  0  0
  1 12  1  0  0  0  0
  2 14  1  0  0  0  0
  3 16  1  0  0  0  0
  4 18  1  0  0  0  0
  4  3  1  0  0  0  0
  4 17  1  0  0  0  0
  5 19  1  0  0  0  0
  5  3  1  0  0  0  0
  5 20  1  0  0  0  0
  6  4  1  0  0  0  0
  7  5  1  0  0  0  0
  8  6  1  0  0  0  0
  8  7  1  0  0  0  0
  8  9  1  0  0  0  0
  9 10  2  0  0  0  0
 11  9  1  0  0  0  0
 11  2  1  0  0  0  0
 13  1  1  0  0  0  0
 15  3  1  0  0  0  0
 21  6  1  0  0  0  0
 22  6  1  0  0  0  0
 23  7  1  0  0  0  0
 24  7  1  0  0  0  0
 25  8  1  0  0  0  0
M  END
>  <HBA>
2

>  <HBD>
0

>  <TPSA>
26.3

>  <cid>
20985

>  <dipole>
1.53

>  <excitation_energy_1>
5.514

>  <excitation_energy_2>
5.816

>  <excitation_energy_3>
6.442

>  <excitation_energy_4>
6.748

>  <homo_energy>
-6.751

>  <homo_lumo_gap>
6.455

>  <logP>
2.253

>  <lumo_energy>
-0.297

>  <melting_point>
-14.13

>  <molecular_refractivity>
44.07

>  <oscillator_strength_1>
0.0012

>  <oscillator_strength_2>
0.2769

>  <oscillator_strength_3>
0.0621

>  <oscillator_strength_4>
0.0481

>  <open_babel_can_smiles>
C=COC(=O)C1CCCCC1

>  <mulliken_charges>
25
1   -0.388839
2   0.154903
3   -0.255537
4   -0.265819
5   -0.26927
6   -0.270102
7   -0.257999
8   -0.196754
9   0.638371
10   -0.470904
11   -0.464612
12   0.154463
13   0.154514
14   0.182426
15   0.125241
16   0.133141
17   0.138227
18   0.135249
19   0.131144
20   0.158493
21   0.156725
22   0.135923
23   0.12898
24   0.150821
25   0.161215

>  <lowdin_charges>
25
1   -0.365111
2   -0.037809
3   -0.279327
4   -0.280301
5   -0.281903
6   -0.275388
7   -0.274448
8   -0.154268
9   0.207647
10   -0.249453
11   -0.155449
12   0.17385
13   0.16981
14   0.174766
15   0.137219
16   0.144299
17   0.142657
18   0.144933
19   0.143158
20   0.153451
21   0.153585
22   0.145408
23   0.143427
24   0.153836
25   0.165409

$$$$

