PCCDB-ID:  29974
public computational chemistry database (PCCDB) project, http://pccdb.org

 20 20  0  0  0  0  0  0  0  0999 V2000
    0.6549    1.2173   -0.2439 C   0  0  0  0  0  0  0  0  0  0  0  0
    1.3829   -0.0328    0.2426 C   0  0  0  0  0  0  0  0  0  0  0  0
   -1.4081    0.0166   -0.2433 C   0  0  0  0  0  0  0  0  0  0  0  0
   -0.6802   -1.2334    0.2436 C   0  0  0  0  0  0  0  0  0  0  0  0
   -1.4018    2.3792   -0.3250 N   0  0  0  0  0  0  0  0  0  0  0  0
    1.3768   -2.3951    0.3249 N   0  0  0  0  0  0  0  0  0  0  0  0
   -0.7214    1.2096    0.2573 N   0  0  0  0  0  0  0  0  0  0  0  0
    0.6960   -1.2259   -0.2577 N   0  0  0  0  0  0  0  0  0  0  0  0
    0.6800    1.2725   -1.3460 H   0  0  0  0  0  0  0  0  0  0  0  0
    1.1645    2.1061    0.1507 H   0  0  0  0  0  0  0  0  0  0  0  0
    1.4446   -0.0377    1.3446 H   0  0  0  0  0  0  0  0  0  0  0  0
    2.4070   -0.0288   -0.1533 H   0  0  0  0  0  0  0  0  0  0  0  0
   -2.4324    0.0126    0.1518 H   0  0  0  0  0  0  0  0  0  0  0  0
   -1.4690    0.0214   -1.3455 H   0  0  0  0  0  0  0  0  0  0  0  0
   -1.1899   -2.1223   -0.1506 H   0  0  0  0  0  0  0  0  0  0  0  0
   -0.7054   -1.2880    1.3458 H   0  0  0  0  0  0  0  0  0  0  0  0
   -0.9420    3.1782    0.1216 H   0  0  0  0  0  0  0  0  0  0  0  0
   -2.3269    2.3695    0.1150 H   0  0  0  0  0  0  0  0  0  0  0  0
    2.2990   -2.3899   -0.1211 H   0  0  0  0  0  0  0  0  0  0  0  0
    0.9118   -3.1947   -0.1154 H   0  0  0  0  0  0  0  0  0  0  0  0
  1 10  1  0  0  0  0
  1  2  1  0  0  0  0
  1  7  1  0  0  0  0
  2 11  1  0  0  0  0
  3 13  1  0  0  0  0
  3  4  1  0  0  0  0
  3  7  1  0  0  0  0
  4 16  1  0  0  0  0
  5 18  1  0  0  0  0
  5 17  1  0  0  0  0
  5  7  1  0  0  0  0
  8  2  1  0  0  0  0
  8  4  1  0  0  0  0
  8  6  1  0  0  0  0
  9  1  1  0  0  0  0
 12  2  1  0  0  0  0
 14  3  1  0  0  0  0
 15  4  1  0  0  0  0
 19  6  1  0  0  0  0
 20  6  1  0  0  0  0
M  END
>  <HBA>
4

>  <HBD>
2

>  <TPSA>
58.52

>  <cid>
29974

>  <dipole>
0.01

>  <excitation_energy_1>
4.745

>  <excitation_energy_2>
4.754

>  <excitation_energy_3>
5.171

>  <excitation_energy_4>
5.188

>  <homo_energy>
-5.143

>  <homo_lumo_gap>
7.279

>  <logP>
-0.372

>  <lumo_energy>
2.136

>  <melting_point>
111.11

>  <molecular_refractivity>
38.26

>  <oscillator_strength_1>
0.0

>  <oscillator_strength_2>
0.017

>  <oscillator_strength_3>
0.0176

>  <oscillator_strength_4>
0.0

>  <open_babel_can_smiles>
NN1CCN(CC1)N

>  <mulliken_charges>
20
1   -0.112392
2   -0.112586
3   -0.11278
4   -0.112702
5   -0.573442
6   -0.57344
7   -0.340682
8   -0.340681
9   0.13673
10   0.131583
11   0.136734
12   0.131625
13   0.131598
14   0.136736
15   0.131556
16   0.136744
17   0.301409
18   0.301291
19   0.301384
20   0.301315

>  <lowdin_charges>
20
1   -0.20661
2   -0.205578
3   -0.205577
4   -0.206632
5   -0.481994
6   -0.482029
7   -0.158556
8   -0.158558
9   0.130106
10   0.144175
11   0.130104
12   0.142504
13   0.142461
14   0.130075
15   0.144128
16   0.130085
17   0.253686
18   0.252245
19   0.252323
20   0.253644

$$$$

