PCCDB-ID:  20417
public computational chemistry database (PCCDB) project, http://pccdb.org

 17 17  0  0  0  0  0  0  0  0999 V2000
    0.7349    1.2486   -0.1726 C   0  0  0  0  0  0  0  0  0  0  0  0
   -1.4221    0.0578   -0.2634 C   0  0  0  0  0  0  0  0  0  0  0  0
    1.3678   -0.0492    0.3396 C   0  0  0  0  0  0  0  0  0  0  0  0
   -0.6892   -1.1850    0.2446 C   0  0  0  0  0  0  0  0  0  0  0  0
   -1.3082    2.2769    0.7961 C   0  0  0  0  0  0  0  0  0  0  0  0
   -0.6868    1.2519    0.1431 N   0  0  0  0  0  0  0  0  0  0  0  0
   -2.4916    2.3159    1.0894 O   0  0  0  0  0  0  0  0  0  0  0  0
    0.6756   -1.1821   -0.1657 O   0  0  0  0  0  0  0  0  0  0  0  0
    0.8756    1.3128   -1.2615 H   0  0  0  0  0  0  0  0  0  0  0  0
    1.2095    2.1225    0.2870 H   0  0  0  0  0  0  0  0  0  0  0  0
   -2.4310    0.1320    0.1481 H   0  0  0  0  0  0  0  0  0  0  0  0
   -1.4880    0.0234   -1.3601 H   0  0  0  0  0  0  0  0  0  0  0  0
    1.3565   -0.0555    1.4424 H   0  0  0  0  0  0  0  0  0  0  0  0
    2.4030   -0.1379   -0.0033 H   0  0  0  0  0  0  0  0  0  0  0  0
   -1.1327   -2.0943   -0.1712 H   0  0  0  0  0  0  0  0  0  0  0  0
   -0.7520   -1.2306    1.3440 H   0  0  0  0  0  0  0  0  0  0  0  0
   -0.6030    3.0955    1.0430 H   0  0  0  0  0  0  0  0  0  0  0  0
  1  6  1  0  0  0  0
  1 10  1  0  0  0  0
  1  3  1  0  0  0  0
  2  6  1  0  0  0  0
  2 11  1  0  0  0  0
  2  4  1  0  0  0  0
  3 13  1  0  0  0  0
  4 16  1  0  0  0  0
  5 17  1  0  0  0  0
  5  7  2  0  0  0  0
  6  5  1  0  0  0  0
  8  4  1  0  0  0  0
  8  3  1  0  0  0  0
  9  1  1  0  0  0  0
 12  2  1  0  0  0  0
 14  3  1  0  0  0  0
 15  4  1  0  0  0  0
M  END
>  <HBA>
3

>  <HBD>
0

>  <TPSA>
29.54

>  <cid>
20417

>  <dipole>
2.83

>  <excitation_energy_1>
5.601

>  <excitation_energy_2>
5.95

>  <excitation_energy_3>
6.179

>  <excitation_energy_4>
6.429

>  <homo_energy>
-6.482

>  <homo_lumo_gap>
7.165

>  <logP>
0.049

>  <lumo_energy>
0.683

>  <melting_point>
11.76

>  <molecular_refractivity>
32.52

>  <oscillator_strength_1>
0.0009

>  <oscillator_strength_2>
0.0693

>  <oscillator_strength_3>
0.0659

>  <oscillator_strength_4>
0.0305

>  <open_babel_can_smiles>
O=CN1CCOCC1

>  <mulliken_charges>
17
1   -0.154783
2   -0.156553
3   -0.028862
4   -0.040439
5   0.347139
6   -0.374907
7   -0.467896
8   -0.464347
9   0.15859
10   0.155656
11   0.192011
12   0.155881
13   0.131333
14   0.153815
15   0.155573
16   0.136604
17   0.101187

>  <lowdin_charges>
17
1   -0.208433
2   -0.210141
3   -0.13561
4   -0.135948
5   0.036537
6   -0.104995
7   -0.298465
8   -0.27253
9   0.14702
10   0.159511
11   0.179346
12   0.147626
13   0.130376
14   0.154714
15   0.15773
16   0.133001
17   0.12026

$$$$

