PCCDB-ID:  13603
public computational chemistry database (PCCDB) project, http://pccdb.org

 19 19  0  0  0  0  0  0  0  0999 V2000
    1.1977   -0.0326   -0.5230 C   0  0  0  0  0  0  0  0  0  0  0  0
    5.2363    0.0580    0.9571 C   0  0  0  0  0  0  0  0  0  0  0  0
    4.3692   -1.1635    1.2627 C   0  0  0  0  0  0  0  0  0  0  0  0
    4.3883    1.3247    1.1030 C   0  0  0  0  0  0  0  0  0  0  0  0
    3.2006   -1.2300    0.2827 C   0  0  0  0  0  0  0  0  0  0  0  0
    3.0192    1.2789    0.4249 C   0  0  0  0  0  0  0  0  0  0  0  0
    2.4819    0.0392    0.1584 N   0  0  0  0  0  0  0  0  0  0  0  0
    2.4162    2.3206    0.1848 O   0  0  0  0  0  0  0  0  0  0  0  0
    0.5216   -0.7088    0.0150 H   0  0  0  0  0  0  0  0  0  0  0  0
    1.3166   -0.4089   -1.5492 H   0  0  0  0  0  0  0  0  0  0  0  0
    0.7707    0.9687   -0.5553 H   0  0  0  0  0  0  0  0  0  0  0  0
    5.6268   -0.0182   -0.0674 H   0  0  0  0  0  0  0  0  0  0  0  0
    6.1058    0.1034    1.6233 H   0  0  0  0  0  0  0  0  0  0  0  0
    3.9870   -1.0978    2.2903 H   0  0  0  0  0  0  0  0  0  0  0  0
    4.9438   -2.0943    1.1898 H   0  0  0  0  0  0  0  0  0  0  0  0
    4.8961    2.2107    0.7107 H   0  0  0  0  0  0  0  0  0  0  0  0
    4.1979    1.5274    2.1664 H   0  0  0  0  0  0  0  0  0  0  0  0
    2.4799   -1.9938    0.6033 H   0  0  0  0  0  0  0  0  0  0  0  0
    3.5656   -1.5425   -0.7105 H   0  0  0  0  0  0  0  0  0  0  0  0
  1  9  1  0  0  0  0
  1  7  1  0  0  0  0
  2  4  1  0  0  0  0
  2  3  1  0  0  0  0
  2 13  1  0  0  0  0
  3 14  1  0  0  0  0
  4 17  1  0  0  0  0
  5 18  1  0  0  0  0
  5  3  1  0  0  0  0
  6  4  1  0  0  0  0
  7  5  1  0  0  0  0
  7  6  1  0  0  0  0
  8  6  2  0  0  0  0
 10  1  1  0  0  0  0
 11  1  1  0  0  0  0
 12  2  1  0  0  0  0
 15  3  1  0  0  0  0
 16  4  1  0  0  0  0
 19  5  1  0  0  0  0
M  END
>  <HBA>
2

>  <HBD>
0

>  <TPSA>
20.31

>  <cid>
13603

>  <dipole>
3.78

>  <excitation_energy_1>
5.419

>  <excitation_energy_2>
5.73

>  <excitation_energy_3>
6.098

>  <excitation_energy_4>
6.223

>  <homo_energy>
-6.297

>  <homo_lumo_gap>
7.165

>  <logP>
0.567

>  <lumo_energy>
0.868

>  <melting_point>
20.04

>  <molecular_refractivity>
35.85

>  <oscillator_strength_1>
0.0021

>  <oscillator_strength_2>
0.0236

>  <oscillator_strength_3>
0.0046

>  <oscillator_strength_4>
0.0223

>  <open_babel_can_smiles>
CN1CCCCC1=O

>  <mulliken_charges>
19
1   -0.320919
2   -0.27125
3   -0.281747
4   -0.351573
5   -0.116612
6   0.585
7   -0.422643
8   -0.524483
9   0.148228
10   0.148121
11   0.205614
12   0.142095
13   0.142439
14   0.146613
15   0.144211
16   0.171806
17   0.167482
18   0.146169
19   0.141447

>  <lowdin_charges>
19
1   -0.356433
2   -0.278788
3   -0.280151
4   -0.302448
5   -0.191564
6   0.155312
7   -0.116218
8   -0.320788
9   0.149102
10   0.14433
11   0.184771
12   0.143327
13   0.150307
14   0.146081
15   0.153119
16   0.170892
17   0.16431
18   0.148723
19   0.136118

$$$$

