PCCDB-ID:  69105
public computational chemistry database (PCCDB) project, http://pccdb.org

 22 21  0  0  0  0  0  0  0  0999 V2000
    3.8982   -0.7600   -4.5685 C   0  0  0  0  0  0  0  0  0  0  0  0
    9.2565    0.2587    1.6929 C   0  0  0  0  0  0  0  0  0  0  0  0
    3.0824   -0.6004   -3.2958 C   0  0  0  0  0  0  0  0  0  0  0  0
    8.3326   -0.9450    1.6028 C   0  0  0  0  0  0  0  0  0  0  0  0
    5.3495    0.0830   -0.4020 C   0  0  0  0  0  0  0  0  0  0  0  0
    4.6379   -0.7116   -1.5073 C   0  0  0  0  0  0  0  0  0  0  0  0
    6.7660   -0.4222   -0.1001 C   0  0  0  0  0  0  0  0  0  0  0  0
    4.8524    1.0237    0.1672 O   0  0  0  0  0  0  0  0  0  0  0  0
    4.7649   -1.9144   -1.5848 O   0  0  0  0  0  0  0  0  0  0  0  0
    7.5598   -0.6014   -0.9977 O   0  0  0  0  0  0  0  0  0  0  0  0
    3.8584    0.0641   -2.2583 O   0  0  0  0  0  0  0  0  0  0  0  0
    6.9890   -0.5463    1.2071 O   0  0  0  0  0  0  0  0  0  0  0  0
    3.2686   -1.1878   -5.3569 H   0  0  0  0  0  0  0  0  0  0  0  0
    4.7468   -1.4301   -4.4047 H   0  0  0  0  0  0  0  0  0  0  0  0
    4.2729    0.2085   -4.9143 H   0  0  0  0  0  0  0  0  0  0  0  0
   10.2356   -0.0586    2.0695 H   0  0  0  0  0  0  0  0  0  0  0  0
    8.8506    1.0104    2.3770 H   0  0  0  0  0  0  0  0  0  0  0  0
    9.3993    0.7137    0.7088 H   0  0  0  0  0  0  0  0  0  0  0  0
    2.7435   -1.5647   -2.9104 H   0  0  0  0  0  0  0  0  0  0  0  0
    2.2237    0.0578   -3.4425 H   0  0  0  0  0  0  0  0  0  0  0  0
    8.1883   -1.4200    2.5751 H   0  0  0  0  0  0  0  0  0  0  0  0
    8.7000   -1.6835    0.8861 H   0  0  0  0  0  0  0  0  0  0  0  0
  1 14  1  0  0  0  0
  1  3  1  0  0  0  0
  2 16  1  0  0  0  0
  2 17  1  0  0  0  0
  3 19  1  0  0  0  0
  3 11  1  0  0  0  0
  4  2  1  0  0  0  0
  4 21  1  0  0  0  0
  5  7  1  0  0  0  0
  5  8  2  0  0  0  0
  6  5  1  0  0  0  0
  7 12  1  0  0  0  0
  9  6  2  0  0  0  0
 10  7  2  0  0  0  0
 11  6  1  0  0  0  0
 12  4  1  0  0  0  0
 13  1  1  0  0  0  0
 15  1  1  0  0  0  0
 18  2  1  0  0  0  0
 20  3  1  0  0  0  0
 22  4  1  0  0  0  0
M  END
>  <HBA>
5

>  <HBD>
0

>  <TPSA>
69.67

>  <cid>
69105

>  <dipole>
0.51

>  <excitation_energy_1>
3.135

>  <excitation_energy_2>
4.611

>  <excitation_energy_3>
5.061

>  <excitation_energy_4>
5.376

>  <homo_energy>
-7.061

>  <homo_lumo_gap>
4.659

>  <logP>
-0.318

>  <lumo_energy>
-2.403

>  <melting_point>
19.05

>  <molecular_refractivity>
38.53

>  <oscillator_strength_1>
0.0003

>  <oscillator_strength_2>
0.0129

>  <oscillator_strength_3>
0.0009

>  <oscillator_strength_4>
0.0178

>  <open_babel_can_smiles>
CCOC(=O)C(=O)C(=O)OCC

>  <mulliken_charges>
22
1   -0.465552
2   -0.464071
3   -0.055276
4   -0.054864
5   0.336675
6   0.580705
7   0.578511
8   -0.376227
9   -0.455143
10   -0.453893
11   -0.434489
12   -0.434223
13   0.156857
14   0.18295
15   0.166499
16   0.156836
17   0.16816
18   0.179066
19   0.176919
20   0.166673
21   0.165247
22   0.178639

>  <lowdin_charges>
22
1   -0.455402
2   -0.454253
3   -0.124637
4   -0.124031
5   0.127538
6   0.164366
7   0.174479
8   -0.1501
9   -0.235161
10   -0.238258
11   -0.155557
12   -0.161439
13   0.163847
14   0.169372
15   0.161129
16   0.162575
17   0.163023
18   0.16687
19   0.162051
20   0.160441
21   0.15921
22   0.163938

$$$$

