PCCDB-ID:  122
public computational chemistry database (PCCDB) project, http://pccdb.org

 22 21  0  0  0  0  0  0  0  0999 V2000
    2.5555   -1.2394   -1.6392 C   0  0  0  0  0  0  0  0  0  0  0  0
    2.7507   -2.5613   -1.7179 C   0  0  0  0  0  0  0  0  0  0  0  0
    2.5074    0.9934   -0.3615 C   0  0  0  0  0  0  0  0  0  0  0  0
    0.7692    2.8928   -0.7534 C   0  0  0  0  0  0  0  0  0  0  0  0
    2.7218   -0.5133   -0.3447 C   0  0  0  0  0  0  0  0  0  0  0  0
    1.0865    1.3941   -0.7327 C   0  0  0  0  0  0  0  0  0  0  0  0
    2.6000   -3.2843   -3.0148 C   0  0  0  0  0  0  0  0  0  0  0  0
    1.4577    3.6271   -1.8931 C   0  0  0  0  0  0  0  0  0  0  0  0
    3.0430   -1.0907    0.6804 O   0  0  0  0  0  0  0  0  0  0  0  0
    0.2233    0.5798   -0.9880 O   0  0  0  0  0  0  0  0  0  0  0  0
    2.3672   -2.7442   -4.0699 O   0  0  0  0  0  0  0  0  0  0  0  0
    2.7470   -4.6349   -2.9537 O   0  0  0  0  0  0  0  0  0  0  0  0
    2.5406    3.3532   -2.3640 O   0  0  0  0  0  0  0  0  0  0  0  0
    0.7103    4.6642   -2.3223 O   0  0  0  0  0  0  0  0  0  0  0  0
    2.2783   -0.6838   -2.5303 H   0  0  0  0  0  0  0  0  0  0  0  0
    3.0211   -3.1061   -0.8146 H   0  0  0  0  0  0  0  0  0  0  0  0
    3.1843    1.4791   -1.0791 H   0  0  0  0  0  0  0  0  0  0  0  0
    2.7516    1.3914    0.6306 H   0  0  0  0  0  0  0  0  0  0  0  0
    1.1118    3.3581    0.1814 H   0  0  0  0  0  0  0  0  0  0  0  0
   -0.3123    3.0221   -0.8250 H   0  0  0  0  0  0  0  0  0  0  0  0
    2.9138   -4.9178   -2.0396 H   0  0  0  0  0  0  0  0  0  0  0  0
    1.2187    5.0970   -3.0354 H   0  0  0  0  0  0  0  0  0  0  0  0
  1  5  1  0  0  0  0
  2  1  2  0  0  0  0
  2 16  1  0  0  0  0
  3  5  1  0  0  0  0
  3 18  1  0  0  0  0
  4  6  1  0  0  0  0
  4 19  1  0  0  0  0
  5  9  2  0  0  0  0
  6  3  1  0  0  0  0
  7 12  1  0  0  0  0
  7  2  1  0  0  0  0
  8  4  1  0  0  0  0
 10  6  2  0  0  0  0
 11  7  2  0  0  0  0
 12 21  1  0  0  0  0
 13  8  2  0  0  0  0
 14  8  1  0  0  0  0
 15  1  1  0  0  0  0
 17  3  1  0  0  0  0
 20  4  1  0  0  0  0
 22 14  1  0  0  0  0
M  END
>  <HBA>
6

>  <HBD>
2

>  <TPSA>
108.74

>  <cid>
122

>  <dipole>
4.51

>  <excitation_energy_1>
3.255

>  <excitation_energy_2>
3.863

>  <excitation_energy_3>
4.124

>  <excitation_energy_4>
4.408

>  <homo_energy>
-7.225

>  <homo_lumo_gap>
4.615

>  <logP>
-0.37

>  <lumo_energy>
-2.61

>  <melting_point>
179.0

>  <molecular_refractivity>
44.04

>  <oscillator_strength_1>
0.0003

>  <oscillator_strength_2>
0.0001

>  <oscillator_strength_3>
0.0067

>  <oscillator_strength_4>
0.0008

>  <open_babel_can_smiles>
O=C(CC(=O)CC(=O)O)/C=C/C(=O)O

>  <mulliken_charges>
22
1   -0.12407
2   -0.206646
3   -0.475302
4   -0.440856
5   0.451162
6   0.459312
7   0.608039
8   0.584549
9   -0.445414
10   -0.415304
11   -0.442721
12   -0.573967
13   -0.450689
14   -0.548762
15   0.183555
16   0.166282
17   0.229881
18   0.192689
19   0.204065
20   0.21138
21   0.413577
22   0.41924

>  <lowdin_charges>
22
1   -0.137272
2   -0.168967
3   -0.34778
4   -0.329672
5   0.171291
6   0.179636
7   0.196406
8   0.202033
9   -0.223746
10   -0.211813
11   -0.234333
12   -0.349912
13   -0.263267
14   -0.341211
15   0.186849
16   0.173694
17   0.203219
18   0.183688
19   0.191872
20   0.190955
21   0.359064
22   0.369268

$$$$

