PCCDB-ID:  33941
public computational chemistry database (PCCDB) project, http://pccdb.org

 25 25  0  0  0  0  0  0  0  0999 V2000
    0.6499    0.5968   -0.3374 C   0  0  0  0  0  0  0  0  0  0  0  0
    1.5978   -2.2077   -0.5264 C   0  0  0  0  0  0  0  0  0  0  0  0
    4.3412    0.9871    0.4921 C   0  0  0  0  0  0  0  0  0  0  0  0
    3.0006    1.2628    0.2398 C   0  0  0  0  0  0  0  0  0  0  0  0
    4.7917   -0.3290    0.4265 C   0  0  0  0  0  0  0  0  0  0  0  0
    4.4846   -2.7810    0.0107 C   0  0  0  0  0  0  0  0  0  0  0  0
    5.0385   -3.1095   -1.3902 C   0  0  0  0  0  0  0  0  0  0  0  0
    2.1005    0.2413   -0.0884 C   0  0  0  0  0  0  0  0  0  0  0  0
    2.5612   -1.0908   -0.1752 C   0  0  0  0  0  0  0  0  0  0  0  0
    3.9172   -1.3764    0.0996 C   0  0  0  0  0  0  0  0  0  0  0  0
    6.1099   -2.2596   -1.7691 O   0  0  0  0  0  0  0  0  0  0  0  0
    0.4785    1.6629   -0.1604 H   0  0  0  0  0  0  0  0  0  0  0  0
   -0.0289    0.0391    0.3191 H   0  0  0  0  0  0  0  0  0  0  0  0
    0.3432    0.3830   -1.3696 H   0  0  0  0  0  0  0  0  0  0  0  0
    0.7179   -1.8345   -1.0550 H   0  0  0  0  0  0  0  0  0  0  0  0
    1.2371   -2.7260    0.3736 H   0  0  0  0  0  0  0  0  0  0  0  0
    2.0605   -2.9643   -1.1663 H   0  0  0  0  0  0  0  0  0  0  0  0
    5.0273    1.7896    0.7498 H   0  0  0  0  0  0  0  0  0  0  0  0
    2.6379    2.2862    0.3019 H   0  0  0  0  0  0  0  0  0  0  0  0
    5.8317   -0.5602    0.6444 H   0  0  0  0  0  0  0  0  0  0  0  0
    5.3109   -2.8821    0.7241 H   0  0  0  0  0  0  0  0  0  0  0  0
    3.7372   -3.5343    0.2841 H   0  0  0  0  0  0  0  0  0  0  0  0
    4.2265   -3.0774   -2.1352 H   0  0  0  0  0  0  0  0  0  0  0  0
    5.4485   -4.1248   -1.3948 H   0  0  0  0  0  0  0  0  0  0  0  0
    5.7668   -1.3508   -1.7628 H   0  0  0  0  0  0  0  0  0  0  0  0
  1 12  1  0  0  0  0
  1  8  1  0  0  0  0
  1 13  1  0  0  0  0
  2  9  1  0  0  0  0
  2 16  1  0  0  0  0
  3 18  1  0  0  0  0
  4 19  1  0  0  0  0
  4  3  2  0  0  0  0
  5  3  1  0  0  0  0
  5 20  1  0  0  0  0
  6 10  1  0  0  0  0
  6 22  1  0  0  0  0
  6 21  1  0  0  0  0
  7  6  1  0  0  0  0
  8  4  1  0  0  0  0
  9  8  2  0  0  0  0
  9 10  1  0  0  0  0
 10  5  2  0  0  0  0
 11 25  1  0  0  0  0
 11  7  1  0  0  0  0
 14  1  1  0  0  0  0
 15  2  1  0  0  0  0
 17  2  1  0  0  0  0
 23  7  1  0  0  0  0
 24  7  1  0  0  0  0
M  END
>  <HBA>
1

>  <HBD>
1

>  <TPSA>
20.23

>  <cid>
33941

>  <dipole>
2.16

>  <excitation_energy_1>
5.131

>  <excitation_energy_2>
5.663

>  <excitation_energy_3>
5.882

>  <excitation_energy_4>
5.976

>  <homo_energy>
-6.362

>  <homo_lumo_gap>
6.313

>  <logP>
1.838

>  <lumo_energy>
-0.049

>  <melting_point>
34.78

>  <molecular_refractivity>
47.31

>  <oscillator_strength_1>
0.0003

>  <oscillator_strength_2>
0.0172

>  <oscillator_strength_3>
0.0172

>  <oscillator_strength_4>
0.0142

>  <open_babel_can_smiles>
Cc1c(CCO)cccc1C

>  <mulliken_charges>
25
1   -0.538615
2   -0.54131
3   -0.12326
4   -0.185576
5   -0.209446
6   -0.35845
7   -0.026603
8   0.134571
9   0.070365
10   0.094635
11   -0.619608
12   0.155494
13   0.161325
14   0.161989
15   0.158121
16   0.164198
17   0.160207
18   0.1282
19   0.120705
20   0.135529
21   0.154763
22   0.139958
23   0.12342
24   0.145614
25   0.393776

>  <lowdin_charges>
25
1   -0.443092
2   -0.451326
3   -0.162294
4   -0.169304
5   -0.181614
6   -0.297685
7   -0.132166
8   -0.006342
9   -0.018807
10   -0.018945
11   -0.467974
12   0.155732
13   0.160366
14   0.157607
15   0.161332
16   0.161441
17   0.159312
18   0.158568
19   0.152715
20   0.157572
21   0.157602
22   0.15436
23   0.125504
24   0.146214
25   0.341226

$$$$

