PCCDB-ID:  2479
public computational chemistry database (PCCDB) project, http://pccdb.org

 31 31  0  0  1  0  0  0  0  0999 V2000
    1.1179    0.0369   -1.9474 C   0  0  0  0  0  0  0  0  0  0  0  0
    6.7754    2.7143   -0.1055 C   0  0  0  0  0  0  0  0  0  0  0  0
    2.4378    1.3540    0.5133 C   0  0  0  0  0  0  0  0  0  0  0  0
    2.6161   -0.0140   -1.6226 C   0  0  0  0  0  0  0  0  0  0  0  0
    5.2529    2.5362   -0.0635 C   0  0  0  0  0  0  0  0  0  0  0  0
    3.1368    1.2202   -0.8515 C   0  0  2  0  0  0  0  0  0  0  0  0
    5.2654    1.2343   -2.2150 C   0  0  0  0  0  0  0  0  0  0  0  0
    5.2839    0.0056   -0.0944 C   0  0  0  0  0  0  0  0  0  0  0  0
    6.1727   -0.8924   -2.0437 C   0  0  0  0  0  0  0  0  0  0  0  0
    4.7244    1.2514   -0.7827 C   0  0  1  0  0  0  0  0  0  0  0  0
    5.9169    0.2968   -2.7753 N   0  0  0  0  0  0  0  0  0  0  0  0
    5.9203   -0.9464   -0.6494 N   0  0  0  0  0  0  0  0  0  0  0  0
    5.0121    2.3293   -2.9702 O   0  0  0  0  0  0  0  0  0  0  0  0
    5.0929   -0.1012    1.2420 O   0  0  0  0  0  0  0  0  0  0  0  0
    6.6254   -1.8604   -2.6113 O   0  0  0  0  0  0  0  0  0  0  0  0
    0.8406   -0.8167   -2.5744 H   0  0  0  0  0  0  0  0  0  0  0  0
    0.8597    0.9491   -2.4997 H   0  0  0  0  0  0  0  0  0  0  0  0
    0.4926   -0.0024   -1.0492 H   0  0  0  0  0  0  0  0  0  0  0  0
    7.0612    3.6258    0.4290 H   0  0  0  0  0  0  0  0  0  0  0  0
    7.1464    2.7965   -1.1320 H   0  0  0  0  0  0  0  0  0  0  0  0
    7.2873    1.8718    0.3713 H   0  0  0  0  0  0  0  0  0  0  0  0
    1.3665    1.5139    0.3637 H   0  0  0  0  0  0  0  0  0  0  0  0
    2.7978    2.2083    1.0971 H   0  0  0  0  0  0  0  0  0  0  0  0
    2.5399    0.4425    1.1141 H   0  0  0  0  0  0  0  0  0  0  0  0
    3.1679   -0.1136   -2.5637 H   0  0  0  0  0  0  0  0  0  0  0  0
    2.8359   -0.9203   -1.0427 H   0  0  0  0  0  0  0  0  0  0  0  0
    4.7597    3.4173   -0.4984 H   0  0  0  0  0  0  0  0  0  0  0  0
    4.9260    2.5355    0.9823 H   0  0  0  0  0  0  0  0  0  0  0  0
    2.8605    2.1120   -1.4351 H   0  0  0  0  0  0  0  0  0  0  0  0
    4.5271    2.9904   -2.4526 H   0  0  0  0  0  0  0  0  0  0  0  0
    4.5889    0.6572    1.5725 H   0  0  0  0  0  0  0  0  0  0  0  0
  1  4  1  0  0  0  0
  1 18  1  0  0  0  0
  2  5  1  0  0  0  0
  2 21  1  0  0  0  0
  2 19  1  0  0  0  0
  3 23  1  0  0  0  0
  3 24  1  0  0  0  0
  4 26  1  0  0  0  0
  4  6  1  0  0  0  0
  5 28  1  0  0  0  0
  6 29  1  6  0  0  0
  6 10  1  0  0  0  0
  6  3  1  0  0  0  0
  7 10  1  0  0  0  0
  8 14  1  0  0  0  0
  9 12  1  0  0  0  0
 10  8  1  0  0  0  0
 10  5  1  1  0  0  0
 11  7  2  0  0  0  0
 11  9  2  0  0  0  0
 12  8  2  0  0  0  0
 13 30  1  0  0  0  0
 13  7  1  0  0  0  0
 14 31  1  0  0  0  0
 15  9  2  0  0  0  0
 16  1  1  0  0  0  0
 17  1  1  0  0  0  0
 20  2  1  0  0  0  0
 22  3  1  0  0  0  0
 25  4  1  0  0  0  0
 27  5  1  0  0  0  0
M  END
>  <HBA>
5

>  <HBD>
2

>  <TPSA>
75.27

>  <cid>
2479

>  <dipole>
9.92

>  <excitation_energy_1>
3.99

>  <excitation_energy_2>
4.181

>  <excitation_energy_3>
5.232

>  <excitation_energy_4>
5.524

>  <homo_energy>
-6.857

>  <homo_lumo_gap>
5.374

>  <logP>
1.452

>  <lumo_energy>
-1.483

>  <melting_point>
140.91

>  <molecular_refractivity>
62.23

>  <oscillator_strength_1>
0.0002

>  <oscillator_strength_2>
0.0001

>  <oscillator_strength_3>
0.0003

>  <oscillator_strength_4>
0.0202

>  <open_babel_can_smiles>
CC[C@H]([C@@]1(CC)C(=N[C](=[N]=C1O)=O)O)C

>  <mulliken_charges>
31
1   -0.454733
2   -0.466739
3   -0.507575
4   -0.285396
5   -0.300079
6   -0.067211
7   0.541556
8   0.534215
9   0.617275
10   -0.132354
11   -0.469523
12   -0.465979
13   -0.581059
14   -0.580664
15   -0.43187
16   0.16394
17   0.145652
18   0.149802
19   0.16111
20   0.181934
21   0.18094
22   0.176705
23   0.148841
24   0.167392
25   0.173877
26   0.163495
27   0.136108
28   0.143177
29   0.117931
30   0.417262
31   0.421968

>  <lowdin_charges>
31
1   -0.446129
2   -0.453521
3   -0.465115
4   -0.285886
5   -0.27569
6   -0.118229
7   0.148019
8   0.149193
9   0.173466
10   -0.066346
11   -0.186359
12   -0.185542
13   -0.334203
14   -0.334658
15   -0.211259
16   0.163109
17   0.148811
18   0.149535
19   0.162413
20   0.165975
21   0.167848
22   0.167696
23   0.150756
24   0.158254
25   0.16213
26   0.156196
27   0.142896
28   0.144936
29   0.136033
30   0.35808
31   0.357594

$$$$

