PCCDB-ID:  67113
public computational chemistry database (PCCDB) project, http://pccdb.org

 25 26  0  0  0  0  0  0  0  0999 V2000
    2.9629   -1.1421    0.2806 C   0  0  0  0  0  0  0  0  0  0  0  0
    7.2019    3.6811   -0.9031 C   0  0  0  0  0  0  0  0  0  0  0  0
    6.7091    2.4451   -0.1376 C   0  0  0  0  0  0  0  0  0  0  0  0
    2.3963    2.4554    0.0647 C   0  0  0  0  0  0  0  0  0  0  0  0
    3.0950    3.6489   -0.0258 C   0  0  0  0  0  0  0  0  0  0  0  0
    6.6311    4.9456   -0.2521 C   0  0  0  0  0  0  0  0  0  0  0  0
    4.4811    1.2455    0.0705 C   0  0  0  0  0  0  0  0  0  0  0  0
    5.1972    2.4477   -0.0307 C   0  0  0  0  0  0  0  0  0  0  0  0
    3.0872    1.2371    0.1239 C   0  0  0  0  0  0  0  0  0  0  0  0
    4.5023    3.6698   -0.0700 C   0  0  0  0  0  0  0  0  0  0  0  0
    5.1764    4.8970   -0.1265 N   0  0  0  0  0  0  0  0  0  0  0  0
    2.3080    0.1098    0.2235 O   0  0  0  0  0  0  0  0  0  0  0  0
    2.1744   -1.8933    0.3635 H   0  0  0  0  0  0  0  0  0  0  0  0
    3.6251   -1.2162    1.1550 H   0  0  0  0  0  0  0  0  0  0  0  0
    3.5516   -1.3368   -0.6272 H   0  0  0  0  0  0  0  0  0  0  0  0
    6.8731    3.6242   -1.9488 H   0  0  0  0  0  0  0  0  0  0  0  0
    8.2973    3.7271   -0.9021 H   0  0  0  0  0  0  0  0  0  0  0  0
    7.1667    2.4385    0.8636 H   0  0  0  0  0  0  0  0  0  0  0  0
    7.0467    1.5270   -0.6340 H   0  0  0  0  0  0  0  0  0  0  0  0
    1.3111    2.4432    0.0979 H   0  0  0  0  0  0  0  0  0  0  0  0
    2.5498    4.5902   -0.0553 H   0  0  0  0  0  0  0  0  0  0  0  0
    6.8991    5.8372   -0.8292 H   0  0  0  0  0  0  0  0  0  0  0  0
    7.0839    5.0662    0.7447 H   0  0  0  0  0  0  0  0  0  0  0  0
    5.0418    0.3161    0.0913 H   0  0  0  0  0  0  0  0  0  0  0  0
    4.6750    5.6235   -0.6176 H   0  0  0  0  0  0  0  0  0  0  0  0
  1 13  1  0  0  0  0
  1 14  1  0  0  0  0
  2 17  1  0  0  0  0
  2  6  1  0  0  0  0
  2  3  1  0  0  0  0
  3  8  1  0  0  0  0
  3 18  1  0  0  0  0
  4 20  1  0  0  0  0
  4  9  1  0  0  0  0
  5  4  2  0  0  0  0
  6 11  1  0  0  0  0
  6 23  1  0  0  0  0
  7 24  1  0  0  0  0
  7  9  2  0  0  0  0
  8  7  1  0  0  0  0
  9 12  1  0  0  0  0
 10  8  2  0  0  0  0
 10  5  1  0  0  0  0
 11 10  1  0  0  0  0
 12  1  1  0  0  0  0
 15  1  1  0  0  0  0
 16  2  1  0  0  0  0
 19  3  1  0  0  0  0
 21  5  1  0  0  0  0
 22  6  1  0  0  0  0
 25 11  1  0  0  0  0
M  END
>  <HBA>
2

>  <HBD>
1

>  <TPSA>
21.26

>  <cid>
67113

>  <dipole>
2.04

>  <excitation_energy_1>
4.04

>  <excitation_energy_2>
4.156

>  <excitation_energy_3>
4.512

>  <excitation_energy_4>
4.692

>  <homo_energy>
-4.623

>  <homo_lumo_gap>
4.895

>  <logP>
2.191

>  <lumo_energy>
0.272

>  <melting_point>
70.73

>  <molecular_refractivity>
52.83

>  <oscillator_strength_1>
0.0418

>  <oscillator_strength_2>
0.0105

>  <oscillator_strength_3>
0.0049

>  <oscillator_strength_4>
0.0187

>  <open_babel_can_smiles>
COc1ccc2c(c1)CCCN2

>  <mulliken_charges>
25
1   -0.206921
2   -0.275787
3   -0.341601
4   -0.178597
5   -0.192052
6   -0.1176
7   -0.2796
8   0.132987
9   0.373665
10   0.299743
11   -0.672466
12   -0.517184
13   0.163025
14   0.145116
15   0.143995
16   0.143081
17   0.134147
18   0.149312
19   0.142377
20   0.130356
21   0.114974
22   0.137
23   0.142927
24   0.117828
25   0.311275

>  <lowdin_charges>
25
1   -0.278759
2   -0.280722
3   -0.273843
4   -0.17382
5   -0.18606
6   -0.194162
7   -0.214813
8   -0.041358
9   0.07862
10   0.032552
11   -0.318766
12   -0.209458
13   0.15985
14   0.141158
15   0.140481
16   0.144259
17   0.145905
18   0.148768
19   0.151069
20   0.161725
21   0.15221
22   0.147183
23   0.136948
24   0.156601
25   0.274431

$$$$

