PCCDB-ID:  8723
public computational chemistry database (PCCDB) project, http://pccdb.org

 18 17  0  0  1  0  0  0  0  0999 V2000
    1.2657   -0.2452   -0.5208 C   0  0  0  0  0  0  0  0  0  0  0  0
    2.4327   -1.8226    1.9432 C   0  0  0  0  0  0  0  0  0  0  0  0
    2.7387   -0.6035   -0.2943 C   0  0  0  0  0  0  0  0  0  0  0  0
    4.6807   -0.8704    1.2903 C   0  0  0  0  0  0  0  0  0  0  0  0
    3.1562   -0.7017    1.1858 C   0  0  2  0  0  0  0  0  0  0  0  0
    5.1664   -0.9020    2.6294 O   0  0  0  0  0  0  0  0  0  0  0  0
    1.0488   -0.1406   -1.5900 H   0  0  0  0  0  0  0  0  0  0  0  0
    1.0108    0.7054   -0.0358 H   0  0  0  0  0  0  0  0  0  0  0  0
    0.5929   -1.0123   -0.1227 H   0  0  0  0  0  0  0  0  0  0  0  0
    1.3545   -1.6432    2.0091 H   0  0  0  0  0  0  0  0  0  0  0  0
    2.8282   -1.9109    2.9593 H   0  0  0  0  0  0  0  0  0  0  0  0
    2.5833   -2.7880    1.4417 H   0  0  0  0  0  0  0  0  0  0  0  0
    3.3671    0.1498   -0.7910 H   0  0  0  0  0  0  0  0  0  0  0  0
    2.9617   -1.5594   -0.7908 H   0  0  0  0  0  0  0  0  0  0  0  0
    5.1828   -0.0767    0.7123 H   0  0  0  0  0  0  0  0  0  0  0  0
    4.9808   -1.8303    0.8532 H   0  0  0  0  0  0  0  0  0  0  0  0
    2.9037    0.2593    1.6678 H   0  0  0  0  0  0  0  0  0  0  0  0
    4.9573   -0.0450    3.0333 H   0  0  0  0  0  0  0  0  0  0  0  0
  1  3  1  0  0  0  0
  1  9  1  0  0  0  0
  1  8  1  0  0  0  0
  2 10  1  0  0  0  0
  2 11  1  0  0  0  0
  3  5  1  0  0  0  0
  4  6  1  0  0  0  0
  5  4  1  0  0  0  0
  5 17  1  1  0  0  0
  5  2  1  0  0  0  0
  6 18  1  0  0  0  0
  7  1  1  0  0  0  0
 12  2  1  0  0  0  0
 13  3  1  0  0  0  0
 14  3  1  0  0  0  0
 15  4  1  0  0  0  0
 16  4  1  0  0  0  0
M  END
>  <HBA>
1

>  <HBD>
1

>  <TPSA>
20.23

>  <cid>
8723

>  <dipole>
1.66

>  <excitation_energy_1>
6.39

>  <excitation_energy_2>
7.141

>  <excitation_energy_3>
7.391

>  <excitation_energy_4>
7.482

>  <homo_energy>
-7.1

>  <homo_lumo_gap>
9.081

>  <logP>
1.025

>  <lumo_energy>
1.981

>  <melting_point>
-7.28

>  <molecular_refractivity>
27.31

>  <oscillator_strength_1>
0.0056

>  <oscillator_strength_2>
0.0209

>  <oscillator_strength_3>
0.003

>  <oscillator_strength_4>
0.0064

>  <open_babel_can_smiles>
CC[C@H](CO)C

>  <mulliken_charges>
18
1   -0.446133
2   -0.446377
3   -0.251797
4   -0.0269
5   -0.094606
6   -0.614953
7   0.143696
8   0.140811
9   0.149382
10   0.141516
11   0.158854
12   0.137349
13   0.128339
14   0.131409
15   0.116566
16   0.141525
17   0.106006
18   0.385314

>  <lowdin_charges>
18
1   -0.444606
2   -0.446613
3   -0.274934
4   -0.138849
5   -0.141952
6   -0.466408
7   0.149309
8   0.146088
9   0.150604
10   0.14642
11   0.157328
12   0.145512
13   0.140774
14   0.139962
15   0.126514
16   0.144608
17   0.127052
18   0.339192

$$$$

