PCCDB-ID:  31256
public computational chemistry database (PCCDB) project, http://pccdb.org

 20 19  0  0  0  0  0  0  0  0999 V2000
    5.0641    0.6075    2.0972 C   0  0  0  0  0  0  0  0  0  0  0  0
    1.0904   -0.0414    3.6192 C   0  0  0  0  0  0  0  0  0  0  0  0
    1.2650   -2.2398    2.3865 C   0  0  0  0  0  0  0  0  0  0  0  0
    2.6747   -0.2915    1.6269 C   0  0  0  0  0  0  0  0  0  0  0  0
    3.5771    0.8819    2.0150 C   0  0  0  0  0  0  0  0  0  0  0  0
    2.0222   -0.9854    2.8477 C   0  0  0  0  0  0  0  0  0  0  0  0
    3.1058    1.9797    2.2527 O   0  0  0  0  0  0  0  0  0  0  0  0
    3.1294   -1.3759    3.6826 O   0  0  0  0  0  0  0  0  0  0  0  0
    5.2385   -0.2189    2.7952 H   0  0  0  0  0  0  0  0  0  0  0  0
    5.5939    1.5042    2.4257 H   0  0  0  0  0  0  0  0  0  0  0  0
    5.4474    0.2920    1.1179 H   0  0  0  0  0  0  0  0  0  0  0  0
    0.2438    0.2732    2.9991 H   0  0  0  0  0  0  0  0  0  0  0  0
    1.6210    0.8545    3.9483 H   0  0  0  0  0  0  0  0  0  0  0  0
    0.6833   -0.5559    4.4999 H   0  0  0  0  0  0  0  0  0  0  0  0
    0.4463   -1.9872    1.7031 H   0  0  0  0  0  0  0  0  0  0  0  0
    0.8284   -2.7601    3.2490 H   0  0  0  0  0  0  0  0  0  0  0  0
    1.9445   -2.9325    1.8794 H   0  0  0  0  0  0  0  0  0  0  0  0
    3.2501   -1.0435    1.0752 H   0  0  0  0  0  0  0  0  0  0  0  0
    1.8820    0.0902    0.9754 H   0  0  0  0  0  0  0  0  0  0  0  0
    2.7616   -1.7582    4.4953 H   0  0  0  0  0  0  0  0  0  0  0  0
  1 10  1  0  0  0  0
  1  9  1  0  0  0  0
  2 13  1  0  0  0  0
  2 14  1  0  0  0  0
  3  6  1  0  0  0  0
  3 16  1  0  0  0  0
  4  5  1  0  0  0  0
  4  6  1  0  0  0  0
  5  1  1  0  0  0  0
  5  7  2  0  0  0  0
  6  2  1  0  0  0  0
  6  8  1  0  0  0  0
  8 20  1  0  0  0  0
 11  1  1  0  0  0  0
 12  2  1  0  0  0  0
 15  3  1  0  0  0  0
 17  3  1  0  0  0  0
 18  4  1  0  0  0  0
 19  4  1  0  0  0  0
M  END
>  <HBA>
2

>  <HBD>
1

>  <TPSA>
37.3

>  <cid>
31256

>  <dipole>
2.84

>  <excitation_energy_1>
4.298

>  <excitation_energy_2>
5.92

>  <excitation_energy_3>
6.241

>  <excitation_energy_4>
6.495

>  <homo_energy>
-6.411

>  <homo_lumo_gap>
6.18

>  <logP>
0.736

>  <lumo_energy>
-0.231

>  <melting_point>
24.47

>  <molecular_refractivity>
32.36

>  <oscillator_strength_1>
0.0002

>  <oscillator_strength_2>
0.025

>  <oscillator_strength_3>
0.0008

>  <oscillator_strength_4>
0.01

>  <open_babel_can_smiles>
CC(=O)CC(O)(C)C

>  <mulliken_charges>
20
1   -0.534212
2   -0.456625
3   -0.449064
4   -0.335733
5   0.465959
6   0.29466
7   -0.451785
8   -0.642576
9   0.196099
10   0.170186
11   0.160319
12   0.147449
13   0.183834
14   0.124874
15   0.145998
16   0.133965
17   0.154336
18   0.142828
19   0.160252
20   0.389238

>  <lowdin_charges>
20
1   -0.477743
2   -0.461119
3   -0.457933
4   -0.312601
5   0.175128
6   0.130492
7   -0.244828
8   -0.467423
9   0.183456
10   0.168144
11   0.165769
12   0.157173
13   0.171263
14   0.14266
15   0.154934
16   0.147465
17   0.157285
18   0.156406
19   0.168246
20   0.343226

$$$$

