PCCDB-ID:  72791
public computational chemistry database (PCCDB) project, http://pccdb.org

 25 27  0  0  0  0  0  0  0  0999 V2000
    0.8335    0.0061    0.0663 C   0  0  0  0  0  0  0  0  0  0  0  0
    6.5677    2.4116    0.0712 C   0  0  0  0  0  0  0  0  0  0  0  0
    3.1712   -3.6614    0.0692 C   0  0  0  0  0  0  0  0  0  0  0  0
    5.1888    2.4368    0.0695 C   0  0  0  0  0  0  0  0  0  0  0  0
    2.4247   -2.5009    0.0680 C   0  0  0  0  0  0  0  0  0  0  0  0
    7.2122    1.1574    0.0715 C   0  0  0  0  0  0  0  0  0  0  0  0
    4.5745   -3.5519    0.0697 C   0  0  0  0  0  0  0  0  0  0  0  0
    3.0412    1.1769    0.0671 C   0  0  0  0  0  0  0  0  0  0  0  0
    2.3426    0.0045    0.0680 C   0  0  0  0  0  0  0  0  0  0  0  0
    4.4733    1.2192    0.0687 C   0  0  0  0  0  0  0  0  0  0  0  0
    3.0746   -1.2455    0.0693 C   0  0  0  0  0  0  0  0  0  0  0  0
    5.2245    0.0119    0.0695 C   0  0  0  0  0  0  0  0  0  0  0  0
    4.5021   -1.2552    0.0697 C   0  0  0  0  0  0  0  0  0  0  0  0
    6.5769   -0.0034    0.0708 N   0  0  0  0  0  0  0  0  0  0  0  0
    5.2233   -2.3993    0.0695 N   0  0  0  0  0  0  0  0  0  0  0  0
    0.4485    1.0298    0.0696 H   0  0  0  0  0  0  0  0  0  0  0  0
    0.4249   -0.5067    0.9463 H   0  0  0  0  0  0  0  0  0  0  0  0
    0.4269   -0.5003   -0.8184 H   0  0  0  0  0  0  0  0  0  0  0  0
    7.1513    3.3275    0.0723 H   0  0  0  0  0  0  0  0  0  0  0  0
    2.6957   -4.6378    0.0695 H   0  0  0  0  0  0  0  0  0  0  0  0
    4.6432    3.3778    0.0696 H   0  0  0  0  0  0  0  0  0  0  0  0
    1.3404   -2.5500    0.0652 H   0  0  0  0  0  0  0  0  0  0  0  0
    8.3008    1.1077    0.0727 H   0  0  0  0  0  0  0  0  0  0  0  0
    5.1916   -4.4501    0.0696 H   0  0  0  0  0  0  0  0  0  0  0  0
    2.5042    2.1235    0.0641 H   0  0  0  0  0  0  0  0  0  0  0  0
  1  9  1  0  0  0  0
  1 16  1  0  0  0  0
  1 17  1  0  0  0  0
  2  6  2  0  0  0  0
  2 19  1  0  0  0  0
  3 20  1  0  0  0  0
  3  7  1  0  0  0  0
  4 21  1  0  0  0  0
  4  2  1  0  0  0  0
  5  3  2  0  0  0  0
  5 11  1  0  0  0  0
  6 23  1  0  0  0  0
  8  9  2  0  0  0  0
  8 10  1  0  0  0  0
  9 11  1  0  0  0  0
 10  4  2  0  0  0  0
 10 12  1  0  0  0  0
 11 13  2  0  0  0  0
 12 13  1  0  0  0  0
 12 14  2  0  0  0  0
 14  6  1  0  0  0  0
 15 13  1  0  0  0  0
 15  7  2  0  0  0  0
 18  1  1  0  0  0  0
 22  5  1  0  0  0  0
 24  7  1  0  0  0  0
 25  8  1  0  0  0  0
M  END
>  <HBA>
2

>  <HBD>
0

>  <TPSA>
25.78

>  <cid>
72791

>  <dipole>
3.55

>  <excitation_energy_1>
3.975

>  <excitation_energy_2>
3.994

>  <excitation_energy_3>
4.064

>  <excitation_energy_4>
4.211

>  <homo_energy>
-6.123

>  <homo_lumo_gap>
4.773

>  <logP>
3.091

>  <lumo_energy>
-1.35

>  <melting_point>
128.84

>  <molecular_refractivity>
62.01

>  <oscillator_strength_1>
0.0001

>  <oscillator_strength_2>
0.0024

>  <oscillator_strength_3>
0.0014

>  <oscillator_strength_4>
0.0636

>  <open_babel_can_smiles>
Cc1cc2cccnc2c2c1cccn2

>  <mulliken_charges>
25
1   -0.540423
2   -0.147837
3   -0.144007
4   -0.161282
5   -0.165479
6   0.03972
7   0.04156
8   -0.28414
9   0.148664
10   0.181981
11   0.103862
12   0.209785
13   0.209033
14   -0.473711
15   -0.473407
16   0.161748
17   0.165245
18   0.165331
19   0.137828
20   0.137513
21   0.139761
22   0.140165
23   0.140919
24   0.141571
25   0.125602

>  <lowdin_charges>
25
1   -0.443172
2   -0.176351
3   -0.175181
4   -0.133303
5   -0.134151
6   -0.083184
7   -0.08437
8   -0.170721
9   0.000873
10   -0.014514
11   -0.023213
12   0.035116
13   0.041051
14   -0.121479
15   -0.122181
16   0.160484
17   0.16189
18   0.161898
19   0.164928
20   0.164079
21   0.161707
22   0.162054
23   0.154081
24   0.157315
25   0.156342

$$$$

