PCCDB-ID:  37147
public computational chemistry database (PCCDB) project, http://pccdb.org

 46 45  0  0  0  0  0  0  0  0999 V2000
    1.7290    2.7642   -0.0999 C   0  0  0  0  0  0  0  0  0  0  0  0
    1.6690    0.5407   -1.2657 C   0  0  0  0  0  0  0  0  0  0  0  0
    1.0506    0.7410   10.1809 C   0  0  0  0  0  0  0  0  0  0  0  0
    0.9925   -1.4821    9.0144 C   0  0  0  0  0  0  0  0  0  0  0  0
    1.6229    0.3840    3.7844 C   0  0  0  0  0  0  0  0  0  0  0  0
    1.0987    0.8993    5.1309 C   0  0  0  0  0  0  0  0  0  0  0  0
    1.0625    1.1467    2.5752 C   0  0  0  0  0  0  0  0  0  0  0  0
    1.6592    0.1366    6.3400 C   0  0  0  0  0  0  0  0  0  0  0  0
    1.5868    0.5977    1.2406 C   0  0  0  0  0  0  0  0  0  0  0  0
    1.1340    0.6848    7.6746 C   0  0  0  0  0  0  0  0  0  0  0  0
   -0.3820    1.4440   -0.1364 C   0  0  0  0  0  0  0  0  0  0  0  0
    3.1027   -0.1607    9.0524 C   0  0  0  0  0  0  0  0  0  0  0  0
    1.1499    1.3373   -0.0524 C   0  0  0  0  0  0  0  0  0  0  0  0
    1.5707   -0.0549    8.9676 C   0  0  0  0  0  0  0  0  0  0  0  0
   -0.9545    0.1435   -0.0158 O   0  0  0  0  0  0  0  0  0  0  0  0
    3.6744    1.1403    8.9339 O   0  0  0  0  0  0  0  0  0  0  0  0
    2.8243    2.7363   -0.0560 H   0  0  0  0  0  0  0  0  0  0  0  0
    1.3769    3.3820    0.7339 H   0  0  0  0  0  0  0  0  0  0  0  0
    1.4485    3.2726   -1.0310 H   0  0  0  0  0  0  0  0  0  0  0  0
    2.7589    0.4264   -1.2200 H   0  0  0  0  0  0  0  0  0  0  0  0
    1.4261    1.0519   -2.2061 H   0  0  0  0  0  0  0  0  0  0  0  0
    1.2198   -0.4566   -1.2971 H   0  0  0  0  0  0  0  0  0  0  0  0
   -0.0393    0.8551   10.1344 H   0  0  0  0  0  0  0  0  0  0  0  0
    1.4995    1.7384   10.2131 H   0  0  0  0  0  0  0  0  0  0  0  0
    1.2928    0.2294   11.1212 H   0  0  0  0  0  0  0  0  0  0  0  0
   -0.1028   -1.4549    8.9710 H   0  0  0  0  0  0  0  0  0  0  0  0
    1.2737   -1.9910    9.9450 H   0  0  0  0  0  0  0  0  0  0  0  0
    1.3445   -2.0992    8.1800 H   0  0  0  0  0  0  0  0  0  0  0  0
    1.3780   -0.6838    3.6834 H   0  0  0  0  0  0  0  0  0  0  0  0
    2.7216    0.4449    3.7756 H   0  0  0  0  0  0  0  0  0  0  0  0
    0.0000    0.8382    5.1397 H   0  0  0  0  0  0  0  0  0  0  0  0
    1.3435    1.9671    5.2318 H   0  0  0  0  0  0  0  0  0  0  0  0
    1.3136    2.2114    2.6818 H   0  0  0  0  0  0  0  0  0  0  0  0
   -0.0335    1.0797    2.5931 H   0  0  0  0  0  0  0  0  0  0  0  0
    2.7552    0.2043    6.3225 H   0  0  0  0  0  0  0  0  0  0  0  0
    1.4088   -0.9282    6.2330 H   0  0  0  0  0  0  0  0  0  0  0  0
    1.2740   -0.4500    1.1541 H   0  0  0  0  0  0  0  0  0  0  0  0
    2.6868    0.5905    1.2647 H   0  0  0  0  0  0  0  0  0  0  0  0
    1.4461    1.7327    7.7616 H   0  0  0  0  0  0  0  0  0  0  0  0
    0.0340    0.6914    7.6500 H   0  0  0  0  0  0  0  0  0  0  0  0
   -0.6557    1.9047   -1.1004 H   0  0  0  0  0  0  0  0  0  0  0  0
   -0.7530    2.1077    0.6606 H   0  0  0  0  0  0  0  0  0  0  0  0
    3.4746   -0.8230    8.2546 H   0  0  0  0  0  0  0  0  0  0  0  0
    3.3761   -0.6226   10.0158 H   0  0  0  0  0  0  0  0  0  0  0  0
   -1.9132    0.2292   -0.1239 H   0  0  0  0  0  0  0  0  0  0  0  0
    4.6333    1.0546    9.0392 H   0  0  0  0  0  0  0  0  0  0  0  0
  1 17  1  0  0  0  0
  1 13  1  0  0  0  0
  1 18  1  0  0  0  0
  2 20  1  0  0  0  0
  2 13  1  0  0  0  0
  3 24  1  0  0  0  0
  3 25  1  0  0  0  0
  4 27  1  0  0  0  0
  5  6  1  0  0  0  0
  6 31  1  0  0  0  0
  6 32  1  0  0  0  0
  6  8  1  0  0  0  0
  7 34  1  0  0  0  0
  7 33  1  0  0  0  0
  7  5  1  0  0  0  0
  8 10  1  0  0  0  0
  9 38  1  0  0  0  0
  9  7  1  0  0  0  0
 10 39  1  0  0  0  0
 10 14  1  0  0  0  0
 11 13  1  0  0  0  0
 11 15  1  0  0  0  0
 11 42  1  0  0  0  0
 12 44  1  0  0  0  0
 13  9  1  0  0  0  0
 14  4  1  0  0  0  0
 14 12  1  0  0  0  0
 14  3  1  0  0  0  0
 16 46  1  0  0  0  0
 16 12  1  0  0  0  0
 19  1  1  0  0  0  0
 21  2  1  0  0  0  0
 22  2  1  0  0  0  0
 23  3  1  0  0  0  0
 26  4  1  0  0  0  0
 28  4  1  0  0  0  0
 29  5  1  0  0  0  0
 30  5  1  0  0  0  0
 35  8  1  0  0  0  0
 36  8  1  0  0  0  0
 37  9  1  0  0  0  0
 40 10  1  0  0  0  0
 41 11  1  0  0  0  0
 43 12  1  0  0  0  0
 45 15  1  0  0  0  0
M  END
>  <HBA>
2

>  <HBD>
2

>  <TPSA>
40.46

>  <cid>
37147

>  <dipole>
0.01

>  <excitation_energy_1>
6.31

>  <excitation_energy_2>
6.31

>  <excitation_energy_3>
7.117

>  <excitation_energy_4>
7.138

>  <homo_energy>
-7.129

>  <homo_lumo_gap>
9.048

>  <logP>
3.364

>  <lumo_energy>
1.918

>  <melting_point>
42.73

>  <molecular_refractivity>
71.22

>  <oscillator_strength_1>
0.0001

>  <oscillator_strength_2>
0.0002

>  <oscillator_strength_3>
0.0

>  <oscillator_strength_4>
0.0509

>  <open_babel_can_smiles>
OCC(CCCCCCC(CO)(C)C)(C)C

>  <mulliken_charges>
46
1   -0.455165
2   -0.447885
3   -0.447866
4   -0.4552
5   -0.253965
6   -0.254001
7   -0.267057
8   -0.267045
9   -0.248888
10   -0.248875
11   -0.027753
12   -0.027745
13   0.075996
14   0.075979
15   -0.624736
16   -0.624742
17   0.14291
18   0.142848
19   0.136197
20   0.134308
21   0.12901
22   0.16231
23   0.134292
24   0.162359
25   0.129021
26   0.142914
27   0.136205
28   0.14285
29   0.127685
30   0.123892
31   0.123918
32   0.127682
33   0.124813
34   0.136971
35   0.136885
36   0.124827
37   0.147555
38   0.117499
39   0.147544
40   0.117508
41   0.112588
42   0.118456
43   0.118449
44   0.112587
45   0.392432
46   0.392434

>  <lowdin_charges>
46
1   -0.443922
2   -0.440785
3   -0.440783
4   -0.443929
5   -0.268725
6   -0.26873
7   -0.274865
8   -0.274859
9   -0.27192
10   -0.271921
11   -0.139872
12   -0.139877
13   0.003806
14   0.003811
15   -0.471231
16   -0.471235
17   0.148475
18   0.148012
19   0.14616
20   0.143434
21   0.142522
22   0.157597
23   0.143428
24   0.157621
25   0.142534
26   0.148475
27   0.146166
28   0.148009
29   0.135984
30   0.133415
31   0.133428
32   0.135983
33   0.133873
34   0.139975
35   0.139932
36   0.133874
37   0.149488
38   0.133806
39   0.149482
40   0.133811
41   0.124572
42   0.126762
43   0.126772
44   0.124563
45   0.343447
46   0.343438

$$$$

