PCCDB-ID:  34455
public computational chemistry database (PCCDB) project, http://pccdb.org

 30 32  0  0  0  0  0  0  0  0999 V2000
    0.8675   -0.0817   -0.4568 C   0  0  0  0  0  0  0  0  0  0  0  0
    2.2890    2.5436   -0.2730 C   0  0  0  0  0  0  0  0  0  0  0  0
    9.3619    2.4520    0.8039 C   0  0  0  0  0  0  0  0  0  0  0  0
    8.6559    3.6849    0.6826 C   0  0  0  0  0  0  0  0  0  0  0  0
    8.6929    1.2592    0.7192 C   0  0  0  0  0  0  0  0  0  0  0  0
    7.3009    3.6922    0.4780 C   0  0  0  0  0  0  0  0  0  0  0  0
    3.1012   -1.2035   -0.1054 C   0  0  0  0  0  0  0  0  0  0  0  0
    4.4512   -1.2154    0.1009 C   0  0  0  0  0  0  0  0  0  0  0  0
    6.5608    0.0269    0.4100 C   0  0  0  0  0  0  0  0  0  0  0  0
    5.1786    2.4493    0.1708 C   0  0  0  0  0  0  0  0  0  0  0  0
    2.3630    0.0166   -0.2305 C   0  0  0  0  0  0  0  0  0  0  0  0
    3.0241    1.2289   -0.1441 C   0  0  0  0  0  0  0  0  0  0  0  0
    7.2800    1.2238    0.5051 C   0  0  0  0  0  0  0  0  0  0  0  0
    6.5647    2.4704    0.3814 C   0  0  0  0  0  0  0  0  0  0  0  0
    5.1770    0.0085    0.1987 C   0  0  0  0  0  0  0  0  0  0  0  0
    4.4525    1.2530    0.0740 C   0  0  0  0  0  0  0  0  0  0  0  0
    0.5483   -1.1282   -0.4752 H   0  0  0  0  0  0  0  0  0  0  0  0
    0.5638    0.3688   -1.4099 H   0  0  0  0  0  0  0  0  0  0  0  0
    0.2960    0.4196    0.3338 H   0  0  0  0  0  0  0  0  0  0  0  0
    1.2200    2.4035   -0.4393 H   0  0  0  0  0  0  0  0  0  0  0  0
    2.6771    3.1377   -1.1104 H   0  0  0  0  0  0  0  0  0  0  0  0
    2.4044    3.1569    0.6301 H   0  0  0  0  0  0  0  0  0  0  0  0
   10.4363    2.4656    0.9657 H   0  0  0  0  0  0  0  0  0  0  0  0
    9.2023    4.6217    0.7522 H   0  0  0  0  0  0  0  0  0  0  0  0
    9.2275    0.3166    0.8119 H   0  0  0  0  0  0  0  0  0  0  0  0
    6.7613    4.6318    0.3839 H   0  0  0  0  0  0  0  0  0  0  0  0
    2.5589   -2.1432   -0.1791 H   0  0  0  0  0  0  0  0  0  0  0  0
    4.9910   -2.1549    0.1930 H   0  0  0  0  0  0  0  0  0  0  0  0
    7.0911   -0.9192    0.5010 H   0  0  0  0  0  0  0  0  0  0  0  0
    4.6657    3.4016    0.0799 H   0  0  0  0  0  0  0  0  0  0  0  0
  1 11  1  0  0  0  0
  1 19  1  0  0  0  0
  2 12  1  0  0  0  0
  2 22  1  0  0  0  0
  3 23  1  0  0  0  0
  4 24  1  0  0  0  0
  4  3  2  0  0  0  0
  5  3  1  0  0  0  0
  5 25  1  0  0  0  0
  6  4  1  0  0  0  0
  7  8  2  0  0  0  0
  8 28  1  0  0  0  0
  8 15  1  0  0  0  0
  9 29  1  0  0  0  0
  9 13  1  0  0  0  0
 10 14  1  0  0  0  0
 11 12  2  0  0  0  0
 11  7  1  0  0  0  0
 12 16  1  0  0  0  0
 13  5  2  0  0  0  0
 14  6  2  0  0  0  0
 14 13  1  0  0  0  0
 15  9  2  0  0  0  0
 16 10  2  0  0  0  0
 16 15  1  0  0  0  0
 17  1  1  0  0  0  0
 18  1  1  0  0  0  0
 20  2  1  0  0  0  0
 21  2  1  0  0  0  0
 26  6  1  0  0  0  0
 27  7  1  0  0  0  0
 30 10  1  0  0  0  0
M  END
>  <HBA>
0

>  <HBD>
0

>  <TPSA>
0.0

>  <cid>
34455

>  <dipole>
0.67

>  <excitation_energy_1>
3.155

>  <excitation_energy_2>
3.816

>  <excitation_energy_3>
4.373

>  <excitation_energy_4>
4.7

>  <homo_energy>
-5.086

>  <homo_lumo_gap>
3.529

>  <logP>
4.61

>  <lumo_energy>
-1.557

>  <melting_point>
102.67

>  <molecular_refractivity>
71.39

>  <oscillator_strength_1>
0.0621

>  <oscillator_strength_2>
0.0018

>  <oscillator_strength_3>
0.0037

>  <oscillator_strength_4>
0.0095

>  <open_babel_can_smiles>
Cc1c(C)ccc2c1cc1ccccc1c2

>  <mulliken_charges>
30
1   -0.541848
2   -0.539471
3   -0.141036
4   -0.139358
5   -0.184493
6   -0.188243
7   -0.18512
8   -0.187414
9   -0.303877
10   -0.316304
11   0.108437
12   0.071314
13   0.148874
14   0.160452
15   0.15705
16   0.100905
17   0.154579
18   0.163943
19   0.163833
20   0.156969
21   0.162832
22   0.162795
23   0.128663
24   0.128433
25   0.12847
26   0.127406
27   0.121214
28   0.12694
29   0.127322
30   0.126732

>  <lowdin_charges>
30
1   -0.445517
2   -0.447048
3   -0.158434
4   -0.161122
5   -0.15553
6   -0.156228
7   -0.166564
8   -0.159401
9   -0.15967
10   -0.16904
11   -0.012474
12   -0.011628
13   -0.003012
14   2.5e-05
15   -0.000804
16   -0.007345
17   0.155252
18   0.160281
19   0.161309
20   0.159366
21   0.161004
22   0.160436
23   0.156179
24   0.158298
25   0.157438
26   0.156964
27   0.154973
28   0.157313
29   0.156238
30   0.158742

$$$$

