PCCDB-ID:  58966
public computational chemistry database (PCCDB) project, http://pccdb.org

 32 34  0  0  0  0  0  0  0  0999 V2000
    0.7777    0.0085   -0.6986 C   0  0  0  0  0  0  0  0  0  0  0  0
   -0.1094    5.8160   -4.0687 C   0  0  0  0  0  0  0  0  0  0  0  0
   -1.1810    5.2122   -3.4083 C   0  0  0  0  0  0  0  0  0  0  0  0
    1.1312    5.8484   -3.4410 C   0  0  0  0  0  0  0  0  0  0  0  0
    4.0000    0.1748   -2.4012 C   0  0  0  0  0  0  0  0  0  0  0  0
    4.9484    1.0648   -2.8779 C   0  0  0  0  0  0  0  0  0  0  0  0
   -0.9481    4.6681   -2.1474 C   0  0  0  0  0  0  0  0  0  0  0  0
    2.6071    5.2943   -1.4418 C   0  0  0  0  0  0  0  0  0  0  0  0
    2.5825    1.9875   -1.5753 C   0  0  0  0  0  0  0  0  0  0  0  0
    4.7995    4.6806   -2.6470 C   0  0  0  0  0  0  0  0  0  0  0  0
    3.6188    4.3455   -2.0286 C   0  0  0  0  0  0  0  0  0  0  0  0
    1.2689    5.2822   -2.1655 C   0  0  0  0  0  0  0  0  0  0  0  0
    2.8240    0.6299   -1.7563 C   0  0  0  0  0  0  0  0  0  0  0  0
    3.5394    2.9057   -2.0541 C   0  0  0  0  0  0  0  0  0  0  0  0
    4.7087    2.4326   -2.7002 C   0  0  0  0  0  0  0  0  0  0  0  0
    0.2412    4.6980   -1.5295 N   0  0  0  0  0  0  0  0  0  0  0  0
    5.4589    3.5387   -3.0575 N   0  0  0  0  0  0  0  0  0  0  0  0
    1.9787   -0.3707   -1.3455 O   0  0  0  0  0  0  0  0  0  0  0  0
    0.2534   -0.9210   -0.4663 H   0  0  0  0  0  0  0  0  0  0  0  0
    0.1463    0.6306   -1.3476 H   0  0  0  0  0  0  0  0  0  0  0  0
    0.9748    0.5572    0.2327 H   0  0  0  0  0  0  0  0  0  0  0  0
   -0.2401    6.2516   -5.0560 H   0  0  0  0  0  0  0  0  0  0  0  0
   -2.1684    5.1621   -3.8573 H   0  0  0  0  0  0  0  0  0  0  0  0
    1.9922    6.2979   -3.9278 H   0  0  0  0  0  0  0  0  0  0  0  0
    4.1348   -0.8963   -2.5128 H   0  0  0  0  0  0  0  0  0  0  0  0
    5.8469    0.7044   -3.3724 H   0  0  0  0  0  0  0  0  0  0  0  0
   -1.7552    4.1849   -1.5984 H   0  0  0  0  0  0  0  0  0  0  0  0
    3.0194    6.3115   -1.4592 H   0  0  0  0  0  0  0  0  0  0  0  0
    2.4078    5.0435   -0.3936 H   0  0  0  0  0  0  0  0  0  0  0  0
    1.6833    2.3524   -1.0930 H   0  0  0  0  0  0  0  0  0  0  0  0
    5.2312    5.6573   -2.8219 H   0  0  0  0  0  0  0  0  0  0  0  0
    6.3600    3.5152   -3.5073 H   0  0  0  0  0  0  0  0  0  0  0  0
  1 19  1  0  0  0  0
  1 21  1  0  0  0  0
  2  4  2  0  0  0  0
  2  3  1  0  0  0  0
  3  7  2  0  0  0  0
  4 12  1  0  0  0  0
  5 13  2  0  0  0  0
  6 15  2  0  0  0  0
  6  5  1  0  0  0  0
  7 27  1  0  0  0  0
  7 16  1  0  0  0  0
  8 29  1  0  0  0  0
  9 30  1  0  0  0  0
 10 11  2  0  0  0  0
 11  8  1  0  0  0  0
 12 16  2  0  0  0  0
 12  8  1  0  0  0  0
 13  9  1  0  0  0  0
 13 18  1  0  0  0  0
 14 11  1  0  0  0  0
 14  9  2  0  0  0  0
 15 14  1  0  0  0  0
 17 15  1  0  0  0  0
 17 10  1  0  0  0  0
 18  1  1  0  0  0  0
 20  1  1  0  0  0  0
 22  2  1  0  0  0  0
 23  3  1  0  0  0  0
 24  4  1  0  0  0  0
 25  5  1  0  0  0  0
 26  6  1  0  0  0  0
 28  8  1  0  0  0  0
 31 10  1  0  0  0  0
 32 17  1  0  0  0  0
M  END
>  <HBA>
2

>  <HBD>
1

>  <TPSA>
37.91

>  <cid>
58966

>  <dipole>
3.08

>  <excitation_energy_1>
3.917

>  <excitation_energy_2>
4.154

>  <excitation_energy_3>
4.174

>  <excitation_energy_4>
4.401

>  <homo_energy>
-5.089

>  <homo_lumo_gap>
4.585

>  <logP>
3.162

>  <lumo_energy>
-0.503

>  <melting_point>
151.77

>  <molecular_refractivity>
72.04

>  <oscillator_strength_1>
0.0273

>  <oscillator_strength_2>
0.0099

>  <oscillator_strength_3>
0.013

>  <oscillator_strength_4>
0.016

>  <open_babel_can_smiles>
COc1ccc2c(c1)c(c[nH]2)Cc1ccccn1

>  <mulliken_charges>
32
1   -0.208976
2   -0.10274
3   -0.141123
4   -0.153995
5   -0.190945
6   -0.165126
7   0.035491
8   -0.421216
9   -0.29228
10   -0.009994
11   0.077426
12   0.318361
13   0.369069
14   0.069535
15   0.312399
16   -0.471808
17   -0.696238
18   -0.518008
19   0.160237
20   0.150804
21   0.149679
22   0.140631
23   0.135496
24   0.132113
25   0.130631
26   0.120287
27   0.136831
28   0.144867
29   0.16844
30   0.155541
31   0.140857
32   0.323753

>  <lowdin_charges>
32
1   -0.279482
2   -0.125371
3   -0.181322
4   -0.176789
5   -0.183301
6   -0.177987
7   -0.090448
8   -0.269977
9   -0.222946
10   -0.143203
11   -0.063364
12   0.059691
13   0.087525
14   -0.026384
15   0.015423
16   -0.165091
17   -0.200431
18   -0.208119
19   0.158038
20   0.145779
21   0.143563
22   0.161288
23   0.162724
24   0.162824
25   0.162419
26   0.155724
27   0.155576
28   0.155542
29   0.165588
30   0.172747
31   0.160676
32   0.289086

$$$$

