PCCDB-ID:  69840
public computational chemistry database (PCCDB) project, http://pccdb.org

 17 17  0  0  0  0  0  0  0  0999 V2000
    2.2895    0.2934   -1.0532 C   0  0  0  0  0  0  0  0  0  0  0  0
    3.3470   -0.2286   -0.4371 C   0  0  0  0  0  0  0  0  0  0  0  0
    7.9189   -0.2462    1.6335 C   0  0  0  0  0  0  0  0  0  0  0  0
    6.9684    0.0585    2.6128 C   0  0  0  0  0  0  0  0  0  0  0  0
    7.5228   -0.3455    0.3002 C   0  0  0  0  0  0  0  0  0  0  0  0
    5.6337    0.2514    2.2662 C   0  0  0  0  0  0  0  0  0  0  0  0
    6.1891   -0.1448   -0.0643 C   0  0  0  0  0  0  0  0  0  0  0  0
    5.2468    0.1440    0.9269 C   0  0  0  0  0  0  0  0  0  0  0  0
    3.9162    0.3778    0.6545 O   0  0  0  0  0  0  0  0  0  0  0  0
    1.8156   -0.2466   -1.8645 H   0  0  0  0  0  0  0  0  0  0  0  0
    1.8721    1.2485   -0.7524 H   0  0  0  0  0  0  0  0  0  0  0  0
    3.7929   -1.1823   -0.7143 H   0  0  0  0  0  0  0  0  0  0  0  0
    8.9583   -0.3995    1.9088 H   0  0  0  0  0  0  0  0  0  0  0  0
    7.2664    0.1414    3.6545 H   0  0  0  0  0  0  0  0  0  0  0  0
    8.2551   -0.5691   -0.4711 H   0  0  0  0  0  0  0  0  0  0  0  0
    4.8791    0.4808    3.0119 H   0  0  0  0  0  0  0  0  0  0  0  0
    5.8903   -0.1890   -1.1067 H   0  0  0  0  0  0  0  0  0  0  0  0
  1 11  1  0  0  0  0
  1  2  2  0  0  0  0
  2  9  1  0  0  0  0
  3 13  1  0  0  0  0
  3  4  2  0  0  0  0
  4 14  1  0  0  0  0
  5  3  1  0  0  0  0
  6  4  1  0  0  0  0
  6 16  1  0  0  0  0
  7  5  2  0  0  0  0
  7  8  1  0  0  0  0
  8  6  2  0  0  0  0
  9  8  1  0  0  0  0
 10  1  1  0  0  0  0
 12  2  1  0  0  0  0
 15  5  1  0  0  0  0
 17  7  1  0  0  0  0
M  END
>  <HBA>
1

>  <HBD>
0

>  <TPSA>
9.23

>  <cid>
69840

>  <dipole>
1.07

>  <excitation_energy_1>
4.934

>  <excitation_energy_2>
5.326

>  <excitation_energy_3>
5.676

>  <excitation_energy_4>
5.799

>  <homo_energy>
-5.943

>  <homo_lumo_gap>
5.829

>  <logP>
2.209

>  <lumo_energy>
-0.114

>  <melting_point>
-12.84

>  <molecular_refractivity>
37.27

>  <oscillator_strength_1>
0.0217

>  <oscillator_strength_2>
0.3282

>  <oscillator_strength_3>
0.0072

>  <oscillator_strength_4>
0.027

>  <open_babel_can_smiles>
C=COc1ccccc1

>  <mulliken_charges>
17
1   -0.384614
2   0.153718
3   -0.129157
4   -0.135937
5   -0.137424
6   -0.171248
7   -0.181498
8   0.357472
9   -0.50337
10   0.14709
11   0.153893
12   0.146738
13   0.129661
14   0.134323
15   0.134032
16   0.142713
17   0.143611

>  <lowdin_charges>
17
1   -0.379662
2   -0.035683
3   -0.169983
4   -0.144654
5   -0.147529
6   -0.179415
7   -0.198734
8   0.102623
9   -0.153611
10   0.17067
11   0.16987
12   0.153178
13   0.15752
14   0.159081
15   0.160913
16   0.16983
17   0.165584

$$$$

