PCCDB-ID:  8136
public computational chemistry database (PCCDB) project, http://pccdb.org

 30 29  0  0  0  0  0  0  0  0999 V2000
    2.0477   -0.4778   -1.8751 C   0  0  0  0  0  0  0  0  0  0  0  0
    4.1014   -0.7002    9.0483 C   0  0  0  0  0  0  0  0  0  0  0  0
    3.4283   -0.4708   -1.2114 C   0  0  0  0  0  0  0  0  0  0  0  0
    3.3631   -0.4934    0.3212 C   0  0  0  0  0  0  0  0  0  0  0  0
    4.7415   -0.4849    0.9936 C   0  0  0  0  0  0  0  0  0  0  0  0
    4.6713   -0.5124    2.5260 C   0  0  0  0  0  0  0  0  0  0  0  0
    6.0537   -0.5000    3.1862 C   0  0  0  0  0  0  0  0  0  0  0  0
    6.0820   -0.5421    4.6865 C   0  0  0  0  0  0  0  0  0  0  0  0
    5.0268   -0.5769    5.5108 C   0  0  0  0  0  0  0  0  0  0  0  0
    5.2222   -0.6165    6.9768 C   0  0  0  0  0  0  0  0  0  0  0  0
    6.2888   -0.6112    7.5613 O   0  0  0  0  0  0  0  0  0  0  0  0
    4.0256   -0.6616    7.6168 O   0  0  0  0  0  0  0  0  0  0  0  0
    2.1290   -0.4616   -2.9679 H   0  0  0  0  0  0  0  0  0  0  0  0
    1.4575    0.3960   -1.5721 H   0  0  0  0  0  0  0  0  0  0  0  0
    1.4782   -1.3731   -1.5968 H   0  0  0  0  0  0  0  0  0  0  0  0
    3.0684   -0.7286    9.3969 H   0  0  0  0  0  0  0  0  0  0  0  0
    4.6122    0.1874    9.4320 H   0  0  0  0  0  0  0  0  0  0  0  0
    4.6440   -1.5891    9.3823 H   0  0  0  0  0  0  0  0  0  0  0  0
    3.9866    0.4186   -1.5368 H   0  0  0  0  0  0  0  0  0  0  0  0
    4.0075   -1.3372   -1.5616 H   0  0  0  0  0  0  0  0  0  0  0  0
    2.8051   -1.3839    0.6472 H   0  0  0  0  0  0  0  0  0  0  0  0
    2.7821    0.3726    0.6721 H   0  0  0  0  0  0  0  0  0  0  0  0
    5.2981    0.4073    0.6699 H   0  0  0  0  0  0  0  0  0  0  0  0
    5.3232   -1.3493    0.6403 H   0  0  0  0  0  0  0  0  0  0  0  0
    4.1203   -1.4065    2.8492 H   0  0  0  0  0  0  0  0  0  0  0  0
    4.0902    0.3508    2.8794 H   0  0  0  0  0  0  0  0  0  0  0  0
    6.6104    0.3943    2.8625 H   0  0  0  0  0  0  0  0  0  0  0  0
    6.6512   -1.3467    2.8118 H   0  0  0  0  0  0  0  0  0  0  0  0
    7.0687   -0.5443    5.1500 H   0  0  0  0  0  0  0  0  0  0  0  0
    4.0019   -0.5791    5.1547 H   0  0  0  0  0  0  0  0  0  0  0  0
  1 15  1  0  0  0  0
  1 14  1  0  0  0  0
  1  3  1  0  0  0  0
  2 18  1  0  0  0  0
  2 16  1  0  0  0  0
  2 17  1  0  0  0  0
  3  4  1  0  0  0  0
  4 21  1  0  0  0  0
  4 22  1  0  0  0  0
  4  5  1  0  0  0  0
  5  6  1  0  0  0  0
  6 25  1  0  0  0  0
  6 26  1  0  0  0  0
  6  7  1  0  0  0  0
  7  8  1  0  0  0  0
  8 29  1  0  0  0  0
  8  9  2  0  0  0  0
  9 10  1  0  0  0  0
 10 11  2  0  0  0  0
 10 12  1  0  0  0  0
 12  2  1  0  0  0  0
 13  1  1  0  0  0  0
 19  3  1  0  0  0  0
 20  3  1  0  0  0  0
 23  5  1  0  0  0  0
 24  5  1  0  0  0  0
 27  7  1  0  0  0  0
 28  7  1  0  0  0  0
 30  9  1  0  0  0  0
M  END
>  <HBA>
2

>  <HBD>
0

>  <TPSA>
26.3

>  <cid>
8136

>  <dipole>
1.89

>  <excitation_energy_1>
4.912

>  <excitation_energy_2>
5.995

>  <excitation_energy_3>
6.506

>  <excitation_energy_4>
6.614

>  <homo_energy>
-7.162

>  <homo_lumo_gap>
6.286

>  <logP>
2.686

>  <lumo_energy>
-0.876

>  <melting_point>
-6.99

>  <molecular_refractivity>
50.99

>  <oscillator_strength_1>
0.0001

>  <oscillator_strength_2>
0.4815

>  <oscillator_strength_3>
0.0926

>  <oscillator_strength_4>
0.0001

>  <open_babel_can_smiles>
CCCCCC/C=C/C(=O)OC

>  <mulliken_charges>
30
1   -0.441595
2   -0.214947
3   -0.247555
4   -0.247232
5   -0.255835
6   -0.260794
7   -0.312332
8   -0.075311
9   -0.190214
10   0.61016
11   -0.500316
12   -0.467259
13   0.142669
14   0.141924
15   0.141932
16   0.160876
17   0.168449
18   0.168305
19   0.130802
20   0.130824
21   0.128381
22   0.128358
23   0.12941
24   0.129471
25   0.139987
26   0.139874
27   0.155843
28   0.155326
29   0.163304
30   0.147495

>  <lowdin_charges>
30
1   -0.443318
2   -0.277715
3   -0.273366
4   -0.275776
5   -0.274986
6   -0.277674
7   -0.274979
8   -0.098595
9   -0.218142
10   0.194308
11   -0.279863
12   -0.19728
13   0.147789
14   0.147141
15   0.147007
16   0.157451
17   0.158967
18   0.15878
19   0.139609
20   0.139776
21   0.138774
22   0.138932
23   0.139234
24   0.139439
25   0.144445
26   0.144605
27   0.158636
28   0.158574
29   0.171155
30   0.167073

$$$$

