PCCDB-ID:  50297
public computational chemistry database (PCCDB) project, http://pccdb.org

 26 25  0  0  1  0  0  0  0  0999 V2000
    1.3947    1.9341   -1.2048 C   0  0  0  0  0  0  0  0  0  0  0  0
    0.0466   -0.4357    0.2608 C   0  0  0  0  0  0  0  0  0  0  0  0
    4.6218   -1.5169   -0.5922 C   0  0  0  0  0  0  0  0  0  0  0  0
   -0.0708   -5.3070   -0.0176 C   0  0  0  0  0  0  0  0  0  0  0  0
    1.5821    0.4524   -1.5557 C   0  0  0  0  0  0  0  0  0  0  0  0
    1.4603   -0.5065   -0.3491 C   0  0  2  0  0  0  0  0  0  0  0  0
    1.8185   -1.9692   -0.7421 C   0  0  1  0  0  0  0  0  0  0  0  0
    3.3602   -2.2102   -1.7154 S   0  0  0  0  0  0  0  0  0  0  0  0
    1.7316   -4.9752    0.1032 S   0  0  0  0  0  0  0  0  0  0  0  0
    1.7954   -3.0254    0.8136 S   0  0  0  0  0  0  0  0  0  0  0  0
    1.5935    2.5603   -2.0817 H   0  0  0  0  0  0  0  0  0  0  0  0
    2.0889    2.2454   -0.4137 H   0  0  0  0  0  0  0  0  0  0  0  0
    0.3791    2.1627   -0.8649 H   0  0  0  0  0  0  0  0  0  0  0  0
   -0.1947    0.5891    0.5578 H   0  0  0  0  0  0  0  0  0  0  0  0
   -0.0570   -1.0703    1.1437 H   0  0  0  0  0  0  0  0  0  0  0  0
   -0.7042   -0.7564   -0.4734 H   0  0  0  0  0  0  0  0  0  0  0  0
    4.5371   -0.4303   -0.4976 H   0  0  0  0  0  0  0  0  0  0  0  0
    5.5920   -1.7580   -1.0341 H   0  0  0  0  0  0  0  0  0  0  0  0
    4.5540   -1.9856    0.3935 H   0  0  0  0  0  0  0  0  0  0  0  0
   -0.1630   -6.3498   -0.3389 H   0  0  0  0  0  0  0  0  0  0  0  0
   -0.5454   -4.6624   -0.7615 H   0  0  0  0  0  0  0  0  0  0  0  0
   -0.5568   -5.1827    0.9523 H   0  0  0  0  0  0  0  0  0  0  0  0
    2.5629    0.3212   -2.0218 H   0  0  0  0  0  0  0  0  0  0  0  0
    0.8459    0.1575   -2.3177 H   0  0  0  0  0  0  0  0  0  0  0  0
    2.1805   -0.1783    0.4155 H   0  0  0  0  0  0  0  0  0  0  0  0
    1.0404   -2.3628   -1.4048 H   0  0  0  0  0  0  0  0  0  0  0  0
  1 13  1  0  0  0  0
  1 12  1  0  0  0  0
  2 14  1  0  0  0  0
  2 15  1  0  0  0  0
  3 17  1  0  0  0  0
  3 19  1  0  0  0  0
  4  9  1  0  0  0  0
  4 22  1  0  0  0  0
  5  1  1  0  0  0  0
  5  6  1  0  0  0  0
  6  2  1  0  0  0  0
  6 25  1  1  0  0  0
  7 26  1  6  0  0  0
  7  6  1  0  0  0  0
  7 10  1  0  0  0  0
  8  7  1  0  0  0  0
  8  3  1  0  0  0  0
  9 10  1  0  0  0  0
 11  1  1  0  0  0  0
 16  2  1  0  0  0  0
 18  3  1  0  0  0  0
 20  4  1  0  0  0  0
 21  4  1  0  0  0  0
 23  5  1  0  0  0  0
 24  5  1  0  0  0  0
M  END
>  <HBA>
3

>  <HBD>
0

>  <TPSA>
75.9

>  <cid>
50297

>  <dipole>
2.02

>  <excitation_energy_1>
4.32

>  <excitation_energy_2>
4.576

>  <excitation_energy_3>
4.819

>  <excitation_energy_4>
5.024

>  <homo_energy>
-5.919

>  <homo_lumo_gap>
5.328

>  <logP>
3.733

>  <lumo_energy>
-0.59

>  <melting_point>
-0.32

>  <molecular_refractivity>
58.54

>  <oscillator_strength_1>
0.0026

>  <oscillator_strength_2>
0.0022

>  <oscillator_strength_3>
0.0053

>  <oscillator_strength_4>
0.0162

>  <open_babel_can_smiles>
CSS[C@@H]([C@@H](CC)C)SC

>  <mulliken_charges>
26
1   -0.451776
2   -0.457534
3   -0.599594
4   -0.585818
5   -0.251561
6   -0.086534
7   -0.398513
8   0.127796
9   0.041778
10   0.000552
11   0.148193
12   0.141695
13   0.147944
14   0.153208
15   0.173388
16   0.139434
17   0.176013
18   0.185786
19   0.202586
20   0.186853
21   0.182405
22   0.193874
23   0.164745
24   0.131184
25   0.140682
26   0.193213

>  <lowdin_charges>
26
1   -0.447345
2   -0.450362
3   -0.549108
4   -0.553446
5   -0.277892
6   -0.132515
7   -0.333203
8   0.117713
9   0.058344
10   0.010869
11   0.154177
12   0.147382
13   0.147235
14   0.154084
15   0.16362
16   0.147474
17   0.156924
18   0.17791
19   0.174662
20   0.176329
21   0.165995
22   0.171672
23   0.157546
24   0.142239
25   0.14503
26   0.174667

$$$$

