PCCDB-ID:  21908
public computational chemistry database (PCCDB) project, http://pccdb.org

 30 31  0  0  1  0  0  0  0  0999 V2000
    3.8557    0.3898   -0.9331 C   0  0  0  0  0  0  0  0  0  0  0  0
    3.0783    2.5921    1.8339 C   0  0  0  0  0  0  0  0  0  0  0  0
    2.6547    0.0426   -0.0485 C   0  0  0  0  0  0  0  0  0  0  0  0
   -0.4390   -0.9300    4.0299 C   0  0  0  0  0  0  0  0  0  0  0  0
    0.7380   -0.4009    4.5669 C   0  0  0  0  0  0  0  0  0  0  0  0
   -0.5337   -1.1340    2.6554 C   0  0  0  0  0  0  0  0  0  0  0  0
    1.8074   -0.0823    3.7343 C   0  0  0  0  0  0  0  0  0  0  0  0
    0.5396   -0.8120    1.8182 C   0  0  0  0  0  0  0  0  0  0  0  0
    1.7244   -0.2808    2.3461 C   0  0  0  0  0  0  0  0  0  0  0  0
    4.0890   -0.9348    1.7932 C   0  0  0  0  0  0  0  0  0  0  0  0
    4.9514    0.9960    2.2705 C   0  0  0  0  0  0  0  0  0  0  0  0
    2.9527    0.0481    1.4782 C   0  0  1  0  0  0  0  0  0  0  0  0
    5.1826   -0.4178    2.2032 N   0  0  0  0  0  0  0  0  0  0  0  0
    3.6337    1.2594    1.9026 N   0  0  0  0  0  0  0  0  0  0  0  0
    3.9327   -2.2508    1.6121 O   0  0  0  0  0  0  0  0  0  0  0  0
    5.7652    1.8280    2.6103 O   0  0  0  0  0  0  0  0  0  0  0  0
    3.5541    0.3897   -1.9857 H   0  0  0  0  0  0  0  0  0  0  0  0
    4.6683   -0.3352   -0.8184 H   0  0  0  0  0  0  0  0  0  0  0  0
    4.2577    1.3797   -0.6979 H   0  0  0  0  0  0  0  0  0  0  0  0
    3.8232    3.2698    2.2556 H   0  0  0  0  0  0  0  0  0  0  0  0
    2.1517    2.6629    2.4159 H   0  0  0  0  0  0  0  0  0  0  0  0
    2.8683    2.8994    0.8003 H   0  0  0  0  0  0  0  0  0  0  0  0
    2.2774   -0.9476   -0.3322 H   0  0  0  0  0  0  0  0  0  0  0  0
    1.8345    0.7464   -0.2362 H   0  0  0  0  0  0  0  0  0  0  0  0
   -1.2736   -1.1782    4.6795 H   0  0  0  0  0  0  0  0  0  0  0  0
    0.8238   -0.2365    5.6375 H   0  0  0  0  0  0  0  0  0  0  0  0
   -1.4449   -1.5391    2.2239 H   0  0  0  0  0  0  0  0  0  0  0  0
    2.7183    0.3298    4.1583 H   0  0  0  0  0  0  0  0  0  0  0  0
    0.4294   -0.9662    0.7502 H   0  0  0  0  0  0  0  0  0  0  0  0
    2.9893   -2.4396    1.4659 H   0  0  0  0  0  0  0  0  0  0  0  0
  1 18  1  0  0  0  0
  1 19  1  0  0  0  0
  1  3  1  0  0  0  0
  2 14  1  0  0  0  0
  2 20  1  0  0  0  0
  2 21  1  0  0  0  0
  4  5  1  0  0  0  0
  4 25  1  0  0  0  0
  5 26  1  0  0  0  0
  6  4  2  0  0  0  0
  7 28  1  0  0  0  0
  7  5  2  0  0  0  0
  8  9  2  0  0  0  0
  8  6  1  0  0  0  0
  9  7  1  0  0  0  0
 10 13  2  0  0  0  0
 11 16  2  0  0  0  0
 12  3  1  6  0  0  0
 12 10  1  0  0  0  0
 12 14  1  0  0  0  0
 12  9  1  0  0  0  0
 13 11  1  0  0  0  0
 14 11  1  0  0  0  0
 15 10  1  0  0  0  0
 17  1  1  0  0  0  0
 22  2  1  0  0  0  0
 23  3  1  0  0  0  0
 24  3  1  0  0  0  0
 27  6  1  0  0  0  0
 29  8  1  0  0  0  0
 30 15  1  0  0  0  0
M  END
>  <HBA>
4

>  <HBD>
1

>  <TPSA>
49.41

>  <cid>
21908

>  <dipole>
7.46

>  <excitation_energy_1>
4.842

>  <excitation_energy_2>
4.99

>  <excitation_energy_3>
5.053

>  <excitation_energy_4>
5.265

>  <homo_energy>
-6.569

>  <homo_lumo_gap>
5.72

>  <logP>
1.74

>  <lumo_energy>
-0.849

>  <melting_point>
116.28

>  <molecular_refractivity>
67.53

>  <oscillator_strength_1>
0.0074

>  <oscillator_strength_2>
0.0014

>  <oscillator_strength_3>
0.0024

>  <oscillator_strength_4>
0.0149

>  <open_babel_can_smiles>
CC[C@]1(C(=NC(=O)N1C)O)c1ccccc1

>  <mulliken_charges>
30
1   -0.464316
2   -0.324955
3   -0.274808
4   -0.123331
5   -0.130295
6   -0.130542
7   -0.176331
8   -0.20923
9   0.140513
10   0.54629
11   0.695464
12   0.04107
13   -0.488446
14   -0.457391
15   -0.583438
16   -0.507058
17   0.153527
18   0.172687
19   0.17167
20   0.20154
21   0.159273
22   0.150545
23   0.134801
24   0.159222
25   0.140672
26   0.144902
27   0.139295
28   0.16124
29   0.136787
30   0.420646

>  <lowdin_charges>
30
1   -0.449292
2   -0.354833
3   -0.279215
4   -0.150222
5   -0.144459
6   -0.152495
7   -0.15319
8   -0.179814
9   -0.029716
10   0.140033
11   0.173763
12   0.034231
13   -0.190574
14   -0.124799
15   -0.317015
16   -0.278324
17   0.156974
18   0.16323
19   0.16183
20   0.186145
21   0.153198
22   0.144642
23   0.14436
24   0.156272
25   0.164243
26   0.163297
27   0.162651
28   0.17324
29   0.159592
30   0.366246

$$$$

