PCCDB-ID:  34134
public computational chemistry database (PCCDB) project, http://pccdb.org

 26 25  0  0  0  0  0  0  0  0999 V2000
    4.9642    0.9770   -1.7434 C   0  0  0  0  0  0  0  0  0  0  0  0
    4.3289    1.1003   -0.3471 C   0  0  0  0  0  0  0  0  0  0  0  0
    4.9278    0.1388    0.6441 C   0  0  0  0  0  0  0  0  0  0  0  0
    4.2586   -0.8310    1.2734 C   0  0  0  0  0  0  0  0  0  0  0  0
    4.8036   -1.8244    2.2707 C   0  0  0  0  0  0  0  0  0  0  0  0
    6.3325   -1.8613    2.4651 C   0  0  0  0  0  0  0  0  0  0  0  0
    7.0862   -2.3661    1.2637 C   0  0  0  0  0  0  0  0  0  0  0  0
    8.1363   -1.7722    0.6891 C   0  0  0  0  0  0  0  0  0  0  0  0
    8.8376   -2.2890   -0.5344 C   0  0  0  0  0  0  0  0  0  0  0  0
    8.7392   -1.3742   -1.6293 O   0  0  0  0  0  0  0  0  0  0  0  0
    4.5508    1.7190   -2.4359 H   0  0  0  0  0  0  0  0  0  0  0  0
    4.7853   -0.0184   -2.1662 H   0  0  0  0  0  0  0  0  0  0  0  0
    6.0495    1.1332   -1.6978 H   0  0  0  0  0  0  0  0  0  0  0  0
    3.2455    0.9379   -0.4165 H   0  0  0  0  0  0  0  0  0  0  0  0
    4.4677    2.1313    0.0114 H   0  0  0  0  0  0  0  0  0  0  0  0
    5.9973    0.2540    0.8169 H   0  0  0  0  0  0  0  0  0  0  0  0
    3.1887   -0.9303    1.0751 H   0  0  0  0  0  0  0  0  0  0  0  0
    4.4597   -2.8312    1.9862 H   0  0  0  0  0  0  0  0  0  0  0  0
    4.3326   -1.6334    3.2474 H   0  0  0  0  0  0  0  0  0  0  0  0
    6.5369   -2.5278    3.3165 H   0  0  0  0  0  0  0  0  0  0  0  0
    6.7055   -0.8713    2.7555 H   0  0  0  0  0  0  0  0  0  0  0  0
    6.7292   -3.3120    0.8474 H   0  0  0  0  0  0  0  0  0  0  0  0
    8.5057   -0.8214    1.0773 H   0  0  0  0  0  0  0  0  0  0  0  0
    8.4446   -3.2827   -0.8045 H   0  0  0  0  0  0  0  0  0  0  0  0
    9.9137   -2.3985   -0.3569 H   0  0  0  0  0  0  0  0  0  0  0  0
    7.7929   -1.2054   -1.7643 H   0  0  0  0  0  0  0  0  0  0  0  0
  1 13  1  0  0  0  0
  1  2  1  0  0  0  0
  2 15  1  0  0  0  0
  2  3  1  0  0  0  0
  3 16  1  0  0  0  0
  3  4  2  0  0  0  0
  4  5  1  0  0  0  0
  5  6  1  0  0  0  0
  5 19  1  0  0  0  0
  6 21  1  0  0  0  0
  6 20  1  0  0  0  0
  7  6  1  0  0  0  0
  8 23  1  0  0  0  0
  8  7  2  0  0  0  0
  9 25  1  0  0  0  0
  9  8  1  0  0  0  0
 10  9  1  0  0  0  0
 11  1  1  0  0  0  0
 12  1  1  0  0  0  0
 14  2  1  0  0  0  0
 17  4  1  0  0  0  0
 18  5  1  0  0  0  0
 22  7  1  0  0  0  0
 24  9  1  0  0  0  0
 26 10  1  0  0  0  0
M  END
>  <HBA>
1

>  <HBD>
1

>  <TPSA>
20.23

>  <cid>
34134

>  <dipole>
2.11

>  <excitation_energy_1>
5.649

>  <excitation_energy_2>
5.958

>  <excitation_energy_3>
6.112

>  <excitation_energy_4>
6.31

>  <homo_energy>
-6.446

>  <homo_lumo_gap>
6.746

>  <logP>
2.281

>  <lumo_energy>
0.299

>  <melting_point>
9.64

>  <molecular_refractivity>
45.59

>  <oscillator_strength_1>
0.0138

>  <oscillator_strength_2>
0.0031

>  <oscillator_strength_3>
0.0768

>  <oscillator_strength_4>
0.0152

>  <open_babel_can_smiles>
CC/C=C/CC/C=C/CO

>  <mulliken_charges>
26
1   -0.445573
2   -0.296941
3   -0.081102
4   -0.111847
5   -0.301658
6   -0.31194
7   -0.074582
8   -0.134982
9   -0.069243
10   -0.614829
11   0.145951
12   0.145289
13   0.146517
14   0.137924
15   0.141822
16   0.12204
17   0.114067
18   0.140445
19   0.14792
20   0.148083
21   0.145976
22   0.119996
23   0.12743
24   0.123382
25   0.149349
26   0.386507

>  <lowdin_charges>
26
1   -0.443599
2   -0.264445
3   -0.170341
4   -0.173262
5   -0.271156
6   -0.273683
7   -0.153943
8   -0.196352
9   -0.127232
10   -0.468717
11   0.152124
12   0.147164
13   0.145597
14   0.142933
15   0.146493
16   0.148236
17   0.143686
18   0.147028
19   0.152715
20   0.156046
21   0.14915
22   0.14652
23   0.150824
24   0.12807
25   0.148765
26   0.33738

$$$$

