PCCDB-ID:  7799
public computational chemistry database (PCCDB) project, http://pccdb.org

 32 31  0  0  0  0  0  0  0  0999 V2000
    0.9158    1.6223    0.4370 C   0  0  0  0  0  0  0  0  0  0  0  0
    6.7089    5.6578    1.1402 C   0  0  0  0  0  0  0  0  0  0  0  0
    2.3771    1.8142    0.0175 C   0  0  0  0  0  0  0  0  0  0  0  0
    7.9114    5.2975    0.2805 C   0  0  0  0  0  0  0  0  0  0  0  0
    2.9780    0.5648   -0.6417 C   0  0  0  0  0  0  0  0  0  0  0  0
    4.4621    0.6874   -1.0263 C   0  0  0  0  0  0  0  0  0  0  0  0
    4.7473    1.7184   -2.1297 C   0  0  0  0  0  0  0  0  0  0  0  0
    6.1984    1.7206   -2.6400 C   0  0  0  0  0  0  0  0  0  0  0  0
    7.2465    2.1688   -1.6135 C   0  0  0  0  0  0  0  0  0  0  0  0
    7.1586    3.6443   -1.2657 C   0  0  0  0  0  0  0  0  0  0  0  0
    6.5708    4.4865   -1.9121 O   0  0  0  0  0  0  0  0  0  0  0  0
    7.8629    3.9134   -0.1412 O   0  0  0  0  0  0  0  0  0  0  0  0
    0.5117    2.5261    0.9073 H   0  0  0  0  0  0  0  0  0  0  0  0
    0.8135    0.7987    1.1546 H   0  0  0  0  0  0  0  0  0  0  0  0
    0.2832    1.3864   -0.4277 H   0  0  0  0  0  0  0  0  0  0  0  0
    6.8087    6.6854    1.5086 H   0  0  0  0  0  0  0  0  0  0  0  0
    6.6330    4.9890    2.0040 H   0  0  0  0  0  0  0  0  0  0  0  0
    5.7861    5.5902    0.5573 H   0  0  0  0  0  0  0  0  0  0  0  0
    2.9787    2.0805    0.8989 H   0  0  0  0  0  0  0  0  0  0  0  0
    2.4463    2.6689   -0.6678 H   0  0  0  0  0  0  0  0  0  0  0  0
    8.8445    5.3764    0.8442 H   0  0  0  0  0  0  0  0  0  0  0  0
    7.9677    5.9348   -0.6054 H   0  0  0  0  0  0  0  0  0  0  0  0
    2.3921    0.3110   -1.5381 H   0  0  0  0  0  0  0  0  0  0  0  0
    2.8610   -0.2854    0.0458 H   0  0  0  0  0  0  0  0  0  0  0  0
    4.8209   -0.2966   -1.3623 H   0  0  0  0  0  0  0  0  0  0  0  0
    5.0418    0.9293   -0.1236 H   0  0  0  0  0  0  0  0  0  0  0  0
    4.4909    2.7283   -1.7883 H   0  0  0  0  0  0  0  0  0  0  0  0
    4.0859    1.5091   -2.9826 H   0  0  0  0  0  0  0  0  0  0  0  0
    6.2684    2.3812   -3.5113 H   0  0  0  0  0  0  0  0  0  0  0  0
    6.4636    0.7115   -2.9834 H   0  0  0  0  0  0  0  0  0  0  0  0
    8.2580    2.0015   -2.0101 H   0  0  0  0  0  0  0  0  0  0  0  0
    7.1967    1.5892   -0.6857 H   0  0  0  0  0  0  0  0  0  0  0  0
  1 13  1  0  0  0  0
  1 14  1  0  0  0  0
  2 16  1  0  0  0  0
  2 17  1  0  0  0  0
  3  1  1  0  0  0  0
  3 19  1  0  0  0  0
  4 21  1  0  0  0  0
  4  2  1  0  0  0  0
  5  3  1  0  0  0  0
  5 24  1  0  0  0  0
  6  5  1  0  0  0  0
  6 26  1  0  0  0  0
  7 27  1  0  0  0  0
  7  6  1  0  0  0  0
  8  7  1  0  0  0  0
  8  9  1  0  0  0  0
  9 10  1  0  0  0  0
  9 32  1  0  0  0  0
 10 12  1  0  0  0  0
 11 10  2  0  0  0  0
 12  4  1  0  0  0  0
 15  1  1  0  0  0  0
 18  2  1  0  0  0  0
 20  3  1  0  0  0  0
 22  4  1  0  0  0  0
 23  5  1  0  0  0  0
 25  6  1  0  0  0  0
 28  7  1  0  0  0  0
 29  8  1  0  0  0  0
 30  8  1  0  0  0  0
 31  9  1  0  0  0  0
M  END
>  <HBA>
2

>  <HBD>
0

>  <TPSA>
26.3

>  <cid>
7799

>  <dipole>
1.52

>  <excitation_energy_1>
5.799

>  <excitation_energy_2>
6.921

>  <excitation_energy_3>
7.307

>  <excitation_energy_4>
7.426

>  <homo_energy>
-7.266

>  <homo_lumo_gap>
7.698

>  <logP>
2.91

>  <lumo_energy>
0.433

>  <melting_point>
-16.78

>  <molecular_refractivity>
51.47

>  <oscillator_strength_1>
0.0009

>  <oscillator_strength_2>
0.0109

>  <oscillator_strength_3>
0.0022

>  <oscillator_strength_4>
0.0027

>  <open_babel_can_smiles>
CCCCCCCC(=O)OCC

>  <mulliken_charges>
32
1   -0.441436
2   -0.461345
3   -0.249211
4   -0.043924
5   -0.247478
6   -0.257383
7   -0.264608
8   -0.254437
9   -0.362732
10   0.626195
11   -0.483514
12   -0.462483
13   0.14113
14   0.139969
15   0.141505
16   0.149569
17   0.156185
18   0.175812
19   0.127336
20   0.139813
21   0.151334
22   0.169048
23   0.126213
24   0.125254
25   0.124497
26   0.126457
27   0.154925
28   0.129038
29   0.153669
30   0.12799
31   0.172194
32   0.170416

>  <lowdin_charges>
32
1   -0.445865
2   -0.454398
3   -0.275809
4   -0.128368
5   -0.2754
6   -0.278798
7   -0.281208
8   -0.272811
9   -0.304172
10   0.201146
11   -0.273655
12   -0.200237
13   0.149421
14   0.145795
15   0.146929
16   0.157456
17   0.155843
18   0.165211
19   0.137922
20   0.142828
21   0.15153
22   0.158486
23   0.137461
24   0.139579
25   0.138098
26   0.136138
27   0.149009
28   0.142914
29   0.156452
30   0.141564
31   0.171205
32   0.165735

$$$$

