PCCDB-ID:  3276
public computational chemistry database (PCCDB) project, http://pccdb.org

 25 25  0  0  0  0  0  0  0  0999 V2000
   -2.7803   -0.2109   -2.9931 C   0  0  0  0  0  0  0  0  0  0  0  0
    2.0975   -2.7452   -2.4894 C   0  0  0  0  0  0  0  0  0  0  0  0
   -1.4560   -0.5852   -2.8587 C   0  0  0  0  0  0  0  0  0  0  0  0
    3.3641   -3.6092   -2.4137 C   0  0  0  0  0  0  0  0  0  0  0  0
    0.0935   -1.0771   -0.9490 C   0  0  0  0  0  0  0  0  0  0  0  0
    0.3055   -2.5939   -0.8811 C   0  0  0  0  0  0  0  0  0  0  0  0
   -2.4273   -0.4343   -0.9162 C   0  0  0  0  0  0  0  0  0  0  0  0
    1.1474   -3.2795   -1.5321 N   0  0  0  0  0  0  0  0  0  0  0  0
   -3.3721   -0.1133   -1.7743 N   0  0  0  0  0  0  0  0  0  0  0  0
   -1.2224   -0.7313   -1.5163 N   0  0  0  0  0  0  0  0  0  0  0  0
   -2.6506   -0.4743    0.5004 N   0  0  0  0  0  0  0  0  0  0  0  0
    3.0547   -4.9711   -2.6136 O   0  0  0  0  0  0  0  0  0  0  0  0
   -0.5293   -3.2376   -0.0394 O   0  0  0  0  0  0  0  0  0  0  0  0
   -1.8070   -1.0810    1.2020 O   0  0  0  0  0  0  0  0  0  0  0  0
   -3.6392    0.0801    0.9461 O   0  0  0  0  0  0  0  0  0  0  0  0
   -3.3262   -0.0108   -3.9045 H   0  0  0  0  0  0  0  0  0  0  0  0
    1.6761   -2.8494   -3.4995 H   0  0  0  0  0  0  0  0  0  0  0  0
    2.3653   -1.6859   -2.3410 H   0  0  0  0  0  0  0  0  0  0  0  0
   -0.6729   -0.7521   -3.5838 H   0  0  0  0  0  0  0  0  0  0  0  0
    3.8531   -3.4411   -1.4389 H   0  0  0  0  0  0  0  0  0  0  0  0
    4.0684   -3.3140   -3.1992 H   0  0  0  0  0  0  0  0  0  0  0  0
    0.8436   -0.6081   -1.5841 H   0  0  0  0  0  0  0  0  0  0  0  0
    0.1610   -0.6412    0.0483 H   0  0  0  0  0  0  0  0  0  0  0  0
    2.2916   -5.1411   -2.0315 H   0  0  0  0  0  0  0  0  0  0  0  0
   -1.0451   -2.5879    0.4833 H   0  0  0  0  0  0  0  0  0  0  0  0
  1  3  2  0  0  0  0
  1  9  1  0  0  0  0
  2  4  1  0  0  0  0
  2 18  1  0  0  0  0
  2  8  1  0  0  0  0
  3 10  1  0  0  0  0
  4 20  1  0  0  0  0
  5  6  1  0  0  0  0
  5 23  1  0  0  0  0
  6 13  1  0  0  0  0
  7 11  1  0  0  0  0
  8  6  2  0  0  0  0
  9  7  2  0  0  0  0
 10  5  1  0  0  0  0
 10  7  1  0  0  0  0
 11 15  2  0  0  0  0
 11 14  2  0  0  0  0
 12  4  1  0  0  0  0
 12 24  1  0  0  0  0
 13 25  1  0  0  0  0
 16  1  1  0  0  0  0
 17  2  1  0  0  0  0
 19  3  1  0  0  0  0
 21  4  1  0  0  0  0
 22  5  1  0  0  0  0
M  END
>  <HBA>
5

>  <HBD>
2

>  <TPSA>
112.97

>  <cid>
3276

>  <dipole>
4.98

>  <excitation_energy_1>
3.278

>  <excitation_energy_2>
3.532

>  <excitation_energy_3>
3.654

>  <excitation_energy_4>
3.828

>  <homo_energy>
-6.944

>  <homo_lumo_gap>
3.712

>  <logP>
-0.186

>  <lumo_energy>
-3.233

>  <melting_point>
125.98

>  <molecular_refractivity>
50.9

>  <oscillator_strength_1>
0.0062

>  <oscillator_strength_2>
0.0201

>  <oscillator_strength_3>
0.0266

>  <oscillator_strength_4>
0.008

>  <open_babel_can_smiles>
OCC/N=C(\Cn1ccnc1N(=O)=O)/O

>  <mulliken_charges>
25
1   -0.015246
2   -0.17334
3   0.041699
4   -0.008959
5   -0.288286
6   0.515293
7   0.66132
8   -0.429773
9   -0.411878
10   -0.41579
11   0.37105
12   -0.623704
13   -0.595786
14   -0.449082
15   -0.336049
16   0.170464
17   0.156518
18   0.116022
19   0.189042
20   0.121629
21   0.138647
22   0.190746
23   0.221567
24   0.408433
25   0.44546

>  <lowdin_charges>
25
1   -0.12506
2   -0.221815
3   -0.127322
4   -0.135492
5   -0.230335
6   0.122827
7   0.040056
8   -0.20466
9   -0.125552
10   0.013236
11   0.314078
12   -0.468744
13   -0.362281
14   -0.295915
15   -0.177296
16   0.179843
17   0.150222
18   0.124275
19   0.186836
20   0.126006
21   0.146127
22   0.177431
23   0.190285
24   0.346011
25   0.357238

$$$$

