PCCDB-ID:  17279
public computational chemistry database (PCCDB) project, http://pccdb.org

 25 27  0  0  0  0  0  0  0  0999 V2000
    3.5604   -0.3032    0.0008 C   0  0  0  0  0  0  0  0  0  0  0  0
    2.8778   -1.5342   -0.0001 C   0  0  0  0  0  0  0  0  0  0  0  0
   -3.5651   -0.3144    0.0008 C   0  0  0  0  0  0  0  0  0  0  0  0
   -2.8820   -1.5433   -0.0003 C   0  0  0  0  0  0  0  0  0  0  0  0
    2.8384    0.8723    0.0013 C   0  0  0  0  0  0  0  0  0  0  0  0
    1.4948   -1.5739   -0.0000 C   0  0  0  0  0  0  0  0  0  0  0  0
   -2.8501    0.8668    0.0006 C   0  0  0  0  0  0  0  0  0  0  0  0
   -1.4999   -1.5730    0.0005 C   0  0  0  0  0  0  0  0  0  0  0  0
    0.6903    2.0808    0.0010 C   0  0  0  0  0  0  0  0  0  0  0  0
   -1.3669    3.3502    0.0012 C   0  0  0  0  0  0  0  0  0  0  0  0
    1.4228    0.8553    0.0015 C   0  0  0  0  0  0  0  0  0  0  0  0
   -0.6794    2.0929    0.0006 C   0  0  0  0  0  0  0  0  0  0  0  0
    0.7241   -0.3885    0.0012 C   0  0  0  0  0  0  0  0  0  0  0  0
   -1.4370    0.8574    0.0006 C   0  0  0  0  0  0  0  0  0  0  0  0
   -0.7342   -0.3835    0.0012 C   0  0  0  0  0  0  0  0  0  0  0  0
   -1.9262    4.3711    0.0018 N   0  0  0  0  0  0  0  0  0  0  0  0
    4.6463   -0.2821    0.0006 H   0  0  0  0  0  0  0  0  0  0  0  0
    3.4411   -2.4633   -0.0014 H   0  0  0  0  0  0  0  0  0  0  0  0
   -4.6511   -0.2938    0.0032 H   0  0  0  0  0  0  0  0  0  0  0  0
   -3.4412   -2.4747   -0.0027 H   0  0  0  0  0  0  0  0  0  0  0  0
    3.3466    1.8333    0.0014 H   0  0  0  0  0  0  0  0  0  0  0  0
    1.0046   -2.5408   -0.0017 H   0  0  0  0  0  0  0  0  0  0  0  0
   -3.3677    1.8213   -0.0004 H   0  0  0  0  0  0  0  0  0  0  0  0
   -1.0016   -2.5358    0.0008 H   0  0  0  0  0  0  0  0  0  0  0  0
    1.2397    3.0176    0.0004 H   0  0  0  0  0  0  0  0  0  0  0  0
  1  5  2  0  0  0  0
  2  6  2  0  0  0  0
  2  1  1  0  0  0  0
  3 19  1  0  0  0  0
  4  8  2  0  0  0  0
  4  3  1  0  0  0  0
  5 21  1  0  0  0  0
  5 11  1  0  0  0  0
  6 13  1  0  0  0  0
  7 14  1  0  0  0  0
  7  3  2  0  0  0  0
  8 24  1  0  0  0  0
  8 15  1  0  0  0  0
  9 11  2  0  0  0  0
 10 16  3  0  0  0  0
 12 14  2  0  0  0  0
 12  9  1  0  0  0  0
 12 10  1  0  0  0  0
 13 15  2  0  0  0  0
 13 11  1  0  0  0  0
 14 15  1  0  0  0  0
 17  1  1  0  0  0  0
 18  2  1  0  0  0  0
 20  4  1  0  0  0  0
 22  6  1  0  0  0  0
 23  7  1  0  0  0  0
 25  9  1  0  0  0  0
M  END
>  <HBA>
1

>  <HBD>
0

>  <TPSA>
23.79

>  <cid>
17279

>  <dipole>
4.91

>  <excitation_energy_1>
3.801

>  <excitation_energy_2>
3.959

>  <excitation_energy_3>
4.504

>  <excitation_energy_4>
4.812

>  <homo_energy>
-6.245

>  <homo_lumo_gap>
4.37

>  <logP>
3.865

>  <lumo_energy>
-1.875

>  <melting_point>
131.73

>  <molecular_refractivity>
66.17

>  <oscillator_strength_1>
0.0076

>  <oscillator_strength_2>
0.1598

>  <oscillator_strength_3>
0.1067

>  <oscillator_strength_4>
0.245

>  <open_babel_can_smiles>
N#Cc1cc2ccccc2c2c1cccc2

>  <mulliken_charges>
25
1   -0.129836
2   -0.132376
3   -0.127371
4   -0.131303
5   -0.19793
6   -0.191929
7   -0.212393
8   -0.190352
9   -0.229859
10   0.227233
11   0.140453
12   0.113455
13   0.081437
14   0.126143
15   0.047978
16   -0.493121
17   0.139741
18   0.138772
19   0.141002
20   0.137011
21   0.141024
22   0.141153
23   0.162149
24   0.138826
25   0.160092

>  <lowdin_charges>
25
1   -0.150438
2   -0.146045
3   -0.145402
4   -0.150243
5   -0.14817
6   -0.155721
7   -0.153932
8   -0.155102
9   -0.124871
10   -0.010817
11   -0.005182
12   -0.026935
13   0.006928
14   0.004685
15   -5.9e-05
16   -0.123384
17   0.16153
18   0.163244
19   0.16218
20   0.162514
21   0.162736
22   0.161689
23   0.175421
24   0.16077
25   0.174602

$$$$

