PCCDB-ID:  46538
public computational chemistry database (PCCDB) project, http://pccdb.org

 28 28  0  0  0  0  0  0  0  0999 V2000
    3.2850    1.2559   -0.1380 C   0  0  0  0  0  0  0  0  0  0  0  0
    1.0273    0.2870   -0.5903 C   0  0  0  0  0  0  0  0  0  0  0  0
    2.6883   -3.2916    2.1644 C   0  0  0  0  0  0  0  0  0  0  0  0
    3.7876   -4.5290    0.2716 C   0  0  0  0  0  0  0  0  0  0  0  0
    2.3785   -2.4546   -0.2705 C   0  0  0  0  0  0  0  0  0  0  0  0
    4.4223   -1.4509   -0.3758 C   0  0  0  0  0  0  0  0  0  0  0  0
    2.4084    0.0065    0.0208 C   0  0  0  0  0  0  0  0  0  0  0  0
    3.3360   -3.1521    0.7817 C   0  0  0  0  0  0  0  0  0  0  0  0
    4.5173   -2.2513    0.8510 N   0  0  0  0  0  0  0  0  0  0  0  0
    3.0040   -1.1726   -0.6523 N   0  0  0  0  0  0  0  0  0  0  0  0
    2.7340    2.1385    0.2039 H   0  0  0  0  0  0  0  0  0  0  0  0
    3.5490    1.4048   -1.1916 H   0  0  0  0  0  0  0  0  0  0  0  0
    4.2097    1.2088    0.4457 H   0  0  0  0  0  0  0  0  0  0  0  0
    0.5501    1.1348   -0.0850 H   0  0  0  0  0  0  0  0  0  0  0  0
    0.3518   -0.5701   -0.5077 H   0  0  0  0  0  0  0  0  0  0  0  0
    1.1334    0.5265   -1.6543 H   0  0  0  0  0  0  0  0  0  0  0  0
    1.8382   -3.9824    2.1322 H   0  0  0  0  0  0  0  0  0  0  0  0
    2.3196   -2.3259    2.5326 H   0  0  0  0  0  0  0  0  0  0  0  0
    3.4097   -3.6828    2.8918 H   0  0  0  0  0  0  0  0  0  0  0  0
    2.9255   -5.1881    0.1071 H   0  0  0  0  0  0  0  0  0  0  0  0
    4.4590   -5.0061    0.9930 H   0  0  0  0  0  0  0  0  0  0  0  0
    4.3262   -4.4367   -0.6781 H   0  0  0  0  0  0  0  0  0  0  0  0
    1.3761   -2.2980    0.1356 H   0  0  0  0  0  0  0  0  0  0  0  0
    2.2760   -3.0898   -1.1597 H   0  0  0  0  0  0  0  0  0  0  0  0
    4.8076   -2.0549   -1.2078 H   0  0  0  0  0  0  0  0  0  0  0  0
    5.0307   -0.5491   -0.3142 H   0  0  0  0  0  0  0  0  0  0  0  0
    2.2707   -0.1711    1.1060 H   0  0  0  0  0  0  0  0  0  0  0  0
    4.3976   -1.6238    1.6469 H   0  0  0  0  0  0  0  0  0  0  0  0
  1  7  1  0  0  0  0
  1 11  1  0  0  0  0
  1 13  1  0  0  0  0
  2 15  1  0  0  0  0
  2 14  1  0  0  0  0
  2  7  1  0  0  0  0
  3 18  1  0  0  0  0
  3 19  1  0  0  0  0
  4  8  1  0  0  0  0
  4 21  1  0  0  0  0
  5 23  1  0  0  0  0
  5  8  1  0  0  0  0
  6 26  1  0  0  0  0
  6  9  1  0  0  0  0
  7 27  1  0  0  0  0
  8  9  1  0  0  0  0
  8  3  1  0  0  0  0
  9 28  1  0  0  0  0
 10  6  1  0  0  0  0
 10  5  1  0  0  0  0
 10  7  1  0  0  0  0
 12  1  1  0  0  0  0
 16  2  1  0  0  0  0
 17  3  1  0  0  0  0
 20  4  1  0  0  0  0
 22  4  1  0  0  0  0
 24  5  1  0  0  0  0
 25  6  1  0  0  0  0
M  END
>  <HBA>
2

>  <HBD>
1

>  <TPSA>
15.27

>  <cid>
46538

>  <dipole>
1.42

>  <excitation_energy_1>
5.106

>  <excitation_energy_2>
5.596

>  <excitation_energy_3>
5.683

>  <excitation_energy_4>
5.778

>  <homo_energy>
-5.595

>  <homo_lumo_gap>
7.306

>  <logP>
1.303

>  <lumo_energy>
1.712

>  <melting_point>
35.53

>  <molecular_refractivity>
52.02

>  <oscillator_strength_1>
0.0283

>  <oscillator_strength_2>
0.0012

>  <oscillator_strength_3>
0.0175

>  <oscillator_strength_4>
0.0031

>  <open_babel_can_smiles>
CC(N1CNC(C1)(C)C)C

>  <mulliken_charges>
28
1   -0.465008
2   -0.438184
3   -0.481606
4   -0.431793
5   -0.174712
6   -0.055364
7   0.059233
8   0.212617
9   -0.548374
10   -0.389062
11   0.145694
12   0.156358
13   0.142789
14   0.135121
15   0.143587
16   0.152181
17   0.148172
18   0.140006
19   0.153537
20   0.131579
21   0.147746
22   0.144335
23   0.140158
24   0.143419
25   0.150274
26   0.147736
27   0.099496
28   0.290064

>  <lowdin_charges>
28
1   -0.451133
2   -0.447636
3   -0.452204
4   -0.446045
5   -0.223967
6   -0.157422
7   -0.054113
8   0.051617
9   -0.367644
10   -0.203411
11   0.155072
12   0.15407
13   0.146741
14   0.147328
15   0.148805
16   0.152459
17   0.154159
18   0.144692
19   0.154887
20   0.143925
21   0.154161
22   0.15051
23   0.147528
24   0.145581
25   0.142335
26   0.152192
27   0.108234
28   0.24928

$$$$

