PCCDB-ID:  68437
public computational chemistry database (PCCDB) project, http://pccdb.org

 24 25  0  0  0  0  0  0  0  0999 V2000
    1.1629    0.2404   -0.0078 C   0  0  0  0  0  0  0  0  0  0  0  0
    2.7895    3.6380    1.8846 C   0  0  0  0  0  0  0  0  0  0  0  0
    4.6969    1.9063   -2.4980 C   0  0  0  0  0  0  0  0  0  0  0  0
    3.9940    0.9477   -1.7658 C   0  0  0  0  0  0  0  0  0  0  0  0
    5.1237    4.4847   -2.7378 C   0  0  0  0  0  0  0  0  0  0  0  0
    4.5494    3.2353   -2.1268 C   0  0  0  0  0  0  0  0  0  0  0  0
    3.1858    1.3002   -0.6783 C   0  0  0  0  0  0  0  0  0  0  0  0
    3.7458    3.6114   -1.0472 C   0  0  0  0  0  0  0  0  0  0  0  0
    3.0556    2.6514   -0.2847 C   0  0  0  0  0  0  0  0  0  0  0  0
    3.7508    5.0943   -0.9704 C   0  0  0  0  0  0  0  0  0  0  0  0
    3.1766    5.8522   -0.2254 O   0  0  0  0  0  0  0  0  0  0  0  0
    2.5939    0.2894    0.0329 O   0  0  0  0  0  0  0  0  0  0  0  0
    2.2375    2.9204    0.7664 O   0  0  0  0  0  0  0  0  0  0  0  0
    4.5710    5.5630   -1.9689 O   0  0  0  0  0  0  0  0  0  0  0  0
    0.8780   -0.6315    0.5851 H   0  0  0  0  0  0  0  0  0  0  0  0
    0.8092    0.1087   -1.0391 H   0  0  0  0  0  0  0  0  0  0  0  0
    0.7205    1.1425    0.4228 H   0  0  0  0  0  0  0  0  0  0  0  0
    3.0299    4.6657    1.6088 H   0  0  0  0  0  0  0  0  0  0  0  0
    3.6763    3.1175    2.2655 H   0  0  0  0  0  0  0  0  0  0  0  0
    2.0080    3.6278    2.6466 H   0  0  0  0  0  0  0  0  0  0  0  0
    5.3239    1.6124   -3.3351 H   0  0  0  0  0  0  0  0  0  0  0  0
    4.0693   -0.1078   -2.0088 H   0  0  0  0  0  0  0  0  0  0  0  0
    4.8357    4.6237   -3.7865 H   0  0  0  0  0  0  0  0  0  0  0  0
    6.2171    4.5371   -2.6704 H   0  0  0  0  0  0  0  0  0  0  0  0
  1 12  1  0  0  0  0
  1 17  1  0  0  0  0
  1 15  1  0  0  0  0
  2 19  1  0  0  0  0
  2 20  1  0  0  0  0
  3  6  2  0  0  0  0
  3  4  1  0  0  0  0
  4  7  2  0  0  0  0
  5 24  1  0  0  0  0
  5  6  1  0  0  0  0
  5 14  1  0  0  0  0
  6  8  1  0  0  0  0
  7  9  1  0  0  0  0
  7 12  1  0  0  0  0
  8 10  1  0  0  0  0
  8  9  2  0  0  0  0
  9 13  1  0  0  0  0
 10 11  2  0  0  0  0
 13  2  1  0  0  0  0
 14 10  1  0  0  0  0
 16  1  1  0  0  0  0
 18  2  1  0  0  0  0
 21  3  1  0  0  0  0
 22  4  1  0  0  0  0
 23  5  1  0  0  0  0
M  END
>  <HBA>
4

>  <HBD>
0

>  <TPSA>
44.76

>  <cid>
68437

>  <dipole>
3.58

>  <excitation_energy_1>
4.32

>  <excitation_energy_2>
4.776

>  <excitation_energy_3>
5.163

>  <excitation_energy_4>
5.422

>  <homo_energy>
-6.359

>  <homo_lumo_gap>
5.042

>  <logP>
1.374

>  <lumo_energy>
-1.317

>  <melting_point>
69.56

>  <molecular_refractivity>
48.75

>  <oscillator_strength_1>
0.0694

>  <oscillator_strength_2>
0.0011

>  <oscillator_strength_3>
0.0131

>  <oscillator_strength_4>
0.0016

>  <open_babel_can_smiles>
COc1c(OC)ccc2c1C(=O)OC2

>  <mulliken_charges>
24
1   -0.218013
2   -0.238834
3   -0.200654
4   -0.175028
5   -0.091649
6   0.07091
7   0.329941
8   9.7e-05
9   0.271068
10   0.595992
11   -0.467485
12   -0.519666
13   -0.521411
14   -0.469718
15   0.161832
16   0.140883
17   0.177322
18   0.201961
19   0.147944
20   0.16421
21   0.138292
22   0.149663
23   0.176391
24   0.175953

>  <lowdin_charges>
24
1   -0.275181
2   -0.280753
3   -0.172055
4   -0.150329
5   -0.117394
6   -0.015046
7   0.073339
8   -0.088796
9   0.093863
10   0.200622
11   -0.243868
12   -0.222711
13   -0.205
14   -0.189367
15   0.1587
16   0.138864
17   0.158141
18   0.169966
19   0.145849
20   0.161315
21   0.164298
22   0.171076
23   0.162733
24   0.161735

$$$$

