PCCDB-ID:  27517
public computational chemistry database (PCCDB) project, http://pccdb.org

 26 26  0  0  1  0  0  0  0  0999 V2000
    1.6832   -1.3056   -0.1711 C   0  0  0  0  0  0  0  0  0  0  0  0
    2.8964   -2.0871   -0.6514 C   0  0  0  0  0  0  0  0  0  0  0  0
    6.4980    2.4660    0.0742 C   0  0  0  0  0  0  0  0  0  0  0  0
    7.6252    2.1281    1.0609 C   0  0  0  0  0  0  0  0  0  0  0  0
    5.3601    1.4395    0.1769 C   0  0  0  0  0  0  0  0  0  0  0  0
    8.1015    0.6811    0.8495 C   0  0  0  0  0  0  0  0  0  0  0  0
    5.9117   -0.0037    0.0109 C   0  0  2  0  0  0  0  0  0  0  0  0
    4.7923   -0.9945    0.2882 C   0  0  0  0  0  0  0  0  0  0  0  0
    7.0356   -0.3220    0.8882 N   0  0  0  0  0  0  0  0  0  0  0  0
    4.5653   -1.4746    1.3798 O   0  0  0  0  0  0  0  0  0  0  0  0
    4.0496   -1.2240   -0.8146 O   0  0  0  0  0  0  0  0  0  0  0  0
    0.8109   -1.9675   -0.1205 H   0  0  0  0  0  0  0  0  0  0  0  0
    1.4507   -0.4833   -0.8560 H   0  0  0  0  0  0  0  0  0  0  0  0
    1.8606   -0.8965    0.8275 H   0  0  0  0  0  0  0  0  0  0  0  0
    2.7346   -2.5094   -1.6461 H   0  0  0  0  0  0  0  0  0  0  0  0
    3.1545   -2.8874    0.0462 H   0  0  0  0  0  0  0  0  0  0  0  0
    6.8987    2.4628   -0.9504 H   0  0  0  0  0  0  0  0  0  0  0  0
    6.1102    3.4760    0.2561 H   0  0  0  0  0  0  0  0  0  0  0  0
    7.2580    2.2435    2.0913 H   0  0  0  0  0  0  0  0  0  0  0  0
    8.4663    2.8239    0.9419 H   0  0  0  0  0  0  0  0  0  0  0  0
    4.5875    1.6312   -0.5779 H   0  0  0  0  0  0  0  0  0  0  0  0
    4.8813    1.5172    1.1634 H   0  0  0  0  0  0  0  0  0  0  0  0
    8.8521    0.4022    1.5978 H   0  0  0  0  0  0  0  0  0  0  0  0
    8.5932    0.6059   -0.1320 H   0  0  0  0  0  0  0  0  0  0  0  0
    6.2381   -0.1285   -1.0299 H   0  0  0  0  0  0  0  0  0  0  0  0
    6.6790   -0.4441    1.8349 H   0  0  0  0  0  0  0  0  0  0  0  0
  1 12  1  0  0  0  0
  1 14  1  0  0  0  0
  2  1  1  0  0  0  0
  2 16  1  0  0  0  0
  3  5  1  0  0  0  0
  3 18  1  0  0  0  0
  3  4  1  0  0  0  0
  4 19  1  0  0  0  0
  5 22  1  0  0  0  0
  6  9  1  0  0  0  0
  6  4  1  0  0  0  0
  6 23  1  0  0  0  0
  7 25  1  6  0  0  0
  7  5  1  0  0  0  0
  7  8  1  0  0  0  0
  7  9  1  0  0  0  0
  8 10  2  0  0  0  0
  9 26  1  0  0  0  0
 11  2  1  0  0  0  0
 11  8  1  0  0  0  0
 13  1  1  0  0  0  0
 15  2  1  0  0  0  0
 17  3  1  0  0  0  0
 20  4  1  0  0  0  0
 21  5  1  0  0  0  0
 24  6  1  0  0  0  0
M  END
>  <HBA>
3

>  <HBD>
1

>  <TPSA>
38.33

>  <cid>
27517

>  <dipole>
1.98

>  <excitation_energy_1>
5.003

>  <excitation_energy_2>
5.426

>  <excitation_energy_3>
5.702

>  <excitation_energy_4>
5.838

>  <homo_energy>
-5.772

>  <homo_lumo_gap>
6.158

>  <logP>
1.02

>  <lumo_energy>
0.386

>  <melting_point>
34.31

>  <molecular_refractivity>
46.46

>  <oscillator_strength_1>
0.0068

>  <oscillator_strength_2>
0.0134

>  <oscillator_strength_3>
0.0158

>  <oscillator_strength_4>
0.0148

>  <open_babel_can_smiles>
CCOC(=O)[C@H]1CCCCN1

>  <mulliken_charges>
26
1   -0.462424
2   -0.046914
3   -0.262914
4   -0.260634
5   -0.273662
6   -0.141391
7   -0.043162
8   0.632831
9   -0.544739
10   -0.491621
11   -0.464772
12   0.151584
13   0.156843
14   0.175291
15   0.153906
16   0.17398
17   0.131932
18   0.137703
19   0.128722
20   0.130815
21   0.143223
22   0.139606
23   0.141317
24   0.135849
25   0.150898
26   0.307732

>  <lowdin_charges>
26
1   -0.455728
2   -0.12777
3   -0.276274
4   -0.29464
5   -0.290336
6   -0.206847
7   -0.090034
8   0.200946
9   -0.354582
10   -0.272149
11   -0.18972
12   0.159908
13   0.156429
14   0.164409
15   0.152724
16   0.161325
17   0.138539
18   0.146165
19   0.137042
20   0.145984
21   0.151304
22   0.143985
23   0.148985
24   0.137772
25   0.152516
26   0.260045

$$$$

