PCCDB-ID:  619
public computational chemistry database (PCCDB) project, http://pccdb.org

 20 19  0  0  1  0  0  0  0  0999 V2000
    0.8031   -0.3748    0.5471 C   0  0  0  0  0  0  0  0  0  0  0  0
   -0.6516    3.7782    2.2261 C   0  0  0  0  0  0  0  0  0  0  0  0
    0.5914    0.8731    1.4130 C   0  0  1  0  0  0  0  0  0  0  0  0
    0.5832    3.4259    1.4247 C   0  0  0  0  0  0  0  0  0  0  0  0
    0.6595    2.1604    0.5661 C   0  0  1  0  0  0  0  0  0  0  0  0
    0.4779   -1.5400    1.3136 O   0  0  0  0  0  0  0  0  0  0  0  0
   -0.5017    5.0027    2.8955 O   0  0  0  0  0  0  0  0  0  0  0  0
   -0.6833    0.7986    2.0278 O   0  0  0  0  0  0  0  0  0  0  0  0
    1.5489    4.1802    1.4361 O   0  0  0  0  0  0  0  0  0  0  0  0
    1.8550    2.1686   -0.1774 O   0  0  0  0  0  0  0  0  0  0  0  0
    1.8211   -0.4117    0.1473 H   0  0  0  0  0  0  0  0  0  0  0  0
    0.0974   -0.3666   -0.2898 H   0  0  0  0  0  0  0  0  0  0  0  0
   -0.8572    2.9573    2.9271 H   0  0  0  0  0  0  0  0  0  0  0  0
   -1.5095    3.8027    1.5330 H   0  0  0  0  0  0  0  0  0  0  0  0
    1.3915    0.9158    2.1749 H   0  0  0  0  0  0  0  0  0  0  0  0
   -0.2116    2.1527   -0.1089 H   0  0  0  0  0  0  0  0  0  0  0  0
    1.2267   -1.7309    1.9007 H   0  0  0  0  0  0  0  0  0  0  0  0
    0.3771    5.3408    2.6417 H   0  0  0  0  0  0  0  0  0  0  0  0
   -0.8182   -0.1498    2.2141 H   0  0  0  0  0  0  0  0  0  0  0  0
    2.3428    2.9623    0.1215 H   0  0  0  0  0  0  0  0  0  0  0  0
  1  6  1  0  0  0  0
  1  3  1  0  0  0  0
  2  7  1  0  0  0  0
  2 13  1  0  0  0  0
  3  8  1  0  0  0  0
  3 15  1  1  0  0  0
  4  9  2  0  0  0  0
  4  2  1  0  0  0  0
  5 16  1  6  0  0  0
  5  3  1  0  0  0  0
  5  4  1  0  0  0  0
  6 17  1  0  0  0  0
  8 19  1  0  0  0  0
 10 20  1  0  0  0  0
 10  5  1  0  0  0  0
 11  1  1  0  0  0  0
 12  1  1  0  0  0  0
 14  2  1  0  0  0  0
 18  7  1  0  0  0  0
M  END
>  <HBA>
5

>  <HBD>
4

>  <TPSA>
97.99

>  <cid>
619

>  <dipole>
2.65

>  <excitation_energy_1>
4.856

>  <excitation_energy_2>
5.193

>  <excitation_energy_3>
5.579

>  <excitation_energy_4>
5.753

>  <homo_energy>
-7.271

>  <homo_lumo_gap>
6.087

>  <logP>
-2.738

>  <lumo_energy>
-1.184

>  <melting_point>
69.96

>  <molecular_refractivity>
31.0

>  <oscillator_strength_1>
0.0016

>  <oscillator_strength_2>
0.0257

>  <oscillator_strength_3>
0.01

>  <oscillator_strength_4>
0.0299

>  <open_babel_can_smiles>
OC[C@@H]([C@@H](C(=O)CO)O)O

>  <mulliken_charges>
20
1   -0.066978
2   -0.070845
3   0.111517
4   0.375905
5   0.075882
6   -0.621337
7   -0.627237
8   -0.646301
9   -0.480114
10   -0.647415
11   0.164993
12   0.161741
13   0.199034
14   0.160071
15   0.115615
16   0.154795
17   0.400497
18   0.409721
19   0.413823
20   0.416633

>  <lowdin_charges>
20
1   -0.152656
2   -0.165072
3   -0.030342
4   0.149536
5   -0.037046
6   -0.462257
7   -0.461205
8   -0.465915
9   -0.250124
10   -0.457357
11   0.154248
12   0.156627
13   0.179312
14   0.16003
15   0.125899
16   0.156048
17   0.350192
18   0.34771
19   0.349666
20   0.352704

$$$$

