PCCDB-ID:  44915
public computational chemistry database (PCCDB) project, http://pccdb.org

 24 24  0  0  1  0  0  0  0  0999 V2000
    2.8423   -1.0408    0.1023 C   0  0  0  0  0  0  0  0  0  0  0  0
    3.6889    3.2063   -1.2017 C   0  0  0  0  0  0  0  0  0  0  0  0
    2.4046    2.4122   -1.5497 C   0  0  0  0  0  0  0  0  0  0  0  0
    5.0226    2.1458    0.7967 C   0  0  0  0  0  0  0  0  0  0  0  0
    4.2536    1.9312   -0.5141 C   0  0  1  0  0  0  0  0  0  0  0  0
    2.8044    1.3426   -0.5023 C   0  0  2  0  0  0  0  0  0  0  0  0
    5.4431    0.8813    1.5276 C   0  0  0  0  0  0  0  0  0  0  0  0
    5.1780    0.5456    2.7228 N   0  0  0  0  0  0  0  0  0  0  0  0
    2.6268   -0.0318   -0.9360 N   0  0  0  0  0  0  0  0  0  0  0  0
    6.2089    0.0138    0.7995 O   0  0  0  0  0  0  0  0  0  0  0  0
    2.5649   -2.0230   -0.2941 H   0  0  0  0  0  0  0  0  0  0  0  0
    2.2652   -0.8640    1.0280 H   0  0  0  0  0  0  0  0  0  0  0  0
    3.9010   -1.0801    0.3729 H   0  0  0  0  0  0  0  0  0  0  0  0
    3.4972    4.0047   -0.4758 H   0  0  0  0  0  0  0  0  0  0  0  0
    4.2648    3.6262   -2.0318 H   0  0  0  0  0  0  0  0  0  0  0  0
    2.4512    1.9867   -2.5576 H   0  0  0  0  0  0  0  0  0  0  0  0
    1.4422    2.9158   -1.4170 H   0  0  0  0  0  0  0  0  0  0  0  0
    4.4133    2.7516    1.4768 H   0  0  0  0  0  0  0  0  0  0  0  0
    5.9267    2.7360    0.5791 H   0  0  0  0  0  0  0  0  0  0  0  0
    4.8431    1.3536   -1.2390 H   0  0  0  0  0  0  0  0  0  0  0  0
    2.3296    1.5529    0.4765 H   0  0  0  0  0  0  0  0  0  0  0  0
    4.6105    1.2691    3.1659 H   0  0  0  0  0  0  0  0  0  0  0  0
    1.6788   -0.1256   -1.2977 H   0  0  0  0  0  0  0  0  0  0  0  0
    6.3037    0.3481   -0.1054 H   0  0  0  0  0  0  0  0  0  0  0  0
  1 13  1  0  0  0  0
  1 12  1  0  0  0  0
  2  5  1  0  0  0  0
  2 14  1  0  0  0  0
  3 17  1  0  0  0  0
  3  2  1  0  0  0  0
  3  6  1  0  0  0  0
  4 18  1  0  0  0  0
  4  7  1  0  0  0  0
  5 20  1  6  0  0  0
  5  6  1  0  0  0  0
  5  4  1  0  0  0  0
  6 21  1  1  0  0  0
  7  8  2  0  0  0  0
  8 22  1  0  0  0  0
  9  6  1  0  0  0  0
  9  1  1  0  0  0  0
 10  7  1  0  0  0  0
 11  1  1  0  0  0  0
 15  2  1  0  0  0  0
 16  3  1  0  0  0  0
 19  4  1  0  0  0  0
 23  9  1  0  0  0  0
 24 10  1  0  0  0  0
M  END
>  <HBA>
3

>  <HBD>
2

>  <TPSA>
55.12

>  <cid>
44915

>  <dipole>
4.26

>  <excitation_energy_1>
5.353

>  <excitation_energy_2>
5.435

>  <excitation_energy_3>
5.737

>  <excitation_energy_4>
5.811

>  <homo_energy>
-6.014

>  <homo_lumo_gap>
6.754

>  <logP>
0.951

>  <lumo_energy>
0.74

>  <melting_point>
98.17

>  <molecular_refractivity>
39.36

>  <oscillator_strength_1>
0.0013

>  <oscillator_strength_2>
0.0039

>  <oscillator_strength_3>
0.0177

>  <oscillator_strength_4>
0.0115

>  <open_babel_can_smiles>
CN[C@@H]1CC[C@H]1CC(=N)O

>  <mulliken_charges>
24
1   -0.32631
2   -0.292013
3   -0.303363
4   -0.371076
5   -0.093193
6   0.05789
7   0.494588
8   -0.586022
9   -0.556286
10   -0.581859
11   0.145366
12   0.125129
13   0.186056
14   0.14022
15   0.144387
16   0.151048
17   0.14096
18   0.146099
19   0.162159
20   0.126075
21   0.10198
22   0.280847
23   0.296568
24   0.41075

>  <lowdin_charges>
24
1   -0.367795
2   -0.284722
3   -0.289042
4   -0.31472
5   -0.144484
6   -0.06814
7   0.12242
8   -0.397667
9   -0.360777
10   -0.366107
11   0.150248
12   0.125303
13   0.161512
14   0.146793
15   0.148512
16   0.152652
17   0.145213
18   0.156629
19   0.161867
20   0.142426
21   0.116704
22   0.256278
23   0.253499
24   0.353399

$$$$

