PCCDB-ID:  16179
public computational chemistry database (PCCDB) project, http://pccdb.org

 27 29  0  0  0  0  0  0  0  0999 V2000
   -1.6674   -2.0021   -0.9221 C   0  0  0  0  0  0  0  0  0  0  0  0
   -1.3683   -1.4157    0.3077 C   0  0  0  0  0  0  0  0  0  0  0  0
   -0.6617   -2.1480   -1.8810 C   0  0  0  0  0  0  0  0  0  0  0  0
    6.3174   -5.0664   -0.1008 C   0  0  0  0  0  0  0  0  0  0  0  0
    5.7086   -5.3502    1.1355 C   0  0  0  0  0  0  0  0  0  0  0  0
   -0.0702   -0.9761    0.5767 C   0  0  0  0  0  0  0  0  0  0  0  0
    0.6333   -1.7083   -1.6106 C   0  0  0  0  0  0  0  0  0  0  0  0
    5.9118   -3.9863   -0.8849 C   0  0  0  0  0  0  0  0  0  0  0  0
    4.6685   -4.5633    1.6376 C   0  0  0  0  0  0  0  0  0  0  0  0
    2.3576   -0.6314   -0.0958 C   0  0  0  0  0  0  0  0  0  0  0  0
    0.9408   -1.1155   -0.3787 C   0  0  0  0  0  0  0  0  0  0  0  0
    4.8714   -3.1931   -0.3956 C   0  0  0  0  0  0  0  0  0  0  0  0
    4.2823   -3.4981    0.8385 C   0  0  0  0  0  0  0  0  0  0  0  0
    3.3524   -1.7451   -0.0389 C   0  0  0  0  0  0  0  0  0  0  0  0
    4.2436   -2.0604   -0.9238 N   0  0  0  0  0  0  0  0  0  0  0  0
    3.3018   -2.5634    1.0688 O   0  0  0  0  0  0  0  0  0  0  0  0
   -2.6769   -2.3442   -1.1332 H   0  0  0  0  0  0  0  0  0  0  0  0
   -2.1438   -1.2985    1.0601 H   0  0  0  0  0  0  0  0  0  0  0  0
   -0.8865   -2.6036   -2.8418 H   0  0  0  0  0  0  0  0  0  0  0  0
    7.1227   -5.7059   -0.4507 H   0  0  0  0  0  0  0  0  0  0  0  0
    6.0534   -6.2022    1.7143 H   0  0  0  0  0  0  0  0  0  0  0  0
    0.1581   -0.5199    1.5372 H   0  0  0  0  0  0  0  0  0  0  0  0
    1.4164   -1.8281   -2.3556 H   0  0  0  0  0  0  0  0  0  0  0  0
    6.3799   -3.7631   -1.8382 H   0  0  0  0  0  0  0  0  0  0  0  0
    4.1917   -4.7720    2.5893 H   0  0  0  0  0  0  0  0  0  0  0  0
    2.3788   -0.0842    0.8535 H   0  0  0  0  0  0  0  0  0  0  0  0
    2.6945    0.0510   -0.8824 H   0  0  0  0  0  0  0  0  0  0  0  0
  1  2  2  0  0  0  0
  2  6  1  0  0  0  0
  2 18  1  0  0  0  0
  3  7  2  0  0  0  0
  3  1  1  0  0  0  0
  4  5  2  0  0  0  0
  5  9  1  0  0  0  0
  5 21  1  0  0  0  0
  6 22  1  0  0  0  0
  7 11  1  0  0  0  0
  8 12  2  0  0  0  0
  8  4  1  0  0  0  0
  9 25  1  0  0  0  0
 10 14  1  0  0  0  0
 10 26  1  0  0  0  0
 11 10  1  0  0  0  0
 11  6  2  0  0  0  0
 12 13  1  0  0  0  0
 13 16  1  0  0  0  0
 13  9  2  0  0  0  0
 14 16  1  0  0  0  0
 15 12  1  0  0  0  0
 15 14  2  0  0  0  0
 17  1  1  0  0  0  0
 19  3  1  0  0  0  0
 20  4  1  0  0  0  0
 23  7  1  0  0  0  0
 24  8  1  0  0  0  0
 27 10  1  0  0  0  0
M  END
>  <HBA>
2

>  <HBD>
0

>  <TPSA>
26.03

>  <cid>
16179

>  <dipole>
1.18

>  <excitation_energy_1>
4.955

>  <excitation_energy_2>
5.193

>  <excitation_energy_3>
5.283

>  <excitation_energy_4>
5.393

>  <homo_energy>
-6.294

>  <homo_lumo_gap>
5.606

>  <logP>
3.419

>  <lumo_energy>
-0.688

>  <melting_point>
97.62

>  <molecular_refractivity>
63.46

>  <oscillator_strength_1>
0.1878

>  <oscillator_strength_2>
0.0719

>  <oscillator_strength_3>
0.1164

>  <oscillator_strength_4>
0.0058

>  <open_babel_can_smiles>
c1ccc(cc1)Cc1nc2c(o1)cccc2

>  <mulliken_charges>
27
1   -0.128596
2   -0.127277
3   -0.127389
4   -0.143618
5   -0.145068
6   -0.184154
7   -0.173635
8   -0.172138
9   -0.183967
10   -0.439361
11   0.167009
12   0.233152
13   0.327595
14   0.525624
15   -0.51295
16   -0.503705
17   0.130929
18   0.131407
19   0.133004
20   0.132168
21   0.134049
22   0.127365
23   0.145652
24   0.144755
25   0.147442
26   0.171549
27   0.190158

>  <lowdin_charges>
27
1   -0.155745
2   -0.154894
3   -0.150892
4   -0.164491
5   -0.15686
6   -0.163544
7   -0.161875
8   -0.156203
9   -0.174975
10   -0.276268
11   -0.003073
12   0.006034
13   0.070962
14   0.133213
15   -0.183402
16   -0.120214
17   0.157678
18   0.159549
19   0.158961
20   0.160947
21   0.161708
22   0.156062
23   0.165445
24   0.168628
25   0.170384
26   0.170152
27   0.182716

$$$$

