PCCDB-ID:  23057
public computational chemistry database (PCCDB) project, http://pccdb.org

 20 20  0  0  1  0  0  0  0  0999 V2000
    2.4821   -1.4741    0.0982 C   0  0  0  0  0  0  0  0  0  0  0  0
    3.4350    2.4708   -2.5973 C   0  0  0  0  0  0  0  0  0  0  0  0
    4.7455    1.8052   -3.0461 C   0  0  0  0  0  0  0  0  0  0  0  0
    2.9914    1.9216   -1.2318 C   0  0  0  0  0  0  0  0  0  0  0  0
    4.6202    0.2828   -2.9512 C   0  0  0  0  0  0  0  0  0  0  0  0
    2.9696    0.3968   -1.2563 C   0  0  2  0  0  0  0  0  0  0  0  0
    2.6634   -0.0667    0.0175 O   0  0  0  0  0  0  0  0  0  0  0  0
    4.2411   -0.1226   -1.6400 O   0  0  0  0  0  0  0  0  0  0  0  0
    2.1726   -1.6889    1.1238 H   0  0  0  0  0  0  0  0  0  0  0  0
    3.4086   -2.0132   -0.1266 H   0  0  0  0  0  0  0  0  0  0  0  0
    1.6949   -1.8129   -0.5933 H   0  0  0  0  0  0  0  0  0  0  0  0
    2.6524    2.2682   -3.3433 H   0  0  0  0  0  0  0  0  0  0  0  0
    3.5476    3.5603   -2.5518 H   0  0  0  0  0  0  0  0  0  0  0  0
    5.5690    2.1307   -2.3975 H   0  0  0  0  0  0  0  0  0  0  0  0
    5.0016    2.0949   -4.0734 H   0  0  0  0  0  0  0  0  0  0  0  0
    1.9992    2.2950   -0.9537 H   0  0  0  0  0  0  0  0  0  0  0  0
    3.6943    2.2252   -0.4466 H   0  0  0  0  0  0  0  0  0  0  0  0
    5.5720   -0.2161   -3.1571 H   0  0  0  0  0  0  0  0  0  0  0  0
    3.8810   -0.0816   -3.6873 H   0  0  0  0  0  0  0  0  0  0  0  0
    2.2182    0.0329   -1.9895 H   0  0  0  0  0  0  0  0  0  0  0  0
  1  9  1  0  0  0  0
  2 13  1  0  0  0  0
  2  4  1  0  0  0  0
  3  5  1  0  0  0  0
  3  2  1  0  0  0  0
  3 14  1  0  0  0  0
  4 16  1  0  0  0  0
  4 17  1  0  0  0  0
  5  8  1  0  0  0  0
  6 20  1  6  0  0  0
  6  4  1  0  0  0  0
  6  7  1  0  0  0  0
  7  1  1  0  0  0  0
  8  6  1  0  0  0  0
 10  1  1  0  0  0  0
 11  1  1  0  0  0  0
 12  2  1  0  0  0  0
 15  3  1  0  0  0  0
 18  5  1  0  0  0  0
 19  5  1  0  0  0  0
M  END
>  <HBA>
2

>  <HBD>
0

>  <TPSA>
18.46

>  <cid>
23057

>  <dipole>
1.6

>  <excitation_energy_1>
6.441

>  <excitation_energy_2>
6.709

>  <excitation_energy_3>
6.92

>  <excitation_energy_4>
6.944

>  <homo_energy>
-6.727

>  <homo_lumo_gap>
9.211

>  <logP>
1.159

>  <lumo_energy>
2.484

>  <melting_point>
-21.88

>  <molecular_refractivity>
31.01

>  <oscillator_strength_1>
0.0162

>  <oscillator_strength_2>
0.0297

>  <oscillator_strength_3>
0.0187

>  <oscillator_strength_4>
0.0099

>  <open_babel_can_smiles>
CO[C@H]1CCCCO1

>  <mulliken_charges>
20
1   -0.20301
2   -0.280893
3   -0.2695
4   -0.284198
5   -0.032735
6   0.388525
7   -0.474928
8   -0.485771
9   0.15593
10   0.161088
11   0.127075
12   0.131736
13   0.142135
14   0.145666
15   0.132795
16   0.143262
17   0.152978
18   0.146548
19   0.117405
20   0.085892

>  <lowdin_charges>
20
1   -0.28061
2   -0.278249
3   -0.293328
4   -0.2946
5   -0.134174
6   0.099415
7   -0.245962
8   -0.28165
9   0.153794
10   0.14936
11   0.133437
12   0.139616
13   0.147284
14   0.148663
15   0.147148
16   0.153418
17   0.156225
18   0.150632
19   0.124936
20   0.104644

$$$$

