PCCDB-ID:  66025
public computational chemistry database (PCCDB) project, http://pccdb.org

 20 20  0  0  0  0  0  0  0  0999 V2000
   -2.0720   -0.0250    0.2549 C   0  0  0  0  0  0  0  0  0  0  0  0
   -1.5499    1.1496   -0.2919 C   0  0  0  0  0  0  0  0  0  0  0  0
   -1.1962   -1.0275    0.6701 C   0  0  0  0  0  0  0  0  0  0  0  0
   -0.1739    1.3202   -0.4171 C   0  0  0  0  0  0  0  0  0  0  0  0
    0.1850   -0.8700    0.5456 C   0  0  0  0  0  0  0  0  0  0  0  0
    3.0450   -0.1788    0.7127 C   0  0  0  0  0  0  0  0  0  0  0  0
    0.7085    0.3120    0.0012 C   0  0  0  0  0  0  0  0  0  0  0  0
    3.5233   -1.5341    0.1619 C   0  0  0  0  0  0  0  0  0  0  0  0
    2.1020    0.4903   -0.1824 N   0  0  0  0  0  0  0  0  0  0  0  0
    4.1183   -2.3365    0.8383 O   0  0  0  0  0  0  0  0  0  0  0  0
    3.2484   -1.7252   -1.1396 O   0  0  0  0  0  0  0  0  0  0  0  0
   -3.1453   -0.1554    0.3550 H   0  0  0  0  0  0  0  0  0  0  0  0
   -2.2164    1.9433   -0.6188 H   0  0  0  0  0  0  0  0  0  0  0  0
   -1.5851   -1.9489    1.0951 H   0  0  0  0  0  0  0  0  0  0  0  0
    0.2243    2.2404   -0.8406 H   0  0  0  0  0  0  0  0  0  0  0  0
    0.8437   -1.6723    0.8628 H   0  0  0  0  0  0  0  0  0  0  0  0
    3.9356    0.4496    0.8196 H   0  0  0  0  0  0  0  0  0  0  0  0
    2.6390   -0.3424    1.7176 H   0  0  0  0  0  0  0  0  0  0  0  0
    2.3382    1.4612   -0.3500 H   0  0  0  0  0  0  0  0  0  0  0  0
    2.7395   -0.9329   -1.4269 H   0  0  0  0  0  0  0  0  0  0  0  0
  1 12  1  0  0  0  0
  1  3  2  0  0  0  0
  2  1  1  0  0  0  0
  3 14  1  0  0  0  0
  4  2  2  0  0  0  0
  4  7  1  0  0  0  0
  5  3  1  0  0  0  0
  5 16  1  0  0  0  0
  6 17  1  0  0  0  0
  6 18  1  0  0  0  0
  7  5  2  0  0  0  0
  8  6  1  0  0  0  0
  8 10  2  0  0  0  0
  9  7  1  0  0  0  0
  9  6  1  0  0  0  0
 11  8  1  0  0  0  0
 13  2  1  0  0  0  0
 15  4  1  0  0  0  0
 19  9  1  0  0  0  0
 20 11  1  0  0  0  0
M  END
>  <HBA>
3

>  <HBD>
2

>  <TPSA>
49.33

>  <cid>
66025

>  <dipole>
4.97

>  <excitation_energy_1>
4.847

>  <excitation_energy_2>
5.026

>  <excitation_energy_3>
5.333

>  <excitation_energy_4>
5.542

>  <homo_energy>
-6.087

>  <homo_lumo_gap>
5.791

>  <logP>
1.256

>  <lumo_energy>
-0.297

>  <melting_point>
114.36

>  <molecular_refractivity>
42.33

>  <oscillator_strength_1>
0.0191

>  <oscillator_strength_2>
0.0087

>  <oscillator_strength_3>
0.0568

>  <oscillator_strength_4>
0.1141

>  <open_babel_can_smiles>
OC(=O)CNc1ccccc1

>  <mulliken_charges>
20
1   -0.13069
2   -0.133234
3   -0.139349
4   -0.185633
5   -0.178041
6   -0.255105
7   0.325669
8   0.597446
9   -0.696458
10   -0.454998
11   -0.566541
12   0.131088
13   0.133952
14   0.138407
15   0.121581
16   0.149622
17   0.189425
18   0.193146
19   0.328646
20   0.431067

>  <lowdin_charges>
20
1   -0.172608
2   -0.144807
3   -0.140152
4   -0.194694
5   -0.200779
6   -0.246359
7   0.050939
8   0.174509
9   -0.317742
10   -0.250749
11   -0.352158
12   0.157968
13   0.161396
14   0.162437
15   0.153987
16   0.168829
17   0.179864
18   0.171743
19   0.277193
20   0.361182

$$$$

