PCCDB-ID:  70781
public computational chemistry database (PCCDB) project, http://pccdb.org

 27 27  0  0  0  0  0  0  0  0999 V2000
    0.9478   -0.3194    0.3263 C   0  0  0  0  0  0  0  0  0  0  0  0
    3.3041   -0.9289    1.0750 C   0  0  0  0  0  0  0  0  0  0  0  0
    3.8792   -1.6085   -5.4994 C   0  0  0  0  0  0  0  0  0  0  0  0
    2.9655   -2.1994   -3.2128 C   0  0  0  0  0  0  0  0  0  0  0  0
    3.3227    0.3603   -2.2852 C   0  0  0  0  0  0  0  0  0  0  0  0
    2.4538   -0.1843    0.0267 C   0  0  0  0  0  0  0  0  0  0  0  0
    3.4935   -1.2461   -4.0871 C   0  0  0  0  0  0  0  0  0  0  0  0
    2.8031   -0.5892   -1.4002 C   0  0  0  0  0  0  0  0  0  0  0  0
    3.6719    0.0660   -3.6098 C   0  0  0  0  0  0  0  0  0  0  0  0
    2.6239   -1.8924   -1.8953 C   0  0  0  0  0  0  0  0  0  0  0  0
    4.2613    1.0483   -4.4329 N   0  0  0  0  0  0  0  0  0  0  0  0
    2.1053   -2.8539   -1.0500 O   0  0  0  0  0  0  0  0  0  0  0  0
    0.7254    0.0552    1.3332 H   0  0  0  0  0  0  0  0  0  0  0  0
    0.6281   -1.3637    0.2712 H   0  0  0  0  0  0  0  0  0  0  0  0
    0.3518    0.2584   -0.3894 H   0  0  0  0  0  0  0  0  0  0  0  0
    3.0857   -0.5490    2.0807 H   0  0  0  0  0  0  0  0  0  0  0  0
    4.3739   -0.7872    0.8841 H   0  0  0  0  0  0  0  0  0  0  0  0
    3.0946   -2.0021    1.0615 H   0  0  0  0  0  0  0  0  0  0  0  0
    3.7429   -2.6780   -5.6860 H   0  0  0  0  0  0  0  0  0  0  0  0
    4.9293   -1.3602   -5.7014 H   0  0  0  0  0  0  0  0  0  0  0  0
    3.2751   -1.0710   -6.2461 H   0  0  0  0  0  0  0  0  0  0  0  0
    2.8207   -3.2180   -3.5735 H   0  0  0  0  0  0  0  0  0  0  0  0
    3.4672    1.3772   -1.9226 H   0  0  0  0  0  0  0  0  0  0  0  0
    2.7037    0.8826    0.1105 H   0  0  0  0  0  0  0  0  0  0  0  0
    4.1069    1.9923   -4.0966 H   0  0  0  0  0  0  0  0  0  0  0  0
    3.9920    0.9837   -5.4085 H   0  0  0  0  0  0  0  0  0  0  0  0
    2.0524   -3.6906   -1.5366 H   0  0  0  0  0  0  0  0  0  0  0  0
  1 13  1  0  0  0  0
  2 16  1  0  0  0  0
  3  7  1  0  0  0  0
  4 10  2  0  0  0  0
  5 23  1  0  0  0  0
  5  8  2  0  0  0  0
  6 24  1  0  0  0  0
  6  1  1  0  0  0  0
  6  2  1  0  0  0  0
  7  9  2  0  0  0  0
  7  4  1  0  0  0  0
  8  6  1  0  0  0  0
  9  5  1  0  0  0  0
 10  8  1  0  0  0  0
 10 12  1  0  0  0  0
 11 25  1  0  0  0  0
 11  9  1  0  0  0  0
 14  1  1  0  0  0  0
 15  1  1  0  0  0  0
 17  2  1  0  0  0  0
 18  2  1  0  0  0  0
 19  3  1  0  0  0  0
 20  3  1  0  0  0  0
 21  3  1  0  0  0  0
 22  4  1  0  0  0  0
 26 11  1  0  0  0  0
 27 12  1  0  0  0  0
M  END
>  <HBA>
2

>  <HBD>
2

>  <TPSA>
46.25

>  <cid>
70781

>  <dipole>
2.09

>  <excitation_energy_1>
4.292

>  <excitation_energy_2>
4.4

>  <excitation_energy_3>
4.467

>  <excitation_energy_4>
4.923

>  <homo_energy>
-4.898

>  <homo_lumo_gap>
5.206

>  <logP>
2.987

>  <lumo_energy>
0.307

>  <melting_point>
101.8

>  <molecular_refractivity>
52.42

>  <oscillator_strength_1>
0.0146

>  <oscillator_strength_2>
0.0606

>  <oscillator_strength_3>
0.0175

>  <oscillator_strength_4>
0.0018

>  <open_babel_can_smiles>
CC(c1cc(N)c(cc1O)C)C

>  <mulliken_charges>
27
1   -0.446263
2   -0.446529
3   -0.551195
4   -0.269288
5   -0.266054
6   -0.145723
7   0.164764
8   0.155821
9   0.245294
10   0.292696
11   -0.792808
12   -0.658682
13   0.13232
14   0.16766
15   0.137476
16   0.132034
17   0.140362
18   0.167229
19   0.155086
20   0.17183
21   0.147021
22   0.10345
23   0.109617
24   0.121517
25   0.313701
26   0.31518
27   0.403482

>  <lowdin_charges>
27
1   -0.446721
2   -0.442758
3   -0.442085
4   -0.212566
5   -0.198228
6   -0.109365
7   -0.029708
8   -0.022934
9   0.030494
10   0.07487
11   -0.496835
12   -0.392893
13   0.143458
14   0.157757
15   0.148071
16   0.143255
17   0.146532
18   0.157009
19   0.156315
20   0.161601
21   0.150537
22   0.145657
23   0.147886
24   0.137039
25   0.269419
26   0.269705
27   0.354489

$$$$

