PCCDB-ID:  26137
public computational chemistry database (PCCDB) project, http://pccdb.org

 27 29  0  0  1  0  0  0  0  0999 V2000
    2.4315    0.9111   -0.2670 C   0  0  0  0  0  0  0  0  0  0  0  0
    2.5426   -0.4975   -0.2140 C   0  0  0  0  0  0  0  0  0  0  0  0
   -2.3953    0.5732    0.2059 C   0  0  0  0  0  0  0  0  0  0  0  0
    1.1929    1.5011   -0.1741 C   0  0  0  0  0  0  0  0  0  0  0  0
   -1.2581    1.3320    0.0684 C   0  0  0  0  0  0  0  0  0  0  0  0
    1.4254   -1.2911   -0.0692 C   0  0  0  0  0  0  0  0  0  0  0  0
   -2.3011   -0.8340    0.2478 C   0  0  0  0  0  0  0  0  0  0  0  0
   -0.6312   -5.1084    0.5727 C   0  0  0  0  0  0  0  0  0  0  0  0
   -1.8922   -5.0604   -0.3286 C   0  0  0  0  0  0  0  0  0  0  0  0
    0.0179    0.7159   -0.0255 C   0  0  0  0  0  0  0  0  0  0  0  0
    0.1281   -0.7157    0.0303 C   0  0  0  0  0  0  0  0  0  0  0  0
   -1.0802   -1.4875    0.1634 C   0  0  0  0  0  0  0  0  0  0  0  0
   -1.0917   -2.9698    0.2066 C   0  0  3  0  0  0  0  0  0  0  0  0
   -0.1529   -3.7214    0.6676 N   0  0  0  0  0  0  0  0  0  0  0  0
   -2.2524   -3.6393   -0.2241 N   0  0  0  0  0  0  0  0  0  0  0  0
    3.3227    1.5225   -0.3815 H   0  0  0  0  0  0  0  0  0  0  0  0
    3.5231   -0.9611   -0.2841 H   0  0  0  0  0  0  0  0  0  0  0  0
   -3.3694    1.0475    0.2864 H   0  0  0  0  0  0  0  0  0  0  0  0
    1.0908    2.5831   -0.2145 H   0  0  0  0  0  0  0  0  0  0  0  0
   -1.3173    2.4174    0.0325 H   0  0  0  0  0  0  0  0  0  0  0  0
    1.5174   -2.3674   -0.0023 H   0  0  0  0  0  0  0  0  0  0  0  0
   -3.2049   -1.4208    0.3793 H   0  0  0  0  0  0  0  0  0  0  0  0
    0.1523   -5.7653    0.1805 H   0  0  0  0  0  0  0  0  0  0  0  0
   -0.8801   -5.4645    1.5821 H   0  0  0  0  0  0  0  0  0  0  0  0
   -2.7012   -5.7064    0.0257 H   0  0  0  0  0  0  0  0  0  0  0  0
   -1.6579   -5.3384   -1.3670 H   0  0  0  0  0  0  0  0  0  0  0  0
   -2.7256   -3.2296   -1.0216 H   0  0  0  0  0  0  0  0  0  0  0  0
  1  2  2  0  0  0  0
  1  4  1  0  0  0  0
  2  6  1  0  0  0  0
  3  7  1  0  0  0  0
  3 18  1  0  0  0  0
  4 10  2  0  0  0  0
  5  3  2  0  0  0  0
  6 21  1  0  0  0  0
  6 11  2  0  0  0  0
  7 22  1  0  0  0  0
  8 14  1  0  0  0  0
  8 24  1  0  0  0  0
  9 15  1  0  0  0  0
  9 25  1  0  0  0  0
  9  8  1  0  0  0  0
 10 11  1  0  0  0  0
 10  5  1  0  0  0  0
 11 12  1  0  0  0  0
 12 13  1  0  0  0  0
 12  7  2  0  0  0  0
 13 14  1  0  0  0  0
 15 13  1  0  0  0  0
 16  1  1  0  0  0  0
 17  2  1  0  0  0  0
 19  4  1  0  0  0  0
 20  5  1  0  0  0  0
 23  8  1  0  0  0  0
 26  9  1  0  0  0  0
 27 15  1  0  0  0  0
M  RAD  2  13   2  14   2
M  END
>  <HBA>
2

>  <HBD>
1

>  <TPSA>
24.39

>  <cid>
26137

>  <dipole>
2.39

>  <excitation_energy_1>
3.963

>  <excitation_energy_2>
4.079

>  <excitation_energy_3>
4.325

>  <excitation_energy_4>
4.783

>  <homo_energy>
-5.698

>  <homo_lumo_gap>
4.435

>  <logP>
1.954

>  <lumo_energy>
-1.263

>  <melting_point>
118.78

>  <molecular_refractivity>
70.14

>  <oscillator_strength_1>
0.1256

>  <oscillator_strength_2>
0.0297

>  <oscillator_strength_3>
0.003

>  <oscillator_strength_4>
0.0011

>  <open_babel_can_smiles>
C1CN[C]([N]1)c1cccc2c1cccc2

>  <mulliken_charges>
27
1   -0.127563
2   -0.142481
3   -0.136366
4   -0.198776
5   -0.181266
6   -0.175119
7   -0.207308
8   -0.15628
9   -0.146496
10   0.128909
11   0.066899
12   0.059966
13   0.434099
14   -0.484462
15   -0.616807
16   0.128744
17   0.129843
18   0.131821
19   0.127827
20   0.131509
21   0.175399
22   0.146084
23   0.148928
24   0.154484
25   0.152347
26   0.140665
27   0.3154

>  <lowdin_charges>
27
1   -0.157393
2   -0.156069
3   -0.163238
4   -0.157308
5   -0.144277
6   -0.153494
7   -0.162198
8   -0.209114
9   -0.211438
10   0.000116
11   0.005367
12   -0.018912
13   0.089359
14   -0.234788
15   -0.321789
16   0.158553
17   0.158005
18   0.159508
19   0.154501
20   0.156604
21   0.181685
22   0.165849
23   0.150997
24   0.148681
25   0.151713
26   0.135109
27   0.27397

$$$$

