PCCDB-ID:  21447
public computational chemistry database (PCCDB) project, http://pccdb.org

 29 28  0  0  1  0  0  0  0  0999 V2000
    1.8544    0.0744    3.3261 C   0  0  0  0  0  0  0  0  0  0  0  0
    7.6563   -0.6778    1.6357 C   0  0  0  0  0  0  0  0  0  0  0  0
    1.8782    1.3748    0.4722 C   0  0  0  0  0  0  0  0  0  0  0  0
    5.8271   -0.3980   -0.9533 C   0  0  0  0  0  0  0  0  0  0  0  0
    3.0832    0.6611    2.6222 C   0  0  0  0  0  0  0  0  0  0  0  0
    6.6649    0.4539    1.3397 C   0  0  0  0  0  0  0  0  0  0  0  0
    3.0332    0.5751    1.0816 C   0  0  2  0  0  0  0  0  0  0  0  0
    5.4625   -0.0097    0.4887 C   0  0  1  0  0  0  0  0  0  0  0  0
    4.4374    2.2155    0.0591 N   0  0  0  0  0  0  0  0  0  0  0  0
    4.3402    0.9665    0.5059 N   0  0  0  0  0  0  0  0  0  0  0  0
    5.5354    2.5431   -0.3998 O   0  0  0  0  0  0  0  0  0  0  0  0
    1.9926    0.0853    4.4126 H   0  0  0  0  0  0  0  0  0  0  0  0
    1.6821   -0.9669    3.0257 H   0  0  0  0  0  0  0  0  0  0  0  0
    0.9440    0.6412    3.1057 H   0  0  0  0  0  0  0  0  0  0  0  0
    8.4431   -0.3282    2.3130 H   0  0  0  0  0  0  0  0  0  0  0  0
    8.1477   -1.0427    0.7273 H   0  0  0  0  0  0  0  0  0  0  0  0
    7.1629   -1.5331    2.1158 H   0  0  0  0  0  0  0  0  0  0  0  0
    0.9261    0.9487    0.8035 H   0  0  0  0  0  0  0  0  0  0  0  0
    1.9099    1.3328   -0.6204 H   0  0  0  0  0  0  0  0  0  0  0  0
    1.9150    2.4255    0.7690 H   0  0  0  0  0  0  0  0  0  0  0  0
    6.5389   -1.2299   -0.9512 H   0  0  0  0  0  0  0  0  0  0  0  0
    6.2713    0.4466   -1.4825 H   0  0  0  0  0  0  0  0  0  0  0  0
    4.9354   -0.7226   -1.5006 H   0  0  0  0  0  0  0  0  0  0  0  0
    3.9791    0.1324    2.9723 H   0  0  0  0  0  0  0  0  0  0  0  0
    3.2160    1.7146    2.9012 H   0  0  0  0  0  0  0  0  0  0  0  0
    7.1691    1.2803    0.8341 H   0  0  0  0  0  0  0  0  0  0  0  0
    6.2812    0.8526    2.2873 H   0  0  0  0  0  0  0  0  0  0  0  0
    2.8987   -0.4788    0.8007 H   0  0  0  0  0  0  0  0  0  0  0  0
    5.0428   -0.8966    0.9794 H   0  0  0  0  0  0  0  0  0  0  0  0
  1 12  1  0  0  0  0
  2 17  1  0  0  0  0
  2 15  1  0  0  0  0
  3 20  1  0  0  0  0
  3 18  1  0  0  0  0
  3  7  1  0  0  0  0
  4 21  1  0  0  0  0
  4  8  1  0  0  0  0
  5 25  1  0  0  0  0
  5 24  1  0  0  0  0
  5  1  1  0  0  0  0
  6  2  1  0  0  0  0
  6 27  1  0  0  0  0
  7 28  1  6  0  0  0
  7  5  1  0  0  0  0
  8 10  1  0  0  0  0
  8 29  1  1  0  0  0
  8  6  1  0  0  0  0
  9 10  1  0  0  0  0
 10  7  1  0  0  0  0
 11  9  2  0  0  0  0
 13  1  1  0  0  0  0
 14  1  1  0  0  0  0
 16  2  1  0  0  0  0
 19  3  1  0  0  0  0
 22  4  1  0  0  0  0
 23  4  1  0  0  0  0
 26  6  1  0  0  0  0
M  END
>  <HBA>
3

>  <HBD>
0

>  <TPSA>
32.67

>  <cid>
21447

>  <dipole>
3.98

>  <excitation_energy_1>
3.233

>  <excitation_energy_2>
5.195

>  <excitation_energy_3>
5.642

>  <excitation_energy_4>
5.755

>  <homo_energy>
-5.636

>  <homo_lumo_gap>
5.059

>  <logP>
2.567

>  <lumo_energy>
-0.577

>  <melting_point>
-6.2

>  <molecular_refractivity>
48.2

>  <oscillator_strength_1>
0.0006

>  <oscillator_strength_2>
0.0019

>  <oscillator_strength_3>
0.0026

>  <oscillator_strength_4>
0.0021

>  <open_babel_can_smiles>
CC[C@H](N([C@H](CC)C)N=O)C

>  <mulliken_charges>
29
1   -0.454149
2   -0.453829
3   -0.452133
4   -0.456001
5   -0.25122
6   -0.261169
7   0.038046
8   0.035509
9   0.143267
10   -0.228536
11   -0.401705
12   0.152768
13   0.143784
14   0.155155
15   0.151389
16   0.151591
17   0.136747
18   0.147703
19   0.160597
20   0.173927
21   0.148464
22   0.189354
23   0.144952
24   0.141737
25   0.151742
26   0.180591
27   0.138519
28   0.138318
29   0.13458

>  <lowdin_charges>
29
1   -0.444661
2   -0.449009
3   -0.446639
4   -0.454568
5   -0.281621
6   -0.285446
7   -0.053045
8   -0.062586
9   0.049768
10   -0.041519
11   -0.289117
12   0.154685
13   0.146632
14   0.152662
15   0.156676
16   0.15061
17   0.144016
18   0.15417
19   0.159227
20   0.163565
21   0.154468
22   0.172432
23   0.15269
24   0.146104
25   0.150147
26   0.166337
27   0.145719
28   0.141319
29   0.146986

$$$$

