PCCDB-ID:  39763
public computational chemistry database (PCCDB) project, http://pccdb.org

 18 18  0  0  0  0  0  0  0  0999 V2000
    2.7584   -1.1892   -0.3665 C   0  0  0  0  0  0  0  0  0  0  0  0
    3.2842    2.2871    2.7319 C   0  0  0  0  0  0  0  0  0  0  0  0
    0.9774    1.5691    2.0144 C   0  0  0  0  0  0  0  0  0  0  0  0
    2.7642    2.9416    3.7854 C   0  0  0  0  0  0  0  0  0  0  0  0
    0.4546    2.2197    3.0694 C   0  0  0  0  0  0  0  0  0  0  0  0
    2.3375    0.2568   -0.2080 C   0  0  0  0  0  0  0  0  0  0  0  0
    2.4329    1.5559    1.7815 C   0  0  0  0  0  0  0  0  0  0  0  0
    1.3047    2.9547    4.0379 C   0  0  0  0  0  0  0  0  0  0  0  0
    3.0233    0.9249    0.8220 N   0  0  0  0  0  0  0  0  0  0  0  0
    1.5686    0.8262   -0.9622 O   0  0  0  0  0  0  0  0  0  0  0  0
    0.8196    3.5431    4.9986 O   0  0  0  0  0  0  0  0  0  0  0  0
    3.8009   -1.2310   -0.7025 H   0  0  0  0  0  0  0  0  0  0  0  0
    2.1174   -1.6754   -1.1041 H   0  0  0  0  0  0  0  0  0  0  0  0
    2.7074   -1.7205    0.5904 H   0  0  0  0  0  0  0  0  0  0  0  0
    4.3510    2.2629    2.5303 H   0  0  0  0  0  0  0  0  0  0  0  0
    0.3470    1.0534    1.2981 H   0  0  0  0  0  0  0  0  0  0  0  0
    3.3800    3.4859    4.4951 H   0  0  0  0  0  0  0  0  0  0  0  0
   -0.6141    2.2417    3.2624 H   0  0  0  0  0  0  0  0  0  0  0  0
  1  6  1  0  0  0  0
  1 14  1  0  0  0  0
  2  4  2  0  0  0  0
  3  5  2  0  0  0  0
  4  8  1  0  0  0  0
  4 17  1  0  0  0  0
  5 18  1  0  0  0  0
  5  8  1  0  0  0  0
  6  9  1  0  0  0  0
  7  3  1  0  0  0  0
  7  2  1  0  0  0  0
  8 11  2  0  0  0  0
  9  7  2  0  0  0  0
 10  6  2  0  0  0  0
 12  1  1  0  0  0  0
 13  1  1  0  0  0  0
 15  2  1  0  0  0  0
 16  3  1  0  0  0  0
M  END
>  <HBA>
3

>  <HBD>
0

>  <TPSA>
46.5

>  <cid>
39763

>  <dipole>
2.75

>  <excitation_energy_1>
2.554

>  <excitation_energy_2>
2.708

>  <excitation_energy_3>
3.81

>  <excitation_energy_4>
3.94

>  <homo_energy>
-7.045

>  <homo_lumo_gap>
3.614

>  <logP>
0.669

>  <lumo_energy>
-3.431

>  <melting_point>
74.91

>  <molecular_refractivity>
41.59

>  <oscillator_strength_1>
0.0

>  <oscillator_strength_2>
0.0002

>  <oscillator_strength_3>
0.005

>  <oscillator_strength_4>
0.0312

>  <open_babel_can_smiles>
O=C1C=C/C(=N/C(=O)C)/C=C1

>  <mulliken_charges>
18
1   -0.515902
2   -0.114182
3   -0.120746
4   -0.176538
5   -0.185345
6   0.514899
7   0.303792
8   0.44041
9   -0.472018
10   -0.439918
11   -0.466011
12   0.191507
13   0.183357
14   0.169688
15   0.168397
16   0.181959
17   0.166749
18   0.169905

>  <lowdin_charges>
18
1   -0.468035
2   -0.128957
3   -0.14849
4   -0.161481
5   -0.149816
6   0.172854
7   0.087267
8   0.141926
9   -0.136227
10   -0.247417
11   -0.217921
12   0.182756
13   0.176927
14   0.170584
15   0.178706
16   0.185958
17   0.181892
18   0.179473

$$$$

