PCCDB-ID:  65780
public computational chemistry database (PCCDB) project, http://pccdb.org

 40 39  0  0  1  0  0  0  0  0999 V2000
    2.6357   -2.4836   -2.0511 C   0  0  0  0  0  0  0  0  0  0  0  0
    5.6868   -4.1834    1.6141 C   0  0  0  0  0  0  0  0  0  0  0  0
   11.0194   -1.7140    2.3220 C   0  0  0  0  0  0  0  0  0  0  0  0
    1.8891   -2.0089   -0.7984 C   0  0  0  0  0  0  0  0  0  0  0  0
    4.7641   -3.3818    2.5422 C   0  0  0  0  0  0  0  0  0  0  0  0
    2.5726   -2.3788    0.5292 C   0  0  0  0  0  0  0  0  0  0  0  0
    3.9336   -1.7019    0.7494 C   0  0  0  0  0  0  0  0  0  0  0  0
    8.7309   -0.8669    3.0504 C   0  0  0  0  0  0  0  0  0  0  0  0
    5.8157   -1.0605    2.3100 C   0  0  0  0  0  0  0  0  0  0  0  0
    9.9368   -1.7505    3.3965 C   0  0  2  0  0  0  0  0  0  0  0  0
    4.5326   -1.9044    2.1551 C   0  0  2  0  0  0  0  0  0  0  0  0
    7.5299   -1.0362    3.9797 C   0  0  0  0  0  0  0  0  0  0  0  0
    6.3010   -1.1093    3.6739 N   0  0  0  0  0  0  0  0  0  0  0  0
   10.4588   -1.2478    4.6483 O   0  0  0  0  0  0  0  0  0  0  0  0
    7.8424   -1.0772    5.3026 O   0  0  0  0  0  0  0  0  0  0  0  0
    2.0725   -2.2440   -2.9605 H   0  0  0  0  0  0  0  0  0  0  0  0
    2.7874   -3.5704   -2.0315 H   0  0  0  0  0  0  0  0  0  0  0  0
    3.6212   -2.0131   -2.1419 H   0  0  0  0  0  0  0  0  0  0  0  0
    5.8129   -5.2062    1.9881 H   0  0  0  0  0  0  0  0  0  0  0  0
    6.6866   -3.7376    1.5450 H   0  0  0  0  0  0  0  0  0  0  0  0
    5.2881   -4.2550    0.5953 H   0  0  0  0  0  0  0  0  0  0  0  0
   10.6453   -2.1205    1.3758 H   0  0  0  0  0  0  0  0  0  0  0  0
   11.8872   -2.3137    2.6226 H   0  0  0  0  0  0  0  0  0  0  0  0
   11.3566   -0.6856    2.1535 H   0  0  0  0  0  0  0  0  0  0  0  0
    0.8777   -2.4378   -0.8041 H   0  0  0  0  0  0  0  0  0  0  0  0
    1.7562   -0.9183   -0.8450 H   0  0  0  0  0  0  0  0  0  0  0  0
    5.1763   -3.3900    3.5580 H   0  0  0  0  0  0  0  0  0  0  0  0
    3.7934   -3.8905    2.6018 H   0  0  0  0  0  0  0  0  0  0  0  0
    2.6845   -3.4711    0.5760 H   0  0  0  0  0  0  0  0  0  0  0  0
    1.9038   -2.1054    1.3579 H   0  0  0  0  0  0  0  0  0  0  0  0
    3.8165   -0.6210    0.5773 H   0  0  0  0  0  0  0  0  0  0  0  0
    4.6483   -2.0487   -0.0098 H   0  0  0  0  0  0  0  0  0  0  0  0
    8.4313   -1.0697    2.0197 H   0  0  0  0  0  0  0  0  0  0  0  0
    9.0619    0.1810    3.0853 H   0  0  0  0  0  0  0  0  0  0  0  0
    5.5674   -0.0170    2.0613 H   0  0  0  0  0  0  0  0  0  0  0  0
    6.5541   -1.3859    1.5566 H   0  0  0  0  0  0  0  0  0  0  0  0
    9.5927   -2.7858    3.5404 H   0  0  0  0  0  0  0  0  0  0  0  0
    3.8166   -1.5019    2.8865 H   0  0  0  0  0  0  0  0  0  0  0  0
   11.0877   -1.8960    5.0028 H   0  0  0  0  0  0  0  0  0  0  0  0
    8.8178   -1.0430    5.3920 H   0  0  0  0  0  0  0  0  0  0  0  0
  1 17  1  0  0  0  0
  1  4  1  0  0  0  0
  2 19  1  0  0  0  0
  2  5  1  0  0  0  0
  3 23  1  0  0  0  0
  3 10  1  0  0  0  0
  4  6  1  0  0  0  0
  5 28  1  0  0  0  0
  5 27  1  0  0  0  0
  6 29  1  0  0  0  0
  6  7  1  0  0  0  0
  6 30  1  0  0  0  0
  7 11  1  0  0  0  0
  8 34  1  0  0  0  0
  8 10  1  0  0  0  0
  8 12  1  0  0  0  0
  9 13  1  0  0  0  0
 10 37  1  1  0  0  0
 10 14  1  0  0  0  0
 11  9  1  0  0  0  0
 11  5  1  0  0  0  0
 11 38  1  1  0  0  0
 12 15  1  0  0  0  0
 13 12  2  0  0  0  0
 14 39  1  0  0  0  0
 15 40  1  0  0  0  0
 16  1  1  0  0  0  0
 18  1  1  0  0  0  0
 20  2  1  0  0  0  0
 21  2  1  0  0  0  0
 22  3  1  0  0  0  0
 24  3  1  0  0  0  0
 25  4  1  0  0  0  0
 26  4  1  0  0  0  0
 31  7  1  0  0  0  0
 32  7  1  0  0  0  0
 33  8  1  0  0  0  0
 35  9  1  0  0  0  0
 36  9  1  0  0  0  0
M  END
>  <HBA>
3

>  <HBD>
2

>  <TPSA>
49.33

>  <cid>
65780

>  <dipole>
4.92

>  <excitation_energy_1>
5.388

>  <excitation_energy_2>
5.517

>  <excitation_energy_3>
5.638

>  <excitation_energy_4>
6.028

>  <homo_energy>
-6.215

>  <homo_lumo_gap>
7.105

>  <logP>
2.481

>  <lumo_energy>
0.89

>  <melting_point>
36.64

>  <molecular_refractivity>
63.96

>  <oscillator_strength_1>
0.0007

>  <oscillator_strength_2>
0.0009

>  <oscillator_strength_3>
0.0039

>  <oscillator_strength_4>
0.0093

>  <open_babel_can_smiles>
CCCC[C@H](C/N=C(\C[C@H](O)C)/O)CC

>  <mulliken_charges>
40
1   -0.442838
2   -0.450502
3   -0.453005
4   -0.249117
5   -0.264539
6   -0.254165
7   -0.263553
8   -0.36774
9   -0.146075
10   0.112306
11   -0.07395
12   0.491978
13   -0.433745
14   -0.636525
15   -0.612978
16   0.140292
17   0.139023
18   0.144848
19   0.139245
20   0.130292
21   0.14212
22   0.155093
23   0.142952
24   0.16345
25   0.128952
26   0.128598
27   0.158116
28   0.12913
29   0.13167
30   0.128767
31   0.121118
32   0.128041
33   0.162995
34   0.177649
35   0.134454
36   0.108593
37   0.14305
38   0.129563
39   0.406347
40   0.430091

>  <lowdin_charges>
40
1   -0.445356
2   -0.446845
3   -0.455093
4   -0.269729
5   -0.281359
6   -0.275275
7   -0.280233
8   -0.316308
9   -0.203385
10   0.002794
11   -0.131767
12   0.122898
13   -0.212465
14   -0.465881
15   -0.383706
16   0.148937
17   0.14297
18   0.145993
19   0.147932
20   0.138573
21   0.143573
22   0.159506
23   0.152059
24   0.159638
25   0.139793
26   0.135683
27   0.154696
28   0.140211
29   0.136782
30   0.141746
31   0.135328
32   0.137491
33   0.165315
34   0.169398
35   0.140671
36   0.117976
37   0.136813
38   0.145
39   0.35479
40   0.350835

$$$$

