PCCDB-ID:  66328
public computational chemistry database (PCCDB) project, http://pccdb.org

 20 20  0  0  1  0  0  0  0  0999 V2000
    4.1255   -0.0221   -0.5243 C   0  0  0  0  0  0  0  0  0  0  0  0
    0.1717   -1.8574    2.9111 C   0  0  0  0  0  0  0  0  0  0  0  0
    1.6686   -2.2075    3.0777 C   0  0  0  0  0  0  0  0  0  0  0  0
    0.0824   -0.3771    3.3075 C   0  0  0  0  0  0  0  0  0  0  0  0
    2.4283   -0.9461    2.6296 C   0  0  2  0  0  0  0  0  0  0  0  0
    1.4338    0.2234    2.9170 C   0  0  0  0  0  0  0  0  0  0  0  0
    2.7461   -0.9504    1.1426 C   0  0  0  0  0  0  0  0  0  0  0  0
    1.7061    1.3972    2.8420 O   0  0  0  0  0  0  0  0  0  0  0  0
    2.1262   -1.5693    0.3020 O   0  0  0  0  0  0  0  0  0  0  0  0
    3.7932   -0.1513    0.8694 O   0  0  0  0  0  0  0  0  0  0  0  0
    4.9763    0.6585   -0.5577 H   0  0  0  0  0  0  0  0  0  0  0  0
    3.2805    0.3903   -1.0814 H   0  0  0  0  0  0  0  0  0  0  0  0
    4.3919   -0.9947   -0.9461 H   0  0  0  0  0  0  0  0  0  0  0  0
   -0.4753   -2.5006    3.5149 H   0  0  0  0  0  0  0  0  0  0  0  0
   -0.1125   -1.9837    1.8616 H   0  0  0  0  0  0  0  0  0  0  0  0
    1.9536   -3.0908    2.5010 H   0  0  0  0  0  0  0  0  0  0  0  0
    1.8945   -2.4044    4.1329 H   0  0  0  0  0  0  0  0  0  0  0  0
   -0.0239   -0.2580    4.3958 H   0  0  0  0  0  0  0  0  0  0  0  0
   -0.7329    0.1861    2.8436 H   0  0  0  0  0  0  0  0  0  0  0  0
    3.3534   -0.7482    3.1777 H   0  0  0  0  0  0  0  0  0  0  0  0
  1 10  1  0  0  0  0
  2  3  1  0  0  0  0
  2  4  1  0  0  0  0
  2 14  1  0  0  0  0
  3 17  1  0  0  0  0
  4 18  1  0  0  0  0
  5  6  1  0  0  0  0
  5  3  1  0  0  0  0
  5 20  1  1  0  0  0
  6  4  1  0  0  0  0
  7  5  1  0  0  0  0
  8  6  2  0  0  0  0
  9  7  2  0  0  0  0
 10  7  1  0  0  0  0
 11  1  1  0  0  0  0
 12  1  1  0  0  0  0
 13  1  1  0  0  0  0
 15  2  1  0  0  0  0
 16  3  1  0  0  0  0
 19  4  1  0  0  0  0
M  END
>  <HBA>
3

>  <HBD>
0

>  <TPSA>
43.37

>  <cid>
66328

>  <dipole>
1.6

>  <excitation_energy_1>
4.14

>  <excitation_energy_2>
5.477

>  <excitation_energy_3>
6.017

>  <excitation_energy_4>
6.274

>  <homo_energy>
-6.721

>  <homo_lumo_gap>
5.848

>  <logP>
0.529

>  <lumo_energy>
-0.873

>  <melting_point>
29.18

>  <molecular_refractivity>
35.13

>  <oscillator_strength_1>
0.0022

>  <oscillator_strength_2>
0.01

>  <oscillator_strength_3>
0.0375

>  <oscillator_strength_4>
0.0094

>  <open_babel_can_smiles>
COC(=O)[C@@H]1CCCC1=O

>  <mulliken_charges>
20
1   -0.219552
2   -0.288077
3   -0.280385
4   -0.351023
5   -0.264155
6   0.442857
7   0.625455
8   -0.426921
9   -0.47854
10   -0.437918
11   0.16955
12   0.174201
13   0.170757
14   0.144755
15   0.175737
16   0.164069
17   0.143162
18   0.173354
19   0.178057
20   0.184617

>  <lowdin_charges>
20
1   -0.277317
2   -0.28304
3   -0.275653
4   -0.310937
5   -0.190443
6   0.162178
7   0.199727
8   -0.209446
9   -0.26991
10   -0.179151
11   0.163922
12   0.162967
13   0.159767
14   0.152838
15   0.159648
16   0.16295
17   0.146913
18   0.169295
19   0.173976
20   0.181715

$$$$

