PCCDB-ID:  29594
public computational chemistry database (PCCDB) project, http://pccdb.org

 28 29  0  0  0  0  0  0  0  0999 V2000
    0.5114   -0.2706    0.2882 C   0  0  0  0  0  0  0  0  0  0  0  0
    8.9359   -1.3570   -2.5594 C   0  0  0  0  0  0  0  0  0  0  0  0
    8.7851   -2.7421   -2.4657 C   0  0  0  0  0  0  0  0  0  0  0  0
    8.1181   -0.5313   -1.7935 C   0  0  0  0  0  0  0  0  0  0  0  0
    7.8305   -3.2866   -1.6100 C   0  0  0  0  0  0  0  0  0  0  0  0
    2.6759   -0.9490   -0.8390 C   0  0  0  0  0  0  0  0  0  0  0  0
    2.7916    0.5321    1.0540 C   0  0  0  0  0  0  0  0  0  0  0  0
    4.0642   -0.9395   -0.9366 C   0  0  0  0  0  0  0  0  0  0  0  0
    4.1779    0.5597    0.9505 C   0  0  0  0  0  0  0  0  0  0  0  0
    2.0154   -0.2235    0.1629 C   0  0  0  0  0  0  0  0  0  0  0  0
    4.8346   -0.1864   -0.0392 C   0  0  0  0  0  0  0  0  0  0  0  0
    7.1237   -1.0521   -0.9525 C   0  0  0  0  0  0  0  0  0  0  0  0
    7.0028   -2.4513   -0.8502 C   0  0  0  0  0  0  0  0  0  0  0  0
    6.3201   -0.0664   -0.1441 C   0  0  0  0  0  0  0  0  0  0  0  0
    6.0896   -2.9611    0.0296 O   0  0  0  0  0  0  0  0  0  0  0  0
    6.9021    0.8801    0.3748 O   0  0  0  0  0  0  0  0  0  0  0  0
    0.1870   -1.1760    0.8188 H   0  0  0  0  0  0  0  0  0  0  0  0
    0.0264   -0.2827   -0.6942 H   0  0  0  0  0  0  0  0  0  0  0  0
    0.1282    0.5893    0.8469 H   0  0  0  0  0  0  0  0  0  0  0  0
    9.6860   -0.9277   -3.2164 H   0  0  0  0  0  0  0  0  0  0  0  0
    9.4161   -3.4047   -3.0519 H   0  0  0  0  0  0  0  0  0  0  0  0
    8.2312    0.5477   -1.8316 H   0  0  0  0  0  0  0  0  0  0  0  0
    7.7287   -4.3669   -1.5177 H   0  0  0  0  0  0  0  0  0  0  0  0
    2.0926   -1.5272   -1.5523 H   0  0  0  0  0  0  0  0  0  0  0  0
    2.2992    1.1091    1.8336 H   0  0  0  0  0  0  0  0  0  0  0  0
    4.5508   -1.5039   -1.7256 H   0  0  0  0  0  0  0  0  0  0  0  0
    4.7765    1.1610    1.6271 H   0  0  0  0  0  0  0  0  0  0  0  0
    6.1465   -3.9293    0.0158 H   0  0  0  0  0  0  0  0  0  0  0  0
  1 17  1  0  0  0  0
  1 19  1  0  0  0  0
  2  3  2  0  0  0  0
  2  4  1  0  0  0  0
  3  5  1  0  0  0  0
  4 12  2  0  0  0  0
  5 23  1  0  0  0  0
  5 13  2  0  0  0  0
  6 10  1  0  0  0  0
  7 25  1  0  0  0  0
  8  6  2  0  0  0  0
  8 11  1  0  0  0  0
  9  7  1  0  0  0  0
  9 27  1  0  0  0  0
 10  1  1  0  0  0  0
 10  7  2  0  0  0  0
 11  9  2  0  0  0  0
 12 13  1  0  0  0  0
 12 14  1  0  0  0  0
 13 15  1  0  0  0  0
 14 11  1  0  0  0  0
 14 16  2  0  0  0  0
 18  1  1  0  0  0  0
 20  2  1  0  0  0  0
 21  3  1  0  0  0  0
 22  4  1  0  0  0  0
 24  6  1  0  0  0  0
 26  8  1  0  0  0  0
 28 15  1  0  0  0  0
M  END
>  <HBA>
2

>  <HBD>
1

>  <TPSA>
37.3

>  <cid>
29594

>  <dipole>
4.21

>  <excitation_energy_1>
3.625

>  <excitation_energy_2>
4.026

>  <excitation_energy_3>
4.493

>  <excitation_energy_4>
4.547

>  <homo_energy>
-6.223

>  <homo_lumo_gap>
4.765

>  <logP>
2.932

>  <lumo_energy>
-1.459

>  <melting_point>
109.57

>  <molecular_refractivity>
63.31

>  <oscillator_strength_1>
0.004

>  <oscillator_strength_2>
0.0573

>  <oscillator_strength_3>
0.0349

>  <oscillator_strength_4>
0.2554

>  <open_babel_can_smiles>
Cc1ccc(cc1)C(=O)c1ccccc1O

>  <mulliken_charges>
28
1   -0.531386
2   -0.137742
3   -0.127236
4   -0.161382
5   -0.195235
6   -0.190227
7   -0.186852
8   -0.152978
9   -0.153889
10   0.185878
11   0.093542
12   0.035435
13   0.308623
14   0.324944
15   -0.635988
16   -0.465474
17   0.168398
18   0.160715
19   0.159377
20   0.133694
21   0.136462
22   0.155704
23   0.121217
24   0.122529
25   0.126191
26   0.137616
27   0.157684
28   0.41038

>  <lowdin_charges>
28
1   -0.443523
2   -0.178719
3   -0.137013
4   -0.120454
5   -0.213506
6   -0.173365
7   -0.170715
8   -0.136013
9   -0.127882
10   0.016232
11   -0.045838
12   -0.070181
13   0.10432
14   0.163724
15   -0.366261
16   -0.246315
17   0.164536
18   0.160077
19   0.160067
20   0.1623
21   0.162988
22   0.171106
23   0.152749
24   0.156134
25   0.1574
26   0.165207
27   0.175442
28   0.357502

$$$$

