PCCDB-ID:  13852
public computational chemistry database (PCCDB) project, http://pccdb.org

 12 12  0  0  0  0  0  0  0  0999 V2000
   -0.7507   -0.9617   -0.2284 C   0  0  0  0  0  0  0  0  0  0  0  0
    0.7273   -1.0544    0.1502 C   0  0  0  0  0  0  0  0  0  0  0  0
   -1.2908    0.3599    0.3450 C   0  0  0  0  0  0  0  0  0  0  0  0
    1.3458    0.3389    0.0119 C   0  0  0  0  0  0  0  0  0  0  0  0
    2.5146    0.5917   -0.1250 O   0  0  0  0  0  0  0  0  0  0  0  0
    0.0435    1.6056    0.1008 S   0  0  0  0  0  0  0  0  0  0  0  0
   -1.3280   -1.8123    0.1500 H   0  0  0  0  0  0  0  0  0  0  0  0
   -0.8509   -0.9504   -1.3197 H   0  0  0  0  0  0  0  0  0  0  0  0
    1.3027   -1.7547   -0.4618 H   0  0  0  0  0  0  0  0  0  0  0  0
    0.8506   -1.3560    1.2004 H   0  0  0  0  0  0  0  0  0  0  0  0
   -1.5103    0.2756    1.4142 H   0  0  0  0  0  0  0  0  0  0  0  0
   -2.1937    0.6983   -0.1683 H   0  0  0  0  0  0  0  0  0  0  0  0
  1  7  1  0  0  0  0
  1  2  1  0  0  0  0
  1  3  1  0  0  0  0
  2 10  1  0  0  0  0
  3 11  1  0  0  0  0
  4  6  1  0  0  0  0
  4  2  1  0  0  0  0
  5  4  2  0  0  0  0
  6  3  1  0  0  0  0
  8  1  1  0  0  0  0
  9  2  1  0  0  0  0
 12  3  1  0  0  0  0
M  END
>  <HBA>
2

>  <HBD>
0

>  <TPSA>
42.37

>  <cid>
13852

>  <dipole>
4.1

>  <excitation_energy_1>
4.7

>  <excitation_energy_2>
5.443

>  <excitation_energy_3>
5.696

>  <excitation_energy_4>
6.24

>  <homo_energy>
-6.822

>  <homo_lumo_gap>
6.373

>  <logP>
1.04

>  <lumo_energy>
-0.449

>  <melting_point>
27.7

>  <molecular_refractivity>
27.02

>  <oscillator_strength_1>
0.0001

>  <oscillator_strength_2>
0.0331

>  <oscillator_strength_3>
0.0105

>  <oscillator_strength_4>
0.0438

>  <open_babel_can_smiles>
O=C1CCCS1

>  <mulliken_charges>
12
1   -0.28691
2   -0.327114
3   -0.430943
4   0.279575
5   -0.419714
6   0.123608
7   0.158256
8   0.168108
9   0.184537
10   0.181221
11   0.183303
12   0.186073

>  <lowdin_charges>
12
1   -0.278284
2   -0.304241
3   -0.373601
4   0.043048
5   -0.216924
6   0.134205
7   0.158967
8   0.155969
9   0.17704
10   0.171922
11   0.159968
12   0.171931

$$$$

