PCCDB-ID:  30350
public computational chemistry database (PCCDB) project, http://pccdb.org

 22 23  0  0  0  0  0  0  0  0999 V2000
    0.9790   -0.1179   -0.0377 C   0  0  0  0  0  0  0  0  0  0  0  0
    6.8905   -0.1095   -0.0624 C   0  0  0  0  0  0  0  0  0  0  0  0
    3.2184    1.0897   -0.0434 C   0  0  0  0  0  0  0  0  0  0  0  0
    4.6253    1.0837   -0.0491 C   0  0  0  0  0  0  0  0  0  0  0  0
    4.1477   -3.4818   -0.0604 C   0  0  0  0  0  0  0  0  0  0  0  0
    2.4847   -0.0953   -0.0445 C   0  0  0  0  0  0  0  0  0  0  0  0
    5.3848   -0.0881   -0.0564 C   0  0  0  0  0  0  0  0  0  0  0  0
    2.8245   -2.6928   -0.0525 C   0  0  0  0  0  0  0  0  0  0  0  0
    3.2356   -1.2880   -0.0515 C   0  0  0  0  0  0  0  0  0  0  0  0
    4.6341   -1.2696   -0.0572 C   0  0  0  0  0  0  0  0  0  0  0  0
    1.7116   -3.1912   -0.0483 O   0  0  0  0  0  0  0  0  0  0  0  0
    5.2086   -2.5082   -0.0626 O   0  0  0  0  0  0  0  0  0  0  0  0
    0.5726    0.8979   -0.0294 H   0  0  0  0  0  0  0  0  0  0  0  0
    0.5951   -0.6564    0.8359 H   0  0  0  0  0  0  0  0  0  0  0  0
    0.5870   -0.6450   -0.9148 H   0  0  0  0  0  0  0  0  0  0  0  0
    7.2961    0.9065   -0.0647 H   0  0  0  0  0  0  0  0  0  0  0  0
    7.2786   -0.6351   -0.9433 H   0  0  0  0  0  0  0  0  0  0  0  0
    7.2858   -0.6338    0.8161 H   0  0  0  0  0  0  0  0  0  0  0  0
    2.6948    2.0420   -0.0381 H   0  0  0  0  0  0  0  0  0  0  0  0
    5.1496    2.0370   -0.0468 H   0  0  0  0  0  0  0  0  0  0  0  0
    4.2345   -4.1088   -0.9539 H   0  0  0  0  0  0  0  0  0  0  0  0
    4.2426   -4.1135    0.8290 H   0  0  0  0  0  0  0  0  0  0  0  0
  1 13  1  0  0  0  0
  1 14  1  0  0  0  0
  2  7  1  0  0  0  0
  2 18  1  0  0  0  0
  3 19  1  0  0  0  0
  4 20  1  0  0  0  0
  4  3  2  0  0  0  0
  5  8  1  0  0  0  0
  5 22  1  0  0  0  0
  6  3  1  0  0  0  0
  6  1  1  0  0  0  0
  7  4  1  0  0  0  0
  8  9  1  0  0  0  0
  8 11  2  0  0  0  0
  9  6  2  0  0  0  0
 10  7  2  0  0  0  0
 10  9  1  0  0  0  0
 12  5  1  0  0  0  0
 12 10  1  0  0  0  0
 15  1  1  0  0  0  0
 16  2  1  0  0  0  0
 17  2  1  0  0  0  0
 21  5  1  0  0  0  0
M  END
>  <HBA>
2

>  <HBD>
0

>  <TPSA>
26.3

>  <cid>
30350

>  <dipole>
2.38

>  <excitation_energy_1>
3.784

>  <excitation_energy_2>
3.975

>  <excitation_energy_3>
4.924

>  <excitation_energy_4>
5.722

>  <homo_energy>
-6.155

>  <homo_lumo_gap>
4.648

>  <logP>
1.879

>  <lumo_energy>
-1.508

>  <melting_point>
77.24

>  <molecular_refractivity>
46.14

>  <oscillator_strength_1>
0.0001

>  <oscillator_strength_2>
0.0845

>  <oscillator_strength_3>
0.1506

>  <oscillator_strength_4>
0.0002

>  <open_babel_can_smiles>
Cc1ccc(c2c1OCC2=O)C

>  <mulliken_charges>
22
1   -0.513689
2   -0.518763
3   -0.195344
4   -0.18348
5   -0.116547
6   0.12633
7   0.136781
8   0.348502
9   0.034364
10   0.254582
11   -0.48401
12   -0.524599
13   0.147967
14   0.178856
15   0.178661
16   0.153981
17   0.170695
18   0.170668
19   0.126609
20   0.131246
21   0.188594
22   0.188596

>  <lowdin_charges>
22
1   -0.438464
2   -0.436862
3   -0.188577
4   -0.135561
5   -0.15385
6   0.033751
7   -0.034701
8   0.132933
9   -0.100871
10   0.110193
11   -0.250951
12   -0.196201
13   0.153772
14   0.173047
15   0.172934
16   0.157574
17   0.166346
18   0.166333
19   0.1584
20   0.160207
21   0.17526
22   0.175287

$$$$

