PCCDB-ID:  12226
public computational chemistry database (PCCDB) project, http://pccdb.org

  9  8  0  0  0  0  0  0  0  0999 V2000
    1.0613   -0.0122    0.0610 C   0  0  0  0  0  0  0  0  0  0  0  0
    3.5253    1.7684   -1.6129 C   0  0  0  0  0  0  0  0  0  0  0  0
    2.5926   -0.0043    0.0532 C   0  0  0  0  0  0  0  0  0  0  0  0
    3.1161    0.9635   -0.8566 N   0  0  0  0  0  0  0  0  0  0  0  0
    0.7015   -0.7651    0.7698 H   0  0  0  0  0  0  0  0  0  0  0  0
    0.6697   -0.2520   -0.9319 H   0  0  0  0  0  0  0  0  0  0  0  0
    0.6700    0.9645    0.3604 H   0  0  0  0  0  0  0  0  0  0  0  0
    2.9827   -0.9875   -0.2337 H   0  0  0  0  0  0  0  0  0  0  0  0
    2.9828    0.2215    1.0522 H   0  0  0  0  0  0  0  0  0  0  0  0
  1  7  1  0  0  0  0
  1  5  1  0  0  0  0
  2  4  3  0  0  0  0
  3  1  1  0  0  0  0
  3  9  1  0  0  0  0
  4  3  1  0  0  0  0
  6  1  1  0  0  0  0
  8  3  1  0  0  0  0
M  RAD  1   2   2
M  END
>  <HBA>
0

>  <HBD>
0

>  <TPSA>
0.0

>  <cid>
12226

>  <dipole>
3.72

>  <excitation_energy_1>
7.534

>  <excitation_energy_2>
7.696

>  <excitation_energy_3>
7.819

>  <excitation_energy_4>
7.895

>  <homo_energy>
-7.965

>  <homo_lumo_gap>
8.944

>  <logP>
0.156

>  <lumo_energy>
0.98

>  <melting_point>
21.6

>  <molecular_refractivity>
16.05

>  <oscillator_strength_1>
0.0219

>  <oscillator_strength_2>
0.0003

>  <oscillator_strength_3>
0.0875

>  <oscillator_strength_4>
0.0138

>  <open_babel_can_smiles>
CC[N]#[C]

>  <mulliken_charges>
9
1   -0.445113
2   -0.066835
3   -0.160453
4   -0.19779
5   0.158472
6   0.172182
7   0.172203
8   0.183666
9   0.183667

>  <lowdin_charges>
9
1   -0.442163
2   -0.115257
3   -0.188012
4   -0.079425
5   0.161733
6   0.163629
7   0.163836
8   0.167941
9   0.167718

$$$$

