PCCDB-ID:  8419
public computational chemistry database (PCCDB) project, http://pccdb.org

 22 22  0  0  0  0  0  0  0  0999 V2000
    2.4820   -2.8257    0.0624 C   0  0  0  0  0  0  0  0  0  0  0  0
    2.0799    1.3813   -0.8909 C   0  0  0  0  0  0  0  0  0  0  0  0
    3.9392   -2.2008   -3.8544 C   0  0  0  0  0  0  0  0  0  0  0  0
    3.4341   -2.4420   -2.5810 C   0  0  0  0  0  0  0  0  0  0  0  0
    4.0479    0.1650   -3.3638 C   0  0  0  0  0  0  0  0  0  0  0  0
    4.7970   -0.6384   -5.6035 C   0  0  0  0  0  0  0  0  0  0  0  0
    4.2565   -0.8984   -4.2564 C   0  0  0  0  0  0  0  0  0  0  0  0
    3.2368   -1.3795   -1.6858 C   0  0  0  0  0  0  0  0  0  0  0  0
    3.5419   -0.0563   -2.0908 C   0  0  0  0  0  0  0  0  0  0  0  0
    5.0009   -1.4906   -6.4494 O   0  0  0  0  0  0  0  0  0  0  0  0
    2.7689   -1.5180   -0.4179 O   0  0  0  0  0  0  0  0  0  0  0  0
    3.4178    1.0014   -1.2254 O   0  0  0  0  0  0  0  0  0  0  0  0
    2.1434   -2.6948    1.0912 H   0  0  0  0  0  0  0  0  0  0  0  0
    3.3768   -3.4601    0.0508 H   0  0  0  0  0  0  0  0  0  0  0  0
    1.6885   -3.3046   -0.5250 H   0  0  0  0  0  0  0  0  0  0  0  0
    1.5523    0.5769   -0.3693 H   0  0  0  0  0  0  0  0  0  0  0  0
    1.5193    1.6668   -1.7909 H   0  0  0  0  0  0  0  0  0  0  0  0
    2.1700    2.2471   -0.2313 H   0  0  0  0  0  0  0  0  0  0  0  0
    4.0992   -3.0160   -4.5530 H   0  0  0  0  0  0  0  0  0  0  0  0
    3.2009   -3.4574   -2.2820 H   0  0  0  0  0  0  0  0  0  0  0  0
    4.2889    1.1861   -3.6489 H   0  0  0  0  0  0  0  0  0  0  0  0
    5.0178    0.4326   -5.8135 H   0  0  0  0  0  0  0  0  0  0  0  0
  1 13  1  0  0  0  0
  2 16  1  0  0  0  0
  2 18  1  0  0  0  0
  3  4  1  0  0  0  0
  4 20  1  0  0  0  0
  4  8  2  0  0  0  0
  5  9  2  0  0  0  0
  6  7  1  0  0  0  0
  7  3  2  0  0  0  0
  7  5  1  0  0  0  0
  8 11  1  0  0  0  0
  9  8  1  0  0  0  0
  9 12  1  0  0  0  0
 10  6  2  0  0  0  0
 11  1  1  0  0  0  0
 12  2  1  0  0  0  0
 14  1  1  0  0  0  0
 15  1  1  0  0  0  0
 17  2  1  0  0  0  0
 19  3  1  0  0  0  0
 21  5  1  0  0  0  0
 22  6  1  0  0  0  0
M  END
>  <HBA>
3

>  <HBD>
0

>  <TPSA>
35.53

>  <cid>
8419

>  <dipole>
4.6

>  <excitation_energy_1>
3.766

>  <excitation_energy_2>
4.369

>  <excitation_energy_3>
4.708

>  <excitation_energy_4>
5.375

>  <homo_energy>
-6.196

>  <homo_lumo_gap>
4.781

>  <logP>
1.516

>  <lumo_energy>
-1.415

>  <melting_point>
49.3

>  <molecular_refractivity>
44.81

>  <oscillator_strength_1>
0.0003

>  <oscillator_strength_2>
0.154

>  <oscillator_strength_3>
0.119

>  <oscillator_strength_4>
0.0748

>  <open_babel_can_smiles>
COc1cc(C=O)ccc1OC

>  <mulliken_charges>
22
1   -0.221832
2   -0.212772
3   -0.166526
4   -0.204207
5   -0.232948
6   0.189948
7   0.094684
8   0.359247
9   0.316209
10   -0.417743
11   -0.499374
12   -0.519816
13   0.177315
14   0.162605
15   0.159003
16   0.161772
17   0.141622
18   0.163153
19   0.162094
20   0.143196
21   0.145198
22   0.099173

>  <lowdin_charges>
22
1   -0.277155
2   -0.276746
3   -0.125231
4   -0.20624
5   -0.156747
6   0.047511
7   -0.06938
8   0.095138
9   0.068637
10   -0.239457
11   -0.183573
12   -0.222042
13   0.16584
14   0.152265
15   0.150449
16   0.150747
17   0.140617
18   0.158942
19   0.177254
20   0.166363
21   0.169584
22   0.113224

$$$$

