PCCDB-ID:  69848
public computational chemistry database (PCCDB) project, http://pccdb.org

 22 22  0  0  0  0  0  0  0  0999 V2000
    0.8508    0.1014    0.1334 C   0  0  0  0  0  0  0  0  0  0  0  0
    2.3389    0.1268   -2.6116 C   0  0  0  0  0  0  0  0  0  0  0  0
    2.3356    0.1200   -0.0899 C   0  0  0  0  0  0  0  0  0  0  0  0
    7.3323    0.1415   -1.2511 C   0  0  0  0  0  0  0  0  0  0  0  0
    6.6227    0.7970   -2.2576 C   0  0  0  0  0  0  0  0  0  0  0  0
    6.6301   -0.5367   -0.2526 C   0  0  0  0  0  0  0  0  0  0  0  0
    5.2279    0.7795   -2.2624 C   0  0  0  0  0  0  0  0  0  0  0  0
    5.2370   -0.5526   -0.2592 C   0  0  0  0  0  0  0  0  0  0  0  0
    3.0114    0.1144   -1.2554 C   0  0  0  0  0  0  0  0  0  0  0  0
    4.5029    0.1178   -1.2552 C   0  0  0  0  0  0  0  0  0  0  0  0
    0.5666   -0.7430    0.7766 H   0  0  0  0  0  0  0  0  0  0  0  0
    0.2707    0.0278   -0.7897 H   0  0  0  0  0  0  0  0  0  0  0  0
    0.5255    1.0111    0.6574 H   0  0  0  0  0  0  0  0  0  0  0  0
    1.2702   -0.0869   -2.5468 H   0  0  0  0  0  0  0  0  0  0  0  0
    2.7927   -0.6141   -3.2802 H   0  0  0  0  0  0  0  0  0  0  0  0
    2.4424    1.1035   -3.1032 H   0  0  0  0  0  0  0  0  0  0  0  0
    2.9220    0.1636    0.8273 H   0  0  0  0  0  0  0  0  0  0  0  0
    8.4190    0.1494   -1.2498 H   0  0  0  0  0  0  0  0  0  0  0  0
    7.1549    1.3261   -3.0441 H   0  0  0  0  0  0  0  0  0  0  0  0
    7.1694   -1.0688    0.5271 H   0  0  0  0  0  0  0  0  0  0  0  0
    4.6983    1.3031   -3.0525 H   0  0  0  0  0  0  0  0  0  0  0  0
    4.7057   -1.1151    0.5029 H   0  0  0  0  0  0  0  0  0  0  0  0
  1 13  1  0  0  0  0
  1 11  1  0  0  0  0
  2 14  1  0  0  0  0
  2  9  1  0  0  0  0
  3  1  1  0  0  0  0
  3 17  1  0  0  0  0
  4 18  1  0  0  0  0
  4  6  2  0  0  0  0
  5  4  1  0  0  0  0
  6 20  1  0  0  0  0
  7  5  2  0  0  0  0
  7 10  1  0  0  0  0
  8  6  1  0  0  0  0
  8 22  1  0  0  0  0
  9 10  1  0  0  0  0
  9  3  2  0  0  0  0
 10  8  2  0  0  0  0
 12  1  1  0  0  0  0
 15  2  1  0  0  0  0
 16  2  1  0  0  0  0
 19  5  1  0  0  0  0
 21  7  1  0  0  0  0
M  END
>  <HBA>
0

>  <HBD>
0

>  <TPSA>
0.0

>  <cid>
69848

>  <dipole>
0.47

>  <excitation_energy_1>
4.855

>  <excitation_energy_2>
4.943

>  <excitation_energy_3>
5.391

>  <excitation_energy_4>
5.675

>  <homo_energy>
-5.802

>  <homo_lumo_gap>
5.418

>  <logP>
3.11

>  <lumo_energy>
-0.384

>  <melting_point>
18.02

>  <molecular_refractivity>
46.15

>  <oscillator_strength_1>
0.0276

>  <oscillator_strength_2>
0.3294

>  <oscillator_strength_3>
0.0008

>  <oscillator_strength_4>
0.0868

>  <open_babel_can_smiles>
C/C=C(/c1ccccc1)\C

>  <mulliken_charges>
22
1   -0.491582
2   -0.526137
3   -0.154054
4   -0.129716
5   -0.130451
6   -0.131701
7   -0.183981
8   -0.179975
9   0.118192
10   0.110037
11   0.155732
12   0.153956
13   0.158238
14   0.154103
15   0.161052
16   0.159207
17   0.125685
18   0.126432
19   0.126828
20   0.126919
21   0.123271
22   0.127946

>  <lowdin_charges>
22
1   -0.443879
2   -0.44391
3   -0.173214
4   -0.159196
5   -0.157249
6   -0.157799
7   -0.167951
8   -0.163801
9   -0.016046
10   -0.000417
11   0.158392
12   0.154352
13   0.159311
14   0.15562
15   0.160501
16   0.157111
17   0.152641
18   0.154271
19   0.157303
20   0.157516
21   0.157556
22   0.158888

$$$$

