PCCDB-ID:  56236
public computational chemistry database (PCCDB) project, http://pccdb.org

 31 31  0  0  1  0  0  0  0  0999 V2000
    0.7766   -0.2199    0.1428 C   0  0  0  0  0  0  0  0  0  0  0  0
    3.3010    2.0481    3.7651 C   0  0  0  0  0  0  0  0  0  0  0  0
    3.3093    4.4395   -4.7376 C   0  0  0  0  0  0  0  0  0  0  0  0
    2.2696    2.2862   -1.2465 C   0  0  0  0  0  0  0  0  0  0  0  0
    3.3596    0.3670   -2.1869 C   0  0  0  0  0  0  0  0  0  0  0  0
    2.5926    3.0386   -2.3786 C   0  0  0  0  0  0  0  0  0  0  0  0
    3.6843    1.0971   -3.3241 C   0  0  0  0  0  0  0  0  0  0  0  0
    2.2703    0.1256    0.0962 C   0  0  1  0  0  0  0  0  0  0  0  0
    2.8693    0.6194    3.5576 C   0  0  0  0  0  0  0  0  0  0  0  0
    2.6430    0.9433   -1.1275 C   0  0  0  0  0  0  0  0  0  0  0  0
    3.3025    2.4418   -3.4274 C   0  0  0  0  0  0  0  0  0  0  0  0
    2.6350    0.8946    1.3061 N   0  0  0  0  0  0  0  0  0  0  0  0
    2.5561    0.0688    2.4520 N   0  0  0  0  0  0  0  0  0  0  0  0
    2.8297   -0.1921    4.6603 O   0  0  0  0  0  0  0  0  0  0  0  0
    3.6711    3.0781   -4.5798 O   0  0  0  0  0  0  0  0  0  0  0  0
    0.4995   -0.8268   -0.7258 H   0  0  0  0  0  0  0  0  0  0  0  0
    0.1705    0.6927    0.1368 H   0  0  0  0  0  0  0  0  0  0  0  0
    0.5534   -0.7823    1.0541 H   0  0  0  0  0  0  0  0  0  0  0  0
    2.8869    2.6705    2.9668 H   0  0  0  0  0  0  0  0  0  0  0  0
    4.3945    2.1486    3.7479 H   0  0  0  0  0  0  0  0  0  0  0  0
    2.9479    2.4323    4.7300 H   0  0  0  0  0  0  0  0  0  0  0  0
    3.6958    4.7416   -5.7130 H   0  0  0  0  0  0  0  0  0  0  0  0
    3.7585    5.0713   -3.9595 H   0  0  0  0  0  0  0  0  0  0  0  0
    2.2193    4.5733   -4.7235 H   0  0  0  0  0  0  0  0  0  0  0  0
    1.7217    2.7570   -0.4352 H   0  0  0  0  0  0  0  0  0  0  0  0
    3.6687   -0.6738   -2.1188 H   0  0  0  0  0  0  0  0  0  0  0  0
    2.2880    4.0779   -2.4313 H   0  0  0  0  0  0  0  0  0  0  0  0
    4.2385    0.6500   -4.1437 H   0  0  0  0  0  0  0  0  0  0  0  0
    2.8359   -0.8197    0.0687 H   0  0  0  0  0  0  0  0  0  0  0  0
    3.5908    1.2343    1.1848 H   0  0  0  0  0  0  0  0  0  0  0  0
    2.9881    0.3483    5.4479 H   0  0  0  0  0  0  0  0  0  0  0  0
  1 18  1  0  0  0  0
  2 21  1  0  0  0  0
  3 24  1  0  0  0  0
  3 15  1  0  0  0  0
  3 23  1  0  0  0  0
  4 10  1  0  0  0  0
  4 25  1  0  0  0  0
  5 26  1  0  0  0  0
  5 10  2  0  0  0  0
  6  4  2  0  0  0  0
  7  5  1  0  0  0  0
  8 29  1  6  0  0  0
  8  1  1  0  0  0  0
  8 12  1  0  0  0  0
  9  2  1  0  0  0  0
  9 14  1  0  0  0  0
 10  8  1  0  0  0  0
 11  7  2  0  0  0  0
 11  6  1  0  0  0  0
 12 13  1  0  0  0  0
 13  9  2  0  0  0  0
 14 31  1  0  0  0  0
 15 11  1  0  0  0  0
 16  1  1  0  0  0  0
 17  1  1  0  0  0  0
 19  2  1  0  0  0  0
 20  2  1  0  0  0  0
 22  3  1  0  0  0  0
 27  6  1  0  0  0  0
 28  7  1  0  0  0  0
 30 12  1  0  0  0  0
M  END
>  <HBA>
4

>  <HBD>
2

>  <TPSA>
50.36

>  <cid>
56236

>  <dipole>
4.11

>  <excitation_energy_1>
4.674

>  <excitation_energy_2>
4.707

>  <excitation_energy_3>
4.944

>  <excitation_energy_4>
5.015

>  <homo_energy>
-5.382

>  <homo_lumo_gap>
5.461

>  <logP>
2.179

>  <lumo_energy>
0.079

>  <melting_point>
87.02

>  <molecular_refractivity>
58.12

>  <oscillator_strength_1>
0.0113

>  <oscillator_strength_2>
0.0089

>  <oscillator_strength_3>
0.0148

>  <oscillator_strength_4>
0.0276

>  <open_babel_can_smiles>
COc1ccc(cc1)[C@@H](N/N=C(/O)\C)C

>  <mulliken_charges>
31
1   -0.434476
2   -0.559164
3   -0.213485
4   -0.183395
5   -0.19418
6   -0.196733
7   -0.173352
8   0.00233
9   0.497377
10   0.123181
11   0.374908
12   -0.467523
13   -0.302018
14   -0.584514
15   -0.507651
16   0.139435
17   0.142792
18   0.171355
19   0.200401
20   0.178002
21   0.151993
22   0.168499
23   0.149673
24   0.151606
25   0.140391
26   0.128074
27   0.128641
28   0.135982
29   0.125487
30   0.30284
31   0.403522

>  <lowdin_charges>
31
1   -0.448105
2   -0.481889
3   -0.275664
4   -0.154015
5   -0.154808
6   -0.21319
7   -0.184311
8   -0.055615
9   0.104329
10   -0.033853
11   0.099464
12   -0.280284
13   -0.155099
14   -0.372824
15   -0.201051
16   0.151119
17   0.149748
18   0.164008
19   0.182542
20   0.168146
21   0.15901
22   0.161808
23   0.145
24   0.14266
25   0.163612
26   0.155634
27   0.159267
28   0.166658
29   0.132424
30   0.250368
31   0.354911

$$$$

