PCCDB-ID:  49246
public computational chemistry database (PCCDB) project, http://pccdb.org

 29 29  0  0  1  0  0  0  0  0999 V2000
    4.1335   -1.7395   -3.4869 C   0  0  0  0  0  0  0  0  0  0  0  0
    4.8359   -1.2940    3.2619 C   0  0  0  0  0  0  0  0  0  0  0  0
    4.1510   -1.3143   -2.0154 C   0  0  0  0  0  0  0  0  0  0  0  0
    5.2589   -2.4908    2.8394 C   0  0  0  0  0  0  0  0  0  0  0  0
    4.7163   -2.4030   -1.0917 C   0  0  0  0  0  0  0  0  0  0  0  0
    4.7258   -1.9601    0.3776 C   0  0  0  0  0  0  0  0  0  0  0  0
    6.7122   -3.3863    1.0336 C   0  0  0  0  0  0  0  0  0  0  0  0
    4.4470   -4.2899    1.3293 C   0  0  0  0  0  0  0  0  0  0  0  0
    6.0629   -5.4035    0.0991 C   0  0  0  0  0  0  0  0  0  0  0  0
    5.2760   -3.0035    1.4045 C   0  0  1  0  0  0  0  0  0  0  0  0
    7.0653   -4.4550    0.4428 N   0  0  0  0  0  0  0  0  0  0  0  0
    4.7935   -5.3612    0.7392 N   0  0  0  0  0  0  0  0  0  0  0  0
    7.6614   -2.4761    1.3315 O   0  0  0  0  0  0  0  0  0  0  0  0
    3.2309   -4.2430    1.9095 O   0  0  0  0  0  0  0  0  0  0  0  0
    6.3019   -6.2683   -0.7111 O   0  0  0  0  0  0  0  0  0  0  0  0
    3.7241   -0.9469   -4.1229 H   0  0  0  0  0  0  0  0  0  0  0  0
    3.5199   -2.6363   -3.6323 H   0  0  0  0  0  0  0  0  0  0  0  0
    5.1439   -1.9682   -3.8454 H   0  0  0  0  0  0  0  0  0  0  0  0
    4.8705   -1.0359    4.3165 H   0  0  0  0  0  0  0  0  0  0  0  0
    4.4453   -0.5338    2.5922 H   0  0  0  0  0  0  0  0  0  0  0  0
    3.1309   -1.0582   -1.6951 H   0  0  0  0  0  0  0  0  0  0  0  0
    4.7465   -0.3968   -1.9049 H   0  0  0  0  0  0  0  0  0  0  0  0
    5.6382   -3.2028    3.5735 H   0  0  0  0  0  0  0  0  0  0  0  0
    5.7343   -2.6564   -1.4134 H   0  0  0  0  0  0  0  0  0  0  0  0
    4.1196   -3.3170   -1.2038 H   0  0  0  0  0  0  0  0  0  0  0  0
    3.7043   -1.6962    0.6807 H   0  0  0  0  0  0  0  0  0  0  0  0
    5.3243   -1.0449    0.4736 H   0  0  0  0  0  0  0  0  0  0  0  0
    7.2668   -1.7660    1.8681 H   0  0  0  0  0  0  0  0  0  0  0  0
    3.1451   -3.4097    2.4058 H   0  0  0  0  0  0  0  0  0  0  0  0
  1  3  1  0  0  0  0
  2 19  1  0  0  0  0
  3 22  1  0  0  0  0
  3 21  1  0  0  0  0
  3  5  1  0  0  0  0
  4  2  2  0  0  0  0
  4 23  1  0  0  0  0
  5  6  1  0  0  0  0
  6 27  1  0  0  0  0
  6 26  1  0  0  0  0
  6 10  1  0  0  0  0
  7 13  1  0  0  0  0
  7 10  1  0  0  0  0
  8 10  1  0  0  0  0
  8 14  1  0  0  0  0
  9 11  2  0  0  0  0
  9 12  1  0  0  0  0
 10  4  1  1  0  0  0
 11  7  2  0  0  0  0
 12  8  2  0  0  0  0
 13 28  1  0  0  0  0
 14 29  1  0  0  0  0
 15  9  2  0  0  0  0
 16  1  1  0  0  0  0
 17  1  1  0  0  0  0
 18  1  1  0  0  0  0
 20  2  1  0  0  0  0
 24  5  1  0  0  0  0
 25  5  1  0  0  0  0
M  END
>  <HBA>
5

>  <HBD>
2

>  <TPSA>
75.27

>  <cid>
49246

>  <dipole>
9.78

>  <excitation_energy_1>
4.012

>  <excitation_energy_2>
4.257

>  <excitation_energy_3>
4.845

>  <excitation_energy_4>
5.131

>  <homo_energy>
-6.909

>  <homo_lumo_gap>
5.391

>  <logP>
1.373

>  <lumo_energy>
-1.518

>  <melting_point>
120.31

>  <molecular_refractivity>
61.76

>  <oscillator_strength_1>
0.0007

>  <oscillator_strength_2>
0.0003

>  <oscillator_strength_3>
0.0425

>  <oscillator_strength_4>
0.0054

>  <open_babel_can_smiles>
CCCC[C@@]1(C=C)C(=N[C](=[N]=C1O)=O)O

>  <mulliken_charges>
29
1   -0.445065
2   -0.341679
3   -0.253255
4   -0.151882
5   -0.282796
6   -0.27068
7   0.544111
8   0.543687
9   0.61667
10   -0.16194
11   -0.463471
12   -0.463455
13   -0.573678
14   -0.573466
15   -0.428461
16   0.146604
17   0.153584
18   0.15342
19   0.17575
20   0.17094
21   0.133078
22   0.132941
23   0.177688
24   0.16774
25   0.167831
26   0.14627
27   0.146245
28   0.416634
29   0.416633

>  <lowdin_charges>
29
1   -0.444059
2   -0.325758
3   -0.269534
4   -0.180275
5   -0.285179
6   -0.267204
7   0.144286
8   0.145145
9   0.173544
10   -0.060675
11   -0.182036
12   -0.181642
13   -0.327586
14   -0.327584
15   -0.208097
16   0.153585
17   0.153198
18   0.152239
19   0.17641
20   0.17217
21   0.138703
22   0.139523
23   0.175495
24   0.157012
25   0.157939
26   0.147874
27   0.148779
28   0.362673
29   0.361054

$$$$

