PCCDB-ID:  24106
public computational chemistry database (PCCDB) project, http://pccdb.org

 30 31  0  0  1  0  0  0  0  0999 V2000
    0.7366   -0.0677   -0.1501 C   0  0  0  0  0  0  0  0  0  0  0  0
    2.5769   -0.1232    1.4852 C   0  0  0  0  0  0  0  0  0  0  0  0
    2.5264    2.6249   -0.3054 C   0  0  0  0  0  0  0  0  0  0  0  0
    2.6248   -0.6305   -2.3451 C   0  0  0  0  0  0  0  0  0  0  0  0
    2.5561    0.9241   -2.2431 C   0  0  0  0  0  0  0  0  0  0  0  0
    4.5023   -0.6622   -0.7128 C   0  0  0  0  0  0  0  0  0  0  0  0
    5.8764    3.0952    0.1410 C   0  0  0  0  0  0  0  0  0  0  0  0
    3.0188   -1.0485   -0.9089 C   0  0  1  0  0  0  0  0  0  0  0  0
    4.4549    0.8959   -0.7131 C   0  0  1  0  0  0  0  0  0  0  0  0
    2.2718   -0.0060   -0.0205 C   0  0  0  0  0  0  0  0  0  0  0  0
    2.9262    1.2271   -0.7557 C   0  0  1  0  0  0  0  0  0  0  0  0
    6.1855    4.1542   -0.2401 N   0  0  0  0  0  0  0  0  0  0  0  0
    5.4561    1.5578    0.7307 S   0  0  0  0  0  0  0  0  0  0  0  0
    0.3680   -1.0220    0.2448 H   0  0  0  0  0  0  0  0  0  0  0  0
    0.3689    0.0258   -1.1741 H   0  0  0  0  0  0  0  0  0  0  0  0
    0.2681    0.7282    0.4409 H   0  0  0  0  0  0  0  0  0  0  0  0
    2.1019   -1.0254    1.8896 H   0  0  0  0  0  0  0  0  0  0  0  0
    2.1657    0.7328    2.0322 H   0  0  0  0  0  0  0  0  0  0  0  0
    3.6386   -0.1807    1.7317 H   0  0  0  0  0  0  0  0  0  0  0  0
    3.0423    3.3939   -0.8919 H   0  0  0  0  0  0  0  0  0  0  0  0
    2.7653    2.8015    0.7482 H   0  0  0  0  0  0  0  0  0  0  0  0
    1.4491    2.7770   -0.4374 H   0  0  0  0  0  0  0  0  0  0  0  0
    3.3623   -0.9723   -3.0794 H   0  0  0  0  0  0  0  0  0  0  0  0
    1.6621   -1.0585   -2.6407 H   0  0  0  0  0  0  0  0  0  0  0  0
    1.5530    1.3011   -2.4666 H   0  0  0  0  0  0  0  0  0  0  0  0
    3.2384    1.4279   -2.9366 H   0  0  0  0  0  0  0  0  0  0  0  0
    5.1469   -1.0422   -1.5117 H   0  0  0  0  0  0  0  0  0  0  0  0
    4.8985   -1.0607    0.2263 H   0  0  0  0  0  0  0  0  0  0  0  0
    2.8135   -2.0985   -0.6760 H   0  0  0  0  0  0  0  0  0  0  0  0
    4.9596    1.3166   -1.5841 H   0  0  0  0  0  0  0  0  0  0  0  0
  1 10  1  0  0  0  0
  1 14  1  0  0  0  0
  1 16  1  0  0  0  0
  2 19  1  0  0  0  0
  2 17  1  0  0  0  0
  2 18  1  0  0  0  0
  3 21  1  0  0  0  0
  4  5  1  0  0  0  0
  4  8  1  0  0  0  0
  5 11  1  0  0  0  0
  6 28  1  0  0  0  0
  7 13  1  0  0  0  0
  8  6  1  0  0  0  0
  8 29  1  1  0  0  0
  8 10  1  0  0  0  0
  9 30  1  6  0  0  0
  9  6  1  0  0  0  0
  9 13  1  0  0  0  0
 10  2  1  0  0  0  0
 11  9  1  0  0  0  0
 11  3  1  1  0  0  0
 11 10  1  0  0  0  0
 12  7  3  0  0  0  0
 15  1  1  0  0  0  0
 20  3  1  0  0  0  0
 22  3  1  0  0  0  0
 23  4  1  0  0  0  0
 24  4  1  0  0  0  0
 25  5  1  0  0  0  0
 26  5  1  0  0  0  0
 27  6  1  0  0  0  0
M  END
>  <HBA>
2

>  <HBD>
0

>  <TPSA>
49.09

>  <cid>
24106

>  <dipole>
4.92

>  <excitation_energy_1>
4.812

>  <excitation_energy_2>
6.027

>  <excitation_energy_3>
6.445

>  <excitation_energy_4>
6.501

>  <homo_energy>
-6.874

>  <homo_lumo_gap>
6.256

>  <logP>
3.415

>  <lumo_energy>
-0.618

>  <melting_point>
95.52

>  <molecular_refractivity>
57.58

>  <oscillator_strength_1>
0.0001

>  <oscillator_strength_2>
0.0025

>  <oscillator_strength_3>
0.0359

>  <oscillator_strength_4>
0.0091

>  <open_babel_can_smiles>
N#CS[C@H]1C[C@H]2C([C@]1(C)CC2)(C)C

>  <mulliken_charges>
30
1   -0.469459
2   -0.468737
3   -0.493142
4   -0.279375
5   -0.300656
6   -0.291561
7   0.118638
8   -0.103387
9   -0.300191
10   0.099621
11   0.10861
12   -0.399769
13   0.211032
14   0.145132
15   0.148056
16   0.149185
17   0.144463
18   0.153016
19   0.148481
20   0.165281
21   0.165156
22   0.146593
23   0.137449
24   0.145294
25   0.148767
26   0.142306
27   0.154328
28   0.16164
29   0.120923
30   0.192307

>  <lowdin_charges>
30
1   -0.446997
2   -0.446422
3   -0.446831
4   -0.287749
5   -0.286085
6   -0.284644
7   -0.17091
8   -0.131886
9   -0.214256
10   0.003387
11   0.000897
12   -0.130112
13   0.226633
14   0.152254
15   0.151744
16   0.153904
17   0.152421
18   0.156198
19   0.15037
20   0.163757
21   0.158647
22   0.152079
23   0.146948
24   0.148666
25   0.149808
26   0.148623
27   0.156858
28   0.157431
29   0.142599
30   0.172669

$$$$

