PCCDB-ID:  23510
public computational chemistry database (PCCDB) project, http://pccdb.org

 27 28  0  0  0  0  0  0  0  0999 V2000
    1.7091    0.3286    1.3552 C   0  0  0  0  0  0  0  0  0  0  0  0
    3.2966   -1.5508   -2.1496 C   0  0  0  0  0  0  0  0  0  0  0  0
    3.7552    5.7201   -1.7089 C   0  0  0  0  0  0  0  0  0  0  0  0
    4.6128    5.2911   -2.6677 C   0  0  0  0  0  0  0  0  0  0  0  0
    2.7915    2.3601   -0.2754 C   0  0  0  0  0  0  0  0  0  0  0  0
    4.5583    1.6236   -2.2981 C   0  0  0  0  0  0  0  0  0  0  0  0
    3.3806    3.3629   -1.0655 C   0  0  0  0  0  0  0  0  0  0  0  0
    3.0629    4.7904   -0.8237 C   0  0  0  0  0  0  0  0  0  0  0  0
    4.2794    2.9826   -2.0776 C   0  0  0  0  0  0  0  0  0  0  0  0
    3.0767    1.0173   -0.4734 C   0  0  0  0  0  0  0  0  0  0  0  0
    3.9699    0.6442   -1.5148 C   0  0  0  0  0  0  0  0  0  0  0  0
    2.2282    5.1000    0.1169 N   0  0  0  0  0  0  0  0  0  0  0  0
    4.8780    3.9622   -2.8641 N   0  0  0  0  0  0  0  0  0  0  0  0
    2.5710   -0.0077    0.2772 O   0  0  0  0  0  0  0  0  0  0  0  0
    4.3347   -0.6590   -1.7312 O   0  0  0  0  0  0  0  0  0  0  0  0
    0.8000    0.8325    1.0025 H   0  0  0  0  0  0  0  0  0  0  0  0
    2.2150    0.9735    2.0848 H   0  0  0  0  0  0  0  0  0  0  0  0
    1.4415   -0.6178    1.8285 H   0  0  0  0  0  0  0  0  0  0  0  0
    3.7872   -2.5071   -2.3446 H   0  0  0  0  0  0  0  0  0  0  0  0
    2.8251   -1.1903   -3.0736 H   0  0  0  0  0  0  0  0  0  0  0  0
    2.5370   -1.6757   -1.3736 H   0  0  0  0  0  0  0  0  0  0  0  0
    3.5770    6.7850   -1.5956 H   0  0  0  0  0  0  0  0  0  0  0  0
    5.1343    5.9724   -3.3320 H   0  0  0  0  0  0  0  0  0  0  0  0
    2.1159    2.6963    0.5015 H   0  0  0  0  0  0  0  0  0  0  0  0
    5.2458    1.3104   -3.0791 H   0  0  0  0  0  0  0  0  0  0  0  0
    2.1144    6.1176    0.1603 H   0  0  0  0  0  0  0  0  0  0  0  0
    5.5313    3.6801   -3.5789 H   0  0  0  0  0  0  0  0  0  0  0  0
  1 18  1  0  0  0  0
  1 17  1  0  0  0  0
  2 15  1  0  0  0  0
  2 21  1  0  0  0  0
  3 22  1  0  0  0  0
  3  8  1  0  0  0  0
  4  3  2  0  0  0  0
  5 24  1  0  0  0  0
  6  9  1  0  0  0  0
  6 11  2  0  0  0  0
  7  8  1  0  0  0  0
  7  5  1  0  0  0  0
  8 12  2  0  0  0  0
  9  7  2  0  0  0  0
 10  5  2  0  0  0  0
 10 14  1  0  0  0  0
 11 10  1  0  0  0  0
 12 26  1  0  0  0  0
 13  4  1  0  0  0  0
 13  9  1  0  0  0  0
 14  1  1  0  0  0  0
 15 11  1  0  0  0  0
 16  1  1  0  0  0  0
 19  2  1  0  0  0  0
 20  2  1  0  0  0  0
 23  4  1  0  0  0  0
 25  6  1  0  0  0  0
 27 13  1  0  0  0  0
M  END
>  <HBA>
4

>  <HBD>
1

>  <TPSA>
57.37

>  <cid>
23510

>  <dipole>
3.02

>  <excitation_energy_1>
3.853

>  <excitation_energy_2>
4.197

>  <excitation_energy_3>
4.279

>  <excitation_energy_4>
4.716

>  <homo_energy>
-4.985

>  <homo_lumo_gap>
4.348

>  <logP>
2.415

>  <lumo_energy>
-0.637

>  <melting_point>
125.53

>  <molecular_refractivity>
59.13

>  <oscillator_strength_1>
0.1518

>  <oscillator_strength_2>
0.0006

>  <oscillator_strength_3>
0.0412

>  <oscillator_strength_4>
0.0033

>  <open_babel_can_smiles>
COc1cc2c(cc1OC)[nH]ccc2=N

>  <mulliken_charges>
27
1   -0.216635
2   -0.214317
3   -0.222928
4   0.085257
5   -0.299073
6   -0.245828
7   0.09447
8   0.294946
9   0.328468
10   0.366742
11   0.330067
12   -0.680478
13   -0.719733
14   -0.518777
15   -0.523816
16   0.158837
17   0.161964
18   0.1662
19   0.158739
20   0.139041
21   0.170895
22   0.126026
23   0.15614
24   0.17809
25   0.129203
26   0.265817
27   0.330682

>  <lowdin_charges>
27
1   -0.278408
2   -0.27769
3   -0.243498
4   -0.086246
5   -0.185339
6   -0.207017
7   -0.036447
8   0.051692
9   0.042834
10   0.066649
11   0.086919
12   -0.437336
13   -0.20529
14   -0.197776
15   -0.219523
16   0.149213
17   0.152585
18   0.161203
19   0.156152
20   0.139186
21   0.155021
22   0.160733
23   0.167641
24   0.188259
25   0.164529
26   0.238773
27   0.293182

$$$$

