PCCDB-ID:  9822
public computational chemistry database (PCCDB) project, http://pccdb.org

 15 15  0  0  0  0  0  0  0  0999 V2000
    1.0432   -0.0812    0.0466 C   0  0  0  0  0  0  0  0  0  0  0  0
    3.3726    1.1382    0.1323 C   0  0  0  0  0  0  0  0  0  0  0  0
    2.5335    0.0461    0.0405 C   0  0  0  0  0  0  0  0  0  0  0  0
    4.6853    0.6037    0.0778 C   0  0  0  0  0  0  0  0  0  0  0  0
    5.9731    1.3236    0.1289 C   0  0  0  0  0  0  0  0  0  0  0  0
    3.3686   -1.0341   -0.0595 N   0  0  0  0  0  0  0  0  0  0  0  0
    4.6731   -0.7291   -0.0406 N   0  0  0  0  0  0  0  0  0  0  0  0
    5.7759    2.6674    0.2451 O   0  0  0  0  0  0  0  0  0  0  0  0
    7.0775    0.8297    0.0778 O   0  0  0  0  0  0  0  0  0  0  0  0
    0.5845    0.9108    0.0419 H   0  0  0  0  0  0  0  0  0  0  0  0
    0.6820   -0.6110    0.9371 H   0  0  0  0  0  0  0  0  0  0  0  0
    0.6768   -0.6220   -0.8346 H   0  0  0  0  0  0  0  0  0  0  0  0
    3.0908    2.1759    0.2252 H   0  0  0  0  0  0  0  0  0  0  0  0
    3.1047   -2.0057   -0.1453 H   0  0  0  0  0  0  0  0  0  0  0  0
    6.6689    3.0579    0.2712 H   0  0  0  0  0  0  0  0  0  0  0  0
  1 11  1  0  0  0  0
  2 13  1  0  0  0  0
  3  1  1  0  0  0  0
  3  2  2  0  0  0  0
  4  5  1  0  0  0  0
  4  2  1  0  0  0  0
  5  8  1  0  0  0  0
  6  7  1  0  0  0  0
  6  3  1  0  0  0  0
  7  4  2  0  0  0  0
  8 15  1  0  0  0  0
  9  5  2  0  0  0  0
 10  1  1  0  0  0  0
 12  1  1  0  0  0  0
 14  6  1  0  0  0  0
M  END
>  <HBA>
3

>  <HBD>
2

>  <TPSA>
65.98

>  <cid>
9822

>  <dipole>
4.66

>  <excitation_energy_1>
5.054

>  <excitation_energy_2>
5.415

>  <excitation_energy_3>
5.957

>  <excitation_energy_4>
5.988

>  <homo_energy>
-6.792

>  <homo_lumo_gap>
6.106

>  <logP>
0.416

>  <lumo_energy>
-0.686

>  <melting_point>
162.26

>  <molecular_refractivity>
30.51

>  <oscillator_strength_1>
0.0

>  <oscillator_strength_2>
0.0285

>  <oscillator_strength_3>
0.0005

>  <oscillator_strength_4>
0.2377

>  <open_babel_can_smiles>
Cc1cc(n[nH]1)C(=O)O

>  <mulliken_charges>
15
1   -0.533803
2   -0.292743
3   0.3942
4   0.259715
5   0.540573
6   -0.443556
7   -0.30863
8   -0.585923
9   -0.464286
10   0.181509
11   0.174658
12   0.170749
13   0.153232
14   0.344865
15   0.409443

>  <lowdin_charges>
15
1   -0.444525
2   -0.220923
3   0.018874
4   -0.038346
5   0.195295
6   -0.111993
7   -0.116254
8   -0.369809
9   -0.254914
10   0.175421
11   0.16791
12   0.166562
13   0.177194
14   0.29561
15   0.359898

$$$$

