PCCDB-ID:  18772
public computational chemistry database (PCCDB) project, http://pccdb.org

 32 32  0  0  1  0  0  0  0  0999 V2000
    1.1665    0.1946    3.0042 C   0  0  0  0  0  0  0  0  0  0  0  0
    2.9949   -1.2660    3.9652 C   0  0  0  0  0  0  0  0  0  0  0  0
    5.2526   -1.8254    1.2733 C   0  0  0  0  0  0  0  0  0  0  0  0
    5.4631    0.5632    1.3692 C   0  0  0  0  0  0  0  0  0  0  0  0
    6.6361   -1.9436    1.1389 C   0  0  0  0  0  0  0  0  0  0  0  0
    6.8459    0.4491    1.2347 C   0  0  0  0  0  0  0  0  0  0  0  0
    3.1399   -0.4321    1.5497 C   0  0  0  0  0  0  0  0  0  0  0  0
    8.9601   -0.9351    0.9764 C   0  0  0  0  0  0  0  0  0  0  0  0
    2.6682   -0.1239    2.9941 C   0  0  0  0  0  0  0  0  0  0  0  0
    4.6389   -0.5712    1.3917 C   0  0  0  0  0  0  0  0  0  0  0  0
    7.4584   -0.8080    1.1130 C   0  0  0  0  0  0  0  0  0  0  0  0
    9.7001   -1.0754    2.3002 C   0  0  1  0  0  0  0  0  0  0  0  0
   10.9557   -1.2977    2.4126 N   0  0  0  0  0  0  0  0  0  0  0  0
    9.0139   -0.9480    3.4636 O   0  0  0  0  0  0  0  0  0  0  0  0
   11.5429   -1.3849    1.1166 O   0  0  0  0  0  0  0  0  0  0  0  0
    0.8203    0.4330    4.0166 H   0  0  0  0  0  0  0  0  0  0  0  0
    0.5813   -0.6630    2.6473 H   0  0  0  0  0  0  0  0  0  0  0  0
    0.9325    1.0495    2.3585 H   0  0  0  0  0  0  0  0  0  0  0  0
    2.6941   -1.0080    4.9872 H   0  0  0  0  0  0  0  0  0  0  0  0
    4.0657   -1.4945    3.9783 H   0  0  0  0  0  0  0  0  0  0  0  0
    2.4597   -2.1829    3.6839 H   0  0  0  0  0  0  0  0  0  0  0  0
    4.6384   -2.7227    1.2794 H   0  0  0  0  0  0  0  0  0  0  0  0
    5.0154    1.5516    1.4479 H   0  0  0  0  0  0  0  0  0  0  0  0
    7.0843   -2.9300    1.0417 H   0  0  0  0  0  0  0  0  0  0  0  0
    7.4596    1.3469    1.2097 H   0  0  0  0  0  0  0  0  0  0  0  0
    2.7847    0.3736    0.8930 H   0  0  0  0  0  0  0  0  0  0  0  0
    2.6458   -1.3514    1.2070 H   0  0  0  0  0  0  0  0  0  0  0  0
    9.3786   -0.0655    0.4549 H   0  0  0  0  0  0  0  0  0  0  0  0
    9.2270   -1.7997    0.3586 H   0  0  0  0  0  0  0  0  0  0  0  0
    3.2082    0.7735    3.3314 H   0  0  0  0  0  0  0  0  0  0  0  0
    8.0743   -0.8293    3.2435 H   0  0  0  0  0  0  0  0  0  0  0  0
   12.4668   -1.5688    1.3421 H   0  0  0  0  0  0  0  0  0  0  0  0
  1 16  1  0  0  0  0
  2 20  1  0  0  0  0
  2 19  1  0  0  0  0
  3 22  1  0  0  0  0
  3 10  2  0  0  0  0
  4 10  1  0  0  0  0
  4 23  1  0  0  0  0
  5  3  1  0  0  0  0
  6  4  2  0  0  0  0
  7  9  1  0  0  0  0
  8 11  1  0  0  0  0
  8 12  1  0  0  0  0
  9  1  1  0  0  0  0
  9 30  1  0  0  0  0
  9  2  1  0  0  0  0
 10  7  1  0  0  0  0
 11  5  2  0  0  0  0
 11  6  1  0  0  0  0
 12 13  1  1  0  0  0
 12 14  1  0  0  0  0
 15 32  1  0  0  0  0
 15 13  1  0  0  0  0
 17  1  1  0  0  0  0
 18  1  1  0  0  0  0
 21  2  1  0  0  0  0
 24  5  1  0  0  0  0
 25  6  1  0  0  0  0
 26  7  1  0  0  0  0
 27  7  1  0  0  0  0
 28  8  1  0  0  0  0
 29  8  1  0  0  0  0
 31 14  1  0  0  0  0
M  RAD  2  12   2  13   2
M  END
>  <HBA>
3

>  <HBD>
2

>  <TPSA>
49.33

>  <cid>
18772

>  <dipole>
3.39

>  <excitation_energy_1>
4.804

>  <excitation_energy_2>
4.933

>  <excitation_energy_3>
5.165

>  <excitation_energy_4>
5.533

>  <homo_energy>
-5.872

>  <homo_lumo_gap>
5.393

>  <logP>
2.324

>  <lumo_energy>
-0.479

>  <melting_point>
111.81

>  <molecular_refractivity>
59.33

>  <oscillator_strength_1>
0.0006

>  <oscillator_strength_2>
0.0019

>  <oscillator_strength_3>
0.0019

>  <oscillator_strength_4>
0.0004

>  <open_babel_can_smiles>
O[N][C](Cc1ccc(cc1)CC(C)C)O

>  <mulliken_charges>
32
1   -0.441558
2   -0.445307
3   -0.182877
4   -0.177405
5   -0.165326
6   -0.172991
7   -0.345164
8   -0.408394
9   -0.066521
10   0.176383
11   0.06717
12   0.504562
13   -0.249846
14   -0.589998
15   -0.531353
16   0.145108
17   0.141176
18   0.140791
19   0.144605
20   0.150112
21   0.136981
22   0.132535
23   0.131313
24   0.138975
25   0.138463
26   0.143763
27   0.138202
28   0.189602
29   0.192193
30   0.127833
31   0.420164
32   0.416811

>  <lowdin_charges>
32
1   -0.445414
2   -0.445649
3   -0.164821
4   -0.162486
5   -0.163243
6   -0.167788
7   -0.276808
8   -0.300556
9   -0.117336
10   0.00417
11   -0.032562
12   0.096115
13   -0.111958
14   -0.359329
15   -0.399319
16   0.150389
17   0.147536
18   0.148421
19   0.150031
20   0.151599
21   0.144964
22   0.159643
23   0.15805
24   0.161426
25   0.161699
26   0.152998
27   0.1478
28   0.179414
29   0.181065
30   0.13825
31   0.359962
32   0.353738

$$$$

