PCCDB-ID:  17119
public computational chemistry database (PCCDB) project, http://pccdb.org

 29 30  0  0  1  0  0  0  0  0999 V2000
   -2.0663   -0.9022   -1.2187 C   0  0  0  0  0  0  0  0  0  0  0  0
   -1.3245   -1.6792   -0.3269 C   0  0  0  0  0  0  0  0  0  0  0  0
   -1.4557    0.1700   -1.8725 C   0  0  0  0  0  0  0  0  0  0  0  0
    5.8744    4.1567   -0.9018 C   0  0  0  0  0  0  0  0  0  0  0  0
    0.0181   -1.3853   -0.0837 C   0  0  0  0  0  0  0  0  0  0  0  0
   -0.1121    0.4595   -1.6338 C   0  0  0  0  0  0  0  0  0  0  0  0
    6.2034    3.6300    0.3492 C   0  0  0  0  0  0  0  0  0  0  0  0
    4.6752    3.7105   -1.4505 C   0  0  0  0  0  0  0  0  0  0  0  0
    2.1455    1.1670    0.6297 C   0  0  0  0  0  0  0  0  0  0  0  0
    0.6359   -0.3112   -0.7348 C   0  0  0  0  0  0  0  0  0  0  0  0
    2.0749    0.0589   -0.4470 C   0  0  2  0  0  0  0  0  0  0  0  0
    4.3010    2.3892    0.3577 C   0  0  0  0  0  0  0  0  0  0  0  0
    5.4358    2.7536    0.9938 N   0  0  0  0  0  0  0  0  0  0  0  0
    3.8774    2.8286   -0.8421 N   0  0  0  0  0  0  0  0  0  0  0  0
    3.5231    1.4671    1.0108 N   0  0  0  0  0  0  0  0  0  0  0  0
    2.7828   -1.0900    0.0007 O   0  0  0  0  0  0  0  0  0  0  0  0
   -3.1109   -1.1345   -1.4090 H   0  0  0  0  0  0  0  0  0  0  0  0
   -1.7914   -2.5208    0.1788 H   0  0  0  0  0  0  0  0  0  0  0  0
   -2.0225    0.7755   -2.5750 H   0  0  0  0  0  0  0  0  0  0  0  0
    6.5116    4.8699   -1.4118 H   0  0  0  0  0  0  0  0  0  0  0  0
    0.6030   -1.9945    0.5973 H   0  0  0  0  0  0  0  0  0  0  0  0
    0.3647    1.2882   -2.1533 H   0  0  0  0  0  0  0  0  0  0  0  0
    7.1200    3.9256    0.8588 H   0  0  0  0  0  0  0  0  0  0  0  0
    4.3333    4.0703   -2.4202 H   0  0  0  0  0  0  0  0  0  0  0  0
    1.6249    0.8147    1.5253 H   0  0  0  0  0  0  0  0  0  0  0  0
    1.6459    2.0715    0.2675 H   0  0  0  0  0  0  0  0  0  0  0  0
    2.5349    0.4575   -1.3633 H   0  0  0  0  0  0  0  0  0  0  0  0
    3.8026    1.3153    1.9701 H   0  0  0  0  0  0  0  0  0  0  0  0
    3.6455   -0.7588    0.3037 H   0  0  0  0  0  0  0  0  0  0  0  0
  1  2  2  0  0  0  0
  2  5  1  0  0  0  0
  2 18  1  0  0  0  0
  3  6  2  0  0  0  0
  3  1  1  0  0  0  0
  4  7  2  0  0  0  0
  5 21  1  0  0  0  0
  6 10  1  0  0  0  0
  7 23  1  0  0  0  0
  7 13  1  0  0  0  0
  8  4  1  0  0  0  0
  8 14  2  0  0  0  0
  9 15  1  0  0  0  0
  9 25  1  0  0  0  0
 10 11  1  0  0  0  0
 10  5  2  0  0  0  0
 11 27  1  6  0  0  0
 11 16  1  0  0  0  0
 11  9  1  0  0  0  0
 12 13  2  0  0  0  0
 12 15  1  0  0  0  0
 14 12  1  0  0  0  0
 15 28  1  0  0  0  0
 16 29  1  0  0  0  0
 17  1  1  0  0  0  0
 19  3  1  0  0  0  0
 20  4  1  0  0  0  0
 22  6  1  0  0  0  0
 24  8  1  0  0  0  0
 26  9  1  0  0  0  0
M  END
>  <HBA>
4

>  <HBD>
2

>  <TPSA>
58.04

>  <cid>
17119

>  <dipole>
2.55

>  <excitation_energy_1>
4.318

>  <excitation_energy_2>
4.454

>  <excitation_energy_3>
4.92

>  <excitation_energy_4>
5.04

>  <homo_energy>
-6.095

>  <homo_lumo_gap>
5.078

>  <logP>
1.695

>  <lumo_energy>
-1.018

>  <melting_point>
117.23

>  <molecular_refractivity>
61.79

>  <oscillator_strength_1>
0.0212

>  <oscillator_strength_2>
0.0124

>  <oscillator_strength_3>
0.0085

>  <oscillator_strength_4>
0.0003

>  <open_babel_can_smiles>
O[C@@H](c1ccccc1)CNc1ncccn1

>  <mulliken_charges>
29
1   -0.127495
2   -0.132712
3   -0.132512
4   -0.172857
5   -0.170753
6   -0.181229
7   0.066149
8   0.064946
9   -0.133847
10   0.130253
11   0.075155
12   0.637299
13   -0.473151
14   -0.46691
15   -0.64612
16   -0.641361
17   0.125966
18   0.127228
19   0.126749
20   0.14207
21   0.148483
22   0.129916
23   0.150442
24   0.149882
25   0.152558
26   0.168585
27   0.146337
28   0.339934
29   0.396994

>  <lowdin_charges>
29
1   -0.159023
2   -0.156356
3   -0.158307
4   -0.233937
5   -0.160507
6   -0.167902
7   -0.05247
8   -0.05077
9   -0.213747
10   -0.011699
11   -0.009058
12   0.126075
13   -0.197209
14   -0.199597
15   -0.27621
16   -0.462092
17   0.154574
18   0.156966
19   0.157538
20   0.170849
21   0.169399
22   0.157968
23   0.161053
24   0.160303
25   0.157356
26   0.161644
27   0.144491
28   0.289289
29   0.341377

$$$$

