PCCDB-ID:  23642
public computational chemistry database (PCCDB) project, http://pccdb.org

 17 17  0  0  0  0  0  0  0  0999 V2000
    2.1780    0.6792    0.2555 C   0  0  0  0  0  0  0  0  0  0  0  0
    2.9950   -2.9556   -1.7456 C   0  0  0  0  0  0  0  0  0  0  0  0
    3.8797   -2.9465   -2.8205 C   0  0  0  0  0  0  0  0  0  0  0  0
    2.7063   -1.7706   -1.0639 C   0  0  0  0  0  0  0  0  0  0  0  0
    4.4759   -1.7474   -3.2137 C   0  0  0  0  0  0  0  0  0  0  0  0
    3.3043   -0.5687   -1.4536 C   0  0  0  0  0  0  0  0  0  0  0  0
    4.2007   -0.5537   -2.5437 C   0  0  0  0  0  0  0  0  0  0  0  0
    3.0783    0.6339   -0.8403 O   0  0  0  0  0  0  0  0  0  0  0  0
    5.0073    0.9407   -3.0937 S   0  0  0  0  0  0  0  0  0  0  0  0
    2.1534    1.7215    0.5785 H   0  0  0  0  0  0  0  0  0  0  0  0
    2.5234    0.0495    1.0853 H   0  0  0  0  0  0  0  0  0  0  0  0
    1.1683    0.3670   -0.0409 H   0  0  0  0  0  0  0  0  0  0  0  0
    2.5219   -3.8807   -1.4289 H   0  0  0  0  0  0  0  0  0  0  0  0
    4.1075   -3.8635   -3.3559 H   0  0  0  0  0  0  0  0  0  0  0  0
    2.0170   -1.7905   -0.2274 H   0  0  0  0  0  0  0  0  0  0  0  0
    5.1649   -1.7336   -4.0541 H   0  0  0  0  0  0  0  0  0  0  0  0
    4.3806    1.7684   -2.2370 H   0  0  0  0  0  0  0  0  0  0  0  0
  1 10  1  0  0  0  0
  1 11  1  0  0  0  0
  2 13  1  0  0  0  0
  2  4  2  0  0  0  0
  3  2  1  0  0  0  0
  4 15  1  0  0  0  0
  5  3  2  0  0  0  0
  5  7  1  0  0  0  0
  6  4  1  0  0  0  0
  6  8  1  0  0  0  0
  7  6  2  0  0  0  0
  8  1  1  0  0  0  0
  9  7  1  0  0  0  0
  9 17  1  0  0  0  0
 12  1  1  0  0  0  0
 14  3  1  0  0  0  0
 16  5  1  0  0  0  0
M  END
>  <HBA>
2

>  <HBD>
1

>  <TPSA>
48.03

>  <cid>
23642

>  <dipole>
2.8

>  <excitation_energy_1>
4.708

>  <excitation_energy_2>
4.94

>  <excitation_energy_3>
5.144

>  <excitation_energy_4>
5.154

>  <homo_energy>
-5.576

>  <homo_lumo_gap>
5.538

>  <logP>
1.984

>  <lumo_energy>
-0.038

>  <melting_point>
34.19

>  <molecular_refractivity>
40.19

>  <oscillator_strength_1>
0.0728

>  <oscillator_strength_2>
0.0039

>  <oscillator_strength_3>
0.0088

>  <oscillator_strength_4>
0.1358

>  <open_babel_can_smiles>
COc1ccccc1S

>  <mulliken_charges>
17
1   -0.215093
2   -0.144392
3   -0.120175
4   -0.183444
5   -0.162746
6   0.374557
7   -0.123491
8   -0.52239
9   -0.050482
10   0.171599
11   0.157231
12   0.156921
13   0.130291
14   0.129554
15   0.132656
16   0.141141
17   0.128263

>  <lowdin_charges>
17
1   -0.274782
2   -0.157602
3   -0.169035
4   -0.205111
5   -0.159087
6   0.086964
7   -0.137905
8   -0.205428
9   -0.02598
10   0.162835
11   0.148948
12   0.147074
13   0.158989
14   0.159901
15   0.163478
16   0.165496
17   0.141246

$$$$

