PCCDB-ID:  20835
public computational chemistry database (PCCDB) project, http://pccdb.org

 31 33  0  0  1  0  0  0  0  0999 V2000
    3.1484   -1.2617   -1.5662 C   0  0  0  0  0  0  0  0  0  0  0  0
    3.2727    0.0399   -1.8436 C   0  0  0  0  0  0  0  0  0  0  0  0
    1.9532   -1.8372   -0.8500 C   0  0  0  0  0  0  0  0  0  0  0  0
    2.2461    1.0808   -1.4598 C   0  0  0  0  0  0  0  0  0  0  0  0
    0.7900   -0.8334   -0.7776 C   0  0  0  0  0  0  0  0  0  0  0  0
    2.2549    1.4195    3.7826 C   0  0  0  0  0  0  0  0  0  0  0  0
    3.0476    1.8961    2.8133 C   0  0  0  0  0  0  0  0  0  0  0  0
    0.8496    2.5054    2.2360 C   0  0  0  0  0  0  0  0  0  0  0  0
    0.8810    0.1277    2.1679 C   0  0  0  0  0  0  0  0  0  0  0  0
    0.8511    1.3002    3.2038 C   0  0  1  0  0  0  0  0  0  0  0  0
    1.2551    0.5863   -0.3796 C   0  0  1  0  0  0  0  0  0  0  0  0
    2.1860    2.0961    1.5730 C   0  0  2  0  0  0  0  0  0  0  0  0
    1.8524    0.6409    1.0483 C   0  0  1  0  0  0  0  0  0  0  0  0
    3.9351   -1.9549   -1.8625 H   0  0  0  0  0  0  0  0  0  0  0  0
    4.1528    0.3928   -2.3806 H   0  0  0  0  0  0  0  0  0  0  0  0
    2.2482   -2.1591    0.1612 H   0  0  0  0  0  0  0  0  0  0  0  0
    1.6198   -2.7527   -1.3585 H   0  0  0  0  0  0  0  0  0  0  0  0
    1.6822    1.3776   -2.3585 H   0  0  0  0  0  0  0  0  0  0  0  0
    2.7584    1.9935   -1.1312 H   0  0  0  0  0  0  0  0  0  0  0  0
    0.0205   -1.2023   -0.0902 H   0  0  0  0  0  0  0  0  0  0  0  0
    0.3185   -0.7714   -1.7680 H   0  0  0  0  0  0  0  0  0  0  0  0
    2.5525    1.0683    4.7659 H   0  0  0  0  0  0  0  0  0  0  0  0
    4.1273    2.0089    2.8394 H   0  0  0  0  0  0  0  0  0  0  0  0
    0.9107    3.4692    2.7510 H   0  0  0  0  0  0  0  0  0  0  0  0
   -0.0044    2.5121    1.5479 H   0  0  0  0  0  0  0  0  0  0  0  0
   -0.1285   -0.0308    1.7703 H   0  0  0  0  0  0  0  0  0  0  0  0
    1.2083   -0.8151    2.6170 H   0  0  0  0  0  0  0  0  0  0  0  0
    0.0330    1.2373    3.9263 H   0  0  0  0  0  0  0  0  0  0  0  0
    0.3741    1.2442   -0.4007 H   0  0  0  0  0  0  0  0  0  0  0  0
    2.5921    2.7741    0.8197 H   0  0  0  0  0  0  0  0  0  0  0  0
    2.7756    0.0518    1.0487 H   0  0  0  0  0  0  0  0  0  0  0  0
  1  3  1  0  0  0  0
  2  1  2  0  0  0  0
  2  4  1  0  0  0  0
  3  5  1  0  0  0  0
  3 16  1  0  0  0  0
  4 19  1  0  0  0  0
  4 11  1  0  0  0  0
  5 11  1  0  0  0  0
  5 20  1  0  0  0  0
  6 22  1  0  0  0  0
  7 23  1  0  0  0  0
  7  6  2  0  0  0  0
  8 24  1  0  0  0  0
  8 10  1  0  0  0  0
  9 27  1  0  0  0  0
  9 10  1  0  0  0  0
 10  6  1  0  0  0  0
 10 28  1  1  0  0  0
 11 29  1  6  0  0  0
 11 13  1  0  0  0  0
 12 30  1  6  0  0  0
 12  8  1  0  0  0  0
 12  7  1  0  0  0  0
 13 31  1  1  0  0  0
 13 12  1  0  0  0  0
 13  9  1  0  0  0  0
 14  1  1  0  0  0  0
 15  2  1  0  0  0  0
 17  3  1  0  0  0  0
 18  4  1  0  0  0  0
 21  5  1  0  0  0  0
 25  8  1  0  0  0  0
 26  9  1  0  0  0  0
M  END
>  <HBA>
0

>  <HBD>
0

>  <TPSA>
0.0

>  <cid>
20835

>  <dipole>
0.3

>  <excitation_energy_1>
5.728

>  <excitation_energy_2>
5.779

>  <excitation_energy_3>
6.089

>  <excitation_energy_4>
6.106

>  <homo_energy>
-6.218

>  <homo_lumo_gap>
6.912

>  <logP>
3.555

>  <lumo_energy>
0.694

>  <melting_point>
56.1

>  <molecular_refractivity>
57.31

>  <oscillator_strength_1>
0.0211

>  <oscillator_strength_2>
0.0072

>  <oscillator_strength_3>
0.0032

>  <oscillator_strength_4>
0.0329

>  <open_babel_can_smiles>
C1=CC[C@@H](CC1)[C@@H]1C[C@@H]2C[C@H]1C=C2

>  <mulliken_charges>
31
1   -0.100701
2   -0.109067
3   -0.304509
4   -0.307123
5   -0.269962
6   -0.105293
7   -0.108011
8   -0.263066
9   -0.280605
10   -0.148437
11   -0.104122
12   -0.158534
13   -0.070844
14   0.116976
15   0.117005
16   0.146385
17   0.139182
18   0.142419
19   0.139544
20   0.132767
21   0.133448
22   0.122892
23   0.123536
24   0.138388
25   0.127503
26   0.135794
27   0.134606
28   0.115164
29   0.113695
30   0.118137
31   0.132833

>  <lowdin_charges>
31
1   -0.17862
2   -0.177586
3   -0.278233
4   -0.280616
5   -0.277775
6   -0.17501
7   -0.171348
8   -0.273464
9   -0.282963
10   -0.133209
11   -0.12897
12   -0.138441
13   -0.132848
14   0.150464
15   0.150035
16   0.14694
17   0.150045
18   0.150101
19   0.148176
20   0.144675
21   0.142701
22   0.153796
23   0.152711
24   0.147331
25   0.137527
26   0.142827
27   0.144661
28   0.142003
29   0.136068
30   0.142881
31   0.146142

$$$$

