PCCDB-ID:  25298
public computational chemistry database (PCCDB) project, http://pccdb.org

 19 18  0  0  1  0  0  0  0  0999 V2000
    4.3489    3.5797    2.6281 C   0  0  0  0  0  0  0  0  0  0  0  0
    3.6694    0.4167   -0.8054 C   0  0  0  0  0  0  0  0  0  0  0  0
    5.0454    2.8091   -1.8972 C   0  0  0  0  0  0  0  0  0  0  0  0
    5.1337    2.6682    1.6993 C   0  0  0  0  0  0  0  0  0  0  0  0
    4.8043    1.1855   -0.1409 C   0  0  1  0  0  0  0  0  0  0  0  0
    5.6652    1.8507   -1.0495 O   0  0  0  0  0  0  0  0  0  0  0  0
    4.2143    2.0662    0.7887 O   0  0  0  0  0  0  0  0  0  0  0  0
    5.0195    4.0529    3.3541 H   0  0  0  0  0  0  0  0  0  0  0  0
    3.5889    3.0120    3.1746 H   0  0  0  0  0  0  0  0  0  0  0  0
    3.8434    4.3679    2.0602 H   0  0  0  0  0  0  0  0  0  0  0  0
    4.0630   -0.2275   -1.5976 H   0  0  0  0  0  0  0  0  0  0  0  0
    2.9304    1.1009   -1.2326 H   0  0  0  0  0  0  0  0  0  0  0  0
    3.1619   -0.2044   -0.0615 H   0  0  0  0  0  0  0  0  0  0  0  0
    5.8553    3.3800   -2.3585 H   0  0  0  0  0  0  0  0  0  0  0  0
    4.3993    3.4912   -1.3314 H   0  0  0  0  0  0  0  0  0  0  0  0
    4.4537    2.3346   -2.6925 H   0  0  0  0  0  0  0  0  0  0  0  0
    5.6526    1.8814    2.2712 H   0  0  0  0  0  0  0  0  0  0  0  0
    5.8984    3.2304    1.1478 H   0  0  0  0  0  0  0  0  0  0  0  0
    5.4840    0.4938    0.3781 H   0  0  0  0  0  0  0  0  0  0  0  0
  1  9  1  0  0  0  0
  1  8  1  0  0  0  0
  2  5  1  0  0  0  0
  2 13  1  0  0  0  0
  3 15  1  0  0  0  0
  3  6  1  0  0  0  0
  4 17  1  0  0  0  0
  4  1  1  0  0  0  0
  5 19  1  1  0  0  0
  5  7  1  0  0  0  0
  6  5  1  0  0  0  0
  7  4  1  0  0  0  0
 10  1  1  0  0  0  0
 11  2  1  0  0  0  0
 12  2  1  0  0  0  0
 14  3  1  0  0  0  0
 16  3  1  0  0  0  0
 18  4  1  0  0  0  0
M  END
>  <HBA>
2

>  <HBD>
0

>  <TPSA>
18.46

>  <cid>
25298

>  <dipole>
0.35

>  <excitation_energy_1>
6.78

>  <excitation_energy_2>
6.94

>  <excitation_energy_3>
7.118

>  <excitation_energy_4>
7.274

>  <homo_energy>
-7.045

>  <homo_lumo_gap>
9.589

>  <logP>
1.015

>  <lumo_energy>
2.544

>  <melting_point>
-43.8

>  <molecular_refractivity>
28.32

>  <oscillator_strength_1>
0.002

>  <oscillator_strength_2>
0.0084

>  <oscillator_strength_3>
0.0126

>  <oscillator_strength_4>
0.0048

>  <open_babel_can_smiles>
CCO[C@H](OC)C

>  <mulliken_charges>
19
1   -0.454553
2   -0.474385
3   -0.213181
4   -0.014856
5   0.360695
6   -0.471538
7   -0.479636
8   0.143423
9   0.156508
10   0.155689
11   0.154209
12   0.158992
13   0.157417
14   0.154706
15   0.150374
16   0.135858
17   0.121085
18   0.141457
19   0.117735

>  <lowdin_charges>
19
1   -0.451869
2   -0.464409
3   -0.291852
4   -0.131159
5   0.095383
6   -0.274427
7   -0.27126
8   0.155231
9   0.157047
10   0.156456
11   0.159969
12   0.16078
13   0.16412
14   0.155778
15   0.144476
16   0.136157
17   0.129115
18   0.138792
19   0.131672

$$$$

