PCCDB-ID:  34286
public computational chemistry database (PCCDB) project, http://pccdb.org

 13 13  0  0  0  0  0  0  0  0999 V2000
    0.8956    0.0910    0.0391 C   0  0  0  0  0  0  0  0  0  0  0  0
    4.5498   -0.6739    0.1009 C   0  0  0  0  0  0  0  0  0  0  0  0
    4.4442    0.6780    0.1016 C   0  0  0  0  0  0  0  0  0  0  0  0
    2.3724   -0.0824    0.0594 C   0  0  0  0  0  0  0  0  0  0  0  0
    3.1997   -1.1756    0.0671 C   0  0  0  0  0  0  0  0  0  0  0  0
    3.1283    1.0549    0.0810 O   0  0  0  0  0  0  0  0  0  0  0  0
    2.6806   -2.8733    0.1373 S   0  0  0  0  0  0  0  0  0  0  0  0
    0.4128   -0.8879   -0.0079 H   0  0  0  0  0  0  0  0  0  0  0  0
    0.5783    0.6807   -0.8295 H   0  0  0  0  0  0  0  0  0  0  0  0
    0.5417    0.6111    0.9376 H   0  0  0  0  0  0  0  0  0  0  0  0
    5.4562   -1.2617    0.1243 H   0  0  0  0  0  0  0  0  0  0  0  0
    5.1599    1.4856    0.1181 H   0  0  0  0  0  0  0  0  0  0  0  0
    2.9153   -3.2035   -1.1547 H   0  0  0  0  0  0  0  0  0  0  0  0
  1  4  1  0  0  0  0
  1 10  1  0  0  0  0
  2  3  2  0  0  0  0
  2 11  1  0  0  0  0
  3 12  1  0  0  0  0
  4  5  2  0  0  0  0
  4  6  1  0  0  0  0
  5  2  1  0  0  0  0
  5  7  1  0  0  0  0
  6  3  1  0  0  0  0
  8  1  1  0  0  0  0
  9  1  1  0  0  0  0
 13  7  1  0  0  0  0
M  END
>  <HBA>
2

>  <HBD>
1

>  <TPSA>
51.94

>  <cid>
34286

>  <dipole>
1.21

>  <excitation_energy_1>
5.228

>  <excitation_energy_2>
5.505

>  <excitation_energy_3>
5.812

>  <excitation_energy_4>
5.852

>  <homo_energy>
-6.068

>  <homo_lumo_gap>
6.275

>  <logP>
1.877

>  <lumo_energy>
0.207

>  <melting_point>
32.15

>  <molecular_refractivity>
30.93

>  <oscillator_strength_1>
0.0189

>  <oscillator_strength_2>
0.0053

>  <oscillator_strength_3>
0.0155

>  <oscillator_strength_4>
0.1094

>  <open_babel_can_smiles>
Sc1ccoc1C

>  <mulliken_charges>
13
1   -0.52964
2   -0.173737
3   0.084555
4   0.350703
5   -0.178581
6   -0.428093
7   -0.070029
8   0.189588
9   0.171433
10   0.173609
11   0.151296
12   0.15671
13   0.102186

>  <lowdin_charges>
13
1   -0.443822
2   -0.20232
3   -0.081413
4   0.076322
5   -0.201159
6   -0.101042
7   -0.028183
8   0.179916
9   0.168956
10   0.16946
11   0.175389
12   0.173195
13   0.114702

$$$$

