PCCDB-ID:  8851
public computational chemistry database (PCCDB) project, http://pccdb.org

 27 26  0  0  0  0  0  0  0  0999 V2000
    3.8310   -3.1357    0.4305 C   0  0  0  0  0  0  0  0  0  0  0  0
    2.0793   -1.3651    0.6478 C   0  0  0  0  0  0  0  0  0  0  0  0
    3.6354   -1.7842    2.5468 C   0  0  0  0  0  0  0  0  0  0  0  0
    6.4454    0.7435   -0.1389 C   0  0  0  0  0  0  0  0  0  0  0  0
    6.6996   -1.0578    1.5867 C   0  0  0  0  0  0  0  0  0  0  0  0
    4.4257   -0.6122    0.3914 C   0  0  0  0  0  0  0  0  0  0  0  0
    3.5366   -1.7383    1.0067 C   0  0  0  0  0  0  0  0  0  0  0  0
    5.9792   -0.6609    0.2904 C   0  0  0  0  0  0  0  0  0  0  0  0
    6.4454   -1.8629   -1.0803 S   0  0  0  0  0  0  0  0  0  0  0  0
    3.1044   -3.8614    0.8173 H   0  0  0  0  0  0  0  0  0  0  0  0
    4.8307   -3.4916    0.6964 H   0  0  0  0  0  0  0  0  0  0  0  0
    3.7561   -3.1435   -0.6632 H   0  0  0  0  0  0  0  0  0  0  0  0
    1.3763   -2.0841    1.0852 H   0  0  0  0  0  0  0  0  0  0  0  0
    1.9248   -1.3636   -0.4380 H   0  0  0  0  0  0  0  0  0  0  0  0
    1.8164   -0.3692    1.0258 H   0  0  0  0  0  0  0  0  0  0  0  0
    2.8858   -2.4756    2.9509 H   0  0  0  0  0  0  0  0  0  0  0  0
    3.4429   -0.7969    2.9857 H   0  0  0  0  0  0  0  0  0  0  0  0
    4.6126   -2.1240    2.8986 H   0  0  0  0  0  0  0  0  0  0  0  0
    6.2142    1.4730    0.6487 H   0  0  0  0  0  0  0  0  0  0  0  0
    5.9501    1.0633   -1.0607 H   0  0  0  0  0  0  0  0  0  0  0  0
    7.5281    0.7687   -0.3065 H   0  0  0  0  0  0  0  0  0  0  0  0
    6.3831   -0.4109    2.4152 H   0  0  0  0  0  0  0  0  0  0  0  0
    7.7833   -0.9414    1.4697 H   0  0  0  0  0  0  0  0  0  0  0  0
    6.5078   -2.0964    1.8632 H   0  0  0  0  0  0  0  0  0  0  0  0
    4.1978    0.3023    0.9589 H   0  0  0  0  0  0  0  0  0  0  0  0
    4.0623   -0.4232   -0.6273 H   0  0  0  0  0  0  0  0  0  0  0  0
    7.7298   -1.4578   -1.1892 H   0  0  0  0  0  0  0  0  0  0  0  0
  1 11  1  0  0  0  0
  1 10  1  0  0  0  0
  1  7  1  0  0  0  0
  2  7  1  0  0  0  0
  2 15  1  0  0  0  0
  2 13  1  0  0  0  0
  3 18  1  0  0  0  0
  3 16  1  0  0  0  0
  3 17  1  0  0  0  0
  4  8  1  0  0  0  0
  4 19  1  0  0  0  0
  5 24  1  0  0  0  0
  5 22  1  0  0  0  0
  6 25  1  0  0  0  0
  6  7  1  0  0  0  0
  7  3  1  0  0  0  0
  8  6  1  0  0  0  0
  8  5  1  0  0  0  0
  9  8  1  0  0  0  0
 12  1  1  0  0  0  0
 14  2  1  0  0  0  0
 20  4  1  0  0  0  0
 21  4  1  0  0  0  0
 23  5  1  0  0  0  0
 26  6  1  0  0  0  0
 27  9  1  0  0  0  0
M  END
>  <HBA>
1

>  <HBD>
1

>  <TPSA>
38.8

>  <cid>
8851

>  <dipole>
1.71

>  <excitation_energy_1>
5.217

>  <excitation_energy_2>
5.601

>  <excitation_energy_3>
6.092

>  <excitation_energy_4>
6.347

>  <homo_energy>
-6.226

>  <homo_lumo_gap>
6.947

>  <logP>
3.131

>  <lumo_energy>
0.721

>  <melting_point>
22.08

>  <molecular_refractivity>
48.28

>  <oscillator_strength_1>
0.0072

>  <oscillator_strength_2>
0.0253

>  <oscillator_strength_3>
0.0

>  <oscillator_strength_4>
0.0003

>  <open_babel_can_smiles>
CC(CC(S)(C)C)(C)C

>  <mulliken_charges>
27
1   -0.454874
2   -0.442881
3   -0.445936
4   -0.436108
5   -0.429855
6   -0.265323
7   0.098639
8   -0.071638
9   -0.096794
10   0.134157
11   0.161312
12   0.151748
13   0.139195
14   0.141906
15   0.13653
16   0.138366
17   0.133537
18   0.145013
19   0.145187
20   0.162917
21   0.142036
22   0.145658
23   0.140934
24   0.168239
25   0.131813
26   0.147165
27   0.079057

>  <lowdin_charges>
27
1   -0.445013
2   -0.440299
3   -0.447834
4   -0.442753
5   -0.443795
6   -0.279937
7   0.01559
8   -0.062894
9   -0.110226
10   0.14741
11   0.155745
12   0.15153
13   0.148558
14   0.145688
15   0.14487
16   0.148695
17   0.143795
18   0.150217
19   0.149866
20   0.159763
21   0.146827
22   0.15108
23   0.148391
24   0.158172
25   0.146592
26   0.152759
27   0.107205

$$$$

