PCCDB-ID:  27025
public computational chemistry database (PCCDB) project, http://pccdb.org

 35 37  0  0  1  0  0  0  0  0999 V2000
    1.1376    0.1864   -0.0084 C   0  0  0  0  0  0  0  0  0  0  0  0
    1.6467   -5.4421    0.4101 C   0  0  0  0  0  0  0  0  0  0  0  0
    7.0396   -2.7520    0.5939 C   0  0  0  0  0  0  0  0  0  0  0  0
    0.7234   -4.5456   -0.1350 C   0  0  0  0  0  0  0  0  0  0  0  0
    6.9046   -1.4539    0.0915 C   0  0  0  0  0  0  0  0  0  0  0  0
    2.9718   -5.0532    0.6278 C   0  0  0  0  0  0  0  0  0  0  0  0
    5.9253   -3.5875    0.7228 C   0  0  0  0  0  0  0  0  0  0  0  0
    1.1038   -3.2347   -0.4514 C   0  0  0  0  0  0  0  0  0  0  0  0
    5.6455   -0.9622   -0.2773 C   0  0  0  0  0  0  0  0  0  0  0  0
    2.5723   -0.6224    1.9179 C   0  0  0  0  0  0  0  0  0  0  0  0
    2.5305   -0.3011    0.4120 C   0  0  1  0  0  0  0  0  0  0  0  0
    3.3518   -3.7502    0.3066 C   0  0  0  0  0  0  0  0  0  0  0  0
    4.6737   -3.1001    0.3463 C   0  0  0  0  0  0  0  0  0  0  0  0
    2.4128   -2.8328   -0.2083 C   0  0  0  0  0  0  0  0  0  0  0  0
    4.5362   -1.7863   -0.1381 C   0  0  0  0  0  0  0  0  0  0  0  0
    3.0731   -1.4720   -0.4659 C   0  0  0  0  0  0  0  0  0  0  0  0
    2.3570    0.6019    2.7044 N   0  0  0  0  0  0  0  0  0  0  0  0
    2.9147   -1.0284   -1.8208 O   0  0  0  0  0  0  0  0  0  0  0  0
    0.8708    1.0569    0.5968 H   0  0  0  0  0  0  0  0  0  0  0  0
    0.3759   -0.5811    0.1700 H   0  0  0  0  0  0  0  0  0  0  0  0
    1.1150    0.4593   -1.0658 H   0  0  0  0  0  0  0  0  0  0  0  0
    1.3364   -6.4550    0.6529 H   0  0  0  0  0  0  0  0  0  0  0  0
    8.0218   -3.1189    0.8799 H   0  0  0  0  0  0  0  0  0  0  0  0
   -0.2973   -4.8691   -0.3206 H   0  0  0  0  0  0  0  0  0  0  0  0
    7.7833   -0.8236   -0.0159 H   0  0  0  0  0  0  0  0  0  0  0  0
    3.6922   -5.7616    1.0289 H   0  0  0  0  0  0  0  0  0  0  0  0
    6.0407   -4.5995    1.1027 H   0  0  0  0  0  0  0  0  0  0  0  0
    0.3895   -2.5509   -0.8985 H   0  0  0  0  0  0  0  0  0  0  0  0
    5.5397    0.0426   -0.6783 H   0  0  0  0  0  0  0  0  0  0  0  0
    3.5146   -1.1369    2.1653 H   0  0  0  0  0  0  0  0  0  0  0  0
    1.7591   -1.3177    2.1581 H   0  0  0  0  0  0  0  0  0  0  0  0
    3.2350    0.5259    0.2317 H   0  0  0  0  0  0  0  0  0  0  0  0
    3.1895    1.1884    2.6498 H   0  0  0  0  0  0  0  0  0  0  0  0
    2.2513    0.3594    3.6881 H   0  0  0  0  0  0  0  0  0  0  0  0
    3.2891   -1.7199   -2.3905 H   0  0  0  0  0  0  0  0  0  0  0  0
  1 20  1  0  0  0  0
  1 11  1  0  0  0  0
  1 19  1  0  0  0  0
  2  6  1  0  0  0  0
  2 22  1  0  0  0  0
  3  7  1  0  0  0  0
  3 23  1  0  0  0  0
  4  2  2  0  0  0  0
  5  3  2  0  0  0  0
  6 26  1  0  0  0  0
  7 27  1  0  0  0  0
  8 14  2  0  0  0  0
  8  4  1  0  0  0  0
  9 15  2  0  0  0  0
  9  5  1  0  0  0  0
 10 31  1  0  0  0  0
 10 30  1  0  0  0  0
 10 17  1  0  0  0  0
 11 32  1  6  0  0  0
 11 10  1  0  0  0  0
 12 13  1  0  0  0  0
 12  6  2  0  0  0  0
 13  7  2  0  0  0  0
 14 12  1  0  0  0  0
 15 13  1  0  0  0  0
 16 14  1  0  0  0  0
 16 15  1  0  0  0  0
 16 11  1  0  0  0  0
 17 34  1  0  0  0  0
 18 16  1  0  0  0  0
 21  1  1  0  0  0  0
 24  4  1  0  0  0  0
 25  5  1  0  0  0  0
 28  8  1  0  0  0  0
 29  9  1  0  0  0  0
 33 17  1  0  0  0  0
 35 18  1  0  0  0  0
M  END
>  <HBA>
2

>  <HBD>
2

>  <TPSA>
46.25

>  <cid>
27025

>  <dipole>
2.44

>  <excitation_energy_1>
4.311

>  <excitation_energy_2>
4.385

>  <excitation_energy_3>
4.665

>  <excitation_energy_4>
4.877

>  <homo_energy>
-5.842

>  <homo_lumo_gap>
4.882

>  <logP>
3.198

>  <lumo_energy>
-0.961

>  <melting_point>
151.33

>  <molecular_refractivity>
73.06

>  <oscillator_strength_1>
0.1616

>  <oscillator_strength_2>
0.026

>  <oscillator_strength_3>
0.0167

>  <oscillator_strength_4>
0.0074

>  <open_babel_can_smiles>
NC[C@@H](C1(O)c2ccccc2c2c1cccc2)C

>  <mulliken_charges>
35
1   -0.456178
2   -0.134066
3   -0.13413
4   -0.133389
5   -0.134827
6   -0.19247
7   -0.195709
8   -0.195796
9   -0.195569
10   -0.155049
11   -0.077429
12   0.082897
13   0.089748
14   0.055113
15   0.047586
16   0.181593
17   -0.718674
18   -0.640193
19   0.168624
20   0.132503
21   0.161183
22   0.130113
23   0.129967
24   0.130381
25   0.129658
26   0.129672
27   0.13017
28   0.146071
29   0.139257
30   0.129025
31   0.145172
32   0.125801
33   0.291928
34   0.296609
35   0.390409

>  <lowdin_charges>
35
1   -0.451799
2   -0.151705
3   -0.153666
4   -0.1572
5   -0.15936
6   -0.165022
7   -0.161457
8   -0.159223
9   -0.15698
10   -0.213376
11   -0.122985
12   -0.010783
13   -0.013667
14   -0.026179
15   -0.02784
16   0.121073
17   -0.554175
18   -0.447427
19   0.164837
20   0.144238
21   0.15721
22   0.157411
23   0.157927
24   0.157761
25   0.158857
26   0.158934
27   0.156765
28   0.167612
29   0.161669
30   0.129202
31   0.146479
32   0.142538
33   0.250561
34   0.253671
35   0.346098

$$$$

