PCCDB-ID:  40150
public computational chemistry database (PCCDB) project, http://pccdb.org

 20 20  0  0  1  0  0  0  0  0999 V2000
    1.6997    1.4215   -0.0107 C   0  0  0  0  0  0  0  0  0  0  0  0
    4.2580    0.6447   -1.4357 C   0  0  0  0  0  0  0  0  0  0  0  0
    2.6015   -2.6585   -1.6614 C   0  0  0  0  0  0  0  0  0  0  0  0
    1.9812   -2.1503   -2.9897 C   0  0  0  0  0  0  0  0  0  0  0  0
    2.1480   -0.0256   -0.1489 C   0  0  0  0  0  0  0  0  0  0  0  0
    3.1170   -0.3639   -1.3052 C   0  0  2  0  0  0  0  0  0  0  0  0
    3.6141   -1.7068   -1.2091 N   0  0  0  0  0  0  0  0  0  0  0  0
    1.7600   -0.8780    0.6251 O   0  0  0  0  0  0  0  0  0  0  0  0
    1.9816   -0.3145   -2.8808 S   0  0  0  0  0  0  0  0  0  0  0  0
    1.4949    1.8917   -0.9770 H   0  0  0  0  0  0  0  0  0  0  0  0
    2.4861    2.0042    0.4862 H   0  0  0  0  0  0  0  0  0  0  0  0
    0.8034    1.4516    0.6120 H   0  0  0  0  0  0  0  0  0  0  0  0
    4.8783    0.6255   -0.5313 H   0  0  0  0  0  0  0  0  0  0  0  0
    3.8881    1.6617   -1.5811 H   0  0  0  0  0  0  0  0  0  0  0  0
    4.8834    0.3942   -2.2988 H   0  0  0  0  0  0  0  0  0  0  0  0
    3.0587   -3.6453   -1.7866 H   0  0  0  0  0  0  0  0  0  0  0  0
    1.8333   -2.7302   -0.8908 H   0  0  0  0  0  0  0  0  0  0  0  0
    0.9586   -2.5131   -3.1230 H   0  0  0  0  0  0  0  0  0  0  0  0
    2.5776   -2.4556   -3.8553 H   0  0  0  0  0  0  0  0  0  0  0  0
    4.4423   -1.7891   -1.7968 H   0  0  0  0  0  0  0  0  0  0  0  0
  1 11  1  0  0  0  0
  1 12  1  0  0  0  0
  2  6  1  0  0  0  0
  2 13  1  0  0  0  0
  3  7  1  0  0  0  0
  3 17  1  0  0  0  0
  4  9  1  0  0  0  0
  4  3  1  0  0  0  0
  5  1  1  0  0  0  0
  5  8  2  0  0  0  0
  6  7  1  0  0  0  0
  6  5  1  1  0  0  0
  9  6  1  0  0  0  0
 10  1  1  0  0  0  0
 14  2  1  0  0  0  0
 15  2  1  0  0  0  0
 16  3  1  0  0  0  0
 18  4  1  0  0  0  0
 19  4  1  0  0  0  0
 20  7  1  0  0  0  0
M  END
>  <HBA>
3

>  <HBD>
1

>  <TPSA>
54.4

>  <cid>
40150

>  <dipole>
2.35

>  <excitation_energy_1>
4.066

>  <excitation_energy_2>
4.418

>  <excitation_energy_3>
5.131

>  <excitation_energy_4>
5.353

>  <homo_energy>
-6.025

>  <homo_lumo_gap>
5.374

>  <logP>
0.957

>  <lumo_energy>
-0.65

>  <melting_point>
64.58

>  <molecular_refractivity>
43.39

>  <oscillator_strength_1>
0.0117

>  <oscillator_strength_2>
0.002

>  <oscillator_strength_3>
0.0101

>  <oscillator_strength_4>
0.0301

>  <open_babel_can_smiles>
CC(=O)[C@@]1(C)NCCS1

>  <mulliken_charges>
20
1   -0.539343
2   -0.470724
3   -0.166499
4   -0.420026
5   0.501857
6   -0.044729
7   -0.496352
8   -0.438042
9   0.025631
10   0.17933
11   0.173076
12   0.183264
13   0.171019
14   0.169611
15   0.162641
16   0.152538
17   0.200379
18   0.181482
19   0.168922
20   0.305963

>  <lowdin_charges>
20
1   -0.475842
2   -0.446102
3   -0.215732
4   -0.388423
5   0.158667
6   -0.044446
7   -0.309178
8   -0.229997
9   0.024585
10   0.171742
11   0.173333
12   0.17702
13   0.163344
14   0.165701
15   0.162368
16   0.154064
17   0.172386
18   0.168536
19   0.156063
20   0.261911

$$$$

