PCCDB-ID:  8445
public computational chemistry database (PCCDB) project, http://pccdb.org

 21 21  0  0  0  0  0  0  0  0999 V2000
    0.9097    0.2322    0.2418 C   0  0  0  0  0  0  0  0  0  0  0  0
    7.2789   -0.4933   -1.1433 C   0  0  0  0  0  0  0  0  0  0  0  0
    3.2886    0.7797   -0.4380 C   0  0  0  0  0  0  0  0  0  0  0  0
    4.6184    0.4046   -0.6753 C   0  0  0  0  0  0  0  0  0  0  0  0
    2.7613   -1.4871    0.1599 C   0  0  0  0  0  0  0  0  0  0  0  0
    2.3463   -0.1584   -0.0203 C   0  0  0  0  0  0  0  0  0  0  0  0
    4.0796   -1.8866   -0.0641 C   0  0  0  0  0  0  0  0  0  0  0  0
    5.0157   -0.9145   -0.4921 C   0  0  0  0  0  0  0  0  0  0  0  0
    4.5152   -3.1934    0.1699 N   0  0  0  0  0  0  0  0  0  0  0  0
    6.2852   -1.4022   -0.7063 O   0  0  0  0  0  0  0  0  0  0  0  0
    0.7398    1.2911    0.0220 H   0  0  0  0  0  0  0  0  0  0  0  0
    0.6291    0.0606    1.2891 H   0  0  0  0  0  0  0  0  0  0  0  0
    0.2133   -0.3508   -0.3745 H   0  0  0  0  0  0  0  0  0  0  0  0
    7.4396    0.3090   -0.4108 H   0  0  0  0  0  0  0  0  0  0  0  0
    7.0197   -0.0460   -2.1127 H   0  0  0  0  0  0  0  0  0  0  0  0
    8.1973   -1.0746   -1.2482 H   0  0  0  0  0  0  0  0  0  0  0  0
    2.9947    1.8157   -0.5854 H   0  0  0  0  0  0  0  0  0  0  0  0
    5.3313    1.1514   -1.0076 H   0  0  0  0  0  0  0  0  0  0  0  0
    2.0418   -2.2349    0.4905 H   0  0  0  0  0  0  0  0  0  0  0  0
    3.8013   -3.9012    0.0508 H   0  0  0  0  0  0  0  0  0  0  0  0
    5.3716   -3.4262   -0.3175 H   0  0  0  0  0  0  0  0  0  0  0  0
  1 12  1  0  0  0  0
  2 10  1  0  0  0  0
  2 14  1  0  0  0  0
  3  6  2  0  0  0  0
  4  8  2  0  0  0  0
  4  3  1  0  0  0  0
  5 19  1  0  0  0  0
  6  5  1  0  0  0  0
  6  1  1  0  0  0  0
  7  5  2  0  0  0  0
  7  9  1  0  0  0  0
  8  7  1  0  0  0  0
 10  8  1  0  0  0  0
 11  1  1  0  0  0  0
 13  1  1  0  0  0  0
 15  2  1  0  0  0  0
 16  2  1  0  0  0  0
 17  3  1  0  0  0  0
 18  4  1  0  0  0  0
 20  9  1  0  0  0  0
 21  9  1  0  0  0  0
M  END
>  <HBA>
2

>  <HBD>
1

>  <TPSA>
35.25

>  <cid>
8445

>  <dipole>
1.52

>  <excitation_energy_1>
4.529

>  <excitation_energy_2>
4.667

>  <excitation_energy_3>
4.872

>  <excitation_energy_4>
5.12

>  <homo_energy>
-4.977

>  <homo_lumo_gap>
5.47

>  <logP>
2.167

>  <lumo_energy>
0.493

>  <melting_point>
63.42

>  <molecular_refractivity>
42.3

>  <oscillator_strength_1>
0.0366

>  <oscillator_strength_2>
0.0408

>  <oscillator_strength_3>
0.0018

>  <oscillator_strength_4>
0.0007

>  <open_babel_can_smiles>
COc1ccc(cc1N)C

>  <mulliken_charges>
21
1   -0.530682
2   -0.210003
3   -0.20631
4   -0.199483
5   -0.239099
6   0.181451
7   0.266475
8   0.344605
9   -0.791446
10   -0.535871
11   0.150755
12   0.157591
13   0.154084
14   0.152933
15   0.149864
16   0.164334
17   0.111678
18   0.125093
19   0.106009
20   0.314701
21   0.333321

>  <lowdin_charges>
21
1   -0.439845
2   -0.277182
3   -0.190545
4   -0.207422
5   -0.20897
6   -0.005266
7   0.040225
8   0.064899
9   -0.491766
10   -0.215925
11   0.153128
12   0.155938
13   0.156737
14   0.146332
15   0.143259
16   0.159955
17   0.149873
18   0.160692
19   0.150409
20   0.274098
21   0.281377

$$$$

