PCCDB-ID:  976
public computational chemistry database (PCCDB) project, http://pccdb.org

 14 13  0  0  0  0  0  0  0  0999 V2000
    1.1113   -0.9785   -0.1836 C   0  0  0  0  0  0  0  0  0  0  0  0
    2.0484   -0.0328   -0.1343 C   0  0  0  0  0  0  0  0  0  0  0  0
    3.2936   -0.0363   -0.9739 C   0  0  0  0  0  0  0  0  0  0  0  0
    4.5563    0.2430   -0.1797 C   0  0  0  0  0  0  0  0  0  0  0  0
    5.8635    0.1365   -1.0005 C   0  0  0  0  0  0  0  0  0  0  0  0
    4.5874    0.5475    0.9906 O   0  0  0  0  0  0  0  0  0  0  0  0
    6.9516    0.3942   -0.2591 O   0  0  0  0  0  0  0  0  0  0  0  0
    5.8862   -0.1476   -2.1783 O   0  0  0  0  0  0  0  0  0  0  0  0
    0.2175   -0.9264    0.4316 H   0  0  0  0  0  0  0  0  0  0  0  0
    1.1996   -1.8416   -0.8405 H   0  0  0  0  0  0  0  0  0  0  0  0
    1.9331    0.8114    0.5426 H   0  0  0  0  0  0  0  0  0  0  0  0
    3.2472    0.7346   -1.7615 H   0  0  0  0  0  0  0  0  0  0  0  0
    3.4199   -0.9795   -1.5197 H   0  0  0  0  0  0  0  0  0  0  0  0
    7.7193    0.3020   -0.8551 H   0  0  0  0  0  0  0  0  0  0  0  0
  1  2  2  0  0  0  0
  1  9  1  0  0  0  0
  2 11  1  0  0  0  0
  3  4  1  0  0  0  0
  3  2  1  0  0  0  0
  4  6  2  0  0  0  0
  5  7  1  0  0  0  0
  5  4  1  0  0  0  0
  8  5  2  0  0  0  0
 10  1  1  0  0  0  0
 12  3  1  0  0  0  0
 13  3  1  0  0  0  0
 14  7  1  0  0  0  0
M  END
>  <HBA>
3

>  <HBD>
1

>  <TPSA>
54.37

>  <cid>
976

>  <dipole>
1.18

>  <excitation_energy_1>
3.249

>  <excitation_energy_2>
4.142

>  <excitation_energy_3>
5.071

>  <excitation_energy_4>
6.235

>  <homo_energy>
-6.988

>  <homo_lumo_gap>
4.781

>  <logP>
0.216

>  <lumo_energy>
-2.207

>  <melting_point>
52.05

>  <molecular_refractivity>
27.65

>  <oscillator_strength_1>
0.0004

>  <oscillator_strength_2>
0.0091

>  <oscillator_strength_3>
0.0

>  <oscillator_strength_4>
0.0659

>  <open_babel_can_smiles>
OC(=O)C(=O)CC=C

>  <mulliken_charges>
14
1   -0.340492
2   -0.026701
3   -0.408386
4   0.395157
5   0.530222
6   -0.403182
7   -0.537565
8   -0.446681
9   0.147848
10   0.139492
11   0.149795
12   0.193085
13   0.189863
14   0.417545

>  <lowdin_charges>
14
1   -0.329359
2   -0.14192
3   -0.299939
4   0.135
5   0.156787
6   -0.176175
7   -0.317456
8   -0.244177
9   0.163162
10   0.155902
11   0.163504
12   0.184645
13   0.181105
14   0.36892

$$$$

