PCCDB-ID:  11118
public computational chemistry database (PCCDB) project, http://pccdb.org

 26 26  0  0  0  0  0  0  0  0999 V2000
    4.6738    0.5731   -0.0581 C   0  0  0  0  0  0  0  0  0  0  0  0
    4.5088    2.0463   -0.4446 C   0  0  0  0  0  0  0  0  0  0  0  0
    7.5727    4.5112   -4.6371 C   0  0  0  0  0  0  0  0  0  0  0  0
    6.8930    3.8002   -3.6465 C   0  0  0  0  0  0  0  0  0  0  0  0
    5.4317    2.4439   -1.5880 C   0  0  0  0  0  0  0  0  0  0  0  0
    6.3155    6.5119   -4.0282 C   0  0  0  0  0  0  0  0  0  0  0  0
    7.2694    5.8558   -4.8106 C   0  0  0  0  0  0  0  0  0  0  0  0
    5.6383    5.8116   -3.0331 C   0  0  0  0  0  0  0  0  0  0  0  0
    5.9370    4.4330   -2.8515 C   0  0  0  0  0  0  0  0  0  0  0  0
    4.7251    6.4205   -2.1811 N   0  0  0  0  0  0  0  0  0  0  0  0
    7.9672    6.6151   -5.8488 N   0  0  0  0  0  0  0  0  0  0  0  0
    8.8148    6.0269   -6.5241 O   0  0  0  0  0  0  0  0  0  0  0  0
    7.6690    7.8033   -5.9934 O   0  0  0  0  0  0  0  0  0  0  0  0
    5.2109    3.8293   -1.8687 O   0  0  0  0  0  0  0  0  0  0  0  0
    3.9986    0.3094    0.7621 H   0  0  0  0  0  0  0  0  0  0  0  0
    5.6970    0.3576    0.2721 H   0  0  0  0  0  0  0  0  0  0  0  0
    4.4474   -0.0908   -0.9010 H   0  0  0  0  0  0  0  0  0  0  0  0
    4.7206    2.6922    0.4160 H   0  0  0  0  0  0  0  0  0  0  0  0
    3.4728    2.2468   -0.7445 H   0  0  0  0  0  0  0  0  0  0  0  0
    8.3176    4.0386   -5.2634 H   0  0  0  0  0  0  0  0  0  0  0  0
    7.1133    2.7490   -3.5042 H   0  0  0  0  0  0  0  0  0  0  0  0
    5.2218    1.8473   -2.4872 H   0  0  0  0  0  0  0  0  0  0  0  0
    6.4846    2.2894   -1.3133 H   0  0  0  0  0  0  0  0  0  0  0  0
    6.1204    7.5637   -4.2005 H   0  0  0  0  0  0  0  0  0  0  0  0
    4.2724    7.2471   -2.5483 H   0  0  0  0  0  0  0  0  0  0  0  0
    4.0845    5.7819   -1.7282 H   0  0  0  0  0  0  0  0  0  0  0  0
  1 16  1  0  0  0  0
  1 15  1  0  0  0  0
  2  1  1  0  0  0  0
  2 18  1  0  0  0  0
  3  4  1  0  0  0  0
  4 21  1  0  0  0  0
  4  9  2  0  0  0  0
  5 23  1  0  0  0  0
  5  2  1  0  0  0  0
  6  8  2  0  0  0  0
  7  3  2  0  0  0  0
  7  6  1  0  0  0  0
  8  9  1  0  0  0  0
  8 10  1  0  0  0  0
  9 14  1  0  0  0  0
 10 26  1  0  0  0  0
 11  7  1  0  0  0  0
 12 11  2  0  0  0  0
 13 11  2  0  0  0  0
 14  5  1  0  0  0  0
 17  1  1  0  0  0  0
 19  2  1  0  0  0  0
 20  3  1  0  0  0  0
 22  5  1  0  0  0  0
 24  6  1  0  0  0  0
 25 10  1  0  0  0  0
M  END
>  <HBA>
2

>  <HBD>
1

>  <TPSA>
81.07

>  <cid>
11118

>  <dipole>
7.22

>  <excitation_energy_1>
3.157

>  <excitation_energy_2>
3.763

>  <excitation_energy_3>
4.212

>  <excitation_energy_4>
4.33

>  <homo_energy>
-5.742

>  <homo_lumo_gap>
3.793

>  <logP>
3.07

>  <lumo_energy>
-1.948

>  <melting_point>
97.05

>  <molecular_refractivity>
55.77

>  <oscillator_strength_1>
0.0777

>  <oscillator_strength_2>
0.0

>  <oscillator_strength_3>
0.1698

>  <oscillator_strength_4>
0.0004

>  <open_babel_can_smiles>
CCCOc1ccc(cc1N)N(=O)=O

>  <mulliken_charges>
26
1   -0.454988
2   -0.274721
3   -0.172454
4   -0.211084
5   -0.027638
6   -0.223531
7   0.277092
8   0.268988
9   0.379851
10   -0.793554
11   0.370463
12   -0.406162
13   -0.406568
14   -0.54425
15   0.158879
16   0.151332
17   0.150155
18   0.156585
19   0.150735
20   0.17433
21   0.146358
22   0.145692
23   0.148297
24   0.169325
25   0.327422
26   0.339446

>  <lowdin_charges>
26
1   -0.444977
2   -0.277971
3   -0.157597
4   -0.200264
5   -0.123253
6   -0.184652
7   -0.007252
8   0.044076
9   0.088598
10   -0.481786
11   0.309492
12   -0.259237
13   -0.258696
14   -0.2013
15   0.160196
16   0.150687
17   0.151543
18   0.154231
19   0.149673
20   0.18622
21   0.167723
22   0.141957
23   0.141733
24   0.181646
25   0.28215
26   0.287062

$$$$

