PCCDB-ID:  66303
public computational chemistry database (PCCDB) project, http://pccdb.org

 42 41  0  0  1  0  0  0  0  0999 V2000
    5.3966    0.7422    8.8046 C   0  0  0  0  0  0  0  0  0  0  0  0
   12.0491    1.0181   -0.9160 C   0  0  0  0  0  0  0  0  0  0  0  0
    5.5782    2.2618    8.9011 C   0  0  0  0  0  0  0  0  0  0  0  0
   11.8016    2.3950   -0.2901 C   0  0  0  0  0  0  0  0  0  0  0  0
    6.4118    2.8784    7.7653 C   0  0  0  0  0  0  0  0  0  0  0  0
    5.7749    2.7765    6.3722 C   0  0  0  0  0  0  0  0  0  0  0  0
    6.5917    3.4784    5.2787 C   0  0  0  0  0  0  0  0  0  0  0  0
    5.9582    3.3656    3.8847 C   0  0  0  0  0  0  0  0  0  0  0  0
    6.6990    4.1300    2.7748 C   0  0  0  0  0  0  0  0  0  0  0  0
    8.1049    3.6004    2.4575 C   0  0  0  0  0  0  0  0  0  0  0  0
    8.7589    4.3403    1.2813 C   0  0  0  0  0  0  0  0  0  0  0  0
   10.2080    3.9372    0.9539 C   0  0  0  0  0  0  0  0  0  0  0  0
   10.3970    2.5590    0.3139 C   0  0  2  0  0  0  0  0  0  0  0  0
   10.1550    1.5740    1.3271 O   0  0  0  0  0  0  0  0  0  0  0  0
    4.8428    0.3560    9.6682 H   0  0  0  0  0  0  0  0  0  0  0  0
    6.3670    0.2304    8.7762 H   0  0  0  0  0  0  0  0  0  0  0  0
    4.8436    0.4527    7.9041 H   0  0  0  0  0  0  0  0  0  0  0  0
   13.0417    0.9661   -1.3760 H   0  0  0  0  0  0  0  0  0  0  0  0
   11.3112    0.7944   -1.6976 H   0  0  0  0  0  0  0  0  0  0  0  0
   12.0024    0.2207   -0.1644 H   0  0  0  0  0  0  0  0  0  0  0  0
    6.0592    2.5015    9.8593 H   0  0  0  0  0  0  0  0  0  0  0  0
    4.5914    2.7462    8.9276 H   0  0  0  0  0  0  0  0  0  0  0  0
   11.9448    3.1717   -1.0534 H   0  0  0  0  0  0  0  0  0  0  0  0
   12.5427    2.5812    0.4986 H   0  0  0  0  0  0  0  0  0  0  0  0
    7.4041    2.4029    7.7459 H   0  0  0  0  0  0  0  0  0  0  0  0
    6.5890    3.9391    7.9948 H   0  0  0  0  0  0  0  0  0  0  0  0
    4.7637    3.2103    6.4045 H   0  0  0  0  0  0  0  0  0  0  0  0
    5.6435    1.7208    6.0970 H   0  0  0  0  0  0  0  0  0  0  0  0
    7.6063    3.0576    5.2635 H   0  0  0  0  0  0  0  0  0  0  0  0
    6.7068    4.5419    5.5384 H   0  0  0  0  0  0  0  0  0  0  0  0
    4.9240    3.7356    3.9379 H   0  0  0  0  0  0  0  0  0  0  0  0
    5.8859    2.3037    3.6054 H   0  0  0  0  0  0  0  0  0  0  0  0
    6.7613    5.1945    3.0485 H   0  0  0  0  0  0  0  0  0  0  0  0
    6.0914    4.0905    1.8586 H   0  0  0  0  0  0  0  0  0  0  0  0
    8.0596    2.5278    2.2387 H   0  0  0  0  0  0  0  0  0  0  0  0
    8.7530    3.6990    3.3390 H   0  0  0  0  0  0  0  0  0  0  0  0
    8.7489    5.4186    1.4984 H   0  0  0  0  0  0  0  0  0  0  0  0
    8.1400    4.2129    0.3798 H   0  0  0  0  0  0  0  0  0  0  0  0
   10.8241    3.9758    1.8631 H   0  0  0  0  0  0  0  0  0  0  0  0
   10.6257    4.6807    0.2617 H   0  0  0  0  0  0  0  0  0  0  0  0
    9.6542    2.4420   -0.4963 H   0  0  0  0  0  0  0  0  0  0  0  0
   10.1273    0.7068    0.8954 H   0  0  0  0  0  0  0  0  0  0  0  0
  1  3  1  0  0  0  0
  1 15  1  0  0  0  0
  2  4  1  0  0  0  0
  2 20  1  0  0  0  0
  3 22  1  0  0  0  0
  3 21  1  0  0  0  0
  4 13  1  0  0  0  0
  4 24  1  0  0  0  0
  5 26  1  0  0  0  0
  5  3  1  0  0  0  0
  6 27  1  0  0  0  0
  6  5  1  0  0  0  0
  7 30  1  0  0  0  0
  7  6  1  0  0  0  0
  8 31  1  0  0  0  0
  8  7  1  0  0  0  0
  9 33  1  0  0  0  0
  9  8  1  0  0  0  0
 10  9  1  0  0  0  0
 10 36  1  0  0  0  0
 11 37  1  0  0  0  0
 11 10  1  0  0  0  0
 12 11  1  0  0  0  0
 12 39  1  0  0  0  0
 13 41  1  6  0  0  0
 13 12  1  0  0  0  0
 13 14  1  0  0  0  0
 16  1  1  0  0  0  0
 17  1  1  0  0  0  0
 18  2  1  0  0  0  0
 19  2  1  0  0  0  0
 23  4  1  0  0  0  0
 25  5  1  0  0  0  0
 28  6  1  0  0  0  0
 29  7  1  0  0  0  0
 32  8  1  0  0  0  0
 34  9  1  0  0  0  0
 35 10  1  0  0  0  0
 38 11  1  0  0  0  0
 40 12  1  0  0  0  0
 42 14  1  0  0  0  0
M  END
>  <HBA>
1

>  <HBD>
1

>  <TPSA>
20.23

>  <cid>
66303

>  <dipole>
1.7

>  <excitation_energy_1>
6.407

>  <excitation_energy_2>
7.03

>  <excitation_energy_3>
7.154

>  <excitation_energy_4>
7.321

>  <homo_energy>
-7.034

>  <homo_lumo_gap>
8.871

>  <logP>
4.288

>  <lumo_energy>
1.837

>  <melting_point>
-12.59

>  <molecular_refractivity>
65.77

>  <oscillator_strength_1>
0.0092

>  <oscillator_strength_2>
0.0175

>  <oscillator_strength_3>
0.0146

>  <oscillator_strength_4>
0.0074

>  <open_babel_can_smiles>
CCCCCCCCCC[C@@H](CC)O

>  <mulliken_charges>
42
1   -0.442661
2   -0.467573
3   -0.247731
4   -0.25312
5   -0.248925
6   -0.252305
7   -0.253943
8   -0.253319
9   -0.255343
10   -0.246302
11   -0.261749
12   -0.264393
13   0.141589
14   -0.624639
15   0.139968
16   0.139874
17   0.146129
18   0.152708
19   0.141326
20   0.139713
21   0.128655
22   0.128106
23   0.129357
24   0.141556
25   0.125719
26   0.125411
27   0.123406
28   0.130794
29   0.136204
30   0.123155
31   0.122684
32   0.124815
33   0.120857
34   0.121397
35   0.150015
36   0.129902
37   0.125045
38   0.121441
39   0.141119
40   0.126869
41   0.102664
42   0.391523

>  <lowdin_charges>
42
1   -0.448511
2   -0.453802
3   -0.272189
4   -0.291174
5   -0.273508
6   -0.273853
7   -0.273836
8   -0.271943
9   -0.274879
10   -0.279856
11   -0.270569
12   -0.282669
13   -0.001848
14   -0.465531
15   0.149345
16   0.145242
17   0.14757
18   0.155857
19   0.145973
20   0.144736
21   0.140445
22   0.137307
23   0.144501
24   0.147977
25   0.136197
26   0.137548
27   0.134599
28   0.137309
29   0.140132
30   0.133962
31   0.136576
32   0.135055
33   0.132377
34   0.137303
35   0.147519
36   0.139623
37   0.136992
38   0.13477
39   0.148601
40   0.146355
41   0.119205
42   0.341093

$$$$

