PCCDB-ID:  51897
public computational chemistry database (PCCDB) project, http://pccdb.org

 32 32  0  0  0  0  0  0  0  0999 V2000
    2.7347    2.8351    2.5017 C   0  0  0  0  0  0  0  0  0  0  0  0
    4.0274    4.4826    1.0480 C   0  0  0  0  0  0  0  0  0  0  0  0
    3.9094   -2.0022    1.8652 C   0  0  0  0  0  0  0  0  0  0  0  0
    6.7431    0.7115    0.8147 C   0  0  0  0  0  0  0  0  0  0  0  0
    5.3465   -3.6899   -1.2445 C   0  0  0  0  0  0  0  0  0  0  0  0
    6.0435   -2.6456   -1.8510 C   0  0  0  0  0  0  0  0  0  0  0  0
    4.6610   -3.4623   -0.0518 C   0  0  0  0  0  0  0  0  0  0  0  0
    6.0369   -1.3840   -1.2594 C   0  0  0  0  0  0  0  0  0  0  0  0
    3.4441    3.0818    1.1741 C   0  0  0  0  0  0  0  0  0  0  0  0
    4.6497   -2.2062    0.5683 C   0  0  0  0  0  0  0  0  0  0  0  0
    5.3476   -1.1585   -0.0632 C   0  0  0  0  0  0  0  0  0  0  0  0
    4.2849    0.9229    0.5793 C   0  0  0  0  0  0  0  0  0  0  0  0
    5.4199    0.1456    0.5346 N   0  0  0  0  0  0  0  0  0  0  0  0
    3.1698    0.5509    0.2533 O   0  0  0  0  0  0  0  0  0  0  0  0
    4.5699    2.1690    1.0439 O   0  0  0  0  0  0  0  0  0  0  0  0
    1.8944    3.5295    2.6155 H   0  0  0  0  0  0  0  0  0  0  0  0
    3.4222    2.9857    3.3419 H   0  0  0  0  0  0  0  0  0  0  0  0
    2.3419    1.8155    2.5391 H   0  0  0  0  0  0  0  0  0  0  0  0
    3.2273    5.2288    1.1043 H   0  0  0  0  0  0  0  0  0  0  0  0
    4.5453    4.6037    0.0913 H   0  0  0  0  0  0  0  0  0  0  0  0
    4.7407    4.6827    1.8554 H   0  0  0  0  0  0  0  0  0  0  0  0
    3.6663   -2.9623    2.3306 H   0  0  0  0  0  0  0  0  0  0  0  0
    2.9790   -1.4503    1.6936 H   0  0  0  0  0  0  0  0  0  0  0  0
    4.5034   -1.4159    2.5756 H   0  0  0  0  0  0  0  0  0  0  0  0
    7.4337   -0.1124    1.0047 H   0  0  0  0  0  0  0  0  0  0  0  0
    6.6932    1.3485    1.6987 H   0  0  0  0  0  0  0  0  0  0  0  0
    7.1287    1.3114   -0.0201 H   0  0  0  0  0  0  0  0  0  0  0  0
    5.3388   -4.6789   -1.6947 H   0  0  0  0  0  0  0  0  0  0  0  0
    6.5815   -2.8066   -2.7811 H   0  0  0  0  0  0  0  0  0  0  0  0
    4.1255   -4.2809    0.4234 H   0  0  0  0  0  0  0  0  0  0  0  0
    6.5624   -0.5577   -1.7304 H   0  0  0  0  0  0  0  0  0  0  0  0
    2.7577    2.8727    0.3490 H   0  0  0  0  0  0  0  0  0  0  0  0
  1 18  1  0  0  0  0
  1 16  1  0  0  0  0
  1 17  1  0  0  0  0
  2 19  1  0  0  0  0
  2  9  1  0  0  0  0
  2 21  1  0  0  0  0
  3 22  1  0  0  0  0
  3 24  1  0  0  0  0
  4 25  1  0  0  0  0
  4 26  1  0  0  0  0
  5  7  2  0  0  0  0
  6  8  2  0  0  0  0
  6  5  1  0  0  0  0
  7 30  1  0  0  0  0
  7 10  1  0  0  0  0
  8 11  1  0  0  0  0
  9  1  1  0  0  0  0
 10  3  1  0  0  0  0
 11 13  1  0  0  0  0
 11 10  2  0  0  0  0
 12 15  1  0  0  0  0
 13 12  1  0  0  0  0
 13  4  1  0  0  0  0
 14 12  2  0  0  0  0
 15  9  1  0  0  0  0
 20  2  1  0  0  0  0
 23  3  1  0  0  0  0
 27  4  1  0  0  0  0
 28  5  1  0  0  0  0
 29  6  1  0  0  0  0
 31  8  1  0  0  0  0
 32  9  1  0  0  0  0
M  END
>  <HBA>
3

>  <HBD>
0

>  <TPSA>
29.54

>  <cid>
51897

>  <dipole>
2.21

>  <excitation_energy_1>
5.095

>  <excitation_energy_2>
5.348

>  <excitation_energy_3>
5.746

>  <excitation_energy_4>
5.857

>  <homo_energy>
-6.144

>  <homo_lumo_gap>
6.142

>  <logP>
2.976

>  <lumo_energy>
-0.003

>  <melting_point>
38.28

>  <molecular_refractivity>
61.71

>  <oscillator_strength_1>
0.0169

>  <oscillator_strength_2>
0.0972

>  <oscillator_strength_3>
0.0035

>  <oscillator_strength_4>
0.0716

>  <open_babel_can_smiles>
CC(OC(=O)N(c1ccccc1C)C)C

>  <mulliken_charges>
32
1   -0.458248
2   -0.452217
3   -0.540248
4   -0.305571
5   -0.114955
6   -0.147176
7   -0.204291
8   -0.141541
9   0.139489
10   0.197374
11   0.212061
12   0.807655
13   -0.553512
14   -0.525531
15   -0.509511
16   0.145763
17   0.14626
18   0.173431
19   0.148797
20   0.156023
21   0.151392
22   0.146019
23   0.197103
24   0.152644
25   0.166402
26   0.17988
27   0.157094
28   0.127693
29   0.129006
30   0.124513
31   0.129749
32   0.164454

>  <lowdin_charges>
32
1   -0.455354
2   -0.449178
3   -0.448415
4   -0.350268
5   -0.156111
6   -0.159769
7   -0.164834
8   -0.167692
9   0.014036
10   0.008193
11   0.041783
12   0.210578
13   -0.099285
14   -0.315324
15   -0.212104
16   0.156418
17   0.151807
18   0.165323
19   0.157232
20   0.157726
21   0.154544
22   0.15348
23   0.177743
24   0.158863
25   0.163343
26   0.168592
27   0.148857
28   0.157199
29   0.157654
30   0.157019
31   0.160794
32   0.15715

$$$$

