PCCDB-ID:  13005
public computational chemistry database (PCCDB) project, http://pccdb.org

 16 16  0  0  0  0  0  0  0  0999 V2000
    1.2729    0.1962    0.7343 C   0  0  0  0  0  0  0  0  0  0  0  0
    3.5725   -1.5076   -1.8205 C   0  0  0  0  0  0  0  0  0  0  0  0
    3.7238   -0.0262   -2.2206 C   0  0  0  0  0  0  0  0  0  0  0  0
    2.5746   -0.0986   -0.0045 C   0  0  0  0  0  0  0  0  0  0  0  0
    2.7402   -1.5260   -0.5285 C   0  0  0  0  0  0  0  0  0  0  0  0
    2.8709    0.7734   -1.2248 C   0  0  0  0  0  0  0  0  0  0  0  0
    2.2700   -2.5190   -0.0207 O   0  0  0  0  0  0  0  0  0  0  0  0
    2.4819    1.9074   -1.3911 O   0  0  0  0  0  0  0  0  0  0  0  0
    1.1714   -0.4629    1.6005 H   0  0  0  0  0  0  0  0  0  0  0  0
    0.4108    0.0319    0.0802 H   0  0  0  0  0  0  0  0  0  0  0  0
    1.2530    1.2380    1.0651 H   0  0  0  0  0  0  0  0  0  0  0  0
    4.5317   -2.0048   -1.6348 H   0  0  0  0  0  0  0  0  0  0  0  0
    3.0528   -2.1087   -2.5742 H   0  0  0  0  0  0  0  0  0  0  0  0
    3.3977    0.1981   -3.2404 H   0  0  0  0  0  0  0  0  0  0  0  0
    4.7614    0.3218   -2.1389 H   0  0  0  0  0  0  0  0  0  0  0  0
    3.4311    0.0594    0.6780 H   0  0  0  0  0  0  0  0  0  0  0  0
  1 11  1  0  0  0  0
  1  9  1  0  0  0  0
  2 12  1  0  0  0  0
  2  5  1  0  0  0  0
  3 15  1  0  0  0  0
  3  2  1  0  0  0  0
  3  6  1  0  0  0  0
  4 16  1  0  0  0  0
  4  1  1  0  0  0  0
  5  7  2  0  0  0  0
  5  4  1  0  0  0  0
  6  4  1  0  0  0  0
  8  6  2  0  0  0  0
 10  1  1  0  0  0  0
 13  2  1  0  0  0  0
 14  3  1  0  0  0  0
M  END
>  <HBA>
2

>  <HBD>
0

>  <TPSA>
34.14

>  <cid>
13005

>  <dipole>
2.08

>  <excitation_energy_1>
3.888

>  <excitation_energy_2>
4.342

>  <excitation_energy_3>
5.178

>  <excitation_energy_4>
5.662

>  <homo_energy>
-6.577

>  <homo_lumo_gap>
5.388

>  <logP>
0.554

>  <lumo_energy>
-1.189

>  <melting_point>
38.8

>  <molecular_refractivity>
29.24

>  <oscillator_strength_1>
0.002

>  <oscillator_strength_2>
0.0

>  <oscillator_strength_3>
0.001

>  <oscillator_strength_4>
0.0127

>  <open_babel_can_smiles>
CC1C(=O)CCC1=O

>  <mulliken_charges>
16
1   -0.43527
2   -0.369885
3   -0.369817
4   -0.266014
5   0.443295
6   0.442726
7   -0.438719
8   -0.438246
9   0.168944
10   0.159665
11   0.169059
12   0.183497
13   0.188454
14   0.185649
15   0.182057
16   0.194604

>  <lowdin_charges>
16
1   -0.43096
2   -0.319867
3   -0.315816
4   -0.194248
5   0.156414
6   0.152701
7   -0.2189
8   -0.216599
9   0.16666
10   0.16026
11   0.165169
12   0.176719
13   0.179588
14   0.175674
15   0.17501
16   0.188197

$$$$

