PCCDB-ID:  36585
public computational chemistry database (PCCDB) project, http://pccdb.org

 32 34  0  0  1  0  0  0  0  0999 V2000
   -0.6930    1.1629    1.3189 C   0  0  0  0  0  0  0  0  0  0  0  0
   -1.1494    0.9944   -1.1531 C   0  0  0  0  0  0  0  0  0  0  0  0
    1.1942    1.4132   -0.3317 C   0  0  0  0  0  0  0  0  0  0  0  0
   -1.2956   -1.0615    0.3015 C   0  0  0  0  0  0  0  0  0  0  0  0
    1.0559   -0.6398    1.1218 C   0  0  0  0  0  0  0  0  0  0  0  0
    0.5966   -0.8096   -1.3539 C   0  0  0  0  0  0  0  0  0  0  0  0
   -0.2406   -3.7661    1.0775 C   0  0  0  0  0  0  0  0  0  0  0  0
   -1.5430    0.4614    0.2396 C   0  0  1  0  0  0  0  0  0  0  0  0
    0.8011    0.8806    1.0612 C   0  0  2  0  0  0  0  0  0  0  0  0
    0.3447    0.7096   -1.4101 C   0  0  1  0  0  0  0  0  0  0  0  0
    0.5296   -2.8545    0.1205 C   0  0  0  0  0  0  0  0  0  0  0  0
    0.2013   -1.3676    0.0358 C   0  0  2  0  0  0  0  0  0  0  0  0
    0.3200   -5.0485    1.1099 O   0  0  0  0  0  0  0  0  0  0  0  0
    1.4311   -3.3573   -0.5352 O   0  0  0  0  0  0  0  0  0  0  0  0
   -0.9795    0.8070    2.3184 H   0  0  0  0  0  0  0  0  0  0  0  0
   -0.8803    2.2450    1.3001 H   0  0  0  0  0  0  0  0  0  0  0  0
   -1.3451    2.0738   -1.2105 H   0  0  0  0  0  0  0  0  0  0  0  0
   -1.7640    0.5170   -1.9288 H   0  0  0  0  0  0  0  0  0  0  0  0
    2.2624    1.2354   -0.5163 H   0  0  0  0  0  0  0  0  0  0  0  0
    1.0383    2.4996   -0.3764 H   0  0  0  0  0  0  0  0  0  0  0  0
   -1.9205   -1.5713   -0.4447 H   0  0  0  0  0  0  0  0  0  0  0  0
   -1.5979   -1.4397    1.2868 H   0  0  0  0  0  0  0  0  0  0  0  0
    0.8035   -1.0221    2.1203 H   0  0  0  0  0  0  0  0  0  0  0  0
    2.1178   -0.8569    0.9509 H   0  0  0  0  0  0  0  0  0  0  0  0
    1.6490   -1.0380   -1.5515 H   0  0  0  0  0  0  0  0  0  0  0  0
    0.0134   -1.3202   -2.1321 H   0  0  0  0  0  0  0  0  0  0  0  0
   -1.2934   -3.7995    0.7483 H   0  0  0  0  0  0  0  0  0  0  0  0
   -0.2474   -3.3180    2.0841 H   0  0  0  0  0  0  0  0  0  0  0  0
   -2.6076    0.6563    0.4232 H   0  0  0  0  0  0  0  0  0  0  0  0
    1.4097    1.3710    1.8323 H   0  0  0  0  0  0  0  0  0  0  0  0
    0.6262    1.0835   -2.4030 H   0  0  0  0  0  0  0  0  0  0  0  0
    1.0255   -5.0270    0.4320 H   0  0  0  0  0  0  0  0  0  0  0  0
  1 15  1  0  0  0  0
  2  8  1  0  0  0  0
  3  9  1  0  0  0  0
  4 22  1  0  0  0  0
  5 23  1  0  0  0  0
  6 12  1  0  0  0  0
  7 13  1  0  0  0  0
  7 28  1  0  0  0  0
  8  4  1  0  0  0  0
  8 29  1  1  0  0  0
  8  1  1  0  0  0  0
  9  5  1  0  0  0  0
  9  1  1  0  0  0  0
  9 30  1  1  0  0  0
 10 31  1  6  0  0  0
 10  6  1  0  0  0  0
 10  2  1  0  0  0  0
 10  3  1  0  0  0  0
 11  7  1  0  0  0  0
 12 11  1  1  0  0  0
 12  4  1  0  0  0  0
 12  5  1  0  0  0  0
 14 11  2  0  0  0  0
 16  1  1  0  0  0  0
 17  2  1  0  0  0  0
 18  2  1  0  0  0  0
 19  3  1  0  0  0  0
 20  3  1  0  0  0  0
 21  4  1  0  0  0  0
 24  5  1  0  0  0  0
 25  6  1  0  0  0  0
 26  6  1  0  0  0  0
 27  7  1  0  0  0  0
 32 13  1  0  0  0  0
M  END
>  <HBA>
2

>  <HBD>
1

>  <TPSA>
37.3

>  <cid>
36585

>  <dipole>
3.64

>  <excitation_energy_1>
4.535

>  <excitation_energy_2>
5.599

>  <excitation_energy_3>
6.102

>  <excitation_energy_4>
6.229

>  <homo_energy>
-6.983

>  <homo_lumo_gap>
6.297

>  <logP>
1.764

>  <lumo_energy>
-0.686

>  <melting_point>
95.88

>  <molecular_refractivity>
54.56

>  <oscillator_strength_1>
0.0004

>  <oscillator_strength_2>
0.0229

>  <oscillator_strength_3>
0.0026

>  <oscillator_strength_4>
0.023

>  <open_babel_can_smiles>
OCC(=O)[C@]12C[C@H]3C[C@@H](C2)C[C@@H](C1)C3

>  <mulliken_charges>
32
1   -0.267362
2   -0.266089
3   -0.267143
4   -0.293758
5   -0.282846
6   -0.270719
7   -0.075591
8   -0.092786
9   -0.091297
10   -0.095869
11   0.406944
12   -0.004915
13   -0.632043
14   -0.473454
15   0.12769
16   0.131501
17   0.129381
18   0.128799
19   0.131812
20   0.129264
21   0.137368
22   0.135985
23   0.133182
24   0.150273
25   0.155292
26   0.132688
27   0.153987
28   0.152846
29   0.122239
30   0.124069
31   0.122319
32   0.408235

>  <lowdin_charges>
32
1   -0.278789
2   -0.280949
3   -0.277133
4   -0.284498
5   -0.272458
6   -0.275473
7   -0.165261
8   -0.127653
9   -0.13037
10   -0.130521
11   0.154582
12   -0.026352
13   -0.464718
14   -0.243857
15   0.139825
16   0.141325
17   0.140122
18   0.142422
19   0.141175
20   0.139971
21   0.145606
22   0.143778
23   0.141876
24   0.150237
25   0.154557
26   0.145996
27   0.150894
28   0.150565
29   0.140724
30   0.144739
31   0.142198
32   0.347438

$$$$

