PCCDB-ID:  10430
public computational chemistry database (PCCDB) project, http://pccdb.org

 17 16  0  0  0  0  0  0  0  0999 V2000
    0.8404    0.2439   -0.3750 C   0  0  0  0  0  0  0  0  0  0  0  0
    2.7882    1.7839    0.1403 C   0  0  0  0  0  0  0  0  0  0  0  0
    2.5823   -0.4698    1.3115 C   0  0  0  0  0  0  0  0  0  0  0  0
    2.3241    0.3265    0.0087 C   0  0  0  0  0  0  0  0  0  0  0  0
    4.0454   -0.4972    1.7322 C   0  0  0  0  0  0  0  0  0  0  0  0
    4.4847    0.0150    2.7302 O   0  0  0  0  0  0  0  0  0  0  0  0
    4.8897   -1.1446    0.8755 O   0  0  0  0  0  0  0  0  0  0  0  0
    0.6500    0.7712   -1.3166 H   0  0  0  0  0  0  0  0  0  0  0  0
    0.2124    0.7047    0.3977 H   0  0  0  0  0  0  0  0  0  0  0  0
    0.5115   -0.7949   -0.4978 H   0  0  0  0  0  0  0  0  0  0  0  0
    2.6014    2.3359   -0.7877 H   0  0  0  0  0  0  0  0  0  0  0  0
    3.8581    1.8533    0.3640 H   0  0  0  0  0  0  0  0  0  0  0  0
    2.2467    2.2914    0.9481 H   0  0  0  0  0  0  0  0  0  0  0  0
    2.2273   -1.5031    1.1867 H   0  0  0  0  0  0  0  0  0  0  0  0
    2.0205   -0.0265    2.1387 H   0  0  0  0  0  0  0  0  0  0  0  0
    2.9045   -0.1412   -0.8031 H   0  0  0  0  0  0  0  0  0  0  0  0
    4.3881   -1.5102    0.1284 H   0  0  0  0  0  0  0  0  0  0  0  0
  1  4  1  0  0  0  0
  1  9  1  0  0  0  0
  2 12  1  0  0  0  0
  2 13  1  0  0  0  0
  3  5  1  0  0  0  0
  3 15  1  0  0  0  0
  4  2  1  0  0  0  0
  4  3  1  0  0  0  0
  5  6  2  0  0  0  0
  7  5  1  0  0  0  0
  8  1  1  0  0  0  0
 10  1  1  0  0  0  0
 11  2  1  0  0  0  0
 14  3  1  0  0  0  0
 16  4  1  0  0  0  0
 17  7  1  0  0  0  0
M  END
>  <HBA>
2

>  <HBD>
1

>  <TPSA>
37.3

>  <cid>
10430

>  <dipole>
4.41

>  <excitation_energy_1>
5.584

>  <excitation_energy_2>
6.399

>  <excitation_energy_3>
7.297

>  <excitation_energy_4>
7.48

>  <homo_energy>
-7.225

>  <homo_lumo_gap>
7.489

>  <logP>
1.117

>  <lumo_energy>
0.264

>  <melting_point>
51.26

>  <molecular_refractivity>
27.92

>  <oscillator_strength_1>
0.0016

>  <oscillator_strength_2>
0.0144

>  <oscillator_strength_3>
0.0097

>  <oscillator_strength_4>
0.0103

>  <open_babel_can_smiles>
CC(CC(=O)O)C

>  <mulliken_charges>
17
1   -0.440645
2   -0.447307
3   -0.370322
4   -0.087659
5   0.589421
6   -0.438364
7   -0.566286
8   0.150946
9   0.150521
10   0.142375
11   0.147353
12   0.167002
13   0.152667
14   0.152319
15   0.175111
16   0.114812
17   0.408055

>  <lowdin_charges>
17
1   -0.443657
2   -0.44692
3   -0.318045
4   -0.119922
5   0.191712
6   -0.236713
7   -0.364168
8   0.154212
9   0.153126
10   0.147894
11   0.153059
12   0.159022
13   0.154851
14   0.156377
15   0.172236
16   0.130184
17   0.356753

$$$$

