PCCDB-ID:  70283
public computational chemistry database (PCCDB) project, http://pccdb.org

 21 21  0  0  0  0  0  0  0  0999 V2000
    0.8944   -0.0968   -0.0382 C   0  0  0  0  0  0  0  0  0  0  0  0
    4.3422    1.4855    0.2659 C   0  0  0  0  0  0  0  0  0  0  0  0
    2.9582    1.3762    0.1435 C   0  0  0  0  0  0  0  0  0  0  0  0
    5.1124    0.3275    0.3171 C   0  0  0  0  0  0  0  0  0  0  0  0
    5.2486   -2.2156    0.2613 C   0  0  0  0  0  0  0  0  0  0  0  0
    4.5792   -3.3163    1.1046 C   0  0  0  0  0  0  0  0  0  0  0  0
    2.3847    0.1025    0.0791 C   0  0  0  0  0  0  0  0  0  0  0  0
    4.4720   -0.9154    0.2342 C   0  0  0  0  0  0  0  0  0  0  0  0
    3.1348   -1.0119    0.1202 N   0  0  0  0  0  0  0  0  0  0  0  0
    3.3796   -3.7879    0.5264 O   0  0  0  0  0  0  0  0  0  0  0  0
    0.3611    0.8571   -0.0820 H   0  0  0  0  0  0  0  0  0  0  0  0
    0.5155   -0.6673    0.8177 H   0  0  0  0  0  0  0  0  0  0  0  0
    0.6543   -0.6726   -0.9391 H   0  0  0  0  0  0  0  0  0  0  0  0
    4.8132    2.4633    0.3252 H   0  0  0  0  0  0  0  0  0  0  0  0
    2.3298    2.2606    0.1005 H   0  0  0  0  0  0  0  0  0  0  0  0
    6.1923    0.3777    0.4187 H   0  0  0  0  0  0  0  0  0  0  0  0
    5.3459   -2.5969   -0.7650 H   0  0  0  0  0  0  0  0  0  0  0  0
    6.2640   -2.0254    0.6308 H   0  0  0  0  0  0  0  0  0  0  0  0
    4.4183   -2.9390    2.1301 H   0  0  0  0  0  0  0  0  0  0  0  0
    5.2563   -4.1748    1.1772 H   0  0  0  0  0  0  0  0  0  0  0  0
    2.8583   -2.9796    0.3453 H   0  0  0  0  0  0  0  0  0  0  0  0
  1  7  1  0  0  0  0
  1 12  1  0  0  0  0
  2  4  1  0  0  0  0
  2 14  1  0  0  0  0
  3  2  2  0  0  0  0
  4 16  1  0  0  0  0
  5 18  1  0  0  0  0
  5  6  1  0  0  0  0
  6 20  1  0  0  0  0
  6 19  1  0  0  0  0
  7  9  2  0  0  0  0
  7  3  1  0  0  0  0
  8  5  1  0  0  0  0
  8  4  2  0  0  0  0
  9  8  1  0  0  0  0
 10  6  1  0  0  0  0
 11  1  1  0  0  0  0
 13  1  1  0  0  0  0
 15  3  1  0  0  0  0
 17  5  1  0  0  0  0
 21 10  1  0  0  0  0
M  END
>  <HBA>
2

>  <HBD>
1

>  <TPSA>
33.12

>  <cid>
70283

>  <dipole>
3.89

>  <excitation_energy_1>
4.796

>  <excitation_energy_2>
5.053

>  <excitation_energy_3>
5.245

>  <excitation_energy_4>
5.306

>  <homo_energy>
-6.501

>  <homo_lumo_gap>
5.638

>  <logP>
0.925

>  <lumo_energy>
-0.863

>  <melting_point>
45.45

>  <molecular_refractivity>
40.14

>  <oscillator_strength_1>
0.0094

>  <oscillator_strength_2>
0.0139

>  <oscillator_strength_3>
0.0358

>  <oscillator_strength_4>
0.0318

>  <open_babel_can_smiles>
Cc1cccc(n1)CCO

>  <mulliken_charges>
21
1   -0.50935
2   -0.090906
3   -0.186231
4   -0.189867
5   -0.3524
6   -0.013829
7   0.322798
8   0.338604
9   -0.560983
10   -0.640397
11   0.152813
12   0.175455
13   0.176241
14   0.14412
15   0.135726
16   0.137014
17   0.169924
18   0.135824
19   0.112
20   0.135628
21   0.407815

>  <lowdin_charges>
21
1   -0.446867
2   -0.120137
3   -0.190591
4   -0.18529
5   -0.2987
6   -0.127137
7   0.065373
8   0.06235
9   -0.17293
10   -0.48887
11   0.156433
12   0.171271
13   0.171327
14   0.164123
15   0.163884
16   0.161712
17   0.165059
18   0.150287
19   0.120041
20   0.143976
21   0.334687

$$$$

