PCCDB-ID:  21775
public computational chemistry database (PCCDB) project, http://pccdb.org

 24 23  0  0  0  0  0  0  0  0999 V2000
    1.4049    0.1516   -0.5476 C   0  0  0  0  0  0  0  0  0  0  0  0
    0.2315    0.6976   -1.3719 C   0  0  0  0  0  0  0  0  0  0  0  0
    2.7626    0.4041   -1.2122 C   0  0  0  0  0  0  0  0  0  0  0  0
   -1.1254    0.4427   -0.7066 C   0  0  0  0  0  0  0  0  0  0  0  0
    3.9603   -0.1317   -0.4123 C   0  0  0  0  0  0  0  0  0  0  0  0
   -2.3282    0.9662   -1.5071 C   0  0  0  0  0  0  0  0  0  0  0  0
    3.5814   -2.6650   -0.4721 C   0  0  0  0  0  0  0  0  0  0  0  0
   -1.8257    3.4600   -1.7988 C   0  0  0  0  0  0  0  0  0  0  0  0
    3.9404   -1.5537   -0.2481 N   0  0  0  0  0  0  0  0  0  0  0  0
   -2.3275    2.3897   -1.6663 N   0  0  0  0  0  0  0  0  0  0  0  0
    3.1661   -4.1909   -0.6973 S   0  0  0  0  0  0  0  0  0  0  0  0
   -1.2493    4.9385   -1.9806 S   0  0  0  0  0  0  0  0  0  0  0  0
    1.2683   -0.9262   -0.3899 H   0  0  0  0  0  0  0  0  0  0  0  0
    1.3963    0.6141    0.4501 H   0  0  0  0  0  0  0  0  0  0  0  0
    0.2399    0.2331   -2.3688 H   0  0  0  0  0  0  0  0  0  0  0  0
    0.3699    1.7749   -1.5316 H   0  0  0  0  0  0  0  0  0  0  0  0
    2.9207    1.4833   -1.3423 H   0  0  0  0  0  0  0  0  0  0  0  0
    2.7819   -0.0406   -2.2157 H   0  0  0  0  0  0  0  0  0  0  0  0
   -1.1474    0.8886    0.2961 H   0  0  0  0  0  0  0  0  0  0  0  0
   -1.2772   -0.6373   -0.5746 H   0  0  0  0  0  0  0  0  0  0  0  0
    3.9859    0.3215    0.5867 H   0  0  0  0  0  0  0  0  0  0  0  0
    4.9003    0.1387   -0.9087 H   0  0  0  0  0  0  0  0  0  0  0  0
   -3.2630    0.6847   -1.0100 H   0  0  0  0  0  0  0  0  0  0  0  0
   -2.3485    0.5136   -2.5078 H   0  0  0  0  0  0  0  0  0  0  0  0
  1 13  1  0  0  0  0
  1 14  1  0  0  0  0
  2  4  1  0  0  0  0
  2  1  1  0  0  0  0
  3  1  1  0  0  0  0
  3  5  1  0  0  0  0
  4 20  1  0  0  0  0
  4 19  1  0  0  0  0
  5  9  1  0  0  0  0
  5 21  1  0  0  0  0
  6 23  1  0  0  0  0
  6  4  1  0  0  0  0
  7  9  2  0  0  0  0
  8 10  2  0  0  0  0
 10  6  1  0  0  0  0
 11  7  2  0  0  0  0
 12  8  2  0  0  0  0
 15  2  1  0  0  0  0
 16  2  1  0  0  0  0
 17  3  1  0  0  0  0
 18  3  1  0  0  0  0
 22  5  1  0  0  0  0
 24  6  1  0  0  0  0
M  END
>  <HBA>
4

>  <HBD>
0

>  <TPSA>
88.9

>  <cid>
21775

>  <dipole>
0.49

>  <excitation_energy_1>
4.86

>  <excitation_energy_2>
4.861

>  <excitation_energy_3>
5.258

>  <excitation_energy_4>
5.277

>  <homo_energy>
-6.68

>  <homo_lumo_gap>
6.425

>  <logP>
2.752

>  <lumo_energy>
-0.256

>  <melting_point>
70.93

>  <molecular_refractivity>
58.89

>  <oscillator_strength_1>
0.0003

>  <oscillator_strength_2>
0.0

>  <oscillator_strength_3>
0.0052

>  <oscillator_strength_4>
0.0071

>  <open_babel_can_smiles>
S=C=NCCCCCCN=C=S

>  <mulliken_charges>
24
1   -0.263961
2   -0.266587
3   -0.274397
4   -0.272496
5   -0.16054
6   -0.160653
7   0.205683
8   0.20815
9   -0.324504
10   -0.327069
11   -0.145787
12   -0.145495
13   0.157025
14   0.138195
15   0.138822
16   0.158829
17   0.1537
18   0.156258
19   0.156007
20   0.152784
21   0.177576
22   0.18075
23   0.180094
24   0.177616

>  <lowdin_charges>
24
1   -0.274258
2   -0.275397
3   -0.275001
4   -0.274714
5   -0.169887
6   -0.169875
7   -0.050734
8   -0.049863
9   -0.096861
10   -0.097412
11   -0.065206
12   -0.065864
13   0.14996
14   0.142929
15   0.143223
16   0.151218
17   0.154401
18   0.15255
19   0.152575
20   0.153927
21   0.16388
22   0.168487
23   0.167903
24   0.164019

$$$$

