PCCDB-ID:  41471
public computational chemistry database (PCCDB) project, http://pccdb.org

 19 19  0  0  0  0  0  0  0  0999 V2000
    0.7063    1.3064   -0.2096 C   0  0  0  0  0  0  0  0  0  0  0  0
   -1.4968    0.0695   -0.2657 C   0  0  0  0  0  0  0  0  0  0  0  0
    1.4187   -0.0081    0.1437 C   0  0  0  0  0  0  0  0  0  0  0  0
   -0.7672   -1.2380    0.0809 C   0  0  0  0  0  0  0  0  0  0  0  0
   -0.7508    1.2971    0.2789 C   0  0  0  0  0  0  0  0  0  0  0  0
    1.2291   -1.9848   -1.1803 N   0  0  0  0  0  0  0  0  0  0  0  0
    0.6377   -1.1490   -0.3093 N   0  0  0  0  0  0  0  0  0  0  0  0
   -1.4253    2.5119   -0.0252 O   0  0  0  0  0  0  0  0  0  0  0  0
    0.5329   -2.9074   -1.5905 O   0  0  0  0  0  0  0  0  0  0  0  0
    0.7187    1.4380   -1.3014 H   0  0  0  0  0  0  0  0  0  0  0  0
    1.2392    2.1559    0.2316 H   0  0  0  0  0  0  0  0  0  0  0  0
   -2.5158    0.0481    0.1364 H   0  0  0  0  0  0  0  0  0  0  0  0
   -1.5766    0.1551   -1.3592 H   0  0  0  0  0  0  0  0  0  0  0  0
    1.5585   -0.0781    1.2325 H   0  0  0  0  0  0  0  0  0  0  0  0
    2.4003   -0.0860   -0.3304 H   0  0  0  0  0  0  0  0  0  0  0  0
   -1.1835   -2.0997   -0.4436 H   0  0  0  0  0  0  0  0  0  0  0  0
   -0.8200   -1.4322    1.1613 H   0  0  0  0  0  0  0  0  0  0  0  0
   -0.7526    1.2517    1.3764 H   0  0  0  0  0  0  0  0  0  0  0  0
   -1.4570    2.5943   -0.9924 H   0  0  0  0  0  0  0  0  0  0  0  0
  1  3  1  0  0  0  0
  1 11  1  0  0  0  0
  1  5  1  0  0  0  0
  2  4  1  0  0  0  0
  2 12  1  0  0  0  0
  2  5  1  0  0  0  0
  3 14  1  0  0  0  0
  4 17  1  0  0  0  0
  5 18  1  0  0  0  0
  6  7  1  0  0  0  0
  7  4  1  0  0  0  0
  7  3  1  0  0  0  0
  8  5  1  0  0  0  0
  9  6  2  0  0  0  0
 10  1  1  0  0  0  0
 13  2  1  0  0  0  0
 15  3  1  0  0  0  0
 16  4  1  0  0  0  0
 19  8  1  0  0  0  0
M  END
>  <HBA>
4

>  <HBD>
1

>  <TPSA>
52.9

>  <cid>
41471

>  <dipole>
2.6

>  <excitation_energy_1>
3.39

>  <excitation_energy_2>
5.691

>  <excitation_energy_3>
5.794

>  <excitation_energy_4>
5.865

>  <homo_energy>
-6.128

>  <homo_lumo_gap>
5.241

>  <logP>
0.062

>  <lumo_energy>
-0.887

>  <melting_point>
36.98

>  <molecular_refractivity>
36.75

>  <oscillator_strength_1>
0.0009

>  <oscillator_strength_2>
0.1818

>  <oscillator_strength_3>
0.0015

>  <oscillator_strength_4>
0.0003

>  <open_babel_can_smiles>
OC1CCN(CC1)N=O

>  <mulliken_charges>
19
1   -0.285862
2   -0.286092
3   -0.143591
4   -0.16664
5   0.138537
6   0.149941
7   -0.220001
8   -0.620651
9   -0.376874
10   0.136597
11   0.158436
12   0.159757
13   0.138664
14   0.154963
15   0.180645
16   0.200695
17   0.159316
18   0.136279
19   0.385881

>  <lowdin_charges>
19
1   -0.300652
2   -0.29456
3   -0.19816
4   -0.218439
5   -0.006658
6   0.053974
7   -0.048404
8   -0.450776
9   -0.270871
10   0.142542
11   0.161232
12   0.15994
13   0.143427
14   0.145886
15   0.170638
16   0.181585
17   0.151179
18   0.13994
19   0.338174

$$$$

