PCCDB-ID:  6561
public computational chemistry database (PCCDB) project, http://pccdb.org

 13 12  0  0  0  0  0  0  0  0999 V2000
    1.0462    0.0045   -0.0489 C   0  0  0  0  0  0  0  0  0  0  0  0
    3.1718   -1.3880   -0.1830 C   0  0  0  0  0  0  0  0  0  0  0  0
    3.0825    0.8978   -1.1811 C   0  0  0  0  0  0  0  0  0  0  0  0
    2.5859    0.0290   -0.0412 C   0  0  0  0  0  0  0  0  0  0  0  0
    3.7422    1.9054   -1.0583 O   0  0  0  0  0  0  0  0  0  0  0  0
    0.6721   -0.6373    0.7565 H   0  0  0  0  0  0  0  0  0  0  0  0
    0.6610   -0.3924   -0.9966 H   0  0  0  0  0  0  0  0  0  0  0  0
    0.6280    1.0068    0.0937 H   0  0  0  0  0  0  0  0  0  0  0  0
    2.8016   -2.0347    0.6202 H   0  0  0  0  0  0  0  0  0  0  0  0
    4.2660   -1.3770   -0.1332 H   0  0  0  0  0  0  0  0  0  0  0  0
    2.8797   -1.8430   -1.1379 H   0  0  0  0  0  0  0  0  0  0  0  0
    2.7864    0.5322   -2.1947 H   0  0  0  0  0  0  0  0  0  0  0  0
    2.9450    0.4881    0.8870 H   0  0  0  0  0  0  0  0  0  0  0  0
  1  4  1  0  0  0  0
  1  8  1  0  0  0  0
  1  6  1  0  0  0  0
  2 10  1  0  0  0  0
  2  4  1  0  0  0  0
  2  9  1  0  0  0  0
  3  5  2  0  0  0  0
  3  4  1  0  0  0  0
  4 13  1  0  0  0  0
  7  1  1  0  0  0  0
 11  2  1  0  0  0  0
 12  3  1  0  0  0  0
M  END
>  <HBA>
1

>  <HBD>
0

>  <TPSA>
17.07

>  <cid>
6561

>  <dipole>
2.76

>  <excitation_energy_1>
4.219

>  <excitation_energy_2>
6.472

>  <excitation_energy_3>
6.891

>  <excitation_energy_4>
7.146

>  <homo_energy>
-6.748

>  <homo_lumo_gap>
6.177

>  <logP>
0.841

>  <lumo_energy>
-0.571

>  <melting_point>
6.49

>  <molecular_refractivity>
21.54

>  <oscillator_strength_1>
0.0001

>  <oscillator_strength_2>
0.0053

>  <oscillator_strength_3>
0.0418

>  <oscillator_strength_4>
0.0003

>  <open_babel_can_smiles>
O=CC(C)C

>  <mulliken_charges>
13
1   -0.459638
2   -0.459866
3   0.263053
4   -0.139594
5   -0.385825
6   0.157247
7   0.148862
8   0.161864
9   0.157193
10   0.161767
11   0.148889
12   0.092294
13   0.153753

>  <lowdin_charges>
13
1   -0.44262
2   -0.441002
3   0.054139
4   -0.153764
5   -0.215311
6   0.158822
7   0.150958
8   0.15763
9   0.158789
10   0.156078
11   0.150838
12   0.109439
13   0.156003

$$$$

