PCCDB-ID:  17824
public computational chemistry database (PCCDB) project, http://pccdb.org

 25 27  0  0  0  0  0  0  0  0999 V2000
    0.9118   -0.1119   -0.0623 C   0  0  0  0  0  0  0  0  0  0  0  0
    9.0816   -0.0500   -0.0592 C   0  0  0  0  0  0  0  0  0  0  0  0
    9.2496   -1.4378   -0.0591 C   0  0  0  0  0  0  0  0  0  0  0  0
    7.8039    0.5302   -0.0596 C   0  0  0  0  0  0  0  0  0  0  0  0
    8.1324   -2.2836   -0.0589 C   0  0  0  0  0  0  0  0  0  0  0  0
    3.1276    1.1228   -0.0610 C   0  0  0  0  0  0  0  0  0  0  0  0
    4.5303    1.1752   -0.0604 C   0  0  0  0  0  0  0  0  0  0  0  0
    3.1556   -1.2905   -0.0607 C   0  0  0  0  0  0  0  0  0  0  0  0
    2.4225   -0.0883   -0.0614 C   0  0  0  0  0  0  0  0  0  0  0  0
    6.6945   -0.3077   -0.0594 C   0  0  0  0  0  0  0  0  0  0  0  0
    5.2403   -0.0176   -0.0598 C   0  0  0  0  0  0  0  0  0  0  0  0
    6.8715   -1.7067   -0.0593 C   0  0  0  0  0  0  0  0  0  0  0  0
    4.5386   -1.2403   -0.0599 C   0  0  0  0  0  0  0  0  0  0  0  0
    5.5265   -2.3688   -0.0594 C   0  0  0  0  0  0  0  0  0  0  0  0
    5.2880   -3.5638   -0.0587 O   0  0  0  0  0  0  0  0  0  0  0  0
    0.4950    0.8999   -0.0598 H   0  0  0  0  0  0  0  0  0  0  0  0
    0.5207   -0.6376    0.8176 H   0  0  0  0  0  0  0  0  0  0  0  0
    0.5217   -0.6327   -0.9455 H   0  0  0  0  0  0  0  0  0  0  0  0
    9.9572    0.5939   -0.0595 H   0  0  0  0  0  0  0  0  0  0  0  0
   10.2508   -1.8592   -0.0584 H   0  0  0  0  0  0  0  0  0  0  0  0
    7.6954    1.6115   -0.0599 H   0  0  0  0  0  0  0  0  0  0  0  0
    8.2373   -3.3650   -0.0592 H   0  0  0  0  0  0  0  0  0  0  0  0
    2.5670    2.0548   -0.0618 H   0  0  0  0  0  0  0  0  0  0  0  0
    5.0366    2.1369   -0.0597 H   0  0  0  0  0  0  0  0  0  0  0  0
    2.6499   -2.2535   -0.0608 H   0  0  0  0  0  0  0  0  0  0  0  0
  1  9  1  0  0  0  0
  1 16  1  0  0  0  0
  1 17  1  0  0  0  0
  2  3  2  0  0  0  0
  3  5  1  0  0  0  0
  3 20  1  0  0  0  0
  4 10  2  0  0  0  0
  4  2  1  0  0  0  0
  6  7  1  0  0  0  0
  7 11  2  0  0  0  0
  7 24  1  0  0  0  0
  8 13  2  0  0  0  0
  9  6  2  0  0  0  0
  9  8  1  0  0  0  0
 10 12  1  0  0  0  0
 11 10  1  0  0  0  0
 12  5  2  0  0  0  0
 13 11  1  0  0  0  0
 13 14  1  0  0  0  0
 14 12  1  0  0  0  0
 14 15  2  0  0  0  0
 18  1  1  0  0  0  0
 19  2  1  0  0  0  0
 21  4  1  0  0  0  0
 22  5  1  0  0  0  0
 23  6  1  0  0  0  0
 25  8  1  0  0  0  0
M  END
>  <HBA>
1

>  <HBD>
0

>  <TPSA>
17.07

>  <cid>
17824

>  <dipole>
3.21

>  <excitation_energy_1>
3.027

>  <excitation_energy_2>
3.174

>  <excitation_energy_3>
4.002

>  <excitation_energy_4>
4.448

>  <homo_energy>
-6.065

>  <homo_lumo_gap>
3.899

>  <logP>
3.206

>  <lumo_energy>
-2.166

>  <melting_point>
104.55

>  <molecular_refractivity>
60.28

>  <oscillator_strength_1>
0.0056

>  <oscillator_strength_2>
0.0

>  <oscillator_strength_3>
0.0074

>  <oscillator_strength_4>
0.0258

>  <open_babel_can_smiles>
Cc1ccc2c(c1)C(=O)c1c2cccc1

>  <mulliken_charges>
25
1   -0.530592
2   -0.127573
3   -0.13536
4   -0.194391
5   -0.176799
6   -0.184404
7   -0.192904
8   -0.230278
9   0.174537
10   0.079181
11   0.076514
12   0.043144
13   0.049404
14   0.340683
15   -0.464905
16   0.156524
17   0.168138
18   0.168173
19   0.137459
20   0.137403
21   0.135676
22   0.156264
23   0.129661
24   0.135074
25   0.149373

>  <lowdin_charges>
25
1   -0.442952
2   -0.138237
3   -0.15693
4   -0.158709
5   -0.12363
6   -0.151297
7   -0.158733
8   -0.134603
9   0.003597
10   0.004594
11   -0.001774
12   -0.050096
13   -0.046326
14   0.151138
15   -0.224348
16   0.157147
17   0.164579
18   0.164569
19   0.162405
20   0.161456
21   0.158546
22   0.170767
23   0.158658
24   0.160306
25   0.169872

$$$$

