PCCDB-ID:  8496
public computational chemistry database (PCCDB) project, http://pccdb.org

 18 18  0  0  0  0  0  0  0  0999 V2000
   -0.8391    1.1744   -0.0789 C   0  0  0  0  0  0  0  0  0  0  0  0
   -1.4242   -0.0873   -0.0375 C   0  0  0  0  0  0  0  0  0  0  0  0
    0.5490    1.2996   -0.1641 C   0  0  0  0  0  0  0  0  0  0  0  0
    0.7644   -1.1073   -0.1353 C   0  0  0  0  0  0  0  0  0  0  0  0
   -0.6225   -1.2390   -0.0481 C   0  0  0  0  0  0  0  0  0  0  0  0
    1.3594    0.1583   -0.2082 C   0  0  0  0  0  0  0  0  0  0  0  0
   -1.3208   -2.5700    0.0017 C   0  0  0  0  0  0  0  0  0  0  0  0
    2.8580    0.2053   -0.2942 C   0  0  0  0  0  0  0  0  0  0  0  0
   -2.4883   -2.7047   -0.2771 O   0  0  0  0  0  0  0  0  0  0  0  0
   -0.5806   -3.6430    0.3777 O   0  0  0  0  0  0  0  0  0  0  0  0
    3.5608   -0.7240    0.0252 O   0  0  0  0  0  0  0  0  0  0  0  0
    3.4159    1.3562   -0.7508 O   0  0  0  0  0  0  0  0  0  0  0  0
   -1.4612    2.0636   -0.0426 H   0  0  0  0  0  0  0  0  0  0  0  0
   -2.5011   -0.2078    0.0118 H   0  0  0  0  0  0  0  0  0  0  0  0
    0.9882    2.2947   -0.1609 H   0  0  0  0  0  0  0  0  0  0  0  0
    1.4283   -1.9660   -0.1819 H   0  0  0  0  0  0  0  0  0  0  0  0
    0.2913   -3.3649    0.7024 H   0  0  0  0  0  0  0  0  0  0  0  0
    2.7350    1.9418   -1.1195 H   0  0  0  0  0  0  0  0  0  0  0  0
  1 13  1  0  0  0  0
  1  2  2  0  0  0  0
  2 14  1  0  0  0  0
  3 15  1  0  0  0  0
  3  1  1  0  0  0  0
  4  5  2  0  0  0  0
  5  2  1  0  0  0  0
  5  7  1  0  0  0  0
  6  3  2  0  0  0  0
  6  4  1  0  0  0  0
  7 10  1  0  0  0  0
  8  6  1  0  0  0  0
  8 11  2  0  0  0  0
  9  7  2  0  0  0  0
 10 17  1  0  0  0  0
 12  8  1  0  0  0  0
 16  4  1  0  0  0  0
 18 12  1  0  0  0  0
M  END
>  <HBA>
4

>  <HBD>
2

>  <TPSA>
74.6

>  <cid>
8496

>  <dipole>
4.46

>  <excitation_energy_1>
4.547

>  <excitation_energy_2>
4.637

>  <excitation_energy_3>
4.831

>  <excitation_energy_4>
5.151

>  <homo_energy>
-7.682

>  <homo_lumo_gap>
5.592

>  <logP>
1.083

>  <lumo_energy>
-2.09

>  <melting_point>
186.97

>  <molecular_refractivity>
40.36

>  <oscillator_strength_1>
0.0051

>  <oscillator_strength_2>
0.0069

>  <oscillator_strength_3>
0.0023

>  <oscillator_strength_4>
0.0178

>  <open_babel_can_smiles>
OC(=O)c1cccc(c1)C(=O)O

>  <mulliken_charges>
18
1   -0.134627
2   -0.1391
3   -0.189333
4   -0.227246
5   0.05046
6   0.052501
7   0.562682
8   0.562314
9   -0.441641
10   -0.569749
11   -0.442863
12   -0.570559
13   0.156232
14   0.181951
15   0.143686
16   0.17003
17   0.420611
18   0.41465

>  <lowdin_charges>
18
1   -0.145737
2   -0.108838
3   -0.148589
4   -0.137304
5   -0.049638
6   -0.053463
7   0.191131
8   0.197717
9   -0.232861
10   -0.344468
11   -0.237504
12   -0.349915
13   0.171758
14   0.184671
15   0.161589
16   0.178008
17   0.362465
18   0.360979

$$$$

