PCCDB-ID:  8132
public computational chemistry database (PCCDB) project, http://pccdb.org

 23 22  0  0  0  0  0  0  0  0999 V2000
    1.7974    1.7319    0.1248 C   0  0  0  0  0  0  0  0  0  0  0  0
    1.5745    1.0071    1.4565 C   0  0  0  0  0  0  0  0  0  0  0  0
    2.2272   -0.3831    1.5349 C   0  0  0  0  0  0  0  0  0  0  0  0
    3.7570   -0.3968    1.4302 C   0  0  0  0  0  0  0  0  0  0  0  0
    5.8484    0.3900    2.4711 C   0  0  0  0  0  0  0  0  0  0  0  0
    6.3536    1.4521    3.4488 C   0  0  0  0  0  0  0  0  0  0  0  0
    4.3828    0.3897    2.4958 N   0  0  0  0  0  0  0  0  0  0  0  0
    5.7894    2.7140    3.1506 O   0  0  0  0  0  0  0  0  0  0  0  0
    1.2512    2.6817    0.1004 H   0  0  0  0  0  0  0  0  0  0  0  0
    1.4493    1.1270   -0.7223 H   0  0  0  0  0  0  0  0  0  0  0  0
    2.8560    1.9612   -0.0401 H   0  0  0  0  0  0  0  0  0  0  0  0
    0.4959    0.8905    1.6270 H   0  0  0  0  0  0  0  0  0  0  0  0
    1.9532    1.6297    2.2758 H   0  0  0  0  0  0  0  0  0  0  0  0
    1.8282   -1.0220    0.7346 H   0  0  0  0  0  0  0  0  0  0  0  0
    1.9341   -0.8657    2.4795 H   0  0  0  0  0  0  0  0  0  0  0  0
    4.0751    0.0337    0.4726 H   0  0  0  0  0  0  0  0  0  0  0  0
    4.1065   -1.4464    1.4277 H   0  0  0  0  0  0  0  0  0  0  0  0
    6.2940   -0.5957    2.6992 H   0  0  0  0  0  0  0  0  0  0  0  0
    6.1620    0.6653    1.4568 H   0  0  0  0  0  0  0  0  0  0  0  0
    7.4431    1.5467    3.3808 H   0  0  0  0  0  0  0  0  0  0  0  0
    6.1170    1.1403    4.4837 H   0  0  0  0  0  0  0  0  0  0  0  0
    4.0687    0.0286    3.3978 H   0  0  0  0  0  0  0  0  0  0  0  0
    4.8705    2.5073    2.8947 H   0  0  0  0  0  0  0  0  0  0  0  0
  1  2  1  0  0  0  0
  2  3  1  0  0  0  0
  2 12  1  0  0  0  0
  2 13  1  0  0  0  0
  3 15  1  0  0  0  0
  4  3  1  0  0  0  0
  4  7  1  0  0  0  0
  5  7  1  0  0  0  0
  5 18  1  0  0  0  0
  5  6  1  0  0  0  0
  6 21  1  0  0  0  0
  7 22  1  0  0  0  0
  8  6  1  0  0  0  0
  9  1  1  0  0  0  0
 10  1  1  0  0  0  0
 11  1  1  0  0  0  0
 14  3  1  0  0  0  0
 16  4  1  0  0  0  0
 17  4  1  0  0  0  0
 19  5  1  0  0  0  0
 20  6  1  0  0  0  0
 23  8  1  0  0  0  0
M  END
>  <HBA>
2

>  <HBD>
2

>  <TPSA>
32.26

>  <cid>
8132

>  <dipole>
2.83

>  <excitation_energy_1>
5.733

>  <excitation_energy_2>
6.179

>  <excitation_energy_3>
6.352

>  <excitation_energy_4>
6.422

>  <homo_energy>
-6.387

>  <homo_lumo_gap>
8.261

>  <logP>
0.759

>  <lumo_energy>
1.875

>  <melting_point>
19.23

>  <molecular_refractivity>
34.92

>  <oscillator_strength_1>
0.0047

>  <oscillator_strength_2>
0.023

>  <oscillator_strength_3>
0.0419

>  <oscillator_strength_4>
0.0183

>  <open_babel_can_smiles>
CCCCNCCO

>  <mulliken_charges>
23
1   -0.447325
2   -0.238434
3   -0.273744
4   -0.113174
5   -0.146511
6   -0.017744
7   -0.575094
8   -0.62934
9   0.144725
10   0.138078
11   0.151214
12   0.129976
13   0.142397
14   0.134311
15   0.125905
16   0.146685
17   0.115407
18   0.117209
19   0.151839
20   0.1403
21   0.107835
22   0.29566
23   0.399824

>  <lowdin_charges>
23
1   -0.446461
2   -0.273823
3   -0.282886
4   -0.201622
5   -0.221763
6   -0.134233
7   -0.365608
8   -0.474873
9   0.15143
10   0.145083
11   0.148407
12   0.139681
13   0.145872
14   0.146318
15   0.138724
16   0.143991
17   0.120128
18   0.124953
19   0.148029
20   0.143483
21   0.116587
22   0.252135
23   0.336448

$$$$

