PCCDB-ID:  15781
public computational chemistry database (PCCDB) project, http://pccdb.org

 28 28  0  0  0  0  0  0  0  0999 V2000
    4.1327    1.2017    1.2484 C   0  0  0  0  0  0  0  0  0  0  0  0
   -0.0404   -6.7120    2.1604 C   0  0  0  0  0  0  0  0  0  0  0  0
   -1.5194   -3.0663    3.9762 C   0  0  0  0  0  0  0  0  0  0  0  0
    3.0042    0.2221    1.5647 C   0  0  0  0  0  0  0  0  0  0  0  0
    2.7970   -3.6448    1.5229 C   0  0  0  0  0  0  0  0  0  0  0  0
    1.8982   -4.6832    1.7497 C   0  0  0  0  0  0  0  0  0  0  0  0
    1.0930   -2.0361    2.0855 C   0  0  0  0  0  0  0  0  0  0  0  0
    2.4110   -2.3083    1.6789 C   0  0  0  0  0  0  0  0  0  0  0  0
    3.4220   -1.2391    1.4134 C   0  0  0  0  0  0  0  0  0  0  0  0
    0.5824   -4.4049    2.1424 C   0  0  0  0  0  0  0  0  0  0  0  0
    0.1834   -3.0587    2.3195 C   0  0  0  0  0  0  0  0  0  0  0  0
    4.5634   -1.5290    1.0806 O   0  0  0  0  0  0  0  0  0  0  0  0
   -0.3743   -5.3454    2.3663 O   0  0  0  0  0  0  0  0  0  0  0  0
   -1.1107   -2.7340    2.6470 O   0  0  0  0  0  0  0  0  0  0  0  0
    3.7914    2.2344    1.3768 H   0  0  0  0  0  0  0  0  0  0  0  0
    4.4827    1.0772    0.2195 H   0  0  0  0  0  0  0  0  0  0  0  0
    4.9915    1.0352    1.9051 H   0  0  0  0  0  0  0  0  0  0  0  0
   -0.9503   -7.2746    2.3755 H   0  0  0  0  0  0  0  0  0  0  0  0
    0.7584   -7.0380    2.8386 H   0  0  0  0  0  0  0  0  0  0  0  0
    0.2651   -6.8962    1.1230 H   0  0  0  0  0  0  0  0  0  0  0  0
   -2.5399   -2.6906    4.0796 H   0  0  0  0  0  0  0  0  0  0  0  0
   -0.8754   -2.5742    4.7174 H   0  0  0  0  0  0  0  0  0  0  0  0
   -1.5093   -4.1480    4.1416 H   0  0  0  0  0  0  0  0  0  0  0  0
    2.1369    0.4046    0.9144 H   0  0  0  0  0  0  0  0  0  0  0  0
    2.6364    0.3726    2.5899 H   0  0  0  0  0  0  0  0  0  0  0  0
    3.8159   -3.8539    1.2145 H   0  0  0  0  0  0  0  0  0  0  0  0
    2.2225   -5.7085    1.6124 H   0  0  0  0  0  0  0  0  0  0  0  0
    0.7365   -1.0205    2.2204 H   0  0  0  0  0  0  0  0  0  0  0  0
  1 15  1  0  0  0  0
  1  4  1  0  0  0  0
  1 17  1  0  0  0  0
  2 13  1  0  0  0  0
  2 18  1  0  0  0  0
  2 19  1  0  0  0  0
  3 21  1  0  0  0  0
  3 23  1  0  0  0  0
  3 22  1  0  0  0  0
  4 25  1  0  0  0  0
  5  8  2  0  0  0  0
  5  6  1  0  0  0  0
  6 10  2  0  0  0  0
  7 28  1  0  0  0  0
  7 11  2  0  0  0  0
  8  7  1  0  0  0  0
  9  4  1  0  0  0  0
  9  8  1  0  0  0  0
 10 11  1  0  0  0  0
 10 13  1  0  0  0  0
 11 14  1  0  0  0  0
 12  9  2  0  0  0  0
 14  3  1  0  0  0  0
 16  1  1  0  0  0  0
 20  2  1  0  0  0  0
 24  4  1  0  0  0  0
 26  5  1  0  0  0  0
 27  6  1  0  0  0  0
M  END
>  <HBA>
3

>  <HBD>
0

>  <TPSA>
35.53

>  <cid>
15781

>  <dipole>
3.62

>  <excitation_energy_1>
3.836

>  <excitation_energy_2>
4.418

>  <excitation_energy_3>
4.765

>  <excitation_energy_4>
5.463

>  <homo_energy>
-6.052

>  <homo_lumo_gap>
4.874

>  <logP>
2.296

>  <lumo_energy>
-1.178

>  <melting_point>
49.76

>  <molecular_refractivity>
54.43

>  <oscillator_strength_1>
0.0002

>  <oscillator_strength_2>
0.179

>  <oscillator_strength_3>
0.1217

>  <oscillator_strength_4>
0.1129

>  <open_babel_can_smiles>
CCC(=O)c1ccc(c(c1)OC)OC

>  <mulliken_charges>
28
1   -0.431339
2   -0.219875
3   -0.211715
4   -0.35981
5   -0.16713
6   -0.206868
7   -0.241976
8   0.079392
9   0.402813
10   0.357222
11   0.316435
12   -0.472715
13   -0.502442
14   -0.520574
15   0.136187
16   0.160144
17   0.160201
18   0.175178
19   0.157521
20   0.161048
21   0.161127
22   0.139625
23   0.161841
24   0.1627
25   0.159779
26   0.161536
27   0.140328
28   0.141368

>  <lowdin_charges>
28
1   -0.437475
2   -0.275712
3   -0.273031
4   -0.307631
5   -0.126058
6   -0.20763
7   -0.165165
8   -0.064514
9   0.15646
10   0.089172
11   0.068714
12   -0.251612
13   -0.18615
14   -0.224414
15   0.147236
16   0.157614
17   0.159104
18   0.1663
19   0.149318
20   0.149763
21   0.156414
22   0.140201
23   0.147361
24   0.161963
25   0.159444
26   0.176052
27   0.164667
28   0.169607

$$$$

