PCCDB-ID:  28506
public computational chemistry database (PCCDB) project, http://pccdb.org

 28 29  0  0  0  0  0  0  0  0999 V2000
    2.7017   -1.3369   -0.3419 C   0  0  0  0  0  0  0  0  0  0  0  0
    5.0291   -0.6924    0.4532 C   0  0  0  0  0  0  0  0  0  0  0  0
   -0.3408    2.6281    5.0632 C   0  0  0  0  0  0  0  0  0  0  0  0
   -0.3218    1.2503    5.2077 C   0  0  0  0  0  0  0  0  0  0  0  0
    1.2818    2.5350    3.2195 C   0  0  0  0  0  0  0  0  0  0  0  0
    0.3982    4.6968    3.9642 C   0  0  0  0  0  0  0  0  0  0  0  0
    1.6289   -1.0979    3.2599 C   0  0  0  0  0  0  0  0  0  0  0  0
    3.5790   -0.9655    0.8727 C   0  0  0  0  0  0  0  0  0  0  0  0
    0.4537    3.2681    4.0769 C   0  0  0  0  0  0  0  0  0  0  0  0
    1.3114    1.1420    3.3537 C   0  0  0  0  0  0  0  0  0  0  0  0
    2.0255    0.0847    2.6644 C   0  0  0  0  0  0  0  0  0  0  0  0
    0.5076    0.5250    4.3464 C   0  0  0  0  0  0  0  0  0  0  0  0
    2.9728    0.2686    1.5543 C   0  0  0  0  0  0  0  0  0  0  0  0
    0.3435    5.8563    3.8827 N   0  0  0  0  0  0  0  0  0  0  0  0
    0.7269   -0.8385    4.2588 N   0  0  0  0  0  0  0  0  0  0  0  0
    3.2436    1.3947    1.1490 O   0  0  0  0  0  0  0  0  0  0  0  0
    3.1014   -2.2251   -0.8439 H   0  0  0  0  0  0  0  0  0  0  0  0
    2.6868   -0.5125   -1.0630 H   0  0  0  0  0  0  0  0  0  0  0  0
    1.6675   -1.5480   -0.0471 H   0  0  0  0  0  0  0  0  0  0  0  0
    5.4409   -1.5535   -0.0848 H   0  0  0  0  0  0  0  0  0  0  0  0
    5.6656   -0.4976    1.3235 H   0  0  0  0  0  0  0  0  0  0  0  0
    5.0764    0.1851   -0.1972 H   0  0  0  0  0  0  0  0  0  0  0  0
   -0.9681    3.2345    5.7078 H   0  0  0  0  0  0  0  0  0  0  0  0
   -0.9290    0.7595    5.9627 H   0  0  0  0  0  0  0  0  0  0  0  0
    1.8886    3.0232    2.4675 H   0  0  0  0  0  0  0  0  0  0  0  0
    1.9220   -2.1159    3.0468 H   0  0  0  0  0  0  0  0  0  0  0  0
    3.5679   -1.8080    1.5763 H   0  0  0  0  0  0  0  0  0  0  0  0
    0.2932   -1.5378    4.8430 H   0  0  0  0  0  0  0  0  0  0  0  0
  1 19  1  0  0  0  0
  1  8  1  0  0  0  0
  2  8  1  0  0  0  0
  2 21  1  0  0  0  0
  3  4  1  0  0  0  0
  3 23  1  0  0  0  0
  4 24  1  0  0  0  0
  5 10  2  0  0  0  0
  5  9  1  0  0  0  0
  6  9  1  0  0  0  0
  7 15  1  0  0  0  0
  8 13  1  0  0  0  0
  8 27  1  0  0  0  0
  9  3  2  0  0  0  0
 10 12  1  0  0  0  0
 11  7  2  0  0  0  0
 11 10  1  0  0  0  0
 12  4  2  0  0  0  0
 13 11  1  0  0  0  0
 14  6  3  0  0  0  0
 15 12  1  0  0  0  0
 15 28  1  0  0  0  0
 16 13  2  0  0  0  0
 17  1  1  0  0  0  0
 18  1  1  0  0  0  0
 20  2  1  0  0  0  0
 22  2  1  0  0  0  0
 25  5  1  0  0  0  0
 26  7  1  0  0  0  0
M  END
>  <HBA>
2

>  <HBD>
1

>  <TPSA>
56.65

>  <cid>
28506

>  <dipole>
9.43

>  <excitation_energy_1>
3.794

>  <excitation_energy_2>
4.369

>  <excitation_energy_3>
4.474

>  <excitation_energy_4>
5.039

>  <homo_energy>
-6.403

>  <homo_lumo_gap>
4.871

>  <logP>
2.878

>  <lumo_energy>
-1.532

>  <melting_point>
168.24

>  <molecular_refractivity>
62.82

>  <oscillator_strength_1>
0.0005

>  <oscillator_strength_2>
0.1486

>  <oscillator_strength_3>
0.0479

>  <oscillator_strength_4>
0.0009

>  <open_babel_can_smiles>
N#Cc1ccc2c(c1)c(c[nH]2)C(=O)C(C)C

>  <mulliken_charges>
28
1   -0.446663
2   -0.442245
3   -0.159881
4   -0.161638
5   -0.215324
6   0.236865
7   0.019529
8   -0.160369
9   0.125508
10   0.084139
11   0.003437
12   0.326892
13   0.413819
14   -0.486026
15   -0.694301
16   -0.493395
17   0.150199
18   0.168845
19   0.143842
20   0.137907
21   0.14754
22   0.174359
23   0.156792
24   0.140431
25   0.193506
26   0.176158
27   0.119544
28   0.340531

>  <lowdin_charges>
28
1   -0.438989
2   -0.441881
3   -0.139395
4   -0.180285
5   -0.122307
6   -0.0143
7   -0.096403
8   -0.149559
9   -0.031004
10   -0.015228
11   -0.092296
12   0.042631
13   0.161552
14   -0.126941
15   -0.180281
16   -0.257995
17   0.153905
18   0.161598
19   0.148345
20   0.149233
21   0.153241
22   0.165291
23   0.175751
24   0.166371
25   0.194547
26   0.17539
27   0.138433
28   0.300575

$$$$

