PCCDB-ID:  10723
public computational chemistry database (PCCDB) project, http://pccdb.org

 23 24  0  0  1  0  0  0  0  0999 V2000
    2.4635    0.7062   -0.0115 C   0  0  0  0  0  0  0  0  0  0  0  0
    2.4606   -0.6912   -0.0618 C   0  0  0  0  0  0  0  0  0  0  0  0
   -2.4807    0.7106   -0.3685 C   0  0  0  0  0  0  0  0  0  0  0  0
    1.2570    1.3983    0.0365 C   0  0  0  0  0  0  0  0  0  0  0  0
   -1.2679    1.5115    0.1180 C   0  0  0  0  0  0  0  0  0  0  0  0
    1.2481   -1.3727   -0.0628 C   0  0  0  0  0  0  0  0  0  0  0  0
   -2.5018   -0.6612    0.3125 C   0  0  0  0  0  0  0  0  0  0  0  0
    0.0273    0.7222    0.0417 C   0  0  0  0  0  0  0  0  0  0  0  0
    0.0266   -0.6838   -0.0044 C   0  0  0  0  0  0  0  0  0  0  0  0
   -1.2646   -1.4888   -0.0612 C   0  0  2  0  0  0  0  0  0  0  0  0
   -1.4149   -2.1036   -1.3532 O   0  0  0  0  0  0  0  0  0  0  0  0
    3.4031    1.2525   -0.0146 H   0  0  0  0  0  0  0  0  0  0  0  0
    3.3969   -1.2412   -0.1024 H   0  0  0  0  0  0  0  0  0  0  0  0
   -2.4300    0.5793   -1.4593 H   0  0  0  0  0  0  0  0  0  0  0  0
   -3.4058    1.2624   -0.1658 H   0  0  0  0  0  0  0  0  0  0  0  0
    1.2604    2.4862    0.0685 H   0  0  0  0  0  0  0  0  0  0  0  0
   -1.4416    1.8118    1.1633 H   0  0  0  0  0  0  0  0  0  0  0  0
   -1.1643    2.4454   -0.4487 H   0  0  0  0  0  0  0  0  0  0  0  0
    1.2325   -2.4588   -0.1155 H   0  0  0  0  0  0  0  0  0  0  0  0
   -3.3930   -1.2356    0.0379 H   0  0  0  0  0  0  0  0  0  0  0  0
   -2.5252   -0.5208    1.4032 H   0  0  0  0  0  0  0  0  0  0  0  0
   -1.1873   -2.3415    0.6232 H   0  0  0  0  0  0  0  0  0  0  0  0
   -1.2084   -1.4284   -2.0186 H   0  0  0  0  0  0  0  0  0  0  0  0
  1  4  2  0  0  0  0
  2  1  1  0  0  0  0
  3 15  1  0  0  0  0
  3  5  1  0  0  0  0
  3  7  1  0  0  0  0
  4  8  1  0  0  0  0
  4 16  1  0  0  0  0
  5 17  1  0  0  0  0
  6  2  2  0  0  0  0
  6  9  1  0  0  0  0
  7 21  1  0  0  0  0
  8  5  1  0  0  0  0
  9  8  2  0  0  0  0
 10  9  1  0  0  0  0
 10  7  1  0  0  0  0
 10 22  1  1  0  0  0
 11 10  1  0  0  0  0
 12  1  1  0  0  0  0
 13  2  1  0  0  0  0
 14  3  1  0  0  0  0
 18  5  1  0  0  0  0
 19  6  1  0  0  0  0
 20  7  1  0  0  0  0
 23 11  1  0  0  0  0
M  END
>  <HBA>
1

>  <HBD>
1

>  <TPSA>
20.23

>  <cid>
10723

>  <dipole>
1.74

>  <excitation_energy_1>
5.161

>  <excitation_energy_2>
5.672

>  <excitation_energy_3>
6.015

>  <excitation_energy_4>
6.073

>  <homo_energy>
-6.501

>  <homo_lumo_gap>
6.351

>  <logP>
2.056

>  <lumo_energy>
-0.15

>  <melting_point>
51.86

>  <molecular_refractivity>
45.04

>  <oscillator_strength_1>
0.0025

>  <oscillator_strength_2>
0.0148

>  <oscillator_strength_3>
0.0803

>  <oscillator_strength_4>
0.003

>  <open_babel_can_smiles>
O[C@@H]1CCCc2c1cccc2

>  <mulliken_charges>
23
1   -0.125387
2   -0.132866
3   -0.27896
4   -0.18913
5   -0.339593
6   -0.16969
7   -0.273423
8   0.121392
9   0.05837
10   0.069999
11   -0.624888
12   0.128304
13   0.128777
14   0.127741
15   0.138835
16   0.121165
17   0.153562
18   0.145364
19   0.136146
20   0.148378
21   0.131433
22   0.138651
23   0.385819

>  <lowdin_charges>
23
1   -0.154374
2   -0.162349
3   -0.276704
4   -0.16421
5   -0.275483
6   -0.148794
7   -0.290374
8   -0.013668
9   -0.044157
10   -0.000691
11   -0.468285
12   0.157437
13   0.157766
14   0.133857
15   0.149132
16   0.151727
17   0.151958
18   0.152024
19   0.159404
20   0.155444
21   0.14175
22   0.149381
23   0.339208

$$$$

