PCCDB-ID:  23621
public computational chemistry database (PCCDB) project, http://pccdb.org

 22 23  0  0  0  0  0  0  0  0999 V2000
   -0.7390    1.0720   -0.4910 C   0  0  0  0  0  0  0  0  0  0  0  0
    1.3613    0.1258    0.2737 C   0  0  0  0  0  0  0  0  0  0  0  0
   -1.2930   -0.2015   -0.5350 C   0  0  0  0  0  0  0  0  0  0  0  0
    0.7931   -1.1441    0.2250 C   0  0  0  0  0  0  0  0  0  0  0  0
    1.1718    2.5581   -0.0385 C   0  0  0  0  0  0  0  0  0  0  0  0
   -1.8897   -3.0849   -1.5380 C   0  0  0  0  0  0  0  0  0  0  0  0
   -2.5233   -2.8825    0.4629 C   0  0  0  0  0  0  0  0  0  0  0  0
    0.5963    1.2460   -0.0856 C   0  0  0  0  0  0  0  0  0  0  0  0
   -0.5364   -1.3313   -0.1771 C   0  0  0  0  0  0  0  0  0  0  0  0
   -1.1313   -2.7159   -0.2242 C   0  0  0  0  0  0  0  0  0  0  0  0
    1.6393    3.6230   -0.0002 N   0  0  0  0  0  0  0  0  0  0  0  0
   -3.1713   -2.7739   -0.8642 N   0  0  0  0  0  0  0  0  0  0  0  0
   -1.3308    1.9383   -0.7693 H   0  0  0  0  0  0  0  0  0  0  0  0
    2.3924    0.2565    0.5864 H   0  0  0  0  0  0  0  0  0  0  0  0
   -2.3247   -0.3354   -0.8494 H   0  0  0  0  0  0  0  0  0  0  0  0
    1.3938   -2.0059    0.5050 H   0  0  0  0  0  0  0  0  0  0  0  0
   -1.7521   -4.1444   -1.8017 H   0  0  0  0  0  0  0  0  0  0  0  0
   -1.6795   -2.4694   -2.4205 H   0  0  0  0  0  0  0  0  0  0  0  0
   -2.8191   -2.1065    1.1784 H   0  0  0  0  0  0  0  0  0  0  0  0
   -2.6202   -3.8672    0.9448 H   0  0  0  0  0  0  0  0  0  0  0  0
   -0.3831   -3.4492    0.0871 H   0  0  0  0  0  0  0  0  0  0  0  0
   -3.9311   -3.4287   -1.0383 H   0  0  0  0  0  0  0  0  0  0  0  0
  1  8  1  0  0  0  0
  2 14  1  0  0  0  0
  3  1  2  0  0  0  0
  3  9  1  0  0  0  0
  4  2  1  0  0  0  0
  4 16  1  0  0  0  0
  5 11  3  0  0  0  0
  6 12  1  0  0  0  0
  6 10  1  0  0  0  0
  7 20  1  0  0  0  0
  7 19  1  0  0  0  0
  8  5  1  0  0  0  0
  8  2  2  0  0  0  0
  9  4  2  0  0  0  0
 10  9  1  0  0  0  0
 10 21  1  0  0  0  0
 10  7  1  0  0  0  0
 12  7  1  0  0  0  0
 13  1  1  0  0  0  0
 15  3  1  0  0  0  0
 17  6  1  0  0  0  0
 18  6  1  0  0  0  0
 22 12  1  0  0  0  0
M  END
>  <HBA>
2

>  <HBD>
1

>  <TPSA>
35.82

>  <cid>
23621

>  <dipole>
6.37

>  <excitation_energy_1>
4.471

>  <excitation_energy_2>
4.992

>  <excitation_energy_3>
5.15

>  <excitation_energy_4>
5.255

>  <homo_energy>
-6.485

>  <homo_lumo_gap>
5.225

>  <logP>
1.574

>  <lumo_energy>
-1.26

>  <melting_point>
94.32

>  <molecular_refractivity>
50.34

>  <oscillator_strength_1>
0.0001

>  <oscillator_strength_2>
0.006

>  <oscillator_strength_3>
0.0

>  <oscillator_strength_4>
0.4017

>  <open_babel_can_smiles>
N#Cc1ccc(cc1)C1CNC1

>  <mulliken_charges>
22
1   -0.137437
2   -0.134849
3   -0.203493
4   -0.203597
5   0.235549
6   -0.121127
7   -0.120962
8   0.126283
9   0.206808
10   -0.234444
11   -0.48087
12   -0.557838
13   0.157778
14   0.156602
15   0.1751
16   0.137532
17   0.131601
18   0.150899
19   0.150864
20   0.131508
21   0.136249
22   0.297843

>  <lowdin_charges>
22
1   -0.132307
2   -0.131123
3   -0.15777
4   -0.165382
5   -0.013978
6   -0.195713
7   -0.19741
8   -0.025484
9   0.01486
10   -0.138476
11   -0.123656
12   -0.381448
13   0.174138
14   0.171794
15   0.178303
16   0.162097
17   0.132917
18   0.145362
19   0.14598
20   0.134019
21   0.150121
22   0.253158

$$$$

