PCCDB-ID:  56049
public computational chemistry database (PCCDB) project, http://pccdb.org

 30 29  0  0  0  0  0  0  0  0999 V2000
    5.5060   -3.1386   -0.6051 C   0  0  0  0  0  0  0  0  0  0  0  0
    6.4890   -3.6654   -2.8940 C   0  0  0  0  0  0  0  0  0  0  0  0
    4.3420    0.7900   -4.2209 C   0  0  0  0  0  0  0  0  0  0  0  0
    5.1753    1.1009   -2.9661 C   0  0  0  0  0  0  0  0  0  0  0  0
    2.9427    1.3887   -4.1345 C   0  0  0  0  0  0  0  0  0  0  0  0
    6.4736   -2.7143   -1.7018 C   0  0  0  0  0  0  0  0  0  0  0  0
    1.5533    0.0445   -5.5982 C   0  0  0  0  0  0  0  0  0  0  0  0
    6.8573   -0.5218   -2.7098 C   0  0  0  0  0  0  0  0  0  0  0  0
    0.9200   -0.2400   -6.6617 N   0  0  0  0  0  0  0  0  0  0  0  0
    6.5500    0.6415   -3.1127 N   0  0  0  0  0  0  0  0  0  0  0  0
    1.6179   -0.8378   -4.5706 O   0  0  0  0  0  0  0  0  0  0  0  0
    8.1292   -0.9809   -2.8365 O   0  0  0  0  0  0  0  0  0  0  0  0
    2.1972    1.2010   -5.3617 O   0  0  0  0  0  0  0  0  0  0  0  0
    6.0177   -1.3950   -2.1287 O   0  0  0  0  0  0  0  0  0  0  0  0
    4.4847   -3.2036   -0.9959 H   0  0  0  0  0  0  0  0  0  0  0  0
    5.5153   -2.4205    0.2205 H   0  0  0  0  0  0  0  0  0  0  0  0
    5.7899   -4.1215   -0.2142 H   0  0  0  0  0  0  0  0  0  0  0  0
    5.4882   -3.7451   -3.3329 H   0  0  0  0  0  0  0  0  0  0  0  0
    6.8055   -4.6646   -2.5737 H   0  0  0  0  0  0  0  0  0  0  0  0
    7.1855   -3.3167   -3.6613 H   0  0  0  0  0  0  0  0  0  0  0  0
    4.2667   -0.2958   -4.3453 H   0  0  0  0  0  0  0  0  0  0  0  0
    4.8535    1.1917   -5.1034 H   0  0  0  0  0  0  0  0  0  0  0  0
    4.6851    0.6652   -2.0834 H   0  0  0  0  0  0  0  0  0  0  0  0
    5.2082    2.1879   -2.8162 H   0  0  0  0  0  0  0  0  0  0  0  0
    2.9890    2.4761   -4.0239 H   0  0  0  0  0  0  0  0  0  0  0  0
    2.3766    0.9750   -3.2959 H   0  0  0  0  0  0  0  0  0  0  0  0
    7.4822   -2.6081   -1.2933 H   0  0  0  0  0  0  0  0  0  0  0  0
    0.9714    0.5321   -7.3253 H   0  0  0  0  0  0  0  0  0  0  0  0
    1.1030   -1.6060   -4.8735 H   0  0  0  0  0  0  0  0  0  0  0  0
    8.6124   -0.2441   -3.2512 H   0  0  0  0  0  0  0  0  0  0  0  0
  1 17  1  0  0  0  0
  1 16  1  0  0  0  0
  2 19  1  0  0  0  0
  2  6  1  0  0  0  0
  3  5  1  0  0  0  0
  3  4  1  0  0  0  0
  4 24  1  0  0  0  0
  4 23  1  0  0  0  0
  5 25  1  0  0  0  0
  5 26  1  0  0  0  0
  6 27  1  0  0  0  0
  6  1  1  0  0  0  0
  7 13  1  0  0  0  0
  7 11  1  0  0  0  0
  8 14  1  0  0  0  0
  9  7  2  0  0  0  0
 10  4  1  0  0  0  0
 10  8  2  0  0  0  0
 12  8  1  0  0  0  0
 13  5  1  0  0  0  0
 14  6  1  0  0  0  0
 15  1  1  0  0  0  0
 18  2  1  0  0  0  0
 20  2  1  0  0  0  0
 21  3  1  0  0  0  0
 22  3  1  0  0  0  0
 28  9  1  0  0  0  0
 29 11  1  0  0  0  0
 30 12  1  0  0  0  0
M  END
>  <HBA>
6

>  <HBD>
2

>  <TPSA>
90.65

>  <cid>
56049

>  <dipole>
3.35

>  <excitation_energy_1>
5.896

>  <excitation_energy_2>
6.078

>  <excitation_energy_3>
6.341

>  <excitation_energy_4>
6.494

>  <homo_energy>
-6.416

>  <homo_lumo_gap>
7.807

>  <logP>
1.698

>  <lumo_energy>
1.391

>  <melting_point>
99.09

>  <molecular_refractivity>
49.43

>  <oscillator_strength_1>
0.0053

>  <oscillator_strength_2>
0.0032

>  <oscillator_strength_3>
0.0152

>  <oscillator_strength_4>
0.0206

>  <open_babel_can_smiles>
CC(O/C(=N\CCCOC(=N)O)/O)C

>  <mulliken_charges>
30
1   -0.451979
2   -0.458202
3   -0.280746
4   -0.153084
5   -0.040594
6   0.134239
7   0.686326
8   0.733299
9   -0.660859
10   -0.503632
11   -0.595074
12   -0.608917
13   -0.473158
14   -0.49009
15   0.159175
16   0.160359
17   0.150226
18   0.155897
19   0.148423
20   0.170101
21   0.159448
22   0.15561
23   0.140626
24   0.13604
25   0.153168
26   0.166497
27   0.16151
28   0.295501
29   0.427149
30   0.422741

>  <lowdin_charges>
30
1   -0.446396
2   -0.455598
3   -0.292023
4   -0.194866
5   -0.125685
6   0.019377
7   0.186859
8   0.188485
9   -0.470192
10   -0.277202
11   -0.373125
12   -0.374257
13   -0.198349
14   -0.198477
15   0.157404
16   0.160656
17   0.157418
18   0.155904
19   0.157007
20   0.164932
21   0.152736
22   0.154253
23   0.137606
24   0.139586
25   0.150866
26   0.15515
27   0.151461
28   0.268943
29   0.37506
30   0.372464

$$$$

