PCCDB-ID:  48134
public computational chemistry database (PCCDB) project, http://pccdb.org

 32 35  0  0  1  0  0  0  0  0999 V2000
    0.9615    0.0649    0.1543 C   0  0  0  0  0  0  0  0  0  0  0  0
    3.1646    3.7492   -0.1688 C   0  0  0  0  0  0  0  0  0  0  0  0
    3.2591   -3.5847    0.0279 C   0  0  0  0  0  0  0  0  0  0  0  0
    4.5848    3.7660   -0.1434 C   0  0  0  0  0  0  0  0  0  0  0  0
    4.6793   -3.5625    0.0436 C   0  0  0  0  0  0  0  0  0  0  0  0
    2.4878    2.5622   -0.0815 C   0  0  0  0  0  0  0  0  0  0  0  0
    2.5517   -2.4123    0.0527 C   0  0  0  0  0  0  0  0  0  0  0  0
    5.2871    2.5961   -0.0344 C   0  0  0  0  0  0  0  0  0  0  0  0
    5.3461   -2.3674    0.0823 C   0  0  0  0  0  0  0  0  0  0  0  0
    7.6117   -0.3794    1.3039 C   0  0  0  0  0  0  0  0  0  0  0  0
    2.4749    0.0790    0.0985 C   0  0  0  0  0  0  0  0  0  0  0  0
    3.1731    1.3072    0.0292 C   0  0  0  0  0  0  0  0  0  0  0  0
    3.2012   -1.1342    0.0909 C   0  0  0  0  0  0  0  0  0  0  0  0
    4.6214    1.3282    0.0455 C   0  0  0  0  0  0  0  0  0  0  0  0
    4.6487   -1.1149    0.1035 C   0  0  0  0  0  0  0  0  0  0  0  0
    6.8403    0.1130    0.1467 C   0  0  1  0  0  0  0  0  0  0  0  0
    5.3380    0.1160    0.1273 C   0  0  0  0  0  0  0  0  0  0  0  0
    7.5169    1.0184    1.0376 O   0  0  0  0  0  0  0  0  0  0  0  0
    0.5703    0.9403    0.6770 H   0  0  0  0  0  0  0  0  0  0  0  0
    0.5843   -0.8076    0.6913 H   0  0  0  0  0  0  0  0  0  0  0  0
    0.5117    0.0534   -0.8481 H   0  0  0  0  0  0  0  0  0  0  0  0
    2.6149    4.6821   -0.2623 H   0  0  0  0  0  0  0  0  0  0  0  0
    2.7343   -4.5355   -0.0102 H   0  0  0  0  0  0  0  0  0  0  0  0
    5.1145    4.7124   -0.2102 H   0  0  0  0  0  0  0  0  0  0  0  0
    5.2350   -4.4961    0.0201 H   0  0  0  0  0  0  0  0  0  0  0  0
    1.4052    2.5736   -0.1230 H   0  0  0  0  0  0  0  0  0  0  0  0
    1.4696   -2.4564    0.0188 H   0  0  0  0  0  0  0  0  0  0  0  0
    6.3685    2.6221   -0.0051 H   0  0  0  0  0  0  0  0  0  0  0  0
    6.4301   -2.3631    0.0785 H   0  0  0  0  0  0  0  0  0  0  0  0
    8.5974   -0.8213    1.1517 H   0  0  0  0  0  0  0  0  0  0  0  0
    7.0754   -0.7221    2.1884 H   0  0  0  0  0  0  0  0  0  0  0  0
    7.3271    0.0442   -0.8305 H   0  0  0  0  0  0  0  0  0  0  0  0
  1 19  1  0  0  0  0
  1 20  1  0  0  0  0
  2  4  2  0  0  0  0
  2  6  1  0  0  0  0
  3  5  1  0  0  0  0
  3  7  2  0  0  0  0
  4  8  1  0  0  0  0
  5  9  2  0  0  0  0
  6 12  2  0  0  0  0
  7 13  1  0  0  0  0
  8 28  1  0  0  0  0
  8 14  2  0  0  0  0
  9 15  1  0  0  0  0
 10 31  1  0  0  0  0
 11  1  1  0  0  0  0
 12 14  1  0  0  0  0
 12 11  1  0  0  0  0
 13 11  2  0  0  0  0
 13 15  1  0  0  0  0
 14 17  1  0  0  0  0
 15 17  2  0  0  0  0
 16 32  1  6  0  0  0
 16 18  1  0  0  0  0
 16 10  1  0  0  0  0
 17 16  1  0  0  0  0
 18 10  1  0  0  0  0
 21  1  1  0  0  0  0
 22  2  1  0  0  0  0
 23  3  1  0  0  0  0
 24  4  1  0  0  0  0
 25  5  1  0  0  0  0
 26  6  1  0  0  0  0
 27  7  1  0  0  0  0
 29  9  1  0  0  0  0
 30 10  1  0  0  0  0
M  END
>  <HBA>
1

>  <HBD>
0

>  <TPSA>
12.53

>  <cid>
48134

>  <dipole>
1.77

>  <excitation_energy_1>
3.064

>  <excitation_energy_2>
3.777

>  <excitation_energy_3>
4.378

>  <excitation_energy_4>
4.673

>  <homo_energy>
-5.159

>  <homo_lumo_gap>
3.437

>  <logP>
4.373

>  <lumo_energy>
-1.722

>  <melting_point>
115.63

>  <molecular_refractivity>
75.16

>  <oscillator_strength_1>
0.0991

>  <oscillator_strength_2>
0.0007

>  <oscillator_strength_3>
0.0011

>  <oscillator_strength_4>
0.0056

>  <open_babel_can_smiles>
Cc1c2ccccc2c(c2c1cccc2)[C@@H]1CO1

>  <mulliken_charges>
32
1   -0.539675
2   -0.131025
3   -0.133977
4   -0.138758
5   -0.135838
6   -0.202128
7   -0.199695
8   -0.187293
9   -0.19862
10   -0.089721
11   0.043631
12   0.08071
13   0.0808
14   0.085192
15   0.104091
16   -0.03416
17   -0.003804
18   -0.439087
19   0.165225
20   0.16346
21   0.166562
22   0.128151
23   0.129081
24   0.13037
25   0.129203
26   0.128307
27   0.13013
28   0.166248
29   0.131908
30   0.146068
31   0.161965
32   0.162677

>  <lowdin_charges>
32
1   -0.449464
2   -0.157286
3   -0.160359
4   -0.158285
5   -0.158114
6   -0.16166
7   -0.157216
8   -0.151376
9   -0.161655
10   -0.161115
11   0.001324
12   -0.010552
13   -0.012019
14   0.001795
15   -0.004666
16   -0.027882
17   -0.029947
18   -0.279842
19   0.163036
20   0.162054
21   0.162722
22   0.158006
23   0.158372
24   0.158972
25   0.15851
26   0.157571
27   0.158319
28   0.173987
29   0.159569
30   0.151612
31   0.160164
32   0.155421

$$$$

