PCCDB-ID:  11356
public computational chemistry database (PCCDB) project, http://pccdb.org

 19 19  0  0  0  0  0  0  0  0999 V2000
    0.9224   -0.0361    0.0402 C   0  0  0  0  0  0  0  0  0  0  0  0
    3.1597    1.1261   -0.2045 C   0  0  0  0  0  0  0  0  0  0  0  0
    4.5302    1.0846   -0.3398 C   0  0  0  0  0  0  0  0  0  0  0  0
    3.0994   -1.2847   -0.1526 C   0  0  0  0  0  0  0  0  0  0  0  0
    2.4233   -0.0775   -0.1099 C   0  0  0  0  0  0  0  0  0  0  0  0
    4.5087   -1.3726   -0.2883 C   0  0  0  0  0  0  0  0  0  0  0  0
    5.2165   -0.1423   -0.3849 C   0  0  0  0  0  0  0  0  0  0  0  0
    5.1031   -2.5940   -0.2937 N   0  0  0  0  0  0  0  0  0  0  0  0
    6.6513   -0.0919   -0.5450 N   0  0  0  0  0  0  0  0  0  0  0  0
    7.1995    1.0100   -0.6168 O   0  0  0  0  0  0  0  0  0  0  0  0
    7.2900   -1.1614   -0.6085 O   0  0  0  0  0  0  0  0  0  0  0  0
    0.4570    0.4786   -0.8094 H   0  0  0  0  0  0  0  0  0  0  0  0
    0.6347    0.5146    0.9440 H   0  0  0  0  0  0  0  0  0  0  0  0
    0.4925   -1.0400    0.1039 H   0  0  0  0  0  0  0  0  0  0  0  0
    2.6452    2.0819   -0.1726 H   0  0  0  0  0  0  0  0  0  0  0  0
    5.1176    1.9911   -0.4180 H   0  0  0  0  0  0  0  0  0  0  0  0
    2.5408   -2.2153   -0.0765 H   0  0  0  0  0  0  0  0  0  0  0  0
    4.5288   -3.4201   -0.3570 H   0  0  0  0  0  0  0  0  0  0  0  0
    6.0931   -2.6434   -0.4916 H   0  0  0  0  0  0  0  0  0  0  0  0
  1 14  1  0  0  0  0
  1 13  1  0  0  0  0
  2 15  1  0  0  0  0
  2  5  2  0  0  0  0
  3  2  1  0  0  0  0
  4  5  1  0  0  0  0
  4 17  1  0  0  0  0
  5  1  1  0  0  0  0
  6  4  2  0  0  0  0
  7  3  2  0  0  0  0
  7  6  1  0  0  0  0
  8  6  1  0  0  0  0
  9  7  1  0  0  0  0
 10  9  2  0  0  0  0
 11  9  2  0  0  0  0
 12  1  1  0  0  0  0
 16  3  1  0  0  0  0
 18  8  1  0  0  0  0
 19  8  1  0  0  0  0
M  END
>  <HBA>
1

>  <HBD>
1

>  <TPSA>
71.84

>  <cid>
11356

>  <dipole>
5.24

>  <excitation_energy_1>
3.353

>  <excitation_energy_2>
3.829

>  <excitation_energy_3>
4.424

>  <excitation_energy_4>
4.502

>  <homo_energy>
-5.984

>  <homo_lumo_gap>
3.924

>  <logP>
2.59

>  <lumo_energy>
-2.06

>  <melting_point>
97.11

>  <molecular_refractivity>
44.63

>  <oscillator_strength_1>
0.0937

>  <oscillator_strength_2>
0.0002

>  <oscillator_strength_3>
0.0008

>  <oscillator_strength_4>
0.1964

>  <open_babel_can_smiles>
Cc1ccc(c(c1)N)N(=O)=O

>  <mulliken_charges>
19
1   -0.535742
2   -0.197444
3   -0.159785
4   -0.261276
5   0.199443
6   0.365681
7   0.250813
8   -0.819017
9   0.362526
10   -0.407634
11   -0.452101
12   0.171662
13   0.172348
14   0.159901
15   0.131326
16   0.180725
17   0.12223
18   0.335176
19   0.381169

>  <lowdin_charges>
19
1   -0.441424
2   -0.194427
3   -0.128253
4   -0.212828
5   0.035369
6   0.090446
7   -0.051045
8   -0.449589
9   0.313202
10   -0.259312
11   -0.293582
12   0.167723
13   0.167649
14   0.158654
15   0.161373
16   0.187403
17   0.155869
18   0.287364
19   0.305407

$$$$

