PCCDB-ID:  25512
public computational chemistry database (PCCDB) project, http://pccdb.org

 14 14  0  0  1  0  0  0  0  0999 V2000
    0.9165   -0.0748    0.0627 C   0  0  0  0  0  0  0  0  0  0  0  0
    3.8232    0.6582   -1.7623 C   0  0  0  0  0  0  0  0  0  0  0  0
    3.8232   -0.8125   -1.7603 C   0  0  0  0  0  0  0  0  0  0  0  0
    3.0381    1.1024   -0.7607 C   0  0  0  0  0  0  0  0  0  0  0  0
    3.0383   -1.2539   -0.7572 C   0  0  0  0  0  0  0  0  0  0  0  0
    2.4563   -0.0747   -0.0126 C   0  0  2  0  0  0  0  0  0  0  0  0
    0.5512    0.8128    0.5917 H   0  0  0  0  0  0  0  0  0  0  0  0
    0.5516   -0.9591    0.5974 H   0  0  0  0  0  0  0  0  0  0  0  0
    0.4814   -0.0781   -0.9419 H   0  0  0  0  0  0  0  0  0  0  0  0
    4.3761    1.2700   -2.4683 H   0  0  0  0  0  0  0  0  0  0  0  0
    4.3771   -1.4263   -2.4637 H   0  0  0  0  0  0  0  0  0  0  0  0
    2.8302    2.1356   -0.5035 H   0  0  0  0  0  0  0  0  0  0  0  0
    2.8292   -2.2863   -0.4980 H   0  0  0  0  0  0  0  0  0  0  0  0
    2.8456   -0.0731    1.0204 H   0  0  0  0  0  0  0  0  0  0  0  0
  1  7  1  0  0  0  0
  1  8  1  0  0  0  0
  2  3  1  0  0  0  0
  2  4  2  0  0  0  0
  3  5  2  0  0  0  0
  4 12  1  0  0  0  0
  4  6  1  0  0  0  0
  5 13  1  0  0  0  0
  5  6  1  0  0  0  0
  6  1  1  0  0  0  0
  6 14  1  1  0  0  0
  9  1  1  0  0  0  0
 10  2  1  0  0  0  0
 11  3  1  0  0  0  0
M  END
>  <HBA>
0

>  <HBD>
0

>  <TPSA>
0.0

>  <cid>
25512

>  <dipole>
0.42

>  <excitation_energy_1>
4.792

>  <excitation_energy_2>
5.551

>  <excitation_energy_3>
6.007

>  <excitation_energy_4>
6.011

>  <homo_energy>
-5.728

>  <homo_lumo_gap>
5.415

>  <logP>
1.748

>  <lumo_energy>
-0.313

>  <melting_point>
15.6

>  <molecular_refractivity>
27.89

>  <oscillator_strength_1>
0.0584

>  <oscillator_strength_2>
0.0131

>  <oscillator_strength_3>
0.0284

>  <oscillator_strength_4>
0.0206

>  <open_babel_can_smiles>
C[C@@H]1C=CC=C1

>  <mulliken_charges>
14
1   -0.440928
2   -0.123254
3   -0.123351
4   -0.12824
5   -0.128207
6   -0.163069
7   0.144862
8   0.144837
9   0.159449
10   0.125177
11   0.125185
12   0.125846
13   0.125846
14   0.155847

>  <lowdin_charges>
14
1   -0.432378
2   -0.170647
3   -0.17067
4   -0.176836
5   -0.176851
6   -0.117248
7   0.150812
8   0.150817
9   0.156023
10   0.156324
11   0.15633
12   0.155175
13   0.15519
14   0.163958

$$$$

