PCCDB-ID:  8923
public computational chemistry database (PCCDB) project, http://pccdb.org

 36 35  0  0  0  0  0  0  0  0999 V2000
    4.0297    1.1530   -2.6534 C   0  0  0  0  0  0  0  0  0  0  0  0
    3.9932    0.6044   -1.2233 C   0  0  0  0  0  0  0  0  0  0  0  0
    4.6660   -0.7685   -1.0895 C   0  0  0  0  0  0  0  0  0  0  0  0
   12.5494   -8.3865    1.3563 C   0  0  0  0  0  0  0  0  0  0  0  0
    4.6090   -1.3108    0.3413 C   0  0  0  0  0  0  0  0  0  0  0  0
   12.2192   -6.9084    1.2159 C   0  0  0  0  0  0  0  0  0  0  0  0
    6.5448   -2.7046    0.4745 C   0  0  0  0  0  0  0  0  0  0  0  0
   10.3197   -5.4983    0.9869 C   0  0  0  0  0  0  0  0  0  0  0  0
    6.9130   -4.1455    0.7991 C   0  0  0  0  0  0  0  0  0  0  0  0
    8.7997   -5.5464    1.0437 C   0  0  0  0  0  0  0  0  0  0  0  0
   11.9736   -9.1429    0.3057 O   0  0  0  0  0  0  0  0  0  0  0  0
    5.1326   -2.6247    0.4820 O   0  0  0  0  0  0  0  0  0  0  0  0
   10.8020   -6.8041    1.2464 O   0  0  0  0  0  0  0  0  0  0  0  0
    8.3252   -4.2417    0.7805 O   0  0  0  0  0  0  0  0  0  0  0  0
    3.5449    2.1337   -2.7167 H   0  0  0  0  0  0  0  0  0  0  0  0
    3.5138    0.4797   -3.3487 H   0  0  0  0  0  0  0  0  0  0  0  0
    5.0615    1.2668   -3.0078 H   0  0  0  0  0  0  0  0  0  0  0  0
    2.9492    0.5328   -0.8866 H   0  0  0  0  0  0  0  0  0  0  0  0
    4.4832    1.3187   -0.5463 H   0  0  0  0  0  0  0  0  0  0  0  0
    5.7107   -0.6912   -1.4201 H   0  0  0  0  0  0  0  0  0  0  0  0
    4.1785   -1.4931   -1.7554 H   0  0  0  0  0  0  0  0  0  0  0  0
   12.2078   -8.7404    2.3427 H   0  0  0  0  0  0  0  0  0  0  0  0
   13.6333   -8.5326    1.3016 H   0  0  0  0  0  0  0  0  0  0  0  0
    3.5650   -1.3801    0.6688 H   0  0  0  0  0  0  0  0  0  0  0  0
    5.1271   -0.6228    1.0313 H   0  0  0  0  0  0  0  0  0  0  0  0
   12.6072   -6.5254    0.2588 H   0  0  0  0  0  0  0  0  0  0  0  0
   12.6709   -6.3220    2.0331 H   0  0  0  0  0  0  0  0  0  0  0  0
    6.9715   -2.4336   -0.5025 H   0  0  0  0  0  0  0  0  0  0  0  0
    6.9822   -2.0302    1.2288 H   0  0  0  0  0  0  0  0  0  0  0  0
   10.6968   -4.7841    1.7355 H   0  0  0  0  0  0  0  0  0  0  0  0
   10.6453   -5.1472   -0.0049 H   0  0  0  0  0  0  0  0  0  0  0  0
    6.4614   -4.8199    0.0543 H   0  0  0  0  0  0  0  0  0  0  0  0
    6.5095   -4.4207    1.7865 H   0  0  0  0  0  0  0  0  0  0  0  0
    8.4746   -5.8960    2.0368 H   0  0  0  0  0  0  0  0  0  0  0  0
    8.4215   -6.2644    0.2978 H   0  0  0  0  0  0  0  0  0  0  0  0
   11.0397   -8.8758    0.2793 H   0  0  0  0  0  0  0  0  0  0  0  0
  1  2  1  0  0  0  0
  2  3  1  0  0  0  0
  2 18  1  0  0  0  0
  2 19  1  0  0  0  0
  3  5  1  0  0  0  0
  4 22  1  0  0  0  0
  5 12  1  0  0  0  0
  5 24  1  0  0  0  0
  5 25  1  0  0  0  0
  6 13  1  0  0  0  0
  6  4  1  0  0  0  0
  6 27  1  0  0  0  0
  7 12  1  0  0  0  0
  7  9  1  0  0  0  0
  7 29  1  0  0  0  0
  8 10  1  0  0  0  0
  8 13  1  0  0  0  0
  8 30  1  0  0  0  0
  9 33  1  0  0  0  0
 10 34  1  0  0  0  0
 11  4  1  0  0  0  0
 14  9  1  0  0  0  0
 14 10  1  0  0  0  0
 15  1  1  0  0  0  0
 16  1  1  0  0  0  0
 17  1  1  0  0  0  0
 20  3  1  0  0  0  0
 21  3  1  0  0  0  0
 23  4  1  0  0  0  0
 26  6  1  0  0  0  0
 28  7  1  0  0  0  0
 31  8  1  0  0  0  0
 32  9  1  0  0  0  0
 35 10  1  0  0  0  0
 36 11  1  0  0  0  0
M  END
>  <HBA>
4

>  <HBD>
1

>  <TPSA>
47.92

>  <cid>
8923

>  <dipole>
2.6

>  <excitation_energy_1>
6.58

>  <excitation_energy_2>
6.741

>  <excitation_energy_3>
6.836

>  <excitation_energy_4>
6.848

>  <homo_energy>
-6.827

>  <homo_lumo_gap>
8.784

>  <logP>
0.829

>  <lumo_energy>
1.957

>  <melting_point>
-37.45

>  <molecular_refractivity>
54.6

>  <oscillator_strength_1>
0.015

>  <oscillator_strength_2>
0.0089

>  <oscillator_strength_3>
0.0087

>  <oscillator_strength_4>
0.0001

>  <open_babel_can_smiles>
CCCCOCCOCCOCCO

>  <mulliken_charges>
36
1   -0.440128
2   -0.255563
3   -0.272537
4   -0.035861
5   -0.012021
6   -0.030748
7   -0.028836
8   -0.022503
9   -0.021604
10   -0.020245
11   -0.620748
12   -0.485226
13   -0.499205
14   -0.49141
15   0.144022
16   0.144797
17   0.143283
18   0.133927
19   0.133355
20   0.135942
21   0.142932
22   0.130424
23   0.145612
24   0.141177
25   0.117133
26   0.133956
27   0.122964
28   0.134889
29   0.128439
30   0.13545
31   0.137446
32   0.134092
33   0.133479
34   0.133998
35   0.130156
36   0.399162

>  <lowdin_charges>
36
1   -0.442804
2   -0.272019
3   -0.29223
4   -0.136147
5   -0.131508
6   -0.148063
7   -0.135145
8   -0.133415
9   -0.131901
10   -0.133008
11   -0.466115
12   -0.27383
13   -0.283505
14   -0.273938
15   0.150057
16   0.149413
17   0.146396
18   0.139142
19   0.141211
20   0.140539
21   0.148045
22   0.13154
23   0.148464
24   0.144166
25   0.127414
26   0.135284
27   0.133934
28   0.133332
29   0.132862
30   0.136838
31   0.135796
32   0.135926
33   0.133836
34   0.133741
35   0.133526
36   0.342167

$$$$

