PCCDB-ID:  53953
public computational chemistry database (PCCDB) project, http://pccdb.org

 39 39  0  0  0  0  0  0  0  0999 V2000
    6.2248   -0.4351   -2.8043 C   0  0  0  0  0  0  0  0  0  0  0  0
    3.5052    1.1234    0.1154 C   0  0  0  0  0  0  0  0  0  0  0  0
    3.7145   -6.9449   -4.5083 C   0  0  0  0  0  0  0  0  0  0  0  0
    6.3704   -4.2024   -1.1873 C   0  0  0  0  0  0  0  0  0  0  0  0
    5.1152    0.5778   -2.5178 C   0  0  0  0  0  0  0  0  0  0  0  0
    3.0274    0.9475   -1.3271 C   0  0  0  0  0  0  0  0  0  0  0  0
    4.9952   -5.5170   -2.8541 C   0  0  0  0  0  0  0  0  0  0  0  0
    2.8398   -4.7543   -3.6044 C   0  0  0  0  0  0  0  0  0  0  0  0
    4.1007   -3.4458   -2.0029 C   0  0  0  0  0  0  0  0  0  0  0  0
    3.1318   -0.5900   -3.2357 C   0  0  0  0  0  0  0  0  0  0  0  0
    3.8588   -5.7087   -3.6495 C   0  0  0  0  0  0  0  0  0  0  0  0
    5.1264   -4.3965   -2.0253 C   0  0  0  0  0  0  0  0  0  0  0  0
    2.9556   -3.6127   -2.7979 C   0  0  0  0  0  0  0  0  0  0  0  0
    1.9425   -1.4680   -2.8849 C   0  0  0  0  0  0  0  0  0  0  0  0
    1.8597   -2.7310   -2.7518 N   0  0  0  0  0  0  0  0  0  0  0  0
    3.8438   -0.0241   -2.0788 N   0  0  0  0  0  0  0  0  0  0  0  0
    0.7940   -0.7441   -2.7787 O   0  0  0  0  0  0  0  0  0  0  0  0
    5.9681   -1.1274   -3.6124 H   0  0  0  0  0  0  0  0  0  0  0  0
    6.4435   -1.0287   -1.9114 H   0  0  0  0  0  0  0  0  0  0  0  0
    7.1386    0.0924   -3.1018 H   0  0  0  0  0  0  0  0  0  0  0  0
    2.8511    1.8268    0.6437 H   0  0  0  0  0  0  0  0  0  0  0  0
    4.5259    1.5163    0.1774 H   0  0  0  0  0  0  0  0  0  0  0  0
    3.4813    0.1643    0.6430 H   0  0  0  0  0  0  0  0  0  0  0  0
    4.6869   -7.4035   -4.7167 H   0  0  0  0  0  0  0  0  0  0  0  0
    3.2366   -6.7147   -5.4671 H   0  0  0  0  0  0  0  0  0  0  0  0
    3.0943   -7.7038   -4.0127 H   0  0  0  0  0  0  0  0  0  0  0  0
    6.7863   -5.1613   -0.8590 H   0  0  0  0  0  0  0  0  0  0  0  0
    6.1628   -3.6006   -0.2962 H   0  0  0  0  0  0  0  0  0  0  0  0
    7.1570   -3.6856   -1.7537 H   0  0  0  0  0  0  0  0  0  0  0  0
    4.9551    1.2232   -3.4040 H   0  0  0  0  0  0  0  0  0  0  0  0
    5.4576    1.2401   -1.7174 H   0  0  0  0  0  0  0  0  0  0  0  0
    3.0023    1.9262   -1.8443 H   0  0  0  0  0  0  0  0  0  0  0  0
    1.9982    0.5849   -1.3105 H   0  0  0  0  0  0  0  0  0  0  0  0
    5.7891   -6.2616   -2.8730 H   0  0  0  0  0  0  0  0  0  0  0  0
    1.9361   -4.8829   -4.1947 H   0  0  0  0  0  0  0  0  0  0  0  0
    4.1763   -2.5682   -1.3673 H   0  0  0  0  0  0  0  0  0  0  0  0
    2.7686    0.1999   -3.9191 H   0  0  0  0  0  0  0  0  0  0  0  0
    3.8351   -1.2154   -3.7900 H   0  0  0  0  0  0  0  0  0  0  0  0
    0.0961   -1.3967   -2.5758 H   0  0  0  0  0  0  0  0  0  0  0  0
  1  5  1  0  0  0  0
  1 19  1  0  0  0  0
  2 22  1  0  0  0  0
  2 23  1  0  0  0  0
  2 21  1  0  0  0  0
  3 26  1  0  0  0  0
  3 11  1  0  0  0  0
  4 27  1  0  0  0  0
  4 28  1  0  0  0  0
  5 16  1  0  0  0  0
  5 31  1  0  0  0  0
  6 33  1  0  0  0  0
  6  2  1  0  0  0  0
  7 12  2  0  0  0  0
  8 13  1  0  0  0  0
  9 36  1  0  0  0  0
 10 14  1  0  0  0  0
 10 16  1  0  0  0  0
 11  8  2  0  0  0  0
 11  7  1  0  0  0  0
 12  9  1  0  0  0  0
 12  4  1  0  0  0  0
 13 15  1  0  0  0  0
 13  9  2  0  0  0  0
 14 17  1  0  0  0  0
 14 15  2  0  0  0  0
 16  6  1  0  0  0  0
 17 39  1  0  0  0  0
 18  1  1  0  0  0  0
 20  1  1  0  0  0  0
 24  3  1  0  0  0  0
 25  3  1  0  0  0  0
 29  4  1  0  0  0  0
 30  5  1  0  0  0  0
 32  6  1  0  0  0  0
 34  7  1  0  0  0  0
 35  8  1  0  0  0  0
 37 10  1  0  0  0  0
 38 10  1  0  0  0  0
M  END
>  <HBA>
3

>  <HBD>
1

>  <TPSA>
32.34

>  <cid>
53953

>  <dipole>
1.24

>  <excitation_energy_1>
4.474

>  <excitation_energy_2>
4.749

>  <excitation_energy_3>
4.802

>  <excitation_energy_4>
5.247

>  <homo_energy>
-5.625

>  <homo_lumo_gap>
5.353

>  <logP>
2.657

>  <lumo_energy>
-0.272

>  <melting_point>
68.25

>  <molecular_refractivity>
72.81

>  <oscillator_strength_1>
0.0852

>  <oscillator_strength_2>
0.0016

>  <oscillator_strength_3>
0.0879

>  <oscillator_strength_4>
0.0327

>  <open_babel_can_smiles>
CCN(C/C(=N\c1cc(C)cc(c1)C)/O)CC

>  <mulliken_charges>
39
1   -0.451853
2   -0.444189
3   -0.529019
4   -0.52986
5   -0.120078
6   -0.135536
7   -0.236824
8   -0.213671
9   -0.223541
10   -0.178495
11   0.178712
12   0.173278
13   0.245292
14   0.490552
15   -0.533809
16   -0.383526
17   -0.584291
18   0.156063
19   0.160091
20   0.141413
21   0.14258
22   0.144854
23   0.155567
24   0.152375
25   0.155652
26   0.16403
27   0.153854
28   0.156034
29   0.162255
30   0.114804
31   0.14354
32   0.11352
33   0.169855
34   0.107491
35   0.11724
36   0.146393
37   0.140368
38   0.172455
39   0.406425

>  <lowdin_charges>
39
1   -0.452203
2   -0.449379
3   -0.442549
4   -0.443768
5   -0.19934
6   -0.206021
7   -0.192864
8   -0.188019
9   -0.201342
10   -0.219228
11   0.005138
12   0.004404
13   0.044775
14   0.141603
15   -0.201138
16   -0.186917
17   -0.365102
18   0.152847
19   0.156417
20   0.152307
21   0.153431
22   0.145276
23   0.154213
24   0.155255
25   0.15722
26   0.162104
27   0.156631
28   0.157639
29   0.160159
30   0.120147
31   0.149953
32   0.120573
33   0.158384
34   0.149455
35   0.156751
36   0.165285
37   0.141515
38   0.168985
39   0.3574

$$$$

