PCCDB-ID:  6082
public computational chemistry database (PCCDB) project, http://pccdb.org

 32 32  0  0  1  0  0  0  0  0999 V2000
    3.4804   -0.8207    3.2119 C   0  0  0  0  0  0  0  0  0  0  0  0
    8.5381    3.7616    0.4738 C   0  0  0  0  0  0  0  0  0  0  0  0
    6.1137   -2.8706    0.5324 C   0  0  0  0  0  0  0  0  0  0  0  0
    7.6719    1.0612    0.4875 C   0  0  0  0  0  0  0  0  0  0  0  0
    7.1662   -0.2450    0.5030 C   0  0  0  0  0  0  0  0  0  0  0  0
    5.4212    1.8887    0.7388 C   0  0  0  0  0  0  0  0  0  0  0  0
    2.9311    0.3809    2.4390 C   0  0  1  0  0  0  0  0  0  0  0  0
    6.7952    2.1374    0.6104 C   0  0  0  0  0  0  0  0  0  0  0  0
    4.8974    0.5995    0.7638 C   0  0  0  0  0  0  0  0  0  0  0  0
    5.8015   -0.4814    0.6451 C   0  0  0  0  0  0  0  0  0  0  0  0
    3.3912    0.4334    0.9456 C   0  0  1  0  0  0  0  0  0  0  0  0
    1.4664    0.3779    2.5462 N   0  0  0  0  0  0  0  0  0  0  0  0
    2.8274   -0.6442    0.2035 O   0  0  0  0  0  0  0  0  0  0  0  0
    7.1609    3.4558    0.6061 O   0  0  0  0  0  0  0  0  0  0  0  0
    5.2537   -1.7512    0.6800 O   0  0  0  0  0  0  0  0  0  0  0  0
    4.5743   -0.8207    3.2386 H   0  0  0  0  0  0  0  0  0  0  0  0
    3.1512   -1.7604    2.7533 H   0  0  0  0  0  0  0  0  0  0  0  0
    3.1003   -0.7958    4.2370 H   0  0  0  0  0  0  0  0  0  0  0  0
    8.6081    4.8508    0.4964 H   0  0  0  0  0  0  0  0  0  0  0  0
    8.9455    3.3927   -0.4775 H   0  0  0  0  0  0  0  0  0  0  0  0
    9.1271    3.3439    1.3018 H   0  0  0  0  0  0  0  0  0  0  0  0
    5.4708   -3.7513    0.5795 H   0  0  0  0  0  0  0  0  0  0  0  0
    6.8506   -2.9163    1.3441 H   0  0  0  0  0  0  0  0  0  0  0  0
    6.6356   -2.8510   -0.4330 H   0  0  0  0  0  0  0  0  0  0  0  0
    8.7397    1.2103    0.3780 H   0  0  0  0  0  0  0  0  0  0  0  0
    7.8619   -1.0701    0.4042 H   0  0  0  0  0  0  0  0  0  0  0  0
    4.7562    2.7450    0.8131 H   0  0  0  0  0  0  0  0  0  0  0  0
    3.2949    1.2995    2.9198 H   0  0  0  0  0  0  0  0  0  0  0  0
    2.9251    1.3340    0.5247 H   0  0  0  0  0  0  0  0  0  0  0  0
    1.1222   -0.3683    1.9391 H   0  0  0  0  0  0  0  0  0  0  0  0
    1.0968    1.2408    2.1447 H   0  0  0  0  0  0  0  0  0  0  0  0
    3.4300   -1.4001    0.3084 H   0  0  0  0  0  0  0  0  0  0  0  0
  1 16  1  0  0  0  0
  1 18  1  0  0  0  0
  2 19  1  0  0  0  0
  2 14  1  0  0  0  0
  2 21  1  0  0  0  0
  3 22  1  0  0  0  0
  3 15  1  0  0  0  0
  3 23  1  0  0  0  0
  4  5  2  0  0  0  0
  4  8  1  0  0  0  0
  5 10  1  0  0  0  0
  6  9  1  0  0  0  0
  6 27  1  0  0  0  0
  7 12  1  0  0  0  0
  7 28  1  1  0  0  0
  7  1  1  0  0  0  0
  8  6  2  0  0  0  0
  9 11  1  0  0  0  0
 10 15  1  0  0  0  0
 10  9  2  0  0  0  0
 11 29  1  6  0  0  0
 11  7  1  0  0  0  0
 13 32  1  0  0  0  0
 13 11  1  0  0  0  0
 14  8  1  0  0  0  0
 17  1  1  0  0  0  0
 20  2  1  0  0  0  0
 24  3  1  0  0  0  0
 25  4  1  0  0  0  0
 26  5  1  0  0  0  0
 30 12  1  0  0  0  0
 31 12  1  0  0  0  0
M  END
>  <HBA>
4

>  <HBD>
2

>  <TPSA>
64.71

>  <cid>
6082

>  <dipole>
4.62

>  <excitation_energy_1>
4.609

>  <excitation_energy_2>
5.03

>  <excitation_energy_3>
5.055

>  <excitation_energy_4>
5.342

>  <homo_energy>
-5.557

>  <homo_lumo_gap>
5.372

>  <logP>
1.785

>  <lumo_energy>
-0.185

>  <melting_point>
90.91

>  <molecular_refractivity>
57.88

>  <oscillator_strength_1>
0.0842

>  <oscillator_strength_2>
0.0002

>  <oscillator_strength_3>
0.0356

>  <oscillator_strength_4>
0.0034

>  <open_babel_can_smiles>
COc1ccc(c(c1)[C@H]([C@@H](N)C)O)OC

>  <mulliken_charges>
32
1   -0.441722
2   -0.21323
3   -0.214422
4   -0.207728
5   -0.199166
6   -0.253898
7   0.020071
8   0.389493
9   0.115279
10   0.330574
11   0.052683
12   -0.705195
13   -0.660558
14   -0.512519
15   -0.55527
16   0.142803
17   0.13279
18   0.156409
19   0.170025
20   0.149723
21   0.149512
22   0.172765
23   0.15766
24   0.157762
25   0.132515
26   0.134005
27   0.137563
28   0.123765
29   0.126134
30   0.303431
31   0.286778
32   0.421966

>  <lowdin_charges>
32
1   -0.449205
2   -0.275938
3   -0.278006
4   -0.206253
5   -0.199843
6   -0.179831
7   -0.079743
8   0.090972
9   -0.029361
10   0.078142
11   -0.016049
12   -0.549817
13   -0.476122
14   -0.202788
15   -0.21697
16   0.148556
17   0.144239
18   0.157855
19   0.160838
20   0.14376
21   0.144685
22   0.164931
23   0.149219
24   0.148241
25   0.161647
26   0.16462
27   0.167302
28   0.139168
29   0.143437
30   0.257478
31   0.249414
32   0.345421

$$$$

