PCCDB-ID:  7410
public computational chemistry database (PCCDB) project, http://pccdb.org

 17 17  0  0  0  0  0  0  0  0999 V2000
    2.1735    1.5442   -0.3847 C   0  0  0  0  0  0  0  0  0  0  0  0
    4.3182   -2.6516   -2.6754 C   0  0  0  0  0  0  0  0  0  0  0  0
    3.5107   -3.1370   -1.6419 C   0  0  0  0  0  0  0  0  0  0  0  0
    4.4110   -1.2773   -2.9017 C   0  0  0  0  0  0  0  0  0  0  0  0
    2.7991   -2.2503   -0.8403 C   0  0  0  0  0  0  0  0  0  0  0  0
    3.6978   -0.3881   -2.0976 C   0  0  0  0  0  0  0  0  0  0  0  0
    2.0947    0.0418   -0.1635 C   0  0  0  0  0  0  0  0  0  0  0  0
    2.8846   -0.8659   -1.0591 C   0  0  0  0  0  0  0  0  0  0  0  0
    1.4002   -0.4161    0.7314 O   0  0  0  0  0  0  0  0  0  0  0  0
    1.8529    1.8136   -1.3981 H   0  0  0  0  0  0  0  0  0  0  0  0
    3.2010    1.9067   -0.2598 H   0  0  0  0  0  0  0  0  0  0  0  0
    1.5267    2.0378    0.3424 H   0  0  0  0  0  0  0  0  0  0  0  0
    4.8743   -3.3439   -3.3021 H   0  0  0  0  0  0  0  0  0  0  0  0
    3.4378   -4.2068   -1.4657 H   0  0  0  0  0  0  0  0  0  0  0  0
    5.0382   -0.8978   -3.7037 H   0  0  0  0  0  0  0  0  0  0  0  0
    2.1660   -2.6024   -0.0325 H   0  0  0  0  0  0  0  0  0  0  0  0
    3.7785    0.6784   -2.2841 H   0  0  0  0  0  0  0  0  0  0  0  0
  1 11  1  0  0  0  0
  1  7  1  0  0  0  0
  1 12  1  0  0  0  0
  2  3  1  0  0  0  0
  3 14  1  0  0  0  0
  3  5  2  0  0  0  0
  4  2  2  0  0  0  0
  4  6  1  0  0  0  0
  5 16  1  0  0  0  0
  6  8  2  0  0  0  0
  7  9  2  0  0  0  0
  8  5  1  0  0  0  0
  8  7  1  0  0  0  0
 10  1  1  0  0  0  0
 13  2  1  0  0  0  0
 15  4  1  0  0  0  0
 17  6  1  0  0  0  0
M  END
>  <HBA>
1

>  <HBD>
0

>  <TPSA>
17.07

>  <cid>
7410

>  <dipole>
3.0

>  <excitation_energy_1>
3.737

>  <excitation_energy_2>
4.73

>  <excitation_energy_3>
5.163

>  <excitation_energy_4>
5.545

>  <homo_energy>
-6.724

>  <homo_lumo_gap>
5.252

>  <logP>
1.889

>  <lumo_energy>
-1.472

>  <melting_point>
38.21

>  <molecular_refractivity>
36.64

>  <oscillator_strength_1>
0.0001

>  <oscillator_strength_2>
0.0221

>  <oscillator_strength_3>
0.2458

>  <oscillator_strength_4>
0.0

>  <open_babel_can_smiles>
CC(=O)c1ccccc1

>  <mulliken_charges>
17
1   -0.543131
2   -0.11991
3   -0.13092
4   -0.132218
5   -0.158644
6   -0.182468
7   0.407837
8   0.076596
9   -0.452214
10   0.170211
11   0.171094
12   0.181742
13   0.137765
14   0.138524
15   0.135917
16   0.164995
17   0.134824

>  <lowdin_charges>
17
1   -0.475911
2   -0.141288
3   -0.153141
4   -0.157793
5   -0.127568
6   -0.148256
7   0.161698
8   -0.051904
9   -0.241926
10   0.168645
11   0.169172
12   0.176389
13   0.162918
14   0.159969
15   0.16137
16   0.177733
17   0.159892

$$$$

