PCCDB-ID:  70313
public computational chemistry database (PCCDB) project, http://pccdb.org

 21 22  0  0  0  0  0  0  0  0999 V2000
   -2.2162   -1.4844   -0.1319 C   0  0  0  0  0  0  0  0  0  0  0  0
   -2.5020   -0.0978   -0.0745 C   0  0  0  0  0  0  0  0  0  0  0  0
   -0.9126   -1.9533   -0.1227 C   0  0  0  0  0  0  0  0  0  0  0  0
   -1.4999    0.8593   -0.0058 C   0  0  0  0  0  0  0  0  0  0  0  0
    1.4202    2.3760    0.1354 C   0  0  0  0  0  0  0  0  0  0  0  0
    1.3500    3.0682   -1.2298 C   0  0  0  0  0  0  0  0  0  0  0  0
    0.1170   -1.0005   -0.0520 C   0  0  0  0  0  0  0  0  0  0  0  0
   -0.1796    0.3775    0.0062 C   0  0  0  0  0  0  0  0  0  0  0  0
    1.4867   -1.1587   -0.0203 N   0  0  0  0  0  0  0  0  0  0  0  0
    2.0315    0.0110    0.0546 N   0  0  0  0  0  0  0  0  0  0  0  0
    1.0536    0.9688    0.0773 N   0  0  0  0  0  0  0  0  0  0  0  0
    0.0268    3.1481   -1.7384 O   0  0  0  0  0  0  0  0  0  0  0  0
   -3.0413   -2.1885   -0.1870 H   0  0  0  0  0  0  0  0  0  0  0  0
   -3.5391    0.2255   -0.0892 H   0  0  0  0  0  0  0  0  0  0  0  0
   -0.6805   -3.0124   -0.1686 H   0  0  0  0  0  0  0  0  0  0  0  0
   -1.7207    1.9210    0.0161 H   0  0  0  0  0  0  0  0  0  0  0  0
    0.7522    2.8802    0.8417 H   0  0  0  0  0  0  0  0  0  0  0  0
    2.4400    2.4123    0.5287 H   0  0  0  0  0  0  0  0  0  0  0  0
    2.0264    2.5615   -1.9331 H   0  0  0  0  0  0  0  0  0  0  0  0
    1.6968    4.1005   -1.1131 H   0  0  0  0  0  0  0  0  0  0  0  0
   -0.2223    2.2703   -2.0667 H   0  0  0  0  0  0  0  0  0  0  0  0
  1  3  2  0  0  0  0
  1  2  1  0  0  0  0
  2  4  2  0  0  0  0
  3  7  1  0  0  0  0
  4  8  1  0  0  0  0
  4 16  1  0  0  0  0
  5 18  1  0  0  0  0
  5 17  1  0  0  0  0
  6 20  1  0  0  0  0
  6  5  1  0  0  0  0
  7  9  1  0  0  0  0
  7  8  2  0  0  0  0
  8 11  1  0  0  0  0
  9 10  2  0  0  0  0
 10 11  1  0  0  0  0
 11  5  1  0  0  0  0
 12  6  1  0  0  0  0
 13  1  1  0  0  0  0
 14  2  1  0  0  0  0
 15  3  1  0  0  0  0
 19  6  1  0  0  0  0
 21 12  1  0  0  0  0
M  END
>  <HBA>
4

>  <HBD>
1

>  <TPSA>
50.94

>  <cid>
70313

>  <dipole>
2.6

>  <excitation_energy_1>
4.648

>  <excitation_energy_2>
4.925

>  <excitation_energy_3>
5.105

>  <excitation_energy_4>
5.77

>  <homo_energy>
-6.449

>  <homo_lumo_gap>
5.23

>  <logP>
0.424

>  <lumo_energy>
-1.219

>  <melting_point>
99.78

>  <molecular_refractivity>
44.76

>  <oscillator_strength_1>
0.0864

>  <oscillator_strength_2>
0.0033

>  <oscillator_strength_3>
0.0815

>  <oscillator_strength_4>
0.0191

>  <open_babel_can_smiles>
OCCn1nnc2c1cccc2

>  <mulliken_charges>
21
1   -0.145863
2   -0.144364
3   -0.150119
4   -0.175315
5   -0.15947
6   -0.046083
7   0.236564
8   0.345386
9   -0.363786
10   -0.050802
11   -0.398106
12   -0.610297
13   0.13687
14   0.139463
15   0.152761
16   0.160624
17   0.173526
18   0.184304
19   0.151233
20   0.159198
21   0.404275

>  <lowdin_charges>
21
1   -0.166993
2   -0.146621
3   -0.141151
4   -0.185524
5   -0.212905
6   -0.140259
7   -0.015653
8   0.001151
9   -0.127062
10   -0.071226
11   0.00965
12   -0.462468
13   0.163442
14   0.162182
15   0.171583
16   0.170669
17   0.165817
18   0.17634
19   0.145081
20   0.155389
21   0.348558

$$$$

