PCCDB-ID:  23357
public computational chemistry database (PCCDB) project, http://pccdb.org

 24 23  0  0  1  0  0  0  0  0999 V2000
    1.0817   -0.3503    0.2222 C   0  0  0  0  0  0  0  0  0  0  0  0
    4.5384    2.1942    4.3927 C   0  0  0  0  0  0  0  0  0  0  0  0
    6.9761    3.9054    0.9020 C   0  0  0  0  0  0  0  0  0  0  0  0
    2.5738   -0.0186    0.1182 C   0  0  0  0  0  0  0  0  0  0  0  0
    4.7166    2.3880    3.2135 C   0  0  0  0  0  0  0  0  0  0  0  0
    6.4542    2.8837    1.5777 C   0  0  0  0  0  0  0  0  0  0  0  0
    2.9909    1.1503    1.0204 C   0  0  0  0  0  0  0  0  0  0  0  0
    4.4803    1.4878    0.8917 C   0  0  0  0  0  0  0  0  0  0  0  0
    4.9576    2.6649    1.7786 C   0  0  1  0  0  0  0  0  0  0  0  0
    4.1974    3.8035    1.3638 O   0  0  0  0  0  0  0  0  0  0  0  0
    0.8133   -1.1950   -0.4228 H   0  0  0  0  0  0  0  0  0  0  0  0
    0.4641    0.5060   -0.0754 H   0  0  0  0  0  0  0  0  0  0  0  0
    0.8056   -0.6145    1.2505 H   0  0  0  0  0  0  0  0  0  0  0  0
    4.3787    2.0249    5.4336 H   0  0  0  0  0  0  0  0  0  0  0  0
    8.0498    4.0098    0.7752 H   0  0  0  0  0  0  0  0  0  0  0  0
    6.3449    4.6608    0.4436 H   0  0  0  0  0  0  0  0  0  0  0  0
    2.8233    0.2177   -0.9262 H   0  0  0  0  0  0  0  0  0  0  0  0
    3.1647   -0.9090    0.3773 H   0  0  0  0  0  0  0  0  0  0  0  0
    7.0952    2.1247    2.0235 H   0  0  0  0  0  0  0  0  0  0  0  0
    2.7613    0.9049    2.0660 H   0  0  0  0  0  0  0  0  0  0  0  0
    2.4006    2.0401    0.7721 H   0  0  0  0  0  0  0  0  0  0  0  0
    4.7177    1.7677   -0.1421 H   0  0  0  0  0  0  0  0  0  0  0  0
    5.0904    0.6088    1.1359 H   0  0  0  0  0  0  0  0  0  0  0  0
    4.4322    4.5347    1.9587 H   0  0  0  0  0  0  0  0  0  0  0  0
  1 13  1  0  0  0  0
  2 14  1  0  0  0  0
  3  6  2  0  0  0  0
  4  1  1  0  0  0  0
  4 18  1  0  0  0  0
  4  7  1  0  0  0  0
  5  2  3  0  0  0  0
  6  9  1  0  0  0  0
  6 19  1  0  0  0  0
  7 20  1  0  0  0  0
  8  7  1  0  0  0  0
  8 23  1  0  0  0  0
  8  9  1  0  0  0  0
  9  5  1  1  0  0  0
 10  9  1  0  0  0  0
 10 24  1  0  0  0  0
 11  1  1  0  0  0  0
 12  1  1  0  0  0  0
 15  3  1  0  0  0  0
 16  3  1  0  0  0  0
 17  4  1  0  0  0  0
 21  7  1  0  0  0  0
 22  8  1  0  0  0  0
M  END
>  <HBA>
1

>  <HBD>
1

>  <TPSA>
20.23

>  <cid>
23357

>  <dipole>
1.19

>  <excitation_energy_1>
6.21

>  <excitation_energy_2>
6.311

>  <excitation_energy_3>
6.393

>  <excitation_energy_4>
6.476

>  <homo_energy>
-7.086

>  <homo_lumo_gap>
7.344

>  <logP>
1.727

>  <lumo_energy>
0.259

>  <melting_point>
-2.16

>  <molecular_refractivity>
44.26

>  <oscillator_strength_1>
0.0008

>  <oscillator_strength_2>
0.0175

>  <oscillator_strength_3>
0.0134

>  <oscillator_strength_4>
0.0208

>  <open_babel_can_smiles>
CCCC[C@@](C#C)(C=C)O

>  <mulliken_charges>
24
1   -0.441198
2   -0.5047
3   -0.34617
4   -0.249705
5   0.319156
6   -0.071253
7   -0.25696
8   -0.257581
9   0.152743
10   -0.631881
11   0.140158
12   0.143206
13   0.141606
14   0.193119
15   0.144397
16   0.150385
17   0.130846
18   0.127804
19   0.139226
20   0.139824
21   0.154338
22   0.151407
23   0.136425
24   0.394808

>  <lowdin_charges>
24
1   -0.444445
2   -0.248825
3   -0.337286
4   -0.270254
5   -0.052265
6   -0.159581
7   -0.277954
8   -0.267941
9   0.133452
10   -0.437112
11   0.149101
12   0.147961
13   0.14554
14   0.205293
15   0.161171
16   0.1644
17   0.137392
18   0.137558
19   0.162492
20   0.145347
21   0.152645
22   0.154364
23   0.149533
24   0.349414

$$$$

