PCCDB-ID:  18463
public computational chemistry database (PCCDB) project, http://pccdb.org

 18 20  0  0  1  0  0  0  0  0999 V2000
   -1.2054   -0.8102   -0.4745 C   0  0  0  0  0  0  0  0  0  0  0  0
   -1.2793    0.7562   -0.5202 C   0  0  0  0  0  0  0  0  0  0  0  0
    0.0060    0.0871    1.3871 C   0  0  0  0  0  0  0  0  0  0  0  0
    0.0690   -1.0797    0.3776 C   0  0  2  0  0  0  0  0  0  0  0  0
   -0.0391    1.1940    0.3116 C   0  0  1  0  0  0  0  0  0  0  0  0
    1.2305   -0.6460   -0.5224 C   0  0  1  0  0  0  0  0  0  0  0  0
    1.1603    0.8216   -0.5652 C   0  0  2  0  0  0  0  0  0  0  0  0
    2.2505    0.1571    0.1009 O   0  0  0  0  0  0  0  0  0  0  0  0
   -1.1369   -1.2548   -1.4739 H   0  0  0  0  0  0  0  0  0  0  0  0
   -2.0905   -1.2375    0.0090 H   0  0  0  0  0  0  0  0  0  0  0  0
   -2.2022    1.1251   -0.0595 H   0  0  0  0  0  0  0  0  0  0  0  0
   -1.2508    1.1473   -1.5439 H   0  0  0  0  0  0  0  0  0  0  0  0
    0.8823    0.1476    2.0333 H   0  0  0  0  0  0  0  0  0  0  0  0
   -0.9019    0.0619    1.9986 H   0  0  0  0  0  0  0  0  0  0  0  0
    0.1379   -2.0874    0.7959 H   0  0  0  0  0  0  0  0  0  0  0  0
   -0.0677    2.2264    0.6703 H   0  0  0  0  0  0  0  0  0  0  0  0
    1.5563   -1.2575   -1.3618 H   0  0  0  0  0  0  0  0  0  0  0  0
    1.4282    1.4118   -1.4397 H   0  0  0  0  0  0  0  0  0  0  0  0
  1 10  1  0  0  0  0
  1  4  1  0  0  0  0
  2  1  1  0  0  0  0
  2 11  1  0  0  0  0
  2  5  1  0  0  0  0
  3 14  1  0  0  0  0
  3 13  1  0  0  0  0
  4 15  1  1  0  0  0
  4  3  1  0  0  0  0
  5 16  1  1  0  0  0
  5  3  1  0  0  0  0
  6 17  1  6  0  0  0
  6  8  1  0  0  0  0
  6  4  1  0  0  0  0
  7 18  1  6  0  0  0
  7  6  1  0  0  0  0
  7  8  1  0  0  0  0
  7  5  1  0  0  0  0
  9  1  1  0  0  0  0
 12  2  1  0  0  0  0
M  END
>  <HBA>
1

>  <HBD>
0

>  <TPSA>
12.53

>  <cid>
18463

>  <dipole>
2.06

>  <excitation_energy_1>
6.512

>  <excitation_energy_2>
6.894

>  <excitation_energy_3>
6.967

>  <excitation_energy_4>
6.992

>  <homo_energy>
-6.901

>  <homo_lumo_gap>
9.355

>  <logP>
1.184

>  <lumo_energy>
2.454

>  <melting_point>
31.56

>  <molecular_refractivity>
30.51

>  <oscillator_strength_1>
0.0072

>  <oscillator_strength_2>
0.0185

>  <oscillator_strength_3>
0.0077

>  <oscillator_strength_4>
0.0011

>  <open_babel_can_smiles>
C1C[C@H]2C[C@@H]1[C@H]1[C@@H]2O1

>  <mulliken_charges>
18
1   -0.273826
2   -0.273984
3   -0.28173
4   -0.134714
5   -0.134463
6   0.084318
7   0.084157
8   -0.462739
9   0.136811
10   0.141502
11   0.1414
12   0.136791
13   0.168479
14   0.132226
15   0.126727
16   0.126756
17   0.141142
18   0.141148

>  <lowdin_charges>
18
1   -0.282819
2   -0.282102
3   -0.283219
4   -0.140702
5   -0.140334
6   -0.040536
7   -0.03949
8   -0.281342
9   0.14355
10   0.147708
11   0.1473
12   0.143186
13   0.162573
14   0.146219
15   0.145905
16   0.145543
17   0.154445
18   0.154114

$$$$

