PCCDB-ID:  71181
public computational chemistry database (PCCDB) project, http://pccdb.org

  8  7  0  0  0  0  0  0  0  0999 V2000
    1.1588    0.2598    0.2361 O   0  0  0  0  0  0  0  0  0  0  0  0
    2.6447   -1.3926   -1.0959 O   0  0  0  0  0  0  0  0  0  0  0  0
    2.6689    1.0612   -1.5439 O   0  0  0  0  0  0  0  0  0  0  0  0
    3.6892    0.1271    0.7387 O   0  0  0  0  0  0  0  0  0  0  0  0
    2.6533    0.0270   -0.3030 P   0  0  0  0  0  0  0  0  0  0  0  0
    0.5040    0.2995   -0.4808 H   0  0  0  0  0  0  0  0  0  0  0  0
    3.0453   -2.0788   -0.5360 H   0  0  0  0  0  0  0  0  0  0  0  0
    3.4995    1.0117   -2.0453 H   0  0  0  0  0  0  0  0  0  0  0  0
  2  7  1  0  0  0  0
  2  5  1  0  0  0  0
  3  5  1  0  0  0  0
  5  1  1  0  0  0  0
  5  4  2  0  0  0  0
  6  1  1  0  0  0  0
  8  3  1  0  0  0  0
M  END
>  <HBA>
4

>  <HBD>
3

>  <TPSA>
87.57

>  <cid>
71181

>  <dipole>
3.39

>  <excitation_energy_1>
6.693

>  <excitation_energy_2>
6.855

>  <excitation_energy_3>
7.782

>  <excitation_energy_4>
7.965

>  <homo_energy>
-8.144

>  <homo_lumo_gap>
8.648

>  <logP>
-0.929

>  <lumo_energy>
0.503

>  <melting_point>
101.55

>  <molecular_refractivity>
14.26

>  <oscillator_strength_1>
0.018

>  <oscillator_strength_2>
0.0145

>  <oscillator_strength_3>
0.0226

>  <oscillator_strength_4>
0.0023

>  <open_babel_can_smiles>
OP(=O)(O)O

>  <mulliken_charges>
8
1   -0.618628
2   -0.651042
3   -0.644441
4   -0.529226
5   1.11667
6   0.441069
7   0.441932
8   0.443666

>  <lowdin_charges>
8
1   -0.553689
2   -0.583023
3   -0.567432
4   -0.572477
5   1.113827
6   0.387844
7   0.387878
8   0.387072

$$$$

