PCCDB-ID:  69842
public computational chemistry database (PCCDB) project, http://pccdb.org

 25 25  0  0  0  0  0  0  0  0999 V2000
   -0.7391   -1.3035    0.9550 C   0  0  0  0  0  0  0  0  0  0  0  0
    0.8073   -1.3040    0.7678 C   0  0  0  0  0  0  0  0  0  0  0  0
   -1.3590    1.3628   -2.2412 C   0  0  0  0  0  0  0  0  0  0  0  0
   -1.1864    0.1697    0.7737 C   0  0  0  0  0  0  0  0  0  0  0  0
    1.1966    0.1737    0.5232 C   0  0  0  0  0  0  0  0  0  0  0  0
   -0.2077    0.5925   -1.5804 C   0  0  0  0  0  0  0  0  0  0  0  0
   -1.4626    1.1059   -3.7458 C   0  0  0  0  0  0  0  0  0  0  0  0
   -0.0697    0.8352   -0.0637 C   0  0  0  0  0  0  0  0  0  0  0  0
   -2.4862    1.8713   -4.3731 O   0  0  0  0  0  0  0  0  0  0  0  0
   -1.0368   -1.6930    1.9343 H   0  0  0  0  0  0  0  0  0  0  0  0
   -1.2161   -1.9485    0.2085 H   0  0  0  0  0  0  0  0  0  0  0  0
    1.0887   -1.9235   -0.0912 H   0  0  0  0  0  0  0  0  0  0  0  0
    1.3305   -1.7204    1.6350 H   0  0  0  0  0  0  0  0  0  0  0  0
   -1.2304    2.4417   -2.0821 H   0  0  0  0  0  0  0  0  0  0  0  0
   -2.3151    1.0899   -1.7696 H   0  0  0  0  0  0  0  0  0  0  0  0
   -1.2426    0.6661    1.7507 H   0  0  0  0  0  0  0  0  0  0  0  0
   -2.1801    0.2546    0.3199 H   0  0  0  0  0  0  0  0  0  0  0  0
    2.0742    0.2813   -0.1250 H   0  0  0  0  0  0  0  0  0  0  0  0
    1.4425    0.6567    1.4778 H   0  0  0  0  0  0  0  0  0  0  0  0
    0.7340    0.8863   -2.0663 H   0  0  0  0  0  0  0  0  0  0  0  0
   -0.3269   -0.4830   -1.7776 H   0  0  0  0  0  0  0  0  0  0  0  0
   -1.6002    0.0277   -3.9363 H   0  0  0  0  0  0  0  0  0  0  0  0
   -0.5330    1.4029   -4.2440 H   0  0  0  0  0  0  0  0  0  0  0  0
   -0.0519    1.9208    0.1034 H   0  0  0  0  0  0  0  0  0  0  0  0
   -3.3295    1.6119   -3.9702 H   0  0  0  0  0  0  0  0  0  0  0  0
  1 10  1  0  0  0  0
  2  1  1  0  0  0  0
  2 13  1  0  0  0  0
  3 14  1  0  0  0  0
  3 15  1  0  0  0  0
  3  6  1  0  0  0  0
  4  1  1  0  0  0  0
  4 16  1  0  0  0  0
  5  2  1  0  0  0  0
  5 19  1  0  0  0  0
  6  8  1  0  0  0  0
  7  3  1  0  0  0  0
  8 24  1  0  0  0  0
  8  5  1  0  0  0  0
  8  4  1  0  0  0  0
  9 25  1  0  0  0  0
  9  7  1  0  0  0  0
 11  1  1  0  0  0  0
 12  2  1  0  0  0  0
 17  4  1  0  0  0  0
 18  5  1  0  0  0  0
 20  6  1  0  0  0  0
 21  6  1  0  0  0  0
 22  7  1  0  0  0  0
 23  7  1  0  0  0  0
M  END
>  <HBA>
1

>  <HBD>
1

>  <TPSA>
20.23

>  <cid>
69842

>  <dipole>
1.79

>  <excitation_energy_1>
6.386

>  <excitation_energy_2>
6.94

>  <excitation_energy_3>
7.163

>  <excitation_energy_4>
7.394

>  <homo_energy>
-7.042

>  <homo_lumo_gap>
9.015

>  <logP>
1.949

>  <lumo_energy>
1.973

>  <melting_point>
13.31

>  <molecular_refractivity>
39.62

>  <oscillator_strength_1>
0.0085

>  <oscillator_strength_2>
0.0052

>  <oscillator_strength_3>
0.0161

>  <oscillator_strength_4>
0.0078

>  <open_babel_can_smiles>
OCCCC1CCCC1

>  <mulliken_charges>
25
1   -0.271694
2   -0.272348
3   -0.280953
4   -0.273841
5   -0.271175
6   -0.26531
7   -0.026083
8   -0.086094
9   -0.615877
10   0.136193
11   0.135346
12   0.137331
13   0.135932
14   0.144793
15   0.1214
16   0.133732
17   0.132029
18   0.130451
19   0.132178
20   0.131014
21   0.130178
22   0.115721
23   0.144419
24   0.118022
25   0.384636

>  <lowdin_charges>
25
1   -0.289544
2   -0.289635
3   -0.292654
4   -0.284363
5   -0.282984
6   -0.2763
7   -0.13357
8   -0.128056
9   -0.468294
10   0.145488
11   0.143131
12   0.143275
13   0.146349
14   0.145046
15   0.133807
16   0.142471
17   0.141336
18   0.143018
19   0.141805
20   0.141741
21   0.1376
22   0.120391
23   0.145244
24   0.135343
25   0.339354

$$$$

