PCCDB-ID:  41707
public computational chemistry database (PCCDB) project, http://pccdb.org

 28 27  0  0  0  0  0  0  0  0999 V2000
    1.1925    1.9383    1.8525 C   0  0  0  0  0  0  0  0  0  0  0  0
    4.1556   -2.5787    1.1327 C   0  0  0  0  0  0  0  0  0  0  0  0
    5.2845    1.4585   -0.7738 C   0  0  0  0  0  0  0  0  0  0  0  0
    2.7116    1.7426    1.7969 C   0  0  0  0  0  0  0  0  0  0  0  0
    4.8723   -1.3427    0.5742 C   0  0  0  0  0  0  0  0  0  0  0  0
    5.5162    1.1042    0.6996 C   0  0  0  0  0  0  0  0  0  0  0  0
    3.1055    0.3738    1.2240 C   0  0  0  0  0  0  0  0  0  0  0  0
    4.6082    0.0055    1.3093 C   0  0  0  0  0  0  0  0  0  0  0  0
    4.9667   -0.0512    2.7439 N   0  0  0  0  0  0  0  0  0  0  0  0
    0.9320    2.9224    2.2593 H   0  0  0  0  0  0  0  0  0  0  0  0
    0.7170    1.1805    2.4880 H   0  0  0  0  0  0  0  0  0  0  0  0
    0.7404    1.8614    0.8554 H   0  0  0  0  0  0  0  0  0  0  0  0
    4.4557   -3.4752    0.5787 H   0  0  0  0  0  0  0  0  0  0  0  0
    3.0662   -2.4965    1.0535 H   0  0  0  0  0  0  0  0  0  0  0  0
    4.4033   -2.7534    2.1868 H   0  0  0  0  0  0  0  0  0  0  0  0
    5.9739    2.2523   -1.0837 H   0  0  0  0  0  0  0  0  0  0  0  0
    4.2665    1.8234   -0.9515 H   0  0  0  0  0  0  0  0  0  0  0  0
    5.4528    0.6047   -1.4391 H   0  0  0  0  0  0  0  0  0  0  0  0
    3.1411    1.8422    2.8001 H   0  0  0  0  0  0  0  0  0  0  0  0
    3.1525    2.5438    1.1896 H   0  0  0  0  0  0  0  0  0  0  0  0
    4.6036   -1.2361   -0.4849 H   0  0  0  0  0  0  0  0  0  0  0  0
    5.9572   -1.5256    0.5946 H   0  0  0  0  0  0  0  0  0  0  0  0
    5.4106    2.0041    1.3151 H   0  0  0  0  0  0  0  0  0  0  0  0
    6.5604    0.7788    0.8238 H   0  0  0  0  0  0  0  0  0  0  0  0
    2.7785    0.3040    0.1772 H   0  0  0  0  0  0  0  0  0  0  0  0
    2.5362   -0.3982    1.7622 H   0  0  0  0  0  0  0  0  0  0  0  0
    5.9483   -0.3140    2.8402 H   0  0  0  0  0  0  0  0  0  0  0  0
    4.4307   -0.7839    3.2076 H   0  0  0  0  0  0  0  0  0  0  0  0
  1 10  1  0  0  0  0
  1 11  1  0  0  0  0
  2 15  1  0  0  0  0
  3  6  1  0  0  0  0
  4  1  1  0  0  0  0
  4 19  1  0  0  0  0
  5 22  1  0  0  0  0
  5  2  1  0  0  0  0
  5  8  1  0  0  0  0
  6 24  1  0  0  0  0
  6  8  1  0  0  0  0
  6 23  1  0  0  0  0
  7  8  1  0  0  0  0
  7 26  1  0  0  0  0
  7  4  1  0  0  0  0
  8  9  1  0  0  0  0
  9 27  1  0  0  0  0
  9 28  1  0  0  0  0
 12  1  1  0  0  0  0
 13  2  1  0  0  0  0
 14  2  1  0  0  0  0
 16  3  1  0  0  0  0
 17  3  1  0  0  0  0
 18  3  1  0  0  0  0
 20  4  1  0  0  0  0
 21  5  1  0  0  0  0
 25  7  1  0  0  0  0
M  END
>  <HBA>
1

>  <HBD>
1

>  <TPSA>
26.02

>  <cid>
41707

>  <dipole>
1.23

>  <excitation_energy_1>
5.603

>  <excitation_energy_2>
6.145

>  <excitation_energy_3>
6.285

>  <excitation_energy_4>
6.424

>  <homo_energy>
-6.188

>  <homo_lumo_gap>
8.166

>  <logP>
3.004

>  <lumo_energy>
1.978

>  <melting_point>
37.38

>  <molecular_refractivity>
43.32

>  <oscillator_strength_1>
0.0268

>  <oscillator_strength_2>
0.0038

>  <oscillator_strength_3>
0.0053

>  <oscillator_strength_4>
0.0041

>  <open_babel_can_smiles>
CCCC(CC)(CC)N

>  <mulliken_charges>
28
1   -0.44407
2   -0.455534
3   -0.457344
4   -0.254173
5   -0.257517
6   -0.253413
7   -0.26216
8   0.194603
9   -0.724304
10   0.140291
11   0.137806
12   0.136522
13   0.145394
14   0.150039
15   0.129082
16   0.14344
17   0.148538
18   0.145032
19   0.159624
20   0.130613
21   0.13184
22   0.117853
23   0.152403
24   0.116593
25   0.12641
26   0.121549
27   0.288073
28   0.292807

>  <lowdin_charges>
28
1   -0.444757
2   -0.448717
3   -0.450337
4   -0.277572
5   -0.286535
6   -0.276995
7   -0.280207
8   0.057375
9   -0.547434
10   0.148016
11   0.145041
12   0.142735
13   0.153165
14   0.147226
15   0.138257
16   0.152695
17   0.147875
18   0.147629
19   0.153192
20   0.139953
21   0.141131
22   0.133779
23   0.152755
24   0.134323
25   0.138568
26   0.139201
27   0.248736
28   0.250901

$$$$

