PCCDB-ID:  26500
public computational chemistry database (PCCDB) project, http://pccdb.org

 23 22  0  0  0  0  0  0  0  0999 V2000
    1.5413    0.3750    0.5174 C   0  0  0  0  0  0  0  0  0  0  0  0
    3.3475   -0.8136    1.5646 C   0  0  0  0  0  0  0  0  0  0  0  0
    4.6538   -0.8392   -1.2230 C   0  0  0  0  0  0  0  0  0  0  0  0
    3.1685   -0.7704   -0.8633 C   0  0  0  0  0  0  0  0  0  0  0  0
    6.5516    0.6882   -1.4605 C   0  0  0  0  0  0  0  0  0  0  0  0
    7.2971   -0.2998   -1.8069 N   0  0  0  0  0  0  0  0  0  0  0  0
    6.9535    2.0179   -1.2285 N   0  0  0  0  0  0  0  0  0  0  0  0
    5.1961    0.5111   -1.2420 N   0  0  0  0  0  0  0  0  0  0  0  0
    2.9308   -0.0491    0.3927 N   0  0  0  0  0  0  0  0  0  0  0  0
    1.4193    0.9713    1.4284 H   0  0  0  0  0  0  0  0  0  0  0  0
    0.8297   -0.4721    0.5683 H   0  0  0  0  0  0  0  0  0  0  0  0
    1.2654    0.9997   -0.3386 H   0  0  0  0  0  0  0  0  0  0  0  0
    3.2019   -0.2084    2.4657 H   0  0  0  0  0  0  0  0  0  0  0  0
    4.4095   -1.0657    1.4990 H   0  0  0  0  0  0  0  0  0  0  0  0
    2.7771   -1.7550    1.6864 H   0  0  0  0  0  0  0  0  0  0  0  0
    4.7702   -1.2888   -2.2141 H   0  0  0  0  0  0  0  0  0  0  0  0
    5.2098   -1.4870   -0.5299 H   0  0  0  0  0  0  0  0  0  0  0  0
    2.7510   -1.7955   -0.8369 H   0  0  0  0  0  0  0  0  0  0  0  0
    2.6439   -0.2263   -1.6571 H   0  0  0  0  0  0  0  0  0  0  0  0
    8.2447    0.0183   -2.0190 H   0  0  0  0  0  0  0  0  0  0  0  0
    7.8726    2.2275   -1.5993 H   0  0  0  0  0  0  0  0  0  0  0  0
    6.2738    2.7056   -1.5383 H   0  0  0  0  0  0  0  0  0  0  0  0
    4.7979    1.0839   -0.5029 H   0  0  0  0  0  0  0  0  0  0  0  0
  1 11  1  0  0  0  0
  1 10  1  0  0  0  0
  2 15  1  0  0  0  0
  2 13  1  0  0  0  0
  3  4  1  0  0  0  0
  3 17  1  0  0  0  0
  4 18  1  0  0  0  0
  4  9  1  0  0  0  0
  5  8  1  0  0  0  0
  5  7  2  0  0  0  0
  6  5  1  0  0  0  0
  8  3  1  0  0  0  0
  8 23  1  0  0  0  0
  9  1  1  0  0  0  0
  9  2  1  0  0  0  0
 12  1  1  0  0  0  0
 14  2  1  0  0  0  0
 16  3  1  0  0  0  0
 19  4  1  0  0  0  0
 20  6  1  0  0  0  0
 21  7  1  0  0  0  0
 22  7  1  0  0  0  0
M  RAD  1   6   2
M  END
>  <HBA>
4

>  <HBD>
2

>  <TPSA>
67.64

>  <cid>
26500

>  <dipole>
2.55

>  <excitation_energy_1>
5.173

>  <excitation_energy_2>
5.466

>  <excitation_energy_3>
5.659

>  <excitation_energy_4>
5.855

>  <homo_energy>
-5.739

>  <homo_lumo_gap>
7.497

>  <logP>
0.222

>  <lumo_energy>
1.758

>  <melting_point>
103.1

>  <molecular_refractivity>
38.14

>  <oscillator_strength_1>
0.0024

>  <oscillator_strength_2>
0.0053

>  <oscillator_strength_3>
0.054

>  <oscillator_strength_4>
0.0081

>  <open_babel_can_smiles>
CN(CCNC(=[NH2])[NH])C

>  <mulliken_charges>
23
1   -0.293685
2   -0.305561
3   -0.107023
4   -0.141731
5   0.583156
6   -0.650738
7   -0.75477
8   -0.605879
9   -0.38259
10   0.149093
11   0.121869
12   0.150795
13   0.15028
14   0.164495
15   0.12232
16   0.163259
17   0.150387
18   0.119252
19   0.144619
20   0.259484
21   0.315035
22   0.31887
23   0.329065

>  <lowdin_charges>
23
1   -0.357506
2   -0.359274
3   -0.195787
4   -0.207266
5   0.124358
6   -0.485777
7   -0.516885
8   -0.314969
9   -0.188803
10   0.150081
11   0.123829
12   0.151239
13   0.151638
14   0.155131
15   0.12359
16   0.16053
17   0.142371
18   0.12501
19   0.149816
20   0.242804
21   0.272727
22   0.276907
23   0.276235

$$$$

