PCCDB-ID:  20377
public computational chemistry database (PCCDB) project, http://pccdb.org

 27 28  0  0  0  0  0  0  0  0999 V2000
    1.7665    0.7167   -0.0224 C   0  0  0  0  0  0  0  0  0  0  0  0
    2.9477   -0.2406    0.1280 C   0  0  0  0  0  0  0  0  0  0  0  0
    7.0885    0.6868   -5.4716 C   0  0  0  0  0  0  0  0  0  0  0  0
    8.0603    0.8289   -4.4814 C   0  0  0  0  0  0  0  0  0  0  0  0
    5.7639    0.4365   -5.1036 C   0  0  0  0  0  0  0  0  0  0  0  0
    7.7076    0.7206   -3.1345 C   0  0  0  0  0  0  0  0  0  0  0  0
    5.4142    0.3291   -3.7584 C   0  0  0  0  0  0  0  0  0  0  0  0
    5.1572   -0.8770   -0.8875 C   0  0  0  0  0  0  0  0  0  0  0  0
    4.7991    1.1931   -0.8126 C   0  0  0  0  0  0  0  0  0  0  0  0
    6.3839    0.4697   -2.7520 C   0  0  0  0  0  0  0  0  0  0  0  0
    6.0233    0.3546   -1.2910 C   0  0  0  0  0  0  0  0  0  0  0  0
    3.9562   -0.0187   -0.8934 N   0  0  0  0  0  0  0  0  0  0  0  0
    1.0040    0.5145    0.7380 H   0  0  0  0  0  0  0  0  0  0  0  0
    1.3106    0.6107   -1.0122 H   0  0  0  0  0  0  0  0  0  0  0  0
    2.0841    1.7598    0.0940 H   0  0  0  0  0  0  0  0  0  0  0  0
    2.5998   -1.2774    0.0306 H   0  0  0  0  0  0  0  0  0  0  0  0
    3.3799   -0.1435    1.1461 H   0  0  0  0  0  0  0  0  0  0  0  0
    7.3591    0.7701   -6.5209 H   0  0  0  0  0  0  0  0  0  0  0  0
    9.0943    1.0241   -4.7544 H   0  0  0  0  0  0  0  0  0  0  0  0
    4.9993    0.3242   -5.8684 H   0  0  0  0  0  0  0  0  0  0  0  0
    8.4722    0.8322   -2.3684 H   0  0  0  0  0  0  0  0  0  0  0  0
    4.3832    0.1348   -3.4730 H   0  0  0  0  0  0  0  0  0  0  0  0
    5.4228   -1.2485    0.1177 H   0  0  0  0  0  0  0  0  0  0  0  0
    5.1233   -1.7223   -1.5852 H   0  0  0  0  0  0  0  0  0  0  0  0
    4.4803    2.0256   -1.4503 H   0  0  0  0  0  0  0  0  0  0  0  0
    4.9339    1.5596    0.2207 H   0  0  0  0  0  0  0  0  0  0  0  0
    6.9198    0.4873   -0.6799 H   0  0  0  0  0  0  0  0  0  0  0  0
  1 15  1  0  0  0  0
  1  2  1  0  0  0  0
  1 13  1  0  0  0  0
  2 17  1  0  0  0  0
  3  5  2  0  0  0  0
  3  4  1  0  0  0  0
  4  6  2  0  0  0  0
  5  7  1  0  0  0  0
  6 10  1  0  0  0  0
  6 21  1  0  0  0  0
  7 22  1  0  0  0  0
  7 10  2  0  0  0  0
  8 23  1  0  0  0  0
  9 26  1  0  0  0  0
 10 11  1  0  0  0  0
 11  8  1  0  0  0  0
 11  9  1  0  0  0  0
 11 27  1  0  0  0  0
 12  8  1  0  0  0  0
 12  9  1  0  0  0  0
 12  2  1  0  0  0  0
 14  1  1  0  0  0  0
 16  2  1  0  0  0  0
 18  3  1  0  0  0  0
 19  4  1  0  0  0  0
 20  5  1  0  0  0  0
 24  8  1  0  0  0  0
 25  9  1  0  0  0  0
M  END
>  <HBA>
1

>  <HBD>
0

>  <TPSA>
3.24

>  <cid>
20377

>  <dipole>
0.96

>  <excitation_energy_1>
5.003

>  <excitation_energy_2>
5.191

>  <excitation_energy_3>
5.264

>  <excitation_energy_4>
5.438

>  <homo_energy>
-5.829

>  <homo_lumo_gap>
5.935

>  <logP>
2.044

>  <lumo_energy>
0.106

>  <melting_point>
29.71

>  <molecular_refractivity>
55.33

>  <oscillator_strength_1>
0.0004

>  <oscillator_strength_2>
0.0002

>  <oscillator_strength_3>
0.0017

>  <oscillator_strength_4>
0.0474

>  <open_babel_can_smiles>
CCN1CC(C1)c1ccccc1

>  <mulliken_charges>
27
1   -0.447194
2   -0.11364
3   -0.130736
4   -0.127813
5   -0.130375
6   -0.199289
7   -0.198147
8   -0.109323
9   -0.113757
10   0.195685
11   -0.238476
12   -0.388662
13   0.14296
14   0.155796
15   0.148229
16   0.139908
17   0.10435
18   0.125393
19   0.125697
20   0.126671
21   0.120899
22   0.151916
23   0.118201
24   0.146092
25   0.147652
26   0.11779
27   0.130173

>  <lowdin_charges>
27
1   -0.447671
2   -0.197445
3   -0.160534
4   -0.156127
5   -0.156967
6   -0.171978
7   -0.166075
8   -0.196599
9   -0.198695
10   -0.00221
11   -0.133871
12   -0.197968
13   0.152821
14   0.154535
15   0.148607
16   0.143007
17   0.111806
18   0.154373
19   0.15466
20   0.156916
21   0.15325
22   0.166646
23   0.127309
24   0.144224
25   0.145128
26   0.1263
27   0.146558

$$$$

