PCCDB-ID:  11513
public computational chemistry database (PCCDB) project, http://pccdb.org

 24 23  0  0  0  0  0  0  0  0999 V2000
    1.1902    0.1976    3.1357 C   0  0  0  0  0  0  0  0  0  0  0  0
    6.7097    2.0441   -1.8548 C   0  0  0  0  0  0  0  0  0  0  0  0
    2.6727    0.0503    2.7796 C   0  0  0  0  0  0  0  0  0  0  0  0
    6.3727    1.2892   -0.5654 C   0  0  0  0  0  0  0  0  0  0  0  0
    3.0636    0.8125    1.5076 C   0  0  0  0  0  0  0  0  0  0  0  0
    4.9019    1.4287   -0.1540 C   0  0  0  0  0  0  0  0  0  0  0  0
    4.5577    0.7223    1.1652 C   0  0  0  0  0  0  0  0  0  0  0  0
    5.3690    1.2086    2.2429 O   0  0  0  0  0  0  0  0  0  0  0  0
    0.9417   -0.3593    4.0465 H   0  0  0  0  0  0  0  0  0  0  0  0
    0.5462   -0.1775    2.3304 H   0  0  0  0  0  0  0  0  0  0  0  0
    0.9248    1.2485    3.3067 H   0  0  0  0  0  0  0  0  0  0  0  0
    7.7664    1.9267   -2.1209 H   0  0  0  0  0  0  0  0  0  0  0  0
    6.5110    3.1182   -1.7502 H   0  0  0  0  0  0  0  0  0  0  0  0
    6.1116    1.6797   -2.6995 H   0  0  0  0  0  0  0  0  0  0  0  0
    2.9154   -1.0138    2.6479 H   0  0  0  0  0  0  0  0  0  0  0  0
    3.2967    0.4031    3.6090 H   0  0  0  0  0  0  0  0  0  0  0  0
    7.0044    1.6452    0.2567 H   0  0  0  0  0  0  0  0  0  0  0  0
    6.6096    0.2231   -0.6911 H   0  0  0  0  0  0  0  0  0  0  0  0
    2.7907    1.8754    1.6161 H   0  0  0  0  0  0  0  0  0  0  0  0
    2.4800    0.4371    0.6547 H   0  0  0  0  0  0  0  0  0  0  0  0
    4.2537    1.0335   -0.9495 H   0  0  0  0  0  0  0  0  0  0  0  0
    4.6451    2.4969   -0.0580 H   0  0  0  0  0  0  0  0  0  0  0  0
    4.8388   -0.3363    1.0833 H   0  0  0  0  0  0  0  0  0  0  0  0
    5.1545    2.1496    2.3568 H   0  0  0  0  0  0  0  0  0  0  0  0
  1 11  1  0  0  0  0
  1  9  1  0  0  0  0
  2 13  1  0  0  0  0
  2  4  1  0  0  0  0
  3  1  1  0  0  0  0
  3 16  1  0  0  0  0
  4  6  1  0  0  0  0
  4 17  1  0  0  0  0
  5 19  1  0  0  0  0
  5  3  1  0  0  0  0
  6 22  1  0  0  0  0
  6  7  1  0  0  0  0
  7  5  1  0  0  0  0
  7  8  1  0  0  0  0
  8 24  1  0  0  0  0
 10  1  1  0  0  0  0
 12  2  1  0  0  0  0
 14  2  1  0  0  0  0
 15  3  1  0  0  0  0
 18  4  1  0  0  0  0
 20  5  1  0  0  0  0
 21  6  1  0  0  0  0
 23  7  1  0  0  0  0
M  END
>  <HBA>
1

>  <HBD>
1

>  <TPSA>
20.23

>  <cid>
11513

>  <dipole>
1.41

>  <excitation_energy_1>
6.584

>  <excitation_energy_2>
7.096

>  <excitation_energy_3>
7.288

>  <excitation_energy_4>
7.329

>  <homo_energy>
-7.059

>  <homo_lumo_gap>
8.988

>  <logP>
1.948

>  <lumo_energy>
1.929

>  <melting_point>
-8.61

>  <molecular_refractivity>
36.92

>  <oscillator_strength_1>
0.0131

>  <oscillator_strength_2>
0.0093

>  <oscillator_strength_3>
0.0001

>  <oscillator_strength_4>
0.0003

>  <open_babel_can_smiles>
CCCC(CCC)O

>  <mulliken_charges>
24
1   -0.442765
2   -0.442558
3   -0.244918
4   -0.245085
5   -0.266128
6   -0.265907
7   0.133511
8   -0.620515
9   0.143342
10   0.139442
11   0.138633
12   0.143294
13   0.138569
14   0.139418
15   0.130176
16   0.1476
17   0.147677
18   0.130183
19   0.113978
20   0.128489
21   0.128431
22   0.113951
23   0.130996
24   0.380185

>  <lowdin_charges>
24
1   -0.444695
2   -0.442108
3   -0.27326
4   -0.273325
5   -0.290713
6   -0.29098
7   0.000547
8   -0.461137
9   0.150297
10   0.145848
11   0.143532
12   0.148643
13   0.143015
14   0.1456
15   0.13844
16   0.149086
17   0.149176
18   0.138402
19   0.131009
20   0.144054
21   0.1443
22   0.130971
23   0.138552
24   0.334745

$$$$

