PCCDB-ID:  72913
public computational chemistry database (PCCDB) project, http://pccdb.org

 15 15  0  0  0  0  0  0  0  0999 V2000
   -1.4000   -0.0914   -0.0007 C   0  0  0  0  0  0  0  0  0  0  0  0
   -0.6019   -1.2429    0.0219 C   0  0  0  0  0  0  0  0  0  0  0  0
   -0.7858    1.1524   -0.0377 C   0  0  0  0  0  0  0  0  0  0  0  0
    0.7840   -1.1566    0.0129 C   0  0  0  0  0  0  0  0  0  0  0  0
    1.2491    2.5380   -0.1125 C   0  0  0  0  0  0  0  0  0  0  0  0
    0.6161    1.2591   -0.0511 C   0  0  0  0  0  0  0  0  0  0  0  0
    1.4286    0.0944   -0.0200 C   0  0  0  0  0  0  0  0  0  0  0  0
    1.8181    3.5533   -0.1722 N   0  0  0  0  0  0  0  0  0  0  0  0
    2.8033    0.1882    0.0269 N   0  0  0  0  0  0  0  0  0  0  0  0
   -2.4823   -0.1687    0.0086 H   0  0  0  0  0  0  0  0  0  0  0  0
   -1.0692   -2.2238    0.0475 H   0  0  0  0  0  0  0  0  0  0  0  0
   -1.3763    2.0630   -0.0621 H   0  0  0  0  0  0  0  0  0  0  0  0
    1.3886   -2.0598    0.0384 H   0  0  0  0  0  0  0  0  0  0  0  0
    3.3305   -0.6219   -0.2665 H   0  0  0  0  0  0  0  0  0  0  0  0
    3.2193    1.0728   -0.2351 H   0  0  0  0  0  0  0  0  0  0  0  0
  1 10  1  0  0  0  0
  1  2  2  0  0  0  0
  2 11  1  0  0  0  0
  3  1  1  0  0  0  0
  4  2  1  0  0  0  0
  4 13  1  0  0  0  0
  5  6  1  0  0  0  0
  6  3  2  0  0  0  0
  6  7  1  0  0  0  0
  7  4  2  0  0  0  0
  7  9  1  0  0  0  0
  8  5  3  0  0  0  0
 12  3  1  0  0  0  0
 14  9  1  0  0  0  0
 15  9  1  0  0  0  0
M  END
>  <HBA>
2

>  <HBD>
1

>  <TPSA>
49.81

>  <cid>
72913

>  <dipole>
4.21

>  <excitation_energy_1>
4.225

>  <excitation_energy_2>
5.144

>  <excitation_energy_3>
5.293

>  <excitation_energy_4>
5.676

>  <homo_energy>
-5.987

>  <homo_lumo_gap>
4.876

>  <logP>
1.722

>  <lumo_energy>
-1.11

>  <melting_point>
91.21

>  <molecular_refractivity>
35.56

>  <oscillator_strength_1>
0.0883

>  <oscillator_strength_2>
0.0169

>  <oscillator_strength_3>
0.0396

>  <oscillator_strength_4>
0.0032

>  <open_babel_can_smiles>
N#Cc1ccccc1N

>  <mulliken_charges>
15
1   -0.145311
2   -0.121417
3   -0.149277
4   -0.178237
5   0.221032
6   0.10409
7   0.335587
8   -0.496436
9   -0.814014
10   0.137131
11   0.139707
12   0.154839
13   0.130306
14   0.333089
15   0.34891

>  <lowdin_charges>
15
1   -0.182267
2   -0.126927
3   -0.122108
4   -0.198166
5   -0.017985
6   -0.070555
7   0.086368
8   -0.13724
9   -0.469227
10   0.161638
11   0.163309
12   0.172618
13   0.160096
14   0.286771
15   0.293675

$$$$

