PCCDB-ID:  69322
public computational chemistry database (PCCDB) project, http://pccdb.org

 17 17  0  0  0  0  0  0  0  0999 V2000
   -1.7824    0.2340   -0.1104 C   0  0  0  0  0  0  0  0  0  0  0  0
   -0.8375    1.2583   -0.0352 C   0  0  0  0  0  0  0  0  0  0  0  0
   -1.3762   -1.0943    0.0368 C   0  0  0  0  0  0  0  0  0  0  0  0
    0.5076    0.9573    0.1817 C   0  0  0  0  0  0  0  0  0  0  0  0
   -0.0354   -1.4099    0.2577 C   0  0  0  0  0  0  0  0  0  0  0  0
    0.8942   -0.3732    0.3219 C   0  0  0  0  0  0  0  0  0  0  0  0
    2.9808   -1.4929   -0.0263 C   0  0  0  0  0  0  0  0  0  0  0  0
    2.5496   -2.2154   -0.9763 N   0  0  0  0  0  0  0  0  0  0  0  0
    4.2178   -1.4381    0.5346 O   0  0  0  0  0  0  0  0  0  0  0  0
    2.2381   -0.5842    0.6364 O   0  0  0  0  0  0  0  0  0  0  0  0
   -2.8295    0.4682   -0.2805 H   0  0  0  0  0  0  0  0  0  0  0  0
   -1.1434    2.2951   -0.1451 H   0  0  0  0  0  0  0  0  0  0  0  0
   -2.1076   -1.8960   -0.0186 H   0  0  0  0  0  0  0  0  0  0  0  0
    1.2611    1.7355    0.2486 H   0  0  0  0  0  0  0  0  0  0  0  0
    0.2884   -2.4376    0.3616 H   0  0  0  0  0  0  0  0  0  0  0  0
    3.2706   -2.8284   -1.3554 H   0  0  0  0  0  0  0  0  0  0  0  0
    4.7856   -2.0803    0.0819 H   0  0  0  0  0  0  0  0  0  0  0  0
  1  2  2  0  0  0  0
  1  3  1  0  0  0  0
  2  4  1  0  0  0  0
  3  5  2  0  0  0  0
  4 14  1  0  0  0  0
  4  6  2  0  0  0  0
  5  6  1  0  0  0  0
  5 15  1  0  0  0  0
  6 10  1  0  0  0  0
  7  9  1  0  0  0  0
  7 10  1  0  0  0  0
  8  7  2  0  0  0  0
 11  1  1  0  0  0  0
 12  2  1  0  0  0  0
 13  3  1  0  0  0  0
 16  8  1  0  0  0  0
 17  9  1  0  0  0  0
M  END
>  <HBA>
3

>  <HBD>
1

>  <TPSA>
52.32

>  <cid>
69322

>  <dipole>
1.68

>  <excitation_energy_1>
5.263

>  <excitation_energy_2>
5.423

>  <excitation_energy_3>
5.753

>  <excitation_energy_4>
5.882

>  <homo_energy>
-6.368

>  <homo_lumo_gap>
6.403

>  <logP>
1.844

>  <lumo_energy>
0.035

>  <melting_point>
94.39

>  <molecular_refractivity>
36.23

>  <oscillator_strength_1>
0.0033

>  <oscillator_strength_2>
0.0025

>  <oscillator_strength_3>
0.0805

>  <oscillator_strength_4>
0.0083

>  <open_babel_can_smiles>
OC(=N)Oc1ccccc1

>  <mulliken_charges>
17
1   -0.12305
2   -0.139546
3   -0.14603
4   -0.160512
5   -0.121639
6   0.348224
7   0.628258
8   -0.605022
9   -0.563386
10   -0.500511
11   0.129565
12   0.133469
13   0.133878
14   0.14274
15   0.153405
16   0.279673
17   0.410483

>  <lowdin_charges>
17
1   -0.161453
2   -0.149529
3   -0.151041
4   -0.17228
5   -0.160833
6   0.111306
7   0.195491
8   -0.452837
9   -0.362191
10   -0.141987
11   0.157165
12   0.158824
13   0.160903
14   0.169655
15   0.174192
16   0.26047
17   0.364144

$$$$

