PCCDB-ID:  69834
public computational chemistry database (PCCDB) project, http://pccdb.org

 19 19  0  0  0  0  0  0  0  0999 V2000
    0.7384    1.2822   -0.2498 C   0  0  0  0  0  0  0  0  0  0  0  0
    1.4750    0.0185    0.2220 C   0  0  0  0  0  0  0  0  0  0  0  0
   -0.7242    1.2929    0.2230 C   0  0  0  0  0  0  0  0  0  0  0  0
    0.7400   -1.2576   -0.2124 C   0  0  0  0  0  0  0  0  0  0  0  0
   -1.4674    0.0208   -0.2096 C   0  0  0  0  0  0  0  0  0  0  0  0
   -0.8195   -1.4100    1.7213 C   0  0  0  0  0  0  0  0  0  0  0  0
   -0.7380   -1.2651    0.2583 C   0  0  0  0  0  0  0  0  0  0  0  0
   -0.8772   -1.5139    2.8768 N   0  0  0  0  0  0  0  0  0  0  0  0
    0.7641    1.3267   -1.3489 H   0  0  0  0  0  0  0  0  0  0  0  0
    1.2577    2.1784    0.1111 H   0  0  0  0  0  0  0  0  0  0  0  0
    1.5614    0.0307    1.3171 H   0  0  0  0  0  0  0  0  0  0  0  0
    2.4983    0.0035   -0.1727 H   0  0  0  0  0  0  0  0  0  0  0  0
   -1.2461    2.1735   -0.1708 H   0  0  0  0  0  0  0  0  0  0  0  0
   -0.7548    1.3740    1.3182 H   0  0  0  0  0  0  0  0  0  0  0  0
    1.2544   -2.1505    0.1602 H   0  0  0  0  0  0  0  0  0  0  0  0
    0.7313   -1.3253   -1.3088 H   0  0  0  0  0  0  0  0  0  0  0  0
   -1.5261   -0.0201   -1.3057 H   0  0  0  0  0  0  0  0  0  0  0  0
   -2.4966    0.0237    0.1665 H   0  0  0  0  0  0  0  0  0  0  0  0
   -1.2444   -2.1387   -0.1728 H   0  0  0  0  0  0  0  0  0  0  0  0
  1 10  1  0  0  0  0
  1  2  1  0  0  0  0
  1  3  1  0  0  0  0
  2 11  1  0  0  0  0
  3 14  1  0  0  0  0
  4 15  1  0  0  0  0
  4  2  1  0  0  0  0
  4  7  1  0  0  0  0
  5 18  1  0  0  0  0
  5  3  1  0  0  0  0
  5  7  1  0  0  0  0
  6  8  3  0  0  0  0
  7  6  1  0  0  0  0
  9  1  1  0  0  0  0
 12  2  1  0  0  0  0
 13  3  1  0  0  0  0
 16  4  1  0  0  0  0
 17  5  1  0  0  0  0
 19  7  1  0  0  0  0
M  END
>  <HBA>
1

>  <HBD>
0

>  <TPSA>
23.79

>  <cid>
69834

>  <dipole>
3.91

>  <excitation_energy_1>
7.366

>  <excitation_energy_2>
7.488

>  <excitation_energy_3>
7.624

>  <excitation_energy_4>
7.78

>  <homo_energy>
-8.329

>  <homo_lumo_gap>
9.331

>  <logP>
2.09

>  <lumo_energy>
1.001

>  <melting_point>
29.25

>  <molecular_refractivity>
33.4

>  <oscillator_strength_1>
0.0019

>  <oscillator_strength_2>
0.0027

>  <oscillator_strength_3>
0.0024

>  <oscillator_strength_4>
0.0066

>  <open_babel_can_smiles>
N#CC1CCCCC1

>  <mulliken_charges>
19
1   -0.258427
2   -0.269962
3   -0.269421
4   -0.263731
5   -0.264235
6   0.351823
7   -0.17565
8   -0.483249
9   0.128822
10   0.139889
11   0.156067
12   0.140218
13   0.140131
14   0.155898
15   0.155072
16   0.14225
17   0.142368
18   0.155162
19   0.176974

>  <lowdin_charges>
19
1   -0.276286
2   -0.278227
3   -0.280037
4   -0.26738
5   -0.265821
6   -0.02131
7   -0.131472
8   -0.137742
9   0.135478
10   0.149251
11   0.149397
12   0.148597
13   0.150222
14   0.149345
15   0.156476
16   0.14484
17   0.144873
18   0.154897
19   0.174899

$$$$

