PCCDB-ID:  33200
public computational chemistry database (PCCDB) project, http://pccdb.org

 41 41  0  0  0  0  0  0  0  0999 V2000
    4.5060   -1.6127    2.6589 C   0  0  0  0  0  0  0  0  0  0  0  0
    1.1437   -2.3167    1.3413 C   0  0  0  0  0  0  0  0  0  0  0  0
    4.1148   -2.7113    1.6534 C   0  0  0  0  0  0  0  0  0  0  0  0
    2.2216   -1.5201    0.6038 C   0  0  0  0  0  0  0  0  0  0  0  0
   10.1376   -1.8789   -3.1384 C   0  0  0  0  0  0  0  0  0  0  0  0
    8.5955   -0.2405   -2.3196 C   0  0  0  0  0  0  0  0  0  0  0  0
   11.1641   -1.3002   -2.3945 C   0  0  0  0  0  0  0  0  0  0  0  0
    9.6111    0.3483   -1.5727 C   0  0  0  0  0  0  0  0  0  0  0  0
    7.7274   -2.0181   -3.9211 C   0  0  0  0  0  0  0  0  0  0  0  0
    4.3868   -1.6450   -0.5361 C   0  0  0  0  0  0  0  0  0  0  0  0
    6.7522   -2.8571   -3.0901 C   0  0  0  0  0  0  0  0  0  0  0  0
    5.1099   -2.6875   -1.3906 C   0  0  0  0  0  0  0  0  0  0  0  0
    8.8345   -1.3674   -3.1195 C   0  0  0  0  0  0  0  0  0  0  0  0
   10.9158   -0.1726   -1.5976 C   0  0  0  0  0  0  0  0  0  0  0  0
   11.9535    0.4571   -0.8958 N   0  0  0  0  0  0  0  0  0  0  0  0
    3.4647   -2.2719    0.4118 N   0  0  0  0  0  0  0  0  0  0  0  0
    5.9985   -1.9999   -2.2515 O   0  0  0  0  0  0  0  0  0  0  0  0
    5.0353   -2.0571    3.5098 H   0  0  0  0  0  0  0  0  0  0  0  0
    3.6283   -1.0887    3.0533 H   0  0  0  0  0  0  0  0  0  0  0  0
    5.1693   -0.8653    2.2094 H   0  0  0  0  0  0  0  0  0  0  0  0
    0.1985   -1.7626    1.3314 H   0  0  0  0  0  0  0  0  0  0  0  0
    1.4031   -2.5002    2.3896 H   0  0  0  0  0  0  0  0  0  0  0  0
    0.9841   -3.2851    0.8548 H   0  0  0  0  0  0  0  0  0  0  0  0
    3.4564   -3.4340    2.1494 H   0  0  0  0  0  0  0  0  0  0  0  0
    5.0123   -3.2734    1.3714 H   0  0  0  0  0  0  0  0  0  0  0  0
    2.3803   -0.5547    1.1220 H   0  0  0  0  0  0  0  0  0  0  0  0
    1.8445   -1.2710   -0.3951 H   0  0  0  0  0  0  0  0  0  0  0  0
   10.3610   -2.7509   -3.7504 H   0  0  0  0  0  0  0  0  0  0  0  0
    7.5929    0.1737   -2.2746 H   0  0  0  0  0  0  0  0  0  0  0  0
   12.1680   -1.7180   -2.4371 H   0  0  0  0  0  0  0  0  0  0  0  0
    9.3973    1.2258   -0.9654 H   0  0  0  0  0  0  0  0  0  0  0  0
    7.1412   -1.2602   -4.4568 H   0  0  0  0  0  0  0  0  0  0  0  0
    8.1638   -2.6756   -4.6838 H   0  0  0  0  0  0  0  0  0  0  0  0
    3.8187   -0.9969   -1.2116 H   0  0  0  0  0  0  0  0  0  0  0  0
    5.1409   -1.0007   -0.0532 H   0  0  0  0  0  0  0  0  0  0  0  0
    7.3077   -3.5939   -2.4853 H   0  0  0  0  0  0  0  0  0  0  0  0
    6.0765   -3.4186   -3.7589 H   0  0  0  0  0  0  0  0  0  0  0  0
    4.3714   -3.2693   -1.9655 H   0  0  0  0  0  0  0  0  0  0  0  0
    5.6665   -3.4009   -0.7598 H   0  0  0  0  0  0  0  0  0  0  0  0
   12.7275   -0.1519   -0.6581 H   0  0  0  0  0  0  0  0  0  0  0  0
   11.6494    0.9857   -0.0869 H   0  0  0  0  0  0  0  0  0  0  0  0
  1 19  1  0  0  0  0
  1 18  1  0  0  0  0
  2 22  1  0  0  0  0
  3 24  1  0  0  0  0
  3  1  1  0  0  0  0
  4 26  1  0  0  0  0
  4  2  1  0  0  0  0
  5 13  2  0  0  0  0
  5  7  1  0  0  0  0
  6 29  1  0  0  0  0
  6  8  2  0  0  0  0
  7 14  2  0  0  0  0
  8 31  1  0  0  0  0
  9 13  1  0  0  0  0
  9 11  1  0  0  0  0
 10 35  1  0  0  0  0
 10 16  1  0  0  0  0
 11 36  1  0  0  0  0
 11 17  1  0  0  0  0
 12 39  1  0  0  0  0
 12 10  1  0  0  0  0
 13  6  1  0  0  0  0
 14  8  1  0  0  0  0
 14 15  1  0  0  0  0
 15 40  1  0  0  0  0
 15 41  1  0  0  0  0
 16  4  1  0  0  0  0
 16  3  1  0  0  0  0
 17 12  1  0  0  0  0
 20  1  1  0  0  0  0
 21  2  1  0  0  0  0
 23  2  1  0  0  0  0
 25  3  1  0  0  0  0
 27  4  1  0  0  0  0
 28  5  1  0  0  0  0
 30  7  1  0  0  0  0
 32  9  1  0  0  0  0
 33  9  1  0  0  0  0
 34 10  1  0  0  0  0
 37 11  1  0  0  0  0
 38 12  1  0  0  0  0
M  END
>  <HBA>
3

>  <HBD>
1

>  <TPSA>
38.49

>  <cid>
33200

>  <dipole>
2.06

>  <excitation_energy_1>
4.621

>  <excitation_energy_2>
4.639

>  <excitation_energy_3>
5.029

>  <excitation_energy_4>
5.045

>  <homo_energy>
-5.192

>  <homo_lumo_gap>
5.546

>  <logP>
2.751

>  <lumo_energy>
0.354

>  <melting_point>
46.35

>  <molecular_refractivity>
73.44

>  <oscillator_strength_1>
0.006

>  <oscillator_strength_2>
0.0264

>  <oscillator_strength_3>
0.0729

>  <oscillator_strength_4>
0.0271

>  <open_babel_can_smiles>
CCN(CCOCCc1ccc(cc1)N)CC

>  <mulliken_charges>
41
1   -0.458627
2   -0.456533
3   -0.138361
4   -0.109779
5   -0.196873
6   -0.176589
7   -0.171418
8   -0.174245
9   -0.370019
10   -0.149646
11   0.005907
12   0.003107
13   0.167481
14   0.303677
15   -0.786616
16   -0.385988
17   -0.48023
18   0.142163
19   0.148241
20   0.151022
21   0.142955
22   0.147469
23   0.155166
24   0.143282
25   0.139213
26   0.114442
27   0.138233
28   0.114748
29   0.135536
30   0.111574
31   0.112116
32   0.153928
33   0.137658
34   0.143954
35   0.133521
36   0.120263
37   0.114317
38   0.123402
39   0.119353
40   0.315927
41   0.316271

>  <lowdin_charges>
41
1   -0.468254
2   -0.4506
3   -0.20742
4   -0.195153
5   -0.159183
6   -0.147892
7   -0.203515
8   -0.200284
9   -0.280402
10   -0.209686
11   -0.128755
12   -0.137584
13   -0.030783
14   0.055561
15   -0.493178
16   -0.192636
17   -0.273422
18   0.153576
19   0.149552
20   0.151418
21   0.153123
22   0.14688
23   0.154063
24   0.145785
25   0.144458
26   0.1169
27   0.143612
28   0.150623
29   0.161095
30   0.149379
31   0.150305
32   0.15734
33   0.152453
34   0.15181
35   0.132414
36   0.12831
37   0.126175
38   0.130217
39   0.12692
40   0.273521
41   0.273257

$$$$

