PCCDB-ID:  20707
public computational chemistry database (PCCDB) project, http://pccdb.org

 16 17  0  0  0  0  0  0  0  0999 V2000
    2.1340    0.7127   -0.0283 C   0  0  0  0  0  0  0  0  0  0  0  0
    2.1044   -0.6828    0.0188 C   0  0  0  0  0  0  0  0  0  0  0  0
    0.9527    1.4708   -0.0658 C   0  0  0  0  0  0  0  0  0  0  0  0
    0.8873   -1.3845    0.0303 C   0  0  0  0  0  0  0  0  0  0  0  0
   -0.2459    0.7720   -0.0555 C   0  0  0  0  0  0  0  0  0  0  0  0
   -0.2649   -0.6262   -0.0076 C   0  0  0  0  0  0  0  0  0  0  0  0
   -2.4092    0.0238   -0.0496 C   0  0  0  0  0  0  0  0  0  0  0  0
   -3.6667   -0.1337   -0.0536 N   0  0  0  0  0  0  0  0  0  0  0  0
   -1.5857    1.1507   -0.0822 N   0  0  0  0  0  0  0  0  0  0  0  0
   -1.5672   -1.0741   -0.0039 O   0  0  0  0  0  0  0  0  0  0  0  0
    3.0897    1.2283   -0.0368 H   0  0  0  0  0  0  0  0  0  0  0  0
    3.0361   -1.2394    0.0470 H   0  0  0  0  0  0  0  0  0  0  0  0
    0.9810    2.5555   -0.1032 H   0  0  0  0  0  0  0  0  0  0  0  0
    0.8453   -2.4676    0.0675 H   0  0  0  0  0  0  0  0  0  0  0  0
   -4.1526    0.7619   -0.0891 H   0  0  0  0  0  0  0  0  0  0  0  0
   -1.9416    2.0927   -0.1117 H   0  0  0  0  0  0  0  0  0  0  0  0
  1  2  2  0  0  0  0
  2  4  1  0  0  0  0
  2 12  1  0  0  0  0
  3  5  2  0  0  0  0
  3  1  1  0  0  0  0
  4 14  1  0  0  0  0
  5  6  1  0  0  0  0
  6 10  1  0  0  0  0
  6  4  2  0  0  0  0
  7 10  1  0  0  0  0
  8  7  2  0  0  0  0
  9  5  1  0  0  0  0
  9  7  1  0  0  0  0
 11  1  1  0  0  0  0
 13  3  1  0  0  0  0
 15  8  1  0  0  0  0
 16  9  1  0  0  0  0
M  END
>  <HBA>
3

>  <HBD>
1

>  <TPSA>
52.05

>  <cid>
20707

>  <dipole>
4.21

>  <excitation_energy_1>
4.68

>  <excitation_energy_2>
4.684

>  <excitation_energy_3>
5.206

>  <excitation_energy_4>
5.362

>  <homo_energy>
-5.636

>  <homo_lumo_gap>
5.402

>  <logP>
1.991

>  <lumo_energy>
-0.234

>  <melting_point>
112.54

>  <molecular_refractivity>
38.41

>  <oscillator_strength_1>
0.134

>  <oscillator_strength_2>
0.0126

>  <oscillator_strength_3>
0.0526

>  <oscillator_strength_4>
0.0045

>  <open_babel_can_smiles>
N=c1oc2c([nH]1)cccc2

>  <mulliken_charges>
16
1   -0.145677
2   -0.142078
3   -0.17492
4   -0.198224
5   0.371956
6   0.328266
7   0.71078
8   -0.647558
9   -0.767464
10   -0.506055
11   0.133528
12   0.134869
13   0.134536
14   0.153445
15   0.279812
16   0.334784

>  <lowdin_charges>
16
1   -0.159343
2   -0.164977
3   -0.186623
4   -0.170218
5   0.029664
6   0.0822
7   0.167498
8   -0.431226
9   -0.255104
10   -0.128236
11   0.161337
12   0.16258
13   0.160422
14   0.172589
15   0.260914
16   0.298523

$$$$

