PCCDB-ID:  11828
public computational chemistry database (PCCDB) project, http://pccdb.org

 21 22  0  0  0  0  0  0  0  0999 V2000
    2.5013    0.9892   -0.3399 C   0  0  0  0  0  0  0  0  0  0  0  0
    2.6312   -0.4184   -0.3476 C   0  0  0  0  0  0  0  0  0  0  0  0
   -2.3028    0.5564    0.2589 C   0  0  0  0  0  0  0  0  0  0  0  0
    1.2596    1.5647   -0.1888 C   0  0  0  0  0  0  0  0  0  0  0  0
   -1.1952    1.3558    0.1075 C   0  0  0  0  0  0  0  0  0  0  0  0
    1.5217   -1.2205   -0.1859 C   0  0  0  0  0  0  0  0  0  0  0  0
   -2.1847   -0.8519    0.3097 C   0  0  0  0  0  0  0  0  0  0  0  0
    0.0934    0.7704   -0.0246 C   0  0  0  0  0  0  0  0  0  0  0  0
    0.2303   -0.6561   -0.0028 C   0  0  0  0  0  0  0  0  0  0  0  0
   -0.9475   -1.4523    0.1957 C   0  0  0  0  0  0  0  0  0  0  0  0
   -0.7844   -2.8634    0.2090 N   0  0  0  0  0  0  0  0  0  0  0  0
   -1.9476   -3.5461    0.6783 O   0  0  0  0  0  0  0  0  0  0  0  0
    3.3817    1.6139   -0.4645 H   0  0  0  0  0  0  0  0  0  0  0  0
    3.6089   -0.8699   -0.4925 H   0  0  0  0  0  0  0  0  0  0  0  0
   -3.2885    1.0032    0.3589 H   0  0  0  0  0  0  0  0  0  0  0  0
    1.1509    2.6467   -0.1967 H   0  0  0  0  0  0  0  0  0  0  0  0
   -1.2872    2.4384    0.0828 H   0  0  0  0  0  0  0  0  0  0  0  0
    1.6358   -2.2992   -0.2346 H   0  0  0  0  0  0  0  0  0  0  0  0
   -3.0586   -1.4716    0.4662 H   0  0  0  0  0  0  0  0  0  0  0  0
   -0.0457   -3.1380    0.8543 H   0  0  0  0  0  0  0  0  0  0  0  0
   -2.2188   -4.0599   -0.0999 H   0  0  0  0  0  0  0  0  0  0  0  0
  1  4  1  0  0  0  0
  2  1  2  0  0  0  0
  2  6  1  0  0  0  0
  3  7  1  0  0  0  0
  3 15  1  0  0  0  0
  4  8  2  0  0  0  0
  5  3  2  0  0  0  0
  6  9  2  0  0  0  0
  7 19  1  0  0  0  0
  8  9  1  0  0  0  0
  8  5  1  0  0  0  0
  9 10  1  0  0  0  0
 10 11  1  0  0  0  0
 10  7  2  0  0  0  0
 11 12  1  0  0  0  0
 11 20  1  0  0  0  0
 13  1  1  0  0  0  0
 14  2  1  0  0  0  0
 16  4  1  0  0  0  0
 17  5  1  0  0  0  0
 18  6  1  0  0  0  0
 21 12  1  0  0  0  0
M  END
>  <HBA>
2

>  <HBD>
2

>  <TPSA>
32.26

>  <cid>
11828

>  <dipole>
0.92

>  <excitation_energy_1>
3.955

>  <excitation_energy_2>
4.29

>  <excitation_energy_3>
4.839

>  <excitation_energy_4>
5.205

>  <homo_energy>
-5.336

>  <homo_lumo_gap>
4.479

>  <logP>
2.714

>  <lumo_energy>
-0.857

>  <melting_point>
137.78

>  <molecular_refractivity>
49.18

>  <oscillator_strength_1>
0.0922

>  <oscillator_strength_2>
0.0155

>  <oscillator_strength_3>
0.0017

>  <oscillator_strength_4>
0.0151

>  <open_babel_can_smiles>
ONc1cccc2c1cccc2

>  <mulliken_charges>
21
1   -0.131806
2   -0.134792
3   -0.14329
4   -0.196388
5   -0.189197
6   -0.199707
7   -0.172621
8   0.125343
9   0.0897
10   0.235039
11   -0.432587
12   -0.51267
13   0.129027
14   0.128353
15   0.12803
16   0.129617
17   0.123486
18   0.130169
19   0.140576
20   0.334539
21   0.419178

>  <lowdin_charges>
21
1   -0.16038
2   -0.158209
3   -0.148535
4   -0.151849
5   -0.175776
6   -0.165073
7   -0.198306
8   0.00599
9   -0.022693
10   0.035553
11   -0.198168
12   -0.401828
13   0.158915
14   0.157644
15   0.157524
16   0.155652
17   0.153987
18   0.155465
19   0.168622
20   0.27467
21   0.356793

$$$$

