PCCDB-ID:  34647
public computational chemistry database (PCCDB) project, http://pccdb.org

 38 38  0  0  0  0  0  0  0  0999 V2000
    2.5844    0.9154    2.0464 C   0  0  0  0  0  0  0  0  0  0  0  0
    6.6074    3.8979   -6.0697 C   0  0  0  0  0  0  0  0  0  0  0  0
    7.7665    2.3456   -7.7057 C   0  0  0  0  0  0  0  0  0  0  0  0
    9.7243    0.0725   -0.0819 C   0  0  0  0  0  0  0  0  0  0  0  0
    3.5076    0.0108    1.2236 C   0  0  0  0  0  0  0  0  0  0  0  0
    3.9862    0.6636   -0.0786 C   0  0  0  0  0  0  0  0  0  0  0  0
    4.9155   -0.2430   -0.8993 C   0  0  0  0  0  0  0  0  0  0  0  0
    7.1673    2.4844   -6.3018 C   0  0  0  0  0  0  0  0  0  0  0  0
    6.4532    0.6783   -2.4377 C   0  0  0  0  0  0  0  0  0  0  0  0
    7.9119    1.6665   -4.2002 C   0  0  0  0  0  0  0  0  0  0  0  0
    8.7186    0.8278   -2.0783 C   0  0  0  0  0  0  0  0  0  0  0  0
    5.2429    0.3747   -2.1737 N   0  0  0  0  0  0  0  0  0  0  0  0
    8.2119    2.1867   -5.3253 N   0  0  0  0  0  0  0  0  0  0  0  0
    6.6845    1.3011   -3.6883 N   0  0  0  0  0  0  0  0  0  0  0  0
    7.5663    0.4681   -1.6244 N   0  0  0  0  0  0  0  0  0  0  0  0
    8.9507    1.4023   -3.2939 N   0  0  0  0  0  0  0  0  0  0  0  0
    9.8512    0.6713   -1.3825 O   0  0  0  0  0  0  0  0  0  0  0  0
    2.2561    0.4218    2.9685 H   0  0  0  0  0  0  0  0  0  0  0  0
    1.6878    1.1887    1.4766 H   0  0  0  0  0  0  0  0  0  0  0  0
    3.0913    1.8464    2.3290 H   0  0  0  0  0  0  0  0  0  0  0  0
    5.8479    4.1463   -6.8202 H   0  0  0  0  0  0  0  0  0  0  0  0
    7.4146    4.6357   -6.1361 H   0  0  0  0  0  0  0  0  0  0  0  0
    6.1500    3.9885   -5.0777 H   0  0  0  0  0  0  0  0  0  0  0  0
    7.0155    2.5567   -8.4758 H   0  0  0  0  0  0  0  0  0  0  0  0
    8.1499    1.3321   -7.8632 H   0  0  0  0  0  0  0  0  0  0  0  0
    8.6009    3.0450   -7.8295 H   0  0  0  0  0  0  0  0  0  0  0  0
   10.7410    0.0314    0.3096 H   0  0  0  0  0  0  0  0  0  0  0  0
    9.2982   -0.9303   -0.1622 H   0  0  0  0  0  0  0  0  0  0  0  0
    9.0857    0.6839    0.5600 H   0  0  0  0  0  0  0  0  0  0  0  0
    2.9845   -0.9273    0.9882 H   0  0  0  0  0  0  0  0  0  0  0  0
    4.3784   -0.2722    1.8325 H   0  0  0  0  0  0  0  0  0  0  0  0
    4.5153    1.6000    0.1483 H   0  0  0  0  0  0  0  0  0  0  0  0
    3.1235    0.9394   -0.6998 H   0  0  0  0  0  0  0  0  0  0  0  0
    4.3879   -1.1845   -1.1125 H   0  0  0  0  0  0  0  0  0  0  0  0
    5.8074   -0.4935   -0.3088 H   0  0  0  0  0  0  0  0  0  0  0  0
    6.3296    1.7656   -6.2320 H   0  0  0  0  0  0  0  0  0  0  0  0
    5.8551    1.4369   -4.2487 H   0  0  0  0  0  0  0  0  0  0  0  0
    9.8869    1.6448   -3.5879 H   0  0  0  0  0  0  0  0  0  0  0  0
  1 20  1  0  0  0  0
  1 18  1  0  0  0  0
  2 23  1  0  0  0  0
  3  8  1  0  0  0  0
  4 27  1  0  0  0  0
  4 29  1  0  0  0  0
  5 31  1  0  0  0  0
  5  1  1  0  0  0  0
  6 32  1  0  0  0  0
  6  5  1  0  0  0  0
  7 35  1  0  0  0  0
  7  6  1  0  0  0  0
  8 36  1  0  0  0  0
  8  2  1  0  0  0  0
  8 13  1  0  0  0  0
  9 12  1  0  0  0  0
  9 15  2  0  0  0  0
 10 14  1  0  0  0  0
 10 16  1  0  0  0  0
 11 15  2  0  0  0  0
 11 17  1  0  0  0  0
 12  7  1  0  0  0  0
 13 10  2  0  0  0  0
 14  9  1  0  0  0  0
 16 11  1  0  0  0  0
 17  4  1  0  0  0  0
 19  1  1  0  0  0  0
 21  2  1  0  0  0  0
 22  2  1  0  0  0  0
 24  3  1  0  0  0  0
 25  3  1  0  0  0  0
 26  3  1  0  0  0  0
 28  4  1  0  0  0  0
 30  5  1  0  0  0  0
 33  6  1  0  0  0  0
 34  7  1  0  0  0  0
 37 14  1  0  0  0  0
 38 16  1  0  0  0  0
M  RAD  1  12   2
M  END
>  <HBA>
6

>  <HBD>
2

>  <TPSA>
71.96

>  <cid>
34647

>  <dipole>
2.33

>  <excitation_energy_1>
5.131

>  <excitation_energy_2>
5.269

>  <excitation_energy_3>
5.305

>  <excitation_energy_4>
5.429

>  <homo_energy>
-5.932

>  <homo_lumo_gap>
5.807

>  <logP>
2.058

>  <lumo_energy>
-0.125

>  <melting_point>
122.73

>  <molecular_refractivity>
68.97

>  <oscillator_strength_1>
0.0477

>  <oscillator_strength_2>
0.0792

>  <oscillator_strength_3>
0.0081

>  <oscillator_strength_4>
0.0098

>  <open_babel_can_smiles>
CCCC[N]C1=[N]=C(N/C(=N/C(C)C)/N1)OC

>  <mulliken_charges>
38
1   -0.439582
2   -0.434891
3   -0.428535
4   -0.211057
5   -0.249943
6   -0.241957
7   -0.140645
8   0.01426
9   0.66954
10   0.758714
11   0.772905
12   -0.511002
13   -0.503025
14   -0.721534
15   -0.561247
16   -0.699415
17   -0.488707
18   0.138542
19   0.141846
20   0.139954
21   0.140966
22   0.154337
23   0.141711
24   0.133638
25   0.146637
26   0.149337
27   0.170161
28   0.179236
29   0.178548
30   0.129274
31   0.127265
32   0.127197
33   0.13666
34   0.130083
35   0.13883
36   0.103757
37   0.350868
38   0.357273

>  <lowdin_charges>
38
1   -0.44421
2   -0.45097
3   -0.443833
4   -0.26892
5   -0.273755
6   -0.2781
7   -0.201287
8   -0.053853
9   0.123628
10   0.134466
11   0.1878
12   -0.242566
13   -0.26568
14   -0.259346
15   -0.259093
16   -0.227202
17   -0.180502
18   0.147632
19   0.146862
20   0.145635
21   0.150629
22   0.155529
23   0.147572
24   0.146512
25   0.152021
26   0.153486
27   0.162785
28   0.163453
29   0.165568
30   0.138204
31   0.137659
32   0.138482
33   0.143884
34   0.139063
35   0.136788
36   0.117139
37   0.302895
38   0.311624

$$$$

