PCCDB-ID:  70463
public computational chemistry database (PCCDB) project, http://pccdb.org

 27 26  0  0  0  0  0  0  0  0999 V2000
    6.6232    0.5997   -2.7458 C   0  0  0  0  0  0  0  0  0  0  0  0
   10.7535    3.2528    3.6618 C   0  0  0  0  0  0  0  0  0  0  0  0
    4.0453    1.3715    3.7202 C   0  0  0  0  0  0  0  0  0  0  0  0
    5.8191    0.1075   -1.5364 C   0  0  0  0  0  0  0  0  0  0  0  0
    9.5933    2.4014    4.1915 C   0  0  0  0  0  0  0  0  0  0  0  0
    6.1180    0.9291   -0.2795 C   0  0  0  0  0  0  0  0  0  0  0  0
    8.4129    2.3750    3.2167 C   0  0  0  0  0  0  0  0  0  0  0  0
    5.4373    1.8646    2.5786 P   0  0  0  0  0  0  0  0  0  0  0  0
    5.1506    0.2719    1.1546 S   0  0  0  0  0  0  0  0  0  0  0  0
    7.0538    1.3174    3.8974 S   0  0  0  0  0  0  0  0  0  0  0  0
    6.3956    0.0019   -3.6353 H   0  0  0  0  0  0  0  0  0  0  0  0
    7.7022    0.5282   -2.5634 H   0  0  0  0  0  0  0  0  0  0  0  0
    6.3925    1.6461   -2.9790 H   0  0  0  0  0  0  0  0  0  0  0  0
   11.5901    3.2557    4.3692 H   0  0  0  0  0  0  0  0  0  0  0  0
   10.4453    4.2936    3.5056 H   0  0  0  0  0  0  0  0  0  0  0  0
   11.1272    2.8682    2.7052 H   0  0  0  0  0  0  0  0  0  0  0  0
    3.0985    1.4837    3.1842 H   0  0  0  0  0  0  0  0  0  0  0  0
    4.0525    2.0465    4.5807 H   0  0  0  0  0  0  0  0  0  0  0  0
    4.1324    0.3410    4.0783 H   0  0  0  0  0  0  0  0  0  0  0  0
    6.0489   -0.9481   -1.3441 H   0  0  0  0  0  0  0  0  0  0  0  0
    4.7454    0.1594   -1.7553 H   0  0  0  0  0  0  0  0  0  0  0  0
    9.2543    2.7931    5.1585 H   0  0  0  0  0  0  0  0  0  0  0  0
    9.9394    1.3760    4.3730 H   0  0  0  0  0  0  0  0  0  0  0  0
    5.8513    1.9804   -0.4309 H   0  0  0  0  0  0  0  0  0  0  0  0
    7.1854    0.8784   -0.0393 H   0  0  0  0  0  0  0  0  0  0  0  0
    8.7296    1.9705    2.2495 H   0  0  0  0  0  0  0  0  0  0  0  0
    8.0235    3.3852    3.0539 H   0  0  0  0  0  0  0  0  0  0  0  0
  1 12  1  0  0  0  0
  1  4  1  0  0  0  0
  2  5  1  0  0  0  0
  2 14  1  0  0  0  0
  3 19  1  0  0  0  0
  3 18  1  0  0  0  0
  4 20  1  0  0  0  0
  4  6  1  0  0  0  0
  5 23  1  0  0  0  0
  5 22  1  0  0  0  0
  6 25  1  0  0  0  0
  6  9  1  0  0  0  0
  7 10  1  0  0  0  0
  7  5  1  0  0  0  0
  8  3  1  0  0  0  0
  8 10  1  0  0  0  0
  9  8  1  0  0  0  0
 11  1  1  0  0  0  0
 13  1  1  0  0  0  0
 15  2  1  0  0  0  0
 16  2  1  0  0  0  0
 17  3  1  0  0  0  0
 21  4  1  0  0  0  0
 24  6  1  0  0  0  0
 26  7  1  0  0  0  0
 27  7  1  0  0  0  0
M  END
>  <HBA>
2

>  <HBD>
0

>  <TPSA>
64.19

>  <cid>
70463

>  <dipole>
1.94

>  <excitation_energy_1>
4.526

>  <excitation_energy_2>
4.618

>  <excitation_energy_3>
4.95

>  <excitation_energy_4>
5.357

>  <homo_energy>
-6.03

>  <homo_lumo_gap>
5.636

>  <logP>
4.215

>  <lumo_energy>
-0.395

>  <melting_point>
-20.58

>  <molecular_refractivity>
58.92

>  <oscillator_strength_1>
0.0153

>  <oscillator_strength_2>
0.0205

>  <oscillator_strength_3>
0.0016

>  <oscillator_strength_4>
0.1143

>  <open_babel_can_smiles>
CCCSP(SCCC)C

>  <mulliken_charges>
27
1   -0.445911
2   -0.445868
3   -0.654451
4   -0.257
5   -0.257185
6   -0.409424
7   -0.406806
8   0.215075
9   -0.05874
10   -0.061186
11   0.151891
12   0.146019
13   0.146702
14   0.151896
15   0.146866
16   0.145824
17   0.189052
18   0.188884
19   0.194866
20   0.155072
21   0.154955
22   0.155069
23   0.154682
24   0.179391
25   0.170841
26   0.169571
27   0.179916

>  <lowdin_charges>
27
1   -0.441057
2   -0.442934
3   -0.606127
4   -0.271208
5   -0.27364
6   -0.364162
7   -0.365652
8   0.223715
9   -0.064285
10   -0.065615
11   0.15529
12   0.146928
13   0.14779
14   0.15539
15   0.147921
16   0.148568
17   0.180981
18   0.181443
19   0.17523
20   0.150392
21   0.15026
22   0.151944
23   0.15071
24   0.159803
25   0.153288
26   0.154189
27   0.160836

$$$$

