PCCDB-ID:  44337
public computational chemistry database (PCCDB) project, http://pccdb.org

 23 23  0  0  0  0  0  0  0  0999 V2000
    2.7302   -1.3899   -0.9799 C   0  0  0  0  0  0  0  0  0  0  0  0
    4.4849    1.8332   -3.3220 C   0  0  0  0  0  0  0  0  0  0  0  0
    2.8917    2.2180   -1.1341 C   0  0  0  0  0  0  0  0  0  0  0  0
    4.0293    3.1373   -3.0487 C   0  0  0  0  0  0  0  0  0  0  0  0
    3.2073    3.3427   -1.9010 C   0  0  0  0  0  0  0  0  0  0  0  0
    4.1626    0.7339   -2.5382 C   0  0  0  0  0  0  0  0  0  0  0  0
    3.3225    0.9223   -1.4208 C   0  0  0  0  0  0  0  0  0  0  0  0
    4.4606    4.1792   -4.0075 C   0  0  0  0  0  0  0  0  0  0  0  0
    2.5960    4.6219   -1.3083 C   0  0  0  0  0  0  0  0  0  0  0  0
    4.6493   -0.5153   -2.8061 O   0  0  0  0  0  0  0  0  0  0  0  0
    4.0604    5.3378   -4.0842 O   0  0  0  0  0  0  0  0  0  0  0  0
    5.3909    3.7545   -4.8911 O   0  0  0  0  0  0  0  0  0  0  0  0
    2.0905    4.5809   -0.2046 O   0  0  0  0  0  0  0  0  0  0  0  0
    2.5961    5.7542   -2.0033 O   0  0  0  0  0  0  0  0  0  0  0  0
    2.9367   -0.0383   -0.5485 O   0  0  0  0  0  0  0  0  0  0  0  0
    2.1464   -1.8539   -0.1826 H   0  0  0  0  0  0  0  0  0  0  0  0
    3.6757   -1.9199   -1.1088 H   0  0  0  0  0  0  0  0  0  0  0  0
    2.1616   -1.4215   -1.9152 H   0  0  0  0  0  0  0  0  0  0  0  0
    5.1306    1.6796   -4.1802 H   0  0  0  0  0  0  0  0  0  0  0  0
    2.2760    2.3633   -0.2550 H   0  0  0  0  0  0  0  0  0  0  0  0
    5.2142   -0.4692   -3.5937 H   0  0  0  0  0  0  0  0  0  0  0  0
    5.5691    4.5180   -5.4713 H   0  0  0  0  0  0  0  0  0  0  0  0
    3.0720    5.6650   -2.8683 H   0  0  0  0  0  0  0  0  0  0  0  0
  1 15  1  0  0  0  0
  1 16  1  0  0  0  0
  2  4  2  0  0  0  0
  2  6  1  0  0  0  0
  3 20  1  0  0  0  0
  4  5  1  0  0  0  0
  5  9  1  0  0  0  0
  5  3  2  0  0  0  0
  6  7  2  0  0  0  0
  7  3  1  0  0  0  0
  7 15  1  0  0  0  0
  8  4  1  0  0  0  0
  9 13  2  0  0  0  0
 10  6  1  0  0  0  0
 11  8  2  0  0  0  0
 12  8  1  0  0  0  0
 14  9  1  0  0  0  0
 17  1  1  0  0  0  0
 18  1  1  0  0  0  0
 19  2  1  0  0  0  0
 21 10  1  0  0  0  0
 22 12  1  0  0  0  0
 23 14  1  0  0  0  0
M  END
>  <HBA>
6

>  <HBD>
3

>  <TPSA>
104.06

>  <cid>
44337

>  <dipole>
8.37

>  <excitation_energy_1>
3.993

>  <excitation_energy_2>
4.091

>  <excitation_energy_3>
4.311

>  <excitation_energy_4>
4.99

>  <homo_energy>
-6.506

>  <homo_lumo_gap>
4.441

>  <logP>
0.797

>  <lumo_energy>
-2.065

>  <melting_point>
234.06

>  <molecular_refractivity>
48.88

>  <oscillator_strength_1>
0.0335

>  <oscillator_strength_2>
0.1483

>  <oscillator_strength_3>
0.0665

>  <oscillator_strength_4>
0.0016

>  <open_babel_can_smiles>
COc1cc(C(=O)O)c(cc1O)C(=O)O

>  <mulliken_charges>
23
1   -0.211276
2   -0.251987
3   -0.240446
4   0.000716
5   -0.014494
6   0.34185
7   0.37806
8   0.58161
9   0.57908
10   -0.647048
11   -0.525577
12   -0.576862
13   -0.464254
14   -0.604757
15   -0.508095
16   0.170783
17   0.176829
18   0.156362
19   0.16268
20   0.198464
21   0.417737
22   0.424845
23   0.455779

>  <lowdin_charges>
23
1   -0.272766
2   -0.185188
3   -0.144921
4   -0.063924
5   -0.043545
6   0.072895
7   0.094009
8   0.215507
9   0.18636
10   -0.370656
11   -0.290056
12   -0.344562
13   -0.263831
14   -0.354268
15   -0.187997
16   0.163801
17   0.159668
18   0.151074
19   0.175346
20   0.200309
21   0.364821
22   0.371649
23   0.366275

$$$$

