PCCDB-ID:  56337
public computational chemistry database (PCCDB) project, http://pccdb.org

 39 40  0  0  1  0  0  0  0  0999 V2000
    0.6138    0.0828   -0.0963 C   0  0  0  0  0  0  0  0  0  0  0  0
    2.4798    0.2281    1.5195 C   0  0  0  0  0  0  0  0  0  0  0  0
    2.6367    2.6076   -0.6472 C   0  0  0  0  0  0  0  0  0  0  0  0
    2.4213   -0.9340   -2.1699 C   0  0  0  0  0  0  0  0  0  0  0  0
    2.5379    0.6149   -2.3223 C   0  0  0  0  0  0  0  0  0  0  0  0
    5.1676   -1.4518    0.5253 C   0  0  0  0  0  0  0  0  0  0  0  0
    6.1018   -3.5596    1.4082 C   0  0  0  0  0  0  0  0  0  0  0  0
    4.3402   -0.8529   -0.6185 C   0  0  1  0  0  0  0  0  0  0  0  0
    2.8208   -1.1578   -0.6901 C   0  0  1  0  0  0  0  0  0  0  0  0
    5.8345   -5.0693    1.4008 C   0  0  0  0  0  0  0  0  0  0  0  0
    4.3335    0.6932   -0.6516 C   0  0  0  0  0  0  0  0  0  0  0  0
    2.1476    0.0692    0.0226 C   0  0  0  0  0  0  0  0  0  0  0  0
    2.8799    1.1265   -0.8826 C   0  0  1  0  0  0  0  0  0  0  0  0
    6.5955   -5.9822    1.8494 N   0  0  0  0  0  0  0  0  0  0  0  0
    5.3289   -2.9022    0.3499 N   0  0  0  0  0  0  0  0  0  0  0  0
    4.6232   -5.3840    0.8974 O   0  0  0  0  0  0  0  0  0  0  0  0
    5.3008    1.4100   -0.5083 O   0  0  0  0  0  0  0  0  0  0  0  0
    0.1862   -0.7533    0.4713 H   0  0  0  0  0  0  0  0  0  0  0  0
    0.2446    0.0053   -1.1214 H   0  0  0  0  0  0  0  0  0  0  0  0
    0.2065    1.0065    0.3304 H   0  0  0  0  0  0  0  0  0  0  0  0
    2.2043   -0.6746    2.0782 H   0  0  0  0  0  0  0  0  0  0  0  0
    1.9084    1.0598    1.9472 H   0  0  0  0  0  0  0  0  0  0  0  0
    3.5339    0.4417    1.7196 H   0  0  0  0  0  0  0  0  0  0  0  0
    3.2724    3.2094   -1.3054 H   0  0  0  0  0  0  0  0  0  0  0  0
    2.8788    2.8934    0.3817 H   0  0  0  0  0  0  0  0  0  0  0  0
    1.5922    2.8736   -0.8442 H   0  0  0  0  0  0  0  0  0  0  0  0
    3.0844   -1.4747   -2.8531 H   0  0  0  0  0  0  0  0  0  0  0  0
    1.4061   -1.2842   -2.3758 H   0  0  0  0  0  0  0  0  0  0  0  0
    1.5970    1.0652   -2.6553 H   0  0  0  0  0  0  0  0  0  0  0  0
    3.3026    0.9165   -3.0464 H   0  0  0  0  0  0  0  0  0  0  0  0
    4.6790   -1.3010    1.4917 H   0  0  0  0  0  0  0  0  0  0  0  0
    6.1335   -0.9223    0.5643 H   0  0  0  0  0  0  0  0  0  0  0  0
    7.1852   -3.3713    1.3569 H   0  0  0  0  0  0  0  0  0  0  0  0
    5.7528   -3.1590    2.3692 H   0  0  0  0  0  0  0  0  0  0  0  0
    4.8337   -1.1760   -1.5487 H   0  0  0  0  0  0  0  0  0  0  0  0
    2.5460   -2.1398   -0.2935 H   0  0  0  0  0  0  0  0  0  0  0  0
    7.4663   -5.5680    2.1894 H   0  0  0  0  0  0  0  0  0  0  0  0
    5.7759   -3.0835   -0.5494 H   0  0  0  0  0  0  0  0  0  0  0  0
    4.2670   -4.5371    0.5436 H   0  0  0  0  0  0  0  0  0  0  0  0
  1 12  1  0  0  0  0
  1 20  1  0  0  0  0
  1 18  1  0  0  0  0
  2 23  1  0  0  0  0
  2 22  1  0  0  0  0
  2 21  1  0  0  0  0
  3 25  1  0  0  0  0
  4  9  1  0  0  0  0
  5  4  1  0  0  0  0
  5 13  1  0  0  0  0
  6 32  1  0  0  0  0
  6 31  1  0  0  0  0
  7 34  1  0  0  0  0
  8 35  1  6  0  0  0
  8  6  1  0  0  0  0
  9  8  1  0  0  0  0
  9 36  1  1  0  0  0
  9 12  1  0  0  0  0
 10  7  1  0  0  0  0
 10 14  2  0  0  0  0
 11  8  1  0  0  0  0
 11 17  2  0  0  0  0
 12  2  1  0  0  0  0
 13 11  1  0  0  0  0
 13  3  1  1  0  0  0
 13 12  1  0  0  0  0
 14 37  1  0  0  0  0
 15  6  1  0  0  0  0
 15  7  1  0  0  0  0
 16 10  1  0  0  0  0
 19  1  1  0  0  0  0
 24  3  1  0  0  0  0
 26  3  1  0  0  0  0
 27  4  1  0  0  0  0
 28  4  1  0  0  0  0
 29  5  1  0  0  0  0
 30  5  1  0  0  0  0
 33  7  1  0  0  0  0
 38 15  1  0  0  0  0
 39 16  1  0  0  0  0
M  END
>  <HBA>
4

>  <HBD>
2

>  <TPSA>
72.19

>  <cid>
56337

>  <dipole>
4.6

>  <excitation_energy_1>
4.206

>  <excitation_energy_2>
5.559

>  <excitation_energy_3>
5.847

>  <excitation_energy_4>
5.87

>  <homo_energy>
-6.61

>  <homo_lumo_gap>
5.965

>  <logP>
1.794

>  <lumo_energy>
-0.645

>  <melting_point>
175.53

>  <molecular_refractivity>
65.77

>  <oscillator_strength_1>
0.0003

>  <oscillator_strength_2>
0.0021

>  <oscillator_strength_3>
0.002

>  <oscillator_strength_4>
0.005

>  <open_babel_can_smiles>
OC(=N)CNC[C@@H]1C(=O)[C@@]2(C([C@H]1CC2)(C)C)C

>  <mulliken_charges>
39
1   -0.468798
2   -0.48031
3   -0.475892
4   -0.289205
5   -0.302505
6   -0.120456
7   -0.211662
8   -0.183816
9   -0.116125
10   0.477474
11   0.435895
12   0.089285
13   0.023471
14   -0.594125
15   -0.613946
16   -0.586986
17   -0.470688
18   0.149536
19   0.149386
20   0.149275
21   0.149562
22   0.15303
23   0.15659
24   0.162861
25   0.154786
26   0.142506
27   0.139073
28   0.148513
29   0.153559
30   0.152059
31   0.156998
32   0.154395
33   0.150362
34   0.180022
35   0.149307
36   0.12772
37   0.274956
38   0.315227
39   0.418666

>  <lowdin_charges>
39
1   -0.44623
2   -0.451145
3   -0.440203
4   -0.286284
5   -0.283013
6   -0.199342
7   -0.240371
8   -0.167834
9   -0.135741
10   0.110161
11   0.154755
12   0.006907
13   -0.028521
14   -0.406898
15   -0.360142
16   -0.368733
17   -0.230888
18   0.155472
19   0.152457
20   0.153459
21   0.154019
22   0.156674
23   0.152758
24   0.164773
25   0.156853
26   0.150154
27   0.147134
28   0.148943
29   0.15428
30   0.153229
31   0.152177
32   0.143668
33   0.143156
34   0.167072
35   0.159083
36   0.145871
37   0.252355
38   0.261841
39   0.348097

$$$$

