PCCDB-ID:  10996
public computational chemistry database (PCCDB) project, http://pccdb.org

 16 15  0  0  0  0  0  0  0  0999 V2000
    1.4744   -1.8457   -0.4282 C   0  0  0  0  0  0  0  0  0  0  0  0
    2.6769   -1.0557    0.0984 C   0  0  0  0  0  0  0  0  0  0  0  0
    2.7038    0.3937   -0.4052 C   0  0  0  0  0  0  0  0  0  0  0  0
    3.9223    1.1611    0.0967 C   0  0  0  0  0  0  0  0  0  0  0  0
    4.7936    2.7905   -1.3568 N   0  0  0  0  0  0  0  0  0  0  0  0
    4.7306    3.9140   -1.7176 O   0  0  0  0  0  0  0  0  0  0  0  0
    3.8630    2.5419   -0.3113 O   0  0  0  0  0  0  0  0  0  0  0  0
    1.4814   -2.8751   -0.0533 H   0  0  0  0  0  0  0  0  0  0  0  0
    1.4778   -1.8890   -1.5239 H   0  0  0  0  0  0  0  0  0  0  0  0
    0.5300   -1.3830   -0.1175 H   0  0  0  0  0  0  0  0  0  0  0  0
    3.6059   -1.5635   -0.1970 H   0  0  0  0  0  0  0  0  0  0  0  0
    2.6631   -1.0587    1.1974 H   0  0  0  0  0  0  0  0  0  0  0  0
    1.7959    0.9202   -0.0829 H   0  0  0  0  0  0  0  0  0  0  0  0
    2.7041    0.4105   -1.5035 H   0  0  0  0  0  0  0  0  0  0  0  0
    4.8543    0.7281   -0.2853 H   0  0  0  0  0  0  0  0  0  0  0  0
    3.9654    1.1725    1.1912 H   0  0  0  0  0  0  0  0  0  0  0  0
  1 10  1  0  0  0  0
  1  8  1  0  0  0  0
  1  2  1  0  0  0  0
  2 12  1  0  0  0  0
  3 13  1  0  0  0  0
  3  4  1  0  0  0  0
  3  2  1  0  0  0  0
  4 16  1  0  0  0  0
  5  7  1  0  0  0  0
  6  5  1  0  0  0  0
  7  4  1  0  0  0  0
  9  1  1  0  0  0  0
 11  2  1  0  0  0  0
 14  3  1  0  0  0  0
 15  4  1  0  0  0  0
M  RAD  2   5   2   6   2
M  END
>  <HBA>
1

>  <HBD>
0

>  <TPSA>
38.66

>  <cid>
10996

>  <dipole>
2.8

>  <excitation_energy_1>
3.395

>  <excitation_energy_2>
5.434

>  <excitation_energy_3>
6.153

>  <excitation_energy_4>
6.303

>  <homo_energy>
-7.323

>  <homo_lumo_gap>
5.309

>  <logP>
1.484

>  <lumo_energy>
-2.014

>  <melting_point>
-12.79

>  <molecular_refractivity>
27.16

>  <oscillator_strength_1>
0.0009

>  <oscillator_strength_2>
0.0871

>  <oscillator_strength_3>
0.0013

>  <oscillator_strength_4>
0.0011

>  <open_babel_can_smiles>
CCCCO[N][O]

>  <mulliken_charges>
16
1   -0.441578
2   -0.259711
3   -0.263597
4   -0.04163
5   0.278301
6   -0.240891
7   -0.355729
8   0.147495
9   0.147151
10   0.147093
11   0.137405
12   0.1372
13   0.1516
14   0.145088
15   0.155593
16   0.156208

>  <lowdin_charges>
16
1   -0.439357
2   -0.270502
3   -0.284978
4   -0.143665
5   0.130509
6   -0.12647
7   -0.192308
8   0.15155
9   0.147393
10   0.149471
11   0.142093
12   0.139834
13   0.151628
14   0.145972
15   0.148993
16   0.149839

$$$$

