PCCDB-ID:  16545
public computational chemistry database (PCCDB) project, http://pccdb.org

 24 25  0  0  0  0  0  0  0  0999 V2000
    2.4530    1.8301    0.0611 C   0  0  0  0  0  0  0  0  0  0  0  0
    1.6581   -0.5145   -0.0703 C   0  0  0  0  0  0  0  0  0  0  0  0
    5.8974   -0.9708    5.8058 C   0  0  0  0  0  0  0  0  0  0  0  0
    5.1704   -2.0290    5.2485 C   0  0  0  0  0  0  0  0  0  0  0  0
    5.9785    0.3613    5.3845 C   0  0  0  0  0  0  0  0  0  0  0  0
    4.3376   -2.0451    4.1323 C   0  0  0  0  0  0  0  0  0  0  0  0
    5.3638    0.9912    4.3050 C   0  0  0  0  0  0  0  0  0  0  0  0
    4.0216   -0.9764    3.2856 C   0  0  0  0  0  0  0  0  0  0  0  0
    4.4962    0.4240    3.3645 C   0  0  0  0  0  0  0  0  0  0  0  0
    3.1892    0.1774    1.7078 C   0  0  0  0  0  0  0  0  0  0  0  0
    3.2014   -1.0833    2.2278 N   0  0  0  0  0  0  0  0  0  0  0  0
    3.9457    1.1121    2.3513 N   0  0  0  0  0  0  0  0  0  0  0  0
    2.4629    0.4853    0.6089 N   0  0  0  0  0  0  0  0  0  0  0  0
    2.8161    1.8222   -0.9757 H   0  0  0  0  0  0  0  0  0  0  0  0
    3.0972    2.4661    0.6662 H   0  0  0  0  0  0  0  0  0  0  0  0
    1.4321    2.2360    0.0628 H   0  0  0  0  0  0  0  0  0  0  0  0
    1.9832   -0.6208   -1.1142 H   0  0  0  0  0  0  0  0  0  0  0  0
    0.6001   -0.2183   -0.0702 H   0  0  0  0  0  0  0  0  0  0  0  0
    1.7675   -1.4686    0.4428 H   0  0  0  0  0  0  0  0  0  0  0  0
    6.4809   -1.2186    6.6898 H   0  0  0  0  0  0  0  0  0  0  0  0
    5.2706   -2.9824    5.7642 H   0  0  0  0  0  0  0  0  0  0  0  0
    6.6179    1.0010    5.9901 H   0  0  0  0  0  0  0  0  0  0  0  0
    3.8668   -2.9901    3.8721 H   0  0  0  0  0  0  0  0  0  0  0  0
    5.5690    2.0490    4.1589 H   0  0  0  0  0  0  0  0  0  0  0  0
  1 16  1  0  0  0  0
  1 13  1  0  0  0  0
  1 15  1  0  0  0  0
  2 18  1  0  0  0  0
  2 19  1  0  0  0  0
  2 13  1  0  0  0  0
  3 20  1  0  0  0  0
  4 21  1  0  0  0  0
  4  3  2  0  0  0  0
  5  3  1  0  0  0  0
  5 22  1  0  0  0  0
  6  4  1  0  0  0  0
  7  5  2  0  0  0  0
  8  9  1  0  0  0  0
  8  6  2  0  0  0  0
  9  7  1  0  0  0  0
 10 11  2  0  0  0  0
 10 12  1  0  0  0  0
 11  8  1  0  0  0  0
 12  9  2  0  0  0  0
 13 10  1  0  0  0  0
 14  1  1  0  0  0  0
 17  2  1  0  0  0  0
 23  6  1  0  0  0  0
 24  7  1  0  0  0  0
M  END
>  <HBA>
3

>  <HBD>
0

>  <TPSA>
29.02

>  <cid>
16545

>  <dipole>
0.11

>  <excitation_energy_1>
3.403

>  <excitation_energy_2>
3.482

>  <excitation_energy_3>
4.054

>  <excitation_energy_4>
4.181

>  <homo_energy>
-5.336

>  <homo_lumo_gap>
3.706

>  <logP>
1.647

>  <lumo_energy>
-1.63

>  <melting_point>
81.18

>  <molecular_refractivity>
52.86

>  <oscillator_strength_1>
0.0207

>  <oscillator_strength_2>
0.3121

>  <oscillator_strength_3>
0.0525

>  <oscillator_strength_4>
0.0

>  <open_babel_can_smiles>
CN(c1nc2c(n1)ccccc2)C

>  <mulliken_charges>
24
1   -0.321747
2   -0.32182
3   -0.130693
4   -0.121162
5   -0.121194
6   -0.196847
7   -0.196846
8   0.305237
9   0.305119
10   0.694969
11   -0.587555
12   -0.587473
13   -0.468798
14   0.151895
15   0.211711
16   0.151962
17   0.15184
18   0.152014
19   0.211733
20   0.13703
21   0.138677
22   0.13872
23   0.151616
24   0.151612

>  <lowdin_charges>
24
1   -0.351004
2   -0.349567
3   -0.162967
4   -0.139517
5   -0.140667
6   -0.153523
7   -0.15249
8   0.04687
9   0.047943
10   0.121689
11   -0.247755
12   -0.24779
13   -0.070897
14   0.147439
15   0.188299
16   0.14784
17   0.147363
18   0.147029
19   0.186727
20   0.162429
21   0.163548
22   0.165146
23   0.172727
24   0.171129

$$$$

