PCCDB-ID:  18818
public computational chemistry database (PCCDB) project, http://pccdb.org

 26 27  0  0  1  0  0  0  0  0999 V2000
    3.9334    0.7219    0.2186 C   0  0  0  0  0  0  0  0  0  0  0  0
    3.1140   -1.1814   -1.2121 C   0  0  0  0  0  0  0  0  0  0  0  0
    4.0614   -4.6388    2.2308 C   0  0  0  0  0  0  0  0  0  0  0  0
    1.8497   -3.3739    2.2886 C   0  0  0  0  0  0  0  0  0  0  0  0
    1.4786   -2.1642    1.3936 C   0  0  0  0  0  0  0  0  0  0  0  0
    3.3657   -0.9793    2.6303 C   0  0  0  0  0  0  0  0  0  0  0  0
    2.8684   -0.3760    0.0776 C   0  0  0  0  0  0  0  0  0  0  0  0
    3.3590   -3.5058    2.1533 C   0  0  0  0  0  0  0  0  0  0  0  0
    3.8960   -2.1592    1.8253 C   0  0  1  0  0  0  0  0  0  0  0  0
    2.7455   -1.2987    1.2972 C   0  0  2  0  0  0  0  0  0  0  0  0
    3.9737    1.3281   -0.6935 H   0  0  0  0  0  0  0  0  0  0  0  0
    4.9344    0.2979    0.3712 H   0  0  0  0  0  0  0  0  0  0  0  0
    3.7188    1.3951    1.0549 H   0  0  0  0  0  0  0  0  0  0  0  0
    3.0946   -0.5248   -2.0899 H   0  0  0  0  0  0  0  0  0  0  0  0
    2.3589   -1.9594   -1.3647 H   0  0  0  0  0  0  0  0  0  0  0  0
    4.0939   -1.6731   -1.1819 H   0  0  0  0  0  0  0  0  0  0  0  0
    3.5811   -5.5973    2.4103 H   0  0  0  0  0  0  0  0  0  0  0  0
    5.1425   -4.6494    2.1171 H   0  0  0  0  0  0  0  0  0  0  0  0
    1.3240   -4.2904    2.0032 H   0  0  0  0  0  0  0  0  0  0  0  0
    1.5823   -3.1737    3.3350 H   0  0  0  0  0  0  0  0  0  0  0  0
    0.6229   -1.5995    1.7846 H   0  0  0  0  0  0  0  0  0  0  0  0
    1.2016   -2.5170    0.3934 H   0  0  0  0  0  0  0  0  0  0  0  0
    4.0255   -0.1202    2.6965 H   0  0  0  0  0  0  0  0  0  0  0  0
    2.8061   -1.1691    3.5436 H   0  0  0  0  0  0  0  0  0  0  0  0
    1.8961    0.1313   -0.0268 H   0  0  0  0  0  0  0  0  0  0  0  0
    4.9018   -2.0784    1.4209 H   0  0  0  0  0  0  0  0  0  0  0  0
  1 12  1  0  0  0  0
  1 13  1  0  0  0  0
  2 16  1  0  0  0  0
  2  7  1  0  0  0  0
  3 17  1  0  0  0  0
  4 20  1  0  0  0  0
  5 21  1  0  0  0  0
  5  4  1  0  0  0  0
  6 23  1  0  0  0  0
  6 24  1  0  0  0  0
  7  1  1  0  0  0  0
  8  3  2  0  0  0  0
  8  4  1  0  0  0  0
  9 26  1  6  0  0  0
  9  8  1  0  0  0  0
  9  6  1  0  0  0  0
 10  7  1  6  0  0  0
 10  5  1  0  0  0  0
 10  9  1  0  0  0  0
 10  6  1  0  0  0  0
 11  1  1  0  0  0  0
 14  2  1  0  0  0  0
 15  2  1  0  0  0  0
 18  3  1  0  0  0  0
 19  4  1  0  0  0  0
 22  5  1  0  0  0  0
 25  7  1  0  0  0  0
M  END
>  <HBA>
0

>  <HBD>
0

>  <TPSA>
0.0

>  <cid>
18818

>  <dipole>
0.9

>  <excitation_energy_1>
5.6

>  <excitation_energy_2>
5.88

>  <excitation_energy_3>
5.979

>  <excitation_energy_4>
6.105

>  <homo_energy>
-6.0

>  <homo_lumo_gap>
6.787

>  <logP>
2.999

>  <lumo_energy>
0.786

>  <melting_point>
17.45

>  <molecular_refractivity>
45.22

>  <oscillator_strength_1>
0.0446

>  <oscillator_strength_2>
0.1212

>  <oscillator_strength_3>
0.0256

>  <oscillator_strength_4>
0.0057

>  <open_babel_can_smiles>
C=C1CC[C@@]2([C@H]1C2)C(C)C

>  <mulliken_charges>
26
1   -0.460117
2   -0.444773
3   -0.445727
4   -0.375469
5   -0.283202
6   -0.343201
7   -0.092986
8   0.283474
9   -0.198374
10   0.105225
11   0.142863
12   0.142265
13   0.147323
14   0.138288
15   0.144921
16   0.144899
17   0.127524
18   0.129241
19   0.149335
20   0.153779
21   0.133945
22   0.142359
23   0.15211
24   0.147165
25   0.125079
26   0.134053

>  <lowdin_charges>
26
1   -0.446159
2   -0.445338
3   -0.376981
4   -0.282714
5   -0.272744
6   -0.316376
7   -0.11401
8   0.013853
9   -0.162156
10   -0.010307
11   0.151242
12   0.145157
13   0.150895
14   0.147352
15   0.149266
16   0.148195
17   0.153921
18   0.152348
19   0.156354
20   0.151843
21   0.144441
22   0.146038
23   0.164309
24   0.156567
25   0.140141
26   0.154864

$$$$

