PCCDB-ID:  24183
public computational chemistry database (PCCDB) project, http://pccdb.org

 31 33  0  0  0  0  0  0  0  0999 V2000
    2.7720   -0.5904    1.1943 C   0  0  0  0  0  0  0  0  0  0  0  0
   -2.2589   -0.8411   -4.8525 C   0  0  0  0  0  0  0  0  0  0  0  0
   -2.3513    0.4477   -5.4150 C   0  0  0  0  0  0  0  0  0  0  0  0
   -1.3268   -1.1263   -3.8613 C   0  0  0  0  0  0  0  0  0  0  0  0
   -1.5108    1.4758   -4.9996 C   0  0  0  0  0  0  0  0  0  0  0  0
    1.1224   -1.1786   -1.6005 C   0  0  0  0  0  0  0  0  0  0  0  0
    2.1581    1.8718   -1.6239 C   0  0  0  0  0  0  0  0  0  0  0  0
    2.6070   -0.9820   -1.2131 C   0  0  0  0  0  0  0  0  0  0  0  0
    2.2439    1.2737   -0.2124 C   0  0  0  0  0  0  0  0  0  0  0  0
   -0.4651   -0.1087   -3.4177 C   0  0  0  0  0  0  0  0  0  0  0  0
    0.5934   -0.0478   -2.4409 C   0  0  0  0  0  0  0  0  0  0  0  0
   -0.5752    1.1832   -4.0033 C   0  0  0  0  0  0  0  0  0  0  0  0
    1.0790    1.2408   -2.4581 C   0  0  0  0  0  0  0  0  0  0  0  0
    0.3777    1.9795   -3.4021 N   0  0  0  0  0  0  0  0  0  0  0  0
    2.9093   -0.0276   -0.1405 N   0  0  0  0  0  0  0  0  0  0  0  0
    3.3643   -1.5079    1.2754 H   0  0  0  0  0  0  0  0  0  0  0  0
    1.7277   -0.8272    1.4790 H   0  0  0  0  0  0  0  0  0  0  0  0
    3.1574    0.1242    1.9315 H   0  0  0  0  0  0  0  0  0  0  0  0
   -2.9300   -1.6221   -5.2000 H   0  0  0  0  0  0  0  0  0  0  0  0
   -3.0895    0.6425   -6.1883 H   0  0  0  0  0  0  0  0  0  0  0  0
   -1.2682   -2.1240   -3.4332 H   0  0  0  0  0  0  0  0  0  0  0  0
   -1.5799    2.4689   -5.4367 H   0  0  0  0  0  0  0  0  0  0  0  0
    0.5148   -1.3335   -0.6955 H   0  0  0  0  0  0  0  0  0  0  0  0
    1.0405   -2.1135   -2.1722 H   0  0  0  0  0  0  0  0  0  0  0  0
    3.1421    1.8051   -2.1108 H   0  0  0  0  0  0  0  0  0  0  0  0
    1.9437    2.9441   -1.5185 H   0  0  0  0  0  0  0  0  0  0  0  0
    3.1524   -0.6793   -2.1161 H   0  0  0  0  0  0  0  0  0  0  0  0
    3.0350   -1.9419   -0.9039 H   0  0  0  0  0  0  0  0  0  0  0  0
    1.2163    1.2357    0.1994 H   0  0  0  0  0  0  0  0  0  0  0  0
    2.8098    1.9620    0.4302 H   0  0  0  0  0  0  0  0  0  0  0  0
    0.5224    2.9599   -3.5881 H   0  0  0  0  0  0  0  0  0  0  0  0
  1 16  1  0  0  0  0
  1 17  1  0  0  0  0
  1 18  1  0  0  0  0
  2  4  2  0  0  0  0
  3  5  2  0  0  0  0
  3  2  1  0  0  0  0
  4 21  1  0  0  0  0
  4 10  1  0  0  0  0
  5 12  1  0  0  0  0
  6  8  1  0  0  0  0
  6 23  1  0  0  0  0
  7 26  1  0  0  0  0
  7  9  1  0  0  0  0
  8 28  1  0  0  0  0
  8 15  1  0  0  0  0
  9 15  1  0  0  0  0
  9 29  1  0  0  0  0
  9 30  1  0  0  0  0
 10 11  1  0  0  0  0
 11  6  1  0  0  0  0
 12 10  2  0  0  0  0
 12 14  1  0  0  0  0
 13 11  2  0  0  0  0
 13  7  1  0  0  0  0
 14 13  1  0  0  0  0
 15  1  1  0  0  0  0
 19  2  1  0  0  0  0
 20  3  1  0  0  0  0
 22  5  1  0  0  0  0
 24  6  1  0  0  0  0
 25  7  1  0  0  0  0
 27  8  1  0  0  0  0
 31 14  1  0  0  0  0
M  END
>  <HBA>
1

>  <HBD>
1

>  <TPSA>
19.03

>  <cid>
24183

>  <dipole>
1.95

>  <excitation_energy_1>
4.516

>  <excitation_energy_2>
4.554

>  <excitation_energy_3>
4.741

>  <excitation_energy_4>
4.801

>  <homo_energy>
-5.132

>  <homo_lumo_gap>
5.143

>  <logP>
2.136

>  <lumo_energy>
0.011

>  <melting_point>
127.82

>  <molecular_refractivity>
67.35

>  <oscillator_strength_1>
0.0758

>  <oscillator_strength_2>
0.0123

>  <oscillator_strength_3>
0.023

>  <oscillator_strength_4>
0.0028

>  <open_babel_can_smiles>
CN1CCc2c(CC1)c1c([nH]2)cccc1

>  <mulliken_charges>
31
1   -0.298415
2   -0.141729
3   -0.15062
4   -0.209104
5   -0.172777
6   -0.349508
7   -0.370845
8   -0.142222
9   -0.104999
10   0.062432
11   0.046354
12   0.331305
13   0.30019
14   -0.764524
15   -0.376252
16   0.147698
17   0.121218
18   0.146541
19   0.116727
20   0.118906
21   0.119399
22   0.116753
23   0.147743
24   0.14177
25   0.168461
26   0.140415
27   0.145273
28   0.134713
29   0.121136
30   0.136011
31   0.31795

>  <lowdin_charges>
31
1   -0.356095
2   -0.179074
3   -0.167856
4   -0.166207
5   -0.189372
6   -0.287886
7   -0.281776
8   -0.204151
9   -0.193581
10   -0.032634
11   -0.079857
12   0.030577
13   0.012696
14   -0.204327
15   -0.19113
16   0.149214
17   0.119193
18   0.149549
19   0.153889
20   0.154321
21   0.153011
22   0.152538
23   0.148705
24   0.153128
25   0.159857
26   0.152503
27   0.145178
28   0.146999
29   0.122269
30   0.145152
31   0.285171

$$$$

