PCCDB-ID:  14028
public computational chemistry database (PCCDB) project, http://pccdb.org

 27 26  0  0  0  0  0  0  0  0999 V2000
    1.4108    1.8341    2.4251 C   0  0  0  0  0  0  0  0  0  0  0  0
    8.1278    1.0106    1.3954 C   0  0  0  0  0  0  0  0  0  0  0  0
    5.2783   -0.4365   -2.8851 C   0  0  0  0  0  0  0  0  0  0  0  0
    2.7616    2.1748    1.8256 C   0  0  0  0  0  0  0  0  0  0  0  0
    6.9739    1.9756    1.1880 C   0  0  0  0  0  0  0  0  0  0  0  0
    4.7180   -0.5958   -0.3663 C   0  0  0  0  0  0  0  0  0  0  0  0
    5.7599   -0.7149   -1.4794 C   0  0  0  0  0  0  0  0  0  0  0  0
    6.9166   -0.9909   -1.2210 O   0  0  0  0  0  0  0  0  0  0  0  0
    4.6508    2.1658   -0.8186 O   0  0  0  0  0  0  0  0  0  0  0  0
    3.2396    1.0080    1.1052 O   0  0  0  0  0  0  0  0  0  0  0  0
    5.7103    1.2888    1.4089 O   0  0  0  0  0  0  0  0  0  0  0  0
    4.5995    1.1283    0.2467 P   0  0  0  0  0  0  0  0  0  0  0  0
    1.0241    2.6944    2.9827 H   0  0  0  0  0  0  0  0  0  0  0  0
    1.4939    0.9854    3.1114 H   0  0  0  0  0  0  0  0  0  0  0  0
    0.6921    1.5781    1.6406 H   0  0  0  0  0  0  0  0  0  0  0  0
    9.0786    1.5434    1.2745 H   0  0  0  0  0  0  0  0  0  0  0  0
    8.0886    0.1944    0.6681 H   0  0  0  0  0  0  0  0  0  0  0  0
    8.0991    0.5845    2.4038 H   0  0  0  0  0  0  0  0  0  0  0  0
    4.8478    0.5721   -2.9177 H   0  0  0  0  0  0  0  0  0  0  0  0
    4.4871   -1.1423   -3.1677 H   0  0  0  0  0  0  0  0  0  0  0  0
    6.1103   -0.5139   -3.5874 H   0  0  0  0  0  0  0  0  0  0  0  0
    3.4920    2.4265    2.6021 H   0  0  0  0  0  0  0  0  0  0  0  0
    2.6894    3.0134    1.1249 H   0  0  0  0  0  0  0  0  0  0  0  0
    6.9749    2.4111    0.1849 H   0  0  0  0  0  0  0  0  0  0  0  0
    7.0003    2.7940    1.9149 H   0  0  0  0  0  0  0  0  0  0  0  0
    4.9944   -1.2460    0.4673 H   0  0  0  0  0  0  0  0  0  0  0  0
    3.7195   -0.8658   -0.7258 H   0  0  0  0  0  0  0  0  0  0  0  0
  1 13  1  0  0  0  0
  1 14  1  0  0  0  0
  2 18  1  0  0  0  0
  3  7  1  0  0  0  0
  4  1  1  0  0  0  0
  4 22  1  0  0  0  0
  5  2  1  0  0  0  0
  5 11  1  0  0  0  0
  5 25  1  0  0  0  0
  6 12  1  0  0  0  0
  6 26  1  0  0  0  0
  7  8  2  0  0  0  0
  7  6  1  0  0  0  0
  9 12  2  0  0  0  0
 10  4  1  0  0  0  0
 12 10  1  0  0  0  0
 12 11  1  0  0  0  0
 15  1  1  0  0  0  0
 16  2  1  0  0  0  0
 17  2  1  0  0  0  0
 19  3  1  0  0  0  0
 20  3  1  0  0  0  0
 21  3  1  0  0  0  0
 23  4  1  0  0  0  0
 24  5  1  0  0  0  0
 27  6  1  0  0  0  0
M  END
>  <HBA>
4

>  <HBD>
0

>  <TPSA>
62.41

>  <cid>
14028

>  <dipole>
2.33

>  <excitation_energy_1>
4.353

>  <excitation_energy_2>
6.167

>  <excitation_energy_3>
6.283

>  <excitation_energy_4>
6.321

>  <homo_energy>
-6.898

>  <homo_lumo_gap>
6.234

>  <logP>
1.841

>  <lumo_energy>
-0.664

>  <melting_point>
-8.3

>  <molecular_refractivity>
46.8

>  <oscillator_strength_1>
0.0012

>  <oscillator_strength_2>
0.0179

>  <oscillator_strength_3>
0.0018

>  <oscillator_strength_4>
0.0185

>  <open_babel_can_smiles>
CCOP(=O)(CC(=O)C)OCC

>  <mulliken_charges>
27
1   -0.456728
2   -0.468768
3   -0.537981
4   -0.038588
5   -0.047555
6   -0.569457
7   0.449044
8   -0.431389
9   -0.579955
10   -0.526161
11   -0.537288
12   1.142106
13   0.152422
14   0.164471
15   0.16513
16   0.146248
17   0.195052
18   0.154819
19   0.2137
20   0.164776
21   0.178475
22   0.16089
23   0.170991
24   0.175701
25   0.151409
26   0.214297
27   0.194341

>  <lowdin_charges>
27
1   -0.448556
2   -0.459539
3   -0.476044
4   -0.119529
5   -0.114673
6   -0.484736
7   0.173431
8   -0.235055
9   -0.604569
10   -0.399287
11   -0.408987
12   1.062439
13   0.160512
14   0.160706
15   0.161463
16   0.156919
17   0.172885
18   0.154937
19   0.192832
20   0.169574
21   0.173296
22   0.152777
23   0.158689
24   0.162282
25   0.148516
26   0.200122
27   0.189594

$$$$

