PCCDB-ID:  34774
public computational chemistry database (PCCDB) project, http://pccdb.org

 32 32  0  0  1  0  0  0  0  0999 V2000
    2.1084    1.4570    0.0406 C   0  0  0  0  0  0  0  0  0  0  0  0
    7.0035   -0.0793   -2.3987 C   0  0  0  0  0  0  0  0  0  0  0  0
    2.7462    0.1938   -2.7564 C   0  0  0  0  0  0  0  0  0  0  0  0
    6.0901   -0.8666    0.4898 C   0  0  0  0  0  0  0  0  0  0  0  0
    2.0678   -0.0332   -0.3107 C   0  0  0  0  0  0  0  0  0  0  0  0
    6.2132   -1.3328   -2.0091 C   0  0  0  0  0  0  0  0  0  0  0  0
    3.1469   -2.0034   -1.5094 C   0  0  0  0  0  0  0  0  0  0  0  0
    4.3332   -2.3648   -0.6044 C   0  0  2  0  0  0  0  0  0  0  0  0
    3.0647   -0.4662   -1.4108 C   0  0  1  0  0  0  0  0  0  0  0  0
    5.2901   -1.1500   -0.7823 C   0  0  1  0  0  0  0  0  0  0  0  0
    4.9091   -3.6398   -0.8324 O   0  0  0  0  0  0  0  0  0  0  0  0
    4.3944   -0.0422   -0.9995 O   0  0  0  0  0  0  0  0  0  0  0  0
    1.4611    1.6687    0.8990 H   0  0  0  0  0  0  0  0  0  0  0  0
    1.7656    2.0847   -0.7895 H   0  0  0  0  0  0  0  0  0  0  0  0
    3.1282    1.7592    0.2965 H   0  0  0  0  0  0  0  0  0  0  0  0
    7.5386   -0.2386   -3.3415 H   0  0  0  0  0  0  0  0  0  0  0  0
    7.7477    0.1874   -1.6407 H   0  0  0  0  0  0  0  0  0  0  0  0
    6.3285    0.7723   -2.5242 H   0  0  0  0  0  0  0  0  0  0  0  0
    1.7371   -0.0742   -3.0922 H   0  0  0  0  0  0  0  0  0  0  0  0
    3.4610   -0.1301   -3.5201 H   0  0  0  0  0  0  0  0  0  0  0  0
    2.8059    1.2837   -2.6838 H   0  0  0  0  0  0  0  0  0  0  0  0
    6.7563   -1.7076    0.7137 H   0  0  0  0  0  0  0  0  0  0  0  0
    5.4107   -0.7267    1.3369 H   0  0  0  0  0  0  0  0  0  0  0  0
    6.6938    0.0404    0.3910 H   0  0  0  0  0  0  0  0  0  0  0  0
    1.0552   -0.3183   -0.6291 H   0  0  0  0  0  0  0  0  0  0  0  0
    2.2833   -0.6188    0.5927 H   0  0  0  0  0  0  0  0  0  0  0  0
    6.9032   -2.1624   -1.8054 H   0  0  0  0  0  0  0  0  0  0  0  0
    5.6013   -1.6365   -2.8713 H   0  0  0  0  0  0  0  0  0  0  0  0
    2.2209   -2.5011   -1.2062 H   0  0  0  0  0  0  0  0  0  0  0  0
    3.3626   -2.3156   -2.5403 H   0  0  0  0  0  0  0  0  0  0  0  0
    4.0072   -2.3965    0.4405 H   0  0  0  0  0  0  0  0  0  0  0  0
    5.1392   -3.6937   -1.7733 H   0  0  0  0  0  0  0  0  0  0  0  0
  1 15  1  0  0  0  0
  1 13  1  0  0  0  0
  2  6  1  0  0  0  0
  2 17  1  0  0  0  0
  3 21  1  0  0  0  0
  4 22  1  0  0  0  0
  4 23  1  0  0  0  0
  5  1  1  0  0  0  0
  5 26  1  0  0  0  0
  6 27  1  0  0  0  0
  7  9  1  0  0  0  0
  7 29  1  0  0  0  0
  7  8  1  0  0  0  0
  8 31  1  1  0  0  0
  9  3  1  6  0  0  0
  9 12  1  0  0  0  0
  9  5  1  0  0  0  0
 10  6  1  6  0  0  0
 10  8  1  0  0  0  0
 10  4  1  0  0  0  0
 11  8  1  0  0  0  0
 12 10  1  0  0  0  0
 14  1  1  0  0  0  0
 16  2  1  0  0  0  0
 18  2  1  0  0  0  0
 19  3  1  0  0  0  0
 20  3  1  0  0  0  0
 24  4  1  0  0  0  0
 25  5  1  0  0  0  0
 28  6  1  0  0  0  0
 30  7  1  0  0  0  0
 32 11  1  0  0  0  0
M  END
>  <HBA>
2

>  <HBD>
1

>  <TPSA>
29.46

>  <cid>
34774

>  <dipole>
1.32

>  <excitation_energy_1>
6.025

>  <excitation_energy_2>
6.317

>  <excitation_energy_3>
6.436

>  <excitation_energy_4>
6.545

>  <homo_energy>
-6.544

>  <homo_lumo_gap>
8.395

>  <logP>
2.105

>  <lumo_energy>
1.85

>  <melting_point>
25.07

>  <molecular_refractivity>
50.39

>  <oscillator_strength_1>
0.0175

>  <oscillator_strength_2>
0.0148

>  <oscillator_strength_3>
0.0064

>  <oscillator_strength_4>
0.002

>  <open_babel_can_smiles>
CC[C@]1(C)C[C@H]([C@@](O1)(C)CC)O

>  <mulliken_charges>
32
1   -0.453362
2   -0.451679
3   -0.464193
4   -0.468834
5   -0.262156
6   -0.290768
7   -0.346294
8   0.102048
9   0.356404
10   0.344735
11   -0.626672
12   -0.554867
13   0.139034
14   0.141491
15   0.167485
16   0.138503
17   0.14606
18   0.166353
19   0.138272
20   0.143238
21   0.158245
22   0.150729
23   0.14523
24   0.154736
25   0.126525
26   0.131384
27   0.138114
28   0.117915
29   0.153443
30   0.126855
31   0.140749
32   0.391277

>  <lowdin_charges>
32
1   -0.450157
2   -0.447781
3   -0.449433
4   -0.450001
5   -0.280994
6   -0.294616
7   -0.306219
8   -0.015015
9   0.130909
10   0.106654
11   -0.446474
12   -0.280742
13   0.149918
14   0.146905
15   0.158984
16   0.148896
17   0.149454
18   0.159265
19   0.149266
20   0.151415
21   0.155986
22   0.157071
23   0.153149
24   0.15665
25   0.140061
26   0.142161
27   0.146316
28   0.134402
29   0.158337
30   0.141021
31   0.14597
32   0.338641

$$$$

