PCCDB-ID:  70273
public computational chemistry database (PCCDB) project, http://pccdb.org

 21 21  0  0  0  0  0  0  0  0999 V2000
    1.6790    0.2235    1.8480 C   0  0  0  0  0  0  0  0  0  0  0  0
    6.5233    0.8656    0.6388 C   0  0  0  0  0  0  0  0  0  0  0  0
    7.0432   -0.5859    0.7143 C   0  0  0  0  0  0  0  0  0  0  0  0
    5.4432    0.7995   -0.4520 C   0  0  0  0  0  0  0  0  0  0  0  0
    5.8223   -1.4790    0.3452 C   0  0  0  0  0  0  0  0  0  0  0  0
    2.5487    0.1127    0.6154 C   0  0  0  0  0  0  0  0  0  0  0  0
    4.7216   -0.5231   -0.1618 C   0  0  0  0  0  0  0  0  0  0  0  0
    2.1965    0.3802   -0.5133 O   0  0  0  0  0  0  0  0  0  0  0  0
    3.7807   -0.3438    0.9388 O   0  0  0  0  0  0  0  0  0  0  0  0
    0.7193    0.6647    1.5769 H   0  0  0  0  0  0  0  0  0  0  0  0
    2.1726    0.8354    2.6096 H   0  0  0  0  0  0  0  0  0  0  0  0
    1.5186   -0.7698    2.2811 H   0  0  0  0  0  0  0  0  0  0  0  0
    7.3136    1.5912    0.4198 H   0  0  0  0  0  0  0  0  0  0  0  0
    6.0636    1.1543    1.5917 H   0  0  0  0  0  0  0  0  0  0  0  0
    7.4586   -0.8323    1.6967 H   0  0  0  0  0  0  0  0  0  0  0  0
    7.8473   -0.7304   -0.0172 H   0  0  0  0  0  0  0  0  0  0  0  0
    5.9112    0.7290   -1.4436 H   0  0  0  0  0  0  0  0  0  0  0  0
    4.7564    1.6499   -0.4719 H   0  0  0  0  0  0  0  0  0  0  0  0
    5.4449   -2.0448    1.2019 H   0  0  0  0  0  0  0  0  0  0  0  0
    6.0802   -2.2056   -0.4327 H   0  0  0  0  0  0  0  0  0  0  0  0
    4.1585   -0.9008   -1.0170 H   0  0  0  0  0  0  0  0  0  0  0  0
  1 12  1  0  0  0  0
  1 11  1  0  0  0  0
  2  3  1  0  0  0  0
  2 14  1  0  0  0  0
  3 15  1  0  0  0  0
  4  7  1  0  0  0  0
  4  2  1  0  0  0  0
  5  3  1  0  0  0  0
  5 19  1  0  0  0  0
  6  9  1  0  0  0  0
  6  1  1  0  0  0  0
  7  5  1  0  0  0  0
  7  9  1  0  0  0  0
  8  6  2  0  0  0  0
 10  1  1  0  0  0  0
 13  2  1  0  0  0  0
 16  3  1  0  0  0  0
 17  4  1  0  0  0  0
 18  4  1  0  0  0  0
 20  5  1  0  0  0  0
 21  7  1  0  0  0  0
M  END
>  <HBA>
2

>  <HBD>
0

>  <TPSA>
26.3

>  <cid>
70273

>  <dipole>
1.98

>  <excitation_energy_1>
5.775

>  <excitation_energy_2>
6.865

>  <excitation_energy_3>
7.31

>  <excitation_energy_4>
7.455

>  <homo_energy>
-7.195

>  <homo_lumo_gap>
7.668

>  <logP>
1.492

>  <lumo_energy>
0.473

>  <melting_point>
7.79

>  <molecular_refractivity>
34.93

>  <oscillator_strength_1>
0.0013

>  <oscillator_strength_2>
0.0304

>  <oscillator_strength_3>
0.021

>  <oscillator_strength_4>
0.0064

>  <open_babel_can_smiles>
CC(=O)OC1CCCC1

>  <mulliken_charges>
21
1   -0.523855
2   -0.26987
3   -0.275166
4   -0.281121
5   -0.291078
6   0.60505
7   0.119266
8   -0.472529
9   -0.471971
10   0.18103
11   0.177907
12   0.180562
13   0.137505
14   0.145265
15   0.140646
16   0.137957
17   0.138985
18   0.159228
19   0.158299
20   0.14476
21   0.159129

>  <lowdin_charges>
21
1   -0.465089
2   -0.284208
3   -0.284637
4   -0.288628
5   -0.294771
6   0.198481
7   0.001399
8   -0.268913
9   -0.204023
10   0.174633
11   0.176316
12   0.176775
13   0.147838
14   0.145765
15   0.148203
16   0.144064
17   0.148425
18   0.159117
19   0.159974
20   0.152607
21   0.156672

$$$$

