PCCDB-ID:  11617
public computational chemistry database (PCCDB) project, http://pccdb.org

 17 16  0  0  0  0  0  0  0  0999 V2000
    0.8863   -0.2664    0.0001 C   0  0  0  0  0  0  0  0  0  0  0  0
    5.4342   -4.4434    0.1794 C   0  0  0  0  0  0  0  0  0  0  0  0
    2.0301   -0.7877    0.4466 C   0  0  0  0  0  0  0  0  0  0  0  0
    5.8382   -3.1717    0.1235 C   0  0  0  0  0  0  0  0  0  0  0  0
    2.9292   -1.6728   -0.3623 C   0  0  0  0  0  0  0  0  0  0  0  0
    5.6269   -2.2675   -1.0510 C   0  0  0  0  0  0  0  0  0  0  0  0
    4.5408   -0.8176   -0.6677 S   0  0  0  0  0  0  0  0  0  0  0  0
    0.2641    0.3655    0.6278 H   0  0  0  0  0  0  0  0  0  0  0  0
    0.5277   -0.4544   -1.0098 H   0  0  0  0  0  0  0  0  0  0  0  0
    5.6045   -5.0595    1.0580 H   0  0  0  0  0  0  0  0  0  0  0  0
    4.9296   -4.9200   -0.6590 H   0  0  0  0  0  0  0  0  0  0  0  0
    2.3682   -0.5676    1.4587 H   0  0  0  0  0  0  0  0  0  0  0  0
    6.3374   -2.7228    0.9816 H   0  0  0  0  0  0  0  0  0  0  0  0
    2.4658   -1.9326   -1.3197 H   0  0  0  0  0  0  0  0  0  0  0  0
    3.1556   -2.5978    0.1817 H   0  0  0  0  0  0  0  0  0  0  0  0
    5.2180   -2.8142   -1.9076 H   0  0  0  0  0  0  0  0  0  0  0  0
    6.5689   -1.8057   -1.3691 H   0  0  0  0  0  0  0  0  0  0  0  0
  1  3  2  0  0  0  0
  1  8  1  0  0  0  0
  2 10  1  0  0  0  0
  3 12  1  0  0  0  0
  4  2  2  0  0  0  0
  4 13  1  0  0  0  0
  5 15  1  0  0  0  0
  5  3  1  0  0  0  0
  6  7  1  0  0  0  0
  6  4  1  0  0  0  0
  7  5  1  0  0  0  0
  9  1  1  0  0  0  0
 11  2  1  0  0  0  0
 14  5  1  0  0  0  0
 16  6  1  0  0  0  0
 17  6  1  0  0  0  0
M  END
>  <HBA>
1

>  <HBD>
0

>  <TPSA>
25.3

>  <cid>
11617

>  <dipole>
1.61

>  <excitation_energy_1>
4.846

>  <excitation_energy_2>
5.107

>  <excitation_energy_3>
5.376

>  <excitation_energy_4>
5.64

>  <homo_energy>
-6.006

>  <homo_lumo_gap>
6.0

>  <logP>
2.092

>  <lumo_energy>
-0.005

>  <melting_point>
-58.79

>  <molecular_refractivity>
37.6

>  <oscillator_strength_1>
0.0151

>  <oscillator_strength_2>
0.0117

>  <oscillator_strength_3>
0.0262

>  <oscillator_strength_4>
0.0055

>  <open_babel_can_smiles>
C=CCSCC=C

>  <mulliken_charges>
17
1   -0.328457
2   -0.337263
3   -0.047622
4   -0.034348
5   -0.452879
6   -0.464026
7   0.091568
8   0.145164
9   0.140685
10   0.147241
11   0.140042
12   0.143751
13   0.144347
14   0.169512
15   0.184671
16   0.172918
17   0.184695

>  <lowdin_charges>
17
1   -0.331307
2   -0.34253
3   -0.147847
4   -0.150346
5   -0.369206
6   -0.372569
7   0.090542
8   0.163112
9   0.156161
10   0.163079
11   0.156966
12   0.15876
13   0.160829
14   0.157361
15   0.169859
16   0.161045
17   0.176091

$$$$

