PCCDB-ID:  17725
public computational chemistry database (PCCDB) project, http://pccdb.org

 20 19  0  0  0  0  0  0  0  0999 V2000
   -0.6017    1.1234   -1.3177 C   0  0  0  0  0  0  0  0  0  0  0  0
   -2.4409    1.4633    0.2578 C   0  0  0  0  0  0  0  0  0  0  0  0
    0.1669    3.1081    3.1034 C   0  0  0  0  0  0  0  0  0  0  0  0
   -1.5124    4.0204    1.5757 C   0  0  0  0  0  0  0  0  0  0  0  0
   -0.1269    2.0827    0.8923 C   0  0  0  0  0  0  0  0  0  0  0  0
   -1.0470    1.7557   -0.0817 N   0  0  0  0  0  0  0  0  0  0  0  0
   -0.6082    2.9109    1.8843 N   0  0  0  0  0  0  0  0  0  0  0  0
    1.4593    1.5159    0.8717 S   0  0  0  0  0  0  0  0  0  0  0  0
   -0.4365    0.0449   -1.1885 H   0  0  0  0  0  0  0  0  0  0  0  0
    0.3329    1.5737   -1.6511 H   0  0  0  0  0  0  0  0  0  0  0  0
   -1.3754    1.2774   -2.0781 H   0  0  0  0  0  0  0  0  0  0  0  0
   -3.1370    2.0593   -0.3460 H   0  0  0  0  0  0  0  0  0  0  0  0
   -2.6223    1.6644    1.3130 H   0  0  0  0  0  0  0  0  0  0  0  0
   -2.6490    0.4009    0.0702 H   0  0  0  0  0  0  0  0  0  0  0  0
   -0.5077    3.4851    3.8800 H   0  0  0  0  0  0  0  0  0  0  0  0
    0.9835    3.8283    2.9564 H   0  0  0  0  0  0  0  0  0  0  0  0
    0.6025    2.1626    3.4256 H   0  0  0  0  0  0  0  0  0  0  0  0
   -1.0021    4.9736    1.7705 H   0  0  0  0  0  0  0  0  0  0  0  0
   -2.4197    3.9867    2.1922 H   0  0  0  0  0  0  0  0  0  0  0  0
   -1.7950    3.9948    0.5238 H   0  0  0  0  0  0  0  0  0  0  0  0
  1  9  1  0  0  0  0
  1  6  1  0  0  0  0
  2 13  1  0  0  0  0
  3 17  1  0  0  0  0
  3 15  1  0  0  0  0
  4 18  1  0  0  0  0
  4  7  1  0  0  0  0
  4 19  1  0  0  0  0
  5  7  1  0  0  0  0
  6  2  1  0  0  0  0
  6  5  1  0  0  0  0
  7  3  1  0  0  0  0
  8  5  2  0  0  0  0
 10  1  1  0  0  0  0
 11  1  1  0  0  0  0
 12  2  1  0  0  0  0
 14  2  1  0  0  0  0
 16  3  1  0  0  0  0
 20  4  1  0  0  0  0
M  END
>  <HBA>
3

>  <HBD>
0

>  <TPSA>
38.57

>  <cid>
17725

>  <dipole>
4.87

>  <excitation_energy_1>
3.668

>  <excitation_energy_2>
4.652

>  <excitation_energy_3>
5.062

>  <excitation_energy_4>
5.149

>  <homo_energy>
-5.208

>  <homo_lumo_gap>
5.018

>  <logP>
0.395

>  <lumo_energy>
-0.19

>  <melting_point>
9.73

>  <molecular_refractivity>
39.73

>  <oscillator_strength_1>
0.001

>  <oscillator_strength_2>
0.0088

>  <oscillator_strength_3>
0.2041

>  <oscillator_strength_4>
0.0256

>  <open_babel_can_smiles>
CN(C(=S)N(C)C)C

>  <mulliken_charges>
20
1   -0.302222
2   -0.321772
3   -0.30244
4   -0.322054
5   0.305179
6   -0.382196
7   -0.38172
8   -0.308026
9   0.167214
10   0.194788
11   0.14428
12   0.156464
13   0.180838
14   0.163679
15   0.14435
16   0.167985
17   0.194441
18   0.16383
19   0.15639
20   0.180993

>  <lowdin_charges>
20
1   -0.3488
2   -0.350629
3   -0.351552
4   -0.351151
5   -0.007415
6   -0.1099
7   -0.109996
8   -0.276681
9   0.152443
10   0.178803
11   0.148763
12   0.150492
13   0.168178
14   0.152805
15   0.149394
16   0.155291
17   0.178429
18   0.1544
19   0.148898
20   0.168228

$$$$

