PCCDB-ID:  20270
public computational chemistry database (PCCDB) project, http://pccdb.org

 27 26  0  0  0  0  0  0  0  0999 V2000
    1.3536   -3.9866    0.8847 C   0  0  0  0  0  0  0  0  0  0  0  0
   10.4979   -6.7679    2.3975 C   0  0  0  0  0  0  0  0  0  0  0  0
    4.4164   -2.9397    2.6921 C   0  0  0  0  0  0  0  0  0  0  0  0
    7.9326   -4.2052    3.1730 C   0  0  0  0  0  0  0  0  0  0  0  0
    5.2310   -2.0261    1.7811 C   0  0  0  0  0  0  0  0  0  0  0  0
    7.8016   -3.2688    1.9733 C   0  0  0  0  0  0  0  0  0  0  0  0
    2.8185   -3.9580    1.2501 C   0  0  0  0  0  0  0  0  0  0  0  0
    9.9506   -5.4163    2.7908 C   0  0  0  0  0  0  0  0  0  0  0  0
    3.6808   -4.6542    0.7598 O   0  0  0  0  0  0  0  0  0  0  0  0
   10.6135   -4.4418    3.0703 O   0  0  0  0  0  0  0  0  0  0  0  0
    3.0519   -3.0431    2.2247 O   0  0  0  0  0  0  0  0  0  0  0  0
    8.5935   -5.4333    2.7930 O   0  0  0  0  0  0  0  0  0  0  0  0
    6.9312   -1.7002    2.3894 S   0  0  0  0  0  0  0  0  0  0  0  0
    1.2009   -4.6703    0.0491 H   0  0  0  0  0  0  0  0  0  0  0  0
    1.0088   -2.9827    0.6179 H   0  0  0  0  0  0  0  0  0  0  0  0
    0.7619   -4.3174    1.7450 H   0  0  0  0  0  0  0  0  0  0  0  0
   11.5878   -6.7351    2.4068 H   0  0  0  0  0  0  0  0  0  0  0  0
   10.1413   -7.0412    1.3989 H   0  0  0  0  0  0  0  0  0  0  0  0
   10.1408   -7.5355    3.0918 H   0  0  0  0  0  0  0  0  0  0  0  0
    4.3428   -2.5230    3.6983 H   0  0  0  0  0  0  0  0  0  0  0  0
    4.8512   -3.9406    2.7365 H   0  0  0  0  0  0  0  0  0  0  0  0
    6.9556   -4.5194    3.5453 H   0  0  0  0  0  0  0  0  0  0  0  0
    8.4936   -3.7237    3.9768 H   0  0  0  0  0  0  0  0  0  0  0  0
    4.7546   -1.0422    1.7221 H   0  0  0  0  0  0  0  0  0  0  0  0
    5.2796   -2.4397    0.7701 H   0  0  0  0  0  0  0  0  0  0  0  0
    7.2747   -3.7617    1.1504 H   0  0  0  0  0  0  0  0  0  0  0  0
    8.7982   -2.9869    1.6245 H   0  0  0  0  0  0  0  0  0  0  0  0
  1  7  1  0  0  0  0
  1 16  1  0  0  0  0
  2 17  1  0  0  0  0
  2  8  1  0  0  0  0
  2 19  1  0  0  0  0
  3 21  1  0  0  0  0
  3 20  1  0  0  0  0
  4 22  1  0  0  0  0
  4 23  1  0  0  0  0
  5 13  1  0  0  0  0
  5  3  1  0  0  0  0
  6 13  1  0  0  0  0
  6  4  1  0  0  0  0
  7 11  1  0  0  0  0
  8 12  1  0  0  0  0
  8 10  2  0  0  0  0
  9  7  2  0  0  0  0
 11  3  1  0  0  0  0
 12  4  1  0  0  0  0
 14  1  1  0  0  0  0
 15  1  1  0  0  0  0
 18  2  1  0  0  0  0
 24  5  1  0  0  0  0
 25  5  1  0  0  0  0
 26  6  1  0  0  0  0
 27  6  1  0  0  0  0
M  END
>  <HBA>
5

>  <HBD>
0

>  <TPSA>
77.9

>  <cid>
20270

>  <dipole>
2.98

>  <excitation_energy_1>
5.382

>  <excitation_energy_2>
5.615

>  <excitation_energy_3>
5.789

>  <excitation_energy_4>
5.801

>  <homo_energy>
-6.324

>  <homo_lumo_gap>
6.438

>  <logP>
0.846

>  <lumo_energy>
0.114

>  <melting_point>
5.96

>  <molecular_refractivity>
50.73

>  <oscillator_strength_1>
0.0018

>  <oscillator_strength_2>
0.0027

>  <oscillator_strength_3>
0.011

>  <oscillator_strength_4>
0.0028

>  <open_babel_can_smiles>
CC(=O)OCCSCCOC(=O)C

>  <mulliken_charges>
27
1   -0.522636
2   -0.522324
3   -0.04116
4   -0.039458
5   -0.443879
6   -0.450342
7   0.599934
8   0.598755
9   -0.469209
10   -0.465847
11   -0.453342
12   -0.452539
13   0.097426
14   0.18464
15   0.182982
16   0.185681
17   0.183596
18   0.183784
19   0.18352
20   0.168289
21   0.171521
22   0.159102
23   0.181316
24   0.1868
25   0.197023
26   0.190873
27   0.205495

>  <lowdin_charges>
27
1   -0.464851
2   -0.462938
3   -0.139267
4   -0.14057
5   -0.388216
6   -0.391613
7   0.203932
8   0.204903
9   -0.268586
10   -0.265631
11   -0.200924
12   -0.202116
13   0.112355
14   0.177469
15   0.177846
16   0.180968
17   0.174412
18   0.178544
19   0.179735
20   0.160978
21   0.157505
22   0.154211
23   0.166113
24   0.173223
25   0.170339
26   0.171853
27   0.180328

$$$$

