PCCDB-ID:  66748
public computational chemistry database (PCCDB) project, http://pccdb.org

 24 24  0  0  0  0  0  0  0  0999 V2000
    1.4865    0.5301    0.3209 C   0  0  0  0  0  0  0  0  0  0  0  0
    2.3015    3.3584   -3.8513 C   0  0  0  0  0  0  0  0  0  0  0  0
    3.1937    2.2883   -3.9241 C   0  0  0  0  0  0  0  0  0  0  0  0
    1.4351    3.4265   -2.7612 C   0  0  0  0  0  0  0  0  0  0  0  0
    4.7234    0.0713   -0.1342 C   0  0  0  0  0  0  0  0  0  0  0  0
    3.2232    1.3062   -2.9372 C   0  0  0  0  0  0  0  0  0  0  0  0
    1.4527    2.4529   -1.7641 C   0  0  0  0  0  0  0  0  0  0  0  0
    5.8219   -0.8907   -0.0418 C   0  0  0  0  0  0  0  0  0  0  0  0
    3.4379   -0.5687   -0.7356 C   0  0  0  0  0  0  0  0  0  0  0  0
    2.3428    1.3591   -1.8329 C   0  0  0  0  0  0  0  0  0  0  0  0
    6.6672   -1.6847    0.0166 N   0  0  0  0  0  0  0  0  0  0  0  0
    2.3322    0.3601   -0.8501 N   0  0  0  0  0  0  0  0  0  0  0  0
    1.5693   -0.3588    0.9508 H   0  0  0  0  0  0  0  0  0  0  0  0
    0.4355    0.6300    0.0274 H   0  0  0  0  0  0  0  0  0  0  0  0
    1.7533    1.4099    0.9283 H   0  0  0  0  0  0  0  0  0  0  0  0
    2.2865    4.1227   -4.6223 H   0  0  0  0  0  0  0  0  0  0  0  0
    3.8834    2.2094   -4.7608 H   0  0  0  0  0  0  0  0  0  0  0  0
    0.7335    4.2524   -2.6736 H   0  0  0  0  0  0  0  0  0  0  0  0
    5.0367    0.9191   -0.7541 H   0  0  0  0  0  0  0  0  0  0  0  0
    4.5102    0.4648    0.8668 H   0  0  0  0  0  0  0  0  0  0  0  0
    3.9328    0.4934   -3.0409 H   0  0  0  0  0  0  0  0  0  0  0  0
    0.7677    2.5508   -0.9309 H   0  0  0  0  0  0  0  0  0  0  0  0
    3.1231   -1.4008   -0.0999 H   0  0  0  0  0  0  0  0  0  0  0  0
    3.6723   -1.0017   -1.7120 H   0  0  0  0  0  0  0  0  0  0  0  0
  1 15  1  0  0  0  0
  1 13  1  0  0  0  0
  2  4  1  0  0  0  0
  3  2  2  0  0  0  0
  3  6  1  0  0  0  0
  4 18  1  0  0  0  0
  4  7  2  0  0  0  0
  5  8  1  0  0  0  0
  5 20  1  0  0  0  0
  6 10  2  0  0  0  0
  7 22  1  0  0  0  0
  8 11  3  0  0  0  0
  9  5  1  0  0  0  0
  9 23  1  0  0  0  0
 10  7  1  0  0  0  0
 10 12  1  0  0  0  0
 12  9  1  0  0  0  0
 12  1  1  0  0  0  0
 14  1  1  0  0  0  0
 16  2  1  0  0  0  0
 17  3  1  0  0  0  0
 19  5  1  0  0  0  0
 21  6  1  0  0  0  0
 24  9  1  0  0  0  0
M  END
>  <HBA>
2

>  <HBD>
0

>  <TPSA>
27.03

>  <cid>
66748

>  <dipole>
3.69

>  <excitation_energy_1>
4.539

>  <excitation_energy_2>
4.643

>  <excitation_energy_3>
5.072

>  <excitation_energy_4>
5.276

>  <homo_energy>
-5.467

>  <homo_lumo_gap>
5.421

>  <logP>
2.036

>  <lumo_energy>
-0.046

>  <melting_point>
45.23

>  <molecular_refractivity>
50.01

>  <oscillator_strength_1>
0.0363

>  <oscillator_strength_2>
0.0108

>  <oscillator_strength_3>
0.2305

>  <oscillator_strength_4>
0.0073

>  <open_babel_can_smiles>
CN(c1ccccc1)CCC#N

>  <mulliken_charges>
24
1   -0.318488
2   -0.134755
3   -0.13698
4   -0.13545
5   -0.349235
6   -0.194331
7   -0.196241
8   0.344821
9   -0.158719
10   0.353543
11   -0.46744
12   -0.471363
13   0.159062
14   0.17132
15   0.151534
16   0.124551
17   0.129635
18   0.127581
19   0.209067
20   0.195042
21   0.124723
22   0.125121
23   0.167882
24   0.179119

>  <lowdin_charges>
24
1   -0.352504
2   -0.185835
3   -0.144881
4   -0.14435
5   -0.29217
6   -0.211627
7   -0.209681
8   -0.019795
9   -0.190657
10   0.056822
11   -0.127107
12   -0.120084
13   0.15943
14   0.157291
15   0.141637
16   0.15732
17   0.15826
18   0.157354
19   0.189595
20   0.181104
21   0.157572
22   0.160084
23   0.161179
24   0.161044

$$$$

