PCCDB-ID:  51371
public computational chemistry database (PCCDB) project, http://pccdb.org

 17 16  0  0  0  0  0  0  0  0999 V2000
    1.5107   -0.6480   -0.3500 C   0  0  0  0  0  0  0  0  0  0  0  0
    3.0013   -0.3866   -0.2813 C   0  0  0  0  0  0  0  0  0  0  0  0
    3.8258    2.8945    2.3634 C   0  0  0  0  0  0  0  0  0  0  0  0
    4.4648    1.0707    0.8732 C   0  0  0  0  0  0  0  0  0  0  0  0
    4.7996    2.0999    1.6958 C   0  0  0  0  0  0  0  0  0  0  0  0
    6.2577    2.3835    1.8862 C   0  0  0  0  0  0  0  0  0  0  0  0
    3.1047    3.5975    2.9510 N   0  0  0  0  0  0  0  0  0  0  0  0
    7.1269    1.7439    1.3381 O   0  0  0  0  0  0  0  0  0  0  0  0
    6.5662    3.4055    2.7135 O   0  0  0  0  0  0  0  0  0  0  0  0
    3.2119    0.7240    0.6298 O   0  0  0  0  0  0  0  0  0  0  0  0
    1.3136   -1.4690   -1.0472 H   0  0  0  0  0  0  0  0  0  0  0  0
    0.9780    0.2409   -0.7003 H   0  0  0  0  0  0  0  0  0  0  0  0
    1.1187   -0.9244    0.6332 H   0  0  0  0  0  0  0  0  0  0  0  0
    3.4096   -0.1124   -1.2610 H   0  0  0  0  0  0  0  0  0  0  0  0
    3.5486   -1.2570    0.0988 H   0  0  0  0  0  0  0  0  0  0  0  0
    5.2655    0.5074    0.3958 H   0  0  0  0  0  0  0  0  0  0  0  0
    5.7610    3.8187    3.0752 H   0  0  0  0  0  0  0  0  0  0  0  0
  1  2  1  0  0  0  0
  1 13  1  0  0  0  0
  2 15  1  0  0  0  0
  2 10  1  0  0  0  0
  3  7  3  0  0  0  0
  4  5  2  0  0  0  0
  5  6  1  0  0  0  0
  5  3  1  0  0  0  0
  6  9  1  0  0  0  0
  8  6  2  0  0  0  0
  9 17  1  0  0  0  0
 10  4  1  0  0  0  0
 11  1  1  0  0  0  0
 12  1  1  0  0  0  0
 14  2  1  0  0  0  0
 16  4  1  0  0  0  0
M  END
>  <HBA>
4

>  <HBD>
1

>  <TPSA>
70.32

>  <cid>
51371

>  <dipole>
5.55

>  <excitation_energy_1>
4.686

>  <excitation_energy_2>
5.132

>  <excitation_energy_3>
5.941

>  <excitation_energy_4>
6.268

>  <homo_energy>
-7.187

>  <homo_lumo_gap>
5.372

>  <logP>
0.515

>  <lumo_energy>
-1.815

>  <melting_point>
88.76

>  <molecular_refractivity>
33.09

>  <oscillator_strength_1>
0.0001

>  <oscillator_strength_2>
0.3472

>  <oscillator_strength_3>
0.0002

>  <oscillator_strength_4>
0.0806

>  <open_babel_can_smiles>
CCO/C=C(/C(=O)O)\C#N

>  <mulliken_charges>
17
1   -0.46298
2   -0.048731
3   0.238192
4   0.176305
5   -0.030721
6   0.608121
7   -0.485233
8   -0.466781
9   -0.580981
10   -0.42332
11   0.163945
12   0.178788
13   0.177524
14   0.167707
15   0.166397
16   0.195322
17   0.426444

>  <lowdin_charges>
17
1   -0.447307
2   -0.119425
3   -0.023774
4   0.03731
5   -0.149274
6   0.207227
7   -0.12093
8   -0.259259
9   -0.342539
10   -0.146493
11   0.167329
12   0.169039
13   0.167427
14   0.153299
15   0.153969
16   0.184236
17   0.369164

$$$$

