PCCDB-ID:  21008
public computational chemistry database (PCCDB) project, http://pccdb.org

 19 19  0  0  0  0  0  0  0  0999 V2000
    0.8423   -0.3476    0.0446 C   0  0  0  0  0  0  0  0  0  0  0  0
    3.1938   -1.2243   -0.3426 C   0  0  0  0  0  0  0  0  0  0  0  0
    4.5791   -1.0901   -0.3303 C   0  0  0  0  0  0  0  0  0  0  0  0
    4.3302    1.1714    0.5175 C   0  0  0  0  0  0  0  0  0  0  0  0
    7.6940    0.3971    0.1355 C   0  0  0  0  0  0  0  0  0  0  0  0
    1.4554    2.9480    1.2685 C   0  0  0  0  0  0  0  0  0  0  0  0
    2.3399   -0.1949    0.0638 C   0  0  0  0  0  0  0  0  0  0  0  0
    5.1518    0.1162    0.1023 C   0  0  0  0  0  0  0  0  0  0  0  0
    2.9396    1.0108    0.4952 C   0  0  0  0  0  0  0  0  0  0  0  0
    6.5141    0.2667    0.1206 N   0  0  0  0  0  0  0  0  0  0  0  0
    2.1444    2.0500    0.9086 N   0  0  0  0  0  0  0  0  0  0  0  0
    9.2767    0.5706    0.1557 S   0  0  0  0  0  0  0  0  0  0  0  0
    0.5317    4.1519    1.7504 S   0  0  0  0  0  0  0  0  0  0  0  0
    0.5576   -1.3464   -0.2974 H   0  0  0  0  0  0  0  0  0  0  0  0
    0.3731    0.3860   -0.6224 H   0  0  0  0  0  0  0  0  0  0  0  0
    0.4094   -0.1941    1.0405 H   0  0  0  0  0  0  0  0  0  0  0  0
    2.7582   -2.1611   -0.6788 H   0  0  0  0  0  0  0  0  0  0  0  0
    5.2221   -1.9030   -0.6497 H   0  0  0  0  0  0  0  0  0  0  0  0
    4.7644    2.1061    0.8523 H   0  0  0  0  0  0  0  0  0  0  0  0
  1  7  1  0  0  0  0
  1 16  1  0  0  0  0
  2  3  2  0  0  0  0
  2  7  1  0  0  0  0
  3  8  1  0  0  0  0
  4 19  1  0  0  0  0
  5 12  2  0  0  0  0
  6 13  2  0  0  0  0
  7  9  2  0  0  0  0
  8 10  1  0  0  0  0
  8  4  2  0  0  0  0
  9  4  1  0  0  0  0
  9 11  1  0  0  0  0
 10  5  2  0  0  0  0
 11  6  2  0  0  0  0
 14  1  1  0  0  0  0
 15  1  1  0  0  0  0
 17  2  1  0  0  0  0
 18  3  1  0  0  0  0
M  END
>  <HBA>
4

>  <HBD>
0

>  <TPSA>
88.9

>  <cid>
21008

>  <dipole>
3.87

>  <excitation_energy_1>
4.114

>  <excitation_energy_2>
4.284

>  <excitation_energy_3>
4.337

>  <excitation_energy_4>
4.345

>  <homo_energy>
-6.384

>  <homo_lumo_gap>
4.612

>  <logP>
3.464

>  <lumo_energy>
-1.771

>  <melting_point>
122.73

>  <molecular_refractivity>
60.78

>  <oscillator_strength_1>
0.0239

>  <oscillator_strength_2>
0.0

>  <oscillator_strength_3>
0.2003

>  <oscillator_strength_4>
0.0

>  <open_babel_can_smiles>
S=C=Nc1ccc(c(c1)N=C=S)C

>  <mulliken_charges>
19
1   -0.529911
2   -0.214829
3   -0.113852
4   -0.13641
5   0.137432
6   0.129803
7   0.193531
8   0.280877
9   0.23198
10   -0.388154
11   -0.389748
12   -0.103546
13   -0.102671
14   0.164924
15   0.18031
16   0.180067
17   0.146872
18   0.160207
19   0.173119

>  <lowdin_charges>
19
1   -0.439935
2   -0.150752
3   -0.156757
4   -0.159559
5   -0.042471
6   -0.038063
7   0.001245
8   0.062385
9   0.053378
10   -0.056923
11   -0.054378
12   -0.025979
13   -0.029446
14   0.163698
15   0.172493
16   0.170773
17   0.16823
18   0.177547
19   0.184513

$$$$

