PCCDB-ID:  67515
public computational chemistry database (PCCDB) project, http://pccdb.org

  8  8  0  0  0  0  0  0  0  0999 V2000
   -1.1659    0.0398   -0.0002 C   0  0  0  0  0  0  0  0  0  0  0  0
   -0.3082   -1.0998   -0.0005 C   0  0  0  0  0  0  0  0  0  0  0  0
   -0.4217    1.1896   -0.0017 C   0  0  0  0  0  0  0  0  0  0  0  0
    0.9915   -0.8820   -0.0009 N   0  0  0  0  0  0  0  0  0  0  0  0
    1.2515    0.7796   -0.0017 S   0  0  0  0  0  0  0  0  0  0  0  0
   -2.2486   -0.0012   -0.0010 H   0  0  0  0  0  0  0  0  0  0  0  0
   -0.6514   -2.1313   -0.0003 H   0  0  0  0  0  0  0  0  0  0  0  0
   -0.7681    2.2153   -0.0020 H   0  0  0  0  0  0  0  0  0  0  0  0
  2  7  1  0  0  0  0
  2  1  1  0  0  0  0
  3  1  2  0  0  0  0
  4  2  2  0  0  0  0
  5  3  1  0  0  0  0
  5  4  1  0  0  0  0
  6  1  1  0  0  0  0
  8  3  1  0  0  0  0
M  END
>  <HBA>
2

>  <HBD>
0

>  <TPSA>
41.13

>  <cid>
67515

>  <dipole>
2.54

>  <excitation_energy_1>
5.618

>  <excitation_energy_2>
5.651

>  <excitation_energy_3>
5.965

>  <excitation_energy_4>
6.162

>  <homo_energy>
-7.14

>  <homo_lumo_gap>
6.256

>  <logP>
1.143

>  <lumo_energy>
-0.884

>  <melting_point>
17.05

>  <molecular_refractivity>
22.11

>  <oscillator_strength_1>
0.11

>  <oscillator_strength_2>
0.0029

>  <oscillator_strength_3>
0.0

>  <oscillator_strength_4>
0.063

>  <open_babel_can_smiles>
c1ccns1

>  <mulliken_charges>
8
1   -0.099048
2   0.017838
3   -0.347874
4   -0.471
5   0.40133
6   0.15298
7   0.159514
8   0.186261

>  <lowdin_charges>
8
1   -0.203894
2   -0.115136
3   -0.311444
4   -0.325219
5   0.428188
6   0.171833
7   0.167853
8   0.187819

$$$$

