PCCDB-ID:  371
public computational chemistry database (PCCDB) project, http://pccdb.org

 10  9  0  0  0  0  0  0  0  0999 V2000
    1.0755   -0.1643    0.1146 C   0  0  0  0  0  0  0  0  0  0  0  0
   -0.1362   -0.1687    0.0973 C   0  0  0  0  0  0  0  0  0  0  0  0
    2.5342   -0.1415    0.1964 C   0  0  0  0  0  0  0  0  0  0  0  0
   -1.5950   -0.1818    0.0150 C   0  0  0  0  0  0  0  0  0  0  0  0
    3.1315    0.1706    1.1945 O   0  0  0  0  0  0  0  0  0  0  0  0
    3.1705   -0.5001   -0.9399 O   0  0  0  0  0  0  0  0  0  0  0  0
   -2.1935   -0.3057   -1.0228 O   0  0  0  0  0  0  0  0  0  0  0  0
   -2.2299   -0.0437    1.1992 O   0  0  0  0  0  0  0  0  0  0  0  0
    2.5243   -0.7102   -1.6370 H   0  0  0  0  0  0  0  0  0  0  0  0
   -1.5829    0.0507    1.9204 H   0  0  0  0  0  0  0  0  0  0  0  0
  1  3  1  0  0  0  0
  2  1  3  0  0  0  0
  3  5  2  0  0  0  0
  4  2  1  0  0  0  0
  4  8  1  0  0  0  0
  6  3  1  0  0  0  0
  7  4  2  0  0  0  0
  8 10  1  0  0  0  0
  9  6  1  0  0  0  0
M  END
>  <HBA>
4

>  <HBD>
2

>  <TPSA>
74.6

>  <cid>
371

>  <dipole>
0.49

>  <excitation_energy_1>
4.043

>  <excitation_energy_2>
4.436

>  <excitation_energy_3>
5.288

>  <excitation_energy_4>
5.404

>  <homo_energy>
-8.27

>  <homo_lumo_gap>
5.459

>  <logP>
-0.841

>  <lumo_energy>
-2.811

>  <melting_point>
146.43

>  <molecular_refractivity>
23.05

>  <oscillator_strength_1>
0.0001

>  <oscillator_strength_2>
0.0007

>  <oscillator_strength_3>
0.0003

>  <oscillator_strength_4>
0.1177

>  <open_babel_can_smiles>
OC(=O)C#CC(=O)O

>  <mulliken_charges>
10
1   -0.012805
2   -0.011304
3   0.533085
4   0.532738
5   -0.399475
6   -0.550247
7   -0.399455
8   -0.550236
9   0.428849
10   0.428851

>  <lowdin_charges>
10
1   -0.064298
2   -0.064263
3   0.209818
4   0.210099
5   -0.19263
6   -0.326543
7   -0.192679
8   -0.326623
9   0.373634
10   0.373486

$$$$

