PCCDB-ID:  12181
public computational chemistry database (PCCDB) project, http://pccdb.org

 15 14  0  0  0  0  0  0  0  0999 V2000
    0.2577    0.0750    0.0267 C   0  0  0  0  0  0  0  0  0  0  0  0
    6.1992   -0.5845    1.5263 C   0  0  0  0  0  0  0  0  0  0  0  0
    1.7454    0.1973   -0.0711 C   0  0  0  0  0  0  0  0  0  0  0  0
    2.6223   -0.2989    0.8104 C   0  0  0  0  0  0  0  0  0  0  0  0
    4.0776   -0.1206    0.6120 C   0  0  0  0  0  0  0  0  0  0  0  0
    4.6094    0.4571   -0.3169 O   0  0  0  0  0  0  0  0  0  0  0  0
    4.7728   -0.6978    1.6244 O   0  0  0  0  0  0  0  0  0  0  0  0
   -0.1465   -0.4533   -0.8473 H   0  0  0  0  0  0  0  0  0  0  0  0
   -0.2146    1.0663    0.0352 H   0  0  0  0  0  0  0  0  0  0  0  0
   -0.0515   -0.4632    0.9282 H   0  0  0  0  0  0  0  0  0  0  0  0
    6.5960   -1.1004    2.4014 H   0  0  0  0  0  0  0  0  0  0  0  0
    6.5038    0.4659    1.5288 H   0  0  0  0  0  0  0  0  0  0  0  0
    6.5612   -1.0528    0.6068 H   0  0  0  0  0  0  0  0  0  0  0  0
    2.1482    0.7334   -0.9300 H   0  0  0  0  0  0  0  0  0  0  0  0
    2.3063   -0.8461    1.6944 H   0  0  0  0  0  0  0  0  0  0  0  0
  1  9  1  0  0  0  0
  1 10  1  0  0  0  0
  2 12  1  0  0  0  0
  2  7  1  0  0  0  0
  2 11  1  0  0  0  0
  3  1  1  0  0  0  0
  3  4  2  0  0  0  0
  4 15  1  0  0  0  0
  5  4  1  0  0  0  0
  5  7  1  0  0  0  0
  6  5  2  0  0  0  0
  8  1  1  0  0  0  0
 13  2  1  0  0  0  0
 14  3  1  0  0  0  0
M  END
>  <HBA>
2

>  <HBD>
0

>  <TPSA>
26.3

>  <cid>
12181

>  <dipole>
1.62

>  <excitation_energy_1>
4.882

>  <excitation_energy_2>
6.021

>  <excitation_energy_3>
6.471

>  <excitation_energy_4>
6.846

>  <homo_energy>
-7.23

>  <homo_lumo_gap>
6.275

>  <logP>
0.736

>  <lumo_energy>
-0.955

>  <melting_point>
-3.67

>  <molecular_refractivity>
26.96

>  <oscillator_strength_1>
0.0001

>  <oscillator_strength_2>
0.4354

>  <oscillator_strength_3>
0.1049

>  <oscillator_strength_4>
0.0057

>  <open_babel_can_smiles>
C/C=C/C(=O)OC

>  <mulliken_charges>
15
1   -0.49829
2   -0.215697
3   -0.054078
4   -0.184625
5   0.607723
6   -0.498441
7   -0.465752
8   0.169417
9   0.168915
10   0.161766
11   0.161558
12   0.168805
13   0.169074
14   0.166376
15   0.143249

>  <lowdin_charges>
15
1   -0.439842
2   -0.277276
3   -0.095257
4   -0.213632
5   0.19317
6   -0.278743
7   -0.196168
8   0.167495
9   0.16609
10   0.159929
11   0.159609
12   0.15725
13   0.159083
14   0.172372
15   0.16592

$$$$

