PCCDB-ID:  9187
public computational chemistry database (PCCDB) project, http://pccdb.org

 27 30  0  0  0  0  0  0  0  0999 V2000
   -3.6350    0.6650   -0.0379 C   0  0  0  0  0  0  0  0  0  0  0  0
   -3.6149   -0.7581    0.0179 C   0  0  0  0  0  0  0  0  0  0  0  0
   -2.4621    1.3752   -0.0429 C   0  0  0  0  0  0  0  0  0  0  0  0
   -2.4231   -1.4349    0.0669 C   0  0  0  0  0  0  0  0  0  0  0  0
    2.4868    1.4680    0.0417 C   0  0  0  0  0  0  0  0  0  0  0  0
    3.6954    0.8323    0.0867 C   0  0  0  0  0  0  0  0  0  0  0  0
    2.8459   -2.7675    0.2177 C   0  0  0  0  0  0  0  0  0  0  0  0
    4.1812   -3.0349    0.2513 C   0  0  0  0  0  0  0  0  0  0  0  0
    0.0187    1.4010    0.0017 C   0  0  0  0  0  0  0  0  0  0  0  0
    0.0565   -1.3975    0.1117 C   0  0  0  0  0  0  0  0  0  0  0  0
   -1.2005    0.7076    0.0067 C   0  0  0  0  0  0  0  0  0  0  0  0
   -1.1799   -0.7326    0.0630 C   0  0  0  0  0  0  0  0  0  0  0  0
    1.2487    0.7393    0.0498 C   0  0  0  0  0  0  0  0  0  0  0  0
    2.5542   -1.3628    0.1552 C   0  0  0  0  0  0  0  0  0  0  0  0
    1.2683   -0.7058    0.1070 C   0  0  0  0  0  0  0  0  0  0  0  0
    3.7192   -0.5888    0.1434 C   0  0  0  0  0  0  0  0  0  0  0  0
    5.1531   -1.5881    0.2095 S   0  0  0  0  0  0  0  0  0  0  0  0
   -4.5884    1.1849   -0.0762 H   0  0  0  0  0  0  0  0  0  0  0  0
   -4.5535   -1.3057    0.0210 H   0  0  0  0  0  0  0  0  0  0  0  0
   -2.4732    2.4618   -0.0855 H   0  0  0  0  0  0  0  0  0  0  0  0
   -2.4061   -2.5215    0.1095 H   0  0  0  0  0  0  0  0  0  0  0  0
    2.4429    2.5532   -0.0028 H   0  0  0  0  0  0  0  0  0  0  0  0
    4.6234    1.3964    0.0782 H   0  0  0  0  0  0  0  0  0  0  0  0
    2.0919   -3.5461    0.2366 H   0  0  0  0  0  0  0  0  0  0  0  0
    4.6636   -4.0020    0.2987 H   0  0  0  0  0  0  0  0  0  0  0  0
    0.0064    2.4883   -0.0421 H   0  0  0  0  0  0  0  0  0  0  0  0
    0.0559   -2.4836    0.1529 H   0  0  0  0  0  0  0  0  0  0  0  0
  1  2  1  0  0  0  0
  2 19  1  0  0  0  0
  2  4  2  0  0  0  0
  3  1  2  0  0  0  0
  3 11  1  0  0  0  0
  4 21  1  0  0  0  0
  5 13  2  0  0  0  0
  5  6  1  0  0  0  0
  6 16  2  0  0  0  0
  7 24  1  0  0  0  0
  7  8  2  0  0  0  0
  8 25  1  0  0  0  0
  9 11  2  0  0  0  0
  9 13  1  0  0  0  0
 10 27  1  0  0  0  0
 11 12  1  0  0  0  0
 12  4  1  0  0  0  0
 12 10  2  0  0  0  0
 13 15  1  0  0  0  0
 14  7  1  0  0  0  0
 15 10  1  0  0  0  0
 15 14  2  0  0  0  0
 16 14  1  0  0  0  0
 16 17  1  0  0  0  0
 17  8  1  0  0  0  0
 18  1  1  0  0  0  0
 20  3  1  0  0  0  0
 22  5  1  0  0  0  0
 23  6  1  0  0  0  0
 26  9  1  0  0  0  0
M  END
>  <HBA>
1

>  <HBD>
0

>  <TPSA>
28.24

>  <cid>
9187

>  <dipole>
0.6

>  <excitation_energy_1>
3.193

>  <excitation_energy_2>
3.672

>  <excitation_energy_3>
4.149

>  <excitation_energy_4>
4.326

>  <homo_energy>
-5.219

>  <homo_lumo_gap>
3.578

>  <logP>
5.208

>  <lumo_energy>
-1.641

>  <melting_point>
137.56

>  <molecular_refractivity>
76.84

>  <oscillator_strength_1>
0.0834

>  <oscillator_strength_2>
0.0265

>  <oscillator_strength_3>
0.0014

>  <oscillator_strength_4>
0.3458

>  <open_babel_can_smiles>
c1ccc2c(c1)cc1c(c2)c2ccsc2cc1

>  <mulliken_charges>
27
1   -0.139848
2   -0.139003
3   -0.185655
4   -0.187833
5   -0.176102
6   -0.169256
7   -0.112919
8   -0.357496
9   -0.31141
10   -0.293075
11   0.154975
12   0.146715
13   0.154115
14   0.065196
15   0.106268
16   -0.168855
17   0.238242
18   0.130407
19   0.130476
20   0.130019
21   0.129042
22   0.132501
23   0.142299
24   0.146517
25   0.174896
26   0.130244
27   0.129541

>  <lowdin_charges>
27
1   -0.160047
2   -0.158648
3   -0.151828
4   -0.153624
5   -0.154467
6   -0.159427
7   -0.181475
8   -0.307916
9   -0.154926
10   -0.160155
11   -0.002888
12   0.001079
13   -0.002725
14   -0.023816
15   -0.000981
16   -0.147672
17   0.30406
18   0.159032
19   0.159203
20   0.155921
21   0.155407
22   0.158684
23   0.166397
24   0.167892
25   0.183324
26   0.155162
27   0.154435

$$$$

