PCCDB-ID:  53562
public computational chemistry database (PCCDB) project, http://pccdb.org

 22 22  0  0  0  0  0  0  0  0999 V2000
   -2.8421    0.2463    0.9422 C   0  0  0  0  0  0  0  0  0  0  0  0
   -1.4528    0.3521    1.0210 C   0  0  0  0  0  0  0  0  0  0  0  0
   -3.4510    0.4922   -0.2834 C   0  0  0  0  0  0  0  0  0  0  0  0
    1.2696   -1.0334    1.4187 C   0  0  0  0  0  0  0  0  0  0  0  0
   -0.6998    0.6933   -0.1076 C   0  0  0  0  0  0  0  0  0  0  0  0
    2.4744   -1.9945    1.4705 C   0  0  0  0  0  0  0  0  0  0  0  0
   -1.4485    0.9493   -1.2788 C   0  0  0  0  0  0  0  0  0  0  0  0
    0.7920    0.8205   -0.0614 C   0  0  0  0  0  0  0  0  0  0  0  0
   -2.7645    0.8472   -1.3788 N   0  0  0  0  0  0  0  0  0  0  0  0
    1.6091    0.1247    0.6249 N   0  0  0  0  0  0  0  0  0  0  0  0
    2.4008   -3.0866    1.9812 O   0  0  0  0  0  0  0  0  0  0  0  0
    3.5947   -1.5025    0.9263 O   0  0  0  0  0  0  0  0  0  0  0  0
   -0.7854    1.3487   -2.3997 O   0  0  0  0  0  0  0  0  0  0  0  0
    1.3391    1.8144   -0.8015 O   0  0  0  0  0  0  0  0  0  0  0  0
   -3.4326   -0.0162    1.8130 H   0  0  0  0  0  0  0  0  0  0  0  0
   -0.9539    0.1901    1.9692 H   0  0  0  0  0  0  0  0  0  0  0  0
   -4.5292    0.4156   -0.4026 H   0  0  0  0  0  0  0  0  0  0  0  0
    1.0635   -0.7571    2.4629 H   0  0  0  0  0  0  0  0  0  0  0  0
    0.4040   -1.6044    1.0582 H   0  0  0  0  0  0  0  0  0  0  0  0
    3.3528   -0.6072    0.5830 H   0  0  0  0  0  0  0  0  0  0  0  0
   -1.4652    1.5005   -3.0828 H   0  0  0  0  0  0  0  0  0  0  0  0
    0.7017    2.1128   -1.4750 H   0  0  0  0  0  0  0  0  0  0  0  0
  1  2  1  0  0  0  0
  1 15  1  0  0  0  0
  2 16  1  0  0  0  0
  3  1  2  0  0  0  0
  4  6  1  0  0  0  0
  4 18  1  0  0  0  0
  5  8  1  0  0  0  0
  5  2  2  0  0  0  0
  6 11  2  0  0  0  0
  7  5  1  0  0  0  0
  8 10  2  0  0  0  0
  9  7  2  0  0  0  0
  9  3  1  0  0  0  0
 10  4  1  0  0  0  0
 12  6  1  0  0  0  0
 13  7  1  0  0  0  0
 14  8  1  0  0  0  0
 17  3  1  0  0  0  0
 19  4  1  0  0  0  0
 20 12  1  0  0  0  0
 21 13  1  0  0  0  0
 22 14  1  0  0  0  0
M  END
>  <HBA>
5

>  <HBD>
3

>  <TPSA>
99.26

>  <cid>
53562

>  <dipole>
8.14

>  <excitation_energy_1>
4.225

>  <excitation_energy_2>
4.662

>  <excitation_energy_3>
4.921

>  <excitation_energy_4>
5.107

>  <homo_energy>
-6.743

>  <homo_lumo_gap>
4.784

>  <logP>
-0.42

>  <lumo_energy>
-1.959

>  <melting_point>
224.6

>  <molecular_refractivity>
46.64

>  <oscillator_strength_1>
0.0135

>  <oscillator_strength_2>
0.1264

>  <oscillator_strength_3>
0.018

>  <oscillator_strength_4>
0.0254

>  <open_babel_can_smiles>
O/C(=N/CC(=O)O)/c1cccnc1O

>  <mulliken_charges>
22
1   -0.152446
2   -0.13667
3   0.05096
4   -0.252327
5   0.031295
6   0.591225
7   0.486566
8   0.463654
9   -0.495524
10   -0.47786
11   -0.464871
12   -0.570544
13   -0.640047
14   -0.593048
15   0.157053
16   0.173116
17   0.164385
18   0.185174
19   0.177992
20   0.433067
21   0.429826
22   0.439025

>  <lowdin_charges>
22
1   -0.187628
2   -0.105931
3   -0.059307
4   -0.245472
5   -0.084271
6   0.175821
7   0.135927
8   0.150971
9   -0.177467
10   -0.224047
11   -0.259727
12   -0.347933
13   -0.368483
14   -0.356772
15   0.17613
16   0.179556
17   0.166595
18   0.168843
19   0.165172
20   0.360276
21   0.374087
22   0.36366

$$$$

