PCCDB-ID:  16399
public computational chemistry database (PCCDB) project, http://pccdb.org

 19 18  0  0  1  0  0  0  0  0999 V2000
    2.1978    0.4517   -0.9568 C   0  0  0  0  0  0  0  0  0  0  0  0
    4.3132   -1.0613    3.2458 C   0  0  0  0  0  0  0  0  0  0  0  0
    2.1962    0.2136    3.5359 C   0  0  0  0  0  0  0  0  0  0  0  0
    2.1450   -0.0865    0.4756 C   0  0  0  0  0  0  0  0  0  0  0  0
    3.3668   -0.2795    2.7178 C   0  0  0  0  0  0  0  0  0  0  0  0
    3.4402    0.1891    1.2679 C   0  0  1  0  0  0  0  0  0  0  0  0
    4.5724   -0.3332    0.5765 O   0  0  0  0  0  0  0  0  0  0  0  0
    1.2810    0.2054   -1.5038 H   0  0  0  0  0  0  0  0  0  0  0  0
    3.0494    0.0324   -1.5000 H   0  0  0  0  0  0  0  0  0  0  0  0
    2.3078    1.5432   -0.9613 H   0  0  0  0  0  0  0  0  0  0  0  0
    4.2658   -1.3857    4.2822 H   0  0  0  0  0  0  0  0  0  0  0  0
    5.1773   -1.3787    2.6715 H   0  0  0  0  0  0  0  0  0  0  0  0
    2.3277   -0.0299    4.5943 H   0  0  0  0  0  0  0  0  0  0  0  0
    1.2468   -0.2277    3.2070 H   0  0  0  0  0  0  0  0  0  0  0  0
    2.0829    1.3033    3.4521 H   0  0  0  0  0  0  0  0  0  0  0  0
    1.9710   -1.1737    0.4662 H   0  0  0  0  0  0  0  0  0  0  0  0
    1.2918    0.3548    1.0042 H   0  0  0  0  0  0  0  0  0  0  0  0
    3.6082    1.2766    1.2728 H   0  0  0  0  0  0  0  0  0  0  0  0
    4.4605   -1.2980    0.5434 H   0  0  0  0  0  0  0  0  0  0  0  0
  1  4  1  0  0  0  0
  2 11  1  0  0  0  0
  3 13  1  0  0  0  0
  4 17  1  0  0  0  0
  4  6  1  0  0  0  0
  5  2  2  0  0  0  0
  5  3  1  0  0  0  0
  6 18  1  1  0  0  0
  6  5  1  0  0  0  0
  7  6  1  0  0  0  0
  8  1  1  0  0  0  0
  9  1  1  0  0  0  0
 10  1  1  0  0  0  0
 12  2  1  0  0  0  0
 14  3  1  0  0  0  0
 15  3  1  0  0  0  0
 16  4  1  0  0  0  0
 19  7  1  0  0  0  0
M  END
>  <HBA>
1

>  <HBD>
1

>  <TPSA>
20.23

>  <cid>
16399

>  <dipole>
1.67

>  <excitation_energy_1>
6.176

>  <excitation_energy_2>
6.413

>  <excitation_energy_3>
6.616

>  <excitation_energy_4>
6.758

>  <homo_energy>
-6.664

>  <homo_lumo_gap>
7.328

>  <logP>
1.333

>  <lumo_energy>
0.664

>  <melting_point>
-25.12

>  <molecular_refractivity>
31.64

>  <oscillator_strength_1>
0.0214

>  <oscillator_strength_2>
0.1202

>  <oscillator_strength_3>
0.0128

>  <oscillator_strength_4>
0.0928

>  <open_babel_can_smiles>
CC[C@@H](C(=C)C)O

>  <mulliken_charges>
19
1   -0.438746
2   -0.40658
3   -0.520877
4   -0.277677
5   0.203089
6   0.083912
7   -0.617946
8   0.140354
9   0.159782
10   0.142329
11   0.131583
12   0.139059
13   0.156218
14   0.159875
15   0.153527
16   0.126475
17   0.138577
18   0.143574
19   0.383472

>  <lowdin_charges>
19
1   -0.444861
2   -0.365566
3   -0.439547
4   -0.290018
5   -0.014233
6   -0.000285
7   -0.448134
8   0.149447
9   0.156993
10   0.146046
11   0.153585
12   0.159515
13   0.157978
14   0.157529
15   0.153297
16   0.13619
17   0.148728
18   0.146246
19   0.337089

$$$$

