PCCDB-ID:  18662
public computational chemistry database (PCCDB) project, http://pccdb.org

 26 26  0  0  0  0  0  0  0  0999 V2000
    1.6798   -0.0516    0.9818 C   0  0  0  0  0  0  0  0  0  0  0  0
    4.2951    4.7058    2.6496 C   0  0  0  0  0  0  0  0  0  0  0  0
    2.8658   -0.2627    1.0319 C   0  0  0  0  0  0  0  0  0  0  0  0
    8.4941   -0.6442    1.6339 C   0  0  0  0  0  0  0  0  0  0  0  0
    9.1182    0.4754    2.1753 C   0  0  0  0  0  0  0  0  0  0  0  0
    7.1100   -0.6593    1.4269 C   0  0  0  0  0  0  0  0  0  0  0  0
    8.3496    1.5905    2.5234 C   0  0  0  0  0  0  0  0  0  0  0  0
    4.2913   -0.5677    1.0858 C   0  0  0  0  0  0  0  0  0  0  0  0
    6.3388    0.4565    1.7634 C   0  0  0  0  0  0  0  0  0  0  0  0
    6.9780    1.5788    2.3245 C   0  0  0  0  0  0  0  0  0  0  0  0
    5.2702    2.7519    3.5272 C   0  0  0  0  0  0  0  0  0  0  0  0
    4.3786    3.6379    3.6307 N   0  0  0  0  0  0  0  0  0  0  0  0
    5.3745    1.7280    4.4035 O   0  0  0  0  0  0  0  0  0  0  0  0
    4.9899    0.5696    1.5938 O   0  0  0  0  0  0  0  0  0  0  0  0
    6.2574    2.7384    2.5855 O   0  0  0  0  0  0  0  0  0  0  0  0
    0.6342    0.1553    0.9409 H   0  0  0  0  0  0  0  0  0  0  0  0
    3.2431    4.8622    2.3851 H   0  0  0  0  0  0  0  0  0  0  0  0
    4.8635    4.5117    1.7318 H   0  0  0  0  0  0  0  0  0  0  0  0
    4.6601    5.6441    3.0883 H   0  0  0  0  0  0  0  0  0  0  0  0
    9.0785   -1.5184    1.3612 H   0  0  0  0  0  0  0  0  0  0  0  0
   10.1920    0.4864    2.3341 H   0  0  0  0  0  0  0  0  0  0  0  0
    6.6464   -1.5386    0.9944 H   0  0  0  0  0  0  0  0  0  0  0  0
    8.8008    2.4815    2.9485 H   0  0  0  0  0  0  0  0  0  0  0  0
    4.6643   -0.8191    0.0820 H   0  0  0  0  0  0  0  0  0  0  0  0
    4.4691   -1.4376    1.7348 H   0  0  0  0  0  0  0  0  0  0  0  0
    4.6151    1.8368    5.0023 H   0  0  0  0  0  0  0  0  0  0  0  0
  1  3  3  0  0  0  0
  2 19  1  0  0  0  0
  2 12  1  0  0  0  0
  3  8  1  0  0  0  0
  4  5  1  0  0  0  0
  5 21  1  0  0  0  0
  5  7  2  0  0  0  0
  6  4  2  0  0  0  0
  6  9  1  0  0  0  0
  7 23  1  0  0  0  0
  8 14  1  0  0  0  0
  8 25  1  0  0  0  0
  9 10  2  0  0  0  0
 10  7  1  0  0  0  0
 10 15  1  0  0  0  0
 11 12  2  0  0  0  0
 11 13  1  0  0  0  0
 13 26  1  0  0  0  0
 14  9  1  0  0  0  0
 15 11  1  0  0  0  0
 16  1  1  0  0  0  0
 17  2  1  0  0  0  0
 18  2  1  0  0  0  0
 20  4  1  0  0  0  0
 22  6  1  0  0  0  0
 24  8  1  0  0  0  0
M  END
>  <HBA>
4

>  <HBD>
1

>  <TPSA>
47.56

>  <cid>
18662

>  <dipole>
2.41

>  <excitation_energy_1>
5.026

>  <excitation_energy_2>
5.492

>  <excitation_energy_3>
5.512

>  <excitation_energy_4>
5.616

>  <homo_energy>
-6.057

>  <homo_lumo_gap>
5.924

>  <logP>
1.808

>  <lumo_energy>
-0.133

>  <melting_point>
88.79

>  <molecular_refractivity>
55.4

>  <oscillator_strength_1>
0.0527

>  <oscillator_strength_2>
0.0311

>  <oscillator_strength_3>
0.0025

>  <oscillator_strength_4>
0.0002

>  <open_babel_can_smiles>
C#CCOc1ccccc1O/C(=N\C)/O

>  <mulliken_charges>
26
1   -0.516025
2   -0.320809
3   0.386659
4   -0.132443
5   -0.143535
6   -0.205525
7   -0.165889
8   -0.176635
9   0.387932
10   0.308758
11   0.724753
12   -0.482381
13   -0.594484
14   -0.52005
15   -0.537094
16   0.202712
17   0.151814
18   0.153943
19   0.150121
20   0.132865
21   0.13359
22   0.142618
23   0.14549
24   0.174625
25   0.176815
26   0.422174

>  <lowdin_charges>
26
1   -0.21752
2   -0.350866
3   -0.044972
4   -0.152251
5   -0.166165
6   -0.210609
7   -0.160098
8   -0.107203
9   0.089416
10   0.079785
11   0.195279
12   -0.259993
13   -0.361585
14   -0.18663
15   -0.155046
16   0.208761
17   0.149505
18   0.144741
19   0.14907
20   0.16116
21   0.159442
22   0.16506
23   0.171638
24   0.162093
25   0.164537
26   0.37245

$$$$

