PCCDB-ID:  19619
public computational chemistry database (PCCDB) project, http://pccdb.org

 29 29  0  0  0  0  0  0  0  0999 V2000
    0.8335    0.0336   -0.1999 C   0  0  0  0  0  0  0  0  0  0  0  0
    2.6071   -1.3763   -1.2921 C   0  0  0  0  0  0  0  0  0  0  0  0
    3.4433    0.6807    3.0611 C   0  0  0  0  0  0  0  0  0  0  0  0
    5.1400   -0.6709    2.0196 C   0  0  0  0  0  0  0  0  0  0  0  0
    2.5935    0.4716    1.9915 C   0  0  0  0  0  0  0  0  0  0  0  0
    4.3017   -0.8911    0.9437 C   0  0  0  0  0  0  0  0  0  0  0  0
    5.5455    0.4172    4.2816 C   0  0  0  0  0  0  0  0  0  0  0  0
    7.7311   -0.5729    3.7362 C   0  0  0  0  0  0  0  0  0  0  0  0
    4.7432    0.1280    3.1175 C   0  0  0  0  0  0  0  0  0  0  0  0
    6.8356    0.1094    4.6115 C   0  0  0  0  0  0  0  0  0  0  0  0
    3.0003   -0.3236    0.8894 C   0  0  0  0  0  0  0  0  0  0  0  0
    7.4172    0.5363    5.9342 C   0  0  0  0  0  0  0  0  0  0  0  0
    8.5343   -1.0969    3.0709 N   0  0  0  0  0  0  0  0  0  0  0  0
    6.7836    0.7774    7.0112 N   0  0  0  0  0  0  0  0  0  0  0  0
    2.1717   -0.5383   -0.1838 N   0  0  0  0  0  0  0  0  0  0  0  0
    8.7669    0.6875    5.9631 O   0  0  0  0  0  0  0  0  0  0  0  0
    0.3382   -0.2403   -1.1322 H   0  0  0  0  0  0  0  0  0  0  0  0
    0.8624    1.1297   -0.1415 H   0  0  0  0  0  0  0  0  0  0  0  0
    0.2209   -0.3378    0.6331 H   0  0  0  0  0  0  0  0  0  0  0  0
    1.8212   -1.4057   -2.0478 H   0  0  0  0  0  0  0  0  0  0  0  0
    2.8103   -2.4068   -0.9704 H   0  0  0  0  0  0  0  0  0  0  0  0
    3.5155   -0.9799   -1.7642 H   0  0  0  0  0  0  0  0  0  0  0  0
    3.0976    1.2962    3.8886 H   0  0  0  0  0  0  0  0  0  0  0  0
    6.1205   -1.1314    2.0062 H   0  0  0  0  0  0  0  0  0  0  0  0
    1.6092    0.9228    2.0095 H   0  0  0  0  0  0  0  0  0  0  0  0
    4.6569   -1.5159    0.1335 H   0  0  0  0  0  0  0  0  0  0  0  0
    5.0256    1.0096    5.0334 H   0  0  0  0  0  0  0  0  0  0  0  0
    5.7925    0.5629    6.9045 H   0  0  0  0  0  0  0  0  0  0  0  0
    9.1483    0.5139    5.0869 H   0  0  0  0  0  0  0  0  0  0  0  0
  1 15  1  0  0  0  0
  1 18  1  0  0  0  0
  1 19  1  0  0  0  0
  2 21  1  0  0  0  0
  2 15  1  0  0  0  0
  3  9  1  0  0  0  0
  3 23  1  0  0  0  0
  4  9  2  0  0  0  0
  5 25  1  0  0  0  0
  5  3  2  0  0  0  0
  6  4  1  0  0  0  0
  7 10  2  0  0  0  0
  7 27  1  0  0  0  0
  8 10  1  0  0  0  0
  9  7  1  0  0  0  0
 10 12  1  0  0  0  0
 11  6  2  0  0  0  0
 11  5  1  0  0  0  0
 12 16  1  0  0  0  0
 12 14  2  0  0  0  0
 13  8  3  0  0  0  0
 15 11  1  0  0  0  0
 17  1  1  0  0  0  0
 20  2  1  0  0  0  0
 22  2  1  0  0  0  0
 24  4  1  0  0  0  0
 26  6  1  0  0  0  0
 28 14  1  0  0  0  0
 29 16  1  0  0  0  0
M  END
>  <HBA>
4

>  <HBD>
1

>  <TPSA>
70.12

>  <cid>
19619

>  <dipole>
10.3

>  <excitation_energy_1>
3.345

>  <excitation_energy_2>
4.201

>  <excitation_energy_3>
4.265

>  <excitation_energy_4>
4.331

>  <homo_energy>
-5.652

>  <homo_lumo_gap>
3.51

>  <logP>
1.845

>  <lumo_energy>
-2.142

>  <melting_point>
148.82

>  <molecular_refractivity>
63.01

>  <oscillator_strength_1>
0.7575

>  <oscillator_strength_2>
0.0009

>  <oscillator_strength_3>
0.0095

>  <oscillator_strength_4>
0.0009

>  <open_babel_can_smiles>
CN(c1ccc(cc1)/C=C(/C(=N)O)\C#N)C

>  <mulliken_charges>
29
1   -0.318042
2   -0.318688
3   -0.191506
4   -0.193885
5   -0.195682
6   -0.196458
7   -0.213388
8   0.238208
9   0.177339
10   0.070609
11   0.382657
12   0.47067
13   -0.518464
14   -0.590319
15   -0.471527
16   -0.58514
17   0.165164
18   0.169866
19   0.168465
20   0.164668
21   0.170174
22   0.172111
23   0.139431
24   0.172535
25   0.135942
26   0.140883
27   0.148659
28   0.285471
29   0.420248

>  <lowdin_charges>
29
1   -0.348472
2   -0.349999
3   -0.13042
4   -0.129949
5   -0.20958
6   -0.20179
7   -0.092716
8   -0.025054
9   -0.045527
10   -0.108218
11   0.07482
12   0.138514
13   -0.136927
14   -0.395416
15   -0.092493
16   -0.35521
17   0.163646
18   0.153211
19   0.154915
20   0.163882
21   0.153763
22   0.157179
23   0.162335
24   0.180708
25   0.164515
26   0.167917
27   0.169691
28   0.254469
29   0.362205

$$$$

