PCCDB-ID:  52156
public computational chemistry database (PCCDB) project, http://pccdb.org

 32 33  0  0  1  0  0  0  0  0999 V2000
    1.2745   -1.2924   -1.2834 C   0  0  0  0  0  0  0  0  0  0  0  0
    2.5577   -1.0874   -3.4411 C   0  0  0  0  0  0  0  0  0  0  0  0
    6.0915    1.4403   -5.5499 C   0  0  0  0  0  0  0  0  0  0  0  0
    5.1029    2.2309   -4.9616 C   0  0  0  0  0  0  0  0  0  0  0  0
    6.6173    0.3629   -4.8376 C   0  0  0  0  0  0  0  0  0  0  0  0
    4.6516    1.9410   -3.6749 C   0  0  0  0  0  0  0  0  0  0  0  0
    6.1688    0.0814   -3.5449 C   0  0  0  0  0  0  0  0  0  0  0  0
    3.1656    0.3651   -1.3900 C   0  0  0  0  0  0  0  0  0  0  0  0
    5.5459   -0.2340   -0.5258 C   0  0  0  0  0  0  0  0  0  0  0  0
    2.6480   -0.9973   -1.9093 C   0  0  0  0  0  0  0  0  0  0  0  0
    5.1787    0.8653   -2.9382 C   0  0  0  0  0  0  0  0  0  0  0  0
    5.1781    1.6915   -0.5257 C   0  0  0  0  0  0  0  0  0  0  0  0
    4.6879    0.6356   -1.5160 C   0  0  1  0  0  0  0  0  0  0  0  0
    5.8397    0.9773    0.3086 N   0  0  0  0  0  0  0  0  0  0  0  0
    4.9801    3.0210   -0.4621 O   0  0  0  0  0  0  0  0  0  0  0  0
    0.8929   -2.2657   -1.6128 H   0  0  0  0  0  0  0  0  0  0  0  0
    0.5384   -0.5324   -1.5774 H   0  0  0  0  0  0  0  0  0  0  0  0
    1.3238   -1.3023   -0.1882 H   0  0  0  0  0  0  0  0  0  0  0  0
    2.1291   -2.0514   -3.7407 H   0  0  0  0  0  0  0  0  0  0  0  0
    3.5324   -0.9896   -3.9250 H   0  0  0  0  0  0  0  0  0  0  0  0
    1.9064   -0.2990   -3.8406 H   0  0  0  0  0  0  0  0  0  0  0  0
    6.4448    1.6605   -6.5533 H   0  0  0  0  0  0  0  0  0  0  0  0
    4.6782    3.0701   -5.5061 H   0  0  0  0  0  0  0  0  0  0  0  0
    7.3827   -0.2651   -5.2859 H   0  0  0  0  0  0  0  0  0  0  0  0
    3.8510    2.5468   -3.2524 H   0  0  0  0  0  0  0  0  0  0  0  0
    6.5922   -0.7640   -3.0129 H   0  0  0  0  0  0  0  0  0  0  0  0
    2.9251    0.4356   -0.3209 H   0  0  0  0  0  0  0  0  0  0  0  0
    2.6010    1.1710   -1.8801 H   0  0  0  0  0  0  0  0  0  0  0  0
    6.4592   -0.6795   -0.9283 H   0  0  0  0  0  0  0  0  0  0  0  0
    4.9814   -0.9998    0.0171 H   0  0  0  0  0  0  0  0  0  0  0  0
    3.3436   -1.7762   -1.5634 H   0  0  0  0  0  0  0  0  0  0  0  0
    4.6262    3.3224   -1.3141 H   0  0  0  0  0  0  0  0  0  0  0  0
  1 18  1  0  0  0  0
  2 10  1  0  0  0  0
  3  4  2  0  0  0  0
  3  5  1  0  0  0  0
  4  6  1  0  0  0  0
  5  7  2  0  0  0  0
  6 25  1  0  0  0  0
  6 11  2  0  0  0  0
  7 26  1  0  0  0  0
  7 11  1  0  0  0  0
  8 27  1  0  0  0  0
  9 30  1  0  0  0  0
  9 14  1  0  0  0  0
 10 31  1  0  0  0  0
 10  8  1  0  0  0  0
 10  1  1  0  0  0  0
 11 13  1  0  0  0  0
 12 15  1  0  0  0  0
 12 14  2  0  0  0  0
 13  8  1  1  0  0  0
 13  9  1  0  0  0  0
 13 12  1  0  0  0  0
 16  1  1  0  0  0  0
 17  1  1  0  0  0  0
 19  2  1  0  0  0  0
 20  2  1  0  0  0  0
 21  2  1  0  0  0  0
 22  3  1  0  0  0  0
 23  4  1  0  0  0  0
 24  5  1  0  0  0  0
 28  8  1  0  0  0  0
 29  9  1  0  0  0  0
 32 15  1  0  0  0  0
M  END
>  <HBA>
2

>  <HBD>
1

>  <TPSA>
29.1

>  <cid>
52156

>  <dipole>
4.28

>  <excitation_energy_1>
5.106

>  <excitation_energy_2>
5.351

>  <excitation_energy_3>
5.595

>  <excitation_energy_4>
5.704

>  <homo_energy>
-6.49

>  <homo_lumo_gap>
5.997

>  <logP>
2.429

>  <lumo_energy>
-0.493

>  <melting_point>
81.26

>  <molecular_refractivity>
64.94

>  <oscillator_strength_1>
0.0082

>  <oscillator_strength_2>
0.0682

>  <oscillator_strength_3>
0.0055

>  <oscillator_strength_4>
0.0091

>  <open_babel_can_smiles>
CC(C[C@@]1(CN=C1O)c1ccccc1)C

>  <mulliken_charges>
32
1   -0.444583
2   -0.448943
3   -0.127606
4   -0.126391
5   -0.12806
6   -0.201382
7   -0.182206
8   -0.269287
9   -0.155869
10   -0.069772
11   0.164519
12   0.506791
13   -0.135746
14   -0.433734
15   -0.587553
16   0.143549
17   0.1404
18   0.144
19   0.138959
20   0.160609
21   0.136227
22   0.13523
23   0.135064
24   0.136844
25   0.116868
26   0.135265
27   0.14774
28   0.128617
29   0.151786
30   0.145239
31   0.127433
32   0.415993

>  <lowdin_charges>
32
1   -0.442423
2   -0.451356
3   -0.156359
4   -0.150273
5   -0.148813
6   -0.182928
7   -0.168451
8   -0.271635
9   -0.197886
10   -0.121241
11   -0.000625
12   0.105281
13   -0.025453
14   -0.219513
15   -0.34651
16   0.149741
17   0.14702
18   0.146669
19   0.147903
20   0.158323
21   0.145688
22   0.160039
23   0.161032
24   0.162221
25   0.147368
26   0.161559
27   0.151189
28   0.141429
29   0.14976
30   0.147222
31   0.138735
32   0.362286

$$$$

