PCCDB-ID:  65530
public computational chemistry database (PCCDB) project, http://pccdb.org

 27 27  0  0  1  0  0  0  0  0999 V2000
    1.1909   -0.6481   -0.0043 C   0  0  0  0  0  0  0  0  0  0  0  0
    0.2930   -1.4685   -2.8758 C   0  0  0  0  0  0  0  0  0  0  0  0
    2.6169   -2.0409   -3.0378 C   0  0  0  0  0  0  0  0  0  0  0  0
   -0.0049   -2.3724   -3.8934 C   0  0  0  0  0  0  0  0  0  0  0  0
    2.3367   -2.9500   -4.0559 C   0  0  0  0  0  0  0  0  0  0  0  0
    1.9378   -0.3013   -1.3050 C   0  0  1  0  0  0  0  0  0  0  0  0
    1.6079   -1.2828   -2.4243 C   0  0  0  0  0  0  0  0  0  0  0  0
    1.0186   -3.1196   -4.4879 C   0  0  0  0  0  0  0  0  0  0  0  0
    1.6822    1.1691   -1.7637 C   0  0  1  0  0  0  0  0  0  0  0  0
    2.1133    2.1617   -0.6638 C   0  0  0  0  0  0  0  0  0  0  0  0
    2.4776    1.4618   -2.9697 N   0  0  0  0  0  0  0  0  0  0  0  0
    0.7919   -4.0219   -5.4890 O   0  0  0  0  0  0  0  0  0  0  0  0
    1.4238    2.4456    0.2886 O   0  0  0  0  0  0  0  0  0  0  0  0
    3.3484    2.6566   -0.8488 O   0  0  0  0  0  0  0  0  0  0  0  0
    1.3977   -1.6864    0.2741 H   0  0  0  0  0  0  0  0  0  0  0  0
    0.1072   -0.5420   -0.1259 H   0  0  0  0  0  0  0  0  0  0  0  0
    1.4921    0.0047    0.8175 H   0  0  0  0  0  0  0  0  0  0  0  0
   -0.5201   -0.9037   -2.4266 H   0  0  0  0  0  0  0  0  0  0  0  0
    3.6460   -1.9243   -2.7050 H   0  0  0  0  0  0  0  0  0  0  0  0
   -1.0343   -2.5000   -4.2242 H   0  0  0  0  0  0  0  0  0  0  0  0
    3.1232   -3.5359   -4.5210 H   0  0  0  0  0  0  0  0  0  0  0  0
    3.0164   -0.3781   -1.1103 H   0  0  0  0  0  0  0  0  0  0  0  0
    0.6024    1.3061   -1.9089 H   0  0  0  0  0  0  0  0  0  0  0  0
    2.5229    0.6436   -3.5744 H   0  0  0  0  0  0  0  0  0  0  0  0
    2.0487    2.2107   -3.5102 H   0  0  0  0  0  0  0  0  0  0  0  0
   -0.1586   -4.0525   -5.6794 H   0  0  0  0  0  0  0  0  0  0  0  0
    3.6212    2.3156   -1.7396 H   0  0  0  0  0  0  0  0  0  0  0  0
  1 15  1  0  0  0  0
  1 17  1  0  0  0  0
  2 18  1  0  0  0  0
  2  7  1  0  0  0  0
  3 19  1  0  0  0  0
  3  7  2  0  0  0  0
  4  2  2  0  0  0  0
  5  3  1  0  0  0  0
  6 22  1  1  0  0  0
  6  1  1  0  0  0  0
  7  6  1  0  0  0  0
  8  5  2  0  0  0  0
  8  4  1  0  0  0  0
  9 23  1  6  0  0  0
  9  6  1  0  0  0  0
  9 10  1  0  0  0  0
 10 13  2  0  0  0  0
 11  9  1  0  0  0  0
 12  8  1  0  0  0  0
 14 10  1  0  0  0  0
 16  1  1  0  0  0  0
 20  4  1  0  0  0  0
 21  5  1  0  0  0  0
 24 11  1  0  0  0  0
 25 11  1  0  0  0  0
 26 12  1  0  0  0  0
 27 14  1  0  0  0  0
M  END
>  <HBA>
4

>  <HBD>
3

>  <TPSA>
83.55

>  <cid>
65530

>  <dipole>
5.6

>  <excitation_energy_1>
4.929

>  <excitation_energy_2>
5.254

>  <excitation_energy_3>
5.409

>  <excitation_energy_4>
5.581

>  <homo_energy>
-6.251

>  <homo_lumo_gap>
5.772

>  <logP>
1.608

>  <lumo_energy>
-0.479

>  <melting_point>
177.54

>  <molecular_refractivity>
52.33

>  <oscillator_strength_1>
0.0287

>  <oscillator_strength_2>
0.0001

>  <oscillator_strength_3>
0.0137

>  <oscillator_strength_4>
0.1138

>  <open_babel_can_smiles>
OC(=O)[C@H]([C@H](c1ccc(cc1)O)C)N

>  <mulliken_charges>
27
1   -0.448861
2   -0.188643
3   -0.205156
4   -0.194148
5   -0.155884
6   -0.1769
7   0.142571
8   0.351502
9   -0.065004
10   0.606318
11   -0.782627
12   -0.639525
13   -0.469872
14   -0.582815
15   0.150027
16   0.148026
17   0.183051
18   0.136837
19   0.136545
20   0.12429
21   0.145845
22   0.141049
23   0.150277
24   0.329696
25   0.322685
26   0.409446
27   0.43127

>  <lowdin_charges>
27
1   -0.441763
2   -0.154864
3   -0.160846
4   -0.209288
5   -0.185992
6   -0.118581
7   -0.03287
8   0.104241
9   -0.105022
10   0.175788
11   -0.555063
12   -0.373468
13   -0.259133
14   -0.359056
15   0.154041
16   0.149518
17   0.170957
18   0.161015
19   0.159158
20   0.154804
21   0.171644
22   0.147153
23   0.147686
24   0.273959
25   0.271354
26   0.357085
27   0.35754

$$$$

