PCCDB-ID:  61641
public computational chemistry database (PCCDB) project, http://pccdb.org

 18 17  0  0  0  0  0  0  0  0999 V2000
    4.7621   -0.1556    0.0025 C   0  0  0  0  0  0  0  0  0  0  0  0
   -1.6337    3.5807    1.9794 C   0  0  0  0  0  0  0  0  0  0  0  0
    2.2665    2.2981    1.1884 C   0  0  0  0  0  0  0  0  0  0  0  0
    0.7408    2.3076    1.2505 C   0  0  0  0  0  0  0  0  0  0  0  0
    2.7988    1.0221    0.5638 C   0  0  0  0  0  0  0  0  0  0  0  0
    2.1235    0.1270    0.1035 O   0  0  0  0  0  0  0  0  0  0  0  0
    4.1495    1.0091    0.5806 O   0  0  0  0  0  0  0  0  0  0  0  0
    0.1693    3.8669    2.0321 S   0  0  0  0  0  0  0  0  0  0  0  0
    5.8368    0.0006    0.1001 H   0  0  0  0  0  0  0  0  0  0  0  0
    4.4821   -0.2554   -1.0497 H   0  0  0  0  0  0  0  0  0  0  0  0
    4.4544   -1.0576    0.5381 H   0  0  0  0  0  0  0  0  0  0  0  0
   -2.1100    4.4562    2.4282 H   0  0  0  0  0  0  0  0  0  0  0  0
   -1.9108    2.6935    2.5570 H   0  0  0  0  0  0  0  0  0  0  0  0
   -1.9887    3.4751    0.9497 H   0  0  0  0  0  0  0  0  0  0  0  0
    2.7061    2.4054    2.1874 H   0  0  0  0  0  0  0  0  0  0  0  0
    2.6419    3.1474    0.6034 H   0  0  0  0  0  0  0  0  0  0  0  0
    0.3811    1.4524    1.8313 H   0  0  0  0  0  0  0  0  0  0  0  0
    0.3219    2.2257    0.2429 H   0  0  0  0  0  0  0  0  0  0  0  0
  1  9  1  0  0  0  0
  1 11  1  0  0  0  0
  1  7  1  0  0  0  0
  2  8  1  0  0  0  0
  2 12  1  0  0  0  0
  2 13  1  0  0  0  0
  3  4  1  0  0  0  0
  3 15  1  0  0  0  0
  4 17  1  0  0  0  0
  4  8  1  0  0  0  0
  5  7  1  0  0  0  0
  5  3  1  0  0  0  0
  6  5  2  0  0  0  0
 10  1  1  0  0  0  0
 14  2  1  0  0  0  0
 16  3  1  0  0  0  0
 18  4  1  0  0  0  0
M  END
>  <HBA>
3

>  <HBD>
0

>  <TPSA>
51.6

>  <cid>
61641

>  <dipole>
0.81

>  <excitation_energy_1>
5.098

>  <excitation_energy_2>
5.343

>  <excitation_energy_3>
5.463

>  <excitation_energy_4>
5.879

>  <homo_energy>
-5.978

>  <homo_lumo_gap>
6.248

>  <logP>
0.912

>  <lumo_energy>
0.269

>  <melting_point>
-4.49

>  <molecular_refractivity>
35.02

>  <oscillator_strength_1>
0.0002

>  <oscillator_strength_2>
0.009

>  <oscillator_strength_3>
0.007

>  <oscillator_strength_4>
0.0004

>  <open_babel_can_smiles>
CSCCC(=O)OC

>  <mulliken_charges>
18
1   -0.218409
2   -0.583492
3   -0.373863
4   -0.39386
5   0.619641
6   -0.475104
7   -0.449531
8   0.084928
9   0.16629
10   0.170886
11   0.171093
12   0.183767
13   0.178034
14   0.178224
15   0.189983
16   0.190856
17   0.17937
18   0.18119

>  <lowdin_charges>
18
1   -0.275349
2   -0.545057
3   -0.304405
4   -0.367055
5   0.199847
6   -0.264532
7   -0.194319
8   0.089963
9   0.159563
10   0.158016
11   0.160057
12   0.177114
13   0.162754
14   0.161477
15   0.177387
16   0.179272
17   0.162937
18   0.162329

$$$$

