PCCDB-ID:  40660
public computational chemistry database (PCCDB) project, http://pccdb.org

 37 37  0  0  0  0  0  0  0  0999 V2000
    2.0141    0.5126    1.6660 C   0  0  0  0  0  0  0  0  0  0  0  0
    4.2513    0.4136   -3.6726 C   0  0  0  0  0  0  0  0  0  0  0  0
    6.7321    0.1497   -3.1994 C   0  0  0  0  0  0  0  0  0  0  0  0
    6.0100    6.5310   -1.7971 C   0  0  0  0  0  0  0  0  0  0  0  0
    3.4851    0.8069    1.3523 C   0  0  0  0  0  0  0  0  0  0  0  0
    5.9808    4.4850   -3.2314 C   0  0  0  0  0  0  0  0  0  0  0  0
    5.8388    3.1229   -3.4659 C   0  0  0  0  0  0  0  0  0  0  0  0
    3.6361    1.7278    0.1519 C   0  0  0  0  0  0  0  0  0  0  0  0
    5.3987    0.7367   -2.6963 C   0  0  0  0  0  0  0  0  0  0  0  0
    5.8182    5.0404   -1.9567 C   0  0  0  0  0  0  0  0  0  0  0  0
    5.5176    2.2334   -2.4355 C   0  0  0  0  0  0  0  0  0  0  0  0
    5.4955    4.1667   -0.8893 C   0  0  0  0  0  0  0  0  0  0  0  0
    5.3448    2.7856   -1.1593 C   0  0  0  0  0  0  0  0  0  0  0  0
    5.3391    4.7322    0.5052 C   0  0  0  0  0  0  0  0  0  0  0  0
    5.1099    5.9027    0.7214 O   0  0  0  0  0  0  0  0  0  0  0  0
    5.4952    3.8793    1.5408 O   0  0  0  0  0  0  0  0  0  0  0  0
    5.0508    1.9182   -0.1023 O   0  0  0  0  0  0  0  0  0  0  0  0
    1.9287   -0.1490    2.5338 H   0  0  0  0  0  0  0  0  0  0  0  0
    1.5142    0.0216    0.8225 H   0  0  0  0  0  0  0  0  0  0  0  0
    1.4621    1.4320    1.8938 H   0  0  0  0  0  0  0  0  0  0  0  0
    4.1525   -0.6705   -3.8030 H   0  0  0  0  0  0  0  0  0  0  0  0
    4.4311    0.8514   -4.6616 H   0  0  0  0  0  0  0  0  0  0  0  0
    3.2925    0.8009   -3.3094 H   0  0  0  0  0  0  0  0  0  0  0  0
    6.6457   -0.9349   -3.3343 H   0  0  0  0  0  0  0  0  0  0  0  0
    7.5419    0.3411   -2.4873 H   0  0  0  0  0  0  0  0  0  0  0  0
    7.0241    0.5823   -4.1637 H   0  0  0  0  0  0  0  0  0  0  0  0
    6.3906    6.9564   -2.7312 H   0  0  0  0  0  0  0  0  0  0  0  0
    6.7074    6.7714   -0.9901 H   0  0  0  0  0  0  0  0  0  0  0  0
    5.0715    7.0292   -1.5383 H   0  0  0  0  0  0  0  0  0  0  0  0
    4.0268   -0.1259    1.1527 H   0  0  0  0  0  0  0  0  0  0  0  0
    3.9661    1.2768    2.2193 H   0  0  0  0  0  0  0  0  0  0  0  0
    6.2347    5.1426   -4.0584 H   0  0  0  0  0  0  0  0  0  0  0  0
    5.9865    2.7409   -4.4729 H   0  0  0  0  0  0  0  0  0  0  0  0
    3.1687    2.7032    0.3390 H   0  0  0  0  0  0  0  0  0  0  0  0
    3.1744    1.2941   -0.7442 H   0  0  0  0  0  0  0  0  0  0  0  0
    5.1752    0.2542   -1.7403 H   0  0  0  0  0  0  0  0  0  0  0  0
    5.5896    2.9675    1.1864 H   0  0  0  0  0  0  0  0  0  0  0  0
  1 20  1  0  0  0  0
  1 18  1  0  0  0  0
  2 23  1  0  0  0  0
  2  9  1  0  0  0  0
  3  9  1  0  0  0  0
  3 25  1  0  0  0  0
  4 29  1  0  0  0  0
  4 28  1  0  0  0  0
  5  1  1  0  0  0  0
  5 31  1  0  0  0  0
  6 10  1  0  0  0  0
  7  6  2  0  0  0  0
  7 11  1  0  0  0  0
  8 34  1  0  0  0  0
  8  5  1  0  0  0  0
  9 11  1  0  0  0  0
  9 36  1  0  0  0  0
 10  4  1  0  0  0  0
 10 12  2  0  0  0  0
 11 13  2  0  0  0  0
 12 14  1  0  0  0  0
 13 12  1  0  0  0  0
 13 17  1  0  0  0  0
 14 15  2  0  0  0  0
 14 16  1  0  0  0  0
 17  8  1  0  0  0  0
 19  1  1  0  0  0  0
 21  2  1  0  0  0  0
 22  2  1  0  0  0  0
 24  3  1  0  0  0  0
 26  3  1  0  0  0  0
 27  4  1  0  0  0  0
 30  5  1  0  0  0  0
 32  6  1  0  0  0  0
 33  7  1  0  0  0  0
 35  8  1  0  0  0  0
 37 16  1  0  0  0  0
M  END
>  <HBA>
3

>  <HBD>
1

>  <TPSA>
46.53

>  <cid>
40660

>  <dipole>
5.11

>  <excitation_energy_1>
4.622

>  <excitation_energy_2>
4.676

>  <excitation_energy_3>
5.362

>  <excitation_energy_4>
5.736

>  <homo_energy>
-6.61

>  <homo_lumo_gap>
5.47

>  <logP>
3.605

>  <lumo_energy>
-1.14

>  <melting_point>
107.77

>  <molecular_refractivity>
69.05

>  <oscillator_strength_1>
0.0194

>  <oscillator_strength_2>
0.0383

>  <oscillator_strength_3>
0.0718

>  <oscillator_strength_4>
0.0007

>  <open_babel_can_smiles>
CCCOc1c(ccc(c1C(=O)O)C)C(C)C

>  <mulliken_charges>
37
1   -0.454169
2   -0.444421
3   -0.440635
4   -0.499727
5   -0.279574
6   -0.174333
7   -0.20062
8   -0.041594
9   -0.164751
10   0.104884
11   0.181396
12   0.003594
13   0.193403
14   0.544181
15   -0.463034
16   -0.602331
17   -0.58396
18   0.158603
19   0.147898
20   0.156117
21   0.146306
22   0.145655
23   0.147621
24   0.144884
25   0.154962
26   0.143552
27   0.138157
28   0.176494
29   0.185919
30   0.153745
31   0.160238
32   0.130378
33   0.13507
34   0.158532
35   0.150169
36   0.1497
37   0.437693

>  <lowdin_charges>
37
1   -0.444939
2   -0.439584
3   -0.438466
4   -0.44032
5   -0.281685
6   -0.170245
7   -0.144086
8   -0.127626
9   -0.122602
10   0.030769
11   -0.022162
12   -0.085799
13   0.080541
14   0.186222
15   -0.251111
16   -0.367575
17   -0.251246
18   0.159752
19   0.150673
20   0.154254
21   0.149272
22   0.147955
23   0.148962
24   0.148681
25   0.156121
26   0.147038
27   0.148188
28   0.172457
29   0.176373
30   0.151618
31   0.15557
32   0.160549
33   0.159231
34   0.147108
35   0.144451
36   0.15306
37   0.358601

$$$$

