PCCDB-ID:  16928
public computational chemistry database (PCCDB) project, http://pccdb.org

 24 24  0  0  0  0  0  0  0  0999 V2000
    3.1610   -1.1133    0.8877 C   0  0  0  0  0  0  0  0  0  0  0  0
    4.6437    3.5965    1.7270 C   0  0  0  0  0  0  0  0  0  0  0  0
    5.4506    2.4682    1.8780 C   0  0  0  0  0  0  0  0  0  0  0  0
    2.5802    4.7555    0.8022 C   0  0  0  0  0  0  0  0  0  0  0  0
    2.8622    5.4340   -0.5526 C   0  0  0  0  0  0  0  0  0  0  0  0
    3.0587    2.2854    0.4895 C   0  0  0  0  0  0  0  0  0  0  0  0
    3.4341    3.5269    1.0275 C   0  0  0  0  0  0  0  0  0  0  0  0
    5.0751    1.2426    1.3253 C   0  0  0  0  0  0  0  0  0  0  0  0
    3.8546    1.1484    0.6289 C   0  0  0  0  0  0  0  0  0  0  0  0
    2.5708    4.5996   -1.6623 O   0  0  0  0  0  0  0  0  0  0  0  0
    5.8458    0.1139    1.4260 O   0  0  0  0  0  0  0  0  0  0  0  0
    3.4521   -0.0140    0.0200 O   0  0  0  0  0  0  0  0  0  0  0  0
    2.7979   -1.9157    0.2417 H   0  0  0  0  0  0  0  0  0  0  0  0
    2.3761   -0.8436    1.6069 H   0  0  0  0  0  0  0  0  0  0  0  0
    4.0522   -1.4492    1.4259 H   0  0  0  0  0  0  0  0  0  0  0  0
    4.9628    4.5399    2.1633 H   0  0  0  0  0  0  0  0  0  0  0  0
    6.3904    2.5396    2.4240 H   0  0  0  0  0  0  0  0  0  0  0  0
    1.5170    4.4882    0.8342 H   0  0  0  0  0  0  0  0  0  0  0  0
    2.7565    5.4877    1.6010 H   0  0  0  0  0  0  0  0  0  0  0  0
    3.9080    5.7821   -0.5789 H   0  0  0  0  0  0  0  0  0  0  0  0
    2.2183    6.3127   -0.6640 H   0  0  0  0  0  0  0  0  0  0  0  0
    2.1209    2.1777   -0.0486 H   0  0  0  0  0  0  0  0  0  0  0  0
    3.1533    3.8250   -1.5992 H   0  0  0  0  0  0  0  0  0  0  0  0
    6.6522    0.3335    1.9180 H   0  0  0  0  0  0  0  0  0  0  0  0
  1 15  1  0  0  0  0
  1 14  1  0  0  0  0
  2  3  1  0  0  0  0
  2 16  1  0  0  0  0
  3 17  1  0  0  0  0
  4 18  1  0  0  0  0
  4  7  1  0  0  0  0
  4 19  1  0  0  0  0
  5  4  1  0  0  0  0
  6  9  2  0  0  0  0
  6  7  1  0  0  0  0
  7  2  2  0  0  0  0
  8 11  1  0  0  0  0
  8  3  2  0  0  0  0
  9  8  1  0  0  0  0
 10 23  1  0  0  0  0
 10  5  1  0  0  0  0
 11 24  1  0  0  0  0
 12  9  1  0  0  0  0
 12  1  1  0  0  0  0
 13  1  1  0  0  0  0
 20  5  1  0  0  0  0
 21  5  1  0  0  0  0
 22  6  1  0  0  0  0
M  END
>  <HBA>
3

>  <HBD>
2

>  <TPSA>
49.69

>  <cid>
16928

>  <dipole>
3.78

>  <excitation_energy_1>
4.846

>  <excitation_energy_2>
5.014

>  <excitation_energy_3>
5.416

>  <excitation_energy_4>
5.67

>  <homo_energy>
-5.853

>  <homo_lumo_gap>
5.739

>  <logP>
0.936

>  <lumo_energy>
-0.114

>  <melting_point>
72.19

>  <molecular_refractivity>
45.89

>  <oscillator_strength_1>
0.0487

>  <oscillator_strength_2>
0.002

>  <oscillator_strength_3>
0.0464

>  <oscillator_strength_4>
0.0144

>  <open_babel_can_smiles>
OCCc1ccc(c(c1)OC)O

>  <mulliken_charges>
24
1   -0.214762
2   -0.18746
3   -0.197277
4   -0.354379
5   -0.023675
6   -0.264818
7   0.146778
8   0.31267
9   0.338296
10   -0.617481
11   -0.641963
12   -0.52022
13   0.160165
14   0.139718
15   0.169025
16   0.124872
17   0.120854
18   0.154326
19   0.136625
20   0.120971
21   0.144652
22   0.147208
23   0.396127
24   0.409749

>  <lowdin_charges>
24
1   -0.278801
2   -0.169099
3   -0.205197
4   -0.290956
5   -0.130426
6   -0.191217
7   -0.022538
8   0.073321
9   0.068484
10   -0.468839
11   -0.375956
12   -0.22219
13   0.158153
14   0.139922
15   0.15358
16   0.156882
17   0.153785
18   0.154404
19   0.152047
20   0.123943
21   0.147077
22   0.169935
23   0.343607
24   0.360077

$$$$

