PCCDB-ID:  30455
public computational chemistry database (PCCDB) project, http://pccdb.org

 21 22  0  0  0  0  0  0  0  0999 V2000
    1.2602    1.3782    0.0499 C   0  0  0  0  0  0  0  0  0  0  0  0
    2.4677    0.6918   -0.0149 C   0  0  0  0  0  0  0  0  0  0  0  0
    1.2554   -1.3908   -0.1360 C   0  0  0  0  0  0  0  0  0  0  0  0
   -1.2959    1.4212    0.0997 C   0  0  0  0  0  0  0  0  0  0  0  0
   -1.2728   -1.4357   -0.1235 C   0  0  0  0  0  0  0  0  0  0  0  0
    0.0361    0.7021    0.0210 C   0  0  0  0  0  0  0  0  0  0  0  0
    0.0476   -0.6949   -0.0674 C   0  0  0  0  0  0  0  0  0  0  0  0
    2.4819   -0.7113   -0.1098 C   0  0  0  0  0  0  0  0  0  0  0  0
    3.6902   -1.4061   -0.2363 N   0  0  0  0  0  0  0  0  0  0  0  0
   -2.4331    0.6172   -0.3582 N   0  0  0  0  0  0  0  0  0  0  0  0
   -2.3806   -0.6519    0.3135 O   0  0  0  0  0  0  0  0  0  0  0  0
    1.2711    2.4643    0.1228 H   0  0  0  0  0  0  0  0  0  0  0  0
    3.4080    1.2386   -0.0023 H   0  0  0  0  0  0  0  0  0  0  0  0
    1.2487   -2.4777   -0.2104 H   0  0  0  0  0  0  0  0  0  0  0  0
   -1.2919    2.3351   -0.5089 H   0  0  0  0  0  0  0  0  0  0  0  0
   -1.5179    1.7251    1.1307 H   0  0  0  0  0  0  0  0  0  0  0  0
   -1.2671   -2.3090    0.5385 H   0  0  0  0  0  0  0  0  0  0  0  0
   -1.4596   -1.8039   -1.1493 H   0  0  0  0  0  0  0  0  0  0  0  0
    4.4924   -0.9330    0.1618 H   0  0  0  0  0  0  0  0  0  0  0  0
    3.6544   -2.3738    0.0605 H   0  0  0  0  0  0  0  0  0  0  0  0
   -2.3115    0.4048   -1.3550 H   0  0  0  0  0  0  0  0  0  0  0  0
  1 12  1  0  0  0  0
  2 13  1  0  0  0  0
  2  1  2  0  0  0  0
  3  8  2  0  0  0  0
  3  7  1  0  0  0  0
  4 16  1  0  0  0  0
  5  7  1  0  0  0  0
  5 11  1  0  0  0  0
  5 17  1  0  0  0  0
  6  1  1  0  0  0  0
  6  4  1  0  0  0  0
  7  6  2  0  0  0  0
  8  2  1  0  0  0  0
  9  8  1  0  0  0  0
  9 20  1  0  0  0  0
  9 19  1  0  0  0  0
 10  4  1  0  0  0  0
 10 11  1  0  0  0  0
 14  3  1  0  0  0  0
 15  4  1  0  0  0  0
 18  5  1  0  0  0  0
 21 10  1  0  0  0  0
M  END
>  <HBA>
3

>  <HBD>
2

>  <TPSA>
47.28

>  <cid>
30455

>  <dipole>
3.63

>  <excitation_energy_1>
4.519

>  <excitation_energy_2>
4.74

>  <excitation_energy_3>
5.254

>  <excitation_energy_4>
5.31

>  <homo_energy>
-5.48

>  <homo_lumo_gap>
5.421

>  <logP>
1.714

>  <lumo_energy>
-0.06

>  <melting_point>
105.3

>  <molecular_refractivity>
46.47

>  <oscillator_strength_1>
0.0393

>  <oscillator_strength_2>
0.0069

>  <oscillator_strength_3>
0.06

>  <oscillator_strength_4>
0.0609

>  <open_babel_can_smiles>
Nc1ccc2c(c1)CONC2

>  <mulliken_charges>
21
1   -0.193404
2   -0.172048
3   -0.231702
4   -0.211138
5   -0.105644
6   0.092118
7   0.08941
8   0.314426
9   -0.789668
10   -0.311897
11   -0.385602
12   0.122483
13   0.117445
14   0.110576
15   0.148835
16   0.173014
17   0.160895
18   0.137152
19   0.319685
20   0.319408
21   0.295657

>  <lowdin_charges>
21
1   -0.148497
2   -0.199332
3   -0.205808
4   -0.215188
5   -0.142617
6   -0.057408
7   -0.022237
8   0.0607
9   -0.488762
10   -0.210494
11   -0.225998
12   0.152871
13   0.153434
14   0.147965
15   0.155146
16   0.158919
17   0.160799
18   0.133869
19   0.276078
20   0.27373
21   0.242832

$$$$

