PCCDB-ID:  9226
public computational chemistry database (PCCDB) project, http://pccdb.org

 15 16  0  0  0  0  0  0  0  0999 V2000
    2.1230   -0.7103   -0.0773 C   0  0  0  0  0  0  0  0  0  0  0  0
    0.9500   -1.4574   -0.0438 C   0  0  0  0  0  0  0  0  0  0  0  0
   -1.5667    1.1508    0.0458 C   0  0  0  0  0  0  0  0  0  0  0  0
    2.0626    0.6983   -0.0687 C   0  0  0  0  0  0  0  0  0  0  0  0
   -2.3539    0.0301    0.0646 C   0  0  0  0  0  0  0  0  0  0  0  0
   -0.2369   -0.7281   -0.0033 C   0  0  0  0  0  0  0  0  0  0  0  0
   -0.2051    0.6988    0.0022 C   0  0  0  0  0  0  0  0  0  0  0  0
    0.9372    1.4100   -0.0300 N   0  0  0  0  0  0  0  0  0  0  0  0
   -1.5608   -1.1054    0.0357 N   0  0  0  0  0  0  0  0  0  0  0  0
    3.0892   -1.2044   -0.1104 H   0  0  0  0  0  0  0  0  0  0  0  0
    0.9645   -2.5445   -0.0494 H   0  0  0  0  0  0  0  0  0  0  0  0
   -1.9030    2.1774    0.0604 H   0  0  0  0  0  0  0  0  0  0  0  0
    2.9885    1.2710   -0.0951 H   0  0  0  0  0  0  0  0  0  0  0  0
   -3.4306   -0.0625    0.0961 H   0  0  0  0  0  0  0  0  0  0  0  0
   -1.9036   -2.0534    0.0415 H   0  0  0  0  0  0  0  0  0  0  0  0
  1  4  2  0  0  0  0
  1  2  1  0  0  0  0
  2  6  2  0  0  0  0
  3 12  1  0  0  0  0
  3  5  2  0  0  0  0
  4  8  1  0  0  0  0
  5 14  1  0  0  0  0
  6  7  1  0  0  0  0
  6  9  1  0  0  0  0
  7  3  1  0  0  0  0
  8  7  2  0  0  0  0
  9 15  1  0  0  0  0
  9  5  1  0  0  0  0
 10  1  1  0  0  0  0
 11  2  1  0  0  0  0
 13  4  1  0  0  0  0
M  END
>  <HBA>
1

>  <HBD>
1

>  <TPSA>
28.68

>  <cid>
9226

>  <dipole>
4.03

>  <excitation_energy_1>
4.601

>  <excitation_energy_2>
4.679

>  <excitation_energy_3>
4.832

>  <excitation_energy_4>
5.147

>  <homo_energy>
-5.883

>  <homo_lumo_gap>
5.265

>  <logP>
1.563

>  <lumo_energy>
-0.618

>  <melting_point>
110.43

>  <molecular_refractivity>
36.09

>  <oscillator_strength_1>
0.067

>  <oscillator_strength_2>
0.0028

>  <oscillator_strength_3>
0.0797

>  <oscillator_strength_4>
0.0026

>  <open_babel_can_smiles>
c1cnc2c(c1)[nH]cc2

>  <mulliken_charges>
15
1   -0.168896
2   -0.123584
3   -0.176682
4   0.026944
5   0.044343
6   0.330453
7   0.240635
8   -0.501424
9   -0.687164
10   0.129905
11   0.131831
12   0.138632
13   0.130447
14   0.154391
15   0.330169

>  <lowdin_charges>
15
1   -0.188242
2   -0.157261
3   -0.217026
4   -0.104926
5   -0.111754
6   0.01197
7   0.016899
8   -0.150227
9   -0.198648
10   0.161309
11   0.157415
12   0.171054
13   0.152784
14   0.165359
15   0.291294

$$$$

