PCCDB-ID:  677
public computational chemistry database (PCCDB) project, http://pccdb.org

 19 18  0  0  1  0  0  0  0  0999 V2000
    0.9952   -0.1140    0.1535 C   0  0  0  0  0  0  0  0  0  0  0  0
    2.8771   -1.1738   -1.1683 C   0  0  0  0  0  0  0  0  0  0  0  0
    3.0890    1.2171   -0.3061 C   0  0  2  0  0  0  0  0  0  0  0  0
    4.6158    1.2324   -0.5239 C   0  0  0  0  0  0  0  0  0  0  0  0
    2.5085   -0.1982   -0.0486 C   0  0  0  0  0  0  0  0  0  0  0  0
    2.4654    1.7952   -1.4233 O   0  0  0  0  0  0  0  0  0  0  0  0
    5.0915    1.8617   -1.4467 O   0  0  0  0  0  0  0  0  0  0  0  0
    5.3663    0.5663    0.3553 O   0  0  0  0  0  0  0  0  0  0  0  0
    3.1356   -0.5984    1.2042 O   0  0  0  0  0  0  0  0  0  0  0  0
    0.5108    0.2721   -0.7470 H   0  0  0  0  0  0  0  0  0  0  0  0
    0.7586    0.5495    0.9913 H   0  0  0  0  0  0  0  0  0  0  0  0
    0.5828   -1.1070    0.3719 H   0  0  0  0  0  0  0  0  0  0  0  0
    2.5175   -0.7907   -2.1273 H   0  0  0  0  0  0  0  0  0  0  0  0
    2.4142   -2.1539   -0.9983 H   0  0  0  0  0  0  0  0  0  0  0  0
    3.9616   -1.3122   -1.2334 H   0  0  0  0  0  0  0  0  0  0  0  0
    2.8929    1.8104    0.6047 H   0  0  0  0  0  0  0  0  0  0  0  0
    3.1996    2.1786   -1.9460 H   0  0  0  0  0  0  0  0  0  0  0  0
    4.7596    0.0489    0.9405 H   0  0  0  0  0  0  0  0  0  0  0  0
    2.9504   -1.5398    1.3498 H   0  0  0  0  0  0  0  0  0  0  0  0
  1 12  1  0  0  0  0
  1 11  1  0  0  0  0
  2 14  1  0  0  0  0
  2  5  1  0  0  0  0
  3  5  1  0  0  0  0
  3 16  1  1  0  0  0
  4  3  1  0  0  0  0
  4  8  1  0  0  0  0
  5  1  1  0  0  0  0
  5  9  1  0  0  0  0
  6  3  1  0  0  0  0
  7  4  2  0  0  0  0
  8 18  1  0  0  0  0
  9 19  1  0  0  0  0
 10  1  1  0  0  0  0
 13  2  1  0  0  0  0
 15  2  1  0  0  0  0
 17  6  1  0  0  0  0
M  END
>  <HBA>
4

>  <HBD>
3

>  <TPSA>
77.76

>  <cid>
677

>  <dipole>
4.54

>  <excitation_energy_1>
5.884

>  <excitation_energy_2>
6.582

>  <excitation_energy_3>
6.763

>  <excitation_energy_4>
6.956

>  <homo_energy>
-7.48

>  <homo_lumo_gap>
7.606

>  <logP>
-0.797

>  <lumo_energy>
0.125

>  <melting_point>
99.52

>  <molecular_refractivity>
30.28

>  <oscillator_strength_1>
0.0008

>  <oscillator_strength_2>
0.0145

>  <oscillator_strength_3>
0.0028

>  <oscillator_strength_4>
0.0254

>  <open_babel_can_smiles>
OC(=O)[C@H](C(O)(C)C)O

>  <mulliken_charges>
19
1   -0.451837
2   -0.483795
3   0.056273
4   0.577464
5   0.273034
6   -0.643801
7   -0.474493
8   -0.581802
9   -0.666731
10   0.183884
11   0.159037
12   0.134812
13   0.183238
14   0.141127
15   0.165024
16   0.159226
17   0.418114
18   0.442247
19   0.40898

>  <lowdin_charges>
19
1   -0.452091
2   -0.462548
3   -0.050274
4   0.175719
5   0.114624
6   -0.454734
7   -0.259701
8   -0.34645
9   -0.46155
10   0.17483
11   0.160912
12   0.147497
13   0.174901
14   0.150607
15   0.158754
16   0.154047
17   0.356638
18   0.364996
19   0.353823

$$$$

