PCCDB-ID:  12813
public computational chemistry database (PCCDB) project, http://pccdb.org

 30 30  0  0  1  0  0  0  0  0999 V2000
    1.2479   -3.9881   -0.1693 C   0  0  0  0  0  0  0  0  0  0  0  0
    2.7011   -3.5055   -0.1109 C   0  0  0  0  0  0  0  0  0  0  0  0
    3.1065   -2.6790   -1.3409 C   0  0  0  0  0  0  0  0  0  0  0  0
    4.5175   -2.0729   -1.2692 C   0  0  0  0  0  0  0  0  0  0  0  0
    5.6541   -3.1075   -1.3513 C   0  0  0  0  0  0  0  0  0  0  0  0
    7.0717   -2.5060   -1.2680 C   0  0  0  0  0  0  0  0  0  0  0  0
    7.7735   -3.5221    1.0346 C   0  0  0  0  0  0  0  0  0  0  0  0
    6.6810   -3.3517    2.0962 C   0  0  0  0  0  0  0  0  0  0  0  0
    7.6418   -2.2618    0.1341 C   0  0  2  0  0  0  0  0  0  0  0  0
    6.2333   -1.8996    1.9698 C   0  0  0  0  0  0  0  0  0  0  0  0
    5.4731   -1.2951    2.6812 O   0  0  0  0  0  0  0  0  0  0  0  0
    6.8106   -1.3335    0.8747 O   0  0  0  0  0  0  0  0  0  0  0  0
    0.9846   -4.5769    0.7168 H   0  0  0  0  0  0  0  0  0  0  0  0
    1.0735   -4.6168   -1.0514 H   0  0  0  0  0  0  0  0  0  0  0  0
    0.5530   -3.1413   -0.2250 H   0  0  0  0  0  0  0  0  0  0  0  0
    3.3630   -4.3768   -0.0101 H   0  0  0  0  0  0  0  0  0  0  0  0
    2.8510   -2.8986    0.7934 H   0  0  0  0  0  0  0  0  0  0  0  0
    2.3824   -1.8614   -1.4643 H   0  0  0  0  0  0  0  0  0  0  0  0
    3.0164   -3.3019   -2.2441 H   0  0  0  0  0  0  0  0  0  0  0  0
    4.6102   -1.4791   -0.3528 H   0  0  0  0  0  0  0  0  0  0  0  0
    4.6431   -1.3643   -2.1002 H   0  0  0  0  0  0  0  0  0  0  0  0
    5.5617   -3.6416   -2.3070 H   0  0  0  0  0  0  0  0  0  0  0  0
    5.5291   -3.8758   -0.5764 H   0  0  0  0  0  0  0  0  0  0  0  0
    7.0973   -1.5585   -1.8219 H   0  0  0  0  0  0  0  0  0  0  0  0
    7.7873   -3.1722   -1.7704 H   0  0  0  0  0  0  0  0  0  0  0  0
    7.6619   -4.4420    0.4541 H   0  0  0  0  0  0  0  0  0  0  0  0
    8.7647   -3.5475    1.4971 H   0  0  0  0  0  0  0  0  0  0  0  0
    7.0162   -3.5391    3.1198 H   0  0  0  0  0  0  0  0  0  0  0  0
    5.8063   -3.9890    1.9244 H   0  0  0  0  0  0  0  0  0  0  0  0
    8.6117   -1.7655    0.0248 H   0  0  0  0  0  0  0  0  0  0  0  0
  1  2  1  0  0  0  0
  1 13  1  0  0  0  0
  2 16  1  0  0  0  0
  2 17  1  0  0  0  0
  3  4  1  0  0  0  0
  3  2  1  0  0  0  0
  4 20  1  0  0  0  0
  5  4  1  0  0  0  0
  5  6  1  0  0  0  0
  5 23  1  0  0  0  0
  6  9  1  0  0  0  0
  7 27  1  0  0  0  0
  7  8  1  0  0  0  0
  8 28  1  0  0  0  0
  9 30  1  6  0  0  0
  9 12  1  0  0  0  0
  9  7  1  0  0  0  0
 10  8  1  0  0  0  0
 10 11  2  0  0  0  0
 12 10  1  0  0  0  0
 14  1  1  0  0  0  0
 15  1  1  0  0  0  0
 18  3  1  0  0  0  0
 19  3  1  0  0  0  0
 21  4  1  0  0  0  0
 22  5  1  0  0  0  0
 24  6  1  0  0  0  0
 25  6  1  0  0  0  0
 26  7  1  0  0  0  0
 29  8  1  0  0  0  0
M  END
>  <HBA>
2

>  <HBD>
0

>  <TPSA>
26.3

>  <cid>
12813

>  <dipole>
4.25

>  <excitation_energy_1>
5.668

>  <excitation_energy_2>
6.647

>  <excitation_energy_3>
7.015

>  <excitation_energy_4>
7.05

>  <homo_energy>
-7.162

>  <homo_lumo_gap>
7.538

>  <logP>
2.662

>  <lumo_energy>
0.376

>  <melting_point>
5.8

>  <molecular_refractivity>
49.35

>  <oscillator_strength_1>
0.0004

>  <oscillator_strength_2>
0.0064

>  <oscillator_strength_3>
0.0349

>  <oscillator_strength_4>
0.0069

>  <open_babel_can_smiles>
CCCCCC[C@@H]1CCC(=O)O1

>  <mulliken_charges>
30
1   -0.441206
2   -0.256493
3   -0.248408
4   -0.268896
5   -0.275233
6   -0.276434
7   -0.319156
8   -0.389128
9   0.129526
10   0.622739
11   -0.46345
12   -0.453773
13   0.141611
14   0.139365
15   0.144077
16   0.124982
17   0.145589
18   0.131609
19   0.121913
20   0.166056
21   0.127743
22   0.136098
23   0.132278
24   0.151205
25   0.136099
26   0.160241
27   0.160387
28   0.185921
29   0.188773
30   0.145966

>  <lowdin_charges>
30
1   -0.445264
2   -0.277663
3   -0.276624
4   -0.282905
5   -0.282513
6   -0.287953
7   -0.296966
8   -0.31613
9   0.003383
10   0.191838
11   -0.243638
12   -0.188703
13   0.149697
14   0.145581
15   0.14803
16   0.134587
17   0.145561
18   0.143609
19   0.134934
20   0.154882
21   0.141493
22   0.144795
23   0.139112
24   0.153448
25   0.150959
26   0.158491
27   0.15749
28   0.176095
29   0.1762
30   0.148176

$$$$

