PCCDB-ID:  47676
public computational chemistry database (PCCDB) project, http://pccdb.org

 36 37  0  0  0  0  0  0  0  0999 V2000
    5.0243    6.0895   -3.7707 C   0  0  0  0  0  0  0  0  0  0  0  0
    5.8192    7.9441    3.2117 C   0  0  0  0  0  0  0  0  0  0  0  0
    5.2822    6.4976   -2.3221 C   0  0  0  0  0  0  0  0  0  0  0  0
   -0.0768    6.4992    3.8876 C   0  0  0  0  0  0  0  0  0  0  0  0
    0.3922    5.2492    3.3874 C   0  0  0  0  0  0  0  0  0  0  0  0
    4.5154    4.6940    0.9253 C   0  0  0  0  0  0  0  0  0  0  0  0
    0.8049    7.5392    4.0485 C   0  0  0  0  0  0  0  0  0  0  0  0
    4.7117    4.9912    2.4310 C   0  0  0  0  0  0  0  0  0  0  0  0
    5.0484    5.7959    0.0080 C   0  0  0  0  0  0  0  0  0  0  0  0
    1.7073    5.0848    3.0611 C   0  0  0  0  0  0  0  0  0  0  0  0
    3.2986    8.1964    3.7734 C   0  0  0  0  0  0  0  0  0  0  0  0
    4.4020    7.4503    3.3075 C   0  0  0  0  0  0  0  0  0  0  0  0
    2.1720    7.3807    3.7213 C   0  0  0  0  0  0  0  0  0  0  0  0
    3.9561    6.1712    2.9634 C   0  0  0  0  0  0  0  0  0  0  0  0
    4.8008    5.4754   -1.3950 N   0  0  0  0  0  0  0  0  0  0  0  0
    2.5973    6.1262    3.2161 N   0  0  0  0  0  0  0  0  0  0  0  0
    5.3521    6.8735   -4.4622 H   0  0  0  0  0  0  0  0  0  0  0  0
    3.9579    5.9024   -3.9329 H   0  0  0  0  0  0  0  0  0  0  0  0
    5.5708    5.1724   -4.0268 H   0  0  0  0  0  0  0  0  0  0  0  0
    5.8842    8.9899    3.5280 H   0  0  0  0  0  0  0  0  0  0  0  0
    6.2111    7.8846    2.1889 H   0  0  0  0  0  0  0  0  0  0  0  0
    6.4993    7.3661    3.8511 H   0  0  0  0  0  0  0  0  0  0  0  0
    4.7420    7.4275   -2.0995 H   0  0  0  0  0  0  0  0  0  0  0  0
    6.3585    6.7256   -2.1856 H   0  0  0  0  0  0  0  0  0  0  0  0
   -1.1258    6.6212    4.1379 H   0  0  0  0  0  0  0  0  0  0  0  0
   -0.2885    4.4152    3.2542 H   0  0  0  0  0  0  0  0  0  0  0  0
    3.4543    4.5394    0.6963 H   0  0  0  0  0  0  0  0  0  0  0  0
    5.0263    3.7481    0.6917 H   0  0  0  0  0  0  0  0  0  0  0  0
    0.4781    8.5021    4.4297 H   0  0  0  0  0  0  0  0  0  0  0  0
    5.7786    5.1607    2.6216 H   0  0  0  0  0  0  0  0  0  0  0  0
    4.4499    4.0882    3.0027 H   0  0  0  0  0  0  0  0  0  0  0  0
    6.1229    5.9695    0.2260 H   0  0  0  0  0  0  0  0  0  0  0  0
    4.5318    6.7373    0.2343 H   0  0  0  0  0  0  0  0  0  0  0  0
    2.1145    4.1594    2.6748 H   0  0  0  0  0  0  0  0  0  0  0  0
    3.3141    9.2227    4.1157 H   0  0  0  0  0  0  0  0  0  0  0  0
    5.2612    4.5919   -1.6170 H   0  0  0  0  0  0  0  0  0  0  0  0
  1  3  1  0  0  0  0
  2 12  1  0  0  0  0
  2 20  1  0  0  0  0
  2 22  1  0  0  0  0
  3 24  1  0  0  0  0
  3 23  1  0  0  0  0
  3 15  1  0  0  0  0
  4  7  2  0  0  0  0
  4 25  1  0  0  0  0
  5  4  1  0  0  0  0
  6  8  1  0  0  0  0
  7 29  1  0  0  0  0
  8 30  1  0  0  0  0
  8 14  1  0  0  0  0
  8 31  1  0  0  0  0
  9 32  1  0  0  0  0
  9 33  1  0  0  0  0
  9  6  1  0  0  0  0
 10 16  1  0  0  0  0
 10  5  2  0  0  0  0
 11 35  1  0  0  0  0
 12 11  1  0  0  0  0
 13 11  2  0  0  0  0
 13  7  1  0  0  0  0
 14 16  1  0  0  0  0
 14 12  2  0  0  0  0
 15  9  1  0  0  0  0
 16 13  1  0  0  0  0
 17  1  1  0  0  0  0
 18  1  1  0  0  0  0
 19  1  1  0  0  0  0
 21  2  1  0  0  0  0
 26  5  1  0  0  0  0
 27  6  1  0  0  0  0
 28  6  1  0  0  0  0
 34 10  1  0  0  0  0
 36 15  1  0  0  0  0
M  END
>  <HBA>
2

>  <HBD>
1

>  <TPSA>
16.44

>  <cid>
47676

>  <dipole>
1.38

>  <excitation_energy_1>
3.586

>  <excitation_energy_2>
4.273

>  <excitation_energy_3>
4.462

>  <excitation_energy_4>
4.611

>  <homo_energy>
-4.724

>  <homo_lumo_gap>
4.348

>  <logP>
3.181

>  <lumo_energy>
-0.376

>  <melting_point>
75.07

>  <molecular_refractivity>
69.36

>  <oscillator_strength_1>
0.0375

>  <oscillator_strength_2>
0.0312

>  <oscillator_strength_3>
0.0083

>  <oscillator_strength_4>
0.0013

>  <open_babel_can_smiles>
CCNCCCc1c(C)cc2n1cccc2

>  <mulliken_charges>
36
1   -0.450309
2   -0.539176
3   -0.10504
4   -0.127543
5   -0.185406
6   -0.265825
7   -0.192077
8   -0.356701
9   -0.110952
10   0.067166
11   -0.270577
12   0.067671
13   0.350618
14   0.282267
15   -0.551396
16   -0.557722
17   0.143322
18   0.159361
19   0.13627
20   0.155849
21   0.159063
22   0.156258
23   0.14132
24   0.107071
25   0.129632
26   0.13454
27   0.15246
28   0.123039
29   0.137024
30   0.149569
31   0.142565
32   0.10241
33   0.154074
34   0.158799
35   0.118182
36   0.284197

>  <lowdin_charges>
36
1   -0.447999
2   -0.44139
3   -0.195568
4   -0.17667
5   -0.188221
6   -0.279145
7   -0.159544
8   -0.278285
9   -0.201739
10   -0.116481
11   -0.245265
12   -0.034119
13   0.02571
14   -0.03308
15   -0.364136
16   0.047354
17   0.153091
18   0.154808
19   0.144084
20   0.158218
21   0.15603
22   0.157825
23   0.141914
24   0.111367
25   0.158074
26   0.165495
27   0.147942
28   0.137199
29   0.165219
30   0.156497
31   0.150096
32   0.108921
33   0.148614
34   0.169283
35   0.157394
36   0.246505

$$$$

