PCCDB-ID:  39912
public computational chemistry database (PCCDB) project, http://pccdb.org

 33 33  0  0  1  0  0  0  0  0999 V2000
   10.1465    0.7203    4.5256 C   0  0  0  0  0  0  0  0  0  0  0  0
   11.3451    2.9309    4.7991 C   0  0  0  0  0  0  0  0  0  0  0  0
    8.1159   -2.4667   -1.2004 C   0  0  0  0  0  0  0  0  0  0  0  0
   10.1789    1.4679    0.5839 C   0  0  0  0  0  0  0  0  0  0  0  0
   11.2200   -0.5420    1.3785 C   0  0  0  0  0  0  0  0  0  0  0  0
    9.5795    0.7481   -0.4500 C   0  0  0  0  0  0  0  0  0  0  0  0
   10.6226   -1.2645    0.3477 C   0  0  0  0  0  0  0  0  0  0  0  0
   11.6361    1.6236    2.6513 C   0  0  0  0  0  0  0  0  0  0  0  0
   10.6663    1.9737    3.8093 C   0  0  0  0  0  0  0  0  0  0  0  0
    9.1205   -1.4202   -1.7052 C   0  0  1  0  0  0  0  0  0  0  0  0
   11.0070    0.8369    1.5212 C   0  0  0  0  0  0  0  0  0  0  0  0
    9.7854   -0.6320   -0.5845 C   0  0  0  0  0  0  0  0  0  0  0  0
   10.1440   -2.0689   -2.6594 C   0  0  0  0  0  0  0  0  0  0  0  0
    9.9899   -3.1432   -3.1851 O   0  0  0  0  0  0  0  0  0  0  0  0
   11.2427   -1.3217   -2.9352 O   0  0  0  0  0  0  0  0  0  0  0  0
    9.6304    0.0436    3.8365 H   0  0  0  0  0  0  0  0  0  0  0  0
    9.4434    0.9894    5.3224 H   0  0  0  0  0  0  0  0  0  0  0  0
   10.9729    0.1633    4.9871 H   0  0  0  0  0  0  0  0  0  0  0  0
   12.2227    2.4606    5.2615 H   0  0  0  0  0  0  0  0  0  0  0  0
   10.6592    3.2157    5.6053 H   0  0  0  0  0  0  0  0  0  0  0  0
   11.6815    3.8496    4.3037 H   0  0  0  0  0  0  0  0  0  0  0  0
    7.3302   -1.9830   -0.6119 H   0  0  0  0  0  0  0  0  0  0  0  0
    8.6084   -3.2130   -0.5690 H   0  0  0  0  0  0  0  0  0  0  0  0
    7.6625   -2.9928   -2.0437 H   0  0  0  0  0  0  0  0  0  0  0  0
   10.0028    2.5388    0.6600 H   0  0  0  0  0  0  0  0  0  0  0  0
   11.8683   -1.0567    2.0837 H   0  0  0  0  0  0  0  0  0  0  0  0
    8.9373    1.2654   -1.1601 H   0  0  0  0  0  0  0  0  0  0  0  0
   10.8144   -2.3318    0.2631 H   0  0  0  0  0  0  0  0  0  0  0  0
   12.4866    1.0625    3.0617 H   0  0  0  0  0  0  0  0  0  0  0  0
   12.0470    2.5606    2.2516 H   0  0  0  0  0  0  0  0  0  0  0  0
    9.8035    2.4953    3.3686 H   0  0  0  0  0  0  0  0  0  0  0  0
    8.5747   -0.6997   -2.3335 H   0  0  0  0  0  0  0  0  0  0  0  0
   11.2431   -0.5319   -2.3649 H   0  0  0  0  0  0  0  0  0  0  0  0
  1 18  1  0  0  0  0
  1 17  1  0  0  0  0
  2 19  1  0  0  0  0
  2 20  1  0  0  0  0
  3 22  1  0  0  0  0
  3 23  1  0  0  0  0
  4 25  1  0  0  0  0
  4 11  2  0  0  0  0
  5 11  1  0  0  0  0
  5 26  1  0  0  0  0
  6  4  1  0  0  0  0
  7  5  2  0  0  0  0
  8 29  1  0  0  0  0
  8  9  1  0  0  0  0
  9  1  1  0  0  0  0
  9  2  1  0  0  0  0
 10 32  1  6  0  0  0
 10  3  1  0  0  0  0
 10 12  1  0  0  0  0
 11  8  1  0  0  0  0
 12  6  2  0  0  0  0
 12  7  1  0  0  0  0
 13 10  1  0  0  0  0
 14 13  2  0  0  0  0
 15 13  1  0  0  0  0
 15 33  1  0  0  0  0
 16  1  1  0  0  0  0
 21  2  1  0  0  0  0
 24  3  1  0  0  0  0
 27  6  1  0  0  0  0
 28  7  1  0  0  0  0
 30  8  1  0  0  0  0
 31  9  1  0  0  0  0
M  END
>  <HBA>
2

>  <HBD>
1

>  <TPSA>
37.3

>  <cid>
39912

>  <dipole>
5.06

>  <excitation_energy_1>
5.129

>  <excitation_energy_2>
5.458

>  <excitation_energy_3>
5.599

>  <excitation_energy_4>
5.945

>  <homo_energy>
-6.656

>  <homo_lumo_gap>
6.101

>  <logP>
3.073

>  <lumo_energy>
-0.555

>  <melting_point>
85.83

>  <molecular_refractivity>
62.18

>  <oscillator_strength_1>
0.0031

>  <oscillator_strength_2>
0.0283

>  <oscillator_strength_3>
0.141

>  <oscillator_strength_4>
0.0041

>  <open_babel_can_smiles>
CC(Cc1ccc(cc1)[C@@H](C(=O)O)C)C

>  <mulliken_charges>
33
1   -0.446657
2   -0.441405
3   -0.432699
4   -0.175545
5   -0.185087
6   -0.196252
7   -0.169217
8   -0.345652
9   -0.066001
10   -0.278715
11   0.176007
12   0.102114
13   0.606004
14   -0.448188
15   -0.570856
16   0.153895
17   0.143559
18   0.136758
19   0.141525
20   0.144936
21   0.140438
22   0.147039
23   0.157959
24   0.174656
25   0.130297
26   0.133784
27   0.132681
28   0.145258
29   0.138814
30   0.143041
31   0.127634
32   0.167158
33   0.412718

>  <lowdin_charges>
33
1   -0.451278
2   -0.446104
3   -0.437799
4   -0.161615
5   -0.162508
6   -0.174357
7   -0.158864
8   -0.276512
9   -0.11813
10   -0.164337
11   0.00395
12   -0.032299
13   0.18693
14   -0.23918
15   -0.355528
16   0.1562
17   0.151168
18   0.145635
19   0.147618
20   0.151729
21   0.147929
22   0.154957
23   0.158227
24   0.169127
25   0.156215
26   0.160904
27   0.158814
28   0.162035
29   0.148506
30   0.151956
31   0.138607
32   0.167837
33   0.36017

$$$$

