PCCDB-ID:  22444
public computational chemistry database (PCCDB) project, http://pccdb.org

 23 22  0  0  0  0  0  0  0  0999 V2000
    1.6495   -0.6300   -1.4437 C   0  0  0  0  0  0  0  0  0  0  0  0
    7.1711    1.4182    1.1085 C   0  0  0  0  0  0  0  0  0  0  0  0
    2.4136   -0.0293   -0.2490 C   0  0  0  0  0  0  0  0  0  0  0  0
    5.9636    0.5998    1.5732 C   0  0  0  0  0  0  0  0  0  0  0  0
    3.0213   -1.0904    0.6183 C   0  0  0  0  0  0  0  0  0  0  0  0
    5.4906   -0.4017    0.4985 C   0  0  0  0  0  0  0  0  0  0  0  0
    4.3180   -1.2414    0.9191 C   0  0  0  0  0  0  0  0  0  0  0  0
    4.6559   -2.3866    1.8076 N   0  0  0  0  0  0  0  0  0  0  0  0
    5.8456   -2.5311    2.0992 O   0  0  0  0  0  0  0  0  0  0  0  0
    3.7569   -3.1273    2.2051 O   0  0  0  0  0  0  0  0  0  0  0  0
    1.1662    0.1610   -2.0268 H   0  0  0  0  0  0  0  0  0  0  0  0
    0.8718   -1.3250   -1.1076 H   0  0  0  0  0  0  0  0  0  0  0  0
    2.3257   -1.1789   -2.1076 H   0  0  0  0  0  0  0  0  0  0  0  0
    7.4869    2.1275    1.8814 H   0  0  0  0  0  0  0  0  0  0  0  0
    6.9416    1.9928    0.2024 H   0  0  0  0  0  0  0  0  0  0  0  0
    8.0253    0.7686    0.8833 H   0  0  0  0  0  0  0  0  0  0  0  0
    1.7079    0.5485    0.3659 H   0  0  0  0  0  0  0  0  0  0  0  0
    3.1681    0.6796   -0.6040 H   0  0  0  0  0  0  0  0  0  0  0  0
    5.1331    1.2707    1.8298 H   0  0  0  0  0  0  0  0  0  0  0  0
    6.2185    0.0465    2.4834 H   0  0  0  0  0  0  0  0  0  0  0  0
    2.3356   -1.8225    1.0380 H   0  0  0  0  0  0  0  0  0  0  0  0
    6.3230   -1.0611    0.2333 H   0  0  0  0  0  0  0  0  0  0  0  0
    5.2148    0.1461   -0.4095 H   0  0  0  0  0  0  0  0  0  0  0  0
  1 12  1  0  0  0  0
  1  3  1  0  0  0  0
  2  4  1  0  0  0  0
  2 14  1  0  0  0  0
  3 17  1  0  0  0  0
  3  5  1  0  0  0  0
  4 19  1  0  0  0  0
  4 20  1  0  0  0  0
  5  7  2  0  0  0  0
  5 21  1  0  0  0  0
  6  7  1  0  0  0  0
  6  4  1  0  0  0  0
  7  8  1  0  0  0  0
  8  9  2  0  0  0  0
  8 10  2  0  0  0  0
 11  1  1  0  0  0  0
 13  1  1  0  0  0  0
 15  2  1  0  0  0  0
 16  2  1  0  0  0  0
 18  3  1  0  0  0  0
 22  6  1  0  0  0  0
 23  6  1  0  0  0  0
M  END
>  <HBA>
0

>  <HBD>
0

>  <TPSA>
45.82

>  <cid>
22444

>  <dipole>
4.48

>  <excitation_energy_1>
3.707

>  <excitation_energy_2>
4.247

>  <excitation_energy_3>
4.681

>  <excitation_energy_4>
5.852

>  <homo_energy>
-7.478

>  <homo_lumo_gap>
5.317

>  <logP>
2.88

>  <lumo_energy>
-2.161

>  <melting_point>
16.74

>  <molecular_refractivity>
43.39

>  <oscillator_strength_1>
0.0002

>  <oscillator_strength_2>
0.0008

>  <oscillator_strength_3>
0.1838

>  <oscillator_strength_4>
0.0375

>  <open_babel_can_smiles>
CCC/C(=C\CC)/N(=O)=O

>  <mulliken_charges>
23
1   -0.446146
2   -0.443724
3   -0.308105
4   -0.254253
5   -0.144341
6   -0.331774
7   0.277228
8   0.413832
9   -0.394495
10   -0.405223
11   0.155809
12   0.157368
13   0.159667
14   0.1497
15   0.139754
16   0.151693
17   0.165121
18   0.154756
19   0.134134
20   0.162919
21   0.186105
22   0.174413
23   0.145561

>  <lowdin_charges>
23
1   -0.44298
2   -0.445556
3   -0.273115
4   -0.273178
5   -0.121669
6   -0.282014
7   -0.007734
8   0.303273
9   -0.249765
10   -0.256148
11   0.158161
12   0.155769
13   0.157043
14   0.155067
15   0.145574
16   0.152238
17   0.164362
18   0.153993
19   0.141615
20   0.155028
21   0.185811
22   0.170001
23   0.154223

$$$$

