PCCDB-ID:  18178
public computational chemistry database (PCCDB) project, http://pccdb.org

 32 34  0  0  1  0  0  0  0  0999 V2000
   -1.6494    0.3409    0.1202 C   0  0  0  0  0  0  0  0  0  0  0  0
   -1.0854    0.6171   -1.1252 C   0  0  0  0  0  0  0  0  0  0  0  0
   -0.8150    0.0384    1.1985 C   0  0  0  0  0  0  0  0  0  0  0  0
    4.0285   -0.8372   -4.2977 C   0  0  0  0  0  0  0  0  0  0  0  0
    3.4694   -1.7814   -3.4319 C   0  0  0  0  0  0  0  0  0  0  0  0
    3.1354    2.7416   -0.9519 C   0  0  0  0  0  0  0  0  0  0  0  0
    0.3012    0.5938   -1.2932 C   0  0  0  0  0  0  0  0  0  0  0  0
    0.5685    0.0188    1.0268 C   0  0  0  0  0  0  0  0  0  0  0  0
    4.1587    0.4832   -3.8799 C   0  0  0  0  0  0  0  0  0  0  0  0
    3.9539    2.3394   -2.1837 C   0  0  0  0  0  0  0  0  0  0  0  0
    3.0472   -1.3844   -2.1674 C   0  0  0  0  0  0  0  0  0  0  0  0
    3.2628    1.6701    0.1334 C   0  0  0  0  0  0  0  0  0  0  0  0
    1.1508    0.2999   -0.2186 C   0  0  0  0  0  0  0  0  0  0  0  0
    3.7418    0.8943   -2.6036 C   0  0  0  0  0  0  0  0  0  0  0  0
    3.1740   -0.0548   -1.7348 C   0  0  0  0  0  0  0  0  0  0  0  0
    2.6777    0.3150   -0.3395 C   0  0  1  0  0  0  0  0  0  0  0  0
   -2.7284    0.3548    0.2493 H   0  0  0  0  0  0  0  0  0  0  0  0
   -1.7248    0.8473   -1.9737 H   0  0  0  0  0  0  0  0  0  0  0  0
   -1.2419   -0.1883    2.1723 H   0  0  0  0  0  0  0  0  0  0  0  0
    4.3591   -1.1299   -5.2909 H   0  0  0  0  0  0  0  0  0  0  0  0
    3.3634   -2.8176   -3.7420 H   0  0  0  0  0  0  0  0  0  0  0  0
    2.0789    2.8630   -1.2235 H   0  0  0  0  0  0  0  0  0  0  0  0
    3.4787    3.7130   -0.5766 H   0  0  0  0  0  0  0  0  0  0  0  0
    0.7263    0.7898   -2.2730 H   0  0  0  0  0  0  0  0  0  0  0  0
    1.2109   -0.2208    1.8723 H   0  0  0  0  0  0  0  0  0  0  0  0
    4.5941    1.2205   -4.5520 H   0  0  0  0  0  0  0  0  0  0  0  0
    5.0226    2.4848   -1.9618 H   0  0  0  0  0  0  0  0  0  0  0  0
    3.7323    3.0046   -3.0282 H   0  0  0  0  0  0  0  0  0  0  0  0
    2.6019   -2.1139   -1.4939 H   0  0  0  0  0  0  0  0  0  0  0  0
    2.7591    1.9818    1.0552 H   0  0  0  0  0  0  0  0  0  0  0  0
    4.3253    1.5307    0.3790 H   0  0  0  0  0  0  0  0  0  0  0  0
    3.0474   -0.4540    0.3526 H   0  0  0  0  0  0  0  0  0  0  0  0
  1 17  1  0  0  0  0
  1  3  2  0  0  0  0
  2  1  1  0  0  0  0
  3 19  1  0  0  0  0
  4  9  2  0  0  0  0
  4  5  1  0  0  0  0
  5 11  2  0  0  0  0
  6 23  1  0  0  0  0
  6 12  1  0  0  0  0
  7  2  2  0  0  0  0
  7 13  1  0  0  0  0
  8  3  1  0  0  0  0
  8 25  1  0  0  0  0
  9 14  1  0  0  0  0
 10 27  1  0  0  0  0
 10  6  1  0  0  0  0
 11 15  1  0  0  0  0
 11 29  1  0  0  0  0
 12 31  1  0  0  0  0
 12 30  1  0  0  0  0
 13  8  2  0  0  0  0
 14 10  1  0  0  0  0
 14 15  2  0  0  0  0
 15 16  1  0  0  0  0
 16 13  1  0  0  0  0
 16 12  1  0  0  0  0
 16 32  1  1  0  0  0
 18  2  1  0  0  0  0
 20  4  1  0  0  0  0
 21  5  1  0  0  0  0
 22  6  1  0  0  0  0
 24  7  1  0  0  0  0
 26  9  1  0  0  0  0
 28 10  1  0  0  0  0
M  END
>  <HBA>
0

>  <HBD>
0

>  <TPSA>
0.0

>  <cid>
18178

>  <dipole>
0.45

>  <excitation_energy_1>
5.083

>  <excitation_energy_2>
5.236

>  <excitation_energy_3>
5.486

>  <excitation_energy_4>
5.551

>  <homo_energy>
-6.237

>  <homo_lumo_gap>
6.133

>  <logP>
4.155

>  <lumo_energy>
-0.103

>  <melting_point>
63.63

>  <molecular_refractivity>
68.36

>  <oscillator_strength_1>
0.0061

>  <oscillator_strength_2>
0.0106

>  <oscillator_strength_3>
0.0037

>  <oscillator_strength_4>
0.0426

>  <open_babel_can_smiles>
c1ccc(cc1)[C@@H]1CCCc2c1cccc2

>  <mulliken_charges>
32
1   -0.130273
2   -0.133632
3   -0.128476
4   -0.127224
5   -0.132751
6   -0.27278
7   -0.18174
8   -0.183281
9   -0.189791
10   -0.340889
11   -0.174024
12   -0.265498
13   0.171455
14   0.117404
15   0.101164
16   -0.253913
17   0.126345
18   0.127797
19   0.12671
20   0.125287
21   0.125904
22   0.147918
23   0.133555
24   0.137466
25   0.120884
26   0.118767
27   0.150239
28   0.144312
29   0.1268
30   0.139299
31   0.134631
32   0.138335

>  <lowdin_charges>
32
1   -0.159435
2   -0.157067
3   -0.156183
4   -0.157807
5   -0.160258
6   -0.277911
7   -0.1684
8   -0.170695
9   -0.167531
10   -0.275925
11   -0.159831
12   -0.271424
13   -0.002024
14   -0.016632
15   -0.016483
16   -0.127126
17   0.154305
18   0.157463
19   0.155959
20   0.155261
21   0.155089
22   0.146727
23   0.146227
24   0.162452
25   0.15357
26   0.154148
27   0.14953
28   0.152207
29   0.157799
30   0.148947
31   0.140439
32   0.154612

$$$$

