PCCDB-ID:  49311
public computational chemistry database (PCCDB) project, http://pccdb.org

 37 37  0  0  1  0  0  0  0  0999 V2000
    6.4344    1.2107   -2.7619 C   0  0  0  0  0  0  0  0  0  0  0  0
    9.3229   -2.7953    0.4116 C   0  0  0  0  0  0  0  0  0  0  0  0
    7.7918   -4.6402   -0.3477 C   0  0  0  0  0  0  0  0  0  0  0  0
    5.3420    0.1625   -3.0154 C   0  0  0  0  0  0  0  0  0  0  0  0
    5.3199   -1.0464   -2.0561 C   0  0  0  0  0  0  0  0  0  0  0  0
    6.2532   -2.2298   -2.3923 C   0  0  0  0  0  0  0  0  0  0  0  0
    7.7588   -1.9131   -2.2439 C   0  0  0  0  0  0  0  0  0  0  0  0
    8.9884   -3.7570   -0.7420 C   0  0  0  0  0  0  0  0  0  0  0  0
   10.2257   -2.3739   -2.4513 C   0  0  0  0  0  0  0  0  0  0  0  0
    8.7384   -4.1450   -3.2295 C   0  0  0  0  0  0  0  0  0  0  0  0
   11.0284   -4.2401   -3.5394 C   0  0  0  0  0  0  0  0  0  0  0  0
    8.8578   -3.0375   -2.1629 C   0  0  2  0  0  0  0  0  0  0  0  0
   11.2033   -2.9232   -3.0512 N   0  0  0  0  0  0  0  0  0  0  0  0
    9.7193   -4.6912   -3.8305 N   0  0  0  0  0  0  0  0  0  0  0  0
   10.4301   -1.1099   -2.0118 O   0  0  0  0  0  0  0  0  0  0  0  0
    7.5170   -4.6437   -3.5226 O   0  0  0  0  0  0  0  0  0  0  0  0
   11.9843   -4.9541   -3.7427 O   0  0  0  0  0  0  0  0  0  0  0  0
    6.2945    2.0774   -3.4172 H   0  0  0  0  0  0  0  0  0  0  0  0
    7.4436    0.8290   -2.9471 H   0  0  0  0  0  0  0  0  0  0  0  0
    6.3984    1.5719   -1.7265 H   0  0  0  0  0  0  0  0  0  0  0  0
    9.4868   -3.3781    1.3242 H   0  0  0  0  0  0  0  0  0  0  0  0
    8.5004   -2.1010    0.6256 H   0  0  0  0  0  0  0  0  0  0  0  0
   10.2328   -2.2171    0.2293 H   0  0  0  0  0  0  0  0  0  0  0  0
    8.0521   -5.2080    0.5522 H   0  0  0  0  0  0  0  0  0  0  0  0
    7.5297   -5.3682   -1.1203 H   0  0  0  0  0  0  0  0  0  0  0  0
    6.9043   -4.0465   -0.1016 H   0  0  0  0  0  0  0  0  0  0  0  0
    5.4033   -0.1977   -4.0521 H   0  0  0  0  0  0  0  0  0  0  0  0
    4.3707    0.6668   -2.9342 H   0  0  0  0  0  0  0  0  0  0  0  0
    4.3002   -1.4517   -2.0458 H   0  0  0  0  0  0  0  0  0  0  0  0
    5.5178   -0.7071   -1.0286 H   0  0  0  0  0  0  0  0  0  0  0  0
    6.0362   -2.5421   -3.4221 H   0  0  0  0  0  0  0  0  0  0  0  0
    5.9630   -3.0522   -1.7252 H   0  0  0  0  0  0  0  0  0  0  0  0
    7.8462   -1.3131   -1.3279 H   0  0  0  0  0  0  0  0  0  0  0  0
    8.0336   -1.2538   -3.0731 H   0  0  0  0  0  0  0  0  0  0  0  0
    9.8503   -4.4248   -0.8628 H   0  0  0  0  0  0  0  0  0  0  0  0
    9.6419   -0.7760   -1.5589 H   0  0  0  0  0  0  0  0  0  0  0  0
    6.8354   -4.2182   -2.9840 H   0  0  0  0  0  0  0  0  0  0  0  0
  1 20  1  0  0  0  0
  2 22  1  0  0  0  0
  2 21  1  0  0  0  0
  3 26  1  0  0  0  0
  3 24  1  0  0  0  0
  4 28  1  0  0  0  0
  4  1  1  0  0  0  0
  4  5  1  0  0  0  0
  5 29  1  0  0  0  0
  5 30  1  0  0  0  0
  6  7  1  0  0  0  0
  6  5  1  0  0  0  0
  6 32  1  0  0  0  0
  7 33  1  0  0  0  0
  8  3  1  0  0  0  0
  8  2  1  0  0  0  0
  9 12  1  0  0  0  0
  9 15  1  0  0  0  0
 10 12  1  0  0  0  0
 11 13  2  0  0  0  0
 12  7  1  6  0  0  0
 12  8  1  0  0  0  0
 13  9  2  0  0  0  0
 14 11  1  0  0  0  0
 14 10  2  0  0  0  0
 15 36  1  0  0  0  0
 16 10  1  0  0  0  0
 16 37  1  0  0  0  0
 17 11  2  0  0  0  0
 18  1  1  0  0  0  0
 19  1  1  0  0  0  0
 23  2  1  0  0  0  0
 25  3  1  0  0  0  0
 27  4  1  0  0  0  0
 31  6  1  0  0  0  0
 34  7  1  0  0  0  0
 35  8  1  0  0  0  0
M  END
>  <HBA>
5

>  <HBD>
2

>  <TPSA>
75.27

>  <cid>
49311

>  <dipole>
10.74

>  <excitation_energy_1>
3.971

>  <excitation_energy_2>
4.271

>  <excitation_energy_3>
5.358

>  <excitation_energy_4>
5.449

>  <homo_energy>
-6.762

>  <homo_lumo_gap>
5.344

>  <logP>
2.233

>  <lumo_energy>
-1.418

>  <melting_point>
139.58

>  <molecular_refractivity>
71.85

>  <oscillator_strength_1>
0.0011

>  <oscillator_strength_2>
0.0005

>  <oscillator_strength_3>
0.012

>  <oscillator_strength_4>
0.0266

>  <open_babel_can_smiles>
CCCCC[C@@]1(C(C)C)C(=N[C](=[N]=C1O)=O)O

>  <mulliken_charges>
37
1   -0.450731
2   -0.488077
3   -0.485957
4   -0.254183
5   -0.264282
6   -0.344741
7   -0.326398
8   -0.070083
9   0.513098
10   0.508673
11   0.603754
12   -0.112619
13   -0.453151
14   -0.446452
15   -0.574896
16   -0.583285
17   -0.432932
18   0.157756
19   0.141777
20   0.144881
21   0.167328
22   0.143034
23   0.17653
24   0.166678
25   0.170904
26   0.149853
27   0.141237
28   0.146814
29   0.146917
30   0.136239
31   0.168652
32   0.151303
33   0.141878
34   0.186357
35   0.172409
36   0.421782
37   0.429933

>  <lowdin_charges>
37
1   -0.447825
2   -0.461113
3   -0.461263
4   -0.274716
5   -0.273669
6   -0.301601
7   -0.295122
8   -0.115076
9   0.146784
10   0.149268
11   0.173311
12   -0.062081
13   -0.18378
14   -0.186058
15   -0.334396
16   -0.3364
17   -0.217613
18   0.158257
19   0.142966
20   0.146544
21   0.165745
22   0.145639
23   0.164329
24   0.164875
25   0.162353
26   0.14807
27   0.143753
28   0.150524
29   0.152149
30   0.140825
31   0.154152
32   0.148848
33   0.147269
34   0.166123
35   0.163451
36   0.357679
37   0.357799

$$$$

