PCCDB-ID:  7674
public computational chemistry database (PCCDB) project, http://pccdb.org

 19 19  0  0  0  0  0  0  0  0999 V2000
    1.1077    1.4340    1.5929 C   0  0  0  0  0  0  0  0  0  0  0  0
    2.5823    1.7648    1.7454 C   0  0  0  0  0  0  0  0  0  0  0  0
    7.4692    0.4231    1.8749 C   0  0  0  0  0  0  0  0  0  0  0  0
    6.7097   -0.7248    1.6218 C   0  0  0  0  0  0  0  0  0  0  0  0
    6.8200    1.6451    2.0322 C   0  0  0  0  0  0  0  0  0  0  0  0
    5.3249   -0.6495    1.5281 C   0  0  0  0  0  0  0  0  0  0  0  0
    5.4271    1.7379    1.9405 C   0  0  0  0  0  0  0  0  0  0  0  0
    4.6752    0.5841    1.6876 C   0  0  0  0  0  0  0  0  0  0  0  0
    3.3139    0.5524    1.5768 O   0  0  0  0  0  0  0  0  0  0  0  0
    0.5034    2.3401    1.7100 H   0  0  0  0  0  0  0  0  0  0  0  0
    0.7961    0.7071    2.3495 H   0  0  0  0  0  0  0  0  0  0  0  0
    0.9092    1.0083    0.6043 H   0  0  0  0  0  0  0  0  0  0  0  0
    2.7882    2.1908    2.7381 H   0  0  0  0  0  0  0  0  0  0  0  0
    2.8991    2.5007    0.9920 H   0  0  0  0  0  0  0  0  0  0  0  0
    8.5511    0.3616    1.9486 H   0  0  0  0  0  0  0  0  0  0  0  0
    7.2006   -1.6865    1.4963 H   0  0  0  0  0  0  0  0  0  0  0  0
    7.3957    2.5461    2.2284 H   0  0  0  0  0  0  0  0  0  0  0  0
    4.7207   -1.5301    1.3327 H   0  0  0  0  0  0  0  0  0  0  0  0
    4.9460    2.7009    2.0668 H   0  0  0  0  0  0  0  0  0  0  0  0
  1 10  1  0  0  0  0
  1  2  1  0  0  0  0
  1 11  1  0  0  0  0
  2 13  1  0  0  0  0
  3 15  1  0  0  0  0
  3  5  2  0  0  0  0
  4  3  1  0  0  0  0
  5 17  1  0  0  0  0
  6  4  2  0  0  0  0
  6  8  1  0  0  0  0
  7  5  1  0  0  0  0
  7 19  1  0  0  0  0
  8  7  2  0  0  0  0
  9  8  1  0  0  0  0
  9  2  1  0  0  0  0
 12  1  1  0  0  0  0
 14  2  1  0  0  0  0
 16  4  1  0  0  0  0
 18  6  1  0  0  0  0
M  END
>  <HBA>
1

>  <HBD>
0

>  <TPSA>
9.23

>  <cid>
7674

>  <dipole>
1.33

>  <excitation_energy_1>
5.045

>  <excitation_energy_2>
5.51

>  <excitation_energy_3>
5.754

>  <excitation_energy_4>
5.833

>  <homo_energy>
-5.818

>  <homo_lumo_gap>
5.954

>  <logP>
2.085

>  <lumo_energy>
0.136

>  <melting_point>
7.76

>  <molecular_refractivity>
37.74

>  <oscillator_strength_1>
0.0339

>  <oscillator_strength_2>
0.0014

>  <oscillator_strength_3>
0.0968

>  <oscillator_strength_4>
0.0124

>  <open_babel_can_smiles>
CCOc1ccccc1

>  <mulliken_charges>
19
1   -0.456642
2   -0.02794
3   -0.133894
4   -0.132812
5   -0.137557
6   -0.17514
7   -0.195975
8   0.379027
9   -0.518233
10   0.147558
11   0.163296
12   0.163476
13   0.139935
14   0.13977
15   0.123832
16   0.12851
17   0.127586
18   0.134665
19   0.130536

>  <lowdin_charges>
19
1   -0.448256
2   -0.124375
3   -0.177772
4   -0.147623
5   -0.147935
6   -0.185194
7   -0.216324
8   0.104943
9   -0.205476
10   0.15693
11   0.16072
12   0.159506
13   0.137162
14   0.138461
15   0.153963
16   0.157519
17   0.157101
18   0.1656
19   0.161051

$$$$

