PCCDB-ID:  7230
public computational chemistry database (PCCDB) project, http://pccdb.org

 29 30  0  0  0  0  0  0  0  0999 V2000
    1.8540    0.4268   -1.2231 C   0  0  0  0  0  0  0  0  0  0  0  0
    3.4524    1.5704    0.3605 C   0  0  0  0  0  0  0  0  0  0  0  0
    2.1362   -0.4526    1.1170 C   0  0  0  0  0  0  0  0  0  0  0  0
    2.9446   -7.1351    0.9317 C   0  0  0  0  0  0  0  0  0  0  0  0
    4.1446   -7.5239    1.5485 C   0  0  0  0  0  0  0  0  0  0  0  0
    2.7532   -5.8256    0.5033 C   0  0  0  0  0  0  0  0  0  0  0  0
    5.1772   -6.6088    1.7480 C   0  0  0  0  0  0  0  0  0  0  0  0
    3.7788   -4.8903    0.6947 C   0  0  0  0  0  0  0  0  0  0  0  0
    4.9840   -5.2962    1.3161 C   0  0  0  0  0  0  0  0  0  0  0  0
    4.8062   -2.9399    0.6236 C   0  0  0  0  0  0  0  0  0  0  0  0
    2.8456    0.2200   -0.0654 C   0  0  0  0  0  0  0  0  0  0  0  0
    3.7147   -3.5526    0.3231 N   0  0  0  0  0  0  0  0  0  0  0  0
    3.8733   -0.7132   -0.6049 N   0  0  0  0  0  0  0  0  0  0  0  0
    6.0795   -3.9235    1.4132 S   0  0  0  0  0  0  0  0  0  0  0  0
    5.1803   -1.2176    0.3671 S   0  0  0  0  0  0  0  0  0  0  0  0
    1.0427    1.0939   -0.9133 H   0  0  0  0  0  0  0  0  0  0  0  0
    1.4229   -0.5291   -1.5361 H   0  0  0  0  0  0  0  0  0  0  0  0
    2.3456    0.8853   -2.0913 H   0  0  0  0  0  0  0  0  0  0  0  0
    2.6755    2.2543    0.7220 H   0  0  0  0  0  0  0  0  0  0  0  0
    3.9619    2.0550   -0.4817 H   0  0  0  0  0  0  0  0  0  0  0  0
    4.1805    1.4334    1.1679 H   0  0  0  0  0  0  0  0  0  0  0  0
    1.3184    0.1829    1.4744 H   0  0  0  0  0  0  0  0  0  0  0  0
    2.8260   -0.6127    1.9523 H   0  0  0  0  0  0  0  0  0  0  0  0
    1.7338   -1.4240    0.8175 H   0  0  0  0  0  0  0  0  0  0  0  0
    2.1551   -7.8674    0.7884 H   0  0  0  0  0  0  0  0  0  0  0  0
    4.2739   -8.5520    1.8749 H   0  0  0  0  0  0  0  0  0  0  0  0
    1.8307   -5.5105    0.0260 H   0  0  0  0  0  0  0  0  0  0  0  0
    6.1039   -6.9129    2.2252 H   0  0  0  0  0  0  0  0  0  0  0  0
    4.2165   -0.4243   -1.5166 H   0  0  0  0  0  0  0  0  0  0  0  0
  1 16  1  0  0  0  0
  1 11  1  0  0  0  0
  2 19  1  0  0  0  0
  2 21  1  0  0  0  0
  3 22  1  0  0  0  0
  3 23  1  0  0  0  0
  4  5  2  0  0  0  0
  5  7  1  0  0  0  0
  5 26  1  0  0  0  0
  6  8  2  0  0  0  0
  6  4  1  0  0  0  0
  7 28  1  0  0  0  0
  8  9  1  0  0  0  0
  9 14  1  0  0  0  0
  9  7  2  0  0  0  0
 10 14  1  0  0  0  0
 11  2  1  0  0  0  0
 11  3  1  0  0  0  0
 12 10  2  0  0  0  0
 12  8  1  0  0  0  0
 13 11  1  0  0  0  0
 13 15  1  0  0  0  0
 15 10  1  0  0  0  0
 17  1  1  0  0  0  0
 18  1  1  0  0  0  0
 20  2  1  0  0  0  0
 24  3  1  0  0  0  0
 25  4  1  0  0  0  0
 27  6  1  0  0  0  0
 29 13  1  0  0  0  0
M  END
>  <HBA>
4

>  <HBD>
1

>  <TPSA>
78.46

>  <cid>
7230

>  <dipole>
1.14

>  <excitation_energy_1>
4.562

>  <excitation_energy_2>
4.689

>  <excitation_energy_3>
4.746

>  <excitation_energy_4>
4.981

>  <homo_energy>
-5.919

>  <homo_lumo_gap>
5.181

>  <logP>
4.082

>  <lumo_energy>
-0.737

>  <melting_point>
112.41

>  <molecular_refractivity>
68.6

>  <oscillator_strength_1>
0.1895

>  <oscillator_strength_2>
0.0262

>  <oscillator_strength_3>
0.1283

>  <oscillator_strength_4>
0.0036

>  <open_babel_can_smiles>
CC(NSc1nc2c(s1)cccc2)(C)C

>  <mulliken_charges>
29
1   -0.452272
2   -0.444293
3   -0.446123
4   -0.148166
5   -0.119432
6   -0.143525
7   -0.176211
8   0.27708
9   -0.134793
10   -0.07522
11   0.211145
12   -0.438716
13   -0.652363
14   0.216087
15   0.280991
16   0.150151
17   0.167949
18   0.134564
19   0.143802
20   0.134471
21   0.15994
22   0.137125
23   0.159345
24   0.175883
25   0.132707
26   0.13246
27   0.142767
28   0.143532
29   0.331116

>  <lowdin_charges>
29
1   -0.445808
2   -0.459222
3   -0.449218
4   -0.160576
5   -0.157677
6   -0.157097
7   -0.161106
8   0.023729
9   -0.146854
10   -0.196706
11   0.074319
12   -0.162178
13   -0.474499
14   0.248852
15   0.293137
16   0.156762
17   0.162338
18   0.145631
19   0.153169
20   0.146776
21   0.158481
22   0.150791
23   0.159158
24   0.166479
25   0.161034
26   0.159394
27   0.169349
28   0.165631
29   0.275909

$$$$

