PCCDB-ID:  52866
public computational chemistry database (PCCDB) project, http://pccdb.org

 20 20  0  0  0  0  0  0  0  0999 V2000
    1.0052    0.9152   -1.4157 C   0  0  0  0  0  0  0  0  0  0  0  0
    2.3552    1.5727   -1.1984 C   0  0  0  0  0  0  0  0  0  0  0  0
    6.5226    2.3996   -0.9619 C   0  0  0  0  0  0  0  0  0  0  0  0
    5.1450    2.1868   -1.0062 C   0  0  0  0  0  0  0  0  0  0  0  0
    7.3840    1.3809   -1.3627 C   0  0  0  0  0  0  0  0  0  0  0  0
    4.6574    0.9465   -1.4394 C   0  0  0  0  0  0  0  0  0  0  0  0
    5.6338   -0.0017   -1.8101 C   0  0  0  0  0  0  0  0  0  0  0  0
    6.9345    0.1960   -1.7918 N   0  0  0  0  0  0  0  0  0  0  0  0
    5.2143   -1.3537   -2.2645 N   0  0  0  0  0  0  0  0  0  0  0  0
    4.4225   -1.9565   -1.5443 O   0  0  0  0  0  0  0  0  0  0  0  0
    5.7026   -1.7694   -3.3077 O   0  0  0  0  0  0  0  0  0  0  0  0
    3.3587    0.6127   -1.5606 O   0  0  0  0  0  0  0  0  0  0  0  0
    0.2043    1.6146   -1.1534 H   0  0  0  0  0  0  0  0  0  0  0  0
    0.9086    0.0215   -0.7925 H   0  0  0  0  0  0  0  0  0  0  0  0
    0.8835    0.6218   -2.4626 H   0  0  0  0  0  0  0  0  0  0  0  0
    2.4914    1.8640   -0.1482 H   0  0  0  0  0  0  0  0  0  0  0  0
    2.4662    2.4700   -1.8228 H   0  0  0  0  0  0  0  0  0  0  0  0
    6.9178    3.3530   -0.6245 H   0  0  0  0  0  0  0  0  0  0  0  0
    4.4620    2.9746   -0.7114 H   0  0  0  0  0  0  0  0  0  0  0  0
    8.4627    1.5104   -1.3452 H   0  0  0  0  0  0  0  0  0  0  0  0
  1  2  1  0  0  0  0
  1 13  1  0  0  0  0
  1 14  1  0  0  0  0
  2 16  1  0  0  0  0
  3 18  1  0  0  0  0
  4  3  1  0  0  0  0
  4 19  1  0  0  0  0
  5 20  1  0  0  0  0
  5  3  2  0  0  0  0
  6  4  2  0  0  0  0
  7  8  2  0  0  0  0
  7  6  1  0  0  0  0
  8  5  1  0  0  0  0
  9  7  1  0  0  0  0
  9 10  2  0  0  0  0
 11  9  2  0  0  0  0
 12  6  1  0  0  0  0
 12  2  1  0  0  0  0
 15  1  1  0  0  0  0
 17  2  1  0  0  0  0
M  END
>  <HBA>
2

>  <HBD>
0

>  <TPSA>
67.94

>  <cid>
52866

>  <dipole>
6.81

>  <excitation_energy_1>
3.733

>  <excitation_energy_2>
4.07

>  <excitation_energy_3>
4.21

>  <excitation_energy_4>
4.767

>  <homo_energy>
-6.855

>  <homo_lumo_gap>
4.849

>  <logP>
1.912

>  <lumo_energy>
-2.005

>  <melting_point>
63.06

>  <molecular_refractivity>
44.36

>  <oscillator_strength_1>
0.0347

>  <oscillator_strength_2>
0.0052

>  <oscillator_strength_3>
0.0215

>  <oscillator_strength_4>
0.0026

>  <open_babel_can_smiles>
CCOc1cccnc1N(=O)=O

>  <mulliken_charges>
20
1   -0.459125
2   -0.044922
3   -0.133587
4   -0.169847
5   0.027847
6   0.409201
7   0.36483
8   -0.431829
9   0.399004
10   -0.372538
11   -0.362734
12   -0.503124
13   0.154057
14   0.179037
15   0.173408
16   0.151599
17   0.149184
18   0.152427
19   0.159888
20   0.157223

>  <lowdin_charges>
20
1   -0.445834
2   -0.120335
3   -0.14955
4   -0.181984
5   -0.099387
6   0.097787
7   0.035608
8   -0.104298
9   0.302721
10   -0.233124
11   -0.218243
12   -0.175913
13   0.16163
14   0.168695
15   0.164503
16   0.142787
17   0.142972
18   0.171843
19   0.175755
20   0.164368

$$$$

