PCCDB-ID:  48599
public computational chemistry database (PCCDB) project, http://pccdb.org

 34 34  0  0  0  0  0  0  0  0999 V2000
    2.4592    1.4722   -3.8591 C   0  0  0  0  0  0  0  0  0  0  0  0
    0.8744    0.0618   -2.4475 C   0  0  0  0  0  0  0  0  0  0  0  0
    7.4552   -2.3768    4.0022 C   0  0  0  0  0  0  0  0  0  0  0  0
    7.0284    0.2127    1.1912 C   0  0  0  0  0  0  0  0  0  0  0  0
    6.6751   -1.7004   -0.2393 C   0  0  0  0  0  0  0  0  0  0  0  0
    5.9970    0.8900    0.5460 C   0  0  0  0  0  0  0  0  0  0  0  0
    5.6334   -1.0269   -0.8718 C   0  0  0  0  0  0  0  0  0  0  0  0
    8.5289   -1.7994    1.4836 C   0  0  0  0  0  0  0  0  0  0  0  0
    2.0751    1.0103   -2.4470 C   0  0  0  0  0  0  0  0  0  0  0  0
    7.3780   -1.0878    0.8066 C   0  0  0  0  0  0  0  0  0  0  0  0
    5.2763    0.2721   -0.4820 C   0  0  0  0  0  0  0  0  0  0  0  0
    4.1712    1.0714   -1.1239 C   0  0  0  0  0  0  0  0  0  0  0  0
    7.6428   -3.4800    3.0652 N   0  0  0  0  0  0  0  0  0  0  0  0
    3.2065    0.3607   -1.7765 N   0  0  0  0  0  0  0  0  0  0  0  0
    8.1330   -3.1969    1.9285 N   0  0  0  0  0  0  0  0  0  0  0  0
    4.1433    2.2983   -1.0435 O   0  0  0  0  0  0  0  0  0  0  0  0
    8.3112   -4.0706    1.0486 O   0  0  0  0  0  0  0  0  0  0  0  0
    1.6252    2.0068   -4.3288 H   0  0  0  0  0  0  0  0  0  0  0  0
    2.7202    0.6173   -4.4946 H   0  0  0  0  0  0  0  0  0  0  0  0
    3.3175    2.1486   -3.8129 H   0  0  0  0  0  0  0  0  0  0  0  0
    0.0111    0.5422   -2.9188 H   0  0  0  0  0  0  0  0  0  0  0  0
    0.5921   -0.2238   -1.4282 H   0  0  0  0  0  0  0  0  0  0  0  0
    1.0918   -0.8529   -3.0155 H   0  0  0  0  0  0  0  0  0  0  0  0
    6.9108   -2.7878    4.8548 H   0  0  0  0  0  0  0  0  0  0  0  0
    6.8679   -1.5469    3.5889 H   0  0  0  0  0  0  0  0  0  0  0  0
    8.4098   -1.9801    4.3790 H   0  0  0  0  0  0  0  0  0  0  0  0
    7.5742    0.7041    1.9936 H   0  0  0  0  0  0  0  0  0  0  0  0
    6.9486   -2.7044   -0.5482 H   0  0  0  0  0  0  0  0  0  0  0  0
    5.7308    1.9042    0.8240 H   0  0  0  0  0  0  0  0  0  0  0  0
    5.1273   -1.5152   -1.7005 H   0  0  0  0  0  0  0  0  0  0  0  0
    8.8948   -1.2343    2.3415 H   0  0  0  0  0  0  0  0  0  0  0  0
    9.3557   -1.9842    0.7970 H   0  0  0  0  0  0  0  0  0  0  0  0
    1.8394    1.8967   -1.8484 H   0  0  0  0  0  0  0  0  0  0  0  0
    3.2190   -0.6478   -1.7320 H   0  0  0  0  0  0  0  0  0  0  0  0
  1 20  1  0  0  0  0
  1  9  1  0  0  0  0
  2  9  1  0  0  0  0
  2 22  1  0  0  0  0
  3 26  1  0  0  0  0
  3 24  1  0  0  0  0
  4 27  1  0  0  0  0
  5 10  2  0  0  0  0
  6 29  1  0  0  0  0
  6  4  2  0  0  0  0
  7 11  2  0  0  0  0
  7  5  1  0  0  0  0
  8 15  1  0  0  0  0
  8 31  1  0  0  0  0
  9 33  1  0  0  0  0
  9 14  1  0  0  0  0
 10  4  1  0  0  0  0
 10  8  1  0  0  0  0
 11  6  1  0  0  0  0
 12 16  2  0  0  0  0
 12 11  1  0  0  0  0
 13  3  1  0  0  0  0
 14 34  1  0  0  0  0
 14 12  1  0  0  0  0
 15 13  1  0  0  0  0
 17 15  1  0  0  0  0
 18  1  1  0  0  0  0
 19  1  1  0  0  0  0
 21  2  1  0  0  0  0
 23  2  1  0  0  0  0
 25  3  1  0  0  0  0
 28  5  1  0  0  0  0
 30  7  1  0  0  0  0
 32  8  1  0  0  0  0
M  RAD  2  13   2  17   2
M  END
>  <HBA>
4

>  <HBD>
1

>  <TPSA>
70.21

>  <cid>
48599

>  <dipole>
1.57

>  <excitation_energy_1>
4.139

>  <excitation_energy_2>
4.427

>  <excitation_energy_3>
4.711

>  <excitation_energy_4>
4.846

>  <homo_energy>
-6.732

>  <homo_lumo_gap>
5.333

>  <logP>
2.831

>  <lumo_energy>
-1.399

>  <melting_point>
95.47

>  <molecular_refractivity>
67.05

>  <oscillator_strength_1>
0.0068

>  <oscillator_strength_2>
0.0186

>  <oscillator_strength_3>
0.0212

>  <oscillator_strength_4>
0.0174

>  <open_babel_can_smiles>
C[N]N(Cc1ccc(cc1)C(=O)NC(C)C)[O]

>  <mulliken_charges>
34
1   -0.436899
2   -0.472129
3   -0.357324
4   -0.192295
5   -0.174275
6   -0.156993
7   -0.185978
8   -0.256411
9   0.065699
10   0.153668
11   0.078219
12   0.56776
13   -0.205595
14   -0.622158
15   0.238985
16   -0.530355
17   -0.434078
18   0.143542
19   0.136274
20   0.174337
21   0.159921
22   0.157024
23   0.141708
24   0.1869
25   0.169076
26   0.162365
27   0.134863
28   0.175557
29   0.16897
30   0.134277
31   0.170739
32   0.208505
33   0.17062
34   0.325482

>  <lowdin_charges>
34
1   -0.452089
2   -0.451351
3   -0.384573
4   -0.165264
5   -0.153229
6   -0.129789
7   -0.1567
8   -0.222046
9   -0.047424
10   -0.012788
11   -0.033102
12   0.155584
13   -0.162128
14   -0.268463
15   0.236921
16   -0.315186
17   -0.325707
18   0.152966
19   0.146506
20   0.166492
21   0.161951
22   0.155146
23   0.146804
24   0.173222
25   0.157536
26   0.152793
27   0.160084
28   0.178412
29   0.17985
30   0.159292
31   0.167652
32   0.18864
33   0.161863
34   0.278126

$$$$

