PCCDB-ID:  43547
public computational chemistry database (PCCDB) project, http://pccdb.org

 28 30  0  0  0  0  0  0  0  0999 V2000
    1.6412    0.6883   -0.1022 C   0  0  0  0  0  0  0  0  0  0  0  0
    9.6375   -2.7550   -1.0533 C   0  0  0  0  0  0  0  0  0  0  0  0
    8.8229   -3.9018   -0.9972 C   0  0  0  0  0  0  0  0  0  0  0  0
    3.1438   -3.2524   -0.3638 C   0  0  0  0  0  0  0  0  0  0  0  0
    9.0603   -1.5052   -0.9533 C   0  0  0  0  0  0  0  0  0  0  0  0
    7.4540   -3.7805   -0.8438 C   0  0  0  0  0  0  0  0  0  0  0  0
    4.5000   -3.4516   -0.5150 C   0  0  0  0  0  0  0  0  0  0  0  0
    2.6013   -1.9568   -0.2682 C   0  0  0  0  0  0  0  0  0  0  0  0
    7.0709   -0.0548   -0.6912 C   0  0  0  0  0  0  0  0  0  0  0  0
    5.7275    0.1017   -0.5409 C   0  0  0  0  0  0  0  0  0  0  0  0
    7.6621   -1.3558   -0.7954 C   0  0  0  0  0  0  0  0  0  0  0  0
    6.8305   -2.5142   -0.7387 C   0  0  0  0  0  0  0  0  0  0  0  0
    5.3908   -2.3520   -0.5777 C   0  0  0  0  0  0  0  0  0  0  0  0
    4.8566   -1.0351   -0.4813 C   0  0  0  0  0  0  0  0  0  0  0  0
    3.4479   -0.8622   -0.3268 C   0  0  0  0  0  0  0  0  0  0  0  0
    3.0288    0.4357   -0.2460 O   0  0  0  0  0  0  0  0  0  0  0  0
    1.2467    0.2531    0.8255 H   0  0  0  0  0  0  0  0  0  0  0  0
    1.0704    0.2966   -0.9544 H   0  0  0  0  0  0  0  0  0  0  0  0
    1.5368    1.7742   -0.0646 H   0  0  0  0  0  0  0  0  0  0  0  0
   10.7127   -2.8550   -1.1745 H   0  0  0  0  0  0  0  0  0  0  0  0
    9.2704   -4.8891   -1.0750 H   0  0  0  0  0  0  0  0  0  0  0  0
    2.4748   -4.1075   -0.3164 H   0  0  0  0  0  0  0  0  0  0  0  0
    9.6766   -0.6100   -0.9942 H   0  0  0  0  0  0  0  0  0  0  0  0
    6.8548   -4.6837   -0.8042 H   0  0  0  0  0  0  0  0  0  0  0  0
    4.8759   -4.4655   -0.5864 H   0  0  0  0  0  0  0  0  0  0  0  0
    1.5315   -1.8331   -0.1490 H   0  0  0  0  0  0  0  0  0  0  0  0
    7.7238    0.8137   -0.7357 H   0  0  0  0  0  0  0  0  0  0  0  0
    5.2895    1.0898   -0.4635 H   0  0  0  0  0  0  0  0  0  0  0  0
  1 19  1  0  0  0  0
  1 17  1  0  0  0  0
  2  3  2  0  0  0  0
  2  5  1  0  0  0  0
  3  6  1  0  0  0  0
  4 22  1  0  0  0  0
  4  8  2  0  0  0  0
  5 11  2  0  0  0  0
  6 24  1  0  0  0  0
  6 12  2  0  0  0  0
  7  4  1  0  0  0  0
  8 26  1  0  0  0  0
  9 10  2  0  0  0  0
 10 14  1  0  0  0  0
 10 28  1  0  0  0  0
 11 12  1  0  0  0  0
 11  9  1  0  0  0  0
 12 13  1  0  0  0  0
 13  7  2  0  0  0  0
 13 14  1  0  0  0  0
 14 15  2  0  0  0  0
 15  8  1  0  0  0  0
 15 16  1  0  0  0  0
 16  1  1  0  0  0  0
 18  1  1  0  0  0  0
 20  2  1  0  0  0  0
 21  3  1  0  0  0  0
 23  5  1  0  0  0  0
 25  7  1  0  0  0  0
 27  9  1  0  0  0  0
M  END
>  <HBA>
1

>  <HBD>
0

>  <TPSA>
9.23

>  <cid>
43547

>  <dipole>
1.56

>  <excitation_energy_1>
3.846

>  <excitation_energy_2>
4.058

>  <excitation_energy_3>
4.611

>  <excitation_energy_4>
4.736

>  <homo_energy>
-5.388

>  <homo_lumo_gap>
4.517

>  <logP>
4.002

>  <lumo_energy>
-0.871

>  <melting_point>
99.1

>  <molecular_refractivity>
67.95

>  <oscillator_strength_1>
0.0519

>  <oscillator_strength_2>
0.1108

>  <oscillator_strength_3>
0.1094

>  <oscillator_strength_4>
0.1896

>  <open_babel_can_smiles>
COc1cccc2c1ccc1c2cccc1

>  <mulliken_charges>
28
1   -0.213939
2   -0.127895
3   -0.1397
4   -0.145692
5   -0.207606
6   -0.185498
7   -0.186988
8   -0.201748
9   -0.199549
10   -0.170414
11   0.152777
12   0.043029
13   0.06386
14   0.056491
15   0.316561
16   -0.51035
17   0.153713
18   0.153841
19   0.169944
20   0.128329
21   0.127639
22   0.128223
23   0.128158
24   0.132882
25   0.128914
26   0.129943
27   0.127066
28   0.148011

>  <lowdin_charges>
28
1   -0.27517
2   -0.155161
3   -0.158839
4   -0.148992
5   -0.158984
6   -0.157714
7   -0.17875
8   -0.218725
9   -0.162191
10   -0.153084
11   0.000435
12   -0.002885
13   0.004848
14   -0.025728
15   0.102
16   -0.19778
17   0.146539
18   0.147373
19   0.160924
20   0.156053
21   0.157133
22   0.158684
23   0.157242
24   0.158337
25   0.15655
26   0.160541
27   0.157746
28   0.169598

$$$$

