PCCDB-ID:  61166
public computational chemistry database (PCCDB) project, http://pccdb.org

 21 21  0  0  0  0  0  0  0  0999 V2000
    3.6258    2.7619    0.1287 C   0  0  0  0  0  0  0  0  0  0  0  0
    3.7682    1.2413    0.1305 C   0  0  0  0  0  0  0  0  0  0  0  0
    8.5754   -1.0179    2.9341 C   0  0  0  0  0  0  0  0  0  0  0  0
    7.2899   -0.4531    3.2133 C   0  0  0  0  0  0  0  0  0  0  0  0
    8.3384   -2.1749    2.2552 C   0  0  0  0  0  0  0  0  0  0  0  0
    4.8825   -1.2904    2.6152 C   0  0  0  0  0  0  0  0  0  0  0  0
    6.3655   -1.3084    2.6861 C   0  0  0  0  0  0  0  0  0  0  0  0
    4.2795    0.6987    1.4513 C   0  0  0  0  0  0  0  0  0  0  0  0
    4.5569    1.3656    2.4256 O   0  0  0  0  0  0  0  0  0  0  0  0
    7.0017   -2.3702    2.0927 O   0  0  0  0  0  0  0  0  0  0  0  0
    4.3828   -0.6514    1.4056 O   0  0  0  0  0  0  0  0  0  0  0  0
    3.2546    3.1093   -0.8409 H   0  0  0  0  0  0  0  0  0  0  0  0
    4.5870    3.2463    0.3246 H   0  0  0  0  0  0  0  0  0  0  0  0
    2.9283    3.0923    0.9042 H   0  0  0  0  0  0  0  0  0  0  0  0
    4.4560    0.9013   -0.6544 H   0  0  0  0  0  0  0  0  0  0  0  0
    2.8120    0.7477   -0.0856 H   0  0  0  0  0  0  0  0  0  0  0  0
    9.5422   -0.6162    3.2040 H   0  0  0  0  0  0  0  0  0  0  0  0
    7.0688    0.4720    3.7262 H   0  0  0  0  0  0  0  0  0  0  0  0
    8.9769   -2.9409    1.8416 H   0  0  0  0  0  0  0  0  0  0  0  0
    4.4705   -0.7682    3.4801 H   0  0  0  0  0  0  0  0  0  0  0  0
    4.4883   -2.3068    2.5649 H   0  0  0  0  0  0  0  0  0  0  0  0
  1  2  1  0  0  0  0
  1 13  1  0  0  0  0
  1 14  1  0  0  0  0
  2  8  1  0  0  0  0
  3 17  1  0  0  0  0
  3  4  1  0  0  0  0
  4 18  1  0  0  0  0
  5  3  2  0  0  0  0
  6  7  1  0  0  0  0
  6 20  1  0  0  0  0
  7  4  2  0  0  0  0
  8  9  2  0  0  0  0
 10  5  1  0  0  0  0
 10  7  1  0  0  0  0
 11  8  1  0  0  0  0
 11  6  1  0  0  0  0
 12  1  1  0  0  0  0
 15  2  1  0  0  0  0
 16  2  1  0  0  0  0
 19  5  1  0  0  0  0
 21  6  1  0  0  0  0
M  END
>  <HBA>
3

>  <HBD>
0

>  <TPSA>
39.44

>  <cid>
61166

>  <dipole>
1.03

>  <excitation_energy_1>
5.563

>  <excitation_energy_2>
5.743

>  <excitation_energy_3>
5.846

>  <excitation_energy_4>
5.974

>  <homo_energy>
-6.155

>  <homo_lumo_gap>
6.237

>  <logP>
1.733

>  <lumo_energy>
0.082

>  <melting_point>
16.83

>  <molecular_refractivity>
39.38

>  <oscillator_strength_1>
0.0262

>  <oscillator_strength_2>
0.2655

>  <oscillator_strength_3>
0.0253

>  <oscillator_strength_4>
0.001

>  <open_babel_can_smiles>
CCC(=O)OCc1ccco1

>  <mulliken_charges>
21
1   -0.435631
2   -0.353254
3   -0.183836
4   -0.188249
5   0.086404
6   -0.136812
7   0.318826
8   0.62663
9   -0.479899
10   -0.429959
11   -0.457345
12   0.143158
13   0.162547
14   0.161711
15   0.175871
16   0.172958
17   0.143204
18   0.162073
19   0.155762
20   0.184342
21   0.171501

>  <lowdin_charges>
21
1   -0.439807
2   -0.300869
3   -0.205393
4   -0.194664
5   -0.077121
6   -0.134543
7   0.041171
8   0.203986
9   -0.270562
10   -0.098718
11   -0.199921
12   0.151914
13   0.159431
14   0.160007
15   0.171482
16   0.169107
17   0.170004
18   0.179441
19   0.172604
20   0.173733
21   0.168719

$$$$

