PCCDB-ID:  8048
public computational chemistry database (PCCDB) project, http://pccdb.org

 38 37  0  0  0  0  0  0  0  0999 V2000
    0.3838   -0.0364    0.3611 C   0  0  0  0  0  0  0  0  0  0  0  0
   13.5376   -6.0041    1.1758 C   0  0  0  0  0  0  0  0  0  0  0  0
    1.8813    0.0789    0.6634 C   0  0  0  0  0  0  0  0  0  0  0  0
   12.6794   -6.2173    2.4141 C   0  0  0  0  0  0  0  0  0  0  0  0
    2.6000   -1.2760    0.6940 C   0  0  0  0  0  0  0  0  0  0  0  0
    4.0995   -1.1697    0.9995 C   0  0  0  0  0  0  0  0  0  0  0  0
    4.8166   -2.5254    1.0346 C   0  0  0  0  0  0  0  0  0  0  0  0
    6.3151   -2.4187    1.3451 C   0  0  0  0  0  0  0  0  0  0  0  0
    7.0301   -3.7752    1.3860 C   0  0  0  0  0  0  0  0  0  0  0  0
    8.5254   -3.6618    1.7077 C   0  0  0  0  0  0  0  0  0  0  0  0
    9.2260   -5.0214    1.7442 C   0  0  0  0  0  0  0  0  0  0  0  0
   10.7019   -4.9260    2.0818 C   0  0  0  0  0  0  0  0  0  0  0  0
   11.3053   -3.9002    2.3149 O   0  0  0  0  0  0  0  0  0  0  0  0
   11.2685   -6.1563    2.0974 O   0  0  0  0  0  0  0  0  0  0  0  0
   -0.0992    0.9475    0.3474 H   0  0  0  0  0  0  0  0  0  0  0  0
   -0.1268   -0.6475    1.1157 H   0  0  0  0  0  0  0  0  0  0  0  0
    0.2108   -0.5057   -0.6153 H   0  0  0  0  0  0  0  0  0  0  0  0
   14.5963   -6.1331    1.4294 H   0  0  0  0  0  0  0  0  0  0  0  0
   13.4001   -4.9931    0.7822 H   0  0  0  0  0  0  0  0  0  0  0  0
   13.2807   -6.7271    0.3946 H   0  0  0  0  0  0  0  0  0  0  0  0
    2.0213    0.5843    1.6297 H   0  0  0  0  0  0  0  0  0  0  0  0
    2.3582    0.7249   -0.0876 H   0  0  0  0  0  0  0  0  0  0  0  0
   12.9012   -5.4708    3.1808 H   0  0  0  0  0  0  0  0  0  0  0  0
   12.8203   -7.2179    2.8309 H   0  0  0  0  0  0  0  0  0  0  0  0
    2.4604   -1.7820   -0.2732 H   0  0  0  0  0  0  0  0  0  0  0  0
    2.1210   -1.9227    1.4446 H   0  0  0  0  0  0  0  0  0  0  0  0
    4.2370   -0.6617    1.9658 H   0  0  0  0  0  0  0  0  0  0  0  0
    4.5788   -0.5244    0.2482 H   0  0  0  0  0  0  0  0  0  0  0  0
    4.6807   -3.0338    0.0683 H   0  0  0  0  0  0  0  0  0  0  0  0
    4.3358   -3.1702    1.7855 H   0  0  0  0  0  0  0  0  0  0  0  0
    6.4503   -1.9095    2.3108 H   0  0  0  0  0  0  0  0  0  0  0  0
    6.7980   -1.7759    0.5944 H   0  0  0  0  0  0  0  0  0  0  0  0
    6.9005   -4.2843    0.4191 H   0  0  0  0  0  0  0  0  0  0  0  0
    6.5426   -4.4189    2.1337 H   0  0  0  0  0  0  0  0  0  0  0  0
    8.6627   -3.1598    2.6734 H   0  0  0  0  0  0  0  0  0  0  0  0
    9.0196   -3.0219    0.9659 H   0  0  0  0  0  0  0  0  0  0  0  0
    9.1351   -5.5398    0.7800 H   0  0  0  0  0  0  0  0  0  0  0  0
    8.7566   -5.6900    2.4786 H   0  0  0  0  0  0  0  0  0  0  0  0
  1  3  1  0  0  0  0
  1 16  1  0  0  0  0
  2 18  1  0  0  0  0
  2  4  1  0  0  0  0
  3  5  1  0  0  0  0
  3 21  1  0  0  0  0
  4 24  1  0  0  0  0
  4 23  1  0  0  0  0
  5  6  1  0  0  0  0
  5 26  1  0  0  0  0
  6  7  1  0  0  0  0
  6 27  1  0  0  0  0
  7  8  1  0  0  0  0
  7 30  1  0  0  0  0
  8  9  1  0  0  0  0
  8 31  1  0  0  0  0
  9 10  1  0  0  0  0
  9 34  1  0  0  0  0
 10 11  1  0  0  0  0
 10 35  1  0  0  0  0
 11 12  1  0  0  0  0
 11 38  1  0  0  0  0
 12 14  1  0  0  0  0
 12 13  2  0  0  0  0
 14  4  1  0  0  0  0
 15  1  1  0  0  0  0
 17  1  1  0  0  0  0
 19  2  1  0  0  0  0
 20  2  1  0  0  0  0
 22  3  1  0  0  0  0
 25  5  1  0  0  0  0
 28  6  1  0  0  0  0
 29  7  1  0  0  0  0
 32  8  1  0  0  0  0
 33  9  1  0  0  0  0
 36 10  1  0  0  0  0
 37 11  1  0  0  0  0
M  END
>  <HBA>
2

>  <HBD>
0

>  <TPSA>
26.3

>  <cid>
8048

>  <dipole>
1.51

>  <excitation_energy_1>
5.838

>  <excitation_energy_2>
7.005

>  <excitation_energy_3>
7.478

>  <excitation_energy_4>
7.581

>  <homo_energy>
-7.249

>  <homo_lumo_gap>
7.736

>  <logP>
3.69

>  <lumo_energy>
0.487

>  <melting_point>
-18.11

>  <molecular_refractivity>
61.08

>  <oscillator_strength_1>
0.0005

>  <oscillator_strength_2>
0.0178

>  <oscillator_strength_3>
0.0248

>  <oscillator_strength_4>
0.0586

>  <open_babel_can_smiles>
CCCCCCCCCC(=O)OCC

>  <mulliken_charges>
38
1   -0.441234
2   -0.461501
3   -0.246518
4   -0.042954
5   -0.245404
6   -0.252317
7   -0.25291
8   -0.253228
9   -0.256867
10   -0.248022
11   -0.362859
12   0.624626
13   -0.481619
14   -0.465368
15   0.141175
16   0.140772
17   0.140759
18   0.149333
19   0.175759
20   0.155844
21   0.129837
22   0.12986
23   0.168877
24   0.150765
25   0.125737
26   0.12574
27   0.127111
28   0.127096
29   0.126296
30   0.126302
31   0.129663
32   0.129488
33   0.126434
34   0.126625
35   0.148362
36   0.146835
37   0.16848
38   0.169025

>  <lowdin_charges>
38
1   -0.445218
2   -0.454071
3   -0.273001
4   -0.12715
5   -0.275534
6   -0.275266
7   -0.275042
8   -0.274722
9   -0.2757
10   -0.271581
11   -0.302508
12   0.199522
13   -0.270238
14   -0.201806
15   0.148605
16   0.147161
17   0.145594
18   0.156896
19   0.164412
20   0.156098
21   0.138376
22   0.139861
23   0.158582
24   0.150633
25   0.13663
26   0.138094
27   0.13743
28   0.138886
29   0.136925
30   0.138376
31   0.138847
32   0.140232
33   0.136803
34   0.138382
35   0.15005
36   0.150834
37   0.166492
38   0.168117

$$$$

