PCCDB-ID:  55486
public computational chemistry database (PCCDB) project, http://pccdb.org

 30 32  0  0  0  0  0  0  0  0999 V2000
    0.9145    0.2787   -0.0908 C   0  0  0  0  0  0  0  0  0  0  0  0
    2.5134   -5.2383    0.2333 C   0  0  0  0  0  0  0  0  0  0  0  0
    1.4888   -4.4214   -0.5567 C   0  0  0  0  0  0  0  0  0  0  0  0
    3.9296   -4.7666   -0.1110 C   0  0  0  0  0  0  0  0  0  0  0  0
    1.5659   -2.9386   -0.1691 C   0  0  0  0  0  0  0  0  0  0  0  0
    5.4068   -2.7337    0.0031 C   0  0  0  0  0  0  0  0  0  0  0  0
    5.6775   -1.3750    0.0316 C   0  0  0  0  0  0  0  0  0  0  0  0
    2.4106    0.1912   -0.0607 C   0  0  0  0  0  0  0  0  0  0  0  0
    4.0912   -3.2546   -0.0636 C   0  0  0  0  0  0  0  0  0  0  0  0
    2.9842   -2.3981   -0.1035 C   0  0  0  0  0  0  0  0  0  0  0  0
    4.5667   -0.5408    0.0001 C   0  0  0  0  0  0  0  0  0  0  0  0
    3.2386   -1.0005   -0.0610 C   0  0  0  0  0  0  0  0  0  0  0  0
    3.3126    1.2255   -0.0130 C   0  0  0  0  0  0  0  0  0  0  0  0
    3.1324    2.6459    0.0161 N   0  0  0  0  0  0  0  0  0  0  0  0
    1.9741    3.0733   -0.0809 O   0  0  0  0  0  0  0  0  0  0  0  0
    4.1370    3.3463    0.1318 O   0  0  0  0  0  0  0  0  0  0  0  0
    4.6139    0.8209    0.0279 O   0  0  0  0  0  0  0  0  0  0  0  0
    0.4717   -0.4266    0.6184 H   0  0  0  0  0  0  0  0  0  0  0  0
    0.5299    0.0252   -1.0870 H   0  0  0  0  0  0  0  0  0  0  0  0
    0.5833    1.2876    0.1484 H   0  0  0  0  0  0  0  0  0  0  0  0
    2.4133   -6.3082    0.0158 H   0  0  0  0  0  0  0  0  0  0  0  0
    2.3298   -5.1134    1.3097 H   0  0  0  0  0  0  0  0  0  0  0  0
    0.4712   -4.7907   -0.3837 H   0  0  0  0  0  0  0  0  0  0  0  0
    1.6882   -4.5332   -1.6316 H   0  0  0  0  0  0  0  0  0  0  0  0
    4.1875   -5.1204   -1.1211 H   0  0  0  0  0  0  0  0  0  0  0  0
    4.6614   -5.2301    0.5627 H   0  0  0  0  0  0  0  0  0  0  0  0
    1.0885   -2.8019    0.8134 H   0  0  0  0  0  0  0  0  0  0  0  0
    0.9737   -2.3433   -0.8725 H   0  0  0  0  0  0  0  0  0  0  0  0
    6.2363   -3.4363    0.0320 H   0  0  0  0  0  0  0  0  0  0  0  0
    6.6853   -0.9781    0.0816 H   0  0  0  0  0  0  0  0  0  0  0  0
  1  8  1  0  0  0  0
  1 20  1  0  0  0  0
  1 18  1  0  0  0  0
  2 22  1  0  0  0  0
  3 23  1  0  0  0  0
  3  5  1  0  0  0  0
  3  2  1  0  0  0  0
  4  9  1  0  0  0  0
  4  2  1  0  0  0  0
  4 26  1  0  0  0  0
  5 10  1  0  0  0  0
  5 27  1  0  0  0  0
  6  7  2  0  0  0  0
  6 29  1  0  0  0  0
  7 30  1  0  0  0  0
  8 13  2  0  0  0  0
  9  6  1  0  0  0  0
 10  9  2  0  0  0  0
 10 12  1  0  0  0  0
 11 17  1  0  0  0  0
 11  7  1  0  0  0  0
 12  8  1  0  0  0  0
 12 11  2  0  0  0  0
 13 14  1  0  0  0  0
 13 17  1  0  0  0  0
 14 16  2  0  0  0  0
 15 14  2  0  0  0  0
 19  1  1  0  0  0  0
 21  2  1  0  0  0  0
 24  3  1  0  0  0  0
 25  4  1  0  0  0  0
 28  5  1  0  0  0  0
M  END
>  <HBA>
1

>  <HBD>
0

>  <TPSA>
58.96

>  <cid>
55486

>  <dipole>
6.38

>  <excitation_energy_1>
3.384

>  <excitation_energy_2>
3.685

>  <excitation_energy_3>
3.841

>  <excitation_energy_4>
4.234

>  <homo_energy>
-6.43

>  <homo_lumo_gap>
4.008

>  <logP>
4.051

>  <lumo_energy>
-2.422

>  <melting_point>
122.45

>  <molecular_refractivity>
67.43

>  <oscillator_strength_1>
0.048

>  <oscillator_strength_2>
0.0294

>  <oscillator_strength_3>
0.3663

>  <oscillator_strength_4>
0.0008

>  <open_babel_can_smiles>
O=N(=O)c1oc2c(c1C)c1CCCCc1cc2

>  <mulliken_charges>
30
1   -0.542488
2   -0.266932
3   -0.268546
4   -0.344962
5   -0.347744
6   -0.194328
7   -0.186764
8   0.142475
9   0.108881
10   0.06397
11   0.334084
12   -0.000318
13   0.447469
14   0.322472
15   -0.413141
16   -0.386305
17   -0.492067
18   0.16905
19   0.175919
20   0.210416
21   0.138949
22   0.140243
23   0.139467
24   0.14157
25   0.154576
26   0.149046
27   0.156675
28   0.15589
29   0.134527
30   0.157916

>  <lowdin_charges>
30
1   -0.446847
2   -0.272245
3   -0.27261
4   -0.276558
5   -0.278951
6   -0.146987
7   -0.17436
8   0.001976
9   -0.021662
10   -0.006759
11   0.099403
12   -0.045516
13   0.064921
14   0.303508
15   -0.262719
16   -0.237048
17   -0.088894
18   0.167544
19   0.170084
20   0.186362
21   0.146922
22   0.141437
23   0.14809
24   0.14213
25   0.152207
26   0.155
27   0.153569
28   0.15924
29   0.162669
30   0.176094

$$$$

