PCCDB-ID:  12231
public computational chemistry database (PCCDB) project, http://pccdb.org

  7  6  0  0  0  0  0  0  0  0999 V2000
    1.0545   -0.0130    0.0183 C   0  0  0  0  0  0  0  0  0  0  0  0
    3.0189    0.4846    1.1782 N   0  0  0  0  0  0  0  0  0  0  0  0
    4.1963    0.5696    1.1176 O   0  0  0  0  0  0  0  0  0  0  0  0
    2.4837    0.0825   -0.0742 O   0  0  0  0  0  0  0  0  0  0  0  0
    0.7223   -0.3317   -0.9707 H   0  0  0  0  0  0  0  0  0  0  0  0
    0.6116    0.9574    0.2630 H   0  0  0  0  0  0  0  0  0  0  0  0
    0.7585   -0.7557    0.7657 H   0  0  0  0  0  0  0  0  0  0  0  0
  1  6  1  0  0  0  0
  1  7  1  0  0  0  0
  3  2  1  0  0  0  0
  4  1  1  0  0  0  0
  4  2  1  0  0  0  0
  5  1  1  0  0  0  0
M  RAD  2   2   2   3   2
M  END
>  <HBA>
1

>  <HBD>
0

>  <TPSA>
38.66

>  <cid>
12231

>  <dipole>
2.56

>  <excitation_energy_1>
3.312

>  <excitation_energy_2>
5.565

>  <excitation_energy_3>
6.517

>  <excitation_energy_4>
7.27

>  <homo_energy>
-7.369

>  <homo_lumo_gap>
5.219

>  <logP>
0.314

>  <lumo_energy>
-2.15

>  <melting_point>
-10.79

>  <molecular_refractivity>
12.74

>  <oscillator_strength_1>
0.0014

>  <oscillator_strength_2>
0.0627

>  <oscillator_strength_3>
0.0003

>  <oscillator_strength_4>
0.0036

>  <open_babel_can_smiles>
CO[N][O]

>  <mulliken_charges>
7
1   -0.216973
2   0.280253
3   -0.233812
4   -0.345452
5   0.180161
6   0.167868
7   0.167954

>  <lowdin_charges>
7
1   -0.294514
2   0.132599
3   -0.120904
4   -0.198513
5   0.169132
6   0.155587
7   0.156612

$$$$

