PCCDB-ID:  15205
public computational chemistry database (PCCDB) project, http://pccdb.org

 27 26  0  0  0  0  0  0  0  0999 V2000
    1.2013   -0.6830    1.3333 C   0  0  0  0  0  0  0  0  0  0  0  0
    0.9872   -1.8930   -2.1363 C   0  0  0  0  0  0  0  0  0  0  0  0
    1.7842    0.3810    0.3968 C   0  0  0  0  0  0  0  0  0  0  0  0
    1.3444   -0.4144   -1.9618 C   0  0  0  0  0  0  0  0  0  0  0  0
    4.6345   -0.1279   -0.0051 C   0  0  0  0  0  0  0  0  0  0  0  0
    6.0333   -0.7081   -0.2960 C   0  0  0  0  0  0  0  0  0  0  0  0
    3.6144   -0.3979   -1.1137 C   0  0  0  0  0  0  0  0  0  0  0  0
    6.8904    0.1161   -1.2652 C   0  0  0  0  0  0  0  0  0  0  0  0
    2.3008   -0.1488   -0.8705 N   0  0  0  0  0  0  0  0  0  0  0  0
    3.9757   -0.8425   -2.2169 O   0  0  0  0  0  0  0  0  0  0  0  0
    7.9203    0.6515   -0.9220 O   0  0  0  0  0  0  0  0  0  0  0  0
    6.4330    0.2059   -2.5237 O   0  0  0  0  0  0  0  0  0  0  0  0
    0.8514   -0.2145    2.2601 H   0  0  0  0  0  0  0  0  0  0  0  0
    1.9531   -1.4362    1.5931 H   0  0  0  0  0  0  0  0  0  0  0  0
    0.3513   -1.1978    0.8747 H   0  0  0  0  0  0  0  0  0  0  0  0
    0.2800   -2.0061   -2.9659 H   0  0  0  0  0  0  0  0  0  0  0  0
    0.5232   -2.3090   -1.2361 H   0  0  0  0  0  0  0  0  0  0  0  0
    1.8828   -2.4736   -2.3711 H   0  0  0  0  0  0  0  0  0  0  0  0
    2.5806    0.9297    0.9029 H   0  0  0  0  0  0  0  0  0  0  0  0
    1.0144    1.1213    0.1504 H   0  0  0  0  0  0  0  0  0  0  0  0
    0.4475    0.1766   -1.7507 H   0  0  0  0  0  0  0  0  0  0  0  0
    1.7877   -0.0361   -2.8868 H   0  0  0  0  0  0  0  0  0  0  0  0
    4.7047    0.9544    0.1701 H   0  0  0  0  0  0  0  0  0  0  0  0
    4.2674   -0.5614    0.9322 H   0  0  0  0  0  0  0  0  0  0  0  0
    5.9276   -1.7278   -0.6852 H   0  0  0  0  0  0  0  0  0  0  0  0
    6.5964   -0.7570    0.6380 H   0  0  0  0  0  0  0  0  0  0  0  0
    5.5674   -0.2716   -2.5900 H   0  0  0  0  0  0  0  0  0  0  0  0
  1 14  1  0  0  0  0
  1 13  1  0  0  0  0
  2  4  1  0  0  0  0
  2 17  1  0  0  0  0
  3 19  1  0  0  0  0
  3  1  1  0  0  0  0
  4 21  1  0  0  0  0
  4  9  1  0  0  0  0
  5 23  1  0  0  0  0
  5 24  1  0  0  0  0
  6  5  1  0  0  0  0
  6 26  1  0  0  0  0
  7  9  1  0  0  0  0
  7  5  1  0  0  0  0
  8 11  2  0  0  0  0
  8  6  1  0  0  0  0
  9  3  1  0  0  0  0
 10  7  2  0  0  0  0
 12  8  1  0  0  0  0
 15  1  1  0  0  0  0
 16  2  1  0  0  0  0
 18  2  1  0  0  0  0
 20  3  1  0  0  0  0
 22  4  1  0  0  0  0
 25  6  1  0  0  0  0
 27 12  1  0  0  0  0
M  END
>  <HBA>
4

>  <HBD>
1

>  <TPSA>
57.61

>  <cid>
15205

>  <dipole>
8.28

>  <excitation_energy_1>
5.532

>  <excitation_energy_2>
5.723

>  <excitation_energy_3>
5.933

>  <excitation_energy_4>
6.112

>  <homo_energy>
-6.634

>  <homo_lumo_gap>
6.566

>  <logP>
0.72

>  <lumo_energy>
-0.068

>  <melting_point>
73.29

>  <molecular_refractivity>
45.44

>  <oscillator_strength_1>
0.0009

>  <oscillator_strength_2>
0.0045

>  <oscillator_strength_3>
0.0112

>  <oscillator_strength_4>
0.0415

>  <open_babel_can_smiles>
CCN(C(=O)CCC(=O)O)CC

>  <mulliken_charges>
27
1   -0.445234
2   -0.45101
3   -0.157759
4   -0.138703
5   -0.39459
6   -0.370315
7   0.620231
8   0.573499
9   -0.405383
10   -0.560093
11   -0.45743
12   -0.590641
13   0.157788
14   0.158854
15   0.163451
16   0.152433
17   0.146646
18   0.183361
19   0.168232
20   0.161865
21   0.143179
22   0.182894
23   0.191605
24   0.173934
25   0.175574
26   0.172059
27   0.445553

>  <lowdin_charges>
27
1   -0.455271
2   -0.453741
3   -0.197968
4   -0.192668
5   -0.30513
6   -0.312387
7   0.16911
8   0.18228
9   -0.085831
10   -0.340432
11   -0.263894
12   -0.370648
13   0.16047
14   0.156114
15   0.158298
16   0.158477
17   0.1488
18   0.168663
19   0.161208
20   0.155622
21   0.148767
22   0.168976
23   0.171918
24   0.167555
25   0.168454
26   0.172389
27   0.360867

$$$$

