PCCDB-ID:  56133
public computational chemistry database (PCCDB) project, http://pccdb.org

 31 31  0  0  0  0  0  0  0  0999 V2000
    4.0323    1.7612   -0.0052 C   0  0  0  0  0  0  0  0  0  0  0  0
    3.4466    1.1935    1.3210 C   0  0  0  0  0  0  0  0  0  0  0  0
   -0.2065    4.0264   -1.4494 C   0  0  0  0  0  0  0  0  0  0  0  0
   -0.6164    2.6334   -1.9546 C   0  0  0  0  0  0  0  0  0  0  0  0
    3.4708    0.8570   -1.1241 C   0  0  0  0  0  0  0  0  0  0  0  0
    2.4712    0.0656    0.8972 C   0  0  0  0  0  0  0  0  0  0  0  0
    0.8649    4.7267   -2.2923 C   0  0  0  0  0  0  0  0  0  0  0  0
    0.5084    1.5926   -1.9691 C   0  0  0  0  0  0  0  0  0  0  0  0
    2.1210    0.3563   -0.5738 C   0  0  0  0  0  0  0  0  0  0  0  0
    0.4432    4.8524   -3.6944 N   0  0  0  0  0  0  0  0  0  0  0  0
    1.1019    1.4110   -0.6433 N   0  0  0  0  0  0  0  0  0  0  0  0
    5.1276    1.7782   -0.0053 H   0  0  0  0  0  0  0  0  0  0  0  0
    3.6919    2.7900   -0.1543 H   0  0  0  0  0  0  0  0  0  0  0  0
    2.9185    1.9768    1.8733 H   0  0  0  0  0  0  0  0  0  0  0  0
    4.2288    0.8087    1.9846 H   0  0  0  0  0  0  0  0  0  0  0  0
    0.1659    3.9513   -0.4214 H   0  0  0  0  0  0  0  0  0  0  0  0
   -1.1026    4.6644   -1.4145 H   0  0  0  0  0  0  0  0  0  0  0  0
   -1.0110    2.7185   -2.9728 H   0  0  0  0  0  0  0  0  0  0  0  0
   -1.4390    2.2599   -1.3257 H   0  0  0  0  0  0  0  0  0  0  0  0
    4.1249   -0.0105   -1.2853 H   0  0  0  0  0  0  0  0  0  0  0  0
    3.3795    1.3732   -2.0853 H   0  0  0  0  0  0  0  0  0  0  0  0
    1.5814    0.0041    1.5362 H   0  0  0  0  0  0  0  0  0  0  0  0
    2.9688   -0.9105    0.9520 H   0  0  0  0  0  0  0  0  0  0  0  0
    1.7878    4.1350   -2.2755 H   0  0  0  0  0  0  0  0  0  0  0  0
    1.1085    5.6926   -1.8127 H   0  0  0  0  0  0  0  0  0  0  0  0
    1.2941    1.9161   -2.6614 H   0  0  0  0  0  0  0  0  0  0  0  0
    0.1117    0.6432   -2.3809 H   0  0  0  0  0  0  0  0  0  0  0  0
    1.7906   -0.5607   -1.0986 H   0  0  0  0  0  0  0  0  0  0  0  0
   -0.3544    5.4856   -3.7532 H   0  0  0  0  0  0  0  0  0  0  0  0
    1.1853    5.2860   -4.2414 H   0  0  0  0  0  0  0  0  0  0  0  0
    0.3537    1.1765    0.0093 H   0  0  0  0  0  0  0  0  0  0  0  0
  1  2  1  0  0  0  0
  2 14  1  0  0  0  0
  2 15  1  0  0  0  0
  3 17  1  0  0  0  0
  3 16  1  0  0  0  0
  4  3  1  0  0  0  0
  4 19  1  0  0  0  0
  5  9  1  0  0  0  0
  5  1  1  0  0  0  0
  6 23  1  0  0  0  0
  6  2  1  0  0  0  0
  6 22  1  0  0  0  0
  7 24  1  0  0  0  0
  7 25  1  0  0  0  0
  7  3  1  0  0  0  0
  8  4  1  0  0  0  0
  8 11  1  0  0  0  0
  9  6  1  0  0  0  0
 10  7  1  0  0  0  0
 11  9  1  0  0  0  0
 11 31  1  0  0  0  0
 12  1  1  0  0  0  0
 13  1  1  0  0  0  0
 18  4  1  0  0  0  0
 20  5  1  0  0  0  0
 21  5  1  0  0  0  0
 26  8  1  0  0  0  0
 27  8  1  0  0  0  0
 28  9  1  0  0  0  0
 29 10  1  0  0  0  0
 30 10  1  0  0  0  0
M  END
>  <HBA>
2

>  <HBD>
2

>  <TPSA>
38.05

>  <cid>
56133

>  <dipole>
0.72

>  <excitation_energy_1>
5.288

>  <excitation_energy_2>
5.529

>  <excitation_energy_3>
5.649

>  <excitation_energy_4>
5.73

>  <homo_energy>
-5.774

>  <homo_lumo_gap>
7.706

>  <logP>
2.349

>  <lumo_energy>
1.932

>  <melting_point>
75.45

>  <molecular_refractivity>
48.77

>  <oscillator_strength_1>
0.0078

>  <oscillator_strength_2>
0.0042

>  <oscillator_strength_3>
0.0067

>  <oscillator_strength_4>
0.0288

>  <open_babel_can_smiles>
NCCCCNC1CCCC1

>  <mulliken_charges>
31
1   -0.259977
2   -0.259302
3   -0.24823
4   -0.265769
5   -0.264576
6   -0.286146
7   -0.143127
8   -0.123566
9   0.042357
10   -0.715143
11   -0.56036
12   0.12739
13   0.146949
14   0.140841
15   0.129887
16   0.144549
17   0.116368
18   0.153919
19   0.115583
20   0.126973
21   0.135523
22   0.125095
23   0.134443
24   0.1488
25   0.110187
26   0.151054
27   0.105987
28   0.099426
29   0.289805
30   0.294849
31   0.286213

>  <lowdin_charges>
31
1   -0.280128
2   -0.285922
3   -0.28171
4   -0.282182
5   -0.286315
6   -0.286101
7   -0.206958
8   -0.205506
9   -0.067567
10   -0.564227
11   -0.367183
12   0.139104
13   0.147187
14   0.148084
15   0.142752
16   0.149517
17   0.134766
18   0.155352
19   0.134496
20   0.140476
21   0.145084
22   0.140318
23   0.143632
24   0.14371
25   0.118109
26   0.14512
27   0.116474
28   0.114877
29   0.25049
30   0.25542
31   0.24883

$$$$

