PCCDB-ID:  13705
public computational chemistry database (PCCDB) project, http://pccdb.org

 27 28  0  0  0  0  0  0  0  0999 V2000
   -0.1906   -0.0892    0.3539 C   0  0  0  0  0  0  0  0  0  0  0  0
   10.1918    1.4328   -1.1941 C   0  0  0  0  0  0  0  0  0  0  0  0
    9.6375    0.3512   -0.4971 C   0  0  0  0  0  0  0  0  0  0  0  0
    9.3594    2.4115   -1.7398 C   0  0  0  0  0  0  0  0  0  0  0  0
    8.2603    0.2436   -0.3437 C   0  0  0  0  0  0  0  0  0  0  0  0
    7.9773    2.3093   -1.5896 C   0  0  0  0  0  0  0  0  0  0  0  0
    2.1639   -0.9277    0.7756 C   0  0  0  0  0  0  0  0  0  0  0  0
    1.8819    1.1039   -0.4883 C   0  0  0  0  0  0  0  0  0  0  0  0
    3.5446   -0.8278    0.6232 C   0  0  0  0  0  0  0  0  0  0  0  0
    3.2563    1.2153   -0.6452 C   0  0  0  0  0  0  0  0  0  0  0  0
    1.3083    0.0322    0.2204 C   0  0  0  0  0  0  0  0  0  0  0  0
    7.4207    1.2284   -0.8930 C   0  0  0  0  0  0  0  0  0  0  0  0
    4.1034    0.2425   -0.0862 C   0  0  0  0  0  0  0  0  0  0  0  0
    6.0050    1.2273   -0.8026 N   0  0  0  0  0  0  0  0  0  0  0  0
    5.5164    0.2470   -0.1768 N   0  0  0  0  0  0  0  0  0  0  0  0
   -0.4691   -0.6844    1.2295 H   0  0  0  0  0  0  0  0  0  0  0  0
   -0.6275   -0.5798   -0.5266 H   0  0  0  0  0  0  0  0  0  0  0  0
   -0.6665    0.8934    0.4441 H   0  0  0  0  0  0  0  0  0  0  0  0
   11.2698    1.5086   -1.3094 H   0  0  0  0  0  0  0  0  0  0  0  0
   10.2883   -0.4089   -0.0727 H   0  0  0  0  0  0  0  0  0  0  0  0
    9.7857    3.2515   -2.2812 H   0  0  0  0  0  0  0  0  0  0  0  0
    7.8122   -0.5859    0.1917 H   0  0  0  0  0  0  0  0  0  0  0  0
    7.3048    3.0552   -2.0025 H   0  0  0  0  0  0  0  0  0  0  0  0
    1.7436   -1.7617    1.3328 H   0  0  0  0  0  0  0  0  0  0  0  0
    1.2316    1.8617   -0.9204 H   0  0  0  0  0  0  0  0  0  0  0  0
    4.2143   -1.5676    1.0516 H   0  0  0  0  0  0  0  0  0  0  0  0
    3.6967    2.0430   -1.1900 H   0  0  0  0  0  0  0  0  0  0  0  0
  1 18  1  0  0  0  0
  1 16  1  0  0  0  0
  2  3  2  0  0  0  0
  3  5  1  0  0  0  0
  3 20  1  0  0  0  0
  4  6  2  0  0  0  0
  4  2  1  0  0  0  0
  5 22  1  0  0  0  0
  6 12  1  0  0  0  0
  7 24  1  0  0  0  0
  8 11  1  0  0  0  0
  9  7  1  0  0  0  0
  9 26  1  0  0  0  0
 10  8  2  0  0  0  0
 10 13  1  0  0  0  0
 11  1  1  0  0  0  0
 11  7  2  0  0  0  0
 12 14  1  0  0  0  0
 12  5  2  0  0  0  0
 13  9  2  0  0  0  0
 14 15  1  0  0  0  0
 15 13  1  0  0  0  0
 17  1  1  0  0  0  0
 19  2  1  0  0  0  0
 21  4  1  0  0  0  0
 23  6  1  0  0  0  0
 25  8  1  0  0  0  0
 27 10  1  0  0  0  0
M  RAD  2  14   2  15   2
M  END
>  <HBA>
2

>  <HBD>
0

>  <TPSA>
24.72

>  <cid>
13705

>  <dipole>
0.66

>  <excitation_energy_1>
2.616

>  <excitation_energy_2>
3.577

>  <excitation_energy_3>
4.046

>  <excitation_energy_4>
4.057

>  <homo_energy>
-6.006

>  <homo_lumo_gap>
3.913

>  <logP>
4.41

>  <lumo_energy>
-2.093

>  <melting_point>
65.65

>  <molecular_refractivity>
62.03

>  <oscillator_strength_1>
0.0

>  <oscillator_strength_2>
0.8344

>  <oscillator_strength_3>
0.031

>  <oscillator_strength_4>
0.0136

>  <open_babel_can_smiles>
Cc1ccc(cc1)[N][N]c1ccccc1

>  <mulliken_charges>
27
1   -0.53147
2   -0.118234
3   -0.146236
4   -0.138728
5   -0.123279
6   -0.140503
7   -0.190298
8   -0.195034
9   -0.137398
10   -0.120831
11   0.18716
12   0.2688
13   0.266513
14   -0.309523
15   -0.308826
16   0.159362
17   0.169943
18   0.16111
19   0.133526
20   0.135053
21   0.134402
22   0.154603
23   0.140418
24   0.127098
25   0.127897
26   0.140149
27   0.154326

>  <lowdin_charges>
27
1   -0.443333
2   -0.145353
3   -0.154672
4   -0.15752
5   -0.15167
6   -0.14861
7   -0.169325
8   -0.164548
9   -0.145264
10   -0.148284
11   0.012827
12   0.012217
13   0.00609
14   -0.085718
15   -0.081626
16   0.160003
17   0.165473
18   0.160243
19   0.157754
20   0.160829
21   0.160972
22   0.173846
23   0.167964
24   0.157892
25   0.157876
26   0.168035
27   0.173902

$$$$

