PCCDB-ID:  60211
public computational chemistry database (PCCDB) project, http://pccdb.org

 36 36  0  0  0  0  0  0  0  0999 V2000
    0.3721    0.9879    1.0418 C   0  0  0  0  0  0  0  0  0  0  0  0
    1.7045    1.0389    1.7959 C   0  0  0  0  0  0  0  0  0  0  0  0
    2.5716   -0.2080    1.5785 C   0  0  0  0  0  0  0  0  0  0  0  0
    3.9095   -0.1646    2.3272 C   0  0  0  0  0  0  0  0  0  0  0  0
    8.8955   -6.3259    2.7246 C   0  0  0  0  0  0  0  0  0  0  0  0
   10.2780   -6.3648    2.8953 C   0  0  0  0  0  0  0  0  0  0  0  0
    4.7639   -1.4209    2.1164 C   0  0  0  0  0  0  0  0  0  0  0  0
    8.2178   -5.1108    2.8549 C   0  0  0  0  0  0  0  0  0  0  0  0
   10.9745   -5.1939    3.1979 C   0  0  0  0  0  0  0  0  0  0  0  0
    6.1084   -1.3710    2.8444 C   0  0  0  0  0  0  0  0  0  0  0  0
    8.1690   -2.5994    3.2974 C   0  0  0  0  0  0  0  0  0  0  0  0
    8.8929   -3.9235    3.1491 C   0  0  0  0  0  0  0  0  0  0  0  0
   10.2867   -3.9850    3.3265 C   0  0  0  0  0  0  0  0  0  0  0  0
    6.8511   -2.6169    2.6659 N   0  0  0  0  0  0  0  0  0  0  0  0
   10.9313   -2.8118    3.6350 O   0  0  0  0  0  0  0  0  0  0  0  0
   -0.2232    1.8911    1.2184 H   0  0  0  0  0  0  0  0  0  0  0  0
   -0.2292    0.1260    1.3565 H   0  0  0  0  0  0  0  0  0  0  0  0
    0.5315    0.9007   -0.0402 H   0  0  0  0  0  0  0  0  0  0  0  0
    1.5121    1.1624    2.8712 H   0  0  0  0  0  0  0  0  0  0  0  0
    2.2677    1.9303    1.4844 H   0  0  0  0  0  0  0  0  0  0  0  0
    2.7616   -0.3331    0.5019 H   0  0  0  0  0  0  0  0  0  0  0  0
    2.0085   -1.0997    1.8920 H   0  0  0  0  0  0  0  0  0  0  0  0
    3.7188   -0.0315    3.4024 H   0  0  0  0  0  0  0  0  0  0  0  0
    4.4755    0.7227    2.0066 H   0  0  0  0  0  0  0  0  0  0  0  0
    8.3448   -7.2336    2.4947 H   0  0  0  0  0  0  0  0  0  0  0  0
   10.8209   -7.3011    2.7975 H   0  0  0  0  0  0  0  0  0  0  0  0
    4.9420   -1.5601    1.0387 H   0  0  0  0  0  0  0  0  0  0  0  0
    4.2172   -2.3102    2.4561 H   0  0  0  0  0  0  0  0  0  0  0  0
    7.1405   -5.0634    2.7314 H   0  0  0  0  0  0  0  0  0  0  0  0
   12.0546   -5.2161    3.3370 H   0  0  0  0  0  0  0  0  0  0  0  0
    5.9374   -1.2360    3.9217 H   0  0  0  0  0  0  0  0  0  0  0  0
    6.6796   -0.4816    2.5100 H   0  0  0  0  0  0  0  0  0  0  0  0
    8.8176   -1.7881    2.9219 H   0  0  0  0  0  0  0  0  0  0  0  0
    8.0201   -2.3827    4.3659 H   0  0  0  0  0  0  0  0  0  0  0  0
    6.9713   -2.7902    1.6677 H   0  0  0  0  0  0  0  0  0  0  0  0
   11.8814   -2.9902    3.7102 H   0  0  0  0  0  0  0  0  0  0  0  0
  1 16  1  0  0  0  0
  1 17  1  0  0  0  0
  1  2  1  0  0  0  0
  2 19  1  0  0  0  0
  3  2  1  0  0  0  0
  3 22  1  0  0  0  0
  3  4  1  0  0  0  0
  4 23  1  0  0  0  0
  5  8  2  0  0  0  0
  5  6  1  0  0  0  0
  6  9  2  0  0  0  0
  7  4  1  0  0  0  0
  7 28  1  0  0  0  0
  7 10  1  0  0  0  0
  8 12  1  0  0  0  0
  9 13  1  0  0  0  0
  9 30  1  0  0  0  0
 10 31  1  0  0  0  0
 11 34  1  0  0  0  0
 12 11  1  0  0  0  0
 12 13  2  0  0  0  0
 13 15  1  0  0  0  0
 14 10  1  0  0  0  0
 14 11  1  0  0  0  0
 15 36  1  0  0  0  0
 18  1  1  0  0  0  0
 20  2  1  0  0  0  0
 21  3  1  0  0  0  0
 24  4  1  0  0  0  0
 25  5  1  0  0  0  0
 26  6  1  0  0  0  0
 27  7  1  0  0  0  0
 29  8  1  0  0  0  0
 32 10  1  0  0  0  0
 33 11  1  0  0  0  0
 35 14  1  0  0  0  0
M  END
>  <HBA>
2

>  <HBD>
2

>  <TPSA>
32.26

>  <cid>
60211

>  <dipole>
1.43

>  <excitation_energy_1>
4.994

>  <excitation_energy_2>
5.09

>  <excitation_energy_3>
5.122

>  <excitation_energy_4>
5.426

>  <homo_energy>
-5.758

>  <homo_lumo_gap>
5.943

>  <logP>
3.453

>  <lumo_energy>
0.185

>  <melting_point>
71.32

>  <molecular_refractivity>
65.07

>  <oscillator_strength_1>
0.0404

>  <oscillator_strength_2>
0.0003

>  <oscillator_strength_3>
0.0082

>  <oscillator_strength_4>
0.0057

>  <open_babel_can_smiles>
CCCCCCNCc1ccccc1O

>  <mulliken_charges>
36
1   -0.441302
2   -0.247098
3   -0.244924
4   -0.255959
5   -0.135475
6   -0.134635
7   -0.267251
8   -0.188779
9   -0.192071
10   -0.100692
11   -0.163116
12   0.084936
13   0.295148
14   -0.573723
15   -0.648606
16   0.14134
17   0.141493
18   0.140901
19   0.13034
20   0.129658
21   0.126178
22   0.128243
23   0.129468
24   0.128037
25   0.123053
26   0.126088
27   0.122913
28   0.14478
29   0.148082
30   0.112877
31   0.136986
32   0.107674
33   0.139649
34   0.156994
35   0.292153
36   0.40664

>  <lowdin_charges>
36
1   -0.443489
2   -0.270948
3   -0.27253
4   -0.272682
5   -0.179803
6   -0.152144
7   -0.277201
8   -0.154143
9   -0.21302
10   -0.198183
11   -0.197064
12   -0.041503
13   0.092589
14   -0.357901
15   -0.383135
16   0.149356
17   0.146941
18   0.144154
19   0.137051
20   0.13894
21   0.135276
22   0.138651
23   0.137009
24   0.138368
25   0.156131
26   0.156826
27   0.133559
28   0.147665
29   0.166489
30   0.148561
31   0.138164
32   0.115249
33   0.136426
34   0.151869
35   0.249162
36   0.355306

$$$$

