PCCDB-ID:  26714
public computational chemistry database (PCCDB) project, http://pccdb.org

 27 28  0  0  0  0  0  0  0  0999 V2000
    0.8954   -0.0065    0.0912 C   0  0  0  0  0  0  0  0  0  0  0  0
    4.5112    1.3109   -0.0017 C   0  0  0  0  0  0  0  0  0  0  0  0
    3.1018    1.2639    0.0274 C   0  0  0  0  0  0  0  0  0  0  0  0
    5.2682    0.1479   -0.0080 C   0  0  0  0  0  0  0  0  0  0  0  0
    6.4684   -2.9637   -0.0211 C   0  0  0  0  0  0  0  0  0  0  0  0
    7.1113   -2.8616   -1.4148 C   0  0  0  0  0  0  0  0  0  0  0  0
    3.9159   -3.2365    0.0654 C   0  0  0  0  0  0  0  0  0  0  0  0
    2.4016    0.0605    0.0554 C   0  0  0  0  0  0  0  0  0  0  0  0
    5.0515   -2.4668    0.0263 C   0  0  0  0  0  0  0  0  0  0  0  0
    4.6054   -1.0927    0.0153 C   0  0  0  0  0  0  0  0  0  0  0  0
    3.1850   -1.1059    0.0480 C   0  0  0  0  0  0  0  0  0  0  0  0
    8.4772   -3.3988   -1.3827 N   0  0  0  0  0  0  0  0  0  0  0  0
    2.7921   -2.4293    0.0741 N   0  0  0  0  0  0  0  0  0  0  0  0
    0.4567    0.9958    0.0884 H   0  0  0  0  0  0  0  0  0  0  0  0
    0.5320   -0.5223    0.9912 H   0  0  0  0  0  0  0  0  0  0  0  0
    0.4908   -0.5470   -0.7760 H   0  0  0  0  0  0  0  0  0  0  0  0
    5.0066    2.2779   -0.0197 H   0  0  0  0  0  0  0  0  0  0  0  0
    2.5401    2.1954    0.0314 H   0  0  0  0  0  0  0  0  0  0  0  0
    6.3540    0.1954   -0.0277 H   0  0  0  0  0  0  0  0  0  0  0  0
    7.0851   -2.3955    0.6922 H   0  0  0  0  0  0  0  0  0  0  0  0
    6.5171   -4.0111    0.2984 H   0  0  0  0  0  0  0  0  0  0  0  0
    7.0432   -1.8179   -1.7701 H   0  0  0  0  0  0  0  0  0  0  0  0
    6.5273   -3.4685   -2.1172 H   0  0  0  0  0  0  0  0  0  0  0  0
    3.8171   -4.3137    0.0901 H   0  0  0  0  0  0  0  0  0  0  0  0
    9.0669   -2.7924   -0.8126 H   0  0  0  0  0  0  0  0  0  0  0  0
    8.8783   -3.3752   -2.3191 H   0  0  0  0  0  0  0  0  0  0  0  0
    1.8409   -2.7572    0.1230 H   0  0  0  0  0  0  0  0  0  0  0  0
  1 15  1  0  0  0  0
  2  3  1  0  0  0  0
  3 18  1  0  0  0  0
  3  8  2  0  0  0  0
  4  2  2  0  0  0  0
  4 10  1  0  0  0  0
  5  9  1  0  0  0  0
  5 21  1  0  0  0  0
  5 20  1  0  0  0  0
  6 12  1  0  0  0  0
  6  5  1  0  0  0  0
  7 13  1  0  0  0  0
  7 24  1  0  0  0  0
  8  1  1  0  0  0  0
  9  7  2  0  0  0  0
 10  9  1  0  0  0  0
 10 11  2  0  0  0  0
 11  8  1  0  0  0  0
 11 13  1  0  0  0  0
 12 25  1  0  0  0  0
 13 27  1  0  0  0  0
 14  1  1  0  0  0  0
 16  1  1  0  0  0  0
 17  2  1  0  0  0  0
 19  4  1  0  0  0  0
 22  6  1  0  0  0  0
 23  6  1  0  0  0  0
 26 12  1  0  0  0  0
M  END
>  <HBA>
1

>  <HBD>
2

>  <TPSA>
41.81

>  <cid>
26714

>  <dipole>
1.59

>  <excitation_energy_1>
4.564

>  <excitation_energy_2>
4.584

>  <excitation_energy_3>
4.804

>  <excitation_energy_4>
4.959

>  <homo_energy>
-5.208

>  <homo_lumo_gap>
5.208

>  <logP>
2.678

>  <lumo_energy>
0.0

>  <melting_point>
158.19

>  <molecular_refractivity>
55.75

>  <oscillator_strength_1>
0.0039

>  <oscillator_strength_2>
0.089

>  <oscillator_strength_3>
0.0206

>  <oscillator_strength_4>
0.0079

>  <open_babel_can_smiles>
Cc1cccc2c1[nH]cc2CCN

>  <mulliken_charges>
27
1   -0.544922
2   -0.133115
3   -0.22131
4   -0.216713
5   -0.337307
6   -0.131365
7   -0.006612
8   0.190785
9   0.072348
10   0.094808
11   0.233262
12   -0.716537
13   -0.699707
14   0.162167
15   0.153626
16   0.154031
17   0.116377
18   0.11214
19   0.117131
20   0.1338
21   0.15038
22   0.121819
23   0.139864
24   0.14498
25   0.29022
26   0.294678
27   0.325172

>  <lowdin_charges>
27
1   -0.444901
2   -0.176766
3   -0.179273
4   -0.166616
5   -0.271761
6   -0.204258
7   -0.136545
8   -0.025266
9   -0.059614
10   -0.035744
11   0.021154
12   -0.562621
13   -0.201896
14   0.161668
15   0.154155
16   0.154619
17   0.152817
18   0.151503
19   0.150795
20   0.145077
21   0.154413
22   0.119755
23   0.144115
24   0.160969
25   0.251486
26   0.253556
27   0.289178

$$$$

