PCCDB-ID:  11255
public computational chemistry database (PCCDB) project, http://pccdb.org

 26 25  0  0  1  0  0  0  0  0999 V2000
    0.9703   -0.2094   -0.2510 C   0  0  0  0  0  0  0  0  0  0  0  0
    2.4318    1.7613    1.7892 C   0  0  0  0  0  0  0  0  0  0  0  0
    5.0615   -0.1105    1.7988 C   0  0  0  0  0  0  0  0  0  0  0  0
    5.2299    0.4586   -0.6422 C   0  0  0  0  0  0  0  0  0  0  0  0
    5.2580    2.2764    1.0533 C   0  0  0  0  0  0  0  0  0  0  0  0
    2.3665   -0.3325    0.3739 C   0  0  0  0  0  0  0  0  0  0  0  0
    3.0777    1.0242    0.6005 C   0  0  2  0  0  0  0  0  0  0  0  0
    4.6402    0.9022    0.7144 C   0  0  0  0  0  0  0  0  0  0  0  0
    0.5218   -1.1980   -0.4029 H   0  0  0  0  0  0  0  0  0  0  0  0
    1.0189    0.2863   -1.2286 H   0  0  0  0  0  0  0  0  0  0  0  0
    0.2827    0.3672    0.3779 H   0  0  0  0  0  0  0  0  0  0  0  0
    1.3428    1.7956    1.6789 H   0  0  0  0  0  0  0  0  0  0  0  0
    2.7779    2.7955    1.8730 H   0  0  0  0  0  0  0  0  0  0  0  0
    2.6452    1.2569    2.7397 H   0  0  0  0  0  0  0  0  0  0  0  0
    6.1547   -0.1464    1.8823 H   0  0  0  0  0  0  0  0  0  0  0  0
    4.7167   -1.1240    1.5662 H   0  0  0  0  0  0  0  0  0  0  0  0
    4.6678    0.1604    2.7854 H   0  0  0  0  0  0  0  0  0  0  0  0
    6.3239    0.4059   -0.5844 H   0  0  0  0  0  0  0  0  0  0  0  0
    4.9737    1.1721   -1.4355 H   0  0  0  0  0  0  0  0  0  0  0  0
    4.8750   -0.5295   -0.9536 H   0  0  0  0  0  0  0  0  0  0  0  0
    6.3517    2.2290    0.9861 H   0  0  0  0  0  0  0  0  0  0  0  0
    5.0082    2.6045    2.0675 H   0  0  0  0  0  0  0  0  0  0  0  0
    4.9166    3.0508    0.3543 H   0  0  0  0  0  0  0  0  0  0  0  0
    2.9725   -0.9725   -0.2776 H   0  0  0  0  0  0  0  0  0  0  0  0
    2.2871   -0.8652    1.3317 H   0  0  0  0  0  0  0  0  0  0  0  0
    2.8951    1.6386   -0.2962 H   0  0  0  0  0  0  0  0  0  0  0  0
  1  6  1  0  0  0  0
  1 11  1  0  0  0  0
  2 13  1  0  0  0  0
  2 14  1  0  0  0  0
  3 15  1  0  0  0  0
  3 17  1  0  0  0  0
  4 18  1  0  0  0  0
  4  8  1  0  0  0  0
  5 22  1  0  0  0  0
  6  7  1  0  0  0  0
  6 25  1  0  0  0  0
  7 26  1  6  0  0  0
  7  8  1  0  0  0  0
  7  2  1  0  0  0  0
  8  5  1  0  0  0  0
  8  3  1  0  0  0  0
  9  1  1  0  0  0  0
 10  1  1  0  0  0  0
 12  2  1  0  0  0  0
 16  3  1  0  0  0  0
 19  4  1  0  0  0  0
 20  4  1  0  0  0  0
 21  5  1  0  0  0  0
 23  5  1  0  0  0  0
 24  6  1  0  0  0  0
M  END
>  <HBA>
0

>  <HBD>
0

>  <TPSA>
0.0

>  <cid>
11255

>  <dipole>
0.04

>  <excitation_energy_1>
7.487

>  <excitation_energy_2>
7.578

>  <excitation_energy_3>
7.793

>  <excitation_energy_4>
7.972

>  <homo_energy>
-7.976

>  <homo_lumo_gap>
10.079

>  <logP>
3.079

>  <lumo_energy>
2.103

>  <melting_point>
-9.2

>  <molecular_refractivity>
40.31

>  <oscillator_strength_1>
0.0292

>  <oscillator_strength_2>
0.0083

>  <oscillator_strength_3>
0.0265

>  <oscillator_strength_4>
0.0002

>  <open_babel_can_smiles>
CC[C@H](C(C)(C)C)C

>  <mulliken_charges>
26
1   -0.449423
2   -0.466252
3   -0.452092
4   -0.449655
5   -0.451104
6   -0.263365
7   -0.051081
8   0.10319
9   0.14097
10   0.141442
11   0.144878
12   0.142545
13   0.145766
14   0.140646
15   0.136374
16   0.142619
17   0.139676
18   0.13645
19   0.136427
20   0.141562
21   0.135475
22   0.143174
23   0.136024
24   0.133133
25   0.131677
26   0.110945

>  <lowdin_charges>
26
1   -0.446136
2   -0.447466
3   -0.442808
4   -0.443074
5   -0.44231
6   -0.279487
7   -0.124451
8   0.01364
9   0.148795
10   0.14529
11   0.147403
12   0.147284
13   0.149211
14   0.144953
15   0.145246
16   0.147548
17   0.145863
18   0.144361
19   0.146223
20   0.145743
21   0.144119
22   0.147478
23   0.146274
24   0.143257
25   0.139669
26   0.133372

$$$$

