PCCDB-ID:  44904
public computational chemistry database (PCCDB) project, http://pccdb.org

 28 29  0  0  1  0  0  0  0  0999 V2000
    0.8269    2.2853    2.5640 C   0  0  0  0  0  0  0  0  0  0  0  0
    5.8116    0.9229    2.4755 C   0  0  0  0  0  0  0  0  0  0  0  0
    4.9404    1.0103    4.8746 C   0  0  0  0  0  0  0  0  0  0  0  0
    2.2271    0.7429    1.1774 C   0  0  0  0  0  0  0  0  0  0  0  0
    3.0549   -0.4544    1.6982 C   0  0  0  0  0  0  0  0  0  0  0  0
   -0.8848   -0.1820    3.2881 C   0  0  0  0  0  0  0  0  0  0  0  0
    1.0015    1.0859    1.9996 C   0  0  0  0  0  0  0  0  0  0  0  0
   -0.0469    0.0213    2.1000 C   0  0  1  0  0  0  0  0  0  0  0  0
    3.5566   -0.2644    3.1130 C   0  0  2  0  0  0  0  0  0  0  0  0
    4.8298    0.3847    3.4972 C   0  0  0  0  0  0  0  0  0  0  0  0
    0.2070   -1.0696    3.0176 O   0  0  0  0  0  0  0  0  0  0  0  0
    4.6917   -1.0535    3.5169 O   0  0  0  0  0  0  0  0  0  0  0  0
    1.5779    3.0673    2.4799 H   0  0  0  0  0  0  0  0  0  0  0  0
   -0.0721    2.5355    3.1203 H   0  0  0  0  0  0  0  0  0  0  0  0
    5.6669    1.9997    2.3233 H   0  0  0  0  0  0  0  0  0  0  0  0
    5.7170    0.4178    1.5118 H   0  0  0  0  0  0  0  0  0  0  0  0
    6.8381    0.7737    2.8321 H   0  0  0  0  0  0  0  0  0  0  0  0
    4.7527    2.0904    4.8331 H   0  0  0  0  0  0  0  0  0  0  0  0
    5.9466    0.8606    5.2854 H   0  0  0  0  0  0  0  0  0  0  0  0
    4.2218    0.5588    5.5649 H   0  0  0  0  0  0  0  0  0  0  0  0
    1.9071    0.5087    0.1507 H   0  0  0  0  0  0  0  0  0  0  0  0
    2.8701    1.6285    1.1087 H   0  0  0  0  0  0  0  0  0  0  0  0
    3.8996   -0.6231    1.0218 H   0  0  0  0  0  0  0  0  0  0  0  0
    2.4490   -1.3677    1.6750 H   0  0  0  0  0  0  0  0  0  0  0  0
   -1.8778   -0.6190    3.1783 H   0  0  0  0  0  0  0  0  0  0  0  0
   -0.7545    0.4599    4.1584 H   0  0  0  0  0  0  0  0  0  0  0  0
   -0.4424   -0.3263    1.1411 H   0  0  0  0  0  0  0  0  0  0  0  0
    2.7573   -0.2443    3.8562 H   0  0  0  0  0  0  0  0  0  0  0  0
  1 14  1  0  0  0  0
  2 17  1  0  0  0  0
  2 10  1  0  0  0  0
  3 19  1  0  0  0  0
  3 20  1  0  0  0  0
  4  5  1  0  0  0  0
  4  7  1  0  0  0  0
  5  9  1  0  0  0  0
  6 26  1  0  0  0  0
  7  8  1  0  0  0  0
  7  1  2  0  0  0  0
  8 27  1  6  0  0  0
  8 11  1  0  0  0  0
  8  6  1  0  0  0  0
  9 10  1  0  0  0  0
  9 12  1  0  0  0  0
  9 28  1  1  0  0  0
 10 12  1  0  0  0  0
 10  3  1  0  0  0  0
 11  6  1  0  0  0  0
 13  1  1  0  0  0  0
 15  2  1  0  0  0  0
 16  2  1  0  0  0  0
 18  3  1  0  0  0  0
 21  4  1  0  0  0  0
 22  4  1  0  0  0  0
 23  5  1  0  0  0  0
 24  5  1  0  0  0  0
 25  6  1  0  0  0  0
M  END
>  <HBA>
2

>  <HBD>
0

>  <TPSA>
25.06

>  <cid>
44904

>  <dipole>
3.64

>  <excitation_energy_1>
5.795

>  <excitation_energy_2>
6.072

>  <excitation_energy_3>
6.284

>  <excitation_energy_4>
6.408

>  <homo_energy>
-6.659

>  <homo_lumo_gap>
6.686

>  <logP>
1.899

>  <lumo_energy>
0.027

>  <melting_point>
-8.12

>  <molecular_refractivity>
47.69

>  <oscillator_strength_1>
0.0227

>  <oscillator_strength_2>
0.0089

>  <oscillator_strength_3>
0.0049

>  <oscillator_strength_4>
0.0051

>  <open_babel_can_smiles>
C=C([C@@H]1CO1)CC[C@H]1OC1(C)C

>  <mulliken_charges>
28
1   -0.397827
2   -0.478537
3   -0.473564
4   -0.34716
5   -0.297801
6   -0.103525
7   0.220402
8   0.016568
9   0.075138
10   0.316003
11   -0.435218
12   -0.490724
13   0.142042
14   0.141619
15   0.142832
16   0.156941
17   0.154759
18   0.141832
19   0.151221
20   0.159121
21   0.145924
22   0.144712
23   0.144744
24   0.169091
25   0.150901
26   0.15532
27   0.148867
28   0.146318

>  <lowdin_charges>
28
1   -0.341323
2   -0.444847
3   -0.443583
4   -0.270403
5   -0.283452
6   -0.159648
7   -0.005317
8   -0.02313
9   -0.031813
10   0.105757
11   -0.288342
12   -0.298903
13   0.159455
14   0.158883
15   0.150698
16   0.15871
17   0.157079
18   0.150327
19   0.154497
20   0.1621
21   0.15173
22   0.150323
23   0.153181
24   0.162608
25   0.153735
26   0.156794
27   0.151996
28   0.152886

$$$$

