PCCDB-ID:  17027
public computational chemistry database (PCCDB) project, http://pccdb.org

 20 20  0  0  1  0  0  0  0  0999 V2000
    1.7580    1.1770    0.2028 C   0  0  0  0  0  0  0  0  0  0  0  0
    6.4705   -0.5538    0.0968 C   0  0  0  0  0  0  0  0  0  0  0  0
    2.2838    0.2105    0.9581 C   0  0  0  0  0  0  0  0  0  0  0  0
    5.3547   -1.2374   -0.1654 C   0  0  0  0  0  0  0  0  0  0  0  0
    2.3110   -2.4191    1.1367 C   0  0  0  0  0  0  0  0  0  0  0  0
    3.7411   -2.9877    0.9685 C   0  0  0  0  0  0  0  0  0  0  0  0
    2.7916   -1.1010    0.4572 C   0  0  2  0  0  0  0  0  0  0  0  0
    4.2665   -1.5279    0.8146 C   0  0  2  0  0  0  0  0  0  0  0  0
    1.4088    2.1135    0.6296 H   0  0  0  0  0  0  0  0  0  0  0  0
    1.6571    1.0682   -0.8754 H   0  0  0  0  0  0  0  0  0  0  0  0
    7.2246   -0.3717   -0.6643 H   0  0  0  0  0  0  0  0  0  0  0  0
    6.6723   -0.1481    1.0863 H   0  0  0  0  0  0  0  0  0  0  0  0
    2.3635    0.3639    2.0368 H   0  0  0  0  0  0  0  0  0  0  0  0
    5.1954   -1.6269   -1.1735 H   0  0  0  0  0  0  0  0  0  0  0  0
    2.0630   -2.2525    2.1914 H   0  0  0  0  0  0  0  0  0  0  0  0
    1.4801   -2.9524    0.6646 H   0  0  0  0  0  0  0  0  0  0  0  0
    3.8472   -3.5470    0.0317 H   0  0  0  0  0  0  0  0  0  0  0  0
    4.1609   -3.5885    1.7812 H   0  0  0  0  0  0  0  0  0  0  0  0
    2.6506   -1.1694   -0.6292 H   0  0  0  0  0  0  0  0  0  0  0  0
    4.5290   -1.1214    1.7998 H   0  0  0  0  0  0  0  0  0  0  0  0
  1  9  1  0  0  0  0
  1  3  2  0  0  0  0
  2 12  1  0  0  0  0
  3 13  1  0  0  0  0
  4  2  2  0  0  0  0
  4  8  1  0  0  0  0
  5 15  1  0  0  0  0
  6  5  1  0  0  0  0
  6 18  1  0  0  0  0
  7 19  1  6  0  0  0
  7  8  1  0  0  0  0
  7  3  1  0  0  0  0
  7  5  1  0  0  0  0
  8  6  1  0  0  0  0
  8 20  1  1  0  0  0
 10  1  1  0  0  0  0
 11  2  1  0  0  0  0
 14  4  1  0  0  0  0
 16  5  1  0  0  0  0
 17  6  1  0  0  0  0
M  END
>  <HBA>
0

>  <HBD>
0

>  <TPSA>
0.0

>  <cid>
17027

>  <dipole>
0.35

>  <excitation_energy_1>
6.029

>  <excitation_energy_2>
6.186

>  <excitation_energy_3>
6.31

>  <excitation_energy_4>
6.367

>  <homo_energy>
-6.471

>  <homo_lumo_gap>
6.8

>  <logP>
2.385

>  <lumo_energy>
0.329

>  <melting_point>
-46.51

>  <molecular_refractivity>
37.51

>  <oscillator_strength_1>
0.1581

>  <oscillator_strength_2>
0.0103

>  <oscillator_strength_3>
0.0529

>  <oscillator_strength_4>
0.002

>  <open_babel_can_smiles>
C=C[C@@H]1CC[C@H]1C=C

>  <mulliken_charges>
20
1   -0.347266
2   -0.347178
3   -0.029718
4   -0.029775
5   -0.285567
6   -0.285826
7   -0.127305
8   -0.127653
9   0.137447
10   0.13561
11   0.137465
12   0.135604
13   0.115818
14   0.11582
15   0.1378
16   0.140268
17   0.137763
18   0.140312
19   0.123164
20   0.123217

>  <lowdin_charges>
20
1   -0.337796
2   -0.340202
3   -0.144156
4   -0.145543
5   -0.28204
6   -0.283603
7   -0.123407
8   -0.124672
9   0.157757
10   0.152186
11   0.158637
12   0.153662
13   0.144289
14   0.145535
15   0.144285
16   0.146044
17   0.145652
18   0.146215
19   0.142781
20   0.144379

$$$$

