PCCDB-ID:  6526
public computational chemistry database (PCCDB) project, http://pccdb.org

 25 24  0  0  0  0  0  0  0  0999 V2000
    2.3430    0.9935    1.2221 C   0  0  0  0  0  0  0  0  0  0  0  0
    1.5925   -0.5182   -3.0097 C   0  0  0  0  0  0  0  0  0  0  0  0
    1.4263   -1.8803    0.6797 C   0  0  0  0  0  0  0  0  0  0  0  0
    1.6883    0.5338   -0.0856 C   0  0  0  0  0  0  0  0  0  0  0  0
    1.1600   -1.3064   -1.7681 C   0  0  0  0  0  0  0  0  0  0  0  0
    3.9785   -2.1773   -0.9213 C   0  0  0  0  0  0  0  0  0  0  0  0
    1.8851   -0.9524   -0.4511 C   0  0  0  0  0  0  0  0  0  0  0  0
    3.4234   -3.3059   -1.1359 N   0  0  0  0  0  0  0  0  0  0  0  0
    5.3098   -1.8758   -0.9509 O   0  0  0  0  0  0  0  0  0  0  0  0
    3.3457   -1.0434   -0.6248 O   0  0  0  0  0  0  0  0  0  0  0  0
    2.2298    2.0771    1.3393 H   0  0  0  0  0  0  0  0  0  0  0  0
    3.4130    0.7645    1.2233 H   0  0  0  0  0  0  0  0  0  0  0  0
    1.8912    0.5204    2.1004 H   0  0  0  0  0  0  0  0  0  0  0  0
    1.0778   -0.9055   -3.8961 H   0  0  0  0  0  0  0  0  0  0  0  0
    2.6696   -0.6102   -3.1845 H   0  0  0  0  0  0  0  0  0  0  0  0
    1.3557    0.5484   -2.9349 H   0  0  0  0  0  0  0  0  0  0  0  0
    0.3782   -1.6682    0.9202 H   0  0  0  0  0  0  0  0  0  0  0  0
    2.0214   -1.7214    1.5838 H   0  0  0  0  0  0  0  0  0  0  0  0
    1.5174   -2.9262    0.3840 H   0  0  0  0  0  0  0  0  0  0  0  0
    2.0828    1.1399   -0.9081 H   0  0  0  0  0  0  0  0  0  0  0  0
    0.6069    0.7205   -0.0469 H   0  0  0  0  0  0  0  0  0  0  0  0
    1.3021   -2.3744   -1.9505 H   0  0  0  0  0  0  0  0  0  0  0  0
    0.0871   -1.1529   -1.5886 H   0  0  0  0  0  0  0  0  0  0  0  0
    4.1069   -4.0339   -1.3443 H   0  0  0  0  0  0  0  0  0  0  0  0
    5.7975   -2.6831   -1.1751 H   0  0  0  0  0  0  0  0  0  0  0  0
  1 12  1  0  0  0  0
  1 11  1  0  0  0  0
  1 13  1  0  0  0  0
  2 16  1  0  0  0  0
  2  5  1  0  0  0  0
  3 17  1  0  0  0  0
  3 18  1  0  0  0  0
  4 21  1  0  0  0  0
  4  1  1  0  0  0  0
  5 23  1  0  0  0  0
  5  7  1  0  0  0  0
  6 10  1  0  0  0  0
  7  4  1  0  0  0  0
  7  3  1  0  0  0  0
  8  6  2  0  0  0  0
  9  6  1  0  0  0  0
 10  7  1  0  0  0  0
 14  2  1  0  0  0  0
 15  2  1  0  0  0  0
 19  3  1  0  0  0  0
 20  4  1  0  0  0  0
 22  5  1  0  0  0  0
 24  8  1  0  0  0  0
 25  9  1  0  0  0  0
M  END
>  <HBA>
3

>  <HBD>
1

>  <TPSA>
52.32

>  <cid>
6526

>  <dipole>
1.07

>  <excitation_energy_1>
5.808

>  <excitation_energy_2>
6.264

>  <excitation_energy_3>
6.896

>  <excitation_energy_4>
7.058

>  <homo_energy>
-6.909

>  <homo_lumo_gap>
8.193

>  <logP>
2.361

>  <lumo_energy>
1.284

>  <melting_point>
60.82

>  <molecular_refractivity>
40.18

>  <oscillator_strength_1>
0.004

>  <oscillator_strength_2>
0.0475

>  <oscillator_strength_3>
0.001

>  <oscillator_strength_4>
0.025

>  <open_babel_can_smiles>
CCC(OC(=N)O)(CC)C

>  <mulliken_charges>
25
1   -0.456394
2   -0.454474
3   -0.478755
4   -0.267213
5   -0.277747
6   0.655333
7   0.325717
8   -0.629252
9   -0.570925
10   -0.485854
11   0.140949
12   0.167234
13   0.143379
14   0.142365
15   0.155783
16   0.143404
17   0.139563
18   0.152041
19   0.189207
20   0.150269
21   0.131754
22   0.179205
23   0.128377
24   0.271961
25   0.404076

>  <lowdin_charges>
25
1   -0.446518
2   -0.445025
3   -0.45702
4   -0.277104
5   -0.286873
6   0.194591
7   0.145373
8   -0.47627
9   -0.371502
10   -0.182803
11   0.148805
12   0.15737
13   0.147358
14   0.152129
15   0.151817
16   0.144573
17   0.152072
18   0.156266
19   0.173075
20   0.15372
21   0.143482
22   0.166071
23   0.143584
24   0.254941
25   0.357889

$$$$

