PCCDB-ID:  9494
public computational chemistry database (PCCDB) project, http://pccdb.org

 27 26  0  0  0  0  0  0  0  0999 V2000
    1.0265   -0.9518    1.3775 C   0  0  0  0  0  0  0  0  0  0  0  0
    6.3723    2.3108   -0.5139 C   0  0  0  0  0  0  0  0  0  0  0  0
    2.5480   -0.9207    1.5542 C   0  0  0  0  0  0  0  0  0  0  0  0
    5.5583    1.0724   -0.8973 C   0  0  0  0  0  0  0  0  0  0  0  0
    3.1315    0.4668    1.2483 C   0  0  0  0  0  0  0  0  0  0  0  0
    5.3763    0.0565    0.2452 C   0  0  0  0  0  0  0  0  0  0  0  0
    5.1130    0.7117    2.6458 C   0  0  0  0  0  0  0  0  0  0  0  0
    4.3326    0.7039    3.6727 N   0  0  0  0  0  0  0  0  0  0  0  0
    6.5169    0.8347    2.6872 N   0  0  0  0  0  0  0  0  0  0  0  0
    4.5882    0.5600    1.3723 N   0  0  0  0  0  0  0  0  0  0  0  0
    0.6212   -1.9446    1.6026 H   0  0  0  0  0  0  0  0  0  0  0  0
    0.7335   -0.6992    0.3501 H   0  0  0  0  0  0  0  0  0  0  0  0
    0.5373   -0.2344    2.0476 H   0  0  0  0  0  0  0  0  0  0  0  0
    6.4513    3.0115   -1.3523 H   0  0  0  0  0  0  0  0  0  0  0  0
    7.3956    2.0403   -0.2195 H   0  0  0  0  0  0  0  0  0  0  0  0
    5.9012    2.8456    0.3191 H   0  0  0  0  0  0  0  0  0  0  0  0
    3.0091   -1.6728    0.8987 H   0  0  0  0  0  0  0  0  0  0  0  0
    2.8144   -1.1796    2.5835 H   0  0  0  0  0  0  0  0  0  0  0  0
    6.0442    0.5525   -1.7344 H   0  0  0  0  0  0  0  0  0  0  0  0
    4.5713    1.3844   -1.2633 H   0  0  0  0  0  0  0  0  0  0  0  0
    2.6954    1.1990    1.9324 H   0  0  0  0  0  0  0  0  0  0  0  0
    2.8685    0.7673    0.2254 H   0  0  0  0  0  0  0  0  0  0  0  0
    6.3502   -0.2716    0.6183 H   0  0  0  0  0  0  0  0  0  0  0  0
    4.8819   -0.8391   -0.1561 H   0  0  0  0  0  0  0  0  0  0  0  0
    4.8491    0.9504    4.5182 H   0  0  0  0  0  0  0  0  0  0  0  0
    6.8516    1.0744    3.6127 H   0  0  0  0  0  0  0  0  0  0  0  0
    6.9080    1.4588    1.9896 H   0  0  0  0  0  0  0  0  0  0  0  0
  1  3  1  0  0  0  0
  1 11  1  0  0  0  0
  1 13  1  0  0  0  0
  2 15  1  0  0  0  0
  2 16  1  0  0  0  0
  3 18  1  0  0  0  0
  4  2  1  0  0  0  0
  4  6  1  0  0  0  0
  5 10  1  0  0  0  0
  5  3  1  0  0  0  0
  5 21  1  0  0  0  0
  6 23  1  0  0  0  0
  6 10  1  0  0  0  0
  7  9  2  0  0  0  0
  7  8  1  0  0  0  0
  8 25  1  0  0  0  0
  9 26  1  0  0  0  0
 10  7  1  0  0  0  0
 12  1  1  0  0  0  0
 14  2  1  0  0  0  0
 17  3  1  0  0  0  0
 19  4  1  0  0  0  0
 20  4  1  0  0  0  0
 22  5  1  0  0  0  0
 24  6  1  0  0  0  0
 27  9  1  0  0  0  0
M  RAD  1   8   2
M  END
>  <HBA>
3

>  <HBD>
2

>  <TPSA>
53.11

>  <cid>
9494

>  <dipole>
2.88

>  <excitation_energy_1>
4.867

>  <excitation_energy_2>
5.353

>  <excitation_energy_3>
5.613

>  <excitation_energy_4>
5.722

>  <homo_energy>
-5.499

>  <homo_lumo_gap>
7.059

>  <logP>
1.802

>  <lumo_energy>
1.559

>  <melting_point>
60.96

>  <molecular_refractivity>
44.96

>  <oscillator_strength_1>
0.0122

>  <oscillator_strength_2>
0.0186

>  <oscillator_strength_3>
0.0087

>  <oscillator_strength_4>
0.005

>  <open_babel_can_smiles>
CCCN(C(=[NH2])[NH])CCC

>  <mulliken_charges>
27
1   -0.44714
2   -0.458883
3   -0.257428
4   -0.243862
5   -0.124804
6   -0.161035
7   0.584343
8   -0.662275
9   -0.764859
10   -0.418398
11   0.142937
12   0.133755
13   0.148294
14   0.151056
15   0.136802
16   0.155411
17   0.12251
18   0.174883
19   0.13386
20   0.142474
21   0.171595
22   0.125053
23   0.16697
24   0.144775
25   0.258424
26   0.316755
27   0.328788

>  <lowdin_charges>
27
1   -0.444339
2   -0.453769
3   -0.286328
4   -0.282236
5   -0.196063
6   -0.204539
7   0.12711
8   -0.496202
9   -0.515606
10   -0.125836
11   0.150226
12   0.140803
13   0.150807
14   0.15592
15   0.140785
16   0.152222
17   0.135174
18   0.161721
19   0.145447
20   0.144125
21   0.166702
22   0.135406
23   0.159175
24   0.145174
25   0.243377
26   0.273661
27   0.277084

$$$$

