PCCDB-ID:  73000
public computational chemistry database (PCCDB) project, http://pccdb.org

 17 18  0  0  0  0  0  0  0  0999 V2000
    2.3328   -0.7113    0.0090 C   0  0  0  0  0  0  0  0  0  0  0  0
    2.3242    0.6899    0.0248 C   0  0  0  0  0  0  0  0  0  0  0  0
    0.0641   -0.6963    0.0055 C   0  0  0  0  0  0  0  0  0  0  0  0
    0.0637    0.7124    0.0218 C   0  0  0  0  0  0  0  0  0  0  0  0
   -1.2425   -1.3588   -0.0001 C   0  0  0  0  0  0  0  0  0  0  0  0
   -2.3966    0.6626    0.0158 C   0  0  0  0  0  0  0  0  0  0  0  0
   -3.5249    1.2649    0.0153 N   0  0  0  0  0  0  0  0  0  0  0  0
    1.1889   -1.4076   -0.0001 N   0  0  0  0  0  0  0  0  0  0  0  0
    1.2027    1.4179    0.0318 N   0  0  0  0  0  0  0  0  0  0  0  0
   -1.1428    1.3449    0.0271 N   0  0  0  0  0  0  0  0  0  0  0  0
   -2.3642   -0.7301    0.0050 N   0  0  0  0  0  0  0  0  0  0  0  0
   -1.2316   -2.6971   -0.0103 O   0  0  0  0  0  0  0  0  0  0  0  0
    3.2631   -1.2710    0.0037 H   0  0  0  0  0  0  0  0  0  0  0  0
    3.2601    1.2441    0.0331 H   0  0  0  0  0  0  0  0  0  0  0  0
   -3.4034    2.2810    0.0241 H   0  0  0  0  0  0  0  0  0  0  0  0
   -1.1310    2.3582    0.0385 H   0  0  0  0  0  0  0  0  0  0  0  0
   -0.2910   -2.9701   -0.0125 H   0  0  0  0  0  0  0  0  0  0  0  0
  1  2  2  0  0  0  0
  2  9  1  0  0  0  0
  2 14  1  0  0  0  0
  3  4  1  0  0  0  0
  4 10  1  0  0  0  0
  4  9  2  0  0  0  0
  5 11  2  0  0  0  0
  5  3  1  0  0  0  0
  6 10  1  0  0  0  0
  7  6  1  0  0  0  0
  7 15  1  0  0  0  0
  8  3  2  0  0  0  0
  8  1  1  0  0  0  0
 10 16  1  0  0  0  0
 11  6  2  0  0  0  0
 12  5  1  0  0  0  0
 13  1  1  0  0  0  0
 17 12  1  0  0  0  0
M  RAD  1   7   2
M  END
>  <HBA>
5

>  <HBD>
2

>  <TPSA>
97.55

>  <cid>
73000

>  <dipole>
6.37

>  <excitation_energy_1>
3.315

>  <excitation_energy_2>
3.893

>  <excitation_energy_3>
4.098

>  <excitation_energy_4>
4.421

>  <homo_energy>
-6.327

>  <homo_lumo_gap>
3.796

>  <logP>
-0.123

>  <lumo_energy>
-2.531

>  <melting_point>
227.04

>  <molecular_refractivity>
42.36

>  <oscillator_strength_1>
0.1317

>  <oscillator_strength_2>
0.0009

>  <oscillator_strength_3>
0.0001

>  <oscillator_strength_4>
0.0041

>  <open_babel_can_smiles>
[NH]C1=[N]=C(c2c(N1)nccn2)O

>  <mulliken_charges>
17
1   0.019294
2   0.039948
3   0.232834
4   0.572932
5   0.539992
6   0.603098
7   -0.593397
8   -0.521975
9   -0.475343
10   -0.723519
11   -0.481614
12   -0.585396
13   0.16334
14   0.166603
15   0.268556
16   0.340334
17   0.434314

>  <lowdin_charges>
17
1   -0.127769
2   -0.077047
3   -0.035827
4   0.097127
5   0.141878
6   0.126492
7   -0.393058
8   -0.121239
9   -0.151067
10   -0.232606
11   -0.157997
12   -0.320676
13   0.172085
14   0.172546
15   0.244743
16   0.296389
17   0.366024

$$$$

