PCCDB-ID:  23898
public computational chemistry database (PCCDB) project, http://pccdb.org

 13 12  0  0  0  0  0  0  0  0999 V2000
    0.9587    0.4458   -0.2170 C   0  0  0  0  0  0  0  0  0  0  0  0
    4.4278   -1.2590   -0.3290 C   0  0  0  0  0  0  0  0  0  0  0  0
    2.4212    0.2066    0.0848 C   0  0  0  0  0  0  0  0  0  0  0  0
    2.2356   -1.6789   -1.3488 N   0  0  0  0  0  0  0  0  0  0  0  0
    3.0234   -0.9171   -0.5369 N   0  0  0  0  0  0  0  0  0  0  0  0
    3.0835    0.9142    0.8159 O   0  0  0  0  0  0  0  0  0  0  0  0
    2.8160   -2.6257   -1.8487 O   0  0  0  0  0  0  0  0  0  0  0  0
    0.3474   -0.4080    0.0892 H   0  0  0  0  0  0  0  0  0  0  0  0
    0.7943    0.5892   -1.2888 H   0  0  0  0  0  0  0  0  0  0  0  0
    0.6547    1.3386    0.3307 H   0  0  0  0  0  0  0  0  0  0  0  0
    4.8439   -0.5169    0.3489 H   0  0  0  0  0  0  0  0  0  0  0  0
    4.9541   -1.2510   -1.2871 H   0  0  0  0  0  0  0  0  0  0  0  0
    4.5026   -2.2626    0.0980 H   0  0  0  0  0  0  0  0  0  0  0  0
  1  3  1  0  0  0  0
  1  8  1  0  0  0  0
  1 10  1  0  0  0  0
  2 13  1  0  0  0  0
  2 11  1  0  0  0  0
  3  6  2  0  0  0  0
  4  5  1  0  0  0  0
  5  2  1  0  0  0  0
  5  3  1  0  0  0  0
  7  4  1  0  0  0  0
  9  1  1  0  0  0  0
 12  2  1  0  0  0  0
M  RAD  2   4   2   7   2
M  END
>  <HBA>
4

>  <HBD>
0

>  <TPSA>
49.74

>  <cid>
23898

>  <dipole>
0.43

>  <excitation_energy_1>
2.951

>  <excitation_energy_2>
4.42

>  <excitation_energy_3>
5.634

>  <excitation_energy_4>
5.903

>  <homo_energy>
-6.844

>  <homo_lumo_gap>
4.729

>  <logP>
0.146

>  <lumo_energy>
-2.114

>  <melting_point>
18.51

>  <molecular_refractivity>
24.37

>  <oscillator_strength_1>
0.001

>  <oscillator_strength_2>
0.0001

>  <oscillator_strength_3>
0.2535

>  <oscillator_strength_4>
0.0001

>  <open_babel_can_smiles>
CN(C(=O)C)[N][O]

>  <mulliken_charges>
13
1   -0.520616
2   -0.331653
3   0.588288
4   0.173432
5   -0.282132
6   -0.449016
7   -0.333807
8   0.192022
9   0.192029
10   0.186939
11   0.208639
12   0.187923
13   0.187953

>  <lowdin_charges>
13
1   -0.467493
2   -0.370145
3   0.184998
4   0.071131
5   -0.042465
6   -0.244108
7   -0.212328
8   0.183862
9   0.181697
10   0.179223
11   0.190327
12   0.172929
13   0.172374

$$$$

