PCCDB-ID:  41133
public computational chemistry database (PCCDB) project, http://pccdb.org

 39 40  0  0  1  0  0  0  0  0999 V2000
    1.5486   -0.6996    1.3322 C   0  0  0  0  0  0  0  0  0  0  0  0
    3.4150    0.9123    0.8640 C   0  0  0  0  0  0  0  0  0  0  0  0
    2.7597   -2.0083   -4.3742 C   0  0  0  0  0  0  0  0  0  0  0  0
    3.8568   -0.4526   -1.8800 C   0  0  0  0  0  0  0  0  0  0  0  0
   -0.1839   -1.2064   -4.9822 C   0  0  0  0  0  0  0  0  0  0  0  0
    2.9393    0.0960   -2.9874 C   0  0  0  0  0  0  0  0  0  0  0  0
    0.9375   -0.2674   -4.4896 C   0  0  0  0  0  0  0  0  0  0  0  0
    2.1126   -2.1511   -1.2821 C   0  0  0  0  0  0  0  0  0  0  0  0
    0.1197   -2.6017   -2.8313 C   0  0  0  0  0  0  0  0  0  0  0  0
    2.3862   -0.0375    0.2243 C   0  0  0  0  0  0  0  0  0  0  0  0
    3.0757   -1.0863   -0.7024 C   0  0  2  0  0  0  0  0  0  0  0  0
    1.1805   -1.5826   -2.3654 C   0  0  2  0  0  0  0  0  0  0  0  0
   -0.8357   -1.9968   -3.8532 C   0  0  0  0  0  0  0  0  0  0  0  0
    1.9648   -0.9609   -3.5622 C   0  0  1  0  0  0  0  0  0  0  0  0
   -2.0422   -2.1340   -3.7736 O   0  0  0  0  0  0  0  0  0  0  0  0
    1.1580    0.0558    2.0237 H   0  0  0  0  0  0  0  0  0  0  0  0
    2.1571   -1.4010    1.9186 H   0  0  0  0  0  0  0  0  0  0  0  0
    0.6911   -1.2511    0.9348 H   0  0  0  0  0  0  0  0  0  0  0  0
    2.9213    1.6129    1.5478 H   0  0  0  0  0  0  0  0  0  0  0  0
    3.9533    1.5085    0.1212 H   0  0  0  0  0  0  0  0  0  0  0  0
    4.1585    0.3517    1.4461 H   0  0  0  0  0  0  0  0  0  0  0  0
    3.2888   -1.5128   -5.1973 H   0  0  0  0  0  0  0  0  0  0  0  0
    2.1147   -2.7736   -4.8165 H   0  0  0  0  0  0  0  0  0  0  0  0
    3.5092   -2.5302   -3.7727 H   0  0  0  0  0  0  0  0  0  0  0  0
    4.5166    0.3456   -1.5251 H   0  0  0  0  0  0  0  0  0  0  0  0
    4.5223   -1.2176   -2.3004 H   0  0  0  0  0  0  0  0  0  0  0  0
    0.2297   -1.9339   -5.6961 H   0  0  0  0  0  0  0  0  0  0  0  0
   -0.9691   -0.6558   -5.5093 H   0  0  0  0  0  0  0  0  0  0  0  0
    3.5496    0.5152   -3.7993 H   0  0  0  0  0  0  0  0  0  0  0  0
    2.3509    0.9335   -2.5868 H   0  0  0  0  0  0  0  0  0  0  0  0
    0.4807    0.5696   -3.9437 H   0  0  0  0  0  0  0  0  0  0  0  0
    1.4502    0.1722   -5.3557 H   0  0  0  0  0  0  0  0  0  0  0  0
    1.5147   -2.6099   -0.4870 H   0  0  0  0  0  0  0  0  0  0  0  0
    2.7110   -2.9683   -1.7087 H   0  0  0  0  0  0  0  0  0  0  0  0
   -0.4744   -2.9720   -1.9894 H   0  0  0  0  0  0  0  0  0  0  0  0
    0.6132   -3.4723   -3.2885 H   0  0  0  0  0  0  0  0  0  0  0  0
    1.7050    0.5773   -0.3808 H   0  0  0  0  0  0  0  0  0  0  0  0
    3.8036   -1.6164   -0.0688 H   0  0  0  0  0  0  0  0  0  0  0  0
    0.6239   -0.7490   -1.9081 H   0  0  0  0  0  0  0  0  0  0  0  0
  1 17  1  0  0  0  0
  1 16  1  0  0  0  0
  2 21  1  0  0  0  0
  2 19  1  0  0  0  0
  3 24  1  0  0  0  0
  4 25  1  0  0  0  0
  4 11  1  0  0  0  0
  5  7  1  0  0  0  0
  5 13  1  0  0  0  0
  6 30  1  0  0  0  0
  6  4  1  0  0  0  0
  7 31  1  0  0  0  0
  7 14  1  0  0  0  0
  8 11  1  0  0  0  0
  8 33  1  0  0  0  0
  9 12  1  0  0  0  0
  9 35  1  0  0  0  0
 10  2  1  0  0  0  0
 10  1  1  0  0  0  0
 11 38  1  1  0  0  0
 11 10  1  0  0  0  0
 12 39  1  1  0  0  0
 12  8  1  0  0  0  0
 13 15  2  0  0  0  0
 13  9  1  0  0  0  0
 14  3  1  6  0  0  0
 14  6  1  0  0  0  0
 14 12  1  0  0  0  0
 18  1  1  0  0  0  0
 20  2  1  0  0  0  0
 22  3  1  0  0  0  0
 23  3  1  0  0  0  0
 26  4  1  0  0  0  0
 27  5  1  0  0  0  0
 28  5  1  0  0  0  0
 29  6  1  0  0  0  0
 32  7  1  0  0  0  0
 34  8  1  0  0  0  0
 36  9  1  0  0  0  0
 37 10  1  0  0  0  0
M  END
>  <HBA>
1

>  <HBD>
0

>  <TPSA>
17.07

>  <cid>
41133

>  <dipole>
3.24

>  <excitation_energy_1>
4.216

>  <excitation_energy_2>
5.955

>  <excitation_energy_3>
6.181

>  <excitation_energy_4>
6.305

>  <homo_energy>
-6.313

>  <homo_lumo_gap>
6.055

>  <logP>
3.818

>  <lumo_energy>
-0.259

>  <melting_point>
53.36

>  <molecular_refractivity>
65.12

>  <oscillator_strength_1>
0.0

>  <oscillator_strength_2>
0.0088

>  <oscillator_strength_3>
0.0014

>  <oscillator_strength_4>
0.0078

>  <open_babel_can_smiles>
O=C1CC[C@@]2([C@@H](C1)C[C@@H](CC2)C(C)C)C

>  <mulliken_charges>
39
1   -0.452481
2   -0.451446
3   -0.473416
4   -0.284885
5   -0.356275
6   -0.272555
7   -0.278896
8   -0.284711
9   -0.355523
10   -0.072043
11   -0.070516
12   -0.10493
13   0.452537
14   0.099251
15   -0.450403
16   0.141265
17   0.139288
18   0.1473
19   0.140883
20   0.14535
21   0.139178
22   0.143413
23   0.142547
24   0.151456
25   0.136203
26   0.131596
27   0.159584
28   0.163371
29   0.127262
30   0.131047
31   0.137635
32   0.135004
33   0.137214
34   0.128342
35   0.158697
36   0.154614
37   0.123614
38   0.112301
39   0.129128

>  <lowdin_charges>
39
1   -0.449743
2   -0.449994
3   -0.45561
4   -0.285391
5   -0.312239
6   -0.279149
7   -0.27651
8   -0.284738
9   -0.309173
10   -0.12909
11   -0.130722
12   -0.131362
13   0.157504
14   0.000665
15   -0.236633
16   0.150701
17   0.147218
18   0.149863
19   0.150225
20   0.149574
21   0.146931
22   0.152239
23   0.148303
24   0.152688
25   0.147584
26   0.142674
27   0.163299
28   0.165974
29   0.143596
30   0.140908
31   0.144657
32   0.146926
33   0.148365
34   0.141864
35   0.163029
36   0.160328
37   0.136172
38   0.138653
39   0.140415

$$$$

