PCCDB-ID:  19754
public computational chemistry database (PCCDB) project, http://pccdb.org

 15 14  0  0  0  0  0  0  0  0999 V2000
    0.9385   -0.2429    0.0959 C   0  0  0  0  0  0  0  0  0  0  0  0
    5.5417   -1.4194    0.3148 C   0  0  0  0  0  0  0  0  0  0  0  0
    2.4300   -0.0354    0.3878 C   0  0  0  0  0  0  0  0  0  0  0  0
    3.2915   -0.1879   -0.8693 C   0  0  0  0  0  0  0  0  0  0  0  0
    5.0924    0.0825   -0.6253 S   0  0  0  0  0  0  0  0  0  0  0  0
    0.3393   -0.1251    1.0057 H   0  0  0  0  0  0  0  0  0  0  0  0
    0.7447   -1.2462   -0.3029 H   0  0  0  0  0  0  0  0  0  0  0  0
    0.5724    0.4830   -0.6404 H   0  0  0  0  0  0  0  0  0  0  0  0
    6.6252   -1.3889    0.4569 H   0  0  0  0  0  0  0  0  0  0  0  0
    5.2875   -2.3250   -0.2455 H   0  0  0  0  0  0  0  0  0  0  0  0
    5.0627   -1.4479    1.2975 H   0  0  0  0  0  0  0  0  0  0  0  0
    2.7556   -0.7558    1.1490 H   0  0  0  0  0  0  0  0  0  0  0  0
    2.5951    0.9615    0.8139 H   0  0  0  0  0  0  0  0  0  0  0  0
    3.0013    0.5572   -1.6194 H   0  0  0  0  0  0  0  0  0  0  0  0
    3.1451   -1.1744   -1.3275 H   0  0  0  0  0  0  0  0  0  0  0  0
  1  3  1  0  0  0  0
  1  6  1  0  0  0  0
  2  9  1  0  0  0  0
  2 11  1  0  0  0  0
  3 13  1  0  0  0  0
  3 12  1  0  0  0  0
  4  5  1  0  0  0  0
  4  3  1  0  0  0  0
  5  2  1  0  0  0  0
  7  1  1  0  0  0  0
  8  1  1  0  0  0  0
 10  2  1  0  0  0  0
 14  4  1  0  0  0  0
 15  4  1  0  0  0  0
M  END
>  <HBA>
1

>  <HBD>
0

>  <TPSA>
25.3

>  <cid>
19754

>  <dipole>
1.79

>  <excitation_energy_1>
5.133

>  <excitation_energy_2>
5.45

>  <excitation_energy_3>
5.824

>  <excitation_energy_4>
6.098

>  <homo_energy>
-5.856

>  <homo_lumo_gap>
7.119

>  <logP>
1.759

>  <lumo_energy>
1.263

>  <melting_point>
-16.26

>  <molecular_refractivity>
28.93

>  <oscillator_strength_1>
0.0002

>  <oscillator_strength_2>
0.0054

>  <oscillator_strength_3>
0.0282

>  <oscillator_strength_4>
0.0194

>  <open_babel_can_smiles>
CCCSC

>  <mulliken_charges>
15
1   -0.445603
2   -0.582559
3   -0.243586
4   -0.407667
5   0.082708
6   0.149354
7   0.143673
8   0.145714
9   0.183083
10   0.17347
11   0.17805
12   0.138992
13   0.152076
14   0.170683
15   0.161613

>  <lowdin_charges>
15
1   -0.446283
2   -0.545776
3   -0.278292
4   -0.377573
5   0.092157
6   0.153722
7   0.146867
8   0.149382
9   0.174174
10   0.160242
11   0.159448
12   0.143832
13   0.150449
14   0.165921
15   0.151731

$$$$

