PCCDB-ID:  18809
public computational chemistry database (PCCDB) project, http://pccdb.org

 25 25  0  0  0  0  0  0  0  0999 V2000
   -2.9435   -2.6535   -0.8493 C   0  0  0  0  0  0  0  0  0  0  0  0
   -2.4153   -1.7910   -1.8101 C   0  0  0  0  0  0  0  0  0  0  0  0
   -2.2899   -2.8005    0.3763 C   0  0  0  0  0  0  0  0  0  0  0  0
    1.9933   -1.3410   -0.1897 C   0  0  0  0  0  0  0  0  0  0  0  0
   -1.2413   -1.0826   -1.5457 C   0  0  0  0  0  0  0  0  0  0  0  0
   -1.1171   -2.0912    0.6336 C   0  0  0  0  0  0  0  0  0  0  0  0
    0.7173   -0.4786   -0.0387 C   0  0  0  0  0  0  0  0  0  0  0  0
    2.2632   -1.8808   -1.5970 C   0  0  0  0  0  0  0  0  0  0  0  0
   -0.5717   -1.2225   -0.3233 C   0  0  0  0  0  0  0  0  0  0  0  0
    2.7260   -1.3756   -3.8818 N   0  0  0  0  0  0  0  0  0  0  0  0
    2.6054   -0.7947   -2.5245 N   0  0  0  0  0  0  0  0  0  0  0  0
   -3.8589   -3.2034   -1.0510 H   0  0  0  0  0  0  0  0  0  0  0  0
   -2.9171   -1.6653   -2.7660 H   0  0  0  0  0  0  0  0  0  0  0  0
   -2.6959   -3.4658    1.1341 H   0  0  0  0  0  0  0  0  0  0  0  0
    1.9213   -2.1956    0.4953 H   0  0  0  0  0  0  0  0  0  0  0  0
    2.8586   -0.7458    0.1274 H   0  0  0  0  0  0  0  0  0  0  0  0
   -0.8422   -0.4080   -2.3005 H   0  0  0  0  0  0  0  0  0  0  0  0
   -0.6191   -2.2067    1.5944 H   0  0  0  0  0  0  0  0  0  0  0  0
    0.7861    0.4049   -0.6863 H   0  0  0  0  0  0  0  0  0  0  0  0
    0.6943   -0.0930    0.9888 H   0  0  0  0  0  0  0  0  0  0  0  0
    1.4131   -2.4833   -1.9574 H   0  0  0  0  0  0  0  0  0  0  0  0
    3.1331   -2.5514   -1.5492 H   0  0  0  0  0  0  0  0  0  0  0  0
    3.4803   -2.0616   -3.7858 H   0  0  0  0  0  0  0  0  0  0  0  0
    3.1690   -0.6276   -4.4226 H   0  0  0  0  0  0  0  0  0  0  0  0
    1.7658   -0.2186   -2.6089 H   0  0  0  0  0  0  0  0  0  0  0  0
  1  3  2  0  0  0  0
  2  5  2  0  0  0  0
  2  1  1  0  0  0  0
  3  6  1  0  0  0  0
  3 14  1  0  0  0  0
  4  7  1  0  0  0  0
  4 16  1  0  0  0  0
  4 15  1  0  0  0  0
  5  9  1  0  0  0  0
  6 18  1  0  0  0  0
  7 20  1  0  0  0  0
  8 22  1  0  0  0  0
  8  4  1  0  0  0  0
  9  7  1  0  0  0  0
  9  6  2  0  0  0  0
 10 23  1  0  0  0  0
 10 11  1  0  0  0  0
 11  8  1  0  0  0  0
 12  1  1  0  0  0  0
 13  2  1  0  0  0  0
 17  5  1  0  0  0  0
 19  7  1  0  0  0  0
 21  8  1  0  0  0  0
 24 10  1  0  0  0  0
 25 11  1  0  0  0  0
M  END
>  <HBA>
2

>  <HBD>
2

>  <TPSA>
38.05

>  <cid>
18809

>  <dipole>
0.53

>  <excitation_energy_1>
4.665

>  <excitation_energy_2>
4.737

>  <excitation_energy_3>
4.812

>  <excitation_energy_4>
5.252

>  <homo_energy>
-5.255

>  <homo_lumo_gap>
5.295

>  <logP>
2.174

>  <lumo_energy>
0.041

>  <melting_point>
87.25

>  <molecular_refractivity>
46.53

>  <oscillator_strength_1>
0.0006

>  <oscillator_strength_2>
0.0012

>  <oscillator_strength_3>
0.0014

>  <oscillator_strength_4>
0.0086

>  <open_babel_can_smiles>
NNCCCc1ccccc1

>  <mulliken_charges>
25
1   -0.13223
2   -0.125634
3   -0.126749
4   -0.26124
5   -0.184186
6   -0.181907
7   -0.364705
8   -0.124269
9   0.181156
10   -0.594999
11   -0.474746
12   0.12786
13   0.129873
14   0.127877
15   0.138491
16   0.146852
17   0.120032
18   0.121874
19   0.140866
20   0.147254
21   0.143902
22   0.130257
23   0.300719
24   0.303263
25   0.310387

>  <lowdin_charges>
25
1   -0.160772
2   -0.153614
3   -0.155837
4   -0.278214
5   -0.170483
6   -0.167429
7   -0.277971
8   -0.215707
9   -0.001458
10   -0.499462
11   -0.325249
12   0.156964
13   0.157687
14   0.157804
15   0.148417
16   0.151189
17   0.152881
18   0.153159
19   0.146326
20   0.153196
21   0.135218
22   0.138576
23   0.251673
24   0.254538
25   0.248567

$$$$

