PCCDB-ID:  15347
public computational chemistry database (PCCDB) project, http://pccdb.org

 16 16  0  0  0  0  0  0  0  0999 V2000
    0.9240    0.0333   -0.0128 C   0  0  0  0  0  0  0  0  0  0  0  0
    4.5606    1.1532    0.3410 C   0  0  0  0  0  0  0  0  0  0  0  0
    3.1686    1.2017    0.2136 C   0  0  0  0  0  0  0  0  0  0  0  0
    5.1626   -0.0999    0.3477 C   0  0  0  0  0  0  0  0  0  0  0  0
    2.4264    0.0314    0.1023 C   0  0  0  0  0  0  0  0  0  0  0  0
    3.1539   -1.1863    0.1173 C   0  0  0  0  0  0  0  0  0  0  0  0
    2.4913   -2.4061    0.0660 N   0  0  0  0  0  0  0  0  0  0  0  0
    4.4867   -1.2498    0.2335 N   0  0  0  0  0  0  0  0  0  0  0  0
    0.5263    1.0508    0.0492 H   0  0  0  0  0  0  0  0  0  0  0  0
    0.4607   -0.5610    0.7857 H   0  0  0  0  0  0  0  0  0  0  0  0
    0.5814   -0.3914   -0.9683 H   0  0  0  0  0  0  0  0  0  0  0  0
    5.1533    2.0578    0.4305 H   0  0  0  0  0  0  0  0  0  0  0  0
    2.6518    2.1593    0.2057 H   0  0  0  0  0  0  0  0  0  0  0  0
    6.2433   -0.1961    0.4440 H   0  0  0  0  0  0  0  0  0  0  0  0
    1.6306   -2.4364   -0.4642 H   0  0  0  0  0  0  0  0  0  0  0  0
    3.1146   -3.1808   -0.1271 H   0  0  0  0  0  0  0  0  0  0  0  0
  1  9  1  0  0  0  0
  1  5  1  0  0  0  0
  1 10  1  0  0  0  0
  2  4  1  0  0  0  0
  2 12  1  0  0  0  0
  3  2  2  0  0  0  0
  4 14  1  0  0  0  0
  5  6  2  0  0  0  0
  5  3  1  0  0  0  0
  6  8  1  0  0  0  0
  7  6  1  0  0  0  0
  8  4  2  0  0  0  0
 11  1  1  0  0  0  0
 13  3  1  0  0  0  0
 15  7  1  0  0  0  0
 16  7  1  0  0  0  0
M  END
>  <HBA>
2

>  <HBD>
1

>  <TPSA>
38.91

>  <cid>
15347

>  <dipole>
2.14

>  <excitation_energy_1>
4.718

>  <excitation_energy_2>
5.055

>  <excitation_energy_3>
5.227

>  <excitation_energy_4>
5.583

>  <homo_energy>
-5.649

>  <homo_lumo_gap>
5.491

>  <logP>
1.553

>  <lumo_energy>
-0.158

>  <melting_point>
72.81

>  <molecular_refractivity>
33.61

>  <oscillator_strength_1>
0.0861

>  <oscillator_strength_2>
0.0116

>  <oscillator_strength_3>
0.0056

>  <oscillator_strength_4>
0.0137

>  <open_babel_can_smiles>
Cc1cccnc1N

>  <mulliken_charges>
16
1   -0.551441
2   -0.150909
3   -0.162476
4   0.036357
5   0.160063
6   0.403683
7   -0.763015
8   -0.495024
9   0.160109
10   0.171495
11   0.150766
12   0.125854
13   0.128019
14   0.133063
15   0.322037
16   0.331419

>  <lowdin_charges>
16
1   -0.444694
2   -0.209667
3   -0.136057
4   -0.083608
5   -0.050871
6   0.090842
7   -0.479678
8   -0.191936
9   0.160382
10   0.163879
11   0.151485
12   0.160585
13   0.156569
14   0.15069
15   0.277424
16   0.284654

$$$$

