PCCDB-ID:  69176
public computational chemistry database (PCCDB) project, http://pccdb.org

 21 22  0  0  0  0  0  0  0  0999 V2000
    2.4886    0.7373   -0.0407 C   0  0  0  0  0  0  0  0  0  0  0  0
    2.4897   -0.6744    0.0715 C   0  0  0  0  0  0  0  0  0  0  0  0
    1.2950    1.4224   -0.1003 C   0  0  0  0  0  0  0  0  0  0  0  0
    1.3035   -1.3727    0.1219 C   0  0  0  0  0  0  0  0  0  0  0  0
   -1.1952    1.4037   -0.1136 C   0  0  0  0  0  0  0  0  0  0  0  0
   -2.3782    0.7100   -0.0640 C   0  0  0  0  0  0  0  0  0  0  0  0
   -1.1809   -1.3942    0.1144 C   0  0  0  0  0  0  0  0  0  0  0  0
    0.0563    0.7319   -0.0503 C   0  0  0  0  0  0  0  0  0  0  0  0
    0.0545   -0.6963    0.0650 C   0  0  0  0  0  0  0  0  0  0  0  0
   -2.3762   -0.7091    0.0524 C   0  0  0  0  0  0  0  0  0  0  0  0
   -3.6365   -1.3430    0.1822 N   0  0  0  0  0  0  0  0  0  0  0  0
   -3.5913   -2.7343   -0.1344 O   0  0  0  0  0  0  0  0  0  0  0  0
    3.4314    1.2759   -0.0796 H   0  0  0  0  0  0  0  0  0  0  0  0
    3.4356   -1.2079    0.1162 H   0  0  0  0  0  0  0  0  0  0  0  0
    1.2856    2.5066   -0.1881 H   0  0  0  0  0  0  0  0  0  0  0  0
    1.3067   -2.4568    0.2074 H   0  0  0  0  0  0  0  0  0  0  0  0
   -1.2063    2.4873   -0.2049 H   0  0  0  0  0  0  0  0  0  0  0  0
   -3.3275    1.2399   -0.1051 H   0  0  0  0  0  0  0  0  0  0  0  0
   -1.1861   -2.4758    0.1848 H   0  0  0  0  0  0  0  0  0  0  0  0
   -4.3163   -0.9416   -0.4616 H   0  0  0  0  0  0  0  0  0  0  0  0
   -3.8506   -3.1510    0.7036 H   0  0  0  0  0  0  0  0  0  0  0  0
  1  2  2  0  0  0  0
  2 14  1  0  0  0  0
  2  4  1  0  0  0  0
  3  8  2  0  0  0  0
  3  1  1  0  0  0  0
  4 16  1  0  0  0  0
  5  6  2  0  0  0  0
  5  8  1  0  0  0  0
  6 10  1  0  0  0  0
  7 19  1  0  0  0  0
  8  9  1  0  0  0  0
  9  7  1  0  0  0  0
  9  4  2  0  0  0  0
 10  7  2  0  0  0  0
 10 11  1  0  0  0  0
 12 11  1  0  0  0  0
 12 21  1  0  0  0  0
 13  1  1  0  0  0  0
 15  3  1  0  0  0  0
 17  5  1  0  0  0  0
 18  6  1  0  0  0  0
 20 11  1  0  0  0  0
M  END
>  <HBA>
2

>  <HBD>
2

>  <TPSA>
32.26

>  <cid>
69176

>  <dipole>
1.27

>  <excitation_energy_1>
4.004

>  <excitation_energy_2>
4.441

>  <excitation_energy_3>
4.888

>  <excitation_energy_4>
5.213

>  <homo_energy>
-5.385

>  <homo_lumo_gap>
4.577

>  <logP>
2.714

>  <lumo_energy>
-0.808

>  <melting_point>
137.78

>  <molecular_refractivity>
49.18

>  <oscillator_strength_1>
0.0357

>  <oscillator_strength_2>
0.0136

>  <oscillator_strength_3>
0.0096

>  <oscillator_strength_4>
0.1035

>  <open_babel_can_smiles>
ONc1ccc2c(c1)cccc2

>  <mulliken_charges>
21
1   -0.138942
2   -0.135568
3   -0.193218
4   -0.193508
5   -0.200867
6   -0.175492
7   -0.240226
8   0.139754
9   0.134888
10   0.301827
11   -0.430767
12   -0.512111
13   0.125788
14   0.126731
15   0.125729
16   0.126523
17   0.130649
18   0.124442
19   0.135299
20   0.330368
21   0.418703

>  <lowdin_charges>
21
1   -0.167844
2   -0.157149
3   -0.153
4   -0.159868
5   -0.14492
6   -0.183654
7   -0.19625
8   -0.012856
9   0.009313
10   0.036363
11   -0.195164
12   -0.402473
13   0.156948
14   0.157142
15   0.153503
16   0.154177
17   0.156358
18   0.15678
19   0.16312
20   0.2736
21   0.355872

$$$$

