PCCDB-ID:  12194
public computational chemistry database (PCCDB) project, http://pccdb.org

 20 19  0  0  0  0  0  0  0  0999 V2000
    0.6147    0.1509    0.1162 C   0  0  0  0  0  0  0  0  0  0  0  0
    6.3586   -0.0413   -1.6389 C   0  0  0  0  0  0  0  0  0  0  0  0
    2.0992    0.3953   -0.1617 C   0  0  0  0  0  0  0  0  0  0  0  0
    5.1996    0.6585   -0.9344 C   0  0  0  0  0  0  0  0  0  0  0  0
    4.0113    0.5490    1.2531 C   0  0  0  0  0  0  0  0  0  0  0  0
    2.7721    0.7774    1.0688 N   0  0  0  0  0  0  0  0  0  0  0  0
    4.9930    0.0691    0.3951 N   0  0  0  0  0  0  0  0  0  0  0  0
    4.5377    0.7400    2.5018 O   0  0  0  0  0  0  0  0  0  0  0  0
    0.0831   -0.1184   -0.8042 H   0  0  0  0  0  0  0  0  0  0  0  0
    0.1518    1.0499    0.5366 H   0  0  0  0  0  0  0  0  0  0  0  0
    0.4877   -0.6617    0.8397 H   0  0  0  0  0  0  0  0  0  0  0  0
    6.5149    0.3876   -2.6340 H   0  0  0  0  0  0  0  0  0  0  0  0
    6.1577   -1.1121   -1.7486 H   0  0  0  0  0  0  0  0  0  0  0  0
    7.2941    0.0746   -1.0771 H   0  0  0  0  0  0  0  0  0  0  0  0
    2.1887    1.1935   -0.9159 H   0  0  0  0  0  0  0  0  0  0  0  0
    2.5423   -0.5117   -0.6046 H   0  0  0  0  0  0  0  0  0  0  0  0
    4.2876    0.5398   -1.5225 H   0  0  0  0  0  0  0  0  0  0  0  0
    5.3988    1.7398   -0.8652 H   0  0  0  0  0  0  0  0  0  0  0  0
    5.8679   -0.0528    0.8956 H   0  0  0  0  0  0  0  0  0  0  0  0
    3.7675    0.9327    3.0658 H   0  0  0  0  0  0  0  0  0  0  0  0
  1 10  1  0  0  0  0
  1 11  1  0  0  0  0
  2 14  1  0  0  0  0
  2  4  1  0  0  0  0
  3  1  1  0  0  0  0
  3  6  1  0  0  0  0
  4 18  1  0  0  0  0
  4  7  1  0  0  0  0
  5  8  1  0  0  0  0
  6  5  2  0  0  0  0
  7 19  1  0  0  0  0
  7  5  1  0  0  0  0
  8 20  1  0  0  0  0
  9  1  1  0  0  0  0
 12  2  1  0  0  0  0
 13  2  1  0  0  0  0
 15  3  1  0  0  0  0
 16  3  1  0  0  0  0
 17  4  1  0  0  0  0
M  END
>  <HBA>
3

>  <HBD>
2

>  <TPSA>
41.13

>  <cid>
12194

>  <dipole>
1.9

>  <excitation_energy_1>
5.667

>  <excitation_energy_2>
5.949

>  <excitation_energy_3>
6.194

>  <excitation_energy_4>
6.271

>  <homo_energy>
-6.071

>  <homo_lumo_gap>
7.393

>  <logP>
1.107

>  <lumo_energy>
1.322

>  <melting_point>
60.18

>  <molecular_refractivity>
32.34

>  <oscillator_strength_1>
0.0203

>  <oscillator_strength_2>
0.0164

>  <oscillator_strength_3>
0.0204

>  <oscillator_strength_4>
0.0077

>  <open_babel_can_smiles>
CCN/C(=N\CC)/O

>  <mulliken_charges>
20
1   -0.43223
2   -0.463065
3   -0.138127
4   -0.121846
5   0.64261
6   -0.476194
7   -0.600888
8   -0.611243
9   0.129762
10   0.15003
11   0.146002
12   0.155699
13   0.164506
14   0.146571
15   0.131329
16   0.131343
17   0.164754
18   0.143725
19   0.327256
20   0.410005

>  <lowdin_charges>
20
1   -0.447396
2   -0.446338
3   -0.19632
4   -0.186868
5   0.154636
6   -0.283328
7   -0.310593
8   -0.392037
9   0.144309
10   0.15302
11   0.15063
12   0.158612
13   0.156947
14   0.148785
15   0.134122
16   0.130862
17   0.156721
18   0.13293
19   0.279995
20   0.361309

$$$$

