PCCDB-ID:  21685
public computational chemistry database (PCCDB) project, http://pccdb.org

 37 37  0  0  1  0  0  0  0  0999 V2000
    2.7356    2.1053    1.1946 C   0  0  0  0  0  0  0  0  0  0  0  0
    8.0898   -1.6141    1.2389 C   0  0  0  0  0  0  0  0  0  0  0  0
    2.3082    1.1906   -2.6057 C   0  0  0  0  0  0  0  0  0  0  0  0
    7.2887   -2.4041   -2.5274 C   0  0  0  0  0  0  0  0  0  0  0  0
    2.3518    2.2283   -0.2829 C   0  0  0  0  0  0  0  0  0  0  0  0
    8.3000   -1.9733   -0.2356 C   0  0  0  0  0  0  0  0  0  0  0  0
    6.5916    1.9224   -1.3740 C   0  0  0  0  0  0  0  0  0  0  0  0
    5.2063    2.0418   -1.3220 C   0  0  0  0  0  0  0  0  0  0  0  0
    7.1767    0.6597   -1.2833 C   0  0  0  0  0  0  0  0  0  0  0  0
    2.8583    1.0692   -1.1696 C   0  0  2  0  0  0  0  0  0  0  0  0
    7.0234   -1.8878   -1.0982 C   0  0  1  0  0  0  0  0  0  0  0  0
    4.3795    0.9188   -1.1846 C   0  0  0  0  0  0  0  0  0  0  0  0
    6.4017   -0.4950   -1.1505 C   0  0  0  0  0  0  0  0  0  0  0  0
    5.0000   -0.3460   -1.1226 C   0  0  0  0  0  0  0  0  0  0  0  0
    4.2760   -1.5133   -1.0429 O   0  0  0  0  0  0  0  0  0  0  0  0
    2.3166    2.9329    1.7778 H   0  0  0  0  0  0  0  0  0  0  0  0
    3.8222    2.1140    1.3269 H   0  0  0  0  0  0  0  0  0  0  0  0
    2.3551    1.1704    1.6251 H   0  0  0  0  0  0  0  0  0  0  0  0
    9.0174   -1.7357    1.8102 H   0  0  0  0  0  0  0  0  0  0  0  0
    7.3299   -2.2601    1.6958 H   0  0  0  0  0  0  0  0  0  0  0  0
    7.7560   -0.5776    1.3553 H   0  0  0  0  0  0  0  0  0  0  0  0
    1.2128    1.2465   -2.6060 H   0  0  0  0  0  0  0  0  0  0  0  0
    2.6091    0.3354   -3.2210 H   0  0  0  0  0  0  0  0  0  0  0  0
    2.6952    2.0952   -3.0886 H   0  0  0  0  0  0  0  0  0  0  0  0
    7.6834   -3.4275   -2.5057 H   0  0  0  0  0  0  0  0  0  0  0  0
    8.0193   -1.7703   -3.0449 H   0  0  0  0  0  0  0  0  0  0  0  0
    6.3674   -2.4074   -3.1192 H   0  0  0  0  0  0  0  0  0  0  0  0
    2.7120    3.1851   -0.6829 H   0  0  0  0  0  0  0  0  0  0  0  0
    1.2578    2.2624   -0.3739 H   0  0  0  0  0  0  0  0  0  0  0  0
    8.6779   -3.0026   -0.3058 H   0  0  0  0  0  0  0  0  0  0  0  0
    9.0903   -1.3409   -0.6634 H   0  0  0  0  0  0  0  0  0  0  0  0
    7.2123    2.8079   -1.4788 H   0  0  0  0  0  0  0  0  0  0  0  0
    4.7555    3.0282   -1.3892 H   0  0  0  0  0  0  0  0  0  0  0  0
    8.2591    0.5710   -1.3175 H   0  0  0  0  0  0  0  0  0  0  0  0
    2.4123    0.1641   -0.7236 H   0  0  0  0  0  0  0  0  0  0  0  0
    6.2837   -2.5559   -0.6438 H   0  0  0  0  0  0  0  0  0  0  0  0
    3.3314   -1.3016   -1.0214 H   0  0  0  0  0  0  0  0  0  0  0  0
  1 17  1  0  0  0  0
  1 18  1  0  0  0  0
  1 16  1  0  0  0  0
  2 21  1  0  0  0  0
  2 20  1  0  0  0  0
  2 19  1  0  0  0  0
  3 10  1  0  0  0  0
  4 25  1  0  0  0  0
  4 11  1  0  0  0  0
  5  1  1  0  0  0  0
  6  2  1  0  0  0  0
  7  8  2  0  0  0  0
  7  9  1  0  0  0  0
  8 12  1  0  0  0  0
  9 13  2  0  0  0  0
 10 35  1  1  0  0  0
 10  5  1  0  0  0  0
 11 36  1  1  0  0  0
 11  6  1  0  0  0  0
 12 10  1  0  0  0  0
 12 14  2  0  0  0  0
 13 14  1  0  0  0  0
 13 11  1  0  0  0  0
 14 15  1  0  0  0  0
 15 37  1  0  0  0  0
 22  3  1  0  0  0  0
 23  3  1  0  0  0  0
 24  3  1  0  0  0  0
 26  4  1  0  0  0  0
 27  4  1  0  0  0  0
 28  5  1  0  0  0  0
 29  5  1  0  0  0  0
 30  6  1  0  0  0  0
 31  6  1  0  0  0  0
 32  7  1  0  0  0  0
 33  8  1  0  0  0  0
 34  9  1  0  0  0  0
M  END
>  <HBA>
1

>  <HBD>
1

>  <TPSA>
20.23

>  <cid>
21685

>  <dipole>
1.63

>  <excitation_energy_1>
4.924

>  <excitation_energy_2>
5.05

>  <excitation_energy_3>
5.494

>  <excitation_energy_4>
5.619

>  <homo_energy>
-5.709

>  <homo_lumo_gap>
5.842

>  <logP>
4.419

>  <lumo_energy>
0.133

>  <melting_point>
48.98

>  <molecular_refractivity>
67.24

>  <oscillator_strength_1>
0.0596

>  <oscillator_strength_2>
0.0051

>  <oscillator_strength_3>
0.0036

>  <oscillator_strength_4>
0.002

>  <open_babel_can_smiles>
CC[C@H](c1cccc(c1O)[C@H](CC)C)C

>  <mulliken_charges>
37
1   -0.4467
2   -0.44501
3   -0.434554
4   -0.440135
5   -0.250853
6   -0.253452
7   -0.128775
8   -0.209121
9   -0.206821
10   -0.187255
11   -0.14462
12   0.167184
13   0.14201
14   0.188581
15   -0.654876
16   0.143359
17   0.162219
18   0.138868
19   0.137343
20   0.141229
21   0.153417
22   0.14184
23   0.14868
24   0.152915
25   0.136557
26   0.139015
27   0.151646
28   0.137811
29   0.132314
30   0.129045
31   0.127446
32   0.121026
33   0.122087
34   0.123776
35   0.100692
36   0.151058
37   0.412054

>  <lowdin_charges>
37
1   -0.447279
2   -0.448274
3   -0.440857
4   -0.43937
5   -0.268907
6   -0.272242
7   -0.17873
8   -0.165158
9   -0.159994
10   -0.123845
11   -0.125251
12   -0.050886
13   -0.027138
14   0.082499
15   -0.38847
16   0.152049
17   0.155429
18   0.145723
19   0.147701
20   0.147834
21   0.151535
22   0.145667
23   0.152899
24   0.154265
25   0.144347
26   0.146675
27   0.15405
28   0.141938
29   0.140829
30   0.140726
31   0.136937
32   0.155311
33   0.153538
34   0.153603
35   0.127012
36   0.15673
37   0.349104

$$$$

