PCCDB-ID:  45053
public computational chemistry database (PCCDB) project, http://pccdb.org

 30 30  0  0  0  0  0  0  0  0999 V2000
    8.5170    4.3690    0.2004 C   0  0  0  0  0  0  0  0  0  0  0  0
    8.8423    0.0565    0.3143 C   0  0  0  0  0  0  0  0  0  0  0  0
    7.2657   -1.7528   -0.2399 C   0  0  0  0  0  0  0  0  0  0  0  0
    7.5583    4.5075   -0.7135 C   0  0  0  0  0  0  0  0  0  0  0  0
   11.0530    1.2907   -3.9594 C   0  0  0  0  0  0  0  0  0  0  0  0
   10.7326    2.6268   -3.7216 C   0  0  0  0  0  0  0  0  0  0  0  0
   10.2728    0.2896   -3.3828 C   0  0  0  0  0  0  0  0  0  0  0  0
    9.6415    2.9626   -2.9187 C   0  0  0  0  0  0  0  0  0  0  0  0
    7.0863    3.4399   -1.6643 C   0  0  0  0  0  0  0  0  0  0  0  0
    9.1909    0.5986   -2.5522 C   0  0  0  0  0  0  0  0  0  0  0  0
    8.8649    1.9521   -2.3400 C   0  0  0  0  0  0  0  0  0  0  0  0
    8.3272   -0.5424   -2.0653 C   0  0  0  0  0  0  0  0  0  0  0  0
    8.1677   -0.7147   -0.7139 N   0  0  0  0  0  0  0  0  0  0  0  0
    7.8199   -1.3005   -2.8903 O   0  0  0  0  0  0  0  0  0  0  0  0
    7.7696    2.1949   -1.5486 O   0  0  0  0  0  0  0  0  0  0  0  0
    8.7893    5.1855    0.8624 H   0  0  0  0  0  0  0  0  0  0  0  0
    9.0607    3.4363    0.3154 H   0  0  0  0  0  0  0  0  0  0  0  0
    9.2777   -0.6262    1.0558 H   0  0  0  0  0  0  0  0  0  0  0  0
    8.1489    0.7337    0.8290 H   0  0  0  0  0  0  0  0  0  0  0  0
    9.6496    0.6458   -0.1205 H   0  0  0  0  0  0  0  0  0  0  0  0
    7.8136   -2.5062    0.3422 H   0  0  0  0  0  0  0  0  0  0  0  0
    6.8049   -2.2296   -1.1038 H   0  0  0  0  0  0  0  0  0  0  0  0
    6.4893   -1.3186    0.4041 H   0  0  0  0  0  0  0  0  0  0  0  0
    7.0224    5.4530   -0.8064 H   0  0  0  0  0  0  0  0  0  0  0  0
   11.8958    1.0294   -4.5923 H   0  0  0  0  0  0  0  0  0  0  0  0
   11.3303    3.4206   -4.1616 H   0  0  0  0  0  0  0  0  0  0  0  0
   10.4853   -0.7567   -3.5816 H   0  0  0  0  0  0  0  0  0  0  0  0
    9.4122    4.0041   -2.7239 H   0  0  0  0  0  0  0  0  0  0  0  0
    7.1333    3.7983   -2.7028 H   0  0  0  0  0  0  0  0  0  0  0  0
    6.0335    3.2079   -1.4569 H   0  0  0  0  0  0  0  0  0  0  0  0
  1 17  1  0  0  0  0
  1 16  1  0  0  0  0
  2 19  1  0  0  0  0
  2 18  1  0  0  0  0
  3 21  1  0  0  0  0
  3 23  1  0  0  0  0
  4  1  2  0  0  0  0
  5  6  2  0  0  0  0
  5  7  1  0  0  0  0
  6  8  1  0  0  0  0
  7 10  2  0  0  0  0
  8 28  1  0  0  0  0
  8 11  2  0  0  0  0
  9 15  1  0  0  0  0
  9 30  1  0  0  0  0
  9  4  1  0  0  0  0
 10 11  1  0  0  0  0
 10 12  1  0  0  0  0
 11 15  1  0  0  0  0
 12 13  1  0  0  0  0
 13  3  1  0  0  0  0
 13  2  1  0  0  0  0
 14 12  2  0  0  0  0
 20  2  1  0  0  0  0
 22  3  1  0  0  0  0
 24  4  1  0  0  0  0
 25  5  1  0  0  0  0
 26  6  1  0  0  0  0
 27  7  1  0  0  0  0
 29  9  1  0  0  0  0
M  END
>  <HBA>
3

>  <HBD>
0

>  <TPSA>
29.54

>  <cid>
45053

>  <dipole>
4.01

>  <excitation_energy_1>
4.821

>  <excitation_energy_2>
4.912

>  <excitation_energy_3>
5.126

>  <excitation_energy_4>
5.295

>  <homo_energy>
-6.014

>  <homo_lumo_gap>
5.652

>  <logP>
1.953

>  <lumo_energy>
-0.362

>  <melting_point>
24.36

>  <molecular_refractivity>
59.97

>  <oscillator_strength_1>
0.0665

>  <oscillator_strength_2>
0.0101

>  <oscillator_strength_3>
0.0177

>  <oscillator_strength_4>
0.0049

>  <open_babel_can_smiles>
C=CCOc1ccccc1C(=O)N(C)C

>  <mulliken_charges>
30
1   -0.326826
2   -0.310405
3   -0.320292
4   -0.088389
5   -0.133854
6   -0.136531
7   -0.161456
8   -0.18347
9   -0.077764
10   -0.00384
11   0.341834
12   0.527481
13   -0.391045
14   -0.515694
15   -0.528282
16   0.146286
17   0.155323
18   0.149307
19   0.162352
20   0.17487
21   0.148509
22   0.204241
23   0.14988
24   0.135125
25   0.130472
26   0.132814
27   0.149164
28   0.142486
29   0.156249
30   0.171452

>  <lowdin_charges>
30
1   -0.333259
2   -0.356562
3   -0.359138
4   -0.172274
5   -0.174317
6   -0.145487
7   -0.131553
8   -0.206292
9   -0.123475
10   -0.061197
11   0.099593
12   0.164151
13   -0.097245
14   -0.3131
15   -0.201424
16   0.164465
17   0.164943
18   0.149646
19   0.152325
20   0.169724
21   0.148116
22   0.185266
23   0.148879
24   0.158253
25   0.160015
26   0.160651
27   0.168209
28   0.1675
29   0.151229
30   0.162355

$$$$

