PCCDB-ID:  13160
public computational chemistry database (PCCDB) project, http://pccdb.org

 22 21  0  0  1  0  0  0  0  0999 V2000
    2.3067    3.6522    1.4809 C   0  0  0  0  0  0  0  0  0  0  0  0
    4.1314    1.2095   -2.1026 C   0  0  0  0  0  0  0  0  0  0  0  0
    3.7175    2.0862   -3.2920 C   0  0  0  0  0  0  0  0  0  0  0  0
    4.4308    1.9626   -0.8002 C   0  0  1  0  0  0  0  0  0  0  0  0
    2.2415    2.4617   -3.3082 C   0  0  0  0  0  0  0  0  0  0  0  0
    5.7161    2.8197   -0.9316 C   0  0  0  0  0  0  0  0  0  0  0  0
    3.3689    3.3261    0.8471 N   0  0  0  0  0  0  0  0  0  0  0  0
    3.2827    2.7869   -0.4020 N   0  0  0  0  0  0  0  0  0  0  0  0
    1.4111    2.0605   -2.5232 O   0  0  0  0  0  0  0  0  0  0  0  0
    1.8610    3.2843   -4.3151 O   0  0  0  0  0  0  0  0  0  0  0  0
    6.5138    2.6546   -1.8283 O   0  0  0  0  0  0  0  0  0  0  0  0
    5.9195    3.7187    0.0380 O   0  0  0  0  0  0  0  0  0  0  0  0
    2.4190    4.1370    2.4449 H   0  0  0  0  0  0  0  0  0  0  0  0
    1.3012    3.4749    1.0890 H   0  0  0  0  0  0  0  0  0  0  0  0
    5.0457    0.6750   -2.3679 H   0  0  0  0  0  0  0  0  0  0  0  0
    3.3493    0.4660   -1.9162 H   0  0  0  0  0  0  0  0  0  0  0  0
    3.9163    1.5438   -4.2274 H   0  0  0  0  0  0  0  0  0  0  0  0
    4.3331    2.9930   -3.3342 H   0  0  0  0  0  0  0  0  0  0  0  0
    4.6495    1.2083   -0.0240 H   0  0  0  0  0  0  0  0  0  0  0  0
    2.3782    2.3903   -0.6659 H   0  0  0  0  0  0  0  0  0  0  0  0
    2.6314    3.5345   -4.8529 H   0  0  0  0  0  0  0  0  0  0  0  0
    5.1328    3.7285    0.6419 H   0  0  0  0  0  0  0  0  0  0  0  0
  1 13  1  0  0  0  0
  2 16  1  0  0  0  0
  2  4  1  0  0  0  0
  3  2  1  0  0  0  0
  4  8  1  0  0  0  0
  4 19  1  1  0  0  0
  5  3  1  0  0  0  0
  5  9  2  0  0  0  0
  6  4  1  0  0  0  0
  6 12  1  0  0  0  0
  7  1  2  0  0  0  0
  8  7  1  0  0  0  0
 10  5  1  0  0  0  0
 11  6  2  0  0  0  0
 12 22  1  0  0  0  0
 14  1  1  0  0  0  0
 15  2  1  0  0  0  0
 17  3  1  0  0  0  0
 18  3  1  0  0  0  0
 20  8  1  0  0  0  0
 21 10  1  0  0  0  0
M  END
>  <HBA>
6

>  <HBD>
3

>  <TPSA>
98.99

>  <cid>
13160

>  <dipole>
2.12

>  <excitation_energy_1>
5.125

>  <excitation_energy_2>
5.265

>  <excitation_energy_3>
5.445

>  <excitation_energy_4>
5.643

>  <homo_energy>
-6.449

>  <homo_lumo_gap>
5.856

>  <logP>
-0.1

>  <lumo_energy>
-0.593

>  <melting_point>
172.8

>  <molecular_refractivity>
40.99

>  <oscillator_strength_1>
0.1483

>  <oscillator_strength_2>
0.0166

>  <oscillator_strength_3>
0.0338

>  <oscillator_strength_4>
0.0022

>  <open_babel_can_smiles>
OC(=O)[C@@H](NN=C)CCC(=O)O

>  <mulliken_charges>
22
1   -0.177359
2   -0.290762
3   -0.407679
4   -0.063979
5   0.625699
6   0.618472
7   -0.192103
8   -0.454607
9   -0.464904
10   -0.558792
11   -0.467898
12   -0.583912
13   0.168817
14   0.151849
15   0.180426
16   0.165029
17   0.180722
18   0.194974
19   0.167042
20   0.356226
21   0.417632
22   0.435106

>  <lowdin_charges>
22
1   -0.277881
2   -0.276789
3   -0.325136
4   -0.101834
5   0.205997
6   0.184777
7   -0.086625
8   -0.261084
9   -0.26285
10   -0.345009
11   -0.263845
12   -0.354114
13   0.171998
14   0.149916
15   0.176699
16   0.162697
17   0.174567
18   0.178116
19   0.156198
20   0.277169
21   0.364485
22   0.352548

$$$$

