PCCDB-ID:  34810
public computational chemistry database (PCCDB) project, http://pccdb.org

 32 32  0  0  0  0  0  0  0  0999 V2000
    2.3897    1.4952    1.1732 C   0  0  0  0  0  0  0  0  0  0  0  0
    7.7081   -1.3135    0.3560 C   0  0  0  0  0  0  0  0  0  0  0  0
    1.8726   -6.3153    2.8842 C   0  0  0  0  0  0  0  0  0  0  0  0
    2.2447    0.4669    0.0369 C   0  0  0  0  0  0  0  0  0  0  0  0
    6.6825   -1.8882   -0.6378 C   0  0  0  0  0  0  0  0  0  0  0  0
    4.4251   -0.7866   -0.2886 C   0  0  0  0  0  0  0  0  0  0  0  0
    2.6622   -1.8481    0.9653 C   0  0  0  0  0  0  0  0  0  0  0  0
    4.7923   -2.9719    0.6510 C   0  0  0  0  0  0  0  0  0  0  0  0
    3.1255   -0.7499    0.2328 C   0  0  0  0  0  0  0  0  0  0  0  0
    5.2696   -1.8855   -0.0917 C   0  0  0  0  0  0  0  0  0  0  0  0
    3.5033   -2.9379    1.1715 C   0  0  0  0  0  0  0  0  0  0  0  0
    2.5742   -4.0900    3.0812 C   0  0  0  0  0  0  0  0  0  0  0  0
    2.0332   -5.0837    3.6444 N   0  0  0  0  0  0  0  0  0  0  0  0
    2.7560   -2.9138    3.7236 O   0  0  0  0  0  0  0  0  0  0  0  0
    3.0487   -4.0967    1.8096 O   0  0  0  0  0  0  0  0  0  0  0  0
    1.7386    2.3603    1.0027 H   0  0  0  0  0  0  0  0  0  0  0  0
    3.4221    1.8549    1.2469 H   0  0  0  0  0  0  0  0  0  0  0  0
    2.1231    1.0523    2.1392 H   0  0  0  0  0  0  0  0  0  0  0  0
    8.7172   -1.3278   -0.0716 H   0  0  0  0  0  0  0  0  0  0  0  0
    7.7235   -1.8947    1.2848 H   0  0  0  0  0  0  0  0  0  0  0  0
    7.4632   -0.2780    0.6174 H   0  0  0  0  0  0  0  0  0  0  0  0
    1.4677   -7.0861    3.5459 H   0  0  0  0  0  0  0  0  0  0  0  0
    2.8236   -6.6796    2.4722 H   0  0  0  0  0  0  0  0  0  0  0  0
    1.1787   -6.1895    2.0416 H   0  0  0  0  0  0  0  0  0  0  0  0
    2.4916    0.9473   -0.9181 H   0  0  0  0  0  0  0  0  0  0  0  0
    1.1954    0.1539   -0.0338 H   0  0  0  0  0  0  0  0  0  0  0  0
    6.9720   -2.9130   -0.9020 H   0  0  0  0  0  0  0  0  0  0  0  0
    6.7152   -1.3054   -1.5669 H   0  0  0  0  0  0  0  0  0  0  0  0
    4.7840    0.0585   -0.8736 H   0  0  0  0  0  0  0  0  0  0  0  0
    1.6553   -1.8577    1.3709 H   0  0  0  0  0  0  0  0  0  0  0  0
    5.4079   -3.8506    0.8205 H   0  0  0  0  0  0  0  0  0  0  0  0
    2.3937   -3.0647    4.6146 H   0  0  0  0  0  0  0  0  0  0  0  0
  1 17  1  0  0  0  0
  1 18  1  0  0  0  0
  2 21  1  0  0  0  0
  2 20  1  0  0  0  0
  3 22  1  0  0  0  0
  3 13  1  0  0  0  0
  4  9  1  0  0  0  0
  4  1  1  0  0  0  0
  5 10  1  0  0  0  0
  5  2  1  0  0  0  0
  6 10  2  0  0  0  0
  6  9  1  0  0  0  0
  7 11  1  0  0  0  0
  7 30  1  0  0  0  0
  8 31  1  0  0  0  0
  8 11  2  0  0  0  0
  9  7  2  0  0  0  0
 10  8  1  0  0  0  0
 11 15  1  0  0  0  0
 12 13  2  0  0  0  0
 12 14  1  0  0  0  0
 14 32  1  0  0  0  0
 15 12  1  0  0  0  0
 16  1  1  0  0  0  0
 19  2  1  0  0  0  0
 23  3  1  0  0  0  0
 24  3  1  0  0  0  0
 25  4  1  0  0  0  0
 26  4  1  0  0  0  0
 27  5  1  0  0  0  0
 28  5  1  0  0  0  0
 29  6  1  0  0  0  0
M  END
>  <HBA>
3

>  <HBD>
1

>  <TPSA>
38.33

>  <cid>
34810

>  <dipole>
1.77

>  <excitation_energy_1>
5.099

>  <excitation_energy_2>
5.578

>  <excitation_energy_3>
5.803

>  <excitation_energy_4>
5.826

>  <homo_energy>
-6.27

>  <homo_lumo_gap>
6.212

>  <logP>
2.921

>  <lumo_energy>
-0.057

>  <melting_point>
75.01

>  <molecular_refractivity>
60.68

>  <oscillator_strength_1>
0.0023

>  <oscillator_strength_2>
0.0465

>  <oscillator_strength_3>
0.0082

>  <oscillator_strength_4>
0.0425

>  <open_babel_can_smiles>
C/N=C(\Oc1cc(CC)cc(c1)CC)/O

>  <mulliken_charges>
32
1   -0.434052
2   -0.433862
3   -0.314669
4   -0.340595
5   -0.34028
6   -0.234096
7   -0.198245
8   -0.222144
9   0.168391
10   0.172146
11   0.360013
12   0.711025
13   -0.48785
14   -0.594231
15   -0.537407
16   0.144198
17   0.149564
18   0.153313
19   0.144664
20   0.151616
21   0.149772
22   0.151839
23   0.148784
24   0.148488
25   0.143877
26   0.144703
27   0.145239
28   0.144113
29   0.116043
30   0.133528
31   0.132976
32   0.423139

>  <lowdin_charges>
32
1   -0.439317
2   -0.43817
3   -0.353823
4   -0.268745
5   -0.269301
6   -0.185488
7   -0.183983
8   -0.188053
9   0.00916
10   0.009328
11   0.106329
12   0.192224
13   -0.270353
14   -0.359584
15   -0.158517
16   0.150191
17   0.14992
18   0.152357
19   0.149255
20   0.151737
21   0.149853
22   0.152327
23   0.145308
24   0.146225
25   0.149226
26   0.148451
27   0.149138
28   0.14955
29   0.153324
30   0.163836
31   0.165508
32   0.372088

$$$$

