PCCDB-ID:  17595
public computational chemistry database (PCCDB) project, http://pccdb.org

 19 19  0  0  0  0  0  0  0  0999 V2000
    3.9126   -0.7306    0.1439 C   0  0  0  0  0  0  0  0  0  0  0  0
    2.6214    0.0918    0.0659 C   0  0  0  0  0  0  0  0  0  0  0  0
    2.6074    2.5927   -2.7421 C   0  0  0  0  0  0  0  0  0  0  0  0
    3.1077    3.4309   -1.5549 C   0  0  0  0  0  0  0  0  0  0  0  0
    2.7938    1.1343   -2.2674 C   0  0  0  0  0  0  0  0  0  0  0  0
    2.9248    2.5152   -0.3420 C   0  0  0  0  0  0  0  0  0  0  0  0
    2.7141    1.2427   -0.8165 N   0  0  0  0  0  0  0  0  0  0  0  0
    2.9731    2.8356    0.8360 O   0  0  0  0  0  0  0  0  0  0  0  0
    3.7859   -1.5669    0.8407 H   0  0  0  0  0  0  0  0  0  0  0  0
    4.7414   -0.1109    0.5019 H   0  0  0  0  0  0  0  0  0  0  0  0
    4.1898   -1.1478   -0.8310 H   0  0  0  0  0  0  0  0  0  0  0  0
    2.3675    0.4880    1.0528 H   0  0  0  0  0  0  0  0  0  0  0  0
    1.7886   -0.5403   -0.2710 H   0  0  0  0  0  0  0  0  0  0  0  0
    3.1396    2.7924   -3.6762 H   0  0  0  0  0  0  0  0  0  0  0  0
    1.5436    2.7871   -2.9158 H   0  0  0  0  0  0  0  0  0  0  0  0
    2.5727    4.3723   -1.4074 H   0  0  0  0  0  0  0  0  0  0  0  0
    4.1754    3.6722   -1.6393 H   0  0  0  0  0  0  0  0  0  0  0  0
    3.7652    0.7262   -2.5869 H   0  0  0  0  0  0  0  0  0  0  0  0
    2.0141    0.4629   -2.6482 H   0  0  0  0  0  0  0  0  0  0  0  0
  1 10  1  0  0  0  0
  1  9  1  0  0  0  0
  2  1  1  0  0  0  0
  2 12  1  0  0  0  0
  3  5  1  0  0  0  0
  3  4  1  0  0  0  0
  4 16  1  0  0  0  0
  4  6  1  0  0  0  0
  5  7  1  0  0  0  0
  6  8  2  0  0  0  0
  7  6  1  0  0  0  0
  7  2  1  0  0  0  0
 11  1  1  0  0  0  0
 13  2  1  0  0  0  0
 14  3  1  0  0  0  0
 15  3  1  0  0  0  0
 17  4  1  0  0  0  0
 18  5  1  0  0  0  0
 19  5  1  0  0  0  0
M  END
>  <HBA>
2

>  <HBD>
0

>  <TPSA>
20.31

>  <cid>
17595

>  <dipole>
3.71

>  <excitation_energy_1>
5.639

>  <excitation_energy_2>
5.821

>  <excitation_energy_3>
6.185

>  <excitation_energy_4>
6.249

>  <homo_energy>
-6.297

>  <homo_lumo_gap>
7.306

>  <logP>
0.567

>  <lumo_energy>
1.01

>  <melting_point>
20.04

>  <molecular_refractivity>
35.85

>  <oscillator_strength_1>
0.0031

>  <oscillator_strength_2>
0.0189

>  <oscillator_strength_3>
0.0197

>  <oscillator_strength_4>
0.0111

>  <open_babel_can_smiles>
CCN1CCCC1=O

>  <mulliken_charges>
19
1   -0.447911
2   -0.140727
3   -0.297831
4   -0.370599
5   -0.118971
6   0.588339
7   -0.412609
8   -0.52291
9   0.150286
10   0.164831
11   0.144363
12   0.184029
13   0.139187
14   0.148992
15   0.157804
16   0.172736
17   0.169039
18   0.144914
19   0.147038

>  <lowdin_charges>
19
1   -0.453306
2   -0.196825
3   -0.279672
4   -0.303592
5   -0.194537
6   0.14674
7   -0.110245
8   -0.309854
9   0.156828
10   0.160016
11   0.147314
12   0.17161
13   0.143599
14   0.153113
15   0.151946
16   0.168639
17   0.164271
18   0.136936
19   0.147018

$$$$

