PCCDB-ID:  11385
public computational chemistry database (PCCDB) project, http://pccdb.org

 25 27  0  0  0  0  0  0  0  0999 V2000
   -3.6372   -0.6787    0.0367 C   0  0  0  0  0  0  0  0  0  0  0  0
   -3.5835    0.7457    0.0204 C   0  0  0  0  0  0  0  0  0  0  0  0
   -2.4794   -1.4129    0.0323 C   0  0  0  0  0  0  0  0  0  0  0  0
   -2.3808    1.4039    0.0005 C   0  0  0  0  0  0  0  0  0  0  0  0
    2.4929   -1.3985   -0.0182 C   0  0  0  0  0  0  0  0  0  0  0  0
    3.6444   -0.6659   -0.0416 C   0  0  0  0  0  0  0  0  0  0  0  0
    0.0084   -1.4591    0.0077 C   0  0  0  0  0  0  0  0  0  0  0  0
    2.3846    1.4156   -0.0479 C   0  0  0  0  0  0  0  0  0  0  0  0
   -1.2080   -0.7657    0.0120 C   0  0  0  0  0  0  0  0  0  0  0  0
    1.2139   -0.7610   -0.0137 C   0  0  0  0  0  0  0  0  0  0  0  0
    3.6045    0.7704   -0.0564 C   0  0  0  0  0  0  0  0  0  0  0  0
   -1.1492    0.6776   -0.0046 C   0  0  0  0  0  0  0  0  0  0  0  0
    1.1630    0.6859   -0.0315 C   0  0  0  0  0  0  0  0  0  0  0  0
    4.8092    1.4635   -0.1369 N   0  0  0  0  0  0  0  0  0  0  0  0
    0.0042    1.3688   -0.0253 N   0  0  0  0  0  0  0  0  0  0  0  0
   -4.6022   -1.1778    0.0524 H   0  0  0  0  0  0  0  0  0  0  0  0
   -4.5117    1.3112    0.0239 H   0  0  0  0  0  0  0  0  0  0  0  0
   -2.5105   -2.5003    0.0443 H   0  0  0  0  0  0  0  0  0  0  0  0
   -2.3194    2.4876   -0.0124 H   0  0  0  0  0  0  0  0  0  0  0  0
    2.5360   -2.4852   -0.0056 H   0  0  0  0  0  0  0  0  0  0  0  0
    4.6118   -1.1628   -0.0588 H   0  0  0  0  0  0  0  0  0  0  0  0
    0.0117   -2.5481    0.0203 H   0  0  0  0  0  0  0  0  0  0  0  0
    2.3190    2.4999   -0.0568 H   0  0  0  0  0  0  0  0  0  0  0  0
    5.6094    1.0028    0.2777 H   0  0  0  0  0  0  0  0  0  0  0  0
    4.7628    2.4435    0.1121 H   0  0  0  0  0  0  0  0  0  0  0  0
  1 16  1  0  0  0  0
  2 17  1  0  0  0  0
  2  1  2  0  0  0  0
  3  1  1  0  0  0  0
  3 18  1  0  0  0  0
  4  2  1  0  0  0  0
  5 10  1  0  0  0  0
  5 20  1  0  0  0  0
  6  5  2  0  0  0  0
  7  9  1  0  0  0  0
  7 22  1  0  0  0  0
  8 13  1  0  0  0  0
  9  3  2  0  0  0  0
 10  7  2  0  0  0  0
 11  8  2  0  0  0  0
 11  6  1  0  0  0  0
 12  4  2  0  0  0  0
 12  9  1  0  0  0  0
 13 15  2  0  0  0  0
 13 10  1  0  0  0  0
 14 11  1  0  0  0  0
 14 25  1  0  0  0  0
 14 24  1  0  0  0  0
 15 12  1  0  0  0  0
 19  4  1  0  0  0  0
 21  6  1  0  0  0  0
 23  8  1  0  0  0  0
M  END
>  <HBA>
2

>  <HBD>
1

>  <TPSA>
38.91

>  <cid>
11385

>  <dipole>
2.75

>  <excitation_energy_1>
3.072

>  <excitation_energy_2>
3.738

>  <excitation_energy_3>
3.823

>  <excitation_energy_4>
4.29

>  <homo_energy>
-5.225

>  <homo_lumo_gap>
3.508

>  <logP>
3.551

>  <lumo_energy>
-1.717

>  <melting_point>
158.65

>  <molecular_refractivity>
63.65

>  <oscillator_strength_1>
0.067

>  <oscillator_strength_2>
0.0712

>  <oscillator_strength_3>
0.0006

>  <oscillator_strength_4>
0.0456

>  <open_babel_can_smiles>
Nc1ccc2c(c1)nc1c(c2)cccc1

>  <mulliken_charges>
25
1   -0.14188
2   -0.135678
3   -0.186207
4   -0.147788
5   -0.192769
6   -0.170072
7   -0.23241
8   -0.225476
9   0.147319
10   0.152384
11   0.327184
12   0.2549
13   0.262768
14   -0.79182
15   -0.620597
16   0.129515
17   0.131084
18   0.128385
19   0.139363
20   0.133809
21   0.126424
22   0.133745
23   0.12692
24   0.323137
25   0.327761

>  <lowdin_charges>
25
1   -0.164523
2   -0.152626
3   -0.152644
4   -0.154396
5   -0.142077
6   -0.180967
7   -0.12521
8   -0.216401
9   -0.0272
10   -0.03018
11   0.064324
12   0.047666
13   0.055659
14   -0.476976
15   -0.17284
16   0.1583
17   0.159497
18   0.154627
19   0.16556
20   0.157815
21   0.157134
22   0.156632
23   0.161575
24   0.278774
25   0.278476

$$$$

