PCCDB-ID:  65765
public computational chemistry database (PCCDB) project, http://pccdb.org

 31 31  0  0  1  0  0  0  0  0999 V2000
    4.0693    1.8938   -1.0188 C   0  0  0  0  0  0  0  0  0  0  0  0
    2.1619    2.7677    0.3929 C   0  0  0  0  0  0  0  0  0  0  0  0
    4.8073   -0.8955    4.1659 C   0  0  0  0  0  0  0  0  0  0  0  0
    4.9462    0.5663    3.7136 C   0  0  0  0  0  0  0  0  0  0  0  0
    4.0015   -1.7221    3.1527 C   0  0  0  0  0  0  0  0  0  0  0  0
    3.5716    1.1933    3.4246 C   0  0  0  0  0  0  0  0  0  0  0  0
    2.6366   -1.0805    2.8499 C   0  0  0  0  0  0  0  0  0  0  0  0
    3.4557    1.9373    0.3891 C   0  0  0  0  0  0  0  0  0  0  0  0
    2.7460    0.3936    2.3905 C   0  0  0  0  0  0  0  0  0  0  0  0
    3.2590    0.4981    0.9312 C   0  0  1  0  0  0  0  0  0  0  0  0
    2.4107   -0.2638    0.0583 O   0  0  0  0  0  0  0  0  0  0  0  0
    4.2478    2.9057   -1.4009 H   0  0  0  0  0  0  0  0  0  0  0  0
    3.4035    1.3733   -1.7145 H   0  0  0  0  0  0  0  0  0  0  0  0
    5.0284    1.3617   -1.0166 H   0  0  0  0  0  0  0  0  0  0  0  0
    2.3484    3.7704   -0.0076 H   0  0  0  0  0  0  0  0  0  0  0  0
    1.7439    2.8872    1.3986 H   0  0  0  0  0  0  0  0  0  0  0  0
    1.3934    2.3086   -0.2429 H   0  0  0  0  0  0  0  0  0  0  0  0
    4.2959   -0.9200    5.1401 H   0  0  0  0  0  0  0  0  0  0  0  0
    5.7977   -1.3420    4.3224 H   0  0  0  0  0  0  0  0  0  0  0  0
    5.5774    0.6127    2.8145 H   0  0  0  0  0  0  0  0  0  0  0  0
    5.4651    1.1534    4.4822 H   0  0  0  0  0  0  0  0  0  0  0  0
    3.8512   -2.7418    3.5299 H   0  0  0  0  0  0  0  0  0  0  0  0
    4.5798   -1.8248    2.2239 H   0  0  0  0  0  0  0  0  0  0  0  0
    3.6867    2.2377    3.1133 H   0  0  0  0  0  0  0  0  0  0  0  0
    2.9985    1.2195    4.3629 H   0  0  0  0  0  0  0  0  0  0  0  0
    2.0237   -1.1109    3.7626 H   0  0  0  0  0  0  0  0  0  0  0  0
    2.1078   -1.6631    2.0891 H   0  0  0  0  0  0  0  0  0  0  0  0
    4.1786    2.4358    1.0492 H   0  0  0  0  0  0  0  0  0  0  0  0
    1.7271    0.8134    2.3899 H   0  0  0  0  0  0  0  0  0  0  0  0
    4.2275   -0.0092    0.8518 H   0  0  0  0  0  0  0  0  0  0  0  0
    1.5036    0.0577    0.1862 H   0  0  0  0  0  0  0  0  0  0  0  0
  1 14  1  0  0  0  0
  1  8  1  0  0  0  0
  2 16  1  0  0  0  0
  3 19  1  0  0  0  0
  3 18  1  0  0  0  0
  4  3  1  0  0  0  0
  4 21  1  0  0  0  0
  5 22  1  0  0  0  0
  5  3  1  0  0  0  0
  6  4  1  0  0  0  0
  6 25  1  0  0  0  0
  7  5  1  0  0  0  0
  7 26  1  0  0  0  0
  8  2  1  0  0  0  0
  8 10  1  0  0  0  0
  8 28  1  0  0  0  0
  9  7  1  0  0  0  0
  9  6  1  0  0  0  0
 10 30  1  6  0  0  0
 10  9  1  0  0  0  0
 11 31  1  0  0  0  0
 11 10  1  0  0  0  0
 12  1  1  0  0  0  0
 13  1  1  0  0  0  0
 15  2  1  0  0  0  0
 17  2  1  0  0  0  0
 20  4  1  0  0  0  0
 23  5  1  0  0  0  0
 24  6  1  0  0  0  0
 27  7  1  0  0  0  0
 29  9  1  0  0  0  0
M  END
>  <HBA>
1

>  <HBD>
1

>  <TPSA>
20.23

>  <cid>
65765

>  <dipole>
1.53

>  <excitation_energy_1>
6.324

>  <excitation_energy_2>
6.773

>  <excitation_energy_3>
6.937

>  <excitation_energy_4>
7.117

>  <homo_energy>
-6.996

>  <homo_lumo_gap>
8.776

>  <logP>
2.584

>  <lumo_energy>
1.78

>  <melting_point>
11.98

>  <molecular_refractivity>
49.23

>  <oscillator_strength_1>
0.0003

>  <oscillator_strength_2>
0.0035

>  <oscillator_strength_3>
0.0168

>  <oscillator_strength_4>
0.0023

>  <open_babel_can_smiles>
O[C@H](C1CCCCC1)C(C)C

>  <mulliken_charges>
31
1   -0.442804
2   -0.468053
3   -0.253787
4   -0.262218
5   -0.264756
6   -0.275187
7   -0.261026
8   -0.082812
9   -0.115886
10   0.140159
11   -0.631914
12   0.133955
13   0.158382
14   0.136805
15   0.148082
16   0.147737
17   0.132956
18   0.12553
19   0.128962
20   0.131668
21   0.130475
22   0.13045
23   0.137419
24   0.134832
25   0.128244
26   0.121125
27   0.144864
28   0.125866
29   0.10492
30   0.130045
31   0.385968

>  <lowdin_charges>
31
1   -0.445424
2   -0.453247
3   -0.277052
4   -0.281821
5   -0.279022
6   -0.280912
7   -0.28425
8   -0.14088
9   -0.14786
10   -0.00754
11   -0.460026
12   0.144462
13   0.156588
14   0.146537
15   0.153213
16   0.147825
17   0.14288
18   0.135775
19   0.141997
20   0.137567
21   0.145049
22   0.143272
23   0.140661
24   0.141842
25   0.141226
26   0.136959
27   0.152501
28   0.142031
29   0.131058
30   0.140402
31   0.33619

$$$$

