PCCDB-ID:  10325
public computational chemistry database (PCCDB) project, http://pccdb.org

 25 26  0  0  1  0  0  0  0  0999 V2000
   -2.3058    0.7157    0.2763 C   0  0  0  0  0  0  0  0  0  0  0  0
   -2.3040   -0.7275   -0.2637 C   0  0  0  0  0  0  0  0  0  0  0  0
    2.5347    0.0079   -0.0106 C   0  0  0  0  0  0  0  0  0  0  0  0
   -1.0357    1.4962   -0.1173 C   0  0  0  0  0  0  0  0  0  0  0  0
   -1.0262   -1.5008    0.1191 C   0  0  0  0  0  0  0  0  0  0  0  0
    1.5929    1.2480   -0.0996 C   0  0  0  0  0  0  0  0  0  0  0  0
    1.6008   -1.2383    0.0790 C   0  0  0  0  0  0  0  0  0  0  0  0
    0.2088    0.7098    0.2968 C   0  0  2  0  0  0  0  0  0  0  0  0
    0.2102   -0.7073   -0.3053 C   0  0  2  0  0  0  0  0  0  0  0  0
   -2.3780    0.6874    1.3737 H   0  0  0  0  0  0  0  0  0  0  0  0
   -3.2000    1.2443   -0.0781 H   0  0  0  0  0  0  0  0  0  0  0  0
   -2.3858   -0.6995   -1.3605 H   0  0  0  0  0  0  0  0  0  0  0  0
   -3.1922   -1.2611    0.0984 H   0  0  0  0  0  0  0  0  0  0  0  0
    3.1899    0.0679    0.8651 H   0  0  0  0  0  0  0  0  0  0  0  0
    3.1910   -0.0477   -0.8857 H   0  0  0  0  0  0  0  0  0  0  0  0
   -1.0471    2.4927    0.3444 H   0  0  0  0  0  0  0  0  0  0  0  0
   -1.0202    1.6547   -1.2065 H   0  0  0  0  0  0  0  0  0  0  0  0
   -1.0358   -2.4972   -0.3428 H   0  0  0  0  0  0  0  0  0  0  0  0
   -1.0007   -1.6595    1.2081 H   0  0  0  0  0  0  0  0  0  0  0  0
    1.5568    1.6254   -1.1306 H   0  0  0  0  0  0  0  0  0  0  0  0
    1.9264    2.0788    0.5321 H   0  0  0  0  0  0  0  0  0  0  0  0
    1.5746   -1.6213    1.1081 H   0  0  0  0  0  0  0  0  0  0  0  0
    1.9346   -2.0639   -0.5593 H   0  0  0  0  0  0  0  0  0  0  0  0
    0.1872    0.5953    1.3945 H   0  0  0  0  0  0  0  0  0  0  0  0
    0.1786   -0.5925   -1.4027 H   0  0  0  0  0  0  0  0  0  0  0  0
  1 10  1  0  0  0  0
  2 13  1  0  0  0  0
  2  5  1  0  0  0  0
  2  1  1  0  0  0  0
  3  7  1  0  0  0  0
  3 14  1  0  0  0  0
  4  1  1  0  0  0  0
  4  8  1  0  0  0  0
  4 16  1  0  0  0  0
  5 19  1  0  0  0  0
  6  3  1  0  0  0  0
  6  8  1  0  0  0  0
  6 21  1  0  0  0  0
  7 22  1  0  0  0  0
  8 24  1  1  0  0  0
  9 25  1  6  0  0  0
  9  7  1  0  0  0  0
  9  5  1  0  0  0  0
  9  8  1  0  0  0  0
 11  1  1  0  0  0  0
 12  2  1  0  0  0  0
 15  3  1  0  0  0  0
 17  4  1  0  0  0  0
 18  5  1  0  0  0  0
 20  6  1  0  0  0  0
 23  7  1  0  0  0  0
M  END
>  <HBA>
0

>  <HBD>
0

>  <TPSA>
0.0

>  <cid>
10325

>  <dipole>
0.06

>  <excitation_energy_1>
7.21

>  <excitation_energy_2>
7.457

>  <excitation_energy_3>
7.511

>  <excitation_energy_4>
7.518

>  <homo_energy>
-7.641

>  <homo_lumo_gap>
10.071

>  <logP>
2.977

>  <lumo_energy>
2.43

>  <melting_point>
16.6

>  <molecular_refractivity>
41.15

>  <oscillator_strength_1>
0.0023

>  <oscillator_strength_2>
0.0124

>  <oscillator_strength_3>
0.0107

>  <oscillator_strength_4>
0.0106

>  <open_babel_can_smiles>
C1CC[C@H]2[C@H](C1)CCC2

>  <mulliken_charges>
25
1   -0.260599
2   -0.260634
3   -0.277419
4   -0.260021
5   -0.260096
6   -0.273272
7   -0.273427
8   -0.077305
9   -0.077181
10   0.127393
11   0.128857
12   0.127393
13   0.12886
14   0.134758
15   0.134722
16   0.126904
17   0.122641
18   0.126916
19   0.122646
20   0.128596
21   0.129712
22   0.128662
23   0.129775
24   0.111051
25   0.111066

>  <lowdin_charges>
25
1   -0.27612
2   -0.276193
3   -0.286047
4   -0.274545
5   -0.274551
6   -0.283807
7   -0.283949
8   -0.130849
9   -0.130831
10   0.135063
11   0.143442
12   0.135077
13   0.14349
14   0.144458
15   0.144477
16   0.140917
17   0.134026
18   0.140919
19   0.134023
20   0.138123
21   0.14392
22   0.138205
23   0.143964
24   0.128391
25   0.128396

$$$$

