PCCDB-ID:  1390
public computational chemistry database (PCCDB) project, http://pccdb.org

 12 12  0  0  0  0  0  0  0  0999 V2000
    0.9865   -0.0601    0.0790 C   0  0  0  0  0  0  0  0  0  0  0  0
    4.5410    0.5979    0.0696 C   0  0  0  0  0  0  0  0  0  0  0  0
    3.2549    1.0770    0.0779 C   0  0  0  0  0  0  0  0  0  0  0  0
    3.2750   -1.1225    0.0636 C   0  0  0  0  0  0  0  0  0  0  0  0
    4.5458   -0.7787    0.0606 N   0  0  0  0  0  0  0  0  0  0  0  0
    2.4401   -0.0390    0.0743 N   0  0  0  0  0  0  0  0  0  0  0  0
    0.6156    0.9662    0.0532 H   0  0  0  0  0  0  0  0  0  0  0  0
    0.6053   -0.5461    0.9832 H   0  0  0  0  0  0  0  0  0  0  0  0
    0.6030   -0.5912   -0.7982 H   0  0  0  0  0  0  0  0  0  0  0  0
    5.4625    1.1645    0.0689 H   0  0  0  0  0  0  0  0  0  0  0  0
    2.8447    2.0763    0.0861 H   0  0  0  0  0  0  0  0  0  0  0  0
    2.8943   -2.1362    0.0586 H   0  0  0  0  0  0  0  0  0  0  0  0
  1  8  1  0  0  0  0
  2  3  2  0  0  0  0
  3 11  1  0  0  0  0
  4  6  1  0  0  0  0
  5  4  2  0  0  0  0
  5  2  1  0  0  0  0
  6  3  1  0  0  0  0
  6  1  1  0  0  0  0
  7  1  1  0  0  0  0
  9  1  1  0  0  0  0
 10  2  1  0  0  0  0
 12  4  1  0  0  0  0
M  END
>  <HBA>
2

>  <HBD>
0

>  <TPSA>
17.82

>  <cid>
1390

>  <dipole>
4.07

>  <excitation_energy_1>
5.407

>  <excitation_energy_2>
5.824

>  <excitation_energy_3>
6.07

>  <excitation_energy_4>
6.259

>  <homo_energy>
-5.981

>  <homo_lumo_gap>
6.841

>  <logP>
0.42

>  <lumo_energy>
0.86

>  <melting_point>
20.98

>  <molecular_refractivity>
23.49

>  <oscillator_strength_1>
0.0043

>  <oscillator_strength_2>
0.1063

>  <oscillator_strength_3>
0.0143

>  <oscillator_strength_4>
0.0022

>  <open_babel_can_smiles>
Cn1cncc1

>  <mulliken_charges>
12
1   -0.323876
2   -0.03906
3   0.007833
4   0.192633
5   -0.432982
6   -0.363636
7   0.175472
8   0.178596
9   0.178539
10   0.132515
11   0.146471
12   0.147494

>  <lowdin_charges>
12
1   -0.345312
2   -0.159762
3   -0.177669
4   -0.108669
5   -0.186218
6   -0.009211
7   0.168617
8   0.164297
9   0.164967
10   0.160804
11   0.165641
12   0.162516

$$$$

