PCCDB-ID:  14489
public computational chemistry database (PCCDB) project, http://pccdb.org

 21 20  0  0  0  0  0  0  0  0999 V2000
    0.6492   -0.1190   -0.1552 C   0  0  0  0  0  0  0  0  0  0  0  0
    2.2054    1.6927    0.7212 C   0  0  0  0  0  0  0  0  0  0  0  0
    5.9465    1.3072   -3.2854 C   0  0  0  0  0  0  0  0  0  0  0  0
    3.1000   -0.4295   -0.3257 C   0  0  0  0  0  0  0  0  0  0  0  0
    4.5606   -0.1426   -0.1534 C   0  0  0  0  0  0  0  0  0  0  0  0
    2.0707    0.3439    0.0561 C   0  0  0  0  0  0  0  0  0  0  0  0
    5.3028    1.2940   -1.9172 C   0  0  0  0  0  0  0  0  0  0  0  0
    4.9152    2.2775   -1.3225 O   0  0  0  0  0  0  0  0  0  0  0  0
    5.2219    0.0311   -1.4432 O   0  0  0  0  0  0  0  0  0  0  0  0
    0.1018   -0.1493    0.7971 H   0  0  0  0  0  0  0  0  0  0  0  0
    0.6018   -1.1148   -0.6068 H   0  0  0  0  0  0  0  0  0  0  0  0
    0.1039    0.5798   -0.8044 H   0  0  0  0  0  0  0  0  0  0  0  0
    1.4885    2.3990    0.2833 H   0  0  0  0  0  0  0  0  0  0  0  0
    3.2006    2.1256    0.6090 H   0  0  0  0  0  0  0  0  0  0  0  0
    1.9629    1.6264    1.7913 H   0  0  0  0  0  0  0  0  0  0  0  0
    6.1009    2.3385   -3.6045 H   0  0  0  0  0  0  0  0  0  0  0  0
    5.2986    0.7932   -4.0039 H   0  0  0  0  0  0  0  0  0  0  0  0
    6.9004    0.7714   -3.2642 H   0  0  0  0  0  0  0  0  0  0  0  0
    2.8795   -1.3821   -0.8076 H   0  0  0  0  0  0  0  0  0  0  0  0
    5.0751   -1.0040    0.2826 H   0  0  0  0  0  0  0  0  0  0  0  0
    4.7527    0.7370    0.4600 H   0  0  0  0  0  0  0  0  0  0  0  0
  1  6  1  0  0  0  0
  1 10  1  0  0  0  0
  2 15  1  0  0  0  0
  3 18  1  0  0  0  0
  3  7  1  0  0  0  0
  4  5  1  0  0  0  0
  4  6  2  0  0  0  0
  5 20  1  0  0  0  0
  5 21  1  0  0  0  0
  6  2  1  0  0  0  0
  7  9  1  0  0  0  0
  7  8  2  0  0  0  0
  9  5  1  0  0  0  0
 11  1  1  0  0  0  0
 12  1  1  0  0  0  0
 13  2  1  0  0  0  0
 14  2  1  0  0  0  0
 16  3  1  0  0  0  0
 17  3  1  0  0  0  0
 19  4  1  0  0  0  0
M  END
>  <HBA>
2

>  <HBD>
0

>  <TPSA>
26.3

>  <cid>
14489

>  <dipole>
1.4

>  <excitation_energy_1>
5.782

>  <excitation_energy_2>
6.1

>  <excitation_energy_3>
6.193

>  <excitation_energy_4>
6.362

>  <homo_energy>
-6.58

>  <homo_lumo_gap>
6.917

>  <logP>
1.516

>  <lumo_energy>
0.337

>  <melting_point>
-1.58

>  <molecular_refractivity>
36.57

>  <oscillator_strength_1>
0.002

>  <oscillator_strength_2>
0.0132

>  <oscillator_strength_3>
0.0199

>  <oscillator_strength_4>
0.2595

>  <open_babel_can_smiles>
CC(=O)OCC=C(C)C

>  <mulliken_charges>
21
1   -0.508628
2   -0.528313
3   -0.522832
4   -0.183598
5   -0.095174
6   0.204037
7   0.601429
8   -0.468078
9   -0.449698
10   0.154588
11   0.153174
12   0.156899
13   0.153557
14   0.1927
15   0.152033
16   0.180214
17   0.181959
18   0.17913
19   0.121404
20   0.153197
21   0.172

>  <lowdin_charges>
21
1   -0.44068
2   -0.450964
3   -0.465946
4   -0.215156
5   -0.131865
6   0.019277
7   0.203986
8   -0.271992
9   -0.201911
10   0.156307
11   0.154622
12   0.158928
13   0.159318
14   0.17257
15   0.155056
16   0.173398
17   0.179261
18   0.175771
19   0.149786
20   0.157011
21   0.163225

$$$$

