PCCDB-ID:  11584
public computational chemistry database (PCCDB) project, http://pccdb.org

 15 14  0  0  0  0  0  0  0  0999 V2000
    1.2577    1.0421    0.0754 C   0  0  0  0  0  0  0  0  0  0  0  0
    6.2550    0.7309    1.4398 C   0  0  0  0  0  0  0  0  0  0  0  0
    2.1228    0.0300    0.0205 C   0  0  0  0  0  0  0  0  0  0  0  0
    2.7840   -0.5669    1.2282 C   0  0  0  0  0  0  0  0  0  0  0  0
    4.7647    0.6837    1.6869 C   0  0  0  0  0  0  0  0  0  0  0  0
    4.1264    1.5272    2.2757 O   0  0  0  0  0  0  0  0  0  0  0  0
    4.2282   -0.4385    1.1438 O   0  0  0  0  0  0  0  0  0  0  0  0
    0.7859    1.4409   -0.8187 H   0  0  0  0  0  0  0  0  0  0  0  0
    0.9919    1.5119    1.0194 H   0  0  0  0  0  0  0  0  0  0  0  0
    6.7073    1.4780    2.0934 H   0  0  0  0  0  0  0  0  0  0  0  0
    6.4404    1.0099    0.3961 H   0  0  0  0  0  0  0  0  0  0  0  0
    6.7100   -0.2494    1.6052 H   0  0  0  0  0  0  0  0  0  0  0  0
    2.3902   -0.4157   -0.9372 H   0  0  0  0  0  0  0  0  0  0  0  0
    2.6163   -1.6471    1.2812 H   0  0  0  0  0  0  0  0  0  0  0  0
    2.4338   -0.0941    2.1479 H   0  0  0  0  0  0  0  0  0  0  0  0
  1  9  1  0  0  0  0
  2 12  1  0  0  0  0
  2  5  1  0  0  0  0
  2 10  1  0  0  0  0
  3  1  2  0  0  0  0
  3  4  1  0  0  0  0
  4 14  1  0  0  0  0
  4 15  1  0  0  0  0
  5  6  2  0  0  0  0
  7  4  1  0  0  0  0
  7  5  1  0  0  0  0
  8  1  1  0  0  0  0
 11  2  1  0  0  0  0
 13  3  1  0  0  0  0
M  END
>  <HBA>
2

>  <HBD>
0

>  <TPSA>
26.3

>  <cid>
11584

>  <dipole>
1.7

>  <excitation_energy_1>
5.805

>  <excitation_energy_2>
6.419

>  <excitation_energy_3>
6.79

>  <excitation_energy_4>
6.912

>  <homo_energy>
-7.157

>  <homo_lumo_gap>
7.276

>  <logP>
0.736

>  <lumo_energy>
0.12

>  <melting_point>
-34.06

>  <molecular_refractivity>
26.96

>  <oscillator_strength_1>
0.001

>  <oscillator_strength_2>
0.0292

>  <oscillator_strength_3>
0.0492

>  <oscillator_strength_4>
0.027

>  <open_babel_can_smiles>
CC(=O)OCC=C

>  <mulliken_charges>
15
1   -0.318311
2   -0.523566
3   -0.065901
4   -0.096674
5   0.602904
6   -0.463806
7   -0.45409
8   0.146877
9   0.157025
10   0.181963
11   0.184054
12   0.17814
13   0.137863
14   0.156976
15   0.176547

>  <lowdin_charges>
15
1   -0.311721
2   -0.465102
3   -0.164413
4   -0.126858
5   0.203801
6   -0.265164
7   -0.204688
8   0.162981
9   0.165572
10   0.17676
11   0.178512
12   0.174375
13   0.155971
14   0.155274
15   0.164701

$$$$

