PCCDB-ID:  13264
public computational chemistry database (PCCDB) project, http://pccdb.org

 29 30  0  0  0  0  0  0  0  0999 V2000
    1.3360   -0.0448    0.5599 C   0  0  0  0  0  0  0  0  0  0  0  0
    1.9464   -3.1235   -7.9222 C   0  0  0  0  0  0  0  0  0  0  0  0
    2.3511   -1.8863   -7.4132 C   0  0  0  0  0  0  0  0  0  0  0  0
    2.3606   -4.2948   -7.2892 C   0  0  0  0  0  0  0  0  0  0  0  0
    3.1628   -1.8246   -6.2820 C   0  0  0  0  0  0  0  0  0  0  0  0
    3.1765   -4.2278   -6.1568 C   0  0  0  0  0  0  0  0  0  0  0  0
    4.7017   -1.0378   -2.7240 C   0  0  0  0  0  0  0  0  0  0  0  0
    2.7082   -2.3671   -2.7012 C   0  0  0  0  0  0  0  0  0  0  0  0
    4.2241   -0.2866   -1.6554 C   0  0  0  0  0  0  0  0  0  0  0  0
    2.2113   -1.6268   -1.6267 C   0  0  0  0  0  0  0  0  0  0  0  0
    4.4979   -2.9259   -4.4201 C   0  0  0  0  0  0  0  0  0  0  0  0
    3.5907   -2.9955   -5.6388 C   0  0  0  0  0  0  0  0  0  0  0  0
    3.9569   -2.0938   -3.2685 C   0  0  0  0  0  0  0  0  0  0  0  0
    2.9731   -0.5778   -1.0970 C   0  0  0  0  0  0  0  0  0  0  0  0
    2.5891    0.2135   -0.0502 O   0  0  0  0  0  0  0  0  0  0  0  0
    1.2384    0.6853    1.3656 H   0  0  0  0  0  0  0  0  0  0  0  0
    1.2919   -1.0577    0.9823 H   0  0  0  0  0  0  0  0  0  0  0  0
    0.5060    0.0848   -0.1478 H   0  0  0  0  0  0  0  0  0  0  0  0
    1.3130   -3.1716   -8.8040 H   0  0  0  0  0  0  0  0  0  0  0  0
    2.0322   -0.9675   -7.8988 H   0  0  0  0  0  0  0  0  0  0  0  0
    2.0514   -5.2629   -7.6749 H   0  0  0  0  0  0  0  0  0  0  0  0
    3.4647   -0.8583   -5.8849 H   0  0  0  0  0  0  0  0  0  0  0  0
    3.4978   -5.1462   -5.6699 H   0  0  0  0  0  0  0  0  0  0  0  0
    5.6767   -0.7990   -3.1436 H   0  0  0  0  0  0  0  0  0  0  0  0
    2.1008   -3.1716   -3.1093 H   0  0  0  0  0  0  0  0  0  0  0  0
    4.8034    0.5302   -1.2360 H   0  0  0  0  0  0  0  0  0  0  0  0
    1.2381   -1.8727   -1.2168 H   0  0  0  0  0  0  0  0  0  0  0  0
    5.4730   -2.5173   -4.7175 H   0  0  0  0  0  0  0  0  0  0  0  0
    4.6968   -3.9494   -4.0745 H   0  0  0  0  0  0  0  0  0  0  0  0
  1 17  1  0  0  0  0
  1 16  1  0  0  0  0
  2  3  2  0  0  0  0
  2  4  1  0  0  0  0
  3  5  1  0  0  0  0
  4  6  2  0  0  0  0
  5 22  1  0  0  0  0
  5 12  2  0  0  0  0
  6 23  1  0  0  0  0
  6 12  1  0  0  0  0
  7  9  1  0  0  0  0
  8 10  2  0  0  0  0
  9 26  1  0  0  0  0
  9 14  2  0  0  0  0
 10 27  1  0  0  0  0
 10 14  1  0  0  0  0
 11 29  1  0  0  0  0
 11 13  1  0  0  0  0
 12 11  1  0  0  0  0
 13  7  2  0  0  0  0
 13  8  1  0  0  0  0
 14 15  1  0  0  0  0
 15  1  1  0  0  0  0
 18  1  1  0  0  0  0
 19  2  1  0  0  0  0
 20  3  1  0  0  0  0
 21  4  1  0  0  0  0
 24  7  1  0  0  0  0
 25  8  1  0  0  0  0
 28 11  1  0  0  0  0
M  END
>  <HBA>
1

>  <HBD>
0

>  <TPSA>
9.23

>  <cid>
13264

>  <dipole>
1.26

>  <excitation_energy_1>
4.824

>  <excitation_energy_2>
4.962

>  <excitation_energy_3>
5.105

>  <excitation_energy_4>
5.32

>  <homo_energy>
-5.69

>  <homo_lumo_gap>
5.687

>  <logP>
3.286

>  <lumo_energy>
-0.003

>  <melting_point>
43.65

>  <molecular_refractivity>
62.39

>  <oscillator_strength_1>
0.0358

>  <oscillator_strength_2>
0.0102

>  <oscillator_strength_3>
0.0686

>  <oscillator_strength_4>
0.0133

>  <open_babel_can_smiles>
COc1ccc(cc1)Cc1ccccc1

>  <mulliken_charges>
29
1   -0.213719
2   -0.132018
3   -0.129164
4   -0.12573
5   -0.174569
6   -0.19831
7   -0.202003
8   -0.186775
9   -0.170262
10   -0.193832
11   -0.440014
12   0.185573
13   0.184553
14   0.372954
15   -0.508252
16   0.168329
17   0.150643
18   0.151105
19   0.126409
20   0.12779
21   0.126539
22   0.131009
23   0.121011
24   0.122935
25   0.131558
26   0.135438
27   0.129916
28   0.155264
29   0.153621

>  <lowdin_charges>
29
1   -0.277768
2   -0.160783
3   -0.155554
4   -0.156827
5   -0.161016
6   -0.173691
7   -0.160612
8   -0.151282
9   -0.1841
10   -0.211243
11   -0.26946
12   -0.000579
13   -0.022625
14   0.099358
15   -0.201034
16   0.16258
17   0.143436
18   0.145046
19   0.156152
20   0.157016
21   0.156078
22   0.158938
23   0.153439
24   0.154242
25   0.160281
26   0.166437
27   0.161023
28   0.157394
29   0.155151

$$$$

