PCCDB-ID:  663
public computational chemistry database (PCCDB) project, http://pccdb.org

 29 28  0  0  1  0  0  0  0  0999 V2000
    2.0456   -1.0910   -0.4240 C   0  0  0  0  0  0  0  0  0  0  0  0
    1.8631   -0.0549    0.7026 C   0  0  0  0  0  0  0  0  0  0  0  0
    3.0762   -2.1966   -0.1337 C   0  0  0  0  0  0  0  0  0  0  0  0
    0.8516   -0.4386    1.8111 C   0  0  0  0  0  0  0  0  0  0  0  0
    4.1909   -4.3495   -1.0234 C   0  0  0  0  0  0  0  0  0  0  0  0
    5.4842   -3.7305   -1.5697 C   0  0  0  0  0  0  0  0  0  0  0  0
    2.9787   -3.3994   -1.0893 C   0  0  1  0  0  0  0  0  0  0  0  0
    1.2655   -1.5948    2.7102 C   0  0  0  0  0  0  0  0  0  0  0  0
    1.8771   -1.5189    3.8217 N   0  0  0  0  0  0  0  0  0  0  0  0
    0.9619   -2.8487    2.2630 O   0  0  0  0  0  0  0  0  0  0  0  0
    6.9039   -4.9053   -1.6153 S   0  0  0  0  0  0  0  0  0  0  0  0
    1.3999   -4.3557   -0.8241 S   0  0  0  0  0  0  0  0  0  0  0  0
    2.3545   -0.5681   -1.3390 H   0  0  0  0  0  0  0  0  0  0  0  0
    1.0710   -1.5413   -0.6570 H   0  0  0  0  0  0  0  0  0  0  0  0
    1.5020    0.8825    0.2621 H   0  0  0  0  0  0  0  0  0  0  0  0
    2.8324    0.1767    1.1643 H   0  0  0  0  0  0  0  0  0  0  0  0
    2.9855   -2.5636    0.8938 H   0  0  0  0  0  0  0  0  0  0  0  0
    4.0799   -1.7578   -0.2151 H   0  0  0  0  0  0  0  0  0  0  0  0
   -0.1207   -0.6610    1.3484 H   0  0  0  0  0  0  0  0  0  0  0  0
    0.6939    0.4359    2.4518 H   0  0  0  0  0  0  0  0  0  0  0  0
    4.3447   -4.6609    0.0193 H   0  0  0  0  0  0  0  0  0  0  0  0
    3.9701   -5.2568   -1.5939 H   0  0  0  0  0  0  0  0  0  0  0  0
    5.7856   -2.8401   -1.0122 H   0  0  0  0  0  0  0  0  0  0  0  0
    5.3517   -3.4298   -2.6150 H   0  0  0  0  0  0  0  0  0  0  0  0
    2.8676   -3.0395   -2.1211 H   0  0  0  0  0  0  0  0  0  0  0  0
    2.0346   -0.5391    4.0629 H   0  0  0  0  0  0  0  0  0  0  0  0
    0.5666   -2.8135    1.3761 H   0  0  0  0  0  0  0  0  0  0  0  0
    6.9879   -5.1016   -0.2810 H   0  0  0  0  0  0  0  0  0  0  0  0
    1.7765   -4.9402    0.3346 H   0  0  0  0  0  0  0  0  0  0  0  0
  1  3  1  0  0  0  0
  1  2  1  0  0  0  0
  2 16  1  0  0  0  0
  2  4  1  0  0  0  0
  3 17  1  0  0  0  0
  4 20  1  0  0  0  0
  4  8  1  0  0  0  0
  5 21  1  0  0  0  0
  6  5  1  0  0  0  0
  6 23  1  0  0  0  0
  7 25  1  6  0  0  0
  7  5  1  0  0  0  0
  7 12  1  0  0  0  0
  7  3  1  0  0  0  0
  8  9  2  0  0  0  0
  9 26  1  0  0  0  0
 10  8  1  0  0  0  0
 11  6  1  0  0  0  0
 11 28  1  0  0  0  0
 12 29  1  0  0  0  0
 13  1  1  0  0  0  0
 14  1  1  0  0  0  0
 15  2  1  0  0  0  0
 18  3  1  0  0  0  0
 19  4  1  0  0  0  0
 22  5  1  0  0  0  0
 24  6  1  0  0  0  0
 27 10  1  0  0  0  0
M  END
>  <HBA>
4

>  <HBD>
3

>  <TPSA>
120.69

>  <cid>
663

>  <dipole>
4.05

>  <excitation_energy_1>
5.195

>  <excitation_energy_2>
5.49

>  <excitation_energy_3>
5.769

>  <excitation_energy_4>
5.809

>  <homo_energy>
-6.536

>  <homo_lumo_gap>
6.716

>  <logP>
2.351

>  <lumo_energy>
0.18

>  <melting_point>
88.27

>  <molecular_refractivity>
59.34

>  <oscillator_strength_1>
0.0025

>  <oscillator_strength_2>
0.0091

>  <oscillator_strength_3>
0.032

>  <oscillator_strength_4>
0.0281

>  <open_babel_can_smiles>
SCC[C@H](CCCCC(=N)O)S

>  <mulliken_charges>
29
1   -0.281381
2   -0.25491
3   -0.273398
4   -0.363194
5   -0.250477
6   -0.426255
7   -0.253166
8   0.475744
9   -0.58049
10   -0.588552
11   -0.072162
12   -0.11441
13   0.140588
14   0.145884
15   0.146057
16   0.146927
17   0.178484
18   0.143274
19   0.148532
20   0.157492
21   0.147355
22   0.180142
23   0.183611
24   0.180203
25   0.167767
26   0.279982
27   0.420076
28   0.0964
29   0.119878

>  <lowdin_charges>
29
1   -0.286912
2   -0.271683
3   -0.293029
4   -0.310291
5   -0.28633
6   -0.37341
7   -0.209906
8   0.120763
9   -0.400087
10   -0.372404
11   -0.075566
12   -0.098029
13   0.147271
14   0.145719
15   0.151858
16   0.147973
17   0.161176
18   0.14615
19   0.15128
20   0.162529
21   0.148262
22   0.16808
23   0.160662
24   0.16627
25   0.157669
26   0.252535
27   0.352213
28   0.111805
29   0.125433

$$$$

