PCCDB-ID:  12001
public computational chemistry database (PCCDB) project, http://pccdb.org

 17 16  0  0  0  0  0  0  0  0999 V2000
    1.6768    1.8744    1.8421 C   0  0  0  0  0  0  0  0  0  0  0  0
    6.6991    0.5296    0.1431 C   0  0  0  0  0  0  0  0  0  0  0  0
    2.1416    0.4277    1.8170 C   0  0  0  0  0  0  0  0  0  0  0  0
    4.3877    0.5056    1.0881 C   0  0  0  0  0  0  0  0  0  0  0  0
    4.7528   -0.1932   -1.1753 N   0  0  0  0  0  0  0  0  0  0  0  0
    5.2667    0.2756    0.0081 N   0  0  0  0  0  0  0  0  0  0  0  0
    4.7814    0.9211    2.1579 O   0  0  0  0  0  0  0  0  0  0  0  0
    5.6049   -0.3535   -2.0283 O   0  0  0  0  0  0  0  0  0  0  0  0
    3.1263    0.2071    0.7715 O   0  0  0  0  0  0  0  0  0  0  0  0
    0.8762    1.9901    2.5816 H   0  0  0  0  0  0  0  0  0  0  0  0
    1.2880    2.1750    0.8640 H   0  0  0  0  0  0  0  0  0  0  0  0
    2.4982    2.5407    2.1203 H   0  0  0  0  0  0  0  0  0  0  0  0
    6.8745    0.8937    1.1526 H   0  0  0  0  0  0  0  0  0  0  0  0
    7.0113    1.2715   -0.5967 H   0  0  0  0  0  0  0  0  0  0  0  0
    7.2546   -0.3941   -0.0390 H   0  0  0  0  0  0  0  0  0  0  0  0
    1.3299   -0.2528    1.5517 H   0  0  0  0  0  0  0  0  0  0  0  0
    2.5730    0.1264    2.7742 H   0  0  0  0  0  0  0  0  0  0  0  0
  1 12  1  0  0  0  0
  1 10  1  0  0  0  0
  2 13  1  0  0  0  0
  3  1  1  0  0  0  0
  3 17  1  0  0  0  0
  4  7  2  0  0  0  0
  5  6  1  0  0  0  0
  6  2  1  0  0  0  0
  6  4  1  0  0  0  0
  8  5  1  0  0  0  0
  9  4  1  0  0  0  0
  9  3  1  0  0  0  0
 11  1  1  0  0  0  0
 14  2  1  0  0  0  0
 15  2  1  0  0  0  0
 16  3  1  0  0  0  0
M  RAD  2   5   2   8   2
M  END
>  <HBA>
5

>  <HBD>
0

>  <TPSA>
58.97

>  <cid>
12001

>  <dipole>
2.07

>  <excitation_energy_1>
2.998

>  <excitation_energy_2>
5.203

>  <excitation_energy_3>
5.593

>  <excitation_energy_4>
5.944

>  <homo_energy>
-6.702

>  <homo_lumo_gap>
4.838

>  <logP>
0.756

>  <lumo_energy>
-1.864

>  <melting_point>
19.23

>  <molecular_refractivity>
30.65

>  <oscillator_strength_1>
0.0012

>  <oscillator_strength_2>
0.0005

>  <oscillator_strength_3>
0.1752

>  <oscillator_strength_4>
0.0843

>  <open_babel_can_smiles>
CN(C(=O)OCC)[N][O]

>  <mulliken_charges>
17
1   -0.465708
2   -0.327096
3   -0.04561
4   0.827482
5   0.195488
6   -0.34266
7   -0.492454
8   -0.324709
9   -0.448456
10   0.156182
11   0.16601
12   0.177839
13   0.207855
14   0.18711
15   0.187553
16   0.165208
17   0.175967

>  <lowdin_charges>
17
1   -0.456206
2   -0.366444
3   -0.121974
4   0.216189
5   0.088807
6   -0.046642
7   -0.279117
8   -0.210837
9   -0.169689
10   0.163031
11   0.160511
12   0.167121
13   0.188406
14   0.172703
15   0.17234
16   0.160216
17   0.161583

$$$$

