PCCDB-ID:  54756
public computational chemistry database (PCCDB) project, http://pccdb.org

 28 29  0  0  0  0  0  0  0  0999 V2000
    1.0834    0.6049    0.2475 C   0  0  0  0  0  0  0  0  0  0  0  0
    2.4753   -0.0203    0.0371 C   0  0  0  0  0  0  0  0  0  0  0  0
    5.3817    0.4105    4.4158 C   0  0  0  0  0  0  0  0  0  0  0  0
    4.4095    1.4270    3.8139 C   0  0  0  0  0  0  0  0  0  0  0  0
    2.8984   -3.1993    2.0832 C   0  0  0  0  0  0  0  0  0  0  0  0
    4.6784   -0.9407    4.5749 C   0  0  0  0  0  0  0  0  0  0  0  0
    2.5598   -2.3032    1.0706 C   0  0  0  0  0  0  0  0  0  0  0  0
    3.5848   -2.7370    3.2000 C   0  0  0  0  0  0  0  0  0  0  0  0
    3.9721    0.9916    2.4092 C   0  0  0  0  0  0  0  0  0  0  0  0
    2.8916   -0.9481    1.1648 C   0  0  0  0  0  0  0  0  0  0  0  0
    3.9337   -1.3855    3.3251 C   0  0  0  0  0  0  0  0  0  0  0  0
    3.5792   -0.4777    2.3078 C   0  0  0  0  0  0  0  0  0  0  0  0
    0.8139    1.2543   -0.5937 H   0  0  0  0  0  0  0  0  0  0  0  0
    1.0459    1.2053    1.1635 H   0  0  0  0  0  0  0  0  0  0  0  0
    0.3178   -0.1740    0.3354 H   0  0  0  0  0  0  0  0  0  0  0  0
    3.2143    0.7770   -0.1014 H   0  0  0  0  0  0  0  0  0  0  0  0
    2.4647   -0.5894   -0.9008 H   0  0  0  0  0  0  0  0  0  0  0  0
    5.7597    0.7545    5.3862 H   0  0  0  0  0  0  0  0  0  0  0  0
    6.2531    0.3020    3.7545 H   0  0  0  0  0  0  0  0  0  0  0  0
    4.8611    2.4254    3.7656 H   0  0  0  0  0  0  0  0  0  0  0  0
    3.5285    1.5108    4.4662 H   0  0  0  0  0  0  0  0  0  0  0  0
    2.6376   -4.2509    1.9948 H   0  0  0  0  0  0  0  0  0  0  0  0
    3.9643   -0.8724    5.4104 H   0  0  0  0  0  0  0  0  0  0  0  0
    5.3992   -1.7168    4.8625 H   0  0  0  0  0  0  0  0  0  0  0  0
    2.0337   -2.6586    0.1867 H   0  0  0  0  0  0  0  0  0  0  0  0
    3.8640   -3.4297    3.9916 H   0  0  0  0  0  0  0  0  0  0  0  0
    4.7961    1.1876    1.7048 H   0  0  0  0  0  0  0  0  0  0  0  0
    3.1442    1.6274    2.0752 H   0  0  0  0  0  0  0  0  0  0  0  0
  1 15  1  0  0  0  0
  1 14  1  0  0  0  0
  2  1  1  0  0  0  0
  2 10  1  0  0  0  0
  3  6  1  0  0  0  0
  3 18  1  0  0  0  0
  4  3  1  0  0  0  0
  4 21  1  0  0  0  0
  5  8  2  0  0  0  0
  6 24  1  0  0  0  0
  6 23  1  0  0  0  0
  7 10  2  0  0  0  0
  7  5  1  0  0  0  0
  8 11  1  0  0  0  0
  8 26  1  0  0  0  0
  9  4  1  0  0  0  0
 10 12  1  0  0  0  0
 11  6  1  0  0  0  0
 12  9  1  0  0  0  0
 12 11  2  0  0  0  0
 13  1  1  0  0  0  0
 16  2  1  0  0  0  0
 17  2  1  0  0  0  0
 19  3  1  0  0  0  0
 20  4  1  0  0  0  0
 22  5  1  0  0  0  0
 25  7  1  0  0  0  0
 27  9  1  0  0  0  0
 28  9  1  0  0  0  0
M  END
>  <HBA>
0

>  <HBD>
0

>  <TPSA>
0.0

>  <cid>
54756

>  <dipole>
0.59

>  <excitation_energy_1>
5.084

>  <excitation_energy_2>
5.569

>  <excitation_energy_3>
5.729

>  <excitation_energy_4>
5.786

>  <homo_energy>
-6.142

>  <homo_lumo_gap>
6.327

>  <logP>
3.128

>  <lumo_energy>
0.185

>  <melting_point>
37.41

>  <molecular_refractivity>
53.65

>  <oscillator_strength_1>
0.0016

>  <oscillator_strength_2>
0.0136

>  <oscillator_strength_3>
0.0422

>  <oscillator_strength_4>
0.02

>  <open_babel_can_smiles>
CCc1cccc2c1CCCC2

>  <mulliken_charges>
28
1   -0.437348
2   -0.341525
3   -0.263534
4   -0.264843
5   -0.124262
6   -0.340953
7   -0.189429
8   -0.190959
9   -0.350338
10   0.117026
11   0.120133
12   0.066767
13   0.141807
14   0.149874
15   0.149888
16   0.14255
17   0.141504
18   0.131328
19   0.135844
20   0.131293
21   0.135217
22   0.121914
23   0.148255
24   0.143024
25   0.115654
26   0.115056
27   0.148357
28   0.147701

>  <lowdin_charges>
28
1   -0.442788
2   -0.274942
3   -0.276254
4   -0.275373
5   -0.158267
6   -0.27792
7   -0.17294
8   -0.171952
9   -0.281304
10   -0.008831
11   -0.013871
12   -0.025292
13   0.149059
14   0.148511
15   0.151649
16   0.149229
17   0.149053
18   0.144346
19   0.141465
20   0.143838
21   0.141113
22   0.153017
23   0.150301
24   0.151623
25   0.151554
26   0.152292
27   0.149545
28   0.153134

$$$$

