PCCDB-ID:  14344
public computational chemistry database (PCCDB) project, http://pccdb.org

 30 31  0  0  0  0  0  0  0  0999 V2000
    7.3101    0.3397   -0.6422 C   0  0  0  0  0  0  0  0  0  0  0  0
    5.4558    5.8222    2.1569 C   0  0  0  0  0  0  0  0  0  0  0  0
    4.3414    5.1472    1.3512 C   0  0  0  0  0  0  0  0  0  0  0  0
    5.8210    1.6782    4.8817 C   0  0  0  0  0  0  0  0  0  0  0  0
    5.4995    5.2497    3.5787 C   0  0  0  0  0  0  0  0  0  0  0  0
    5.8631    3.0662    4.7890 C   0  0  0  0  0  0  0  0  0  0  0  0
    4.6125    3.6441    1.2088 C   0  0  0  0  0  0  0  0  0  0  0  0
    5.3876    0.9269    3.7895 C   0  0  0  0  0  0  0  0  0  0  0  0
    5.4708    3.7305    3.6186 C   0  0  0  0  0  0  0  0  0  0  0  0
    5.0319    2.9852    2.5088 C   0  0  0  0  0  0  0  0  0  0  0  0
    5.0128    1.5897    2.6290 C   0  0  0  0  0  0  0  0  0  0  0  0
    5.3187    0.4544    0.5753 C   0  0  0  0  0  0  0  0  0  0  0  0
    6.5314    0.8133    0.4899 N   0  0  0  0  0  0  0  0  0  0  0  0
    4.5948   -0.3284   -0.2642 O   0  0  0  0  0  0  0  0  0  0  0  0
    4.4929    0.8153    1.5803 O   0  0  0  0  0  0  0  0  0  0  0  0
    8.3340    0.7123   -0.5517 H   0  0  0  0  0  0  0  0  0  0  0  0
    6.9219    0.7003   -1.6101 H   0  0  0  0  0  0  0  0  0  0  0  0
    7.3724   -0.7608   -0.6908 H   0  0  0  0  0  0  0  0  0  0  0  0
    5.3071    6.9081    2.1980 H   0  0  0  0  0  0  0  0  0  0  0  0
    6.4200    5.6514    1.6577 H   0  0  0  0  0  0  0  0  0  0  0  0
    4.2492    5.5993    0.3563 H   0  0  0  0  0  0  0  0  0  0  0  0
    3.3802    5.3062    1.8604 H   0  0  0  0  0  0  0  0  0  0  0  0
    6.1257    1.1796    5.7977 H   0  0  0  0  0  0  0  0  0  0  0  0
    4.6359    5.6347    4.1429 H   0  0  0  0  0  0  0  0  0  0  0  0
    6.3886    5.6112    4.1109 H   0  0  0  0  0  0  0  0  0  0  0  0
    6.2018    3.6538    5.6397 H   0  0  0  0  0  0  0  0  0  0  0  0
    5.4132    3.4844    0.4723 H   0  0  0  0  0  0  0  0  0  0  0  0
    3.7305    3.1312    0.8075 H   0  0  0  0  0  0  0  0  0  0  0  0
    5.3365   -0.1565    3.8239 H   0  0  0  0  0  0  0  0  0  0  0  0
    5.1661   -0.5877   -1.0043 H   0  0  0  0  0  0  0  0  0  0  0  0
  1 16  1  0  0  0  0
  1 13  1  0  0  0  0
  2 19  1  0  0  0  0
  2  5  1  0  0  0  0
  3 22  1  0  0  0  0
  3  2  1  0  0  0  0
  4 23  1  0  0  0  0
  5  9  1  0  0  0  0
  5 25  1  0  0  0  0
  5 24  1  0  0  0  0
  6  4  1  0  0  0  0
  6 26  1  0  0  0  0
  7  3  1  0  0  0  0
  7 10  1  0  0  0  0
  8 29  1  0  0  0  0
  8  4  2  0  0  0  0
  9  6  2  0  0  0  0
 10 11  2  0  0  0  0
 10  9  1  0  0  0  0
 11  8  1  0  0  0  0
 12 15  1  0  0  0  0
 13 12  2  0  0  0  0
 14 12  1  0  0  0  0
 15 11  1  0  0  0  0
 17  1  1  0  0  0  0
 18  1  1  0  0  0  0
 20  2  1  0  0  0  0
 21  3  1  0  0  0  0
 27  7  1  0  0  0  0
 28  7  1  0  0  0  0
 30 14  1  0  0  0  0
M  END
>  <HBA>
3

>  <HBD>
1

>  <TPSA>
38.33

>  <cid>
14344

>  <dipole>
1.79

>  <excitation_energy_1>
5.162

>  <excitation_energy_2>
5.637

>  <excitation_energy_3>
5.655

>  <excitation_energy_4>
5.766

>  <homo_energy>
-6.272

>  <homo_lumo_gap>
6.446

>  <logP>
2.675

>  <lumo_energy>
0.174

>  <melting_point>
97.59

>  <molecular_refractivity>
58.56

>  <oscillator_strength_1>
0.0017

>  <oscillator_strength_2>
0.0045

>  <oscillator_strength_3>
0.007

>  <oscillator_strength_4>
0.0023

>  <open_babel_can_smiles>
C/N=C(/Oc1cccc2c1CCCC2)\O

>  <mulliken_charges>
30
1   -0.360514
2   -0.265405
3   -0.267323
4   -0.14378
5   -0.341712
6   -0.177193
7   -0.351694
8   -0.149198
9   0.098096
10   0.121482
11   0.292414
12   0.669042
13   -0.426552
14   -0.590255
15   -0.525741
16   0.175392
17   0.140183
18   0.140614
19   0.131687
20   0.139608
21   0.132409
22   0.136024
23   0.128758
24   0.150387
25   0.145103
26   0.118133
27   0.163413
28   0.157095
29   0.134633
30   0.424895

>  <lowdin_charges>
30
1   -0.363129
2   -0.273999
3   -0.274573
4   -0.154887
5   -0.277366
6   -0.169988
7   -0.281057
8   -0.167497
9   -0.008447
10   -0.02025
11   0.1025
12   0.18782
13   -0.265874
14   -0.358295
15   -0.146817
16   0.163263
17   0.135821
18   0.134061
19   0.142733
20   0.142701
21   0.144812
22   0.140691
23   0.158516
24   0.15185
25   0.152681
26   0.154622
27   0.158861
28   0.159004
29   0.16387
30   0.368372

$$$$

