PCCDB-ID:  55096
public computational chemistry database (PCCDB) project, http://pccdb.org

 25 24  0  0  1  0  0  0  0  0999 V2000
    4.3059    2.8176    1.9721 C   0  0  0  0  0  0  0  0  0  0  0  0
   -1.9961   -2.1666    5.4400 C   0  0  0  0  0  0  0  0  0  0  0  0
    3.2497    2.0068    2.0196 C   0  0  0  0  0  0  0  0  0  0  0  0
   -1.0221   -1.2755    5.6191 C   0  0  0  0  0  0  0  0  0  0  0  0
    2.9350   -0.3378    2.9244 C   0  0  0  0  0  0  0  0  0  0  0  0
    1.0123   -0.9791    4.1937 C   0  0  0  0  0  0  0  0  0  0  0  0
    3.2980    0.5285    1.7136 C   0  0  1  0  0  0  0  0  0  0  0  0
   -0.3949   -0.4669    4.5178 C   0  0  2  0  0  0  0  0  0  0  0  0
    2.4416    0.1917    0.6231 O   0  0  0  0  0  0  0  0  0  0  0  0
   -0.3171    0.8879    4.9465 O   0  0  0  0  0  0  0  0  0  0  0  0
    1.5618   -0.0968    3.2197 O   0  0  0  0  0  0  0  0  0  0  0  0
    4.2272    3.8777    2.1975 H   0  0  0  0  0  0  0  0  0  0  0  0
    5.2948    2.4528    1.7004 H   0  0  0  0  0  0  0  0  0  0  0  0
   -2.3967   -2.7488    6.2652 H   0  0  0  0  0  0  0  0  0  0  0  0
   -2.4360   -2.3457    4.4610 H   0  0  0  0  0  0  0  0  0  0  0  0
    2.2695    2.4026    2.2848 H   0  0  0  0  0  0  0  0  0  0  0  0
   -0.6070   -1.0982    6.6109 H   0  0  0  0  0  0  0  0  0  0  0  0
    3.5655   -0.0959    3.7931 H   0  0  0  0  0  0  0  0  0  0  0  0
    3.0789   -1.3981    2.6672 H   0  0  0  0  0  0  0  0  0  0  0  0
    0.9765   -2.0087    3.8083 H   0  0  0  0  0  0  0  0  0  0  0  0
    1.6313   -0.9663    5.1040 H   0  0  0  0  0  0  0  0  0  0  0  0
    4.3136    0.2602    1.3998 H   0  0  0  0  0  0  0  0  0  0  0  0
   -1.0047   -0.5513    3.6026 H   0  0  0  0  0  0  0  0  0  0  0  0
    1.5448    0.1573    0.9977 H   0  0  0  0  0  0  0  0  0  0  0  0
    0.3086    1.3179    4.3389 H   0  0  0  0  0  0  0  0  0  0  0  0
  1  3  2  0  0  0  0
  1 12  1  0  0  0  0
  2  4  2  0  0  0  0
  2 14  1  0  0  0  0
  3 16  1  0  0  0  0
  4 17  1  0  0  0  0
  5 11  1  0  0  0  0
  5 18  1  0  0  0  0
  6  8  1  0  0  0  0
  6 21  1  0  0  0  0
  7 22  1  6  0  0  0
  7  3  1  0  0  0  0
  7  5  1  0  0  0  0
  8 23  1  6  0  0  0
  8 10  1  0  0  0  0
  8  4  1  0  0  0  0
  9 24  1  0  0  0  0
  9  7  1  0  0  0  0
 11  6  1  0  0  0  0
 13  1  1  0  0  0  0
 15  2  1  0  0  0  0
 19  5  1  0  0  0  0
 20  6  1  0  0  0  0
 25 10  1  0  0  0  0
M  END
>  <HBA>
3

>  <HBD>
2

>  <TPSA>
49.69

>  <cid>
55096

>  <dipole>
2.01

>  <excitation_energy_1>
6.224

>  <excitation_energy_2>
6.408

>  <excitation_energy_3>
6.428

>  <excitation_energy_4>
6.667

>  <homo_energy>
-7.048

>  <homo_lumo_gap>
7.165

>  <logP>
0.097

>  <lumo_energy>
0.117

>  <melting_point>
-40.8

>  <molecular_refractivity>
43.03

>  <oscillator_strength_1>
0.0494

>  <oscillator_strength_2>
0.0168

>  <oscillator_strength_3>
0.0067

>  <oscillator_strength_4>
0.0165

>  <open_babel_can_smiles>
C=C[C@H](COC[C@H](C=C)O)O

>  <mulliken_charges>
25
1   -0.343218
2   -0.338406
3   -0.039259
4   -0.047673
5   -0.034085
6   -0.031191
7   0.067993
8   0.087555
9   -0.626801
10   -0.639074
11   -0.518785
12   0.145599
13   0.14016
14   0.147962
15   0.143134
16   0.128815
17   0.141313
18   0.138727
19   0.139601
20   0.137421
21   0.134228
22   0.142645
23   0.124308
24   0.3972
25   0.40183

>  <lowdin_charges>
25
1   -0.328082
2   -0.326535
3   -0.159238
4   -0.148651
5   -0.142944
6   -0.147762
7   -0.006192
8   -0.003146
9   -0.457114
10   -0.46593
11   -0.290613
12   0.15996
13   0.15526
14   0.164387
15   0.157414
16   0.152091
17   0.159982
18   0.141456
19   0.13872
20   0.139629
21   0.137998
22   0.150857
23   0.13334
24   0.340964
25   0.344151

$$$$

