PCCDB-ID:  21168
public computational chemistry database (PCCDB) project, http://pccdb.org

 23 24  0  0  0  0  0  0  0  0999 V2000
    0.7866   -0.0166    0.1113 C   0  0  0  0  0  0  0  0  0  0  0  0
    6.5784    2.3071   -0.0773 C   0  0  0  0  0  0  0  0  0  0  0  0
    7.2569    1.0656   -0.1453 C   0  0  0  0  0  0  0  0  0  0  0  0
    5.2026    2.3367   -0.0107 C   0  0  0  0  0  0  0  0  0  0  0  0
    6.5516   -0.1174   -0.1459 C   0  0  0  0  0  0  0  0  0  0  0  0
    3.0290    1.1245    0.0592 C   0  0  0  0  0  0  0  0  0  0  0  0
    4.3703   -1.3145   -0.0678 C   0  0  0  0  0  0  0  0  0  0  0  0
    2.2939   -0.0398    0.0597 C   0  0  0  0  0  0  0  0  0  0  0  0
    4.4472    1.1354   -0.0085 C   0  0  0  0  0  0  0  0  0  0  0  0
    5.1314   -0.1202   -0.0781 C   0  0  0  0  0  0  0  0  0  0  0  0
    2.9878   -1.2949   -0.0042 C   0  0  0  0  0  0  0  0  0  0  0  0
    2.2424   -2.4791   -0.0723 N   0  0  0  0  0  0  0  0  0  0  0  0
    0.4110    1.0106    0.1037 H   0  0  0  0  0  0  0  0  0  0  0  0
    0.3949   -0.4973    1.0206 H   0  0  0  0  0  0  0  0  0  0  0  0
    0.3479   -0.5462   -0.7444 H   0  0  0  0  0  0  0  0  0  0  0  0
    7.1467    3.2332   -0.0775 H   0  0  0  0  0  0  0  0  0  0  0  0
    8.3425    1.0498   -0.1974 H   0  0  0  0  0  0  0  0  0  0  0  0
    4.6738    3.2861    0.0419 H   0  0  0  0  0  0  0  0  0  0  0  0
    7.0752   -1.0694   -0.1995 H   0  0  0  0  0  0  0  0  0  0  0  0
    2.5063    2.0781    0.1088 H   0  0  0  0  0  0  0  0  0  0  0  0
    4.8919   -2.2691   -0.1171 H   0  0  0  0  0  0  0  0  0  0  0  0
    2.7787   -3.3163    0.1222 H   0  0  0  0  0  0  0  0  0  0  0  0
    1.3766   -2.4739    0.4528 H   0  0  0  0  0  0  0  0  0  0  0  0
  1 14  1  0  0  0  0
  2  4  2  0  0  0  0
  3  2  1  0  0  0  0
  4  9  1  0  0  0  0
  4 18  1  0  0  0  0
  5  3  2  0  0  0  0
  5 10  1  0  0  0  0
  6  8  1  0  0  0  0
  6 20  1  0  0  0  0
  7 11  1  0  0  0  0
  8  1  1  0  0  0  0
  9  6  2  0  0  0  0
 10  7  2  0  0  0  0
 10  9  1  0  0  0  0
 11  8  2  0  0  0  0
 12 11  1  0  0  0  0
 12 22  1  0  0  0  0
 12 23  1  0  0  0  0
 13  1  1  0  0  0  0
 15  1  1  0  0  0  0
 16  2  1  0  0  0  0
 17  3  1  0  0  0  0
 19  5  1  0  0  0  0
 21  7  1  0  0  0  0
M  END
>  <HBA>
1

>  <HBD>
1

>  <TPSA>
26.02

>  <cid>
21168

>  <dipole>
2.15

>  <excitation_energy_1>
3.938

>  <excitation_energy_2>
4.389

>  <excitation_energy_3>
4.55

>  <excitation_energy_4>
5.075

>  <homo_energy>
-5.154

>  <homo_lumo_gap>
4.506

>  <logP>
3.312

>  <lumo_energy>
-0.648

>  <melting_point>
102.65

>  <molecular_refractivity>
53.32

>  <oscillator_strength_1>
0.0575

>  <oscillator_strength_2>
0.0067

>  <oscillator_strength_3>
0.0031

>  <oscillator_strength_4>
0.0011

>  <open_babel_can_smiles>
Cc1cc2ccccc2cc1N

>  <mulliken_charges>
23
1   -0.554261
2   -0.142444
3   -0.135888
4   -0.194138
5   -0.198927
6   -0.287708
7   -0.260867
8   0.180378
9   0.150695
10   0.141014
11   0.251198
12   -0.793573
13   0.162088
14   0.14817
15   0.171949
16   0.122572
17   0.123455
18   0.122926
19   0.120971
20   0.119938
21   0.111613
22   0.319675
23   0.321162

>  <lowdin_charges>
23
1   -0.444972
2   -0.172341
3   -0.15657
4   -0.156633
5   -0.166907
6   -0.162503
7   -0.213755
8   -0.02576
9   -0.014406
10   0.007551
11   0.049542
12   -0.488797
13   0.160959
14   0.150434
15   0.163797
16   0.155669
17   0.153382
18   0.154347
19   0.153531
20   0.153433
21   0.149843
22   0.274906
23   0.27525

$$$$

