PCCDB-ID:  8987
public computational chemistry database (PCCDB) project, http://pccdb.org

 19 18  0  0  0  0  0  0  0  0999 V2000
    2.2041    1.3051   -0.1530 C   0  0  0  0  0  0  0  0  0  0  0  0
    1.9343   -1.4937    3.3349 C   0  0  0  0  0  0  0  0  0  0  0  0
    2.4374   -0.1157    0.3630 C   0  0  0  0  0  0  0  0  0  0  0  0
    2.3661   -0.1050    2.8537 C   0  0  0  0  0  0  0  0  0  0  0  0
    4.5370   -0.2060    1.6311 C   0  0  0  0  0  0  0  0  0  0  0  0
    3.1885   -0.1417    1.6325 N   0  0  0  0  0  0  0  0  0  0  0  0
    5.5064   -0.2308    0.2673 S   0  0  0  0  0  0  0  0  0  0  0  0
    5.2760   -0.2718    3.2833 S   0  0  0  0  0  0  0  0  0  0  0  0
    1.6117    1.2727   -1.0743 H   0  0  0  0  0  0  0  0  0  0  0  0
    3.1587    1.7902   -0.3737 H   0  0  0  0  0  0  0  0  0  0  0  0
    1.6603    1.9154    0.5772 H   0  0  0  0  0  0  0  0  0  0  0  0
    1.3032   -1.3987    4.2256 H   0  0  0  0  0  0  0  0  0  0  0  0
    2.8020   -2.1078    3.5925 H   0  0  0  0  0  0  0  0  0  0  0  0
    1.3573   -2.0181    2.5657 H   0  0  0  0  0  0  0  0  0  0  0  0
    2.9959   -0.7007   -0.3692 H   0  0  0  0  0  0  0  0  0  0  0  0
    1.4841   -0.6222    0.5490 H   0  0  0  0  0  0  0  0  0  0  0  0
    2.9128    0.4262    3.6377 H   0  0  0  0  0  0  0  0  0  0  0  0
    1.4878    0.5078    2.6250 H   0  0  0  0  0  0  0  0  0  0  0  0
    6.5309   -0.2909    2.8010 H   0  0  0  0  0  0  0  0  0  0  0  0
  1  3  1  0  0  0  0
  1 11  1  0  0  0  0
  2 13  1  0  0  0  0
  2 12  1  0  0  0  0
  3 16  1  0  0  0  0
  3  6  1  0  0  0  0
  4  2  1  0  0  0  0
  4 17  1  0  0  0  0
  5  6  1  0  0  0  0
  5  8  1  0  0  0  0
  6  4  1  0  0  0  0
  7  5  2  0  0  0  0
  9  1  1  0  0  0  0
 10  1  1  0  0  0  0
 14  2  1  0  0  0  0
 15  3  1  0  0  0  0
 18  4  1  0  0  0  0
 19  8  1  0  0  0  0
M  END
>  <HBA>
3

>  <HBD>
1

>  <TPSA>
74.13

>  <cid>
8987

>  <dipole>
4.19

>  <excitation_energy_1>
3.569

>  <excitation_energy_2>
4.549

>  <excitation_energy_3>
4.843

>  <excitation_energy_4>
4.902

>  <homo_energy>
-5.665

>  <homo_lumo_gap>
4.931

>  <logP>
1.543

>  <lumo_energy>
-0.735

>  <melting_point>
27.36

>  <molecular_refractivity>
44.77

>  <oscillator_strength_1>
0.0004

>  <oscillator_strength_2>
0.01

>  <oscillator_strength_3>
0.1309

>  <oscillator_strength_4>
0.0133

>  <open_babel_can_smiles>
CCN(C(=S)S)CC

>  <mulliken_charges>
19
1   -0.444577
2   -0.443682
3   -0.159021
4   -0.185532
5   -0.019157
6   -0.312029
7   -0.249793
8   -0.018309
9   0.153526
10   0.188752
11   0.144822
12   0.156574
13   0.181691
14   0.158122
15   0.202305
16   0.14931
17   0.191978
18   0.16581
19   0.139211

>  <lowdin_charges>
19
1   -0.450977
2   -0.453414
3   -0.196758
4   -0.203061
5   -0.147896
6   -0.062728
7   -0.235636
8   -0.025957
9   0.15875
10   0.171952
11   0.149471
12   0.160372
13   0.16794
14   0.156749
15   0.18074
16   0.148591
17   0.171714
18   0.158538
19   0.15161

$$$$

