PCCDB-ID:  6735
public computational chemistry database (PCCDB) project, http://pccdb.org

 18 19  0  0  0  0  0  0  0  0999 V2000
    1.9720    1.0685    0.0074 C   0  0  0  0  0  0  0  0  0  0  0  0
    2.2536   -0.3075    0.0001 C   0  0  0  0  0  0  0  0  0  0  0  0
    0.6569    1.5387    0.0108 C   0  0  0  0  0  0  0  0  0  0  0  0
    1.2143   -1.2328   -0.0039 C   0  0  0  0  0  0  0  0  0  0  0  0
   -1.8849    0.8685    0.0080 C   0  0  0  0  0  0  0  0  0  0  0  0
   -2.5228   -0.5420   -0.0036 C   0  0  0  0  0  0  0  0  0  0  0  0
   -0.3880    0.6135    0.0070 C   0  0  0  0  0  0  0  0  0  0  0  0
   -0.0993   -0.7547   -0.0003 C   0  0  0  0  0  0  0  0  0  0  0  0
   -1.3541   -1.5437   -0.0064 C   0  0  0  0  0  0  0  0  0  0  0  0
   -1.4550   -2.7562   -0.0133 O   0  0  0  0  0  0  0  0  0  0  0  0
    2.7938    1.7801    0.0106 H   0  0  0  0  0  0  0  0  0  0  0  0
    3.2866   -0.6441   -0.0034 H   0  0  0  0  0  0  0  0  0  0  0  0
    0.4571    2.6077    0.0160 H   0  0  0  0  0  0  0  0  0  0  0  0
    1.3980   -2.3035   -0.0094 H   0  0  0  0  0  0  0  0  0  0  0  0
   -2.1843    1.4465    0.8908 H   0  0  0  0  0  0  0  0  0  0  0  0
   -2.1833    1.4614   -0.8652 H   0  0  0  0  0  0  0  0  0  0  0  0
   -3.1480   -0.7208   -0.8852 H   0  0  0  0  0  0  0  0  0  0  0  0
   -3.1549   -0.7327    0.8705 H   0  0  0  0  0  0  0  0  0  0  0  0
  1 11  1  0  0  0  0
  1  3  1  0  0  0  0
  2  1  2  0  0  0  0
  3 13  1  0  0  0  0
  4  8  2  0  0  0  0
  4  2  1  0  0  0  0
  5 15  1  0  0  0  0
  6  5  1  0  0  0  0
  6 18  1  0  0  0  0
  7  5  1  0  0  0  0
  7  3  2  0  0  0  0
  8  7  1  0  0  0  0
  9  6  1  0  0  0  0
  9  8  1  0  0  0  0
 10  9  2  0  0  0  0
 12  2  1  0  0  0  0
 14  4  1  0  0  0  0
 16  5  1  0  0  0  0
 17  6  1  0  0  0  0
M  END
>  <HBA>
1

>  <HBD>
0

>  <TPSA>
17.07

>  <cid>
6735

>  <dipole>
3.44

>  <excitation_energy_1>
3.685

>  <excitation_energy_2>
4.686

>  <excitation_energy_3>
5.235

>  <excitation_energy_4>
5.274

>  <homo_energy>
-6.501

>  <homo_lumo_gap>
5.086

>  <logP>
1.815

>  <lumo_energy>
-1.415

>  <melting_point>
65.63

>  <molecular_refractivity>
39.49

>  <oscillator_strength_1>
0.0

>  <oscillator_strength_2>
0.0383

>  <oscillator_strength_3>
0.194

>  <oscillator_strength_4>
0.0002

>  <open_babel_can_smiles>
O=C1CCc2c1cccc2

>  <mulliken_charges>
18
1   -0.121382
2   -0.138303
3   -0.190172
4   -0.161892
5   -0.357636
6   -0.374755
7   0.111414
8   0.065258
9   0.382864
10   -0.465993
11   0.137675
12   0.137819
13   0.132193
14   0.157252
15   0.164319
16   0.164208
17   0.178621
18   0.17851

>  <lowdin_charges>
18
1   -0.13678
2   -0.156289
3   -0.164466
4   -0.123953
5   -0.280953
6   -0.310572
7   0.008989
8   -0.059995
9   0.145738
10   -0.242014
11   0.162385
12   0.160584
13   0.157596
14   0.171316
15   0.161063
16   0.161062
17   0.173155
18   0.173131

$$$$

