PCCDB-ID:  358
public computational chemistry database (PCCDB) project, http://pccdb.org

 21 20  0  0  1  0  0  0  0  0999 V2000
    0.8161   -0.5617    0.2681 C   0  0  0  0  0  0  0  0  0  0  0  0
    2.6567    1.1420   -0.1669 C   0  0  0  0  0  0  0  0  0  0  0  0
    2.6907    2.5547   -2.3389 C   0  0  0  0  0  0  0  0  0  0  0  0
    2.2922   -0.2151    0.4780 C   0  0  1  0  0  0  0  0  0  0  0  0
    2.6421    1.1827   -1.6807 C   0  0  0  0  0  0  0  0  0  0  0  0
    3.3896    2.6599   -3.7083 C   0  0  0  0  0  0  0  0  0  0  0  0
    2.5954   -0.2753    1.9122 N   0  0  0  0  0  0  0  0  0  0  0  0
    2.5909    0.1608   -2.3570 O   0  0  0  0  0  0  0  0  0  0  0  0
    3.9066    3.6907   -4.0627 O   0  0  0  0  0  0  0  0  0  0  0  0
    3.3381    1.5715   -4.4869 O   0  0  0  0  0  0  0  0  0  0  0  0
    0.5689   -0.6138   -0.7960 H   0  0  0  0  0  0  0  0  0  0  0  0
    0.1677    0.1918    0.7367 H   0  0  0  0  0  0  0  0  0  0  0  0
    0.5937   -1.5283    0.7283 H   0  0  0  0  0  0  0  0  0  0  0  0
    3.6769    1.4380    0.1292 H   0  0  0  0  0  0  0  0  0  0  0  0
    2.0059    1.9434    0.2154 H   0  0  0  0  0  0  0  0  0  0  0  0
    3.1308    3.3050   -1.6776 H   0  0  0  0  0  0  0  0  0  0  0  0
    1.6437    2.8596   -2.4944 H   0  0  0  0  0  0  0  0  0  0  0  0
    2.8993   -0.9868   -0.0089 H   0  0  0  0  0  0  0  0  0  0  0  0
    2.0726    0.4442    2.4121 H   0  0  0  0  0  0  0  0  0  0  0  0
    3.5824   -0.0829    2.0784 H   0  0  0  0  0  0  0  0  0  0  0  0
    2.9659    0.8208   -3.9634 H   0  0  0  0  0  0  0  0  0  0  0  0
  1  4  1  0  0  0  0
  1 13  1  0  0  0  0
  1 12  1  0  0  0  0
  2 14  1  0  0  0  0
  2 15  1  0  0  0  0
  2  4  1  0  0  0  0
  3  5  1  0  0  0  0
  3 16  1  0  0  0  0
  4 18  1  6  0  0  0
  4  7  1  0  0  0  0
  5  2  1  0  0  0  0
  6  3  1  0  0  0  0
  7 20  1  0  0  0  0
  7 19  1  0  0  0  0
  8  5  2  0  0  0  0
  9  6  2  0  0  0  0
 10 21  1  0  0  0  0
 10  6  1  0  0  0  0
 11  1  1  0  0  0  0
 17  3  1  0  0  0  0
M  END
>  <HBA>
4

>  <HBD>
2

>  <TPSA>
80.39

>  <cid>
358

>  <dipole>
4.73

>  <excitation_energy_1>
4.197

>  <excitation_energy_2>
4.906

>  <excitation_energy_3>
5.227

>  <excitation_energy_4>
5.539

>  <homo_energy>
-6.705

>  <homo_lumo_gap>
5.219

>  <logP>
0.468

>  <lumo_energy>
-1.486

>  <melting_point>
126.24

>  <molecular_refractivity>
35.64

>  <oscillator_strength_1>
0.0005

>  <oscillator_strength_2>
0.002

>  <oscillator_strength_3>
0.0237

>  <oscillator_strength_4>
0.0125

>  <open_babel_can_smiles>
C[C@@H](CC(=O)CC(=O)O)N

>  <mulliken_charges>
21
1   -0.448518
2   -0.375334
3   -0.48769
4   0.034085
5   0.480047
6   0.60494
7   -0.703465
8   -0.475735
9   -0.446089
10   -0.575617
11   0.161075
12   0.129961
13   0.171198
14   0.172622
15   0.159487
16   0.197604
17   0.217144
18   0.160498
19   0.29034
20   0.295696
21   0.437751

>  <lowdin_charges>
21
1   -0.449329
2   -0.324589
3   -0.3536
4   -0.0608
5   0.181185
6   0.190685
7   -0.544518
8   -0.248286
9   -0.246353
10   -0.35449
11   0.157536
12   0.142856
13   0.165871
14   0.17142
15   0.162304
16   0.18636
17   0.200446
18   0.15562
19   0.252577
20   0.252476
21   0.362628

$$$$

