PCCDB-ID:  45458
public computational chemistry database (PCCDB) project, http://pccdb.org

 29 31  0  0  1  0  0  0  0  0999 V2000
   -0.4853    1.4160    0.6291 C   0  0  0  0  0  0  0  0  0  0  0  0
    1.2424    0.8331   -0.9262 C   0  0  0  0  0  0  0  0  0  0  0  0
   -0.9728    0.1064    0.6003 C   0  0  0  0  0  0  0  0  0  0  0  0
    0.7762   -0.4751   -0.9670 C   0  0  0  0  0  0  0  0  0  0  0  0
    1.1652    3.2199   -0.0556 C   0  0  0  0  0  0  0  0  0  0  0  0
    1.9336    3.8967    2.3528 C   0  0  0  0  0  0  0  0  0  0  0  0
   -1.8228   -2.6063    0.4719 C   0  0  0  0  0  0  0  0  0  0  0  0
   -2.9547   -4.5858   -0.7718 C   0  0  0  0  0  0  0  0  0  0  0  0
    0.6226    1.8071   -0.1271 C   0  0  0  0  0  0  0  0  0  0  0  0
   -0.3370   -0.8475   -0.2011 C   0  0  0  0  0  0  0  0  0  0  0  0
    2.2343    3.3762    1.0125 C   0  0  2  0  0  0  0  0  0  0  0  0
   -1.9828   -4.0834    0.2065 C   0  0  2  0  0  0  0  0  0  0  0  0
   -0.7275   -2.1539   -0.3150 O   0  0  0  0  0  0  0  0  0  0  0  0
    2.5877    4.7170    1.3738 O   0  0  0  0  0  0  0  0  0  0  0  0
   -3.2293   -4.6381    0.6364 O   0  0  0  0  0  0  0  0  0  0  0  0
   -0.9922    2.1476    1.2546 H   0  0  0  0  0  0  0  0  0  0  0  0
    2.1024    1.1067   -1.5338 H   0  0  0  0  0  0  0  0  0  0  0  0
   -1.8420   -0.1503    1.1953 H   0  0  0  0  0  0  0  0  0  0  0  0
    1.2544   -1.2255   -1.5889 H   0  0  0  0  0  0  0  0  0  0  0  0
    0.3615    3.9361    0.1521 H   0  0  0  0  0  0  0  0  0  0  0  0
    1.6011    3.5050   -1.0221 H   0  0  0  0  0  0  0  0  0  0  0  0
    2.5478    3.6040    3.2048 H   0  0  0  0  0  0  0  0  0  0  0  0
    0.9121    4.1905    2.5983 H   0  0  0  0  0  0  0  0  0  0  0  0
   -1.6250   -2.4352    1.5400 H   0  0  0  0  0  0  0  0  0  0  0  0
   -2.7494   -2.0785    0.2071 H   0  0  0  0  0  0  0  0  0  0  0  0
   -2.7892   -5.5508   -1.2502 H   0  0  0  0  0  0  0  0  0  0  0  0
   -3.5611   -3.8800   -1.3400 H   0  0  0  0  0  0  0  0  0  0  0  0
    3.0893    2.7033    0.9113 H   0  0  0  0  0  0  0  0  0  0  0  0
   -1.1053   -4.6918    0.4315 H   0  0  0  0  0  0  0  0  0  0  0  0
  1 16  1  0  0  0  0
  2  9  1  0  0  0  0
  3  1  1  0  0  0  0
  3 18  1  0  0  0  0
  4  2  2  0  0  0  0
  4 10  1  0  0  0  0
  5 20  1  0  0  0  0
  5 11  1  0  0  0  0
  6 23  1  0  0  0  0
  6 22  1  0  0  0  0
  7 24  1  0  0  0  0
  8 12  1  0  0  0  0
  8 15  1  0  0  0  0
  9  5  1  0  0  0  0
  9  1  2  0  0  0  0
 10  3  2  0  0  0  0
 11 28  1  6  0  0  0
 11 14  1  0  0  0  0
 11  6  1  0  0  0  0
 12 29  1  1  0  0  0
 12  7  1  0  0  0  0
 12 15  1  0  0  0  0
 13 10  1  0  0  0  0
 13  7  1  0  0  0  0
 14  6  1  0  0  0  0
 17  2  1  0  0  0  0
 19  4  1  0  0  0  0
 21  5  1  0  0  0  0
 25  7  1  0  0  0  0
 26  8  1  0  0  0  0
 27  8  1  0  0  0  0
M  END
>  <HBA>
3

>  <HBD>
0

>  <TPSA>
34.29

>  <cid>
45458

>  <dipole>
1.56

>  <excitation_energy_1>
4.952

>  <excitation_energy_2>
5.47

>  <excitation_energy_3>
5.615

>  <excitation_energy_4>
5.837

>  <homo_energy>
-6.0

>  <homo_lumo_gap>
5.826

>  <logP>
1.405

>  <lumo_energy>
-0.174

>  <melting_point>
37.86

>  <molecular_refractivity>
55.07

>  <oscillator_strength_1>
0.028

>  <oscillator_strength_2>
0.0577

>  <oscillator_strength_3>
0.1226

>  <oscillator_strength_4>
0.0007

>  <open_babel_can_smiles>
C1O[C@@H]1COc1ccc(cc1)C[C@@H]1CO1

>  <mulliken_charges>
29
1   -0.191881
2   -0.187635
3   -0.192186
4   -0.173723
5   -0.380053
6   -0.107984
7   -0.054767
8   -0.103038
9   0.167288
10   0.379147
11   0.120699
12   0.08838
13   -0.525457
14   -0.447501
15   -0.444358
16   0.125889
17   0.128462
18   0.138091
19   0.138358
20   0.152071
21   0.1575
22   0.150102
23   0.144707
24   0.153105
25   0.149167
26   0.158031
27   0.15565
28   0.143539
29   0.158395

>  <lowdin_charges>
29
1   -0.155493
2   -0.15668
3   -0.21145
4   -0.18182
5   -0.276541
6   -0.168117
7   -0.129782
8   -0.161398
9   -0.021928
10   0.101591
11   -0.020029
12   -0.026278
13   -0.202581
14   -0.289222
15   -0.281597
16   0.157064
17   0.157653
18   0.164418
19   0.168158
20   0.15889
21   0.158651
22   0.154618
23   0.14818
24   0.145428
25   0.146892
26   0.158488
27   0.157013
28   0.148714
29   0.15716

$$$$

