PCCDB-ID:  66941
public computational chemistry database (PCCDB) project, http://pccdb.org

 27 26  0  0  0  0  0  0  0  0999 V2000
    0.7186   -1.0744   -0.4519 C   0  0  0  0  0  0  0  0  0  0  0  0
    7.1258   -2.3549   -0.6411 C   0  0  0  0  0  0  0  0  0  0  0  0
    7.4786   -2.3721   -3.0090 C   0  0  0  0  0  0  0  0  0  0  0  0
    2.5752   -0.5357   -2.7900 C   0  0  0  0  0  0  0  0  0  0  0  0
    2.1876   -0.6491   -0.4028 C   0  0  0  0  0  0  0  0  0  0  0  0
    5.2596   -1.9556   -2.1510 C   0  0  0  0  0  0  0  0  0  0  0  0
    4.4196   -1.0002   -1.2902 C   0  0  0  0  0  0  0  0  0  0  0  0
    6.6974   -1.8011   -1.9197 N   0  0  0  0  0  0  0  0  0  0  0  0
    2.9811   -1.1495   -1.5300 N   0  0  0  0  0  0  0  0  0  0  0  0
    0.2180   -0.7923    0.4813 H   0  0  0  0  0  0  0  0  0  0  0  0
    0.6408   -2.1602   -0.5727 H   0  0  0  0  0  0  0  0  0  0  0  0
    0.1696   -0.5987   -1.2711 H   0  0  0  0  0  0  0  0  0  0  0  0
    8.1981   -2.1754   -0.5070 H   0  0  0  0  0  0  0  0  0  0  0  0
    6.9485   -3.4465   -0.5606 H   0  0  0  0  0  0  0  0  0  0  0  0
    6.6041   -1.8665    0.1868 H   0  0  0  0  0  0  0  0  0  0  0  0
    8.5440   -2.1837   -2.8350 H   0  0  0  0  0  0  0  0  0  0  0  0
    7.2008   -1.8963   -3.9557 H   0  0  0  0  0  0  0  0  0  0  0  0
    7.3431   -3.4666   -3.1221 H   0  0  0  0  0  0  0  0  0  0  0  0
    1.5223   -0.7474   -2.9944 H   0  0  0  0  0  0  0  0  0  0  0  0
    3.1537   -0.9503   -3.6198 H   0  0  0  0  0  0  0  0  0  0  0  0
    2.7129    0.5646   -2.7944 H   0  0  0  0  0  0  0  0  0  0  0  0
    2.6330   -1.0565    0.5125 H   0  0  0  0  0  0  0  0  0  0  0  0
    2.2502    0.4557   -0.3185 H   0  0  0  0  0  0  0  0  0  0  0  0
    5.0803   -1.7402   -3.2098 H   0  0  0  0  0  0  0  0  0  0  0  0
    4.9142   -2.9930   -1.9755 H   0  0  0  0  0  0  0  0  0  0  0  0
    4.7716    0.0356   -1.4586 H   0  0  0  0  0  0  0  0  0  0  0  0
    4.5977   -1.2242   -0.2333 H   0  0  0  0  0  0  0  0  0  0  0  0
  1  5  1  0  0  0  0
  1 10  1  0  0  0  0
  2 14  1  0  0  0  0
  2 13  1  0  0  0  0
  2 15  1  0  0  0  0
  3 16  1  0  0  0  0
  3  8  1  0  0  0  0
  4  9  1  0  0  0  0
  5 23  1  0  0  0  0
  5 22  1  0  0  0  0
  6 25  1  0  0  0  0
  6  8  1  0  0  0  0
  6  7  1  0  0  0  0
  7 27  1  0  0  0  0
  8  2  1  0  0  0  0
  9  7  1  0  0  0  0
  9  5  1  0  0  0  0
 11  1  1  0  0  0  0
 12  1  1  0  0  0  0
 17  3  1  0  0  0  0
 18  3  1  0  0  0  0
 19  4  1  0  0  0  0
 20  4  1  0  0  0  0
 21  4  1  0  0  0  0
 24  6  1  0  0  0  0
 26  7  1  0  0  0  0
M  END
>  <HBA>
2

>  <HBD>
0

>  <TPSA>
6.48

>  <cid>
66941

>  <dipole>
0.08

>  <excitation_energy_1>
5.306

>  <excitation_energy_2>
5.399

>  <excitation_energy_3>
5.624

>  <excitation_energy_4>
5.697

>  <homo_energy>
-5.614

>  <homo_lumo_gap>
7.867

>  <logP>
0.5

>  <lumo_energy>
2.253

>  <melting_point>
-21.95

>  <molecular_refractivity>
41.55

>  <oscillator_strength_1>
0.0251

>  <oscillator_strength_2>
0.0011

>  <oscillator_strength_3>
0.0014

>  <oscillator_strength_4>
0.005

>  <open_babel_can_smiles>
CCN(CCN(C)C)C

>  <mulliken_charges>
27
1   -0.45295
2   -0.300917
3   -0.29264
4   -0.308442
5   -0.102947
6   -0.116953
7   -0.117989
8   -0.371076
9   -0.380216
10   0.142123
11   0.155744
12   0.146719
13   0.147655
14   0.117308
15   0.151776
16   0.145886
17   0.147764
18   0.116831
19   0.153206
20   0.150889
21   0.116974
22   0.135678
23   0.107999
24   0.132905
25   0.120236
26   0.122234
27   0.132205

>  <lowdin_charges>
27
1   -0.450789
2   -0.355325
3   -0.351487
4   -0.357351
5   -0.193525
6   -0.201906
7   -0.201938
8   -0.184646
9   -0.188288
10   0.152824
11   0.152992
12   0.149074
13   0.148176
14   0.117802
15   0.150341
16   0.146501
17   0.148464
18   0.117403
19   0.150399
20   0.150996
21   0.117694
22   0.142951
23   0.112337
24   0.141258
25   0.121818
26   0.123127
27   0.141097

$$$$

