PCCDB-ID:  70532
public computational chemistry database (PCCDB) project, http://pccdb.org

 24 25  0  0  0  0  0  0  0  0999 V2000
    2.6811    0.5389   -0.1299 C   0  0  0  0  0  0  0  0  0  0  0  0
    2.4788   -0.8354    0.1497 C   0  0  0  0  0  0  0  0  0  0  0  0
    1.6028    1.3822   -0.2785 C   0  0  0  0  0  0  0  0  0  0  0  0
    1.2061   -1.3464    0.2768 C   0  0  0  0  0  0  0  0  0  0  0  0
   -0.8775    1.6927   -0.2965 C   0  0  0  0  0  0  0  0  0  0  0  0
   -2.1212    1.1279   -0.1619 C   0  0  0  0  0  0  0  0  0  0  0  0
   -3.6001   -0.8984    0.3033 C   0  0  0  0  0  0  0  0  0  0  0  0
   -3.6711   -2.3671   -0.1479 C   0  0  0  0  0  0  0  0  0  0  0  0
    0.2797    0.8855   -0.1530 C   0  0  0  0  0  0  0  0  0  0  0  0
   -2.2356   -0.2624    0.1266 C   0  0  0  0  0  0  0  0  0  0  0  0
    0.0760   -0.5009    0.1299 C   0  0  0  0  0  0  0  0  0  0  0  0
   -1.1718   -1.0394    0.2666 N   0  0  0  0  0  0  0  0  0  0  0  0
   -2.8994   -3.2248    0.6671 O   0  0  0  0  0  0  0  0  0  0  0  0
    3.6922    0.9240   -0.2267 H   0  0  0  0  0  0  0  0  0  0  0  0
    3.3389   -1.4894    0.2645 H   0  0  0  0  0  0  0  0  0  0  0  0
    1.7500    2.4379   -0.4946 H   0  0  0  0  0  0  0  0  0  0  0  0
    1.0331   -2.3966    0.4910 H   0  0  0  0  0  0  0  0  0  0  0  0
   -0.7660    2.7523   -0.5157 H   0  0  0  0  0  0  0  0  0  0  0  0
   -3.0214    1.7246   -0.2749 H   0  0  0  0  0  0  0  0  0  0  0  0
   -3.8745   -0.8585    1.3675 H   0  0  0  0  0  0  0  0  0  0  0  0
   -4.3492   -0.3055   -0.2375 H   0  0  0  0  0  0  0  0  0  0  0  0
   -3.3723   -2.4344   -1.2085 H   0  0  0  0  0  0  0  0  0  0  0  0
   -4.7088   -2.7122   -0.0796 H   0  0  0  0  0  0  0  0  0  0  0  0
   -2.0030   -2.8346    0.6474 H   0  0  0  0  0  0  0  0  0  0  0  0
  1  2  2  0  0  0  0
  2 15  1  0  0  0  0
  2  4  1  0  0  0  0
  3  9  2  0  0  0  0
  3  1  1  0  0  0  0
  4 17  1  0  0  0  0
  5  6  2  0  0  0  0
  5  9  1  0  0  0  0
  6 10  1  0  0  0  0
  7 20  1  0  0  0  0
  8 23  1  0  0  0  0
  8  7  1  0  0  0  0
  8 13  1  0  0  0  0
  9 11  1  0  0  0  0
 10 12  2  0  0  0  0
 10  7  1  0  0  0  0
 11 12  1  0  0  0  0
 11  4  2  0  0  0  0
 14  1  1  0  0  0  0
 16  3  1  0  0  0  0
 18  5  1  0  0  0  0
 19  6  1  0  0  0  0
 21  7  1  0  0  0  0
 22  8  1  0  0  0  0
 24 13  1  0  0  0  0
M  END
>  <HBA>
2

>  <HBD>
1

>  <TPSA>
33.12

>  <cid>
70532

>  <dipole>
4.11

>  <excitation_energy_1>
4.234

>  <excitation_energy_2>
4.372

>  <excitation_energy_3>
4.451

>  <excitation_energy_4>
4.55

>  <homo_energy>
-6.438

>  <homo_lumo_gap>
4.833

>  <logP>
1.77

>  <lumo_energy>
-1.605

>  <melting_point>
85.95

>  <molecular_refractivity>
52.68

>  <oscillator_strength_1>
0.0138

>  <oscillator_strength_2>
0.0272

>  <oscillator_strength_3>
0.0354

>  <oscillator_strength_4>
0.002

>  <open_babel_can_smiles>
OCCc1ccc2c(n1)cccc2

>  <mulliken_charges>
24
1   -0.130888
2   -0.138077
3   -0.198181
4   -0.144614
5   -0.140176
6   -0.193189
7   -0.35483
8   -0.015218
9   0.147682
10   0.346939
11   0.260136
12   -0.613879
13   -0.639866
14   0.137041
15   0.139388
16   0.135593
17   0.14669
18   0.144507
19   0.139263
20   0.172868
21   0.137919
22   0.11508
23   0.135788
24   0.410025

>  <lowdin_charges>
24
1   -0.154564
2   -0.148801
3   -0.152226
4   -0.152651
5   -0.118414
6   -0.185742
7   -0.303313
8   -0.124575
9   -0.018363
10   0.066079
11   0.046838
12   -0.166462
13   -0.485975
14   0.161357
15   0.164019
16   0.158555
17   0.16786
18   0.162759
19   0.165711
20   0.166216
21   0.153402
22   0.121344
23   0.142452
24   0.334492

$$$$

