PCCDB-ID:  14500
public computational chemistry database (PCCDB) project, http://pccdb.org

 16 16  0  0  0  0  0  0  0  0999 V2000
   -0.7448   -1.0157   -0.2080 C   0  0  0  0  0  0  0  0  0  0  0  0
    0.7404   -1.0254    0.2095 C   0  0  0  0  0  0  0  0  0  0  0  0
   -1.2040    0.4212    0.1139 C   0  0  0  0  0  0  0  0  0  0  0  0
    1.2644    0.3663   -0.2072 C   0  0  0  0  0  0  0  0  0  0  0  0
    0.0318    1.2498   -0.1820 C   0  0  0  0  0  0  0  0  0  0  0  0
   -0.0435    2.5031   -0.4089 N   0  0  0  0  0  0  0  0  0  0  0  0
    1.2436    3.0411   -0.6701 O   0  0  0  0  0  0  0  0  0  0  0  0
   -1.3395   -1.7788    0.3042 H   0  0  0  0  0  0  0  0  0  0  0  0
   -0.8305   -1.1995   -1.2869 H   0  0  0  0  0  0  0  0  0  0  0  0
    1.3065   -1.8466   -0.2415 H   0  0  0  0  0  0  0  0  0  0  0  0
    0.8148   -1.1399    1.2987 H   0  0  0  0  0  0  0  0  0  0  0  0
   -1.4552    0.5038    1.1816 H   0  0  0  0  0  0  0  0  0  0  0  0
   -2.0779    0.7569   -0.4515 H   0  0  0  0  0  0  0  0  0  0  0  0
    1.6762    0.3602   -1.2257 H   0  0  0  0  0  0  0  0  0  0  0  0
    2.0562    0.7585    0.4397 H   0  0  0  0  0  0  0  0  0  0  0  0
    1.0392    3.9758   -0.8270 H   0  0  0  0  0  0  0  0  0  0  0  0
  1  3  1  0  0  0  0
  1  2  1  0  0  0  0
  1  8  1  0  0  0  0
  2 11  1  0  0  0  0
  3 12  1  0  0  0  0
  4  5  1  0  0  0  0
  4  2  1  0  0  0  0
  4 15  1  0  0  0  0
  5  3  1  0  0  0  0
  6  5  2  0  0  0  0
  7  6  1  0  0  0  0
  9  1  1  0  0  0  0
 10  2  1  0  0  0  0
 13  3  1  0  0  0  0
 14  4  1  0  0  0  0
 16  7  1  0  0  0  0
M  END
>  <HBA>
2

>  <HBD>
1

>  <TPSA>
32.59

>  <cid>
14500

>  <dipole>
0.9

>  <excitation_energy_1>
5.987

>  <excitation_energy_2>
6.107

>  <excitation_energy_3>
6.376

>  <excitation_energy_4>
6.509

>  <homo_energy>
-6.449

>  <homo_lumo_gap>
6.781

>  <logP>
1.391

>  <lumo_energy>
0.332

>  <melting_point>
68.45

>  <molecular_refractivity>
28.45

>  <oscillator_strength_1>
0.0037

>  <oscillator_strength_2>
0.0039

>  <oscillator_strength_3>
0.1402

>  <oscillator_strength_4>
0.0258

>  <open_babel_can_smiles>
ON=C1CCCC1

>  <mulliken_charges>
16
1   -0.279784
2   -0.282896
3   -0.311239
4   -0.312475
5   0.330498
6   -0.265827
7   -0.518026
8   0.139775
9   0.14497
10   0.140864
11   0.142389
12   0.158796
13   0.162352
14   0.168647
15   0.169908
16   0.412048

>  <lowdin_charges>
16
1   -0.27896
2   -0.280166
3   -0.278873
4   -0.293415
5   0.013369
6   -0.077494
7   -0.391365
8   0.149501
9   0.143157
10   0.149704
11   0.14231
12   0.155995
13   0.163554
14   0.164548
15   0.167871
16   0.350264

$$$$

