PCCDB-ID:  61240
public computational chemistry database (PCCDB) project, http://pccdb.org

 18 18  0  0  0  0  0  0  0  0999 V2000
    1.4178    0.0576   -1.0078 C   0  0  0  0  0  0  0  0  0  0  0  0
    1.8363   -2.9734   -0.4409 C   0  0  0  0  0  0  0  0  0  0  0  0
    4.6320   -2.3078    1.7874 C   0  0  0  0  0  0  0  0  0  0  0  0
    4.3071   -0.9912    1.4154 C   0  0  0  0  0  0  0  0  0  0  0  0
    3.7411   -3.1379    1.1295 C   0  0  0  0  0  0  0  0  0  0  0  0
    2.6074    0.1582   -0.0609 C   0  0  0  0  0  0  0  0  0  0  0  0
    3.2261   -1.0355    0.5367 C   0  0  0  0  0  0  0  0  0  0  0  0
    2.8885   -2.3828    0.3723 N   0  0  0  0  0  0  0  0  0  0  0  0
    3.0615    1.2646    0.2133 O   0  0  0  0  0  0  0  0  0  0  0  0
    0.5544   -0.4172   -0.5275 H   0  0  0  0  0  0  0  0  0  0  0  0
    1.6601   -0.5225   -1.9057 H   0  0  0  0  0  0  0  0  0  0  0  0
    1.1452    1.0720   -1.3045 H   0  0  0  0  0  0  0  0  0  0  0  0
    1.8884   -4.0582   -0.3288 H   0  0  0  0  0  0  0  0  0  0  0  0
    1.9648   -2.7309   -1.4995 H   0  0  0  0  0  0  0  0  0  0  0  0
    0.8454   -2.6411   -0.1183 H   0  0  0  0  0  0  0  0  0  0  0  0
    5.4185   -2.6266    2.4576 H   0  0  0  0  0  0  0  0  0  0  0  0
    4.7822   -0.0728    1.7287 H   0  0  0  0  0  0  0  0  0  0  0  0
    3.6482   -4.2156    1.1409 H   0  0  0  0  0  0  0  0  0  0  0  0
  1 10  1  0  0  0  0
  1  6  1  0  0  0  0
  2 13  1  0  0  0  0
  2 15  1  0  0  0  0
  2  8  1  0  0  0  0
  3 16  1  0  0  0  0
  4 17  1  0  0  0  0
  4  3  1  0  0  0  0
  5 18  1  0  0  0  0
  5  3  2  0  0  0  0
  6  9  2  0  0  0  0
  6  7  1  0  0  0  0
  7  4  2  0  0  0  0
  8  7  1  0  0  0  0
  8  5  1  0  0  0  0
 11  1  1  0  0  0  0
 12  1  1  0  0  0  0
 14  2  1  0  0  0  0
M  END
>  <HBA>
2

>  <HBD>
0

>  <TPSA>
22.0

>  <cid>
61240

>  <dipole>
4.74

>  <excitation_energy_1>
3.994

>  <excitation_energy_2>
4.736

>  <excitation_energy_3>
5.036

>  <excitation_energy_4>
5.299

>  <homo_energy>
-5.924

>  <homo_lumo_gap>
5.067

>  <logP>
1.228

>  <lumo_energy>
-0.857

>  <melting_point>
41.38

>  <molecular_refractivity>
35.89

>  <oscillator_strength_1>
0.0001

>  <oscillator_strength_2>
0.3352

>  <oscillator_strength_3>
0.038

>  <oscillator_strength_4>
0.0019

>  <open_babel_can_smiles>
CC(=O)c1cccn1C

>  <mulliken_charges>
18
1   -0.547103
2   -0.321929
3   -0.191583
4   -0.168116
5   0.04117
6   0.426091
7   0.228002
8   -0.46132
9   -0.473548
10   0.161046
11   0.16103
12   0.1832
13   0.172077
14   0.176522
15   0.1764
16   0.133066
17   0.155701
18   0.149295

>  <lowdin_charges>
18
1   -0.477224
2   -0.341828
3   -0.21257
4   -0.161759
5   -0.133039
6   0.15215
7   -0.055321
8   0.000427
9   -0.264625
10   0.163806
11   0.16345
12   0.175343
13   0.165745
14   0.160285
15   0.161062
16   0.165119
17   0.177732
18   0.161248

$$$$

