PCCDB-ID:  52803
public computational chemistry database (PCCDB) project, http://pccdb.org

 22 22  0  0  0  0  0  0  0  0999 V2000
   -0.6926    1.3378    0.1724 C   0  0  0  0  0  0  0  0  0  0  0  0
   -1.3494    0.1021    0.2280 C   0  0  0  0  0  0  0  0  0  0  0  0
    0.7073    1.2752    0.0606 C   0  0  0  0  0  0  0  0  0  0  0  0
    0.6344   -0.9923    0.0934 C   0  0  0  0  0  0  0  0  0  0  0  0
   -3.5577    1.0569    0.6878 N   0  0  0  0  0  0  0  0  0  0  0  0
    0.9923    3.6809   -0.3090 N   0  0  0  0  0  0  0  0  0  0  0  0
    0.7140   -3.4191   -0.1391 N   0  0  0  0  0  0  0  0  0  0  0  0
   -0.6995   -1.0771    0.1938 N   0  0  0  0  0  0  0  0  0  0  0  0
    1.3849    0.1191    0.0098 N   0  0  0  0  0  0  0  0  0  0  0  0
   -2.7199   -0.0003    0.3002 N   0  0  0  0  0  0  0  0  0  0  0  0
    1.4873    2.4077    0.0138 N   0  0  0  0  0  0  0  0  0  0  0  0
    1.3337   -2.1742    0.0836 N   0  0  0  0  0  0  0  0  0  0  0  0
   -1.2261    2.2775    0.2057 H   0  0  0  0  0  0  0  0  0  0  0  0
   -3.6649    1.6981   -0.0964 H   0  0  0  0  0  0  0  0  0  0  0  0
   -3.1338    1.5767    1.4590 H   0  0  0  0  0  0  0  0  0  0  0  0
    0.5180    4.0681    0.5051 H   0  0  0  0  0  0  0  0  0  0  0  0
    0.3080    3.6120   -1.0649 H   0  0  0  0  0  0  0  0  0  0  0  0
   -0.0582   -3.2730   -0.7930 H   0  0  0  0  0  0  0  0  0  0  0  0
    0.2695   -3.6957    0.7365 H   0  0  0  0  0  0  0  0  0  0  0  0
   -3.0628   -0.9161    0.5597 H   0  0  0  0  0  0  0  0  0  0  0  0
    2.4447    2.2504   -0.2734 H   0  0  0  0  0  0  0  0  0  0  0  0
    2.2887   -2.1134   -0.2407 H   0  0  0  0  0  0  0  0  0  0  0  0
  1 13  1  0  0  0  0
  1  2  2  0  0  0  0
  2 10  1  0  0  0  0
  3  1  1  0  0  0  0
  4  8  2  0  0  0  0
  5 15  1  0  0  0  0
  6 11  1  0  0  0  0
  6 16  1  0  0  0  0
  7 12  1  0  0  0  0
  7 19  1  0  0  0  0
  8  2  1  0  0  0  0
  9  3  2  0  0  0  0
  9  4  1  0  0  0  0
 10 20  1  0  0  0  0
 10  5  1  0  0  0  0
 11  3  1  0  0  0  0
 12  4  1  0  0  0  0
 14  5  1  0  0  0  0
 17  6  1  0  0  0  0
 18  7  1  0  0  0  0
 21 11  1  0  0  0  0
 22 12  1  0  0  0  0
M  END
>  <HBA>
8

>  <HBD>
6

>  <TPSA>
139.93

>  <cid>
52803

>  <dipole>
2.94

>  <excitation_energy_1>
4.757

>  <excitation_energy_2>
4.992

>  <excitation_energy_3>
5.364

>  <excitation_energy_4>
5.443

>  <homo_energy>
-5.687

>  <homo_lumo_gap>
5.821

>  <logP>
0.653

>  <lumo_energy>
0.133

>  <melting_point>
304.73

>  <molecular_refractivity>
43.65

>  <oscillator_strength_1>
0.0385

>  <oscillator_strength_2>
0.0318

>  <oscillator_strength_3>
0.0031

>  <oscillator_strength_4>
0.0535

>  <open_babel_can_smiles>
NNc1cc(NN)nc(n1)NN

>  <mulliken_charges>
22
1   -0.271093
2   0.539636
3   0.542376
4   0.671903
5   -0.567995
6   -0.568281
7   -0.561959
8   -0.603666
9   -0.598067
10   -0.531702
11   -0.531434
12   -0.52651
13   0.091337
14   0.322416
15   0.311152
16   0.322288
17   0.310624
18   0.315739
19   0.320489
20   0.33644
21   0.338444
22   0.337864

>  <lowdin_charges>
22
1   -0.339958
2   0.119699
3   0.117862
4   0.126236
5   -0.462755
6   -0.461162
7   -0.457706
8   -0.271357
9   -0.2607
10   -0.227971
11   -0.226466
12   -0.226531
13   0.150441
14   0.264369
15   0.2564
16   0.264361
17   0.255361
18   0.258635
19   0.263185
20   0.28578
21   0.286166
22   0.286113

$$$$

