PCCDB-ID:  29656
public computational chemistry database (PCCDB) project, http://pccdb.org

 21 20  0  0  1  0  0  0  0  0999 V2000
    3.1314    0.6999   -1.1715 C   0  0  0  0  0  0  0  0  0  0  0  0
    3.1925   -1.7547   -0.5709 C   0  0  0  0  0  0  0  0  0  0  0  0
    2.3537   -0.7530    2.3778 C   0  0  0  0  0  0  0  0  0  0  0  0
    4.6484   -0.0860    1.5582 C   0  0  0  0  0  0  0  0  0  0  0  0
    2.7134   -0.3584   -0.1366 C   0  0  0  0  0  0  0  0  0  0  0  0
    3.1340    0.0280    1.3103 C   0  0  1  0  0  0  0  0  0  0  0  0
    5.0409    0.4193    2.8332 O   0  0  0  0  0  0  0  0  0  0  0  0
    2.7420    0.4465   -2.1646 H   0  0  0  0  0  0  0  0  0  0  0  0
    4.2215    0.7783   -1.2615 H   0  0  0  0  0  0  0  0  0  0  0  0
    2.7459    1.6919   -0.9061 H   0  0  0  0  0  0  0  0  0  0  0  0
    2.7574   -2.0218   -1.5410 H   0  0  0  0  0  0  0  0  0  0  0  0
    2.9030   -2.5321    0.1443 H   0  0  0  0  0  0  0  0  0  0  0  0
    4.2830   -1.7924   -0.6831 H   0  0  0  0  0  0  0  0  0  0  0  0
    2.6810   -0.4589    3.3792 H   0  0  0  0  0  0  0  0  0  0  0  0
    2.5158   -1.8337    2.2835 H   0  0  0  0  0  0  0  0  0  0  0  0
    1.2762   -0.5677    2.2957 H   0  0  0  0  0  0  0  0  0  0  0  0
    5.2121    0.4154    0.7562 H   0  0  0  0  0  0  0  0  0  0  0  0
    4.9554   -1.1370    1.5633 H   0  0  0  0  0  0  0  0  0  0  0  0
    1.6133   -0.3805   -0.1310 H   0  0  0  0  0  0  0  0  0  0  0  0
    2.8766    1.0948    1.4301 H   0  0  0  0  0  0  0  0  0  0  0  0
    4.8175    1.3633    2.8504 H   0  0  0  0  0  0  0  0  0  0  0  0
  1 10  1  0  0  0  0
  1  5  1  0  0  0  0
  2  5  1  0  0  0  0
  2 12  1  0  0  0  0
  3 14  1  0  0  0  0
  4 18  1  0  0  0  0
  4  7  1  0  0  0  0
  5 19  1  0  0  0  0
  5  6  1  0  0  0  0
  6 20  1  1  0  0  0
  6  4  1  0  0  0  0
  6  3  1  0  0  0  0
  7 21  1  0  0  0  0
  8  1  1  0  0  0  0
  9  1  1  0  0  0  0
 11  2  1  0  0  0  0
 13  2  1  0  0  0  0
 15  3  1  0  0  0  0
 16  3  1  0  0  0  0
 17  4  1  0  0  0  0
M  END
>  <HBA>
1

>  <HBD>
1

>  <TPSA>
20.23

>  <cid>
29656

>  <dipole>
1.69

>  <excitation_energy_1>
6.331

>  <excitation_energy_2>
6.94

>  <excitation_energy_3>
7.193

>  <excitation_energy_4>
7.292

>  <homo_energy>
-7.021

>  <homo_lumo_gap>
9.012

>  <logP>
1.271

>  <lumo_energy>
1.992

>  <melting_point>
-7.94

>  <molecular_refractivity>
32.12

>  <oscillator_strength_1>
0.0029

>  <oscillator_strength_2>
0.0109

>  <oscillator_strength_3>
0.0066

>  <oscillator_strength_4>
0.0022

>  <open_babel_can_smiles>
OC[C@@H](C(C)C)C

>  <mulliken_charges>
21
1   -0.451285
2   -0.454582
3   -0.452125
4   -0.034557
5   -0.069524
6   -0.093694
7   -0.61786
8   0.142623
9   0.142282
10   0.138857
11   0.142232
12   0.147126
13   0.144126
14   0.159759
15   0.141277
16   0.136574
17   0.121149
18   0.145958
19   0.123009
20   0.103869
21   0.384786

>  <lowdin_charges>
21
1   -0.444655
2   -0.447974
3   -0.44535
4   -0.13987
5   -0.119581
6   -0.141572
7   -0.465296
8   0.149235
9   0.143037
10   0.145857
11   0.150073
12   0.150773
13   0.144876
14   0.15789
15   0.14447
16   0.144302
17   0.128345
18   0.145057
19   0.136303
20   0.126973
21   0.33711

$$$$

