PCCDB-ID:  10296
public computational chemistry database (PCCDB) project, http://pccdb.org

 21 21  0  0  1  0  0  0  0  0999 V2000
    1.1533   -0.0121    0.0086 C   0  0  0  0  0  0  0  0  0  0  0  0
    3.7076   -2.8171   -3.4599 C   0  0  0  0  0  0  0  0  0  0  0  0
    3.9573   -3.2364   -2.1538 C   0  0  0  0  0  0  0  0  0  0  0  0
    3.1261   -1.5663   -3.6847 C   0  0  0  0  0  0  0  0  0  0  0  0
    3.6243   -2.4092   -1.0780 C   0  0  0  0  0  0  0  0  0  0  0  0
    2.7944   -0.7432   -2.6102 C   0  0  0  0  0  0  0  0  0  0  0  0
    2.6642   -0.2599   -0.1128 C   0  0  1  0  0  0  0  0  0  0  0  0
    3.0357   -1.1547   -1.2886 C   0  0  0  0  0  0  0  0  0  0  0  0
    3.4333    1.0768   -0.1236 C   0  0  0  0  0  0  0  0  0  0  0  0
    2.9616    2.1290    0.2288 O   0  0  0  0  0  0  0  0  0  0  0  0
    4.7323    1.0029   -0.5095 O   0  0  0  0  0  0  0  0  0  0  0  0
    0.6224   -0.9623    0.1213 H   0  0  0  0  0  0  0  0  0  0  0  0
    0.7654    0.4962   -0.8796 H   0  0  0  0  0  0  0  0  0  0  0  0
    0.9433    0.6234    0.8720 H   0  0  0  0  0  0  0  0  0  0  0  0
    3.9657   -3.4575   -4.2987 H   0  0  0  0  0  0  0  0  0  0  0  0
    4.4094   -4.2069   -1.9678 H   0  0  0  0  0  0  0  0  0  0  0  0
    2.9325   -1.2303   -4.6998 H   0  0  0  0  0  0  0  0  0  0  0  0
    3.8153   -2.7460   -0.0612 H   0  0  0  0  0  0  0  0  0  0  0  0
    2.3475    0.2304   -2.7975 H   0  0  0  0  0  0  0  0  0  0  0  0
    3.0021   -0.7673    0.8036 H   0  0  0  0  0  0  0  0  0  0  0  0
    4.9209    0.1042   -0.8342 H   0  0  0  0  0  0  0  0  0  0  0  0
  1 12  1  0  0  0  0
  1 14  1  0  0  0  0
  2  3  1  0  0  0  0
  3 16  1  0  0  0  0
  3  5  2  0  0  0  0
  4  2  2  0  0  0  0
  4  6  1  0  0  0  0
  5 18  1  0  0  0  0
  6  8  2  0  0  0  0
  7  1  1  0  0  0  0
  7 20  1  1  0  0  0
  8  5  1  0  0  0  0
  8  7  1  0  0  0  0
  9  7  1  0  0  0  0
  9 10  2  0  0  0  0
 11  9  1  0  0  0  0
 13  1  1  0  0  0  0
 15  2  1  0  0  0  0
 17  4  1  0  0  0  0
 19  6  1  0  0  0  0
 21 11  1  0  0  0  0
M  END
>  <HBA>
2

>  <HBD>
1

>  <TPSA>
37.3

>  <cid>
10296

>  <dipole>
4.58

>  <excitation_energy_1>
5.245

>  <excitation_energy_2>
5.5

>  <excitation_energy_3>
5.744

>  <excitation_energy_4>
6.1

>  <homo_energy>
-6.879

>  <homo_lumo_gap>
6.286

>  <logP>
1.875

>  <lumo_energy>
-0.593

>  <melting_point>
82.98

>  <molecular_refractivity>
42.79

>  <oscillator_strength_1>
0.0003

>  <oscillator_strength_2>
0.0101

>  <oscillator_strength_3>
0.0627

>  <oscillator_strength_4>
0.0149

>  <open_babel_can_smiles>
C[C@@H](c1ccccc1)C(=O)O

>  <mulliken_charges>
21
1   -0.433222
2   -0.128303
3   -0.123267
4   -0.128526
5   -0.196309
6   -0.168387
7   -0.27957
8   0.105049
9   0.606448
10   -0.446832
11   -0.570192
12   0.148119
13   0.158611
14   0.175387
15   0.138666
16   0.138646
17   0.140906
18   0.134703
19   0.147274
20   0.16781
21   0.412989

>  <lowdin_charges>
21
1   -0.435242
2   -0.153939
3   -0.150939
4   -0.147741
5   -0.174153
6   -0.159382
7   -0.163902
8   -0.026612
9   0.190535
10   -0.239224
11   -0.355497
12   0.154375
13   0.157947
14   0.169182
15   0.163156
16   0.161632
17   0.162323
18   0.15755
19   0.163974
20   0.166983
21   0.358973

$$$$

