PCCDB-ID:  21823
public computational chemistry database (PCCDB) project, http://pccdb.org

 31 34  0  0  1  0  0  0  0  0999 V2000
   -2.5220    0.6527   -0.5976 C   0  0  0  0  0  0  0  0  0  0  0  0
   -3.8037    0.9461   -1.4244 C   0  0  0  0  0  0  0  0  0  0  0  0
   -2.7020   -0.4984    0.4070 C   0  0  0  0  0  0  0  0  0  0  0  0
   -3.7566    2.8380    1.6413 C   0  0  0  0  0  0  0  0  0  0  0  0
   -4.9832    2.6102    1.1261 C   0  0  0  0  0  0  0  0  0  0  0  0
   -5.0488    0.2217   -0.8628 C   0  0  0  0  0  0  0  0  0  0  0  0
   -2.0858    1.7841    3.2829 C   0  0  0  0  0  0  0  0  0  0  0  0
   -5.3780    0.7980    2.8040 C   0  0  0  0  0  0  0  0  0  0  0  0
   -3.1522    1.8056    2.4596 C   0  0  0  0  0  0  0  0  0  0  0  0
   -5.6899    1.2776    1.3690 C   0  0  2  0  0  0  0  0  0  0  0  0
   -3.9586   -0.3884    1.2911 C   0  0  1  0  0  0  0  0  0  0  0  0
   -2.0975    0.5190    4.0395 C   0  0  0  0  0  0  0  0  0  0  0  0
   -3.8844    0.4876    2.5845 C   0  0  2  0  0  0  0  0  0  0  0  0
   -5.1413    0.1487    0.5884 N   0  0  2  0  0  0  0  0  0  0  0  0
   -1.3514    0.1110    4.8936 O   0  0  0  0  0  0  0  0  0  0  0  0
   -3.2080   -0.2103    3.6228 O   0  0  0  0  0  0  0  0  0  0  0  0
   -2.2210    1.5564   -0.0590 H   0  0  0  0  0  0  0  0  0  0  0  0
   -1.6864    0.4092   -1.2638 H   0  0  0  0  0  0  0  0  0  0  0  0
   -3.6704    0.6382   -2.4694 H   0  0  0  0  0  0  0  0  0  0  0  0
   -3.9839    2.0267   -1.4442 H   0  0  0  0  0  0  0  0  0  0  0  0
   -2.7676   -1.4460   -0.1432 H   0  0  0  0  0  0  0  0  0  0  0  0
   -1.8186   -0.5895    1.0507 H   0  0  0  0  0  0  0  0  0  0  0  0
   -3.2355    3.7806    1.4945 H   0  0  0  0  0  0  0  0  0  0  0  0
   -5.4766    3.3681    0.5210 H   0  0  0  0  0  0  0  0  0  0  0  0
   -5.9667    0.6887   -1.2395 H   0  0  0  0  0  0  0  0  0  0  0  0
   -5.0593   -0.8113   -1.2382 H   0  0  0  0  0  0  0  0  0  0  0  0
   -1.3474    2.5553    3.4595 H   0  0  0  0  0  0  0  0  0  0  0  0
   -5.9426   -0.1068    3.0464 H   0  0  0  0  0  0  0  0  0  0  0  0
   -5.5485    1.5582    3.5703 H   0  0  0  0  0  0  0  0  0  0  0  0
   -6.7629    1.3724    1.1723 H   0  0  0  0  0  0  0  0  0  0  0  0
   -4.1845   -1.3976    1.6692 H   0  0  0  0  0  0  0  0  0  0  0  0
  1 17  1  0  0  0  0
  1  3  1  0  0  0  0
  2  6  1  0  0  0  0
  2  1  1  0  0  0  0
  3 22  1  0  0  0  0
  3 11  1  0  0  0  0
  4  9  1  0  0  0  0
  5 10  1  0  0  0  0
  5  4  2  0  0  0  0
  7 27  1  0  0  0  0
  7 12  1  0  0  0  0
  8 28  1  0  0  0  0
  8 29  1  0  0  0  0
  9  7  2  0  0  0  0
 10 30  1  6  0  0  0
 10  8  1  0  0  0  0
 11 31  1  1  0  0  0
 11 13  1  0  0  0  0
 12 15  2  0  0  0  0
 13  9  1  6  0  0  0
 13  8  1  0  0  0  0
 13 16  1  0  0  0  0
 14  6  1  6  0  0  0
 14 11  1  0  0  0  0
 14 10  1  0  0  0  0
 16 12  1  0  0  0  0
 18  1  1  0  0  0  0
 19  2  1  0  0  0  0
 20  2  1  0  0  0  0
 21  3  1  0  0  0  0
 23  4  1  0  0  0  0
 24  5  1  0  0  0  0
 25  6  1  0  0  0  0
 26  6  1  0  0  0  0
M  END
>  <HBA>
3

>  <HBD>
0

>  <TPSA>
29.54

>  <cid>
21823

>  <dipole>
5.94

>  <excitation_energy_1>
2.996

>  <excitation_energy_2>
4.31

>  <excitation_energy_3>
4.792

>  <excitation_energy_4>
4.8

>  <homo_energy>
-5.595

>  <homo_lumo_gap>
3.799

>  <logP>
1.343

>  <lumo_energy>
-1.796

>  <melting_point>
108.2

>  <molecular_refractivity>
63.34

>  <oscillator_strength_1>
0.0382

>  <oscillator_strength_2>
0.0003

>  <oscillator_strength_3>
0.0758

>  <oscillator_strength_4>
0.2465

>  <open_babel_can_smiles>
O=C1C=C2[C@@]3(O1)C[C@@H](C=C2)N1[C@H]3CCCC1

>  <mulliken_charges>
31
1   -0.270715
2   -0.267538
3   -0.304632
4   -0.144665
5   -0.112314
6   -0.144521
7   -0.288188
8   -0.298662
9   0.170663
10   -0.0214
11   0.078122
12   0.599193
13   0.204771
14   -0.406712
15   -0.47556
16   -0.522709
17   0.146592
18   0.140711
19   0.134696
20   0.133815
21   0.143831
22   0.156083
23   0.146648
24   0.146338
25   0.138196
26   0.145451
27   0.154733
28   0.169406
29   0.159738
30   0.138646
31   0.149981

>  <lowdin_charges>
31
1   -0.285801
2   -0.295555
3   -0.290222
4   -0.168424
5   -0.150657
6   -0.203444
7   -0.222366
8   -0.276327
9   0.014875
10   -0.058642
11   -0.063365
12   0.19211
13   0.107016
14   -0.186221
15   -0.242811
16   -0.190441
17   0.149744
18   0.150257
19   0.144586
20   0.14186
21   0.148812
22   0.160044
23   0.16702
24   0.163887
25   0.148537
26   0.143214
27   0.178895
28   0.165988
29   0.160308
30   0.148882
31   0.148242

$$$$

