PCCDB-ID:  8018
public computational chemistry database (PCCDB) project, http://pccdb.org

 14 13  0  0  0  0  0  0  0  0999 V2000
    2.4406   -0.6018    0.6151 C   0  0  0  0  0  0  0  0  0  0  0  0
    4.6904    2.0005   -0.6589 C   0  0  0  0  0  0  0  0  0  0  0  0
    3.3819    1.2396   -0.5222 C   0  0  0  0  0  0  0  0  0  0  0  0
    5.7316    1.1049   -1.1680 N   0  0  0  0  0  0  0  0  0  0  0  0
    3.5596    0.2457    0.4756 O   0  0  0  0  0  0  0  0  0  0  0  0
    2.6759   -1.3234    1.4022 H   0  0  0  0  0  0  0  0  0  0  0  0
    2.2227   -1.1470   -0.3173 H   0  0  0  0  0  0  0  0  0  0  0  0
    1.5376   -0.0401    0.9054 H   0  0  0  0  0  0  0  0  0  0  0  0
    4.9210    2.4617    0.3182 H   0  0  0  0  0  0  0  0  0  0  0  0
    4.5438    2.8165   -1.3778 H   0  0  0  0  0  0  0  0  0  0  0  0
    3.1230    0.7720   -1.4858 H   0  0  0  0  0  0  0  0  0  0  0  0
    2.5645    1.9251   -0.2398 H   0  0  0  0  0  0  0  0  0  0  0  0
    5.8354    0.3353   -0.5086 H   0  0  0  0  0  0  0  0  0  0  0  0
    6.6265    1.5906   -1.1900 H   0  0  0  0  0  0  0  0  0  0  0  0
  1  8  1  0  0  0  0
  1  6  1  0  0  0  0
  2  3  1  0  0  0  0
  2  9  1  0  0  0  0
  3 12  1  0  0  0  0
  3  5  1  0  0  0  0
  4  2  1  0  0  0  0
  4 13  1  0  0  0  0
  5  1  1  0  0  0  0
  7  1  1  0  0  0  0
 10  2  1  0  0  0  0
 11  3  1  0  0  0  0
 14  4  1  0  0  0  0
M  END
>  <HBA>
2

>  <HBD>
1

>  <TPSA>
35.25

>  <cid>
8018

>  <dipole>
0.91

>  <excitation_energy_1>
5.756

>  <excitation_energy_2>
6.381

>  <excitation_energy_3>
6.483

>  <excitation_energy_4>
6.595

>  <homo_energy>
-6.185

>  <homo_lumo_gap>
8.555

>  <logP>
0.292

>  <lumo_energy>
2.37

>  <melting_point>
20.73

>  <molecular_refractivity>
20.33

>  <oscillator_strength_1>
0.0086

>  <oscillator_strength_2>
0.0128

>  <oscillator_strength_3>
0.0131

>  <oscillator_strength_4>
0.0192

>  <open_babel_can_smiles>
COCCN

>  <mulliken_charges>
14
1   -0.189545
2   -0.144148
3   -0.008244
4   -0.720884
5   -0.468264
6   0.156084
7   0.133326
8   0.128671
9   0.124357
10   0.138171
11   0.132051
12   0.115567
13   0.30914
14   0.293717

>  <lowdin_charges>
14
1   -0.280379
2   -0.209762
3   -0.135221
4   -0.561555
5   -0.278223
6   0.154677
7   0.133635
8   0.131283
9   0.124546
10   0.146574
11   0.133831
12   0.127578
13   0.259805
14   0.25321

$$$$

