PCCDB-ID:  19983
public computational chemistry database (PCCDB) project, http://pccdb.org

 28 28  0  0  0  0  0  0  0  0999 V2000
    3.0234   -2.3494   -1.2537 C   0  0  0  0  0  0  0  0  0  0  0  0
    5.5384    0.5570    3.4420 C   0  0  0  0  0  0  0  0  0  0  0  0
    4.2073   -2.4632   -0.6544 C   0  0  0  0  0  0  0  0  0  0  0  0
    6.2769   -6.2560    3.0991 C   0  0  0  0  0  0  0  0  0  0  0  0
    6.8722   -5.6948    4.2250 C   0  0  0  0  0  0  0  0  0  0  0  0
    5.6822   -5.4447    2.1262 C   0  0  0  0  0  0  0  0  0  0  0  0
    6.8816   -4.3048    4.3778 C   0  0  0  0  0  0  0  0  0  0  0  0
    4.6219   -3.6493    0.1627 C   0  0  0  0  0  0  0  0  0  0  0  0
    5.6814   -4.0553    2.2771 C   0  0  0  0  0  0  0  0  0  0  0  0
    6.2990   -3.4982    3.4132 C   0  0  0  0  0  0  0  0  0  0  0  0
    6.8723   -1.2650    2.7820 C   0  0  0  0  0  0  0  0  0  0  0  0
    6.6273   -0.0312    2.6805 N   0  0  0  0  0  0  0  0  0  0  0  0
    7.8603   -1.8599    2.0749 O   0  0  0  0  0  0  0  0  0  0  0  0
    5.1195   -3.1655    1.4136 O   0  0  0  0  0  0  0  0  0  0  0  0
    6.2435   -2.1246    3.6314 O   0  0  0  0  0  0  0  0  0  0  0  0
    2.7759   -1.4887   -1.8685 H   0  0  0  0  0  0  0  0  0  0  0  0
    2.2553   -3.1139   -1.1569 H   0  0  0  0  0  0  0  0  0  0  0  0
    5.9388    1.1220    4.2942 H   0  0  0  0  0  0  0  0  0  0  0  0
    4.8190   -0.1774    3.8249 H   0  0  0  0  0  0  0  0  0  0  0  0
    5.0054    1.2708    2.8039 H   0  0  0  0  0  0  0  0  0  0  0  0
    4.9588   -1.6817   -0.7555 H   0  0  0  0  0  0  0  0  0  0  0  0
    6.2636   -7.3343    2.9677 H   0  0  0  0  0  0  0  0  0  0  0  0
    7.3320   -6.3259    4.9793 H   0  0  0  0  0  0  0  0  0  0  0  0
    5.2153   -5.9012    1.2609 H   0  0  0  0  0  0  0  0  0  0  0  0
    7.3376   -3.8305    5.2410 H   0  0  0  0  0  0  0  0  0  0  0  0
    5.4199   -4.2123   -0.3460 H   0  0  0  0  0  0  0  0  0  0  0  0
    3.7745   -4.3299    0.3231 H   0  0  0  0  0  0  0  0  0  0  0  0
    8.2274   -1.1493    1.5205 H   0  0  0  0  0  0  0  0  0  0  0  0
  1 17  1  0  0  0  0
  1  3  2  0  0  0  0
  2 19  1  0  0  0  0
  2 18  1  0  0  0  0
  3  8  1  0  0  0  0
  4  5  2  0  0  0  0
  5  7  1  0  0  0  0
  5 23  1  0  0  0  0
  6  9  2  0  0  0  0
  6  4  1  0  0  0  0
  7 25  1  0  0  0  0
  8 27  1  0  0  0  0
  8 14  1  0  0  0  0
  9 10  1  0  0  0  0
 10 15  1  0  0  0  0
 10  7  2  0  0  0  0
 11 15  1  0  0  0  0
 12 11  2  0  0  0  0
 12  2  1  0  0  0  0
 13 11  1  0  0  0  0
 14  9  1  0  0  0  0
 16  1  1  0  0  0  0
 20  2  1  0  0  0  0
 21  3  1  0  0  0  0
 22  4  1  0  0  0  0
 24  6  1  0  0  0  0
 26  8  1  0  0  0  0
 28 13  1  0  0  0  0
M  END
>  <HBA>
4

>  <HBD>
1

>  <TPSA>
47.56

>  <cid>
19983

>  <dipole>
2.47

>  <excitation_energy_1>
4.992

>  <excitation_energy_2>
5.22

>  <excitation_energy_3>
5.549

>  <excitation_energy_4>
5.604

>  <homo_energy>
-5.965

>  <homo_lumo_gap>
5.891

>  <logP>
2.361

>  <lumo_energy>
-0.073

>  <melting_point>
50.84

>  <molecular_refractivity>
56.76

>  <oscillator_strength_1>
0.0491

>  <oscillator_strength_2>
0.0025

>  <oscillator_strength_3>
0.0316

>  <oscillator_strength_4>
0.0019

>  <open_babel_can_smiles>
C=CCOc1ccccc1O/C(=N\C)/O

>  <mulliken_charges>
28
1   -0.333285
2   -0.320747
3   -0.053476
4   -0.130508
5   -0.145334
6   -0.208567
7   -0.165367
8   -0.083164
9   0.38557
10   0.305322
11   0.72157
12   -0.485188
13   -0.594468
14   -0.525848
15   -0.536253
16   0.151831
17   0.143698
18   0.150465
19   0.15499
20   0.150287
21   0.151449
22   0.131113
23   0.131822
24   0.138847
25   0.143696
26   0.153699
27   0.147786
28   0.420061

>  <lowdin_charges>
28
1   -0.322328
2   -0.355906
3   -0.150971
4   -0.149989
5   -0.171514
6   -0.208266
7   -0.161433
8   -0.121953
9   0.087114
10   0.079704
11   0.190561
12   -0.261483
13   -0.362894
14   -0.19334
15   -0.155638
16   0.165668
17   0.158689
18   0.14985
19   0.146601
20   0.151361
21   0.164836
22   0.157655
23   0.161725
24   0.164881
25   0.17093
26   0.149535
27   0.14525
28   0.371356

$$$$

