PCCDB-ID:  66165
public computational chemistry database (PCCDB) project, http://pccdb.org

 35 34  0  0  0  0  0  0  0  0999 V2000
    0.9095   -0.5411    0.2460 C   0  0  0  0  0  0  0  0  0  0  0  0
    3.4676   -2.9234   -1.0150 C   0  0  0  0  0  0  0  0  0  0  0  0
    0.7169    3.3499   -2.1971 C   0  0  0  0  0  0  0  0  0  0  0  0
    6.6976    1.8516   -2.4740 C   0  0  0  0  0  0  0  0  0  0  0  0
    2.4036   -0.2151    0.1485 C   0  0  0  0  0  0  0  0  0  0  0  0
    2.8491   -1.8039   -1.8593 C   0  0  0  0  0  0  0  0  0  0  0  0
    2.0951    2.9514   -2.7017 C   0  0  0  0  0  0  0  0  0  0  0  0
    6.4584    0.3504   -2.5239 C   0  0  0  0  0  0  0  0  0  0  0  0
    2.3377    0.6261   -2.2198 C   0  0  0  0  0  0  0  0  0  0  0  0
    4.5138   -0.0396   -1.1985 C   0  0  0  0  0  0  0  0  0  0  0  0
    3.0150   -0.3761   -1.2705 C   0  0  0  0  0  0  0  0  0  0  0  0
    1.5787    0.3374   -3.1183 O   0  0  0  0  0  0  0  0  0  0  0  0
    5.1553    0.0913   -0.1794 O   0  0  0  0  0  0  0  0  0  0  0  0
    2.6704    1.8957   -1.8927 O   0  0  0  0  0  0  0  0  0  0  0  0
    5.0453    0.0435   -2.4392 O   0  0  0  0  0  0  0  0  0  0  0  0
    0.5506   -0.3429    1.2620 H   0  0  0  0  0  0  0  0  0  0  0  0
    0.7002   -1.5929    0.0239 H   0  0  0  0  0  0  0  0  0  0  0  0
    0.3093    0.0660   -0.4416 H   0  0  0  0  0  0  0  0  0  0  0  0
    3.3570   -3.8833   -1.5312 H   0  0  0  0  0  0  0  0  0  0  0  0
    2.9842   -3.0197   -0.0367 H   0  0  0  0  0  0  0  0  0  0  0  0
    4.5377   -2.7636   -0.8390 H   0  0  0  0  0  0  0  0  0  0  0  0
    0.3473    4.2108   -2.7663 H   0  0  0  0  0  0  0  0  0  0  0  0
    0.7554    3.6294   -1.1391 H   0  0  0  0  0  0  0  0  0  0  0  0
    0.0077    2.5269   -2.3220 H   0  0  0  0  0  0  0  0  0  0  0  0
    7.7648    2.0626   -2.6077 H   0  0  0  0  0  0  0  0  0  0  0  0
    6.3844    2.2587   -1.5085 H   0  0  0  0  0  0  0  0  0  0  0  0
    6.1434    2.3604   -3.2694 H   0  0  0  0  0  0  0  0  0  0  0  0
    2.9738   -0.8493    0.8335 H   0  0  0  0  0  0  0  0  0  0  0  0
    2.5817    0.8137    0.4759 H   0  0  0  0  0  0  0  0  0  0  0  0
    1.7807   -1.9871   -2.0058 H   0  0  0  0  0  0  0  0  0  0  0  0
    3.2925   -1.8070   -2.8597 H   0  0  0  0  0  0  0  0  0  0  0  0
    2.8076    3.7753   -2.6137 H   0  0  0  0  0  0  0  0  0  0  0  0
    2.0556    2.6136   -3.7401 H   0  0  0  0  0  0  0  0  0  0  0  0
    6.9783   -0.1623   -1.7111 H   0  0  0  0  0  0  0  0  0  0  0  0
    6.7696   -0.0758   -3.4807 H   0  0  0  0  0  0  0  0  0  0  0  0
  1 16  1  0  0  0  0
  2 21  1  0  0  0  0
  2 20  1  0  0  0  0
  3 23  1  0  0  0  0
  4 26  1  0  0  0  0
  5  1  1  0  0  0  0
  5 29  1  0  0  0  0
  5 28  1  0  0  0  0
  6 11  1  0  0  0  0
  6  2  1  0  0  0  0
  7 32  1  0  0  0  0
  7  3  1  0  0  0  0
  7 14  1  0  0  0  0
  8  4  1  0  0  0  0
  8 15  1  0  0  0  0
  8 34  1  0  0  0  0
  9 14  1  0  0  0  0
  9 11  1  0  0  0  0
 10 13  2  0  0  0  0
 11 10  1  0  0  0  0
 11  5  1  0  0  0  0
 12  9  2  0  0  0  0
 15 10  1  0  0  0  0
 17  1  1  0  0  0  0
 18  1  1  0  0  0  0
 19  2  1  0  0  0  0
 22  3  1  0  0  0  0
 24  3  1  0  0  0  0
 25  4  1  0  0  0  0
 27  4  1  0  0  0  0
 30  6  1  0  0  0  0
 31  6  1  0  0  0  0
 33  7  1  0  0  0  0
 35  8  1  0  0  0  0
M  END
>  <HBA>
4

>  <HBD>
0

>  <TPSA>
52.6

>  <cid>
66165

>  <dipole>
1.5

>  <excitation_energy_1>
5.624

>  <excitation_energy_2>
5.765

>  <excitation_energy_3>
6.597

>  <excitation_energy_4>
6.804

>  <homo_energy>
-7.143

>  <homo_lumo_gap>
7.236

>  <logP>
1.919

>  <lumo_energy>
0.093

>  <melting_point>
13.69

>  <molecular_refractivity>
57.3

>  <oscillator_strength_1>
0.0065

>  <oscillator_strength_2>
0.0042

>  <oscillator_strength_3>
0.0007

>  <oscillator_strength_4>
0.0416

>  <open_babel_can_smiles>
CCC(C(=O)OCC)(C(=O)OCC)CC

>  <mulliken_charges>
35
1   -0.464352
2   -0.46321
3   -0.464373
4   -0.46068
5   -0.265624
6   -0.265876
7   -0.045288
8   -0.047319
9   0.658534
10   0.659408
11   -0.103784
12   -0.489258
13   -0.490771
14   -0.471593
15   -0.470766
16   0.149042
17   0.151864
18   0.15464
19   0.149252
20   0.151235
21   0.15455
22   0.1515
23   0.159359
24   0.177074
25   0.150083
26   0.178804
27   0.15698
28   0.163516
29   0.160643
30   0.162816
31   0.162024
32   0.154252
33   0.17194
34   0.170911
35   0.154469

>  <lowdin_charges>
35
1   -0.44968
2   -0.447539
3   -0.455333
4   -0.453556
5   -0.269754
6   -0.267222
7   -0.126266
8   -0.127218
9   0.201042
10   0.201631
11   -0.040252
12   -0.257769
13   -0.259519
14   -0.192078
15   -0.192849
16   0.154322
17   0.149738
18   0.153347
19   0.154939
20   0.150257
21   0.150705
22   0.16027
23   0.155774
24   0.165682
25   0.157236
26   0.166753
27   0.157138
28   0.161027
29   0.157405
30   0.157508
31   0.158438
32   0.1539
33   0.158311
34   0.160265
35   0.153344

$$$$

