PCCDB-ID:  62432
public computational chemistry database (PCCDB) project, http://pccdb.org

 30 32  0  0  0  0  0  0  0  0999 V2000
    0.8478    0.1885   -0.2841 C   0  0  0  0  0  0  0  0  0  0  0  0
    0.0109   -0.0759    0.9197 C   0  0  0  0  0  0  0  0  0  0  0  0
   -0.5138   -3.0900   -1.4106 C   0  0  0  0  0  0  0  0  0  0  0  0
   -1.9792   -3.2934   -1.5315 C   0  0  0  0  0  0  0  0  0  0  0  0
   -3.9584    0.8946   -1.3523 C   0  0  0  0  0  0  0  0  0  0  0  0
   -3.5488   -0.4467    0.6434 C   0  0  0  0  0  0  0  0  0  0  0  0
   -5.4507    0.6422   -1.1564 C   0  0  0  0  0  0  0  0  0  0  0  0
   -5.0606   -0.6398    0.7649 C   0  0  0  0  0  0  0  0  0  0  0  0
   -0.6012    0.3725   -0.3391 N   0  0  0  0  0  0  0  0  0  0  0  0
   -1.4521   -2.1683   -0.7473 N   0  0  0  0  0  0  0  0  0  0  0  0
   -3.2056   -0.2325   -0.7747 N   0  0  0  0  0  0  0  0  0  0  0  0
   -5.7737    0.4588    0.2180 O   0  0  0  0  0  0  0  0  0  0  0  0
   -1.6437   -0.5569   -1.3178 P   0  0  0  0  0  0  0  0  0  0  0  0
   -1.3458   -0.2405   -3.2277 S   0  0  0  0  0  0  0  0  0  0  0  0
    1.2822   -0.6661   -0.7998 H   0  0  0  0  0  0  0  0  0  0  0  0
    1.4273    1.1059   -0.3589 H   0  0  0  0  0  0  0  0  0  0  0  0
   -0.0258    0.6529    1.7269 H   0  0  0  0  0  0  0  0  0  0  0  0
   -0.1357   -1.1116    1.2174 H   0  0  0  0  0  0  0  0  0  0  0  0
    0.0055   -2.7284   -2.2969 H   0  0  0  0  0  0  0  0  0  0  0  0
    0.0741   -3.7050   -0.7329 H   0  0  0  0  0  0  0  0  0  0  0  0
   -2.4778   -4.0601   -0.9430 H   0  0  0  0  0  0  0  0  0  0  0  0
   -2.4316   -3.0685   -2.4957 H   0  0  0  0  0  0  0  0  0  0  0  0
   -3.6786    1.8388   -0.8596 H   0  0  0  0  0  0  0  0  0  0  0  0
   -3.7217    0.9742   -2.4157 H   0  0  0  0  0  0  0  0  0  0  0  0
   -3.0283   -1.3343    1.0106 H   0  0  0  0  0  0  0  0  0  0  0  0
   -3.2431    0.4204    1.2503 H   0  0  0  0  0  0  0  0  0  0  0  0
   -5.7545   -0.2434   -1.7380 H   0  0  0  0  0  0  0  0  0  0  0  0
   -6.0314    1.5048   -1.4968 H   0  0  0  0  0  0  0  0  0  0  0  0
   -5.3511   -0.7046    1.8184 H   0  0  0  0  0  0  0  0  0  0  0  0
   -5.3518   -1.5747    0.2579 H   0  0  0  0  0  0  0  0  0  0  0  0
  1  2  1  0  0  0  0
  2 18  1  0  0  0  0
  2 17  1  0  0  0  0
  3 10  1  0  0  0  0
  3 20  1  0  0  0  0
  4  3  1  0  0  0  0
  4 21  1  0  0  0  0
  4 10  1  0  0  0  0
  5  7  1  0  0  0  0
  5 23  1  0  0  0  0
  5 11  1  0  0  0  0
  6  8  1  0  0  0  0
  6 25  1  0  0  0  0
  6 26  1  0  0  0  0
  7 12  1  0  0  0  0
  8 29  1  0  0  0  0
  9  1  1  0  0  0  0
  9  2  1  0  0  0  0
 11  6  1  0  0  0  0
 12  8  1  0  0  0  0
 13 11  1  0  0  0  0
 13 10  1  0  0  0  0
 13  9  1  0  0  0  0
 14 13  1  0  0  0  0
 15  1  1  0  0  0  0
 16  1  1  0  0  0  0
 19  3  1  0  0  0  0
 22  4  1  0  0  0  0
 24  5  1  0  0  0  0
 27  7  1  0  0  0  0
 28  7  1  0  0  0  0
 30  8  1  0  0  0  0
M  RAD  1  14   2
M  END
>  <HBA>
5

>  <HBD>
0

>  <TPSA>
60.39

>  <cid>
62432

>  <dipole>
4.23

>  <excitation_energy_1>
5.585

>  <excitation_energy_2>
5.67

>  <excitation_energy_3>
5.678

>  <excitation_energy_4>
5.753

>  <homo_energy>
-6.057

>  <homo_lumo_gap>
7.391

>  <logP>
0.639

>  <lumo_energy>
1.333

>  <melting_point>
20.33

>  <molecular_refractivity>
71.31

>  <oscillator_strength_1>
0.0147

>  <oscillator_strength_2>
0.023

>  <oscillator_strength_3>
0.0315

>  <oscillator_strength_4>
0.0192

>  <open_babel_can_smiles>
[S]P(N1CC1)(N1CC1)N1CCOCC1

>  <mulliken_charges>
30
1   -0.190456
2   -0.198149
3   -0.205944
4   -0.191949
5   -0.151697
6   -0.155529
7   -0.03589
8   -0.03177
9   -0.475019
10   -0.519567
11   -0.525742
12   -0.466444
13   0.933629
14   -0.412619
15   0.170379
16   0.174042
17   0.167404
18   0.178198
19   0.193816
20   0.164743
21   0.16633
22   0.192383
23   0.150501
24   0.190425
25   0.171457
26   0.148878
27   0.132735
28   0.150422
29   0.146761
30   0.128673

>  <lowdin_charges>
30
1   -0.212175
2   -0.22504
3   -0.230211
4   -0.218929
5   -0.208743
6   -0.213762
7   -0.13825
8   -0.135325
9   -0.351794
10   -0.37344
11   -0.332768
12   -0.273892
13   0.808319
14   -0.436685
15   0.162989
16   0.167477
17   0.164122
18   0.164422
19   0.175708
20   0.163136
21   0.164113
22   0.175329
23   0.142694
24   0.178411
25   0.168785
26   0.142144
27   0.134763
28   0.155626
29   0.15123
30   0.131745

$$$$

