PCCDB-ID:  7475
public computational chemistry database (PCCDB) project, http://pccdb.org

 16 16  0  0  0  0  0  0  0  0999 V2000
   -0.7535    1.1620    0.0902 C   0  0  0  0  0  0  0  0  0  0  0  0
    1.4028    0.0627   -0.1169 C   0  0  0  0  0  0  0  0  0  0  0  0
   -1.3860   -0.0699    0.0562 C   0  0  0  0  0  0  0  0  0  0  0  0
    0.7723   -1.1703   -0.1503 C   0  0  0  0  0  0  0  0  0  0  0  0
    0.6523    1.2519    0.0035 C   0  0  0  0  0  0  0  0  0  0  0  0
   -0.6207   -1.2324   -0.0642 C   0  0  0  0  0  0  0  0  0  0  0  0
    1.2843    2.4762    0.0841 N   0  0  0  0  0  0  0  0  0  0  0  0
   -1.2846   -2.5276   -0.1043 N   0  0  0  0  0  0  0  0  0  0  0  0
   -2.5170   -2.5475   -0.0364 O   0  0  0  0  0  0  0  0  0  0  0  0
   -0.5793   -3.5358   -0.2043 O   0  0  0  0  0  0  0  0  0  0  0  0
   -1.3430    2.0701    0.1871 H   0  0  0  0  0  0  0  0  0  0  0  0
    2.4865    0.1178   -0.1810 H   0  0  0  0  0  0  0  0  0  0  0  0
   -2.4643   -0.1500    0.1189 H   0  0  0  0  0  0  0  0  0  0  0  0
    1.3384   -2.0889   -0.2441 H   0  0  0  0  0  0  0  0  0  0  0  0
    0.7310    3.2983   -0.1148 H   0  0  0  0  0  0  0  0  0  0  0  0
    2.2331    2.5323   -0.2596 H   0  0  0  0  0  0  0  0  0  0  0  0
  1 11  1  0  0  0  0
  2  5  1  0  0  0  0
  3  1  1  0  0  0  0
  3 13  1  0  0  0  0
  4  2  2  0  0  0  0
  4  6  1  0  0  0  0
  5  7  1  0  0  0  0
  5  1  2  0  0  0  0
  6  3  2  0  0  0  0
  8  6  1  0  0  0  0
  8  9  2  0  0  0  0
 10  8  2  0  0  0  0
 12  2  1  0  0  0  0
 14  4  1  0  0  0  0
 15  7  1  0  0  0  0
 16  7  1  0  0  0  0
M  END
>  <HBA>
1

>  <HBD>
1

>  <TPSA>
71.84

>  <cid>
7475

>  <dipole>
7.12

>  <excitation_energy_1>
3.777

>  <excitation_energy_2>
3.897

>  <excitation_energy_3>
4.343

>  <excitation_energy_4>
4.464

>  <homo_energy>
-6.253

>  <homo_lumo_gap>
4.299

>  <logP>
2.281

>  <lumo_energy>
-1.954

>  <melting_point>
92.27

>  <molecular_refractivity>
39.67

>  <oscillator_strength_1>
0.0004

>  <oscillator_strength_2>
0.3355

>  <oscillator_strength_3>
0.0004

>  <oscillator_strength_4>
0.0008

>  <open_babel_can_smiles>
Nc1ccc(cc1)N(=O)=O

>  <mulliken_charges>
16
1   -0.185728
2   -0.18576
3   -0.154572
4   -0.154719
5   0.35507
6   0.271048
7   -0.79344
8   0.368144
9   -0.410671
10   -0.410757
11   0.134839
12   0.134758
13   0.180478
14   0.18054
15   0.335379
16   0.335392

>  <lowdin_charges>
16
1   -0.196029
2   -0.193194
3   -0.122827
4   -0.125443
5   0.083052
6   -0.027245
7   -0.463441
8   0.30662
9   -0.262029
10   -0.264584
11   0.161822
12   0.159397
13   0.185156
14   0.187449
15   0.286391
16   0.284904

$$$$

