PCCDB-ID:  40185
public computational chemistry database (PCCDB) project, http://pccdb.org

 21 20  0  0  0  0  0  0  0  0999 V2000
    5.9425   -2.1453   -2.5959 C   0  0  0  0  0  0  0  0  0  0  0  0
    3.1133   -1.2048   -3.8807 C   0  0  0  0  0  0  0  0  0  0  0  0
    3.2048   -1.5589   -5.3686 C   0  0  0  0  0  0  0  0  0  0  0  0
    4.2859   -0.3555   -3.3701 C   0  0  0  0  0  0  0  0  0  0  0  0
    1.9733   -2.3148   -5.8745 C   0  0  0  0  0  0  0  0  0  0  0  0
    6.4184   -0.6014   -4.4043 N   0  0  0  0  0  0  0  0  0  0  0  0
    5.5813   -1.0213   -3.4497 N   0  0  0  0  0  0  0  0  0  0  0  0
    0.7580   -1.5911   -5.6990 O   0  0  0  0  0  0  0  0  0  0  0  0
    7.4695   -1.2375   -4.4742 O   0  0  0  0  0  0  0  0  0  0  0  0
    5.2043   -2.2256   -1.7962 H   0  0  0  0  0  0  0  0  0  0  0  0
    6.9387   -1.9772   -2.1771 H   0  0  0  0  0  0  0  0  0  0  0  0
    5.9751   -3.0808   -3.1660 H   0  0  0  0  0  0  0  0  0  0  0  0
    3.0362   -2.1263   -3.2862 H   0  0  0  0  0  0  0  0  0  0  0  0
    2.1852   -0.6495   -3.7001 H   0  0  0  0  0  0  0  0  0  0  0  0
    4.0974   -2.1677   -5.5655 H   0  0  0  0  0  0  0  0  0  0  0  0
    3.3326   -0.6388   -5.9592 H   0  0  0  0  0  0  0  0  0  0  0  0
    4.1111   -0.0577   -2.3284 H   0  0  0  0  0  0  0  0  0  0  0  0
    4.3877    0.5564   -3.9668 H   0  0  0  0  0  0  0  0  0  0  0  0
    1.8391   -3.2421   -5.3061 H   0  0  0  0  0  0  0  0  0  0  0  0
    2.1153   -2.5975   -6.9295 H   0  0  0  0  0  0  0  0  0  0  0  0
    0.8017   -0.8066   -6.2683 H   0  0  0  0  0  0  0  0  0  0  0  0
  1 11  1  0  0  0  0
  1 10  1  0  0  0  0
  2 14  1  0  0  0  0
  2  4  1  0  0  0  0
  2 13  1  0  0  0  0
  3  2  1  0  0  0  0
  4 17  1  0  0  0  0
  5  8  1  0  0  0  0
  5  3  1  0  0  0  0
  5 19  1  0  0  0  0
  6  7  1  0  0  0  0
  7  4  1  0  0  0  0
  7  1  1  0  0  0  0
  9  6  1  0  0  0  0
 12  1  1  0  0  0  0
 15  3  1  0  0  0  0
 16  3  1  0  0  0  0
 18  4  1  0  0  0  0
 20  5  1  0  0  0  0
 21  8  1  0  0  0  0
M  RAD  2   6   2   9   2
M  END
>  <HBA>
4

>  <HBD>
1

>  <TPSA>
52.9

>  <cid>
40185

>  <dipole>
2.61

>  <excitation_energy_1>
3.425

>  <excitation_energy_2>
5.599

>  <excitation_energy_3>
5.867

>  <excitation_energy_4>
5.928

>  <homo_energy>
-5.992

>  <homo_lumo_gap>
5.282

>  <logP>
0.372

>  <lumo_energy>
-0.71

>  <melting_point>
14.41

>  <molecular_refractivity>
34.94

>  <oscillator_strength_1>
0.0016

>  <oscillator_strength_2>
0.0075

>  <oscillator_strength_3>
0.0878

>  <oscillator_strength_4>
0.0742

>  <open_babel_can_smiles>
OCCCCN([N][O])C

>  <mulliken_charges>
21
1   -0.318074
2   -0.258904
3   -0.280685
4   -0.14981
5   -0.037716
6   0.139076
7   -0.197418
8   -0.61048
9   -0.386534
10   0.162148
11   0.191429
12   0.179181
13   0.137592
14   0.159742
15   0.148483
16   0.132508
17   0.153266
18   0.17388
19   0.146246
20   0.128405
21   0.387665

>  <lowdin_charges>
21
1   -0.370857
2   -0.287255
3   -0.297237
4   -0.201028
5   -0.133066
6   0.043641
7   -0.040931
8   -0.468838
9   -0.278371
10   0.163168
11   0.174824
12   0.165734
13   0.143901
14   0.158963
15   0.1534
16   0.14102
17   0.14986
18   0.165398
19   0.146031
20   0.130073
21   0.34157

$$$$

