PCCDB-ID:  35448
public computational chemistry database (PCCDB) project, http://pccdb.org

 30 30  0  0  0  0  0  0  0  0999 V2000
    4.0243    0.1444    2.2171 C   0  0  0  0  0  0  0  0  0  0  0  0
    6.2241   -0.1926   -0.8792 C   0  0  0  0  0  0  0  0  0  0  0  0
    5.8106    0.8881   -1.6593 C   0  0  0  0  0  0  0  0  0  0  0  0
    5.6297   -0.4154    0.3625 C   0  0  0  0  0  0  0  0  0  0  0  0
    4.8115    1.7320   -1.1867 C   0  0  0  0  0  0  0  0  0  0  0  0
    3.1609    2.4297    0.5550 C   0  0  0  0  0  0  0  0  0  0  0  0
    2.9663    3.7102    0.1756 C   0  0  0  0  0  0  0  0  0  0  0  0
    3.0024    6.6516    0.3868 C   0  0  0  0  0  0  0  0  0  0  0  0
    2.4851    8.0789    0.1751 C   0  0  0  0  0  0  0  0  0  0  0  0
    4.6242    0.4222    0.8568 C   0  0  0  0  0  0  0  0  0  0  0  0
    4.2112    1.5266    0.0693 C   0  0  0  0  0  0  0  0  0  0  0  0
    1.8807    4.5624    0.6963 C   0  0  0  0  0  0  0  0  0  0  0  0
    1.8646    5.8327    0.7728 N   0  0  0  0  0  0  0  0  0  0  0  0
    1.7775    8.5283    1.3124 O   0  0  0  0  0  0  0  0  0  0  0  0
    0.7770    3.9148    1.1869 O   0  0  0  0  0  0  0  0  0  0  0  0
    4.5128   -0.7145    2.6861 H   0  0  0  0  0  0  0  0  0  0  0  0
    2.9522   -0.0853    2.1555 H   0  0  0  0  0  0  0  0  0  0  0  0
    4.1316    0.9989    2.8955 H   0  0  0  0  0  0  0  0  0  0  0  0
    7.0004   -0.8634   -1.2370 H   0  0  0  0  0  0  0  0  0  0  0  0
    6.2550    1.0658   -2.6346 H   0  0  0  0  0  0  0  0  0  0  0  0
    5.9548   -1.2579    0.9680 H   0  0  0  0  0  0  0  0  0  0  0  0
    4.4675    2.5521   -1.8102 H   0  0  0  0  0  0  0  0  0  0  0  0
    2.5040    2.0229    1.3221 H   0  0  0  0  0  0  0  0  0  0  0  0
    3.6636    4.1865   -0.5064 H   0  0  0  0  0  0  0  0  0  0  0  0
    3.7394    6.6600    1.2026 H   0  0  0  0  0  0  0  0  0  0  0  0
    3.5175    6.3020   -0.5226 H   0  0  0  0  0  0  0  0  0  0  0  0
    1.8515    8.1002   -0.7283 H   0  0  0  0  0  0  0  0  0  0  0  0
    3.3222    8.7674    0.0143 H   0  0  0  0  0  0  0  0  0  0  0  0
    1.1927    7.7818    1.5410 H   0  0  0  0  0  0  0  0  0  0  0  0
    0.7503    3.0243    0.8034 H   0  0  0  0  0  0  0  0  0  0  0  0
  1 16  1  0  0  0  0
  1 18  1  0  0  0  0
  2  4  2  0  0  0  0
  3  5  2  0  0  0  0
  3  2  1  0  0  0  0
  4 10  1  0  0  0  0
  4 21  1  0  0  0  0
  5 11  1  0  0  0  0
  6 23  1  0  0  0  0
  7  6  2  0  0  0  0
  7 12  1  0  0  0  0
  8 13  1  0  0  0  0
  8 25  1  0  0  0  0
  9  8  1  0  0  0  0
  9 14  1  0  0  0  0
 10  1  1  0  0  0  0
 11  6  1  0  0  0  0
 11 10  2  0  0  0  0
 12 13  2  0  0  0  0
 12 15  1  0  0  0  0
 14 29  1  0  0  0  0
 17  1  1  0  0  0  0
 19  2  1  0  0  0  0
 20  3  1  0  0  0  0
 22  5  1  0  0  0  0
 24  7  1  0  0  0  0
 26  8  1  0  0  0  0
 27  9  1  0  0  0  0
 28  9  1  0  0  0  0
 30 15  1  0  0  0  0
M  END
>  <HBA>
3

>  <HBD>
2

>  <TPSA>
49.33

>  <cid>
35448

>  <dipole>
6.46

>  <excitation_energy_1>
3.998

>  <excitation_energy_2>
4.155

>  <excitation_energy_3>
4.343

>  <excitation_energy_4>
4.436

>  <homo_energy>
-6.327

>  <homo_lumo_gap>
4.444

>  <logP>
1.508

>  <lumo_energy>
-1.883

>  <melting_point>
96.87

>  <molecular_refractivity>
60.08

>  <oscillator_strength_1>
0.1259

>  <oscillator_strength_2>
0.4574

>  <oscillator_strength_3>
0.0174

>  <oscillator_strength_4>
0.0829

>  <open_babel_can_smiles>
OCC/N=C(\C=C\c1ccccc1C)/O

>  <mulliken_charges>
30
1   -0.540093
2   -0.118112
3   -0.133699
4   -0.189869
5   -0.180356
6   -0.202141
7   -0.17161
8   -0.15956
9   -0.01022
10   0.127966
11   0.106216
12   0.48038
13   -0.457798
14   -0.630395
15   -0.588677
16   0.162996
17   0.16357
18   0.173705
19   0.136971
20   0.136563
21   0.130205
22   0.134342
23   0.139999
24   0.152832
25   0.156685
26   0.12232
27   0.116349
28   0.132583
29   0.406326
30   0.40252

>  <lowdin_charges>
30
1   -0.445276
2   -0.146624
3   -0.15707
4   -0.165462
5   -0.150297
6   -0.142491
7   -0.202014
8   -0.222021
9   -0.137202
10   0.004967
11   -0.020087
12   0.127078
13   -0.207648
14   -0.474426
15   -0.369867
16   0.162789
17   0.158368
18   0.166267
19   0.162701
20   0.161022
21   0.158837
22   0.16087
23   0.161316
24   0.169905
25   0.152034
26   0.131748
27   0.123606
28   0.142415
29   0.343837
30   0.352724

$$$$

