PCCDB-ID:  69020
public computational chemistry database (PCCDB) project, http://pccdb.org

 11 10  0  0  0  0  0  0  0  0999 V2000
    1.1047    0.2548    0.2903 C   0  0  0  0  0  0  0  0  0  0  0  0
    0.4986   -0.6460    1.3775 C   0  0  0  0  0  0  0  0  0  0  0  0
    2.3268   -0.3593   -0.2453 N   0  0  0  0  0  0  0  0  0  0  0  0
   -0.3088   -0.2918    2.2929 N   0  0  0  0  0  0  0  0  0  0  0  0
    0.8689   -1.9351    1.2588 O   0  0  0  0  0  0  0  0  0  0  0  0
    1.2419    1.2678    0.6934 H   0  0  0  0  0  0  0  0  0  0  0  0
    0.3788    0.3262   -0.5287 H   0  0  0  0  0  0  0  0  0  0  0  0
    3.1345   -0.1235    0.3275 H   0  0  0  0  0  0  0  0  0  0  0  0
    2.5223   -0.0437   -1.1911 H   0  0  0  0  0  0  0  0  0  0  0  0
   -0.4741    0.7157    2.2333 H   0  0  0  0  0  0  0  0  0  0  0  0
    1.5405   -1.9427    0.5375 H   0  0  0  0  0  0  0  0  0  0  0  0
  1  6  1  0  0  0  0
  1  2  1  0  0  0  0
  2  4  2  0  0  0  0
  3  1  1  0  0  0  0
  3  8  1  0  0  0  0
  5  2  1  0  0  0  0
  7  1  1  0  0  0  0
  9  3  1  0  0  0  0
 10  4  1  0  0  0  0
 11  5  1  0  0  0  0
M  END
>  <HBA>
3

>  <HBD>
2

>  <TPSA>
69.11

>  <cid>
69020

>  <dipole>
5.77

>  <excitation_energy_1>
5.79

>  <excitation_energy_2>
5.941

>  <excitation_energy_3>
6.263

>  <excitation_energy_4>
6.502

>  <homo_energy>
-6.808

>  <homo_lumo_gap>
7.562

>  <logP>
-0.169

>  <lumo_energy>
0.754

>  <melting_point>
105.98

>  <molecular_refractivity>
17.34

>  <oscillator_strength_1>
0.0006

>  <oscillator_strength_2>
0.0126

>  <oscillator_strength_3>
0.0068

>  <oscillator_strength_4>
0.039

>  <open_babel_can_smiles>
NCC(=N)O

>  <mulliken_charges>
11
1   -0.23963
2   0.486509
3   -0.756673
4   -0.591462
5   -0.584542
6   0.153124
7   0.182893
8   0.325467
9   0.323955
10   0.271921
11   0.428439

>  <lowdin_charges>
11
1   -0.245278
2   0.107015
3   -0.549625
4   -0.407572
5   -0.366017
6   0.145938
7   0.169325
8   0.271256
9   0.27164
10   0.248025
11   0.355293

$$$$

