PCCDB-ID:  763
public computational chemistry database (PCCDB) project, http://pccdb.org

 15 14  0  0  0  0  0  0  0  0999 V2000
    1.7123   -1.1405    1.1291 C   0  0  0  0  0  0  0  0  0  0  0  0
    1.5433   -2.5410    1.7535 C   0  0  0  0  0  0  0  0  0  0  0  0
    4.0634   -0.9551    0.3877 C   0  0  0  0  0  0  0  0  0  0  0  0
    4.4592   -1.2102    1.5921 N   0  0  0  0  0  0  0  0  0  0  0  0
    4.8651   -0.5304   -0.6684 N   0  0  0  0  0  0  0  0  0  0  0  0
    2.7292   -1.0721    0.0725 N   0  0  0  0  0  0  0  0  0  0  0  0
    0.4792   -3.1182    1.7284 O   0  0  0  0  0  0  0  0  0  0  0  0
    2.6263   -3.0444    2.3486 O   0  0  0  0  0  0  0  0  0  0  0  0
    1.9487   -0.4226    1.9273 H   0  0  0  0  0  0  0  0  0  0  0  0
    0.7519   -0.8796    0.6852 H   0  0  0  0  0  0  0  0  0  0  0  0
    5.4688   -1.1499    1.7004 H   0  0  0  0  0  0  0  0  0  0  0  0
    5.8528   -0.7113   -0.5403 H   0  0  0  0  0  0  0  0  0  0  0  0
    4.5535   -0.8110   -1.5916 H   0  0  0  0  0  0  0  0  0  0  0  0
    2.4365   -0.5730   -0.7560 H   0  0  0  0  0  0  0  0  0  0  0  0
    3.3905   -2.3982    2.2571 H   0  0  0  0  0  0  0  0  0  0  0  0
  1  2  1  0  0  0  0
  1  9  1  0  0  0  0
  2  8  1  0  0  0  0
  3  4  1  0  0  0  0
  4 11  1  0  0  0  0
  5 12  1  0  0  0  0
  5  3  2  0  0  0  0
  6  3  1  0  0  0  0
  6  1  1  0  0  0  0
  7  2  2  0  0  0  0
 10  1  1  0  0  0  0
 13  5  1  0  0  0  0
 14  6  1  0  0  0  0
 15  8  1  0  0  0  0
M  RAD  1   4   2
M  END
>  <HBA>
5

>  <HBD>
3

>  <TPSA>
101.7

>  <cid>
763

>  <dipole>
7.48

>  <excitation_energy_1>
5.255

>  <excitation_energy_2>
5.585

>  <excitation_energy_3>
5.846

>  <excitation_energy_4>
6.179

>  <homo_energy>
-6.476

>  <homo_lumo_gap>
7.026

>  <logP>
-0.255

>  <lumo_energy>
0.55

>  <melting_point>
178.95

>  <molecular_refractivity>
27.41

>  <oscillator_strength_1>
0.0044

>  <oscillator_strength_2>
0.0018

>  <oscillator_strength_3>
0.0033

>  <oscillator_strength_4>
0.0107

>  <open_babel_can_smiles>
[NH]C(=[NH2])NCC(=O)O

>  <mulliken_charges>
15
1   -0.246682
2   0.594575
3   0.666942
4   -0.723697
5   -0.754399
6   -0.591208
7   -0.458988
8   -0.587889
9   0.185351
10   0.176321
11   0.289773
12   0.334229
13   0.333117
14   0.332763
15   0.449793

>  <lowdin_charges>
15
1   -0.235314
2   0.181237
3   0.149515
4   -0.495548
5   -0.488806
6   -0.28947
7   -0.264257
8   -0.36986
9   0.167128
10   0.173605
11   0.259993
12   0.28444
13   0.28472
14   0.285122
15   0.357495

$$$$

