PCCDB-ID:  7965
public computational chemistry database (PCCDB) project, http://pccdb.org

 20 20  0  0  0  0  0  0  0  0999 V2000
    0.7466    1.2946   -0.2804 C   0  0  0  0  0  0  0  0  0  0  0  0
    1.4952    0.0399    0.1965 C   0  0  0  0  0  0  0  0  0  0  0  0
   -0.7093    1.3010    0.2143 C   0  0  0  0  0  0  0  0  0  0  0  0
    0.7523   -1.2409   -0.2151 C   0  0  0  0  0  0  0  0  0  0  0  0
   -1.4469    0.0087   -0.1779 C   0  0  0  0  0  0  0  0  0  0  0  0
   -0.7116   -1.2620    0.2888 C   0  0  0  0  0  0  0  0  0  0  0  0
   -0.8656   -1.4205    1.7461 N   0  0  0  0  0  0  0  0  0  0  0  0
    0.7527    1.3192   -1.3805 H   0  0  0  0  0  0  0  0  0  0  0  0
    1.2678    2.2005    0.0549 H   0  0  0  0  0  0  0  0  0  0  0  0
    1.5969    0.0724    1.2917 H   0  0  0  0  0  0  0  0  0  0  0  0
    2.5173    0.0278   -0.2026 H   0  0  0  0  0  0  0  0  0  0  0  0
   -1.2441    2.1701   -0.1894 H   0  0  0  0  0  0  0  0  0  0  0  0
   -0.7231    1.4220    1.3076 H   0  0  0  0  0  0  0  0  0  0  0  0
    1.2836   -2.1292    0.1545 H   0  0  0  0  0  0  0  0  0  0  0  0
    0.7501   -1.3144   -1.3130 H   0  0  0  0  0  0  0  0  0  0  0  0
   -1.5398   -0.0263   -1.2728 H   0  0  0  0  0  0  0  0  0  0  0  0
   -2.4621    0.0045    0.2346 H   0  0  0  0  0  0  0  0  0  0  0  0
   -1.2145   -2.1293   -0.1594 H   0  0  0  0  0  0  0  0  0  0  0  0
   -0.3952   -0.6604    2.2356 H   0  0  0  0  0  0  0  0  0  0  0  0
   -0.3912   -2.2731    2.0432 H   0  0  0  0  0  0  0  0  0  0  0  0
  1  9  1  0  0  0  0
  1  2  1  0  0  0  0
  1  3  1  0  0  0  0
  2 10  1  0  0  0  0
  3 13  1  0  0  0  0
  4 14  1  0  0  0  0
  4  2  1  0  0  0  0
  4  6  1  0  0  0  0
  5  3  1  0  0  0  0
  5 17  1  0  0  0  0
  5  6  1  0  0  0  0
  6  7  1  0  0  0  0
  7 20  1  0  0  0  0
  7 19  1  0  0  0  0
  8  1  1  0  0  0  0
 11  2  1  0  0  0  0
 12  3  1  0  0  0  0
 15  4  1  0  0  0  0
 16  5  1  0  0  0  0
 18  6  1  0  0  0  0
M  END
>  <HBA>
1

>  <HBD>
1

>  <TPSA>
26.02

>  <cid>
7965

>  <dipole>
1.34

>  <excitation_energy_1>
5.555

>  <excitation_energy_2>
6.121

>  <excitation_energy_3>
6.348

>  <excitation_energy_4>
6.555

>  <homo_energy>
-6.161

>  <homo_lumo_gap>
8.038

>  <logP>
1.978

>  <lumo_energy>
1.878

>  <melting_point>
50.26

>  <molecular_refractivity>
31.55

>  <oscillator_strength_1>
0.0251

>  <oscillator_strength_2>
0.0066

>  <oscillator_strength_3>
0.0034

>  <oscillator_strength_4>
0.0048

>  <open_babel_can_smiles>
NC1CCCCC1

>  <mulliken_charges>
20
1   -0.253966
2   -0.260733
3   -0.269302
4   -0.26282
5   -0.25258
6   0.02376
7   -0.717357
8   0.127897
9   0.129397
10   0.11735
11   0.132626
12   0.133077
13   0.12815
14   0.119294
15   0.125091
16   0.125114
17   0.145517
18   0.124874
19   0.293965
20   0.290645

>  <lowdin_charges>
20
1   -0.276709
2   -0.278233
3   -0.279729
4   -0.295169
5   -0.279611
6   -0.069519
7   -0.558466
8   0.135374
9   0.143031
10   0.129362
11   0.143909
12   0.14601
13   0.13399
14   0.137709
15   0.137422
16   0.137633
17   0.151183
18   0.140134
19   0.249628
20   0.252051

$$$$

