PCCDB-ID:  9204
public computational chemistry database (PCCDB) project, http://pccdb.org

 23 25  0  0  0  0  0  0  0  0999 V2000
    2.2320    0.1794   -0.0042 C   0  0  0  0  0  0  0  0  0  0  0  0
   -4.7367    0.2339    0.0023 C   0  0  0  0  0  0  0  0  0  0  0  0
    1.7974   -1.1507    0.0004 C   0  0  0  0  0  0  0  0  0  0  0  0
   -4.2988   -1.0404    0.0050 C   0  0  0  0  0  0  0  0  0  0  0  0
    1.3148    1.2371   -0.0077 C   0  0  0  0  0  0  0  0  0  0  0  0
   -3.8071    1.4211   -0.0063 C   0  0  0  0  0  0  0  0  0  0  0  0
    0.4300   -1.4520    0.0018 C   0  0  0  0  0  0  0  0  0  0  0  0
   -2.8795   -1.3650    0.0035 C   0  0  0  0  0  0  0  0  0  0  0  0
   -1.2288    1.8117   -0.0085 C   0  0  0  0  0  0  0  0  0  0  0  0
   -0.0484    0.9457   -0.0068 C   0  0  0  0  0  0  0  0  0  0  0  0
   -2.3504    1.0418   -0.0051 C   0  0  0  0  0  0  0  0  0  0  0  0
   -0.4883   -0.4068   -0.0023 C   0  0  0  0  0  0  0  0  0  0  0  0
   -1.9524   -0.3755   -0.0001 C   0  0  0  0  0  0  0  0  0  0  0  0
    3.2975    0.3947   -0.0052 H   0  0  0  0  0  0  0  0  0  0  0  0
   -5.8035    0.4454    0.0043 H   0  0  0  0  0  0  0  0  0  0  0  0
    2.5265   -1.9564    0.0036 H   0  0  0  0  0  0  0  0  0  0  0  0
   -5.0118   -1.8609    0.0095 H   0  0  0  0  0  0  0  0  0  0  0  0
    1.6643    2.2667   -0.0114 H   0  0  0  0  0  0  0  0  0  0  0  0
   -4.0454    2.0477   -0.8815 H   0  0  0  0  0  0  0  0  0  0  0  0
   -4.0443    2.0615    0.8589 H   0  0  0  0  0  0  0  0  0  0  0  0
    0.0988   -2.4881    0.0059 H   0  0  0  0  0  0  0  0  0  0  0  0
   -2.5827   -2.4113    0.0071 H   0  0  0  0  0  0  0  0  0  0  0  0
   -1.1911    2.8965   -0.0123 H   0  0  0  0  0  0  0  0  0  0  0  0
  1  3  2  0  0  0  0
  2 15  1  0  0  0  0
  2  4  2  0  0  0  0
  3  7  1  0  0  0  0
  3 16  1  0  0  0  0
  4 17  1  0  0  0  0
  5 10  2  0  0  0  0
  5  1  1  0  0  0  0
  6 11  1  0  0  0  0
  6  2  1  0  0  0  0
  6 20  1  0  0  0  0
  7 21  1  0  0  0  0
  8  4  1  0  0  0  0
  8 22  1  0  0  0  0
  9 10  1  0  0  0  0
  9 11  2  0  0  0  0
 10 12  1  0  0  0  0
 11 13  1  0  0  0  0
 12 13  1  0  0  0  0
 12  7  2  0  0  0  0
 13  8  2  0  0  0  0
 14  1  1  0  0  0  0
 18  5  1  0  0  0  0
 19  6  1  0  0  0  0
 23  9  1  0  0  0  0
M  END
>  <HBA>
0

>  <HBD>
0

>  <TPSA>
0.0

>  <cid>
9204

>  <dipole>
1.63

>  <excitation_energy_1>
2.763

>  <excitation_energy_2>
3.448

>  <excitation_energy_3>
4.385

>  <excitation_energy_4>
4.625

>  <homo_energy>
-5.279

>  <homo_lumo_gap>
3.423

>  <logP>
3.427

>  <lumo_energy>
-1.856

>  <melting_point>
100.25

>  <molecular_refractivity>
56.34

>  <oscillator_strength_1>
0.0499

>  <oscillator_strength_2>
0.2701

>  <oscillator_strength_3>
0.061

>  <oscillator_strength_4>
0.0598

>  <open_babel_can_smiles>
C1=CC=C2C(=Cc3c2cccc3)C1

>  <mulliken_charges>
23
1   -0.129807
2   -0.106162
3   -0.146209
4   -0.114283
5   -0.208205
6   -0.39929
7   -0.180067
8   -0.219928
9   -0.251515
10   0.105567
11   0.123834
12   0.067984
13   0.088836
14   0.123337
15   0.134691
16   0.122625
17   0.129821
18   0.123048
19   0.175425
20   0.175184
21   0.123499
22   0.139662
23   0.121953

>  <lowdin_charges>
23
1   -0.15378
2   -0.138388
3   -0.172044
4   -0.173808
5   -0.169137
6   -0.273624
7   -0.151181
8   -0.135211
9   -0.183109
10   -0.003037
11   -0.016524
12   -0.022083
13   -0.001514
14   0.153707
15   0.157723
16   0.156012
17   0.160407
18   0.154185
19   0.172308
20   0.172179
21   0.153284
22   0.160167
23   0.153467

$$$$

