PCCDB-ID:  23204
public computational chemistry database (PCCDB) project, http://pccdb.org

 39 39  0  0  0  0  0  0  0  0999 V2000
    4.2847    1.2526    2.2566 C   0  0  0  0  0  0  0  0  0  0  0  0
    8.7002    4.5508   -1.2629 C   0  0  0  0  0  0  0  0  0  0  0  0
    7.4718   -0.6886   -1.7082 C   0  0  0  0  0  0  0  0  0  0  0  0
    7.3269    0.5780   -3.8691 C   0  0  0  0  0  0  0  0  0  0  0  0
    6.7449    4.1781    1.3126 C   0  0  0  0  0  0  0  0  0  0  0  0
    5.4578    1.2597   -0.7955 C   0  0  0  0  0  0  0  0  0  0  0  0
    5.9313    3.0794    1.9467 C   0  0  0  0  0  0  0  0  0  0  0  0
    8.2678    3.8333    1.1357 C   0  0  0  0  0  0  0  0  0  0  0  0
    4.5963    2.2679   -0.0666 C   0  0  0  0  0  0  0  0  0  0  0  0
    8.7071    2.1070   -0.6035 C   0  0  0  0  0  0  0  0  0  0  0  0
    6.2785    1.5555   -1.8050 C   0  0  0  0  0  0  0  0  0  0  0  0
    8.7492    1.5030   -1.9826 C   0  0  0  0  0  0  0  0  0  0  0  0
    4.9935    2.2828    1.4081 C   0  0  0  0  0  0  0  0  0  0  0  0
    8.5973    3.4061   -0.2812 C   0  0  0  0  0  0  0  0  0  0  0  0
    7.4232    0.7147   -2.3357 C   0  0  0  0  0  0  0  0  0  0  0  0
    4.6624    1.2371    3.2839 H   0  0  0  0  0  0  0  0  0  0  0  0
    4.3964    0.2412    1.8410 H   0  0  0  0  0  0  0  0  0  0  0  0
    3.2041    1.4517    2.2943 H   0  0  0  0  0  0  0  0  0  0  0  0
    9.5167    5.2265   -0.9714 H   0  0  0  0  0  0  0  0  0  0  0  0
    7.7858    5.1603   -1.2669 H   0  0  0  0  0  0  0  0  0  0  0  0
    8.8880    4.2306   -2.2901 H   0  0  0  0  0  0  0  0  0  0  0  0
    6.5435   -1.2401   -1.8977 H   0  0  0  0  0  0  0  0  0  0  0  0
    7.6232   -0.6499   -0.6240 H   0  0  0  0  0  0  0  0  0  0  0  0
    8.2971   -1.2666   -2.1403 H   0  0  0  0  0  0  0  0  0  0  0  0
    6.4548   -0.0215   -4.1554 H   0  0  0  0  0  0  0  0  0  0  0  0
    8.2220    0.0908   -4.2763 H   0  0  0  0  0  0  0  0  0  0  0  0
    7.2311    1.5592   -4.3497 H   0  0  0  0  0  0  0  0  0  0  0  0
    6.6650    5.0652    1.9564 H   0  0  0  0  0  0  0  0  0  0  0  0
    6.3236    4.4676    0.3443 H   0  0  0  0  0  0  0  0  0  0  0  0
    5.4845    0.2652   -0.3524 H   0  0  0  0  0  0  0  0  0  0  0  0
    6.1460    2.9313    3.0076 H   0  0  0  0  0  0  0  0  0  0  0  0
    8.8592    4.7208    1.4000 H   0  0  0  0  0  0  0  0  0  0  0  0
    8.5433    3.0468    1.8477 H   0  0  0  0  0  0  0  0  0  0  0  0
    3.5300    2.0066   -0.1424 H   0  0  0  0  0  0  0  0  0  0  0  0
    4.7168    3.2550   -0.5260 H   0  0  0  0  0  0  0  0  0  0  0  0
    8.6278    1.3886    0.2134 H   0  0  0  0  0  0  0  0  0  0  0  0
    6.2418    2.5667   -2.2177 H   0  0  0  0  0  0  0  0  0  0  0  0
    9.5938    0.8065   -2.0874 H   0  0  0  0  0  0  0  0  0  0  0  0
    8.8950    2.2821   -2.7377 H   0  0  0  0  0  0  0  0  0  0  0  0
  1 18  1  0  0  0  0
  1 16  1  0  0  0  0
  2 19  1  0  0  0  0
  2 14  1  0  0  0  0
  3 23  1  0  0  0  0
  4 15  1  0  0  0  0
  5  7  1  0  0  0  0
  5 28  1  0  0  0  0
  6 30  1  0  0  0  0
  6  9  1  0  0  0  0
  7 31  1  0  0  0  0
  8  5  1  0  0  0  0
  8 32  1  0  0  0  0
  8 33  1  0  0  0  0
  9 13  1  0  0  0  0
 10 14  2  0  0  0  0
 10 36  1  0  0  0  0
 11  6  2  0  0  0  0
 12 10  1  0  0  0  0
 13  7  2  0  0  0  0
 13  1  1  0  0  0  0
 14  8  1  0  0  0  0
 15 12  1  0  0  0  0
 15 11  1  0  0  0  0
 15  3  1  0  0  0  0
 17  1  1  0  0  0  0
 20  2  1  0  0  0  0
 21  2  1  0  0  0  0
 22  3  1  0  0  0  0
 24  3  1  0  0  0  0
 25  4  1  0  0  0  0
 26  4  1  0  0  0  0
 27  4  1  0  0  0  0
 29  5  1  0  0  0  0
 34  9  1  0  0  0  0
 35  9  1  0  0  0  0
 37 11  1  0  0  0  0
 38 12  1  0  0  0  0
 39 12  1  0  0  0  0
M  END
>  <HBA>
0

>  <HBD>
0

>  <TPSA>
0.0

>  <cid>
23204

>  <dipole>
0.12

>  <excitation_energy_1>
5.263

>  <excitation_energy_2>
5.411

>  <excitation_energy_3>
5.557

>  <excitation_energy_4>
5.641

>  <homo_energy>
-5.782

>  <homo_lumo_gap>
6.229

>  <logP>
5.035

>  <lumo_energy>
0.446

>  <melting_point>
44.94

>  <molecular_refractivity>
70.42

>  <oscillator_strength_1>
0.025

>  <oscillator_strength_2>
0.0053

>  <oscillator_strength_3>
0.0087

>  <oscillator_strength_4>
0.0215

>  <open_babel_can_smiles>
C/C/1=C\CC(C)(C)/C=C/C/C(=C\CC1)/C

>  <mulliken_charges>
39
1   -0.512645
2   -0.518119
3   -0.465044
4   -0.448293
5   -0.298182
6   -0.088214
7   -0.160681
8   -0.32134
9   -0.375089
10   -0.152552
11   -0.097435
12   -0.315763
13   0.178308
14   0.179302
15   0.074611
16   0.150964
17   0.151431
18   0.150874
19   0.151886
20   0.150763
21   0.153103
22   0.144517
23   0.149254
24   0.137993
25   0.145772
26   0.137559
27   0.137179
28   0.137343
29   0.143397
30   0.120446
31   0.111182
32   0.128645
33   0.14303
34   0.139478
35   0.1444
36   0.114913
37   0.108017
38   0.135788
39   0.1332

>  <lowdin_charges>
39
1   -0.436357
2   -0.447164
3   -0.444162
4   -0.44176
5   -0.273661
6   -0.170225
7   -0.185278
8   -0.27187
9   -0.268118
10   -0.181675
11   -0.161066
12   -0.276539
13   -0.010212
14   -0.015396
15   0.017364
16   0.15292
17   0.150503
18   0.151126
19   0.155879
20   0.152043
21   0.152865
22   0.149966
23   0.148272
24   0.149169
25   0.151206
26   0.146601
27   0.145667
28   0.148423
29   0.147575
30   0.147691
31   0.142001
32   0.141871
33   0.150729
34   0.146593
35   0.150932
36   0.147675
37   0.14229
38   0.147753
39   0.146371

$$$$

