PCCDB-ID:  12049
public computational chemistry database (PCCDB) project, http://pccdb.org

 22 21  0  0  0  0  0  0  0  0999 V2000
    3.0804    0.1088    1.1286 C   0  0  0  0  0  0  0  0  0  0  0  0
    3.2628   -0.8056   -3.9650 C   0  0  0  0  0  0  0  0  0  0  0  0
    2.8739    0.5972   -0.3096 C   0  0  0  0  0  0  0  0  0  0  0  0
    2.9191    0.1232   -2.7939 C   0  0  0  0  0  0  0  0  0  0  0  0
    4.9040   -0.5935   -1.3292 C   0  0  0  0  0  0  0  0  0  0  0  0
    3.3806   -0.3657   -1.4032 C   0  0  0  0  0  0  0  0  0  0  0  0
    5.6575    0.6515   -1.5380 N   0  0  0  0  0  0  0  0  0  0  0  0
    2.5954    0.7852    1.8420 H   0  0  0  0  0  0  0  0  0  0  0  0
    4.1417    0.0639    1.3963 H   0  0  0  0  0  0  0  0  0  0  0  0
    2.6534   -0.8914    1.2788 H   0  0  0  0  0  0  0  0  0  0  0  0
    2.8295   -0.4317   -4.8999 H   0  0  0  0  0  0  0  0  0  0  0  0
    2.8704   -1.8166   -3.7989 H   0  0  0  0  0  0  0  0  0  0  0  0
    4.3444   -0.8953   -4.1208 H   0  0  0  0  0  0  0  0  0  0  0  0
    3.3717    1.5653   -0.4394 H   0  0  0  0  0  0  0  0  0  0  0  0
    1.8008    0.7681   -0.4744 H   0  0  0  0  0  0  0  0  0  0  0  0
    1.8298    0.2607   -2.7612 H   0  0  0  0  0  0  0  0  0  0  0  0
    3.3345    1.1237   -2.9813 H   0  0  0  0  0  0  0  0  0  0  0  0
    5.1801   -1.3998   -2.0312 H   0  0  0  0  0  0  0  0  0  0  0  0
    5.1585   -0.9642   -0.3300 H   0  0  0  0  0  0  0  0  0  0  0  0
    2.9165   -1.3511   -1.2315 H   0  0  0  0  0  0  0  0  0  0  0  0
    5.6044    0.9283   -2.5170 H   0  0  0  0  0  0  0  0  0  0  0  0
    6.6448    0.4892   -1.3484 H   0  0  0  0  0  0  0  0  0  0  0  0
  1 10  1  0  0  0  0
  1  9  1  0  0  0  0
  1  8  1  0  0  0  0
  2 12  1  0  0  0  0
  2  4  1  0  0  0  0
  3  1  1  0  0  0  0
  4 16  1  0  0  0  0
  4  6  1  0  0  0  0
  5 19  1  0  0  0  0
  6  5  1  0  0  0  0
  6 20  1  0  0  0  0
  6  3  1  0  0  0  0
  7 22  1  0  0  0  0
  7  5  1  0  0  0  0
 11  2  1  0  0  0  0
 13  2  1  0  0  0  0
 14  3  1  0  0  0  0
 15  3  1  0  0  0  0
 17  4  1  0  0  0  0
 18  5  1  0  0  0  0
 21  7  1  0  0  0  0
M  END
>  <HBA>
1

>  <HBD>
1

>  <TPSA>
26.02

>  <cid>
12049

>  <dipole>
1.33

>  <excitation_energy_1>
5.525

>  <excitation_energy_2>
6.281

>  <excitation_energy_3>
6.402

>  <excitation_energy_4>
6.528

>  <homo_energy>
-6.218

>  <homo_lumo_gap>
8.052

>  <logP>
2.082

>  <lumo_energy>
1.834

>  <melting_point>
27.69

>  <molecular_refractivity>
33.66

>  <oscillator_strength_1>
0.0093

>  <oscillator_strength_2>
0.0198

>  <oscillator_strength_3>
0.0029

>  <oscillator_strength_4>
0.01

>  <open_babel_can_smiles>
CCC(CN)CC

>  <mulliken_charges>
22
1   -0.452184
2   -0.4501
3   -0.243149
4   -0.264215
5   -0.153368
6   -0.058793
7   -0.720616
8   0.139506
9   0.148754
10   0.134027
11   0.142637
12   0.14294
13   0.139171
14   0.154237
15   0.119846
16   0.132256
17   0.133179
18   0.115271
19   0.138398
20   0.109104
21   0.296873
22   0.296226

>  <lowdin_charges>
22
1   -0.446006
2   -0.445768
3   -0.273522
4   -0.276017
5   -0.212082
6   -0.131062
7   -0.556864
8   0.150371
9   0.146909
10   0.141397
11   0.150402
12   0.146337
13   0.141454
14   0.151817
15   0.134619
16   0.140941
17   0.13895
18   0.119964
19   0.142766
20   0.132071
21   0.24964
22   0.253682

$$$$

