PCCDB-ID:  14485
public computational chemistry database (PCCDB) project, http://pccdb.org

 14 13  0  0  0  0  0  0  0  0999 V2000
    4.0491    4.9359    3.4743 C   0  0  0  0  0  0  0  0  0  0  0  0
    5.6053    1.9847    0.9215 C   0  0  0  0  0  0  0  0  0  0  0  0
    4.7921    3.7310    2.9460 C   0  0  0  0  0  0  0  0  0  0  0  0
    7.1175    1.8516    1.1409 C   0  0  0  0  0  0  0  0  0  0  0  0
    5.2276    2.8516    3.6732 O   0  0  0  0  0  0  0  0  0  0  0  0
    7.8828    1.6465    0.2315 O   0  0  0  0  0  0  0  0  0  0  0  0
    7.5296    1.9577    2.4148 O   0  0  0  0  0  0  0  0  0  0  0  0
    4.9432    3.6850    1.1657 S   0  0  0  0  0  0  0  0  0  0  0  0
    4.4786    5.2251    4.4369 H   0  0  0  0  0  0  0  0  0  0  0  0
    3.0008    4.6569    3.6362 H   0  0  0  0  0  0  0  0  0  0  0  0
    4.0762    5.7789    2.7788 H   0  0  0  0  0  0  0  0  0  0  0  0
    5.0497    1.3162    1.5866 H   0  0  0  0  0  0  0  0  0  0  0  0
    5.3881    1.7342   -0.1171 H   0  0  0  0  0  0  0  0  0  0  0  0
    6.7618    2.1248    3.0069 H   0  0  0  0  0  0  0  0  0  0  0  0
  1 10  1  0  0  0  0
  1  9  1  0  0  0  0
  2  4  1  0  0  0  0
  2  8  1  0  0  0  0
  2 12  1  0  0  0  0
  3  1  1  0  0  0  0
  3  5  2  0  0  0  0
  4  7  1  0  0  0  0
  6  4  2  0  0  0  0
  7 14  1  0  0  0  0
  8  3  1  0  0  0  0
 11  1  1  0  0  0  0
 13  2  1  0  0  0  0
M  END
>  <HBA>
4

>  <HBD>
1

>  <TPSA>
79.67

>  <cid>
14485

>  <dipole>
5.49

>  <excitation_energy_1>
4.806

>  <excitation_energy_2>
5.09

>  <excitation_energy_3>
5.188

>  <excitation_energy_4>
5.828

>  <homo_energy>
-7.187

>  <homo_lumo_gap>
5.706

>  <logP>
0.351

>  <lumo_energy>
-1.48

>  <melting_point>
82.28

>  <molecular_refractivity>
30.9

>  <oscillator_strength_1>
0.0003

>  <oscillator_strength_2>
0.0466

>  <oscillator_strength_3>
0.0056

>  <oscillator_strength_4>
0.0239

>  <open_babel_can_smiles>
CC(=O)SCC(=O)O

>  <mulliken_charges>
14
1   -0.517974
2   -0.552714
3   0.274678
4   0.600835
5   -0.447725
6   -0.43072
7   -0.576743
8   0.174479
9   0.202103
10   0.204907
11   0.187264
12   0.213599
13   0.222194
14   0.445818

>  <lowdin_charges>
14
1   -0.459745
2   -0.418364
3   0.055029
4   0.190677
5   -0.262473
6   -0.240016
7   -0.35829
8   0.190145
9   0.186717
10   0.190177
11   0.179999
12   0.187907
13   0.197376
14   0.36086

$$$$

