PCCDB-ID:  29079
public computational chemistry database (PCCDB) project, http://pccdb.org

 25 25  0  0  0  0  0  0  0  0999 V2000
    1.3189    1.3469   -0.0010 C   0  0  0  0  0  0  0  0  0  0  0  0
    0.9154   -3.2964   -0.0299 C   0  0  0  0  0  0  0  0  0  0  0  0
    3.7857    1.9040   -0.1033 C   0  0  0  0  0  0  0  0  0  0  0  0
    5.4943    0.1823    0.0430 C   0  0  0  0  0  0  0  0  0  0  0  0
    2.7746    0.9539    0.0274 C   0  0  0  0  0  0  0  0  0  0  0  0
    1.9531   -2.3418   -0.5423 C   0  0  0  0  0  0  0  0  0  0  0  0
    5.1218    1.5089   -0.1008 C   0  0  0  0  0  0  0  0  0  0  0  0
    4.4913   -0.7692    0.1986 C   0  0  0  0  0  0  0  0  0  0  0  0
    3.1338   -0.3983    0.1828 C   0  0  0  0  0  0  0  0  0  0  0  0
    6.1720    2.5300   -0.2499 N   0  0  0  0  0  0  0  0  0  0  0  0
    4.9345   -2.1569    0.4258 N   0  0  0  0  0  0  0  0  0  0  0  0
    2.5882   -2.4175   -1.5576 O   0  0  0  0  0  0  0  0  0  0  0  0
    5.8098    3.6984   -0.3798 O   0  0  0  0  0  0  0  0  0  0  0  0
    7.3404    2.1499   -0.2342 O   0  0  0  0  0  0  0  0  0  0  0  0
    6.0724   -2.4455    0.0696 O   0  0  0  0  0  0  0  0  0  0  0  0
    4.1596   -2.9282    0.9905 O   0  0  0  0  0  0  0  0  0  0  0  0
    2.1013   -1.2832    0.3552 O   0  0  0  0  0  0  0  0  0  0  0  0
    1.2148    2.4312   -0.0898 H   0  0  0  0  0  0  0  0  0  0  0  0
    0.8024    1.0216    0.9083 H   0  0  0  0  0  0  0  0  0  0  0  0
    0.8015    0.8826   -0.8483 H   0  0  0  0  0  0  0  0  0  0  0  0
    1.3526   -3.8647    0.7987 H   0  0  0  0  0  0  0  0  0  0  0  0
    0.6259   -3.9803   -0.8281 H   0  0  0  0  0  0  0  0  0  0  0  0
    0.0436   -2.7601    0.3545 H   0  0  0  0  0  0  0  0  0  0  0  0
    3.5476    2.9544   -0.2196 H   0  0  0  0  0  0  0  0  0  0  0  0
    6.5347   -0.1128    0.0424 H   0  0  0  0  0  0  0  0  0  0  0  0
  1  5  1  0  0  0  0
  1 19  1  0  0  0  0
  2 23  1  0  0  0  0
  2 21  1  0  0  0  0
  3  7  2  0  0  0  0
  3  5  1  0  0  0  0
  4  8  2  0  0  0  0
  5  9  2  0  0  0  0
  6  2  1  0  0  0  0
  6 17  1  0  0  0  0
  7  4  1  0  0  0  0
  8 11  1  0  0  0  0
  9  8  1  0  0  0  0
  9 17  1  0  0  0  0
 10 14  2  0  0  0  0
 10  7  1  0  0  0  0
 11 16  2  0  0  0  0
 12  6  2  0  0  0  0
 13 10  2  0  0  0  0
 15 11  2  0  0  0  0
 18  1  1  0  0  0  0
 20  1  1  0  0  0  0
 22  2  1  0  0  0  0
 24  3  1  0  0  0  0
 25  4  1  0  0  0  0
M  END
>  <HBA>
2

>  <HBD>
0

>  <TPSA>
117.94

>  <cid>
29079

>  <dipole>
6.06

>  <excitation_energy_1>
3.72

>  <excitation_energy_2>
3.743

>  <excitation_energy_3>
3.992

>  <excitation_energy_4>
4.187

>  <homo_energy>
-7.799

>  <homo_lumo_gap>
4.787

>  <logP>
2.783

>  <lumo_energy>
-3.012

>  <melting_point>
113.58

>  <molecular_refractivity>
60.55

>  <oscillator_strength_1>
0.0084

>  <oscillator_strength_2>
0.0

>  <oscillator_strength_3>
0.0358

>  <oscillator_strength_4>
0.0036

>  <open_babel_can_smiles>
CC(=O)Oc1c(C)cc(cc1N(=O)=O)N(=O)=O

>  <mulliken_charges>
25
1   -0.521358
2   -0.532563
3   -0.206692
4   -0.197195
5   0.120184
6   0.610465
7   0.287826
8   0.286032
9   0.328933
10   0.382656
11   0.372586
12   -0.429446
13   -0.388902
14   -0.38279
15   -0.36543
16   -0.395139
17   -0.519181
18   0.17049
19   0.184245
20   0.18115
21   0.214492
22   0.193805
23   0.185093
24   0.191713
25   0.229025

>  <lowdin_charges>
25
1   -0.436166
2   -0.461954
3   -0.124248
4   -0.117678
5   8.6e-05
6   0.223314
7   0.002045
8   -0.000848
9   0.125052
10   0.306216
11   0.315087
12   -0.221062
13   -0.238399
14   -0.231866
15   -0.220399
16   -0.241288
17   -0.157742
18   0.165008
19   0.174402
20   0.17348
21   0.197563
22   0.18393
23   0.180806
24   0.191967
25   0.212694

$$$$

