PCCDB-ID:  7996
public computational chemistry database (PCCDB) project, http://pccdb.org

 19 18  0  0  0  0  0  0  0  0999 V2000
    0.7218    0.0771    0.1982 C   0  0  0  0  0  0  0  0  0  0  0  0
    1.9322   -1.6334    1.6300 C   0  0  0  0  0  0  0  0  0  0  0  0
    4.0915   -1.9501   -2.2700 C   0  0  0  0  0  0  0  0  0  0  0  0
    3.8085   -1.6582   -0.8027 C   0  0  0  0  0  0  0  0  0  0  0  0
    2.0468   -0.6198    0.4885 C   0  0  0  0  0  0  0  0  0  0  0  0
    3.8538   -0.8075   -3.0727 O   0  0  0  0  0  0  0  0  0  0  0  0
    2.4493   -1.2464   -0.7343 O   0  0  0  0  0  0  0  0  0  0  0  0
    0.3668    0.6164    1.0828 H   0  0  0  0  0  0  0  0  0  0  0  0
   -0.0399   -0.6566   -0.0888 H   0  0  0  0  0  0  0  0  0  0  0  0
    0.8354    0.7927   -0.6225 H   0  0  0  0  0  0  0  0  0  0  0  0
    1.5988   -1.1391    2.5495 H   0  0  0  0  0  0  0  0  0  0  0  0
    2.8923   -2.1156    1.8422 H   0  0  0  0  0  0  0  0  0  0  0  0
    1.2057   -2.4126    1.3728 H   0  0  0  0  0  0  0  0  0  0  0  0
    3.4729   -2.8039   -2.5921 H   0  0  0  0  0  0  0  0  0  0  0  0
    5.1431   -2.2267   -2.4004 H   0  0  0  0  0  0  0  0  0  0  0  0
    4.4670   -0.8495   -0.4473 H   0  0  0  0  0  0  0  0  0  0  0  0
    3.9941   -2.5532   -0.1889 H   0  0  0  0  0  0  0  0  0  0  0  0
    2.8029    0.1381    0.7559 H   0  0  0  0  0  0  0  0  0  0  0  0
    2.9786   -0.4873   -2.7955 H   0  0  0  0  0  0  0  0  0  0  0  0
  1  5  1  0  0  0  0
  1  8  1  0  0  0  0
  2 12  1  0  0  0  0
  2 11  1  0  0  0  0
  3  4  1  0  0  0  0
  4  7  1  0  0  0  0
  4 16  1  0  0  0  0
  4 17  1  0  0  0  0
  5 18  1  0  0  0  0
  5  2  1  0  0  0  0
  6 19  1  0  0  0  0
  6  3  1  0  0  0  0
  7  5  1  0  0  0  0
  9  1  1  0  0  0  0
 10  1  1  0  0  0  0
 13  2  1  0  0  0  0
 14  3  1  0  0  0  0
 15  3  1  0  0  0  0
M  END
>  <HBA>
2

>  <HBD>
1

>  <TPSA>
29.46

>  <cid>
7996

>  <dipole>
2.49

>  <excitation_energy_1>
6.668

>  <excitation_energy_2>
6.823

>  <excitation_energy_3>
6.986

>  <excitation_energy_4>
7.093

>  <homo_energy>
-6.974

>  <homo_lumo_gap>
9.064

>  <logP>
0.404

>  <lumo_energy>
2.09

>  <melting_point>
-16.23

>  <molecular_refractivity>
28.4

>  <oscillator_strength_1>
0.0035

>  <oscillator_strength_2>
0.0191

>  <oscillator_strength_3>
0.013

>  <oscillator_strength_4>
0.0014

>  <open_babel_can_smiles>
OCCOC(C)C

>  <mulliken_charges>
19
1   -0.450663
2   -0.458242
3   -0.032959
4   -0.036223
5   0.163446
6   -0.623408
7   -0.498685
8   0.14444
9   0.154827
10   0.151761
11   0.14535
12   0.148851
13   0.154156
14   0.128838
15   0.142508
16   0.129359
17   0.122956
18   0.115868
19   0.397819

>  <lowdin_charges>
19
1   -0.450187
2   -0.460649
3   -0.138021
4   -0.151439
5   0.00962
6   -0.469597
7   -0.284919
8   0.154811
9   0.156674
10   0.156007
11   0.155417
12   0.152214
13   0.156173
14   0.131879
15   0.147489
16   0.134179
17   0.132269
18   0.126648
19   0.341431

$$$$

