PCCDB-ID:  8141
public computational chemistry database (PCCDB) project, http://pccdb.org

 29 28  0  0  0  0  0  0  0  0999 V2000
    0.9787   -0.0336    0.1002 C   0  0  0  0  0  0  0  0  0  0  0  0
    9.3573    3.7750   -4.4276 C   0  0  0  0  0  0  0  0  0  0  0  0
    2.5101    0.0037    0.0721 C   0  0  0  0  0  0  0  0  0  0  0  0
    8.8024    2.8444   -3.3445 C   0  0  0  0  0  0  0  0  0  0  0  0
    3.0744    0.9115   -1.0285 C   0  0  0  0  0  0  0  0  0  0  0  0
    7.2693    2.8261   -3.2884 C   0  0  0  0  0  0  0  0  0  0  0  0
    4.6074    0.9522   -1.0657 C   0  0  0  0  0  0  0  0  0  0  0  0
    6.7048    1.9009   -2.2027 C   0  0  0  0  0  0  0  0  0  0  0  0
    5.1715    1.8701   -2.1580 C   0  0  0  0  0  0  0  0  0  0  0  0
    0.6079   -0.6874    0.8980 H   0  0  0  0  0  0  0  0  0  0  0  0
    0.5735   -0.4044   -0.8496 H   0  0  0  0  0  0  0  0  0  0  0  0
    0.5608    0.9667    0.2683 H   0  0  0  0  0  0  0  0  0  0  0  0
   10.4532    3.7624   -4.4446 H   0  0  0  0  0  0  0  0  0  0  0  0
    9.0387    4.8116   -4.2612 H   0  0  0  0  0  0  0  0  0  0  0  0
    9.0055    3.4783   -5.4235 H   0  0  0  0  0  0  0  0  0  0  0  0
    2.8985   -1.0156   -0.0655 H   0  0  0  0  0  0  0  0  0  0  0  0
    2.8861    0.3420    1.0482 H   0  0  0  0  0  0  0  0  0  0  0  0
    9.1968    3.1474   -2.3640 H   0  0  0  0  0  0  0  0  0  0  0  0
    9.1703    1.8228   -3.5164 H   0  0  0  0  0  0  0  0  0  0  0  0
    2.6861    1.9318   -0.8900 H   0  0  0  0  0  0  0  0  0  0  0  0
    2.6958    0.5741   -2.0051 H   0  0  0  0  0  0  0  0  0  0  0  0
    6.8753    2.5193   -4.2689 H   0  0  0  0  0  0  0  0  0  0  0  0
    6.9010    3.8495   -3.1215 H   0  0  0  0  0  0  0  0  0  0  0  0
    4.9937   -0.0673   -1.2140 H   0  0  0  0  0  0  0  0  0  0  0  0
    4.9857    1.2793   -0.0857 H   0  0  0  0  0  0  0  0  0  0  0  0
    7.0902    2.2156   -1.2214 H   0  0  0  0  0  0  0  0  0  0  0  0
    7.0837    0.8805   -2.3633 H   0  0  0  0  0  0  0  0  0  0  0  0
    4.7920    2.8914   -2.0052 H   0  0  0  0  0  0  0  0  0  0  0  0
    4.7867    1.5480   -3.1372 H   0  0  0  0  0  0  0  0  0  0  0  0
  1 12  1  0  0  0  0
  1 10  1  0  0  0  0
  2 14  1  0  0  0  0
  2  4  1  0  0  0  0
  3  1  1  0  0  0  0
  3 17  1  0  0  0  0
  4  6  1  0  0  0  0
  4 18  1  0  0  0  0
  5 20  1  0  0  0  0
  5  3  1  0  0  0  0
  6 23  1  0  0  0  0
  6  8  1  0  0  0  0
  7  5  1  0  0  0  0
  7 25  1  0  0  0  0
  8  9  1  0  0  0  0
  8 26  1  0  0  0  0
  9 28  1  0  0  0  0
  9  7  1  0  0  0  0
 11  1  1  0  0  0  0
 13  2  1  0  0  0  0
 15  2  1  0  0  0  0
 16  3  1  0  0  0  0
 19  4  1  0  0  0  0
 21  5  1  0  0  0  0
 22  6  1  0  0  0  0
 24  7  1  0  0  0  0
 27  8  1  0  0  0  0
 29  9  1  0  0  0  0
M  END
>  <HBA>
0

>  <HBD>
0

>  <TPSA>
0.0

>  <cid>
8141

>  <dipole>
0.05

>  <excitation_energy_1>
7.913

>  <excitation_energy_2>
7.929

>  <excitation_energy_3>
8.0

>  <excitation_energy_4>
8.152

>  <homo_energy>
-7.965

>  <homo_lumo_gap>
10.438

>  <logP>
3.757

>  <lumo_energy>
2.474

>  <melting_point>
-28.56

>  <molecular_refractivity>
45.38

>  <oscillator_strength_1>
0.0117

>  <oscillator_strength_2>
0.0184

>  <oscillator_strength_3>
0.0

>  <oscillator_strength_4>
0.0

>  <open_babel_can_smiles>
CCCCCCCCC

>  <mulliken_charges>
29
1   -0.441101
2   -0.441254
3   -0.246404
4   -0.246391
5   -0.245244
6   -0.245266
7   -0.252108
8   -0.252137
9   -0.252691
10   0.140852
11   0.14075
12   0.140722
13   0.140871
14   0.140793
15   0.140782
16   0.129451
17   0.129462
18   0.129458
19   0.12947
20   0.125726
21   0.12578
22   0.125749
23   0.125795
24   0.126106
25   0.126099
26   0.126139
27   0.126084
28   0.126257
29   0.126249

>  <lowdin_charges>
29
1   -0.445191
2   -0.44062
3   -0.270835
4   -0.27105
5   -0.273383
6   -0.273273
7   -0.273118
8   -0.273107
9   -0.272815
10   0.149714
11   0.146
12   0.145394
13   0.146699
14   0.144777
15   0.145338
16   0.137531
17   0.138108
18   0.138066
19   0.137497
20   0.135989
21   0.13662
22   0.136535
23   0.135981
24   0.13625
25   0.136778
26   0.136791
27   0.136215
28   0.13627
29   0.136841

$$$$

