PCCDB-ID:  72707
public computational chemistry database (PCCDB) project, http://pccdb.org

 14 15  0  0  0  0  0  0  0  0999 V2000
   -2.1472   -0.7545   -0.0008 C   0  0  0  0  0  0  0  0  0  0  0  0
   -2.1993    0.6495   -0.0003 C   0  0  0  0  0  0  0  0  0  0  0  0
   -0.9193   -1.3987   -0.0007 C   0  0  0  0  0  0  0  0  0  0  0  0
   -1.0366    1.4124    0.0011 C   0  0  0  0  0  0  0  0  0  0  0  0
    0.2629   -0.6401   -0.0001 C   0  0  0  0  0  0  0  0  0  0  0  0
    0.2030    0.7588    0.0012 C   0  0  0  0  0  0  0  0  0  0  0  0
    1.5801   -1.2939   -0.0013 C   0  0  0  0  0  0  0  0  0  0  0  0
    1.8232   -2.4774   -0.0029 O   0  0  0  0  0  0  0  0  0  0  0  0
    1.7296    1.6563    0.0042 S   0  0  0  0  0  0  0  0  0  0  0  0
    2.9455   -0.0633   -0.0008 S   0  0  0  0  0  0  0  0  0  0  0  0
   -3.0667   -1.3315   -0.0009 H   0  0  0  0  0  0  0  0  0  0  0  0
   -3.1623    1.1526   -0.0009 H   0  0  0  0  0  0  0  0  0  0  0  0
   -0.8383   -2.4813   -0.0008 H   0  0  0  0  0  0  0  0  0  0  0  0
   -1.0876    2.4972    0.0017 H   0  0  0  0  0  0  0  0  0  0  0  0
  1  3  2  0  0  0  0
  1  2  1  0  0  0  0
  2  4  2  0  0  0  0
  3  5  1  0  0  0  0
  4  6  1  0  0  0  0
  4 14  1  0  0  0  0
  5  6  2  0  0  0  0
  6  9  1  0  0  0  0
  7 10  1  0  0  0  0
  7  5  1  0  0  0  0
  8  7  2  0  0  0  0
 10  9  1  0  0  0  0
 11  1  1  0  0  0  0
 12  2  1  0  0  0  0
 13  3  1  0  0  0  0
M  END
>  <HBA>
3

>  <HBD>
0

>  <TPSA>
73.55

>  <cid>
72707

>  <dipole>
3.89

>  <excitation_energy_1>
3.324

>  <excitation_energy_2>
3.727

>  <excitation_energy_3>
4.306

>  <excitation_energy_4>
4.662

>  <homo_energy>
-6.223

>  <homo_lumo_gap>
4.351

>  <logP>
2.323

>  <lumo_energy>
-1.872

>  <melting_point>
81.55

>  <molecular_refractivity>
45.97

>  <oscillator_strength_1>
0.0004

>  <oscillator_strength_2>
0.0627

>  <oscillator_strength_3>
0.0002

>  <oscillator_strength_4>
0.026

>  <open_babel_can_smiles>
O=c1ssc2c1cccc2

>  <mulliken_charges>
14
1   -0.141459
2   -0.108063
3   -0.134901
4   -0.157187
5   0.120819
6   -0.152767
7   0.195356
8   -0.43008
9   0.108134
10   0.076538
11   0.148179
12   0.149563
13   0.171096
14   0.154772

>  <lowdin_charges>
14
1   -0.159146
2   -0.127548
3   -0.11388
4   -0.159033
5   -0.064201
6   -0.11356
7   0.040354
8   -0.222573
9   0.139356
10   0.095509
11   0.168103
12   0.168316
13   0.17879
14   0.169514

$$$$

