PCCDB-ID:  58334
public computational chemistry database (PCCDB) project, http://pccdb.org

 27 28  0  0  1  0  0  0  0  0999 V2000
    2.2062    0.3411   -0.4904 C   0  0  0  0  0  0  0  0  0  0  0  0
    1.2761    0.2370    1.8633 C   0  0  0  0  0  0  0  0  0  0  0  0
    6.7134   -2.2059    1.8628 C   0  0  0  0  0  0  0  0  0  0  0  0
    5.3925   -2.3152    1.0459 C   0  0  0  0  0  0  0  0  0  0  0  0
    7.0256    0.3046    1.3125 C   0  0  0  0  0  0  0  0  0  0  0  0
    2.5484    0.2518    1.0087 C   0  0  0  0  0  0  0  0  0  0  0  0
    6.7960   -0.7640    2.3540 C   0  0  1  0  0  0  0  0  0  0  0  0
    5.6276    0.0188    1.7990 C   0  0  2  0  0  0  0  0  0  0  0  0
    4.7683   -0.8926    0.9148 C   0  0  2  0  0  0  0  0  0  0  0  0
    3.3732   -0.9117    1.3748 N   0  0  0  0  0  0  0  0  0  0  0  0
    1.6545    1.2616   -0.7163 H   0  0  0  0  0  0  0  0  0  0  0  0
    1.5761   -0.5064   -0.7926 H   0  0  0  0  0  0  0  0  0  0  0  0
    3.1057    0.3324   -1.1153 H   0  0  0  0  0  0  0  0  0  0  0  0
    0.6539    1.1173    1.6646 H   0  0  0  0  0  0  0  0  0  0  0  0
    1.5300    0.2142    2.9272 H   0  0  0  0  0  0  0  0  0  0  0  0
    0.6718   -0.6530    1.6420 H   0  0  0  0  0  0  0  0  0  0  0  0
    7.5879   -2.4764    1.2573 H   0  0  0  0  0  0  0  0  0  0  0  0
    6.6973   -2.8967    2.7129 H   0  0  0  0  0  0  0  0  0  0  0  0
    4.6822   -2.9483    1.5902 H   0  0  0  0  0  0  0  0  0  0  0  0
    5.5511   -2.7768    0.0655 H   0  0  0  0  0  0  0  0  0  0  0  0
    7.2944   -0.0069    0.3033 H   0  0  0  0  0  0  0  0  0  0  0  0
    7.4974    1.2317    1.6282 H   0  0  0  0  0  0  0  0  0  0  0  0
    3.1298    1.1430    1.2799 H   0  0  0  0  0  0  0  0  0  0  0  0
    7.1604   -0.5797    3.3616 H   0  0  0  0  0  0  0  0  0  0  0  0
    5.1182    0.7666    2.4003 H   0  0  0  0  0  0  0  0  0  0  0  0
    4.8482   -0.5574   -0.1356 H   0  0  0  0  0  0  0  0  0  0  0  0
    2.9189   -1.7509    1.0143 H   0  0  0  0  0  0  0  0  0  0  0  0
  1  6  1  0  0  0  0
  2 15  1  0  0  0  0
  3  7  1  0  0  0  0
  3 18  1  0  0  0  0
  4 19  1  0  0  0  0
  4  3  1  0  0  0  0
  5 22  1  0  0  0  0
  5  8  1  0  0  0  0
  5  7  1  0  0  0  0
  6 23  1  0  0  0  0
  6 10  1  0  0  0  0
  6  2  1  0  0  0  0
  7 24  1  1  0  0  0
  8  7  1  0  0  0  0
  8 25  1  1  0  0  0
  9 26  1  6  0  0  0
  9  4  1  0  0  0  0
  9 10  1  0  0  0  0
  9  8  1  0  0  0  0
 11  1  1  0  0  0  0
 12  1  1  0  0  0  0
 13  1  1  0  0  0  0
 14  2  1  0  0  0  0
 16  2  1  0  0  0  0
 17  3  1  0  0  0  0
 20  4  1  0  0  0  0
 21  5  1  0  0  0  0
 27 10  1  0  0  0  0
M  END
>  <HBA>
1

>  <HBD>
1

>  <TPSA>
12.03

>  <cid>
58334

>  <dipole>
0.72

>  <excitation_energy_1>
5.433

>  <excitation_energy_2>
5.659

>  <excitation_energy_3>
5.785

>  <excitation_energy_4>
5.924

>  <homo_energy>
-5.744

>  <homo_lumo_gap>
8.063

>  <logP>
2.174

>  <lumo_energy>
2.318

>  <melting_point>
43.78

>  <molecular_refractivity>
43.95

>  <oscillator_strength_1>
0.0057

>  <oscillator_strength_2>
0.0004

>  <oscillator_strength_3>
0.0073

>  <oscillator_strength_4>
0.0284

>  <open_babel_can_smiles>
CC(N[C@@H]1CC[C@@H]2[C@H]1C2)C

>  <mulliken_charges>
27
1   -0.451409
2   -0.434182
3   -0.27218
4   -0.311112
5   -0.322962
6   0.041843
7   -0.121042
8   -0.113653
9   0.073364
10   -0.575299
11   0.141042
12   0.132312
13   0.149008
14   0.13627
15   0.154574
16   0.131979
17   0.136505
18   0.139232
19   0.146766
20   0.133787
21   0.139775
22   0.14373
23   0.132324
24   0.134991
25   0.141657
26   0.107729
27   0.284951

>  <lowdin_charges>
27
1   -0.464542
2   -0.44532
3   -0.275056
4   -0.289676
5   -0.319935
6   -0.061677
7   -0.157285
8   -0.166478
9   -0.055957
10   -0.36027
11   0.150689
12   0.143325
13   0.150257
14   0.147708
15   0.154785
16   0.143529
17   0.142806
18   0.149254
19   0.15213
20   0.143355
21   0.149744
22   0.15846
23   0.139698
24   0.150937
25   0.156765
26   0.114128
27   0.248626

$$$$

