PCCDB-ID:  13650
public computational chemistry database (PCCDB) project, http://pccdb.org

 18 19  0  0  0  0  0  0  0  0999 V2000
   -2.4294   -0.7247   -0.0182 C   0  0  0  0  0  0  0  0  0  0  0  0
   -2.4144    0.6774   -0.0165 C   0  0  0  0  0  0  0  0  0  0  0  0
   -1.2352   -1.4337   -0.0214 C   0  0  0  0  0  0  0  0  0  0  0  0
   -1.2066    1.3690   -0.0177 C   0  0  0  0  0  0  0  0  0  0  0  0
    1.2814   -1.4180   -0.0254 C   0  0  0  0  0  0  0  0  0  0  0  0
   -0.0001   -0.7590   -0.0228 C   0  0  0  0  0  0  0  0  0  0  0  0
    2.4289   -0.6966   -0.0271 C   0  0  0  0  0  0  0  0  0  0  0  0
   -0.0140    0.6471   -0.0214 C   0  0  0  0  0  0  0  0  0  0  0  0
    2.4095    0.7814   -0.0233 C   0  0  0  0  0  0  0  0  0  0  0  0
    3.6869   -1.2001   -0.0288 O   0  0  0  0  0  0  0  0  0  0  0  0
    3.3847    1.4893   -0.0206 O   0  0  0  0  0  0  0  0  0  0  0  0
    1.1555    1.3627   -0.0248 O   0  0  0  0  0  0  0  0  0  0  0  0
   -3.3754   -1.2579   -0.0167 H   0  0  0  0  0  0  0  0  0  0  0  0
   -3.3485    1.2313   -0.0142 H   0  0  0  0  0  0  0  0  0  0  0  0
   -1.2402   -2.5208   -0.0229 H   0  0  0  0  0  0  0  0  0  0  0  0
   -1.1654    2.4531   -0.0157 H   0  0  0  0  0  0  0  0  0  0  0  0
    1.3124   -2.5065   -0.0264 H   0  0  0  0  0  0  0  0  0  0  0  0
    3.6374   -2.1698   -0.0290 H   0  0  0  0  0  0  0  0  0  0  0  0
  1 13  1  0  0  0  0
  1  2  1  0  0  0  0
  2 14  1  0  0  0  0
  3  1  2  0  0  0  0
  4  2  2  0  0  0  0
  4 16  1  0  0  0  0
  5  6  1  0  0  0  0
  6  8  2  0  0  0  0
  6  3  1  0  0  0  0
  7  5  2  0  0  0  0
  7  9  1  0  0  0  0
  8  4  1  0  0  0  0
  9 11  2  0  0  0  0
 10  7  1  0  0  0  0
 12  9  1  0  0  0  0
 12  8  1  0  0  0  0
 15  3  1  0  0  0  0
 17  5  1  0  0  0  0
 18 10  1  0  0  0  0
M  END
>  <HBA>
3

>  <HBD>
1

>  <TPSA>
50.44

>  <cid>
13650

>  <dipole>
5.39

>  <excitation_energy_1>
4.186

>  <excitation_energy_2>
4.497

>  <excitation_energy_3>
4.673

>  <excitation_energy_4>
5.113

>  <homo_energy>
-6.101

>  <homo_lumo_gap>
4.506

>  <logP>
1.499

>  <lumo_energy>
-1.595

>  <melting_point>
123.3

>  <molecular_refractivity>
44.51

>  <oscillator_strength_1>
0.2844

>  <oscillator_strength_2>
0.0523

>  <oscillator_strength_3>
0.0

>  <oscillator_strength_4>
0.0062

>  <open_babel_can_smiles>
O=c1oc2ccccc2cc1O

>  <mulliken_charges>
18
1   -0.1294
2   -0.137807
3   -0.207673
4   -0.167465
5   -0.209287
6   0.142493
7   0.260177
8   0.298515
9   0.593098
10   -0.607009
11   -0.440532
12   -0.519049
13   0.137092
14   0.141421
15   0.135715
16   0.156677
17   0.139217
18   0.413819

>  <lowdin_charges>
18
1   -0.16228
2   -0.146631
3   -0.153326
4   -0.167241
5   -0.194421
6   -0.026535
7   0.058249
8   0.102113
9   0.19032
10   -0.33702
11   -0.21976
12   -0.126559
13   0.162905
14   0.165059
15   0.158718
16   0.173889
17   0.161189
18   0.361333

$$$$

