PCCDB-ID:  7268
public computational chemistry database (PCCDB) project, http://pccdb.org

 20 19  0  0  0  0  0  0  0  0999 V2000
    1.3535   -3.1377    0.4193 C   0  0  0  0  0  0  0  0  0  0  0  0
    7.3740    1.2821   -0.7047 C   0  0  0  0  0  0  0  0  0  0  0  0
    2.1646   -2.3060    1.4010 C   0  0  0  0  0  0  0  0  0  0  0  0
    6.5763    0.4375   -1.6862 C   0  0  0  0  0  0  0  0  0  0  0  0
    4.0622   -1.5562    0.1959 C   0  0  0  0  0  0  0  0  0  0  0  0
    4.6752   -0.3145   -0.4883 C   0  0  0  0  0  0  0  0  0  0  0  0
    4.5983   -2.6387    0.2407 O   0  0  0  0  0  0  0  0  0  0  0  0
    4.1348    0.7655   -0.5415 O   0  0  0  0  0  0  0  0  0  0  0  0
    2.8749   -1.2384    0.7213 O   0  0  0  0  0  0  0  0  0  0  0  0
    5.8671   -0.6297   -1.0047 O   0  0  0  0  0  0  0  0  0  0  0  0
    0.7663   -3.8841    0.9663 H   0  0  0  0  0  0  0  0  0  0  0  0
    2.0110   -3.6639   -0.2785 H   0  0  0  0  0  0  0  0  0  0  0  0
    0.6643   -2.5051   -0.1488 H   0  0  0  0  0  0  0  0  0  0  0  0
    7.9595    2.0289   -1.2528 H   0  0  0  0  0  0  0  0  0  0  0  0
    8.0640    0.6588   -0.1271 H   0  0  0  0  0  0  0  0  0  0  0  0
    6.7078    1.8082   -0.0152 H   0  0  0  0  0  0  0  0  0  0  0  0
    2.8893   -2.9197    1.9419 H   0  0  0  0  0  0  0  0  0  0  0  0
    1.5228   -1.7837    2.1137 H   0  0  0  0  0  0  0  0  0  0  0  0
    7.2272   -0.0859   -2.3899 H   0  0  0  0  0  0  0  0  0  0  0  0
    5.8521    1.0423   -2.2377 H   0  0  0  0  0  0  0  0  0  0  0  0
  1 11  1  0  0  0  0
  1  3  1  0  0  0  0
  2 15  1  0  0  0  0
  2 16  1  0  0  0  0
  3 17  1  0  0  0  0
  3 18  1  0  0  0  0
  4 10  1  0  0  0  0
  4  2  1  0  0  0  0
  5  7  2  0  0  0  0
  5  9  1  0  0  0  0
  6  5  1  0  0  0  0
  8  6  2  0  0  0  0
  9  3  1  0  0  0  0
 10  6  1  0  0  0  0
 12  1  1  0  0  0  0
 13  1  1  0  0  0  0
 14  2  1  0  0  0  0
 19  4  1  0  0  0  0
 20  4  1  0  0  0  0
M  END
>  <HBA>
4

>  <HBD>
0

>  <TPSA>
52.6

>  <cid>
7268

>  <dipole>
0.01

>  <excitation_energy_1>
4.117

>  <excitation_energy_2>
5.582

>  <excitation_energy_3>
6.156

>  <excitation_energy_4>
6.38

>  <homo_energy>
-7.187

>  <homo_lumo_gap>
5.679

>  <logP>
0.113

>  <lumo_energy>
-1.508

>  <melting_point>
-1.68

>  <molecular_refractivity>
33.53

>  <oscillator_strength_1>
0.0002

>  <oscillator_strength_2>
0.0

>  <oscillator_strength_3>
0.0

>  <oscillator_strength_4>
0.1414

>  <open_babel_can_smiles>
CCOC(=O)C(=O)OCC

>  <mulliken_charges>
20
1   -0.464816
2   -0.46497
3   -0.049395
4   -0.049241
5   0.573482
6   0.573462
7   -0.457598
8   -0.457655
9   -0.435825
10   -0.435802
11   0.154872
12   0.177811
13   0.165261
14   0.154895
15   0.165117
16   0.178007
17   0.173423
18   0.162804
19   0.162875
20   0.173293

>  <lowdin_charges>
20
1   -0.458088
2   -0.458158
3   -0.12881
4   -0.128771
5   0.164927
6   0.164983
7   -0.232658
8   -0.232706
9   -0.158688
10   -0.158693
11   0.162803
12   0.167556
13   0.161683
14   0.162825
15   0.161602
16   0.167646
17   0.161769
18   0.159506
19   0.159561
20   0.16171

$$$$

