PCCDB-ID:  33094
public computational chemistry database (PCCDB) project, http://pccdb.org

 21 21  0  0  0  0  0  0  0  0999 V2000
    0.9348   -0.3871   -0.3836 C   0  0  0  0  0  0  0  0  0  0  0  0
    2.5235    4.5797    0.3063 C   0  0  0  0  0  0  0  0  0  0  0  0
    4.5901   -1.4203   -0.1284 C   0  0  0  0  0  0  0  0  0  0  0  0
    5.2510   -0.2070    0.0623 C   0  0  0  0  0  0  0  0  0  0  0  0
    3.2035   -1.4409   -0.2669 C   0  0  0  0  0  0  0  0  0  0  0  0
    4.5117    0.9696    0.1120 C   0  0  0  0  0  0  0  0  0  0  0  0
    2.4324   -0.2715   -0.2219 C   0  0  0  0  0  0  0  0  0  0  0  0
    3.1131    0.9565   -0.0276 C   0  0  0  0  0  0  0  0  0  0  0  0
    2.3632    2.2442    0.0329 C   0  0  0  0  0  0  0  0  0  0  0  0
    1.1588    2.3744   -0.0848 O   0  0  0  0  0  0  0  0  0  0  0  0
    3.1818    3.3077    0.2397 O   0  0  0  0  0  0  0  0  0  0  0  0
    0.6524   -1.4369   -0.5119 H   0  0  0  0  0  0  0  0  0  0  0  0
    0.5769    0.1816   -1.2470 H   0  0  0  0  0  0  0  0  0  0  0  0
    0.4015    0.0184    0.4812 H   0  0  0  0  0  0  0  0  0  0  0  0
    3.3161    5.3095    0.4759 H   0  0  0  0  0  0  0  0  0  0  0  0
    1.8017    4.5986    1.1274 H   0  0  0  0  0  0  0  0  0  0  0  0
    1.9988    4.7928   -0.6290 H   0  0  0  0  0  0  0  0  0  0  0  0
    5.1509   -2.3504   -0.1710 H   0  0  0  0  0  0  0  0  0  0  0  0
    6.3313   -0.1763    0.1711 H   0  0  0  0  0  0  0  0  0  0  0  0
    2.6964   -2.3912   -0.4141 H   0  0  0  0  0  0  0  0  0  0  0  0
    5.0119    1.9190    0.2599 H   0  0  0  0  0  0  0  0  0  0  0  0
  1  7  1  0  0  0  0
  1 14  1  0  0  0  0
  2 15  1  0  0  0  0
  2 16  1  0  0  0  0
  3  4  2  0  0  0  0
  4  6  1  0  0  0  0
  4 19  1  0  0  0  0
  5  7  2  0  0  0  0
  5  3  1  0  0  0  0
  6 21  1  0  0  0  0
  7  8  1  0  0  0  0
  8  9  1  0  0  0  0
  8  6  2  0  0  0  0
  9 11  1  0  0  0  0
 10  9  2  0  0  0  0
 11  2  1  0  0  0  0
 12  1  1  0  0  0  0
 13  1  1  0  0  0  0
 17  2  1  0  0  0  0
 18  3  1  0  0  0  0
 20  5  1  0  0  0  0
M  END
>  <HBA>
2

>  <HBD>
0

>  <TPSA>
26.3

>  <cid>
33094

>  <dipole>
1.5

>  <excitation_energy_1>
4.751

>  <excitation_energy_2>
4.783

>  <excitation_energy_3>
5.343

>  <excitation_energy_4>
6.285

>  <homo_energy>
-6.7

>  <homo_lumo_gap>
5.559

>  <logP>
1.782

>  <lumo_energy>
-1.14

>  <melting_point>
34.1

>  <molecular_refractivity>
42.69

>  <oscillator_strength_1>
0.0412

>  <oscillator_strength_2>
0.0002

>  <oscillator_strength_3>
0.2184

>  <oscillator_strength_4>
0.0054

>  <open_babel_can_smiles>
COC(=O)c1ccccc1C

>  <mulliken_charges>
21
1   -0.501896
2   -0.213257
3   -0.110724
4   -0.138094
5   -0.193647
6   -0.160362
7   0.137622
8   0.005975
9   0.592295
10   -0.498652
11   -0.469951
12   0.138834
13   0.177204
14   0.177065
15   0.161986
16   0.169545
17   0.16943
18   0.134973
19   0.133749
20   0.129205
21   0.158698

>  <lowdin_charges>
21
1   -0.44003
2   -0.278326
3   -0.139116
4   -0.161791
5   -0.169331
6   -0.138051
7   0.029926
8   -0.056268
9   0.194472
10   -0.266818
11   -0.194526
12   0.147136
13   0.172287
14   0.172255
15   0.159907
16   0.159445
17   0.159071
18   0.160772
19   0.157981
20   0.157771
21   0.173236

$$$$

