PCCDB-ID:  14297
public computational chemistry database (PCCDB) project, http://pccdb.org

 18 18  0  0  1  0  0  0  0  0999 V2000
   -0.0236    1.2755    0.5480 C   0  0  0  0  0  0  0  0  0  0  0  0
   -1.0179    0.8082   -0.5429 C   0  0  0  0  0  0  0  0  0  0  0  0
    0.7653   -0.0607    0.3535 C   0  0  2  0  0  0  0  0  0  0  0  0
   -0.4795   -0.6490   -0.3563 C   0  0  2  0  0  0  0  0  0  0  0  0
    1.2021   -0.7713    1.6208 C   0  0  0  0  0  0  0  0  0  0  0  0
   -0.2103   -1.4306   -1.6281 C   0  0  0  0  0  0  0  0  0  0  0  0
    0.4298   -1.3179    2.3718 O   0  0  0  0  0  0  0  0  0  0  0  0
    2.5266   -0.7311    1.9154 O   0  0  0  0  0  0  0  0  0  0  0  0
    0.7402   -1.2262   -2.3448 O   0  0  0  0  0  0  0  0  0  0  0  0
   -1.1354   -2.3630   -1.9721 O   0  0  0  0  0  0  0  0  0  0  0  0
   -0.4885    1.3154    1.5370 H   0  0  0  0  0  0  0  0  0  0  0  0
    0.5268    2.2029    0.3692 H   0  0  0  0  0  0  0  0  0  0  0  0
   -0.7591    1.2000   -1.5306 H   0  0  0  0  0  0  0  0  0  0  0  0
   -2.0837    0.9668   -0.3590 H   0  0  0  0  0  0  0  0  0  0  0  0
    1.5758    0.0544   -0.3734 H   0  0  0  0  0  0  0  0  0  0  0  0
   -1.0825   -1.2077    0.3670 H   0  0  0  0  0  0  0  0  0  0  0  0
    3.0132   -0.2872    1.2014 H   0  0  0  0  0  0  0  0  0  0  0  0
   -1.8140   -2.4301   -1.2802 H   0  0  0  0  0  0  0  0  0  0  0  0
  1 11  1  0  0  0  0
  2 14  1  0  0  0  0
  2  4  1  0  0  0  0
  2  1  1  0  0  0  0
  3 15  1  6  0  0  0
  3  1  1  0  0  0  0
  3  5  1  0  0  0  0
  4  3  1  0  0  0  0
  4 16  1  1  0  0  0
  5  8  1  0  0  0  0
  5  7  2  0  0  0  0
  6  4  1  0  0  0  0
  9  6  2  0  0  0  0
 10  6  1  0  0  0  0
 10 18  1  0  0  0  0
 12  1  1  0  0  0  0
 13  2  1  0  0  0  0
 17  8  1  0  0  0  0
M  END
>  <HBA>
4

>  <HBD>
2

>  <TPSA>
74.6

>  <cid>
14297

>  <dipole>
3.12

>  <excitation_energy_1>
5.544

>  <excitation_energy_2>
5.557

>  <excitation_energy_3>
6.467

>  <excitation_energy_4>
6.487

>  <homo_energy>
-7.491

>  <homo_lumo_gap>
7.29

>  <logP>
0.182

>  <lumo_energy>
-0.201

>  <melting_point>
150.33

>  <molecular_refractivity>
32.39

>  <oscillator_strength_1>
0.0005

>  <oscillator_strength_2>
0.0013

>  <oscillator_strength_3>
0.0006

>  <oscillator_strength_4>
0.0048

>  <open_babel_can_smiles>
OC(=O)[C@@H]1CC[C@H]1C(=O)O

>  <mulliken_charges>
18
1   -0.283181
2   -0.284221
3   -0.22017
4   -0.22362
5   0.610313
6   0.610997
7   -0.4501
8   -0.563501
9   -0.449279
10   -0.563517
11   0.17214
12   0.156907
13   0.170922
14   0.156711
15   0.164737
16   0.166837
17   0.41409
18   0.413935

>  <lowdin_charges>
18
1   -0.268616
2   -0.267381
3   -0.172858
4   -0.173192
5   0.196961
6   0.193492
7   -0.249404
8   -0.350162
9   -0.247573
10   -0.348138
11   0.162581
12   0.153865
13   0.161832
14   0.152061
15   0.165279
16   0.166938
17   0.362443
18   0.361871

$$$$

