PCCDB-ID:  26490
public computational chemistry database (PCCDB) project, http://pccdb.org

 36 36  0  0  1  0  0  0  0  0999 V2000
    0.8395   -1.3494   -0.8948 C   0  0  0  0  0  0  0  0  0  0  0  0
    4.3995   -2.1203    0.4945 C   0  0  0  0  0  0  0  0  0  0  0  0
    5.1877    1.8754    2.2502 C   0  0  0  0  0  0  0  0  0  0  0  0
    2.9880   -2.4072   -0.0312 C   0  0  0  0  0  0  0  0  0  0  0  0
    5.2089    3.1282    3.1305 C   0  0  0  0  0  0  0  0  0  0  0  0
    4.3683   -1.0547    1.5945 C   0  0  0  0  0  0  0  0  0  0  0  0
    3.7897    1.2612    2.1001 C   0  0  0  0  0  0  0  0  0  0  0  0
    2.3538   -0.0869    0.6930 C   0  0  0  0  0  0  0  0  0  0  0  0
    2.2868   -1.1069   -0.4537 C   0  0  2  0  0  0  0  0  0  0  0  0
    4.6159    3.8577    5.4011 C   0  0  0  0  0  0  0  0  0  0  0  0
    4.5876    5.0763    4.9990 N   0  0  0  0  0  0  0  0  0  0  0  0
    4.4633    3.3886    6.7200 N   0  0  0  0  0  0  0  0  0  0  0  0
    4.8411    2.8151    4.5105 N   0  0  0  0  0  0  0  0  0  0  0  0
    3.7308    0.1743    1.1188 N   0  0  0  0  0  0  0  0  0  0  0  0
    0.7956   -2.0630   -1.7260 H   0  0  0  0  0  0  0  0  0  0  0  0
    0.3597   -0.4206   -1.2266 H   0  0  0  0  0  0  0  0  0  0  0  0
    0.2392   -1.7603   -0.0727 H   0  0  0  0  0  0  0  0  0  0  0  0
    5.0333   -1.7592   -0.3260 H   0  0  0  0  0  0  0  0  0  0  0  0
    4.8618   -3.0357    0.8848 H   0  0  0  0  0  0  0  0  0  0  0  0
    5.8978    1.1389    2.6526 H   0  0  0  0  0  0  0  0  0  0  0  0
    5.5588    2.1433    1.2536 H   0  0  0  0  0  0  0  0  0  0  0  0
    2.3951   -2.8907    0.7608 H   0  0  0  0  0  0  0  0  0  0  0  0
    3.0226   -3.1134   -0.8714 H   0  0  0  0  0  0  0  0  0  0  0  0
    4.4940    3.8722    2.7686 H   0  0  0  0  0  0  0  0  0  0  0  0
    6.1996    3.6056    3.0814 H   0  0  0  0  0  0  0  0  0  0  0  0
    5.3906   -0.8248    1.9108 H   0  0  0  0  0  0  0  0  0  0  0  0
    3.8387   -1.4602    2.4847 H   0  0  0  0  0  0  0  0  0  0  0  0
    3.1121    2.0511    1.7527 H   0  0  0  0  0  0  0  0  0  0  0  0
    3.4101    0.9408    3.0894 H   0  0  0  0  0  0  0  0  0  0  0  0
    1.7310   -0.4549    1.5380 H   0  0  0  0  0  0  0  0  0  0  0  0
    1.9121    0.8624    0.3655 H   0  0  0  0  0  0  0  0  0  0  0  0
    2.8459   -0.6780   -1.2979 H   0  0  0  0  0  0  0  0  0  0  0  0
    4.2991    5.7012    5.7541 H   0  0  0  0  0  0  0  0  0  0  0  0
    4.1180    4.0954    7.3583 H   0  0  0  0  0  0  0  0  0  0  0  0
    3.9114    2.5389    6.7866 H   0  0  0  0  0  0  0  0  0  0  0  0
    5.3812    2.0584    4.9171 H   0  0  0  0  0  0  0  0  0  0  0  0
  1  9  1  0  0  0  0
  1 17  1  0  0  0  0
  2 19  1  0  0  0  0
  2  6  1  0  0  0  0
  3 20  1  0  0  0  0
  3  5  1  0  0  0  0
  4  2  1  0  0  0  0
  4 22  1  0  0  0  0
  5 13  1  0  0  0  0
  6 26  1  0  0  0  0
  6 27  1  0  0  0  0
  7  3  1  0  0  0  0
  7 29  1  0  0  0  0
  8 14  1  0  0  0  0
  8 30  1  0  0  0  0
  9 32  1  6  0  0  0
  9  4  1  0  0  0  0
  9  8  1  0  0  0  0
 10 12  2  0  0  0  0
 11 10  1  0  0  0  0
 11 33  1  0  0  0  0
 12 35  1  0  0  0  0
 12 34  1  0  0  0  0
 13 36  1  0  0  0  0
 13 10  1  0  0  0  0
 14  6  1  0  0  0  0
 14  7  1  0  0  0  0
 15  1  1  0  0  0  0
 16  1  1  0  0  0  0
 18  2  1  0  0  0  0
 21  3  1  0  0  0  0
 23  4  1  0  0  0  0
 24  5  1  0  0  0  0
 25  5  1  0  0  0  0
 28  7  1  0  0  0  0
 31  8  1  0  0  0  0
M  RAD  1  11   2
M  END
>  <HBA>
4

>  <HBD>
2

>  <TPSA>
67.64

>  <cid>
26490

>  <dipole>
2.93

>  <excitation_energy_1>
5.006

>  <excitation_energy_2>
5.278

>  <excitation_energy_3>
5.34

>  <excitation_energy_4>
5.513

>  <homo_energy>
-5.567

>  <homo_lumo_gap>
7.143

>  <logP>
1.72

>  <lumo_energy>
1.576

>  <melting_point>
122.36

>  <molecular_refractivity>
63.98

>  <oscillator_strength_1>
0.0169

>  <oscillator_strength_2>
0.005

>  <oscillator_strength_3>
0.006

>  <oscillator_strength_4>
0.0084

>  <open_babel_can_smiles>
C[C@@H]1CCCN(C1)CCCNC(=[NH2])[NH]

>  <mulliken_charges>
36
1   -0.449342
2   -0.263448
3   -0.293151
4   -0.260489
5   -0.109451
6   -0.121143
7   -0.096102
8   -0.110042
9   -0.077264
10   0.583844
11   -0.643822
12   -0.756597
13   -0.600172
14   -0.400679
15   0.142113
16   0.140755
17   0.139588
18   0.139742
19   0.12815
20   0.126025
21   0.151293
22   0.123141
23   0.129587
24   0.175248
25   0.14218
26   0.136494
27   0.099378
28   0.133536
29   0.115953
30   0.098567
31   0.132807
32   0.129588
33   0.262491
34   0.317217
35   0.320597
36   0.313407

>  <lowdin_charges>
36
1   -0.445597
2   -0.281943
3   -0.288274
4   -0.280907
5   -0.189685
6   -0.201525
7   -0.199588
8   -0.202162
9   -0.130531
10   0.12073
11   -0.477706
12   -0.517227
13   -0.312744
14   -0.191104
15   0.150328
16   0.148616
17   0.146758
18   0.146145
19   0.144729
20   0.136686
21   0.154536
22   0.137047
23   0.143168
24   0.165358
25   0.139237
26   0.143261
27   0.110191
28   0.145556
29   0.119773
30   0.11152
31   0.143222
32   0.141647
33   0.246248
34   0.275457
35   0.276877
36   0.271901

$$$$

