PCCDB-ID:  13661
public computational chemistry database (PCCDB) project, http://pccdb.org

 20 20  0  0  0  0  0  0  0  0999 V2000
    0.8302   -0.1463    0.0787 C   0  0  0  0  0  0  0  0  0  0  0  0
    3.0278   -1.3553   -0.2766 C   0  0  0  0  0  0  0  0  0  0  0  0
    3.0456    1.0538   -0.1460 C   0  0  0  0  0  0  0  0  0  0  0  0
    4.4069   -1.3666   -0.4739 C   0  0  0  0  0  0  0  0  0  0  0  0
    4.4232    1.0668   -0.3420 C   0  0  0  0  0  0  0  0  0  0  0  0
    2.3278   -0.1520   -0.1100 C   0  0  0  0  0  0  0  0  0  0  0  0
    5.0889   -0.1503   -0.5004 C   0  0  0  0  0  0  0  0  0  0  0  0
    9.6896   -0.2703    1.3248 N   0  0  0  0  0  0  0  0  0  0  0  0
    8.5792   -0.2518    1.0810 N   0  0  0  0  0  0  0  0  0  0  0  0
    7.3425   -0.2378    0.9351 N   0  0  0  0  0  0  0  0  0  0  0  0
    7.2549   -1.3914   -1.4209 O   0  0  0  0  0  0  0  0  0  0  0  0
    7.2709    1.1502   -1.2914 O   0  0  0  0  0  0  0  0  0  0  0  0
    6.8476   -0.1480   -0.7667 S   0  0  0  0  0  0  0  0  0  0  0  0
    0.4609   -1.1280    0.3898 H   0  0  0  0  0  0  0  0  0  0  0  0
    0.3192    0.1182   -0.8562 H   0  0  0  0  0  0  0  0  0  0  0  0
    0.5256    0.5879    0.8323 H   0  0  0  0  0  0  0  0  0  0  0  0
    2.4861   -2.2971   -0.2536 H   0  0  0  0  0  0  0  0  0  0  0  0
    2.5172    1.9955   -0.0209 H   0  0  0  0  0  0  0  0  0  0  0  0
    4.9462   -2.2974   -0.6121 H   0  0  0  0  0  0  0  0  0  0  0  0
    4.9763    1.9990   -0.3796 H   0  0  0  0  0  0  0  0  0  0  0  0
  1 14  1  0  0  0  0
  1 16  1  0  0  0  0
  2 17  1  0  0  0  0
  2  6  2  0  0  0  0
  3  6  1  0  0  0  0
  3 18  1  0  0  0  0
  4  2  1  0  0  0  0
  5  3  2  0  0  0  0
  6  1  1  0  0  0  0
  7  4  2  0  0  0  0
  7  5  1  0  0  0  0
  9  8  2  0  0  0  0
 10  9  2  0  0  0  0
 11 13  2  0  0  0  0
 12 13  2  0  0  0  0
 13  7  1  0  0  0  0
 13 10  1  0  0  0  0
 15  1  1  0  0  0  0
 19  4  1  0  0  0  0
 20  5  1  0  0  0  0
M  RAD  1   8   2
M  END
>  <HBA>
3

>  <HBD>
0

>  <TPSA>
92.27

>  <cid>
13661

>  <dipole>
5.58

>  <excitation_energy_1>
4.223

>  <excitation_energy_2>
4.828

>  <excitation_energy_3>
4.88

>  <excitation_energy_4>
5.345

>  <homo_energy>
-7.513

>  <homo_lumo_gap>
5.559

>  <logP>
2.528

>  <lumo_energy>
-1.954

>  <melting_point>
89.23

>  <molecular_refractivity>
44.52

>  <oscillator_strength_1>
0.0003

>  <oscillator_strength_2>
0.0329

>  <oscillator_strength_3>
0.008

>  <oscillator_strength_4>
0.0014

>  <open_babel_can_smiles>
Cc1ccc(cc1)S(=O)(=O)N=[N]=[N]

>  <mulliken_charges>
20
1   -0.532431
2   -0.176945
3   -0.173279
4   -0.124289
5   -0.12503
6   0.184035
7   -0.172685
8   -0.210455
9   0.434778
10   -0.503093
11   -0.496412
12   -0.496498
13   1.219541
14   0.165883
15   0.178686
16   0.170103
17   0.144137
18   0.14403
19   0.185052
20   0.184872

>  <lowdin_charges>
20
1   -0.443142
2   -0.159109
3   -0.157327
4   -0.125585
5   -0.125915
6   0.02725
7   -0.187799
8   -0.044615
9   0.193522
10   -0.373414
11   -0.559639
12   -0.559503
13   1.309235
14   0.162901
15   0.170655
16   0.166892
17   0.165867
18   0.16595
19   0.186983
20   0.18679

$$$$

