PCCDB-ID:  11647
public computational chemistry database (PCCDB) project, http://pccdb.org

  8  7  0  0  0  0  0  0  0  0999 V2000
    0.9246    0.0552   -0.0012 C   0  0  0  0  0  0  0  0  0  0  0  0
    2.3779    0.1147   -0.1435 N   0  0  0  0  0  0  0  0  0  0  0  0
    2.7491   -0.8961   -1.1126 O   0  0  0  0  0  0  0  0  0  0  0  0
    0.6441    0.7027    0.8380 H   0  0  0  0  0  0  0  0  0  0  0  0
    0.5424   -0.9603    0.1806 H   0  0  0  0  0  0  0  0  0  0  0  0
    0.4602    0.4452   -0.9118 H   0  0  0  0  0  0  0  0  0  0  0  0
    2.7924   -0.2435    0.7185 H   0  0  0  0  0  0  0  0  0  0  0  0
    3.2071   -0.3710   -1.7876 H   0  0  0  0  0  0  0  0  0  0  0  0
  1  5  1  0  0  0  0
  1  4  1  0  0  0  0
  2  1  1  0  0  0  0
  2  7  1  0  0  0  0
  3  2  1  0  0  0  0
  6  1  1  0  0  0  0
  8  3  1  0  0  0  0
M  END
>  <HBA>
2

>  <HBD>
2

>  <TPSA>
32.26

>  <cid>
11647

>  <dipole>
0.63

>  <excitation_energy_1>
5.96

>  <excitation_energy_2>
6.702

>  <excitation_energy_3>
6.872

>  <excitation_energy_4>
7.217

>  <homo_energy>
-6.457

>  <homo_lumo_gap>
8.694

>  <logP>
-0.014

>  <lumo_energy>
2.237

>  <melting_point>
57.84

>  <molecular_refractivity>
10.45

>  <oscillator_strength_1>
0.0009

>  <oscillator_strength_2>
0.0147

>  <oscillator_strength_3>
0.0298

>  <oscillator_strength_4>
0.0149

>  <open_babel_can_smiles>
CNO

>  <mulliken_charges>
8
1   -0.286648
2   -0.344804
3   -0.538691
4   0.14555
5   0.143657
6   0.158013
7   0.314729
8   0.408194

>  <lowdin_charges>
8
1   -0.368731
2   -0.242338
3   -0.437025
4   0.152752
5   0.136524
6   0.153496
7   0.255047
8   0.350276

$$$$

