PCCDB-ID:  27703
public computational chemistry database (PCCDB) project, http://pccdb.org

 34 35  0  0  0  0  0  0  0  0999 V2000
    1.3214    0.6335    0.6929 C   0  0  0  0  0  0  0  0  0  0  0  0
    3.3969    0.9277    2.0962 C   0  0  0  0  0  0  0  0  0  0  0  0
    2.3771   -4.6626    1.0327 C   0  0  0  0  0  0  0  0  0  0  0  0
    7.0961   -1.0697   -1.4432 C   0  0  0  0  0  0  0  0  0  0  0  0
    6.6257    0.2222   -1.2279 C   0  0  0  0  0  0  0  0  0  0  0  0
    6.2848   -2.1615   -1.1222 C   0  0  0  0  0  0  0  0  0  0  0  0
    4.8340    1.8593   -0.4511 C   0  0  0  0  0  0  0  0  0  0  0  0
    3.3098    1.8512   -0.2882 C   0  0  0  0  0  0  0  0  0  0  0  0
    5.3568    0.4579   -0.6822 C   0  0  0  0  0  0  0  0  0  0  0  0
    5.0258   -1.9433   -0.5853 C   0  0  0  0  0  0  0  0  0  0  0  0
    4.5505   -0.6409   -0.3494 C   0  0  0  0  0  0  0  0  0  0  0  0
    3.0730   -3.3150   -0.7633 C   0  0  0  0  0  0  0  0  0  0  0  0
    2.8451    0.7469    0.6753 C   0  0  0  0  0  0  0  0  0  0  0  0
    2.1864   -4.0747   -0.2822 N   0  0  0  0  0  0  0  0  0  0  0  0
    2.9335   -2.7280   -1.9731 O   0  0  0  0  0  0  0  0  0  0  0  0
    4.2715   -3.0426   -0.1794 O   0  0  0  0  0  0  0  0  0  0  0  0
    3.2954   -0.5432    0.1739 O   0  0  0  0  0  0  0  0  0  0  0  0
    0.8747    1.5405    1.1144 H   0  0  0  0  0  0  0  0  0  0  0  0
    1.0117   -0.2222    1.3010 H   0  0  0  0  0  0  0  0  0  0  0  0
    0.9343    0.4910   -0.3210 H   0  0  0  0  0  0  0  0  0  0  0  0
    3.0857    1.8934    2.5107 H   0  0  0  0  0  0  0  0  0  0  0  0
    4.4899    0.8829    2.1122 H   0  0  0  0  0  0  0  0  0  0  0  0
    3.0192    0.1333    2.7474 H   0  0  0  0  0  0  0  0  0  0  0  0
    1.4145   -4.6801    1.5560 H   0  0  0  0  0  0  0  0  0  0  0  0
    3.1061   -4.1275    1.6545 H   0  0  0  0  0  0  0  0  0  0  0  0
    2.7116   -5.7045    0.9372 H   0  0  0  0  0  0  0  0  0  0  0  0
    8.0824   -1.2322   -1.8670 H   0  0  0  0  0  0  0  0  0  0  0  0
    7.2472    1.0764   -1.4879 H   0  0  0  0  0  0  0  0  0  0  0  0
    6.6143   -3.1838   -1.2776 H   0  0  0  0  0  0  0  0  0  0  0  0
    5.3062    2.2969    0.4400 H   0  0  0  0  0  0  0  0  0  0  0  0
    5.1182    2.5064   -1.2897 H   0  0  0  0  0  0  0  0  0  0  0  0
    2.8380    1.6713   -1.2623 H   0  0  0  0  0  0  0  0  0  0  0  0
    2.9513    2.8230    0.0704 H   0  0  0  0  0  0  0  0  0  0  0  0
    2.0447   -2.9886   -2.2715 H   0  0  0  0  0  0  0  0  0  0  0  0
  1 18  1  0  0  0  0
  1 19  1  0  0  0  0
  2 22  1  0  0  0  0
  2 21  1  0  0  0  0
  2 23  1  0  0  0  0
  3 24  1  0  0  0  0
  3 25  1  0  0  0  0
  4  5  2  0  0  0  0
  4  6  1  0  0  0  0
  5  9  1  0  0  0  0
  6 10  2  0  0  0  0
  7  8  1  0  0  0  0
  7 30  1  0  0  0  0
  8 33  1  0  0  0  0
  8 13  1  0  0  0  0
  9  7  1  0  0  0  0
  9 11  2  0  0  0  0
 10 11  1  0  0  0  0
 10 16  1  0  0  0  0
 11 17  1  0  0  0  0
 12 14  2  0  0  0  0
 12 16  1  0  0  0  0
 13  1  1  0  0  0  0
 13  2  1  0  0  0  0
 14  3  1  0  0  0  0
 15 12  1  0  0  0  0
 17 13  1  0  0  0  0
 20  1  1  0  0  0  0
 26  3  1  0  0  0  0
 27  4  1  0  0  0  0
 28  5  1  0  0  0  0
 29  6  1  0  0  0  0
 31  7  1  0  0  0  0
 32  8  1  0  0  0  0
 34 15  1  0  0  0  0
M  END
>  <HBA>
4

>  <HBD>
1

>  <TPSA>
47.56

>  <cid>
27703

>  <dipole>
3.03

>  <excitation_energy_1>
4.861

>  <excitation_energy_2>
5.316

>  <excitation_energy_3>
5.498

>  <excitation_energy_4>
5.649

>  <homo_energy>
-5.766

>  <homo_lumo_gap>
5.782

>  <logP>
2.899

>  <lumo_energy>
0.016

>  <melting_point>
109.22

>  <molecular_refractivity>
64.93

>  <oscillator_strength_1>
0.0587

>  <oscillator_strength_2>
0.0057

>  <oscillator_strength_3>
0.0227

>  <oscillator_strength_4>
0.01

>  <open_babel_can_smiles>
C/N=C(\Oc1cccc2c1OC(C)(C)CC2)/O

>  <mulliken_charges>
34
1   -0.455696
2   -0.456221
3   -0.31939
4   -0.145372
5   -0.191556
6   -0.170925
7   -0.35731
8   -0.283039
9   0.125252
10   0.294296
11   0.33103
12   0.725116
13   0.304818
14   -0.487791
15   -0.593345
16   -0.537871
17   -0.56633
18   0.143137
19   0.16235
20   0.154731
21   0.14325
22   0.159689
23   0.159799
24   0.147934
25   0.151305
26   0.149785
27   0.128807
28   0.12153
29   0.139779
30   0.156727
31   0.154498
32   0.152148
33   0.138868
34   0.419998

>  <lowdin_charges>
34
1   -0.443933
2   -0.452739
3   -0.352655
4   -0.16951
5   -0.163813
6   -0.165192
7   -0.27679
8   -0.285636
9   -0.047995
10   0.075742
11   0.078964
12   0.196555
13   0.135017
14   -0.266851
15   -0.360718
16   -0.155246
17   -0.202228
18   0.154216
19   0.162485
20   0.156912
21   0.153618
22   0.15769
23   0.161806
24   0.1485
25   0.144828
26   0.147125
27   0.158359
28   0.156182
29   0.167846
30   0.153397
31   0.158855
32   0.153129
33   0.152314
34   0.369766

$$$$

