PCCDB-ID:  18092
public computational chemistry database (PCCDB) project, http://pccdb.org

 24 25  0  0  0  0  0  0  0  0999 V2000
    2.4372    1.2847   -1.1608 C   0  0  0  0  0  0  0  0  0  0  0  0
    2.6544   -0.1111   -1.2004 C   0  0  0  0  0  0  0  0  0  0  0  0
   -1.8709    0.5700    0.9858 C   0  0  0  0  0  0  0  0  0  0  0  0
    1.2749    1.7772   -0.6149 C   0  0  0  0  0  0  0  0  0  0  0  0
   -0.9095    1.4150    0.4783 C   0  0  0  0  0  0  0  0  0  0  0  0
   -1.6857   -0.8234    0.9317 C   0  0  0  0  0  0  0  0  0  0  0  0
    1.7110   -0.9856   -0.7039 C   0  0  0  0  0  0  0  0  0  0  0  0
   -0.3876   -2.8266    0.2520 C   0  0  0  0  0  0  0  0  0  0  0  0
   -1.7405   -3.6421    2.1711 C   0  0  0  0  0  0  0  0  0  0  0  0
   -0.6697   -5.1957    0.6466 C   0  0  0  0  0  0  0  0  0  0  0  0
   -0.9307   -3.8309    1.0041 C   0  0  0  0  0  0  0  0  0  0  0  0
    0.2816    0.9027   -0.0984 C   0  0  0  0  0  0  0  0  0  0  0  0
   -0.5389   -1.3856    0.3749 C   0  0  0  0  0  0  0  0  0  0  0  0
    0.4889   -0.5159   -0.1532 C   0  0  0  0  0  0  0  0  0  0  0  0
   -2.3970   -3.5179    3.1238 N   0  0  0  0  0  0  0  0  0  0  0  0
   -0.4537   -6.3001    0.3507 N   0  0  0  0  0  0  0  0  0  0  0  0
    3.1908    1.9616   -1.5526 H   0  0  0  0  0  0  0  0  0  0  0  0
    3.5787   -0.5001   -1.6180 H   0  0  0  0  0  0  0  0  0  0  0  0
   -2.7826    0.9690    1.4196 H   0  0  0  0  0  0  0  0  0  0  0  0
    1.0979    2.8486   -0.5658 H   0  0  0  0  0  0  0  0  0  0  0  0
   -1.0502    2.4925    0.5117 H   0  0  0  0  0  0  0  0  0  0  0  0
   -2.4745   -1.4659    1.3039 H   0  0  0  0  0  0  0  0  0  0  0  0
    1.9283   -2.0480   -0.7220 H   0  0  0  0  0  0  0  0  0  0  0  0
    0.2433   -3.1743   -0.5604 H   0  0  0  0  0  0  0  0  0  0  0  0
  1  4  1  0  0  0  0
  2  1  2  0  0  0  0
  2  7  1  0  0  0  0
  3 19  1  0  0  0  0
  4 20  1  0  0  0  0
  4 12  2  0  0  0  0
  5 21  1  0  0  0  0
  5  3  2  0  0  0  0
  6  3  1  0  0  0  0
  6 22  1  0  0  0  0
  7 14  2  0  0  0  0
  8 13  1  0  0  0  0
  8 11  2  0  0  0  0
  9 15  3  0  0  0  0
 10 11  1  0  0  0  0
 11  9  1  0  0  0  0
 12  5  1  0  0  0  0
 13  6  2  0  0  0  0
 14 12  1  0  0  0  0
 14 13  1  0  0  0  0
 16 10  3  0  0  0  0
 17  1  1  0  0  0  0
 18  2  1  0  0  0  0
 23  7  1  0  0  0  0
 24  8  1  0  0  0  0
M  END
>  <HBA>
2

>  <HBD>
0

>  <TPSA>
47.58

>  <cid>
18092

>  <dipole>
7.14

>  <excitation_energy_1>
3.167

>  <excitation_energy_2>
3.768

>  <excitation_energy_3>
4.339

>  <excitation_energy_4>
4.553

>  <homo_energy>
-6.455

>  <homo_lumo_gap>
3.554

>  <logP>
3.27

>  <lumo_energy>
-2.901

>  <melting_point>
142.07

>  <molecular_refractivity>
63.15

>  <oscillator_strength_1>
0.287

>  <oscillator_strength_2>
0.0298

>  <oscillator_strength_3>
0.2543

>  <oscillator_strength_4>
0.068

>  <open_babel_can_smiles>
N#CC(=Cc1cccc2c1cccc2)C#N

>  <mulliken_charges>
24
1   -0.129066
2   -0.131074
3   -0.136608
4   -0.189723
5   -0.175085
6   -0.183616
7   -0.193889
8   -0.170896
9   0.298162
10   0.284264
11   0.129401
12   0.128627
13   0.103194
14   0.082276
15   -0.480256
16   -0.462082
17   0.143013
18   0.144292
19   0.152277
20   0.141924
21   0.147311
22   0.172086
23   0.140306
24   0.185162

>  <lowdin_charges>
24
1   -0.153027
2   -0.142261
3   -0.15476
4   -0.14555
5   -0.125203
6   -0.130028
7   -0.161653
8   -0.074117
9   -0.00482
10   -0.007888
11   -0.046588
12   0.000742
13   -0.021794
14   0.006025
15   -0.097724
16   -0.099525
17   0.166506
18   0.165844
19   0.170289
20   0.161638
21   0.164398
22   0.182262
23   0.161287
24   0.185948

$$$$

