PCCDB-ID:  44105
public computational chemistry database (PCCDB) project, http://pccdb.org

 21 20  0  0  0  0  0  0  0  0999 V2000
    1.7143    2.3609   -0.9544 C   0  0  0  0  0  0  0  0  0  0  0  0
    2.2127    1.1516   -1.7288 C   0  0  0  0  0  0  0  0  0  0  0  0
    6.8410    0.3958   -0.4856 C   0  0  0  0  0  0  0  0  0  0  0  0
    7.5065   -0.7222   -1.2826 C   0  0  0  0  0  0  0  0  0  0  0  0
    4.4815    0.9068   -1.1228 C   0  0  0  0  0  0  0  0  0  0  0  0
    4.9016   -0.6781    0.6158 N   0  0  0  0  0  0  0  0  0  0  0  0
    5.3993    0.1828   -0.3254 N   0  0  0  0  0  0  0  0  0  0  0  0
    6.9398   -0.7251   -2.5849 O   0  0  0  0  0  0  0  0  0  0  0  0
    4.8298    1.8322   -1.8223 O   0  0  0  0  0  0  0  0  0  0  0  0
    5.7654   -1.2421    1.2644 O   0  0  0  0  0  0  0  0  0  0  0  0
    3.2387    0.4372   -0.9904 O   0  0  0  0  0  0  0  0  0  0  0  0
    0.8871    2.8310   -1.4984 H   0  0  0  0  0  0  0  0  0  0  0  0
    2.5110    3.1011   -0.8374 H   0  0  0  0  0  0  0  0  0  0  0  0
    1.3527    2.0669    0.0361 H   0  0  0  0  0  0  0  0  0  0  0  0
    2.6168    1.4361   -2.7028 H   0  0  0  0  0  0  0  0  0  0  0  0
    1.4260    0.4063   -1.8638 H   0  0  0  0  0  0  0  0  0  0  0  0
    6.9584    1.3492   -1.0001 H   0  0  0  0  0  0  0  0  0  0  0  0
    7.2822    0.4499    0.5130 H   0  0  0  0  0  0  0  0  0  0  0  0
    7.3543   -1.6807   -0.7698 H   0  0  0  0  0  0  0  0  0  0  0  0
    8.5897   -0.5190   -1.3079 H   0  0  0  0  0  0  0  0  0  0  0  0
    7.2470   -1.5205   -3.0443 H   0  0  0  0  0  0  0  0  0  0  0  0
  1 13  1  0  0  0  0
  1 14  1  0  0  0  0
  2 11  1  0  0  0  0
  2  1  1  0  0  0  0
  3  7  1  0  0  0  0
  3 18  1  0  0  0  0
  4 19  1  0  0  0  0
  4  3  1  0  0  0  0
  5 11  1  0  0  0  0
  5  7  1  0  0  0  0
  6 10  1  0  0  0  0
  7  6  1  0  0  0  0
  8  4  1  0  0  0  0
  9  5  2  0  0  0  0
 12  1  1  0  0  0  0
 15  2  1  0  0  0  0
 16  2  1  0  0  0  0
 17  3  1  0  0  0  0
 20  4  1  0  0  0  0
 21  8  1  0  0  0  0
M  RAD  2   6   2  10   2
M  END
>  <HBA>
6

>  <HBD>
1

>  <TPSA>
79.2

>  <cid>
44105

>  <dipole>
1.3

>  <excitation_energy_1>
2.99

>  <excitation_energy_2>
4.968

>  <excitation_energy_3>
5.191

>  <excitation_energy_4>
5.531

>  <homo_energy>
-6.574

>  <homo_lumo_gap>
4.806

>  <logP>
0.119

>  <lumo_energy>
-1.769

>  <melting_point>
37.18

>  <molecular_refractivity>
36.62

>  <oscillator_strength_1>
0.0011

>  <oscillator_strength_2>
0.0002

>  <oscillator_strength_3>
0.0031

>  <oscillator_strength_4>
0.1475

>  <open_babel_can_smiles>
OCCN(C(=O)OCC)[N][O]

>  <mulliken_charges>
21
1   -0.464951
2   -0.045978
3   -0.166813
4   -0.037325
5   0.841372
6   0.19769
7   -0.34399
8   -0.610591
9   -0.486907
10   -0.337441
11   -0.451194
12   0.154547
13   0.176689
14   0.165428
15   0.178119
16   0.162564
17   0.206696
18   0.178197
19   0.152604
20   0.132091
21   0.399191

>  <lowdin_charges>
21
1   -0.456354
2   -0.122204
3   -0.217258
4   -0.135661
5   0.220768
6   0.090381
7   -0.039727
8   -0.469691
9   -0.269117
10   -0.224416
11   -0.169564
12   0.162492
13   0.166396
14   0.159917
15   0.162327
16   0.158943
17   0.186766
18   0.170311
19   0.142463
20   0.133114
21   0.350116

$$$$

