PCCDB-ID:  7903
public computational chemistry database (PCCDB) project, http://pccdb.org

 13 12  0  0  0  0  0  0  0  0999 V2000
    0.9713   -0.1011    0.1110 C   0  0  0  0  0  0  0  0  0  0  0  0
    2.5024   -0.0716    0.0735 C   0  0  0  0  0  0  0  0  0  0  0  0
    3.0183    0.7066   -1.1407 C   0  0  0  0  0  0  0  0  0  0  0  0
    4.5236    0.7094   -1.1376 N   0  0  0  0  0  0  0  0  0  0  0  0
    5.0871   -0.2200   -1.7097 O   0  0  0  0  0  0  0  0  0  0  0  0
    5.0810    1.6141   -0.5216 O   0  0  0  0  0  0  0  0  0  0  0  0
    0.6208   -0.6596    0.9849 H   0  0  0  0  0  0  0  0  0  0  0  0
    0.5584   -0.5846   -0.7819 H   0  0  0  0  0  0  0  0  0  0  0  0
    0.5526    0.9102    0.1713 H   0  0  0  0  0  0  0  0  0  0  0  0
    2.9014   -1.0916    0.0306 H   0  0  0  0  0  0  0  0  0  0  0  0
    2.8964    0.3970    0.9827 H   0  0  0  0  0  0  0  0  0  0  0  0
    2.7117    1.7536   -1.1125 H   0  0  0  0  0  0  0  0  0  0  0  0
    2.7164    0.2406   -2.0801 H   0  0  0  0  0  0  0  0  0  0  0  0
  1  9  1  0  0  0  0
  1  7  1  0  0  0  0
  2  1  1  0  0  0  0
  2 11  1  0  0  0  0
  3  4  1  0  0  0  0
  3 12  1  0  0  0  0
  3  2  1  0  0  0  0
  4  6  2  0  0  0  0
  5  4  2  0  0  0  0
  8  1  1  0  0  0  0
 10  2  1  0  0  0  0
 13  3  1  0  0  0  0
M  END
>  <HBA>
0

>  <HBD>
0

>  <TPSA>
45.82

>  <cid>
7903

>  <dipole>
3.85

>  <excitation_energy_1>
4.086

>  <excitation_energy_2>
4.418

>  <excitation_energy_3>
6.646

>  <excitation_energy_4>
7.0

>  <homo_energy>
-7.872

>  <homo_lumo_gap>
6.106

>  <logP>
1.196

>  <lumo_energy>
-1.766

>  <melting_point>
6.19

>  <molecular_refractivity>
24.64

>  <oscillator_strength_1>
0.0

>  <oscillator_strength_2>
0.0007

>  <oscillator_strength_3>
0.0536

>  <oscillator_strength_4>
0.1019

>  <open_babel_can_smiles>
CCCN(=O)=O

>  <mulliken_charges>
13
1   -0.451115
2   -0.272041
3   -0.146337
4   0.445455
5   -0.378397
6   -0.378416
7   0.162999
8   0.154761
9   0.154753
10   0.170022
11   0.170225
12   0.184057
13   0.184036

>  <lowdin_charges>
13
1   -0.442791
2   -0.272985
3   -0.216315
4   0.29953
5   -0.248885
6   -0.249056
7   0.162706
8   0.153987
9   0.15276
10   0.158626
11   0.160023
12   0.170524
13   0.171876

$$$$

