PCCDB-ID:  20753
public computational chemistry database (PCCDB) project, http://pccdb.org

 21 22  0  0  0  0  0  0  0  0999 V2000
   -2.3951   -0.6758   -0.0121 C   0  0  0  0  0  0  0  0  0  0  0  0
   -2.3722    0.7241   -0.0237 C   0  0  0  0  0  0  0  0  0  0  0  0
   -1.2014   -1.3857   -0.0054 C   0  0  0  0  0  0  0  0  0  0  0  0
   -1.1628    1.4071   -0.0178 C   0  0  0  0  0  0  0  0  0  0  0  0
    2.5298   -0.6751   -0.1103 C   0  0  0  0  0  0  0  0  0  0  0  0
    2.4657    0.6754   -0.0988 C   0  0  0  0  0  0  0  0  0  0  0  0
    0.0397   -0.7294   -0.0038 C   0  0  0  0  0  0  0  0  0  0  0  0
    1.3184   -1.4714   -0.0174 C   0  0  0  0  0  0  0  0  0  0  0  0
    0.0409    0.6864   -0.0019 C   0  0  0  0  0  0  0  0  0  0  0  0
    1.2654   -2.7678    0.0346 N   0  0  0  0  0  0  0  0  0  0  0  0
    1.2726    1.3422    0.0459 N   0  0  0  0  0  0  0  0  0  0  0  0
    2.5662   -3.3286   -0.0056 O   0  0  0  0  0  0  0  0  0  0  0  0
    1.2978    2.7222   -0.1853 O   0  0  0  0  0  0  0  0  0  0  0  0
   -3.3424   -1.2070   -0.0151 H   0  0  0  0  0  0  0  0  0  0  0  0
   -3.3014    1.2869   -0.0425 H   0  0  0  0  0  0  0  0  0  0  0  0
   -1.1979   -2.4701   -0.0069 H   0  0  0  0  0  0  0  0  0  0  0  0
   -1.1332    2.4896   -0.0455 H   0  0  0  0  0  0  0  0  0  0  0  0
    3.4868   -1.1715   -0.1828 H   0  0  0  0  0  0  0  0  0  0  0  0
    3.3302    1.3239   -0.1747 H   0  0  0  0  0  0  0  0  0  0  0  0
    2.3697   -4.2761    0.0395 H   0  0  0  0  0  0  0  0  0  0  0  0
    1.2692    3.1212    0.7043 H   0  0  0  0  0  0  0  0  0  0  0  0
  1  3  2  0  0  0  0
  2  4  2  0  0  0  0
  2  1  1  0  0  0  0
  3  7  1  0  0  0  0
  4  9  1  0  0  0  0
  5  6  2  0  0  0  0
  5  8  1  0  0  0  0
  6 11  1  0  0  0  0
  7  9  2  0  0  0  0
  8  7  1  0  0  0  0
  8 10  2  0  0  0  0
  9 11  1  0  0  0  0
 12 10  1  0  0  0  0
 12 20  1  0  0  0  0
 13 11  1  0  0  0  0
 13 21  1  0  0  0  0
 14  1  1  0  0  0  0
 15  2  1  0  0  0  0
 16  3  1  0  0  0  0
 17  4  1  0  0  0  0
 18  5  1  0  0  0  0
 19  6  1  0  0  0  0
M  END
>  <HBA>
4

>  <HBD>
2

>  <TPSA>
57.75

>  <cid>
20753

>  <dipole>
2.77

>  <excitation_energy_1>
3.615

>  <excitation_energy_2>
3.909

>  <excitation_energy_3>
4.087

>  <excitation_energy_4>
4.868

>  <homo_energy>
-4.914

>  <homo_lumo_gap>
4.052

>  <logP>
1.169

>  <lumo_energy>
-0.863

>  <melting_point>
199.26

>  <molecular_refractivity>
46.83

>  <oscillator_strength_1>
0.1614

>  <oscillator_strength_2>
0.0184

>  <oscillator_strength_3>
0.0171

>  <oscillator_strength_4>
0.0174

>  <open_babel_can_smiles>
O/N=c/1\ccn(c2c1cccc2)O

>  <mulliken_charges>
21
1   -0.127772
2   -0.134344
3   -0.191911
4   -0.172158
5   -0.215772
6   0.079697
7   0.062952
8   0.326572
9   0.322471
10   -0.330948
11   -0.344144
12   -0.519786
13   -0.491337
14   0.131422
15   0.132689
16   0.160858
17   0.137491
18   0.165178
19   0.171607
20   0.41237
21   0.424867

>  <lowdin_charges>
21
1   -0.166547
2   -0.145844
3   -0.134721
4   -0.185982
5   -0.223943
6   -0.091271
7   -0.022953
8   0.01431
9   0.043072
10   -0.118241
11   0.047256
12   -0.390941
13   -0.35516
14   0.159938
15   0.160467
16   0.174093
17   0.163061
18   0.184319
19   0.178009
20   0.350709
21   0.36037

$$$$

