PCCDB-ID:  16823
public computational chemistry database (PCCDB) project, http://pccdb.org

 22 22  0  0  1  0  0  0  0  0999 V2000
   -1.2087   -0.5173    0.1053 C   0  0  0  0  0  0  0  0  0  0  0  0
   -0.1932   -1.3496   -0.1607 C   0  0  0  0  0  0  0  0  0  0  0  0
   -1.0589    0.9739    0.2722 C   0  0  0  0  0  0  0  0  0  0  0  0
    1.2310   -0.8786   -0.3347 C   0  0  0  0  0  0  0  0  0  0  0  0
    0.3262    1.5053   -0.1399 C   0  0  1  0  0  0  0  0  0  0  0  0
    1.4725    0.5219    0.2628 C   0  0  1  0  0  0  0  0  0  0  0  0
    0.3933    1.7735   -1.6482 C   0  0  0  0  0  0  0  0  0  0  0  0
    1.6439    0.5563    1.7902 C   0  0  0  0  0  0  0  0  0  0  0  0
   -0.4154    1.3838   -2.4518 O   0  0  0  0  0  0  0  0  0  0  0  0
    1.4763    2.4856   -2.0632 O   0  0  0  0  0  0  0  0  0  0  0  0
    2.3830    1.3463    2.3273 O   0  0  0  0  0  0  0  0  0  0  0  0
    0.9073   -0.3091    2.5222 O   0  0  0  0  0  0  0  0  0  0  0  0
   -2.2160   -0.9162    0.2102 H   0  0  0  0  0  0  0  0  0  0  0  0
   -0.3848   -2.4127   -0.2926 H   0  0  0  0  0  0  0  0  0  0  0  0
   -1.2583    1.2455    1.3184 H   0  0  0  0  0  0  0  0  0  0  0  0
   -1.8269    1.4761   -0.3261 H   0  0  0  0  0  0  0  0  0  0  0  0
    1.4756   -0.8585   -1.4064 H   0  0  0  0  0  0  0  0  0  0  0  0
    1.9295   -1.5973    0.1130 H   0  0  0  0  0  0  0  0  0  0  0  0
    0.5146    2.4588    0.3724 H   0  0  0  0  0  0  0  0  0  0  0  0
    2.4224    0.9122   -0.1140 H   0  0  0  0  0  0  0  0  0  0  0  0
    2.0066    2.7763   -1.3020 H   0  0  0  0  0  0  0  0  0  0  0  0
    0.3172   -0.8283    1.9389 H   0  0  0  0  0  0  0  0  0  0  0  0
  1 13  1  0  0  0  0
  1  3  1  0  0  0  0
  2  1  2  0  0  0  0
  3 15  1  0  0  0  0
  4  2  1  0  0  0  0
  4 18  1  0  0  0  0
  4  6  1  0  0  0  0
  5  6  1  0  0  0  0
  5  3  1  0  0  0  0
  5 19  1  1  0  0  0
  6 20  1  6  0  0  0
  6  8  1  0  0  0  0
  7  5  1  0  0  0  0
  8 11  2  0  0  0  0
  8 12  1  0  0  0  0
  9  7  2  0  0  0  0
 10  7  1  0  0  0  0
 10 21  1  0  0  0  0
 14  2  1  0  0  0  0
 16  3  1  0  0  0  0
 17  4  1  0  0  0  0
 22 12  1  0  0  0  0
M  END
>  <HBA>
4

>  <HBD>
2

>  <TPSA>
74.6

>  <cid>
16823

>  <dipole>
1.64

>  <excitation_energy_1>
5.422

>  <excitation_energy_2>
5.585

>  <excitation_energy_3>
5.927

>  <excitation_energy_4>
6.228

>  <homo_energy>
-7.372

>  <homo_lumo_gap>
6.963

>  <logP>
0.738

>  <lumo_energy>
-0.408

>  <melting_point>
158.79

>  <molecular_refractivity>
41.53

>  <oscillator_strength_1>
0.0058

>  <oscillator_strength_2>
0.0003

>  <oscillator_strength_3>
0.0025

>  <oscillator_strength_4>
0.0096

>  <open_babel_can_smiles>
OC(=O)[C@H]1CC=CC[C@@H]1C(=O)O

>  <mulliken_charges>
22
1   -0.084062
2   -0.156407
3   -0.327113
4   -0.32747
5   -0.230991
6   -0.220707
7   0.613382
8   0.598215
9   -0.435951
10   -0.569237
11   -0.455111
12   -0.574215
13   0.146603
14   0.146559
15   0.169286
16   0.187427
17   0.187555
18   0.16832
19   0.170774
20   0.160548
21   0.41901
22   0.413587

>  <lowdin_charges>
22
1   -0.155097
2   -0.189903
3   -0.281927
4   -0.288635
5   -0.166836
6   -0.164939
7   0.1949
8   0.187756
9   -0.231807
10   -0.354124
11   -0.249532
12   -0.355401
13   0.164348
14   0.162524
15   0.162323
16   0.178718
17   0.172012
18   0.163511
19   0.165943
20   0.164417
21   0.363441
22   0.358309

$$$$

