PCCDB-ID:  23050
public computational chemistry database (PCCDB) project, http://pccdb.org

 26 25  0  0  0  0  0  0  0  0999 V2000
    1.3710   -0.4442    0.7558 C   0  0  0  0  0  0  0  0  0  0  0  0
    2.3449    7.3725    0.6025 C   0  0  0  0  0  0  0  0  0  0  0  0
    2.7387    0.1957    0.4967 C   0  0  0  0  0  0  0  0  0  0  0  0
    3.7731    7.0642    0.1843 C   0  0  0  0  0  0  0  0  0  0  0  0
    2.6321    1.6209   -0.0597 C   0  0  0  0  0  0  0  0  0  0  0  0
    4.0110    2.2437   -0.3084 C   0  0  0  0  0  0  0  0  0  0  0  0
    3.8897    4.7100    0.0156 C   0  0  0  0  0  0  0  0  0  0  0  0
    3.8407    3.8387   -2.2102 N   0  0  0  0  0  0  0  0  0  0  0  0
    3.9301    3.6043   -0.8574 N   0  0  0  0  0  0  0  0  0  0  0  0
    3.9108    4.5674    1.2211 O   0  0  0  0  0  0  0  0  0  0  0  0
    3.8346    2.8254   -2.8818 O   0  0  0  0  0  0  0  0  0  0  0  0
    3.8353    5.8709   -0.6418 O   0  0  0  0  0  0  0  0  0  0  0  0
    1.4768   -1.4589    1.1553 H   0  0  0  0  0  0  0  0  0  0  0  0
    0.7822   -0.5086   -0.1672 H   0  0  0  0  0  0  0  0  0  0  0  0
    0.7910    0.1410    1.4796 H   0  0  0  0  0  0  0  0  0  0  0  0
    2.3187    8.3209    1.1512 H   0  0  0  0  0  0  0  0  0  0  0  0
    1.9551    6.5879    1.2572 H   0  0  0  0  0  0  0  0  0  0  0  0
    1.6943    7.4631   -0.2731 H   0  0  0  0  0  0  0  0  0  0  0  0
    3.3075   -0.4278   -0.2073 H   0  0  0  0  0  0  0  0  0  0  0  0
    3.3179    0.2126    1.4306 H   0  0  0  0  0  0  0  0  0  0  0  0
    4.4251    6.9263    1.0497 H   0  0  0  0  0  0  0  0  0  0  0  0
    4.1826    7.8444   -0.4607 H   0  0  0  0  0  0  0  0  0  0  0  0
    2.0793    2.2551    0.6451 H   0  0  0  0  0  0  0  0  0  0  0  0
    2.0685    1.6124   -1.0008 H   0  0  0  0  0  0  0  0  0  0  0  0
    4.5737    1.6548   -1.0365 H   0  0  0  0  0  0  0  0  0  0  0  0
    4.5809    2.3134    0.6192 H   0  0  0  0  0  0  0  0  0  0  0  0
  1 13  1  0  0  0  0
  1 15  1  0  0  0  0
  2 16  1  0  0  0  0
  2 17  1  0  0  0  0
  3  1  1  0  0  0  0
  3 20  1  0  0  0  0
  4  2  1  0  0  0  0
  4 21  1  0  0  0  0
  5  3  1  0  0  0  0
  5 23  1  0  0  0  0
  6  5  1  0  0  0  0
  6 26  1  0  0  0  0
  7 10  2  0  0  0  0
  8  9  1  0  0  0  0
  9  6  1  0  0  0  0
  9  7  1  0  0  0  0
 11  8  1  0  0  0  0
 12  7  1  0  0  0  0
 12  4  1  0  0  0  0
 14  1  1  0  0  0  0
 18  2  1  0  0  0  0
 19  3  1  0  0  0  0
 22  4  1  0  0  0  0
 24  5  1  0  0  0  0
 25  6  1  0  0  0  0
M  RAD  2   8   2  11   2
M  END
>  <HBA>
5

>  <HBD>
0

>  <TPSA>
58.97

>  <cid>
23050

>  <dipole>
1.97

>  <excitation_energy_1>
2.968

>  <excitation_energy_2>
5.148

>  <excitation_energy_3>
5.42

>  <excitation_energy_4>
5.886

>  <homo_energy>
-6.634

>  <homo_lumo_gap>
4.797

>  <logP>
1.926

>  <lumo_energy>
-1.837

>  <melting_point>
17.23

>  <molecular_refractivity>
45.07

>  <oscillator_strength_1>
0.001

>  <oscillator_strength_2>
0.0087

>  <oscillator_strength_3>
0.1462

>  <oscillator_strength_4>
0.0501

>  <open_babel_can_smiles>
CCCCN(C(=O)OCC)[N][O]

>  <mulliken_charges>
26
1   -0.443104
2   -0.465175
3   -0.254661
4   -0.04559
5   -0.258309
6   -0.150457
7   0.831696
8   0.200348
9   -0.360008
10   -0.496599
11   -0.327726
12   -0.452229
13   0.146251
14   0.146798
15   0.145813
16   0.155526
17   0.176819
18   0.16577
19   0.138909
20   0.138228
21   0.175517
22   0.164281
23   0.151026
24   0.153691
25   0.179228
26   0.183955

>  <lowdin_charges>
26
1   -0.443515
2   -0.456324
3   -0.272685
4   -0.12264
5   -0.282069
6   -0.213946
7   0.212347
8   0.090849
9   -0.04419
10   -0.279868
11   -0.213365
12   -0.169743
13   0.151185
14   0.149361
15   0.149998
16   0.161973
17   0.166867
18   0.161019
19   0.144414
20   0.142628
21   0.16194
22   0.160123
23   0.151539
24   0.151236
25   0.169452
26   0.173416

$$$$

