PCCDB-ID:  23622
public computational chemistry database (PCCDB) project, http://pccdb.org

 23 24  0  0  0  0  0  0  0  0999 V2000
   -0.4972    1.1940    0.3507 C   0  0  0  0  0  0  0  0  0  0  0  0
    1.3972   -0.1054   -0.3318 C   0  0  0  0  0  0  0  0  0  0  0  0
   -1.2796    0.0448    0.3795 C   0  0  0  0  0  0  0  0  0  0  0  0
    0.6233   -1.2643   -0.3073 C   0  0  0  0  0  0  0  0  0  0  0  0
    1.6415    3.3162    1.2115 C   0  0  0  0  0  0  0  0  0  0  0  0
    1.1304    3.6115   -0.8140 C   0  0  0  0  0  0  0  0  0  0  0  0
    0.8605    1.1455   -0.0062 C   0  0  0  0  0  0  0  0  0  0  0  0
    1.7156    2.3872   -0.0411 C   0  0  0  0  0  0  0  0  0  0  0  0
   -0.7320   -1.2074    0.0500 C   0  0  0  0  0  0  0  0  0  0  0  0
   -1.5049   -2.3733    0.1368 N   0  0  0  0  0  0  0  0  0  0  0  0
    0.7137    4.2082    0.4767 N   0  0  0  0  0  0  0  0  0  0  0  0
   -0.9426    2.1531    0.6049 H   0  0  0  0  0  0  0  0  0  0  0  0
    2.4451   -0.1792   -0.6163 H   0  0  0  0  0  0  0  0  0  0  0  0
   -2.3280    0.1109    0.6641 H   0  0  0  0  0  0  0  0  0  0  0  0
    1.0722   -2.2223   -0.5620 H   0  0  0  0  0  0  0  0  0  0  0  0
    2.6182    3.7654    1.4502 H   0  0  0  0  0  0  0  0  0  0  0  0
    1.2201    2.8792    2.1245 H   0  0  0  0  0  0  0  0  0  0  0  0
    0.3045    3.4072   -1.5057 H   0  0  0  0  0  0  0  0  0  0  0  0
    1.9125    4.1725   -1.3491 H   0  0  0  0  0  0  0  0  0  0  0  0
    2.7340    2.1200   -0.3369 H   0  0  0  0  0  0  0  0  0  0  0  0
   -2.5004   -2.2245    0.0221 H   0  0  0  0  0  0  0  0  0  0  0  0
   -1.1836   -3.1334   -0.4507 H   0  0  0  0  0  0  0  0  0  0  0  0
    0.8961    5.2050    0.5760 H   0  0  0  0  0  0  0  0  0  0  0  0
  1  3  1  0  0  0  0
  1 12  1  0  0  0  0
  2  4  2  0  0  0  0
  2  7  1  0  0  0  0
  3 14  1  0  0  0  0
  4  9  1  0  0  0  0
  5 16  1  0  0  0  0
  5 17  1  0  0  0  0
  6  8  1  0  0  0  0
  6 11  1  0  0  0  0
  7  1  2  0  0  0  0
  8  7  1  0  0  0  0
  8  5  1  0  0  0  0
  9 10  1  0  0  0  0
  9  3  2  0  0  0  0
 11 23  1  0  0  0  0
 11  5  1  0  0  0  0
 13  2  1  0  0  0  0
 15  4  1  0  0  0  0
 18  6  1  0  0  0  0
 19  6  1  0  0  0  0
 20  8  1  0  0  0  0
 21 10  1  0  0  0  0
 22 10  1  0  0  0  0
M  END
>  <HBA>
2

>  <HBD>
2

>  <TPSA>
38.05

>  <cid>
23622

>  <dipole>
1.38

>  <excitation_energy_1>
4.605

>  <excitation_energy_2>
4.641

>  <excitation_energy_3>
4.979

>  <excitation_energy_4>
5.267

>  <homo_energy>
-5.189

>  <homo_lumo_gap>
5.491

>  <logP>
1.866

>  <lumo_energy>
0.302

>  <melting_point>
105.74

>  <molecular_refractivity>
50.03

>  <oscillator_strength_1>
0.0302

>  <oscillator_strength_2>
0.0059

>  <oscillator_strength_3>
0.0044

>  <oscillator_strength_4>
0.1465

>  <open_babel_can_smiles>
Nc1ccc(cc1)C1CNC1

>  <mulliken_charges>
23
1   -0.208782
2   -0.207429
3   -0.173465
4   -0.172466
5   -0.118948
6   -0.118553
7   0.193397
8   -0.2298
9   0.305728
10   -0.78696
11   -0.559238
12   0.154876
13   0.117132
14   0.114273
15   0.112102
16   0.120584
17   0.145015
18   0.143092
19   0.120331
20   0.12542
21   0.316987
22   0.316385
23   0.290319

>  <lowdin_charges>
23
1   -0.155395
2   -0.157392
3   -0.195757
4   -0.203159
5   -0.200449
6   -0.202879
7   -0.030473
8   -0.133292
9   0.055158
10   -0.490426
11   -0.381528
12   0.169391
13   0.14965
14   0.149525
15   0.150408
16   0.128038
17   0.142451
18   0.142116
19   0.129525
20   0.142915
21   0.2716
22   0.273821
23   0.246151

$$$$

