PCCDB-ID:  7495
public computational chemistry database (PCCDB) project, http://pccdb.org

 21 21  0  0  0  0  0  0  0  0999 V2000
    0.9109    1.2104    0.8743 C   0  0  0  0  0  0  0  0  0  0  0  0
    2.2314    1.9557    0.8061 C   0  0  0  0  0  0  0  0  0  0  0  0
    6.3198    3.0424    0.4649 C   0  0  0  0  0  0  0  0  0  0  0  0
    6.8307    0.6960    0.0744 C   0  0  0  0  0  0  0  0  0  0  0  0
    4.9677    2.7321    0.5840 C   0  0  0  0  0  0  0  0  0  0  0  0
    5.4871    0.3864    0.1927 C   0  0  0  0  0  0  0  0  0  0  0  0
    7.2384    2.0269    0.2119 C   0  0  0  0  0  0  0  0  0  0  0  0
    4.5438    1.3999    0.4480 C   0  0  0  0  0  0  0  0  0  0  0  0
    8.6570    2.3530    0.0855 N   0  0  0  0  0  0  0  0  0  0  0  0
    8.9946    3.5324    0.2124 O   0  0  0  0  0  0  0  0  0  0  0  0
    9.4386    1.4271   -0.1417 O   0  0  0  0  0  0  0  0  0  0  0  0
    3.2575    0.9897    0.5450 O   0  0  0  0  0  0  0  0  0  0  0  0
    0.0949    1.9138    1.0708 H   0  0  0  0  0  0  0  0  0  0  0  0
    0.9287    0.4659    1.6761 H   0  0  0  0  0  0  0  0  0  0  0  0
    0.7076    0.6974   -0.0706 H   0  0  0  0  0  0  0  0  0  0  0  0
    2.4441    2.4707    1.7528 H   0  0  0  0  0  0  0  0  0  0  0  0
    2.2217    2.7058    0.0037 H   0  0  0  0  0  0  0  0  0  0  0  0
    6.6701    4.0621    0.5662 H   0  0  0  0  0  0  0  0  0  0  0  0
    7.5710   -0.0700   -0.1212 H   0  0  0  0  0  0  0  0  0  0  0  0
    4.2577    3.5263    0.7799 H   0  0  0  0  0  0  0  0  0  0  0  0
    5.1348   -0.6346    0.0917 H   0  0  0  0  0  0  0  0  0  0  0  0
  1 13  1  0  0  0  0
  1 14  1  0  0  0  0
  2  1  1  0  0  0  0
  2 16  1  0  0  0  0
  3 18  1  0  0  0  0
  3  5  1  0  0  0  0
  4  6  2  0  0  0  0
  4  7  1  0  0  0  0
  5 20  1  0  0  0  0
  6  8  1  0  0  0  0
  7  3  2  0  0  0  0
  8 12  1  0  0  0  0
  8  5  2  0  0  0  0
  9  7  1  0  0  0  0
  9 10  2  0  0  0  0
 11  9  2  0  0  0  0
 12  2  1  0  0  0  0
 15  1  1  0  0  0  0
 17  2  1  0  0  0  0
 19  4  1  0  0  0  0
 21  6  1  0  0  0  0
M  END
>  <HBA>
1

>  <HBD>
0

>  <TPSA>
55.05

>  <cid>
7495

>  <dipole>
6.3

>  <excitation_energy_1>
3.77

>  <excitation_energy_2>
4.084

>  <excitation_energy_3>
4.324

>  <excitation_energy_4>
4.451

>  <homo_energy>
-6.71

>  <homo_lumo_gap>
4.582

>  <logP>
2.517

>  <lumo_energy>
-2.128

>  <melting_point>
47.55

>  <molecular_refractivity>
46.56

>  <oscillator_strength_1>
0.0

>  <oscillator_strength_2>
0.3201

>  <oscillator_strength_3>
0.0003

>  <oscillator_strength_4>
0.0119

>  <open_babel_can_smiles>
CCOc1ccc(cc1)N(=O)=O

>  <mulliken_charges>
21
1   -0.458832
2   -0.039794
3   -0.157107
4   -0.151261
5   -0.205576
6   -0.186421
7   0.273015
8   0.404766
9   0.372963
10   -0.406037
11   -0.402913
12   -0.508053
13   0.155699
14   0.16872
15   0.168762
16   0.150502
17   0.150552
18   0.182976
19   0.183623
20   0.149543
21   0.154873

>  <lowdin_charges>
21
1   -0.448193
2   -0.124208
3   -0.124424
4   -0.130118
5   -0.209614
6   -0.174805
7   -0.01831
8   0.122842
9   0.309145
10   -0.257299
11   -0.257498
12   -0.186575
13   0.162063
14   0.163403
15   0.162969
16   0.143669
17   0.144298
18   0.186852
19   0.189708
20   0.171699
21   0.174394

$$$$

