PCCDB-ID:  12370
public computational chemistry database (PCCDB) project, http://pccdb.org

 22 21  0  0  0  0  0  0  0  0999 V2000
    0.9297   -0.5971   -0.4457 C   0  0  0  0  0  0  0  0  0  0  0  0
    8.1630    3.9762   -1.7790 C   0  0  0  0  0  0  0  0  0  0  0  0
    2.1191   -0.4465   -0.3001 C   0  0  0  0  0  0  0  0  0  0  0  0
    7.6323    2.7046   -1.1103 C   0  0  0  0  0  0  0  0  0  0  0  0
    3.5589   -0.2442   -0.1339 C   0  0  0  0  0  0  0  0  0  0  0  0
    6.1217    2.5089   -1.2951 C   0  0  0  0  0  0  0  0  0  0  0  0
    4.0765    1.0421   -0.8132 C   0  0  0  0  0  0  0  0  0  0  0  0
    5.5856    1.2360   -0.6275 C   0  0  0  0  0  0  0  0  0  0  0  0
   -0.1201   -0.7314   -0.5735 H   0  0  0  0  0  0  0  0  0  0  0  0
    9.2433    4.0862   -1.6296 H   0  0  0  0  0  0  0  0  0  0  0  0
    7.6783    4.8717   -1.3707 H   0  0  0  0  0  0  0  0  0  0  0  0
    7.9766    3.9651   -2.8600 H   0  0  0  0  0  0  0  0  0  0  0  0
    7.8638    2.7321   -0.0361 H   0  0  0  0  0  0  0  0  0  0  0  0
    8.1620    1.8301   -1.5139 H   0  0  0  0  0  0  0  0  0  0  0  0
    4.0983   -1.1121   -0.5393 H   0  0  0  0  0  0  0  0  0  0  0  0
    3.8010   -0.2118    0.9380 H   0  0  0  0  0  0  0  0  0  0  0  0
    5.8886    2.4825   -2.3698 H   0  0  0  0  0  0  0  0  0  0  0  0
    5.5910    3.3829   -0.8895 H   0  0  0  0  0  0  0  0  0  0  0  0
    3.5342    1.9032   -0.4021 H   0  0  0  0  0  0  0  0  0  0  0  0
    3.8319    1.0028   -1.8824 H   0  0  0  0  0  0  0  0  0  0  0  0
    5.8190    1.2642    0.4473 H   0  0  0  0  0  0  0  0  0  0  0  0
    6.1175    0.3622   -1.0325 H   0  0  0  0  0  0  0  0  0  0  0  0
  1  3  3  0  0  0  0
  2 10  1  0  0  0  0
  2 11  1  0  0  0  0
  2  4  1  0  0  0  0
  3  5  1  0  0  0  0
  4 13  1  0  0  0  0
  5 16  1  0  0  0  0
  6  4  1  0  0  0  0
  6 18  1  0  0  0  0
  6  8  1  0  0  0  0
  7  8  1  0  0  0  0
  7 19  1  0  0  0  0
  7  5  1  0  0  0  0
  8 21  1  0  0  0  0
  9  1  1  0  0  0  0
 12  2  1  0  0  0  0
 14  4  1  0  0  0  0
 15  5  1  0  0  0  0
 17  6  1  0  0  0  0
 20  7  1  0  0  0  0
 22  8  1  0  0  0  0
M  END
>  <HBA>
0

>  <HBD>
0

>  <TPSA>
0.0

>  <cid>
12370

>  <dipole>
0.84

>  <excitation_energy_1>
6.504

>  <excitation_energy_2>
6.646

>  <excitation_energy_3>
6.671

>  <excitation_energy_4>
6.921

>  <homo_energy>
-6.966

>  <homo_lumo_gap>
8.591

>  <logP>
2.59

>  <lumo_energy>
1.625

>  <melting_point>
-10.54

>  <molecular_refractivity>
38.73

>  <oscillator_strength_1>
0.0003

>  <oscillator_strength_2>
0.0149

>  <oscillator_strength_3>
0.0

>  <oscillator_strength_4>
0.0387

>  <open_babel_can_smiles>
CCCCCCC#C

>  <mulliken_charges>
22
1   -0.526701
2   -0.44188
3   0.363513
4   -0.24714
5   -0.403777
6   -0.246767
7   -0.256942
8   -0.251612
9   0.184007
10   0.142373
11   0.141926
12   0.141959
13   0.13065
14   0.130626
15   0.166187
16   0.166238
17   0.129252
18   0.129224
19   0.145296
20   0.145317
21   0.129133
22   0.129118

>  <lowdin_charges>
22
1   -0.266311
2   -0.441206
3   -0.039416
4   -0.270964
5   -0.259885
6   -0.272941
7   -0.266644
8   -0.274388
9   0.200655
10   0.147844
11   0.146991
12   0.144739
13   0.137257
14   0.139649
15   0.164892
16   0.162573
17   0.137024
18   0.139444
19   0.148482
20   0.146053
21   0.136873
22   0.139277

$$$$

