PCCDB-ID:  70633
public computational chemistry database (PCCDB) project, http://pccdb.org

 17 17  0  0  0  0  0  0  0  0999 V2000
    0.8561    0.1503    0.3723 C   0  0  0  0  0  0  0  0  0  0  0  0
    4.4243   -1.1487   -0.3269 C   0  0  0  0  0  0  0  0  0  0  0  0
    5.1051    0.0436   -0.3399 C   0  0  0  0  0  0  0  0  0  0  0  0
    3.0825    1.1942    0.0918 C   0  0  0  0  0  0  0  0  0  0  0  0
    2.3378    0.0242    0.1185 C   0  0  0  0  0  0  0  0  0  0  0  0
    3.0443   -1.1791   -0.1001 C   0  0  0  0  0  0  0  0  0  0  0  0
    4.4394    1.2297   -0.1288 N   0  3  0  0  0  0  0  0  0  0  0  0
    2.4017   -2.4891   -0.1020 N   0  0  0  0  0  0  0  0  0  0  0  0
    5.0624    2.3315   -0.1383 O   0  5  0  0  0  0  0  0  0  0  0  0
    3.1142   -3.4735   -0.3123 O   0  0  0  0  0  0  0  0  0  0  0  0
    1.1871   -2.5469    0.1060 O   0  0  0  0  0  0  0  0  0  0  0  0
    0.5888    1.2031    0.4986 H   0  0  0  0  0  0  0  0  0  0  0  0
    0.5593   -0.4032    1.2668 H   0  0  0  0  0  0  0  0  0  0  0  0
    0.2765   -0.2677   -0.4547 H   0  0  0  0  0  0  0  0  0  0  0  0
    4.9546   -2.0776   -0.4917 H   0  0  0  0  0  0  0  0  0  0  0  0
    6.1675    0.1552   -0.5062 H   0  0  0  0  0  0  0  0  0  0  0  0
    2.6534    2.1754    0.2443 H   0  0  0  0  0  0  0  0  0  0  0  0
  1 12  1  0  0  0  0
  1 13  1  0  0  0  0
  2  6  1  0  0  0  0
  3  2  2  0  0  0  0
  3  7  1  0  0  0  0
  4  5  1  0  0  0  0
  4 17  1  0  0  0  0
  5  1  1  0  0  0  0
  6  5  2  0  0  0  0
  7  4  2  0  0  0  0
  8  6  1  0  0  0  0
  8 11  2  0  0  0  0
  9  7  1  0  0  0  0
 10  8  2  0  0  0  0
 14  1  1  0  0  0  0
 15  2  1  0  0  0  0
 16  3  1  0  0  0  0
M  CHG  2   7   1   9  -1
M  END
>  <HBA>
1

>  <HBD>
0

>  <TPSA>
71.28

>  <cid>
70633

>  <dipole>
1.18

>  <excitation_energy_1>
3.442

>  <excitation_energy_2>
3.641

>  <excitation_energy_3>
3.793

>  <excitation_energy_4>
4.207

>  <homo_energy>
-6.71

>  <homo_lumo_gap>
3.812

>  <logP>
1.855

>  <lumo_energy>
-2.898

>  <melting_point>
62.45

>  <molecular_refractivity>
41.39

>  <oscillator_strength_1>
0.0

>  <oscillator_strength_2>
0.0002

>  <oscillator_strength_3>
0.3241

>  <oscillator_strength_4>
0.0002

>  <open_babel_can_smiles>
[O-][n+]1ccc(c(c1)C)N(=O)=O

>  <mulliken_charges>
17
1   -0.503432
2   -0.197554
3   0.070662
4   0.01088
5   0.121699
6   0.253519
7   0.004312
8   0.376617
9   -0.474991
10   -0.399392
11   -0.406969
12   0.158986
13   0.195364
14   0.194948
15   0.207711
16   0.197574
17   0.190068

>  <lowdin_charges>
17
1   -0.433657
2   -0.13011
3   -0.121201
4   -0.134449
5   0.032243
6   -0.022115
7   0.233127
8   0.305992
9   -0.340218
10   -0.253388
11   -0.244264
12   0.158182
13   0.182653
14   0.182901
15   0.203485
16   0.191352
17   0.189466

$$$$

