PCCDB-ID:  16319
public computational chemistry database (PCCDB) project, http://pccdb.org

 32 31  0  0  1  0  0  0  0  0999 V2000
    2.2379   -1.4391    0.3794 C   0  0  0  0  0  0  0  0  0  0  0  0
    8.5134    3.5213   -3.7099 C   0  0  0  0  0  0  0  0  0  0  0  0
    6.3554    3.0357   -4.9261 C   0  0  0  0  0  0  0  0  0  0  0  0
    2.9592    1.5639   -0.0794 C   0  0  0  0  0  0  0  0  0  0  0  0
    3.6376   -0.8908    0.0779 C   0  0  0  0  0  0  0  0  0  0  0  0
    5.2917    1.8595   -2.1915 C   0  0  0  0  0  0  0  0  0  0  0  0
    6.7590    2.0940   -2.5787 C   0  0  0  0  0  0  0  0  0  0  0  0
    5.1262    0.7435   -1.1492 C   0  0  0  0  0  0  0  0  0  0  0  0
    7.0072    3.2628   -3.5534 C   0  0  0  0  0  0  0  0  0  0  0  0
    3.6699    0.3934   -0.7776 C   0  0  2  0  0  0  0  0  0  0  0  0
    2.2999   -2.3976    0.9075 H   0  0  0  0  0  0  0  0  0  0  0  0
    1.6708   -1.6068   -0.5452 H   0  0  0  0  0  0  0  0  0  0  0  0
    1.6540   -0.7579    1.0076 H   0  0  0  0  0  0  0  0  0  0  0  0
    8.7049    4.3710   -4.3761 H   0  0  0  0  0  0  0  0  0  0  0  0
    9.0193    2.6451   -4.1366 H   0  0  0  0  0  0  0  0  0  0  0  0
    8.9845    3.7388   -2.7437 H   0  0  0  0  0  0  0  0  0  0  0  0
    6.5530    3.8795   -5.5979 H   0  0  0  0  0  0  0  0  0  0  0  0
    5.2688    2.9202   -4.8531 H   0  0  0  0  0  0  0  0  0  0  0  0
    6.7567    2.1313   -5.4030 H   0  0  0  0  0  0  0  0  0  0  0  0
    1.9119    1.3303    0.1392 H   0  0  0  0  0  0  0  0  0  0  0  0
    2.9660    2.4686   -0.6962 H   0  0  0  0  0  0  0  0  0  0  0  0
    3.4529    1.8052    0.8717 H   0  0  0  0  0  0  0  0  0  0  0  0
    4.2151   -1.6672   -0.4431 H   0  0  0  0  0  0  0  0  0  0  0  0
    4.1684   -0.7023    1.0231 H   0  0  0  0  0  0  0  0  0  0  0  0
    4.7038    1.6020   -3.0831 H   0  0  0  0  0  0  0  0  0  0  0  0
    4.8718    2.7996   -1.8080 H   0  0  0  0  0  0  0  0  0  0  0  0
    7.1735    1.1718   -3.0151 H   0  0  0  0  0  0  0  0  0  0  0  0
    7.3374    2.2793   -1.6614 H   0  0  0  0  0  0  0  0  0  0  0  0
    5.6722    1.0178   -0.2331 H   0  0  0  0  0  0  0  0  0  0  0  0
    5.6164   -0.1641   -1.5312 H   0  0  0  0  0  0  0  0  0  0  0  0
    6.5567    4.1655   -3.1114 H   0  0  0  0  0  0  0  0  0  0  0  0
    3.1295    0.1787   -1.7143 H   0  0  0  0  0  0  0  0  0  0  0  0
  1 11  1  0  0  0  0
  1 13  1  0  0  0  0
  2  9  1  0  0  0  0
  2 16  1  0  0  0  0
  3 18  1  0  0  0  0
  3  9  1  0  0  0  0
  4 20  1  0  0  0  0
  4 22  1  0  0  0  0
  5  1  1  0  0  0  0
  5 24  1  0  0  0  0
  6 26  1  0  0  0  0
  6  8  1  0  0  0  0
  7  6  1  0  0  0  0
  7 28  1  0  0  0  0
  8 10  1  0  0  0  0
  8 29  1  0  0  0  0
  9 31  1  0  0  0  0
  9  7  1  0  0  0  0
 10 32  1  6  0  0  0
 10  4  1  0  0  0  0
 10  5  1  0  0  0  0
 12  1  1  0  0  0  0
 14  2  1  0  0  0  0
 15  2  1  0  0  0  0
 17  3  1  0  0  0  0
 19  3  1  0  0  0  0
 21  4  1  0  0  0  0
 23  5  1  0  0  0  0
 25  6  1  0  0  0  0
 27  7  1  0  0  0  0
 30  8  1  0  0  0  0
M  END
>  <HBA>
0

>  <HBD>
0

>  <TPSA>
0.0

>  <cid>
16319

>  <dipole>
0.04

>  <excitation_energy_1>
7.48

>  <excitation_energy_2>
7.737

>  <excitation_energy_3>
7.823

>  <excitation_energy_4>
7.931

>  <homo_energy>
-7.875

>  <homo_lumo_gap>
10.204

>  <logP>
3.859

>  <lumo_energy>
2.329

>  <melting_point>
-29.22

>  <molecular_refractivity>
50.18

>  <oscillator_strength_1>
0.005

>  <oscillator_strength_2>
0.0354

>  <oscillator_strength_3>
0.0003

>  <oscillator_strength_4>
0.0011

>  <open_babel_can_smiles>
CC[C@H](CCCC(C)C)C

>  <mulliken_charges>
32
1   -0.44846
2   -0.441629
3   -0.444583
4   -0.45393
5   -0.245986
6   -0.265377
7   -0.246364
8   -0.253453
9   -0.064689
10   -0.062737
11   0.141331
12   0.140106
13   0.145732
14   0.138087
15   0.137646
16   0.138508
17   0.138703
18   0.14442
19   0.136801
20   0.144049
21   0.144779
22   0.136274
23   0.127426
24   0.126061
25   0.130745
26   0.130602
27   0.122272
28   0.124292
29   0.12291
30   0.124269
31   0.118401
32   0.113794

>  <lowdin_charges>
32
1   -0.448657
2   -0.44561
3   -0.446085
4   -0.447771
5   -0.274798
6   -0.279245
7   -0.275354
8   -0.275658
9   -0.120479
10   -0.123702
11   0.149569
12   0.145893
13   0.148796
14   0.147369
15   0.145577
16   0.146518
17   0.148232
18   0.146434
19   0.144985
20   0.148146
21   0.149325
22   0.144303
23   0.140746
24   0.137486
25   0.139273
26   0.138818
27   0.136088
28   0.13876
29   0.136383
30   0.138837
31   0.134
32   0.131818

$$$$

