PCCDB-ID:  39149
public computational chemistry database (PCCDB) project, http://pccdb.org

 30 30  0  0  0  0  0  0  0  0999 V2000
    3.8295   -1.3830   -0.0120 C   0  0  0  0  0  0  0  0  0  0  0  0
    5.7595    2.0006    5.1591 C   0  0  0  0  0  0  0  0  0  0  0  0
    5.0214   -1.6518    3.7588 C   0  0  0  0  0  0  0  0  0  0  0  0
    2.7128   -1.0351    0.9905 C   0  0  0  0  0  0  0  0  0  0  0  0
    4.2497    1.6974    5.1231 C   0  0  0  0  0  0  0  0  0  0  0  0
    3.6254   -1.0153    3.8905 C   0  0  0  0  0  0  0  0  0  0  0  0
    3.0276    2.6781    1.6738 C   0  0  0  0  0  0  0  0  0  0  0  0
    2.7793    1.4481    1.0753 C   0  0  0  0  0  0  0  0  0  0  0  0
    3.4907    2.7097    2.9842 C   0  0  0  0  0  0  0  0  0  0  0  0
    2.9833    0.2461    1.7656 C   0  0  0  0  0  0  0  0  0  0  0  0
    3.7069    1.5315    3.7112 C   0  0  0  0  0  0  0  0  0  0  0  0
    3.4406    0.2770    3.1070 C   0  0  0  0  0  0  0  0  0  0  0  0
    3.5850   -2.2969   -0.5661 H   0  0  0  0  0  0  0  0  0  0  0  0
    4.7874   -1.5396    0.4956 H   0  0  0  0  0  0  0  0  0  0  0  0
    3.9722   -0.5746   -0.7379 H   0  0  0  0  0  0  0  0  0  0  0  0
    6.1040    2.1426    6.1902 H   0  0  0  0  0  0  0  0  0  0  0  0
    5.9907    2.9114    4.5956 H   0  0  0  0  0  0  0  0  0  0  0  0
    6.3411    1.1850    4.7161 H   0  0  0  0  0  0  0  0  0  0  0  0
    5.0839   -2.5742    4.3482 H   0  0  0  0  0  0  0  0  0  0  0  0
    5.8040   -0.9722    4.1121 H   0  0  0  0  0  0  0  0  0  0  0  0
    5.2496   -1.9015    2.7173 H   0  0  0  0  0  0  0  0  0  0  0  0
    2.5585   -1.8866    1.6586 H   0  0  0  0  0  0  0  0  0  0  0  0
    1.7737   -0.9146    0.4345 H   0  0  0  0  0  0  0  0  0  0  0  0
    3.7180    2.5285    5.6046 H   0  0  0  0  0  0  0  0  0  0  0  0
    4.0502    0.8166    5.7392 H   0  0  0  0  0  0  0  0  0  0  0  0
    3.4220   -0.8373    4.9508 H   0  0  0  0  0  0  0  0  0  0  0  0
    2.8754   -1.7484    3.5775 H   0  0  0  0  0  0  0  0  0  0  0  0
    2.8534    3.6019    1.1282 H   0  0  0  0  0  0  0  0  0  0  0  0
    2.4122    1.4104    0.0515 H   0  0  0  0  0  0  0  0  0  0  0  0
    3.6837    3.6666    3.4652 H   0  0  0  0  0  0  0  0  0  0  0  0
  1 14  1  0  0  0  0
  1  4  1  0  0  0  0
  2 16  1  0  0  0  0
  3  6  1  0  0  0  0
  3 20  1  0  0  0  0
  3 19  1  0  0  0  0
  4 22  1  0  0  0  0
  4 10  1  0  0  0  0
  5  2  1  0  0  0  0
  5 24  1  0  0  0  0
  5 25  1  0  0  0  0
  6 26  1  0  0  0  0
  7  9  1  0  0  0  0
  8  7  2  0  0  0  0
  8 10  1  0  0  0  0
  9 30  1  0  0  0  0
  9 11  2  0  0  0  0
 10 12  2  0  0  0  0
 11  5  1  0  0  0  0
 12 11  1  0  0  0  0
 12  6  1  0  0  0  0
 13  1  1  0  0  0  0
 15  1  1  0  0  0  0
 17  2  1  0  0  0  0
 18  2  1  0  0  0  0
 21  3  1  0  0  0  0
 23  4  1  0  0  0  0
 27  6  1  0  0  0  0
 28  7  1  0  0  0  0
 29  8  1  0  0  0  0
M  END
>  <HBA>
0

>  <HBD>
0

>  <TPSA>
0.0

>  <cid>
39149

>  <dipole>
0.42

>  <excitation_energy_1>
5.104

>  <excitation_energy_2>
5.617

>  <excitation_energy_3>
5.779

>  <excitation_energy_4>
5.848

>  <homo_energy>
-6.158

>  <homo_lumo_gap>
6.343

>  <logP>
3.374

>  <lumo_energy>
0.185

>  <melting_point>
14.84

>  <molecular_refractivity>
55.76

>  <oscillator_strength_1>
0.001

>  <oscillator_strength_2>
0.0058

>  <oscillator_strength_3>
0.0162

>  <oscillator_strength_4>
0.04

>  <open_babel_can_smiles>
CCc1c(CC)cccc1CC

>  <mulliken_charges>
30
1   -0.441207
2   -0.441119
3   -0.450832
4   -0.341296
5   -0.341848
6   -0.351007
7   -0.123659
8   -0.182953
9   -0.183232
10   0.119379
11   0.119128
12   0.060151
13   0.141433
14   0.153843
15   0.149132
16   0.141444
17   0.14932
18   0.153732
19   0.14168
20   0.15459
21   0.154635
22   0.141131
23   0.144329
24   0.144137
25   0.141423
26   0.145163
27   0.145736
28   0.122948
29   0.116944
30   0.116872

>  <lowdin_charges>
30
1   -0.441965
2   -0.441726
3   -0.443757
4   -0.276236
5   -0.277269
6   -0.276706
7   -0.160397
8   -0.168176
9   -0.17059
10   -0.009242
11   -0.008113
12   -0.02208
13   0.148522
14   0.148874
15   0.150505
16   0.147363
17   0.150274
18   0.149979
19   0.148652
20   0.150997
21   0.149098
22   0.148882
23   0.149682
24   0.150596
25   0.148561
26   0.147537
27   0.149983
28   0.155183
29   0.150162
30   0.151409

$$$$

