PCCDB-ID:  66728
public computational chemistry database (PCCDB) project, http://pccdb.org

 25 26  0  0  0  0  0  0  0  0999 V2000
    2.3247    1.4249    0.2258 C   0  0  0  0  0  0  0  0  0  0  0  0
    2.6902    0.1919   -0.3683 C   0  0  0  0  0  0  0  0  0  0  0  0
    1.0092    1.6829    0.5410 C   0  0  0  0  0  0  0  0  0  0  0  0
    1.7334   -0.7608   -0.6374 C   0  0  0  0  0  0  0  0  0  0  0  0
   -1.3702    0.9514    0.5844 C   0  0  0  0  0  0  0  0  0  0  0  0
   -2.3320    0.0088    0.3079 C   0  0  0  0  0  0  0  0  0  0  0  0
   -0.6412   -1.4910   -0.5822 C   0  0  0  0  0  0  0  0  0  0  0  0
   -3.8641   -2.9443    0.9502 C   0  0  0  0  0  0  0  0  0  0  0  0
   -0.0017    0.7215    0.2770 C   0  0  0  0  0  0  0  0  0  0  0  0
    0.3677   -0.5246   -0.3249 C   0  0  0  0  0  0  0  0  0  0  0  0
   -1.9621   -1.2351   -0.2746 C   0  0  0  0  0  0  0  0  0  0  0  0
   -4.9474   -2.0322    1.5439 C   0  0  0  0  0  0  0  0  0  0  0  0
   -5.2401   -2.0866    2.7118 O   0  0  0  0  0  0  0  0  0  0  0  0
   -5.5790   -1.2029    0.6875 O   0  0  0  0  0  0  0  0  0  0  0  0
   -3.1922   -2.4771   -0.6992 S   0  0  0  0  0  0  0  0  0  0  0  0
    3.0894    2.1686    0.4319 H   0  0  0  0  0  0  0  0  0  0  0  0
    3.7317    0.0009   -0.6112 H   0  0  0  0  0  0  0  0  0  0  0  0
    0.7267    2.6289    0.9964 H   0  0  0  0  0  0  0  0  0  0  0  0
    2.0110   -1.7080   -1.0933 H   0  0  0  0  0  0  0  0  0  0  0  0
   -1.6546    1.8985    1.0363 H   0  0  0  0  0  0  0  0  0  0  0  0
   -3.3737    0.2124    0.5333 H   0  0  0  0  0  0  0  0  0  0  0  0
   -0.3602   -2.4428   -1.0246 H   0  0  0  0  0  0  0  0  0  0  0  0
   -4.3077   -3.9378    0.8160 H   0  0  0  0  0  0  0  0  0  0  0  0
   -3.0566   -3.0421    1.6780 H   0  0  0  0  0  0  0  0  0  0  0  0
   -5.1754   -1.3090   -0.2007 H   0  0  0  0  0  0  0  0  0  0  0  0
  1 16  1  0  0  0  0
  1  3  2  0  0  0  0
  2  1  1  0  0  0  0
  3 18  1  0  0  0  0
  4  2  2  0  0  0  0
  4 10  1  0  0  0  0
  5 20  1  0  0  0  0
  6 21  1  0  0  0  0
  6  5  1  0  0  0  0
  7 10  2  0  0  0  0
  7 11  1  0  0  0  0
  8 12  1  0  0  0  0
  8 24  1  0  0  0  0
  9  3  1  0  0  0  0
  9  5  2  0  0  0  0
 10  9  1  0  0  0  0
 11  6  2  0  0  0  0
 12 13  2  0  0  0  0
 14 12  1  0  0  0  0
 15 11  1  0  0  0  0
 15  8  1  0  0  0  0
 17  2  1  0  0  0  0
 19  4  1  0  0  0  0
 22  7  1  0  0  0  0
 23  8  1  0  0  0  0
 25 14  1  0  0  0  0
M  END
>  <HBA>
3

>  <HBD>
1

>  <TPSA>
62.6

>  <cid>
66728

>  <dipole>
4.3

>  <excitation_energy_1>
4.259

>  <excitation_energy_2>
4.285

>  <excitation_energy_3>
4.71

>  <excitation_energy_4>
5.04

>  <homo_energy>
-6.223

>  <homo_lumo_gap>
4.74

>  <logP>
3.017

>  <lumo_energy>
-1.483

>  <melting_point>
137.96

>  <molecular_refractivity>
62.25

>  <oscillator_strength_1>
0.0149

>  <oscillator_strength_2>
0.0433

>  <oscillator_strength_3>
0.0947

>  <oscillator_strength_4>
0.0402

>  <open_babel_can_smiles>
OC(=O)CSc1ccc2c(c1)cccc2

>  <mulliken_charges>
25
1   -0.131848
2   -0.134548
3   -0.18945
4   -0.186931
5   -0.180164
6   -0.159717
7   -0.213828
8   -0.525226
9   0.135362
10   0.143494
11   -0.089977
12   0.594529
13   -0.43203
14   -0.563419
15   0.065834
16   0.137638
17   0.137428
18   0.137651
19   0.137112
20   0.143869
21   0.155844
22   0.152142
23   0.218775
24   0.22243
25   0.425029

>  <lowdin_charges>
25
1   -0.152831
2   -0.151704
3   -0.153088
4   -0.152162
5   -0.145679
6   -0.164893
7   -0.151802
8   -0.423928
9   0.003127
10   0.000362
11   -0.134849
12   0.179765
13   -0.236291
14   -0.352228
15   0.141246
16   0.163352
17   0.160996
18   0.161298
19   0.160913
20   0.164726
21   0.168705
22   0.169603
23   0.197397
24   0.195659
25   0.352305

$$$$

