PCCDB-ID:  21122
public computational chemistry database (PCCDB) project, http://pccdb.org

 24 23  0  0  0  0  0  0  0  0999 V2000
    1.2795    0.1049    0.5387 C   0  0  0  0  0  0  0  0  0  0  0  0
    7.4043   -0.6882    2.0560 C   0  0  0  0  0  0  0  0  0  0  0  0
    8.1238   -2.7772    0.8349 C   0  0  0  0  0  0  0  0  0  0  0  0
    2.3531   -0.1919   -0.1951 C   0  0  0  0  0  0  0  0  0  0  0  0
    3.3153   -1.3141    0.0838 C   0  0  0  0  0  0  0  0  0  0  0  0
    4.7493   -0.8214    0.3614 C   0  0  0  0  0  0  0  0  0  0  0  0
    5.7381   -1.9717    0.5966 C   0  0  0  0  0  0  0  0  0  0  0  0
    7.2066   -1.5456    0.7961 C   0  0  0  0  0  0  0  0  0  0  0  0
    0.6262    0.9369    0.2892 H   0  0  0  0  0  0  0  0  0  0  0  0
    1.0102   -0.4774    1.4180 H   0  0  0  0  0  0  0  0  0  0  0  0
    8.4570   -0.4052    2.1754 H   0  0  0  0  0  0  0  0  0  0  0  0
    7.1069   -1.2429    2.9560 H   0  0  0  0  0  0  0  0  0  0  0  0
    6.8164    0.2351    2.0228 H   0  0  0  0  0  0  0  0  0  0  0  0
    9.1753   -2.4867    0.9460 H   0  0  0  0  0  0  0  0  0  0  0  0
    8.0347   -3.3735   -0.0813 H   0  0  0  0  0  0  0  0  0  0  0  0
    7.8692   -3.4288    1.6812 H   0  0  0  0  0  0  0  0  0  0  0  0
    2.5829    0.4225   -1.0680 H   0  0  0  0  0  0  0  0  0  0  0  0
    3.3414   -1.9956   -0.7810 H   0  0  0  0  0  0  0  0  0  0  0  0
    2.9556   -1.9051    0.9365 H   0  0  0  0  0  0  0  0  0  0  0  0
    4.7263   -0.1508    1.2294 H   0  0  0  0  0  0  0  0  0  0  0  0
    5.0941   -0.2137   -0.4882 H   0  0  0  0  0  0  0  0  0  0  0  0
    5.6877   -2.6567   -0.2625 H   0  0  0  0  0  0  0  0  0  0  0  0
    5.4143   -2.5581    1.4703 H   0  0  0  0  0  0  0  0  0  0  0  0
    7.4981   -0.9385   -0.0753 H   0  0  0  0  0  0  0  0  0  0  0  0
  1 10  1  0  0  0  0
  2 11  1  0  0  0  0
  2 12  1  0  0  0  0
  3 14  1  0  0  0  0
  3 16  1  0  0  0  0
  4  5  1  0  0  0  0
  4  1  2  0  0  0  0
  5  6  1  0  0  0  0
  5 19  1  0  0  0  0
  6  7  1  0  0  0  0
  6 20  1  0  0  0  0
  7  8  1  0  0  0  0
  7 23  1  0  0  0  0
  8  3  1  0  0  0  0
  8  2  1  0  0  0  0
  9  1  1  0  0  0  0
 13  2  1  0  0  0  0
 15  3  1  0  0  0  0
 17  4  1  0  0  0  0
 18  5  1  0  0  0  0
 21  6  1  0  0  0  0
 22  7  1  0  0  0  0
 24  8  1  0  0  0  0
M  END
>  <HBA>
0

>  <HBD>
0

>  <TPSA>
0.0

>  <cid>
21122

>  <dipole>
0.38

>  <excitation_energy_1>
6.468

>  <excitation_energy_2>
6.796

>  <excitation_energy_3>
6.859

>  <excitation_energy_4>
6.929

>  <homo_energy>
-6.759

>  <homo_lumo_gap>
7.483

>  <logP>
2.999

>  <lumo_energy>
0.724

>  <melting_point>
-48.49

>  <molecular_refractivity>
40.1

>  <oscillator_strength_1>
0.0365

>  <oscillator_strength_2>
0.0128

>  <oscillator_strength_3>
0.0144

>  <oscillator_strength_4>
0.243

>  <open_babel_can_smiles>
C=CCCCC(C)C

>  <mulliken_charges>
24
1   -0.341742
2   -0.445047
3   -0.441829
4   -0.041151
5   -0.301272
6   -0.26102
7   -0.245787
8   -0.06538
9   0.136324
10   0.132989
11   0.139429
12   0.137459
13   0.145802
14   0.13903
15   0.138766
16   0.138123
17   0.121769
18   0.138776
19   0.136118
20   0.142683
21   0.12793
22   0.124579
23   0.124229
24   0.119219

>  <lowdin_charges>
24
1   -0.346706
2   -0.446132
3   -0.443518
4   -0.143929
5   -0.272457
6   -0.276421
7   -0.276892
8   -0.120571
9   0.157423
10   0.153113
11   0.146797
12   0.145285
13   0.149183
14   0.146027
15   0.146883
16   0.145724
17   0.147969
18   0.146947
19   0.145985
20   0.145003
21   0.139067
22   0.13897
23   0.13765
24   0.1346

$$$$

