PCCDB-ID:  20849
public computational chemistry database (PCCDB) project, http://pccdb.org

 18 18  0  0  0  0  0  0  0  0999 V2000
    0.8448   -1.1591    0.5950 C   0  0  0  0  0  0  0  0  0  0  0  0
    1.6968   -0.1022   -0.1301 C   0  0  0  0  0  0  0  0  0  0  0  0
   -0.4583   -1.5450   -0.1198 C   0  0  0  0  0  0  0  0  0  0  0  0
    0.8979    1.1462   -0.5926 C   0  0  0  0  0  0  0  0  0  0  0  0
   -1.5349   -0.4675   -0.1412 C   0  0  0  0  0  0  0  0  0  0  0  0
   -0.2251    1.4201    0.4033 C   0  0  0  0  0  0  0  0  0  0  0  0
   -1.4363    0.7662    0.1406 N   0  0  0  0  0  0  0  0  0  0  0  0
   -2.7633   -0.9029   -0.5270 O   0  0  0  0  0  0  0  0  0  0  0  0
   -0.0937    2.1692    1.3515 O   0  0  0  0  0  0  0  0  0  0  0  0
    0.5959   -0.7984    1.6005 H   0  0  0  0  0  0  0  0  0  0  0  0
    1.4433   -2.0670    0.7339 H   0  0  0  0  0  0  0  0  0  0  0  0
    2.1928   -0.5516   -0.9997 H   0  0  0  0  0  0  0  0  0  0  0  0
    2.4886    0.2170    0.5562 H   0  0  0  0  0  0  0  0  0  0  0  0
   -0.8849   -2.4381    0.3598 H   0  0  0  0  0  0  0  0  0  0  0  0
   -0.2539   -1.8305   -1.1636 H   0  0  0  0  0  0  0  0  0  0  0  0
    0.4740    0.9798   -1.5887 H   0  0  0  0  0  0  0  0  0  0  0  0
    1.5538    2.0193   -0.6420 H   0  0  0  0  0  0  0  0  0  0  0  0
   -2.7436   -1.8646   -0.6533 H   0  0  0  0  0  0  0  0  0  0  0  0
  1 11  1  0  0  0  0
  1 10  1  0  0  0  0
  2 13  1  0  0  0  0
  2  1  1  0  0  0  0
  3 14  1  0  0  0  0
  3  1  1  0  0  0  0
  4  2  1  0  0  0  0
  4  6  1  0  0  0  0
  5  3  1  0  0  0  0
  5  7  2  0  0  0  0
  6  9  2  0  0  0  0
  7  6  1  0  0  0  0
  8  5  1  0  0  0  0
 12  2  1  0  0  0  0
 15  3  1  0  0  0  0
 16  4  1  0  0  0  0
 17  4  1  0  0  0  0
 18  8  1  0  0  0  0
M  END
>  <HBA>
3

>  <HBD>
1

>  <TPSA>
46.17

>  <cid>
20849

>  <dipole>
6.37

>  <excitation_energy_1>
4.354

>  <excitation_energy_2>
5.361

>  <excitation_energy_3>
5.658

>  <excitation_energy_4>
6.07

>  <homo_energy>
-6.509

>  <homo_lumo_gap>
5.796

>  <logP>
0.532

>  <lumo_energy>
-0.713

>  <melting_point>
65.98

>  <molecular_refractivity>
35.96

>  <oscillator_strength_1>
0.0042

>  <oscillator_strength_2>
0.0048

>  <oscillator_strength_3>
0.0045

>  <oscillator_strength_4>
0.064

>  <open_babel_can_smiles>
OC1=NC(=O)CCCC1

>  <mulliken_charges>
18
1   -0.28574
2   -0.264672
3   -0.373251
4   -0.338622
5   0.497333
6   0.499967
7   -0.422592
8   -0.562474
9   -0.44755
10   0.176349
11   0.148702
12   0.142396
13   0.162764
14   0.159094
15   0.175308
16   0.150119
17   0.170453
18   0.412417

>  <lowdin_charges>
18
1   -0.282107
2   -0.272667
3   -0.313053
4   -0.312171
5   0.151542
6   0.164026
7   -0.174749
8   -0.342442
9   -0.248473
10   0.161146
11   0.156656
12   0.14756
13   0.16001
14   0.161328
15   0.164484
16   0.152943
17   0.1696
18   0.356368

$$$$

