PCCDB-ID:  70116
public computational chemistry database (PCCDB) project, http://pccdb.org

 18 18  0  0  0  0  0  0  0  0999 V2000
    0.8852    1.0996    0.0943 C   0  0  0  0  0  0  0  0  0  0  0  0
   -1.3273    0.1707   -0.3534 C   0  0  0  0  0  0  0  0  0  0  0  0
    1.3586   -0.3381    0.3576 C   0  0  0  0  0  0  0  0  0  0  0  0
   -0.7649   -1.2155   -0.0522 C   0  0  0  0  0  0  0  0  0  0  0  0
   -1.1619    2.0775    1.2038 C   0  0  0  0  0  0  0  0  0  0  0  0
   -0.5562    1.2066    0.3576 N   0  0  0  0  0  0  0  0  0  0  0  0
    0.6173   -1.2865   -0.3851 O   0  0  0  0  0  0  0  0  0  0  0  0
   -2.7186    1.9427    1.7940 S   0  0  0  0  0  0  0  0  0  0  0  0
   -0.2636    3.5139    1.7964 S   0  0  0  0  0  0  0  0  0  0  0  0
    1.0845    1.3717   -0.9513 H   0  0  0  0  0  0  0  0  0  0  0  0
    1.4401    1.7714    0.7474 H   0  0  0  0  0  0  0  0  0  0  0  0
   -2.3720    0.2488   -0.0542 H   0  0  0  0  0  0  0  0  0  0  0  0
   -1.2394    0.3717   -1.4299 H   0  0  0  0  0  0  0  0  0  0  0  0
    1.2840   -0.5498    1.4368 H   0  0  0  0  0  0  0  0  0  0  0  0
    2.4039   -0.4415    0.0511 H   0  0  0  0  0  0  0  0  0  0  0  0
   -1.2712   -1.9688   -0.6622 H   0  0  0  0  0  0  0  0  0  0  0  0
   -0.9162   -1.4592    1.0111 H   0  0  0  0  0  0  0  0  0  0  0  0
    0.6871    3.6367    0.8378 H   0  0  0  0  0  0  0  0  0  0  0  0
  1  3  1  0  0  0  0
  1  6  1  0  0  0  0
  1 11  1  0  0  0  0
  2 12  1  0  0  0  0
  2  4  1  0  0  0  0
  2  6  1  0  0  0  0
  3 14  1  0  0  0  0
  4 17  1  0  0  0  0
  5  8  2  0  0  0  0
  5  9  1  0  0  0  0
  6  5  1  0  0  0  0
  7  4  1  0  0  0  0
  7  3  1  0  0  0  0
 10  1  1  0  0  0  0
 13  2  1  0  0  0  0
 15  3  1  0  0  0  0
 16  4  1  0  0  0  0
 18  9  1  0  0  0  0
M  END
>  <HBA>
4

>  <HBD>
1

>  <TPSA>
83.36

>  <cid>
70116

>  <dipole>
4.52

>  <excitation_energy_1>
3.377

>  <excitation_energy_2>
4.592

>  <excitation_energy_3>
4.881

>  <excitation_energy_4>
5.034

>  <homo_energy>
-5.812

>  <homo_lumo_gap>
4.702

>  <logP>
0.471

>  <lumo_energy>
-1.11

>  <melting_point>
40.99

>  <molecular_refractivity>
47.65

>  <oscillator_strength_1>
0.001

>  <oscillator_strength_2>
0.1014

>  <oscillator_strength_3>
0.0563

>  <oscillator_strength_4>
0.0856

>  <open_babel_can_smiles>
SC(=S)N1CCOCC1

>  <mulliken_charges>
18
1   -0.170694
2   -0.162838
3   -0.03216
4   -0.044672
5   -0.036741
6   -0.336125
7   -0.458245
8   -0.208545
9   0.053767
10   0.168388
11   0.162402
12   0.208775
13   0.163154
14   0.143867
15   0.16014
16   0.162074
17   0.151171
18   0.076283

>  <lowdin_charges>
18
1   -0.21849
2   -0.210707
3   -0.135342
4   -0.137483
5   -0.158616
6   -0.075558
7   -0.26687
8   -0.194577
9   0.028306
10   0.154349
11   0.169412
12   0.189402
13   0.153149
14   0.137023
15   0.158546
16   0.1628
17   0.141496
18   0.103159

$$$$

