PCCDB-ID:  15262
public computational chemistry database (PCCDB) project, http://pccdb.org

 25 26  0  0  1  0  0  0  0  0999 V2000
    0.8828   -0.0155    0.0337 C   0  0  0  0  0  0  0  0  0  0  0  0
    3.8252   -2.1769   -3.4916 C   0  0  0  0  0  0  0  0  0  0  0  0
    3.3553   -2.8321   -2.3508 C   0  0  0  0  0  0  0  0  0  0  0  0
    2.6998    2.2120   -1.4252 C   0  0  0  0  0  0  0  0  0  0  0  0
    2.8988    1.5491   -0.0574 C   0  0  0  0  0  0  0  0  0  0  0  0
    3.8589   -0.7859   -3.5167 C   0  0  0  0  0  0  0  0  0  0  0  0
    3.5411    1.4932   -2.4857 C   0  0  0  0  0  0  0  0  0  0  0  0
    2.9210   -2.0827   -1.2615 C   0  0  0  0  0  0  0  0  0  0  0  0
    2.4206    0.0836   -0.0618 C   0  0  2  0  0  0  0  0  0  0  0  0
    3.4279   -0.0209   -2.4222 C   0  0  0  0  0  0  0  0  0  0  0  0
    2.9431   -0.6792   -1.2770 C   0  0  0  0  0  0  0  0  0  0  0  0
    0.5201    0.4781    0.9437 H   0  0  0  0  0  0  0  0  0  0  0  0
    0.5561   -1.0605    0.0620 H   0  0  0  0  0  0  0  0  0  0  0  0
    0.3947    0.4554   -0.8268 H   0  0  0  0  0  0  0  0  0  0  0  0
    4.1644   -2.7463   -4.3531 H   0  0  0  0  0  0  0  0  0  0  0  0
    3.3294   -3.9180   -2.3108 H   0  0  0  0  0  0  0  0  0  0  0  0
    2.9783    3.2719   -1.3836 H   0  0  0  0  0  0  0  0  0  0  0  0
    1.6389    2.1790   -1.7061 H   0  0  0  0  0  0  0  0  0  0  0  0
    2.3708    2.1060    0.7270 H   0  0  0  0  0  0  0  0  0  0  0  0
    3.9675    1.5812    0.1978 H   0  0  0  0  0  0  0  0  0  0  0  0
    4.2309   -0.2725   -4.4016 H   0  0  0  0  0  0  0  0  0  0  0  0
    4.5977    1.7707   -2.3464 H   0  0  0  0  0  0  0  0  0  0  0  0
    3.2729    1.8420   -3.4913 H   0  0  0  0  0  0  0  0  0  0  0  0
    2.5559   -2.5925   -0.3717 H   0  0  0  0  0  0  0  0  0  0  0  0
    2.8258   -0.4058    0.8354 H   0  0  0  0  0  0  0  0  0  0  0  0
  1 13  1  0  0  0  0
  1 12  1  0  0  0  0
  2  3  1  0  0  0  0
  3 16  1  0  0  0  0
  3  8  2  0  0  0  0
  4 17  1  0  0  0  0
  4  5  1  0  0  0  0
  5 20  1  0  0  0  0
  5 19  1  0  0  0  0
  6  2  2  0  0  0  0
  6 10  1  0  0  0  0
  7 10  1  0  0  0  0
  7 22  1  0  0  0  0
  7  4  1  0  0  0  0
  8 24  1  0  0  0  0
  9  5  1  0  0  0  0
  9  1  1  0  0  0  0
  9 25  1  1  0  0  0
 10 11  2  0  0  0  0
 11  8  1  0  0  0  0
 11  9  1  0  0  0  0
 14  1  1  0  0  0  0
 15  2  1  0  0  0  0
 18  4  1  0  0  0  0
 21  6  1  0  0  0  0
 23  7  1  0  0  0  0
M  END
>  <HBA>
0

>  <HBD>
0

>  <TPSA>
0.0

>  <cid>
15262

>  <dipole>
0.52

>  <excitation_energy_1>
5.158

>  <excitation_energy_2>
5.731

>  <excitation_energy_3>
5.827

>  <excitation_energy_4>
6.0

>  <homo_energy>
-6.229

>  <homo_lumo_gap>
6.357

>  <logP>
3.126

>  <lumo_energy>
0.128

>  <melting_point>
32.58

>  <molecular_refractivity>
48.68

>  <oscillator_strength_1>
0.0072

>  <oscillator_strength_2>
0.0057

>  <oscillator_strength_3>
0.011

>  <oscillator_strength_4>
0.0018

>  <open_babel_can_smiles>
C[C@@H]1CCCc2c1cccc2

>  <mulliken_charges>
25
1   -0.442343
2   -0.129128
3   -0.130443
4   -0.271193
5   -0.269204
6   -0.187204
7   -0.34028
8   -0.187707
9   -0.155362
10   0.113705
11   0.121105
12   0.139034
13   0.146886
14   0.14856
15   0.123789
16   0.123622
17   0.132442
18   0.140191
19   0.129309
20   0.133861
21   0.117232
22   0.149832
23   0.143282
24   0.118667
25   0.131345

>  <lowdin_charges>
25
1   -0.443721
2   -0.161647
3   -0.1597
4   -0.274778
5   -0.276528
6   -0.166041
7   -0.274518
8   -0.165218
9   -0.124919
10   -0.015314
11   -0.014356
12   0.146687
13   0.150251
14   0.150024
15   0.156002
16   0.152999
17   0.143935
18   0.14061
19   0.144663
20   0.140524
21   0.152655
22   0.149423
23   0.150393
24   0.152512
25   0.146065

$$$$

