PCCDB-ID:  70818
public computational chemistry database (PCCDB) project, http://pccdb.org

 30 31  0  0  0  0  0  0  0  0999 V2000
    0.9985    0.0233    0.0250 C   0  0  0  0  0  0  0  0  0  0  0  0
    3.4545   -3.5582   -1.9725 C   0  0  0  0  0  0  0  0  0  0  0  0
    2.4112   -4.6911    0.0517 C   0  0  0  0  0  0  0  0  0  0  0  0
    4.4705    1.2210    0.1592 C   0  0  0  0  0  0  0  0  0  0  0  0
    6.7756    0.1935    0.1793 C   0  0  0  0  0  0  0  0  0  0  0  0
    5.3520   -2.4863    0.0092 C   0  0  0  0  0  0  0  0  0  0  0  0
    2.5033    0.0337    0.0480 C   0  0  0  0  0  0  0  0  0  0  0  0
    5.2696    0.0805    0.1108 C   0  0  0  0  0  0  0  0  0  0  0  0
    4.6215   -1.1666    0.0283 C   0  0  0  0  0  0  0  0  0  0  0  0
    3.2280   -1.1767   -0.0186 C   0  0  0  0  0  0  0  0  0  0  0  0
    3.2492   -3.5283   -0.4541 C   0  0  0  0  0  0  0  0  0  0  0  0
    3.1297    1.2088    0.1350 N   0  0  0  0  0  0  0  0  0  0  0  0
    7.3383   -0.4344    1.3350 O   0  0  0  0  0  0  0  0  0  0  0  0
    4.4621   -3.5719    0.2632 O   0  0  0  0  0  0  0  0  0  0  0  0
    2.5051   -2.3319   -0.1113 O   0  0  0  0  0  0  0  0  0  0  0  0
    0.5927   -0.5353    0.8774 H   0  0  0  0  0  0  0  0  0  0  0  0
    0.6183   -0.4662   -0.8795 H   0  0  0  0  0  0  0  0  0  0  0  0
    0.6317    1.0510    0.0615 H   0  0  0  0  0  0  0  0  0  0  0  0
    4.0452   -4.4368   -2.2504 H   0  0  0  0  0  0  0  0  0  0  0  0
    3.9707   -2.6622   -2.3286 H   0  0  0  0  0  0  0  0  0  0  0  0
    2.4854   -3.6088   -2.4768 H   0  0  0  0  0  0  0  0  0  0  0  0
    2.8932   -5.6384   -0.2053 H   0  0  0  0  0  0  0  0  0  0  0  0
    1.4145   -4.6615   -0.3969 H   0  0  0  0  0  0  0  0  0  0  0  0
    2.3170   -4.6232    1.1384 H   0  0  0  0  0  0  0  0  0  0  0  0
    4.9351    2.2049    0.2235 H   0  0  0  0  0  0  0  0  0  0  0  0
    7.0640    1.2542    0.1281 H   0  0  0  0  0  0  0  0  0  0  0  0
    7.2495   -0.3112   -0.6700 H   0  0  0  0  0  0  0  0  0  0  0  0
    6.1021   -2.5179    0.8020 H   0  0  0  0  0  0  0  0  0  0  0  0
    5.8821   -2.6316   -0.9465 H   0  0  0  0  0  0  0  0  0  0  0  0
    6.8989   -0.0501    2.1105 H   0  0  0  0  0  0  0  0  0  0  0  0
  1  7  1  0  0  0  0
  1 18  1  0  0  0  0
  1 16  1  0  0  0  0
  2 11  1  0  0  0  0
  3 24  1  0  0  0  0
  4 25  1  0  0  0  0
  5 13  1  0  0  0  0
  6  9  1  0  0  0  0
  6 14  1  0  0  0  0
  6 28  1  0  0  0  0
  7 12  2  0  0  0  0
  8  4  2  0  0  0  0
  8  5  1  0  0  0  0
  9  8  1  0  0  0  0
 10  9  2  0  0  0  0
 10  7  1  0  0  0  0
 11 15  1  0  0  0  0
 11  3  1  0  0  0  0
 11 14  1  0  0  0  0
 12  4  1  0  0  0  0
 13 30  1  0  0  0  0
 15 10  1  0  0  0  0
 17  1  1  0  0  0  0
 19  2  1  0  0  0  0
 20  2  1  0  0  0  0
 21  2  1  0  0  0  0
 22  3  1  0  0  0  0
 23  3  1  0  0  0  0
 26  5  1  0  0  0  0
 27  5  1  0  0  0  0
 29  6  1  0  0  0  0
M  END
>  <HBA>
4

>  <HBD>
1

>  <TPSA>
51.58

>  <cid>
70818

>  <dipole>
1.53

>  <excitation_energy_1>
4.719

>  <excitation_energy_2>
4.824

>  <excitation_energy_3>
5.348

>  <excitation_energy_4>
5.561

>  <homo_energy>
-6.133

>  <homo_lumo_gap>
5.491

>  <logP>
1.527

>  <lumo_energy>
-0.642

>  <melting_point>
80.39

>  <molecular_refractivity>
55.41

>  <oscillator_strength_1>
0.0511

>  <oscillator_strength_2>
0.0577

>  <oscillator_strength_3>
0.0038

>  <oscillator_strength_4>
0.0271

>  <open_babel_can_smiles>
OCc1cnc(c2c1COC(O2)(C)C)C

>  <mulliken_charges>
30
1   -0.503905
2   -0.464248
3   -0.463981
4   -0.034216
5   -0.118058
6   -0.100775
7   0.252286
8   0.053083
9   0.066746
10   0.301783
11   0.501449
12   -0.469666
13   -0.606649
14   -0.489179
15   -0.552745
16   0.165837
17   0.161502
18   0.170776
19   0.159989
20   0.157587
21   0.161892
22   0.158188
23   0.156868
24   0.170761
25   0.130626
26   0.139905
27   0.155653
28   0.198868
29   0.147266
30   0.392358

>  <lowdin_charges>
30
1   -0.444513
2   -0.465314
3   -0.442038
4   -0.123408
5   -0.131321
6   -0.136515
7   0.036139
8   -0.057192
9   -0.045049
10   0.068865
11   0.222753
12   -0.152856
13   -0.465704
14   -0.250177
15   -0.204673
16   0.165951
17   0.163723
18   0.168069
19   0.163228
20   0.162018
21   0.164876
22   0.162924
23   0.161538
24   0.166832
25   0.151759
26   0.13835
27   0.154024
28   0.179491
29   0.142514
30   0.345708

$$$$

