PCCDB-ID:  21477
public computational chemistry database (PCCDB) project, http://pccdb.org

 32 34  0  0  0  0  0  0  0  0999 V2000
    2.6175   -0.9760    1.9618 C   0  0  0  0  0  0  0  0  0  0  0  0
    3.1778    0.2389    1.5153 C   0  0  0  0  0  0  0  0  0  0  0  0
    1.4816   -1.5065    1.3636 C   0  0  0  0  0  0  0  0  0  0  0  0
    2.6145    0.9472    0.4601 C   0  0  0  0  0  0  0  0  0  0  0  0
    0.0117   -3.8044   -1.7140 C   0  0  0  0  0  0  0  0  0  0  0  0
   -1.5827   -4.5578   -0.0923 C   0  0  0  0  0  0  0  0  0  0  0  0
    0.6964   -5.1660   -1.6308 C   0  0  0  0  0  0  0  0  0  0  0  0
   -0.8595   -5.9025   -0.0463 C   0  0  0  0  0  0  0  0  0  0  0  0
   -0.3374   -0.0019   -1.4174 C   0  0  0  0  0  0  0  0  0  0  0  0
   -1.2599   -2.1730   -0.4144 C   0  0  0  0  0  0  0  0  0  0  0  0
   -0.2733   -1.0488   -0.5324 C   0  0  0  0  0  0  0  0  0  0  0  0
    0.8838   -0.8094    0.2987 C   0  0  0  0  0  0  0  0  0  0  0  0
    1.4690    0.4108   -0.1374 C   0  0  0  0  0  0  0  0  0  0  0  0
    0.6995    0.8816   -1.1835 N   0  0  0  0  0  0  0  0  0  0  0  0
   -0.6346   -3.4991   -0.4369 N   0  0  0  0  0  0  0  0  0  0  0  0
   -0.2257   -6.1927   -1.2841 O   0  0  0  0  0  0  0  0  0  0  0  0
    3.0890   -1.5064    2.7848 H   0  0  0  0  0  0  0  0  0  0  0  0
    4.0682    0.6274    2.0022 H   0  0  0  0  0  0  0  0  0  0  0  0
    1.0650   -2.4542    1.6901 H   0  0  0  0  0  0  0  0  0  0  0  0
    3.0483    1.8824    0.1148 H   0  0  0  0  0  0  0  0  0  0  0  0
   -0.7227   -3.8175   -2.5449 H   0  0  0  0  0  0  0  0  0  0  0  0
    0.7522   -3.0282   -1.9329 H   0  0  0  0  0  0  0  0  0  0  0  0
   -2.0195   -4.3404    0.8907 H   0  0  0  0  0  0  0  0  0  0  0  0
   -2.4134   -4.6206   -0.8240 H   0  0  0  0  0  0  0  0  0  0  0  0
    1.5094   -5.1205   -0.8878 H   0  0  0  0  0  0  0  0  0  0  0  0
    1.1198   -5.4468   -2.6000 H   0  0  0  0  0  0  0  0  0  0  0  0
   -1.5673   -6.7167    0.1381 H   0  0  0  0  0  0  0  0  0  0  0  0
   -0.1153   -5.8884    0.7674 H   0  0  0  0  0  0  0  0  0  0  0  0
   -1.0574    0.1916   -2.2015 H   0  0  0  0  0  0  0  0  0  0  0  0
   -2.0269   -2.0693   -1.2092 H   0  0  0  0  0  0  0  0  0  0  0  0
   -1.7957   -2.0973    0.5426 H   0  0  0  0  0  0  0  0  0  0  0  0
    0.8796    1.7212   -1.7108 H   0  0  0  0  0  0  0  0  0  0  0  0
  1 17  1  0  0  0  0
  2  1  1  0  0  0  0
  2 18  1  0  0  0  0
  3 19  1  0  0  0  0
  3  1  2  0  0  0  0
  4  2  2  0  0  0  0
  5  7  1  0  0  0  0
  5 15  1  0  0  0  0
  6  8  1  0  0  0  0
  6 23  1  0  0  0  0
  7 16  1  0  0  0  0
  7 25  1  0  0  0  0
  8 27  1  0  0  0  0
  8 28  1  0  0  0  0
  9 14  1  0  0  0  0
  9 11  2  0  0  0  0
 10 31  1  0  0  0  0
 11 10  1  0  0  0  0
 11 12  1  0  0  0  0
 12  3  1  0  0  0  0
 13 12  2  0  0  0  0
 13  4  1  0  0  0  0
 14 13  1  0  0  0  0
 15 10  1  0  0  0  0
 15  6  1  0  0  0  0
 16  8  1  0  0  0  0
 20  4  1  0  0  0  0
 21  5  1  0  0  0  0
 22  5  1  0  0  0  0
 24  6  1  0  0  0  0
 26  7  1  0  0  0  0
 29  9  1  0  0  0  0
 30 10  1  0  0  0  0
 32 14  1  0  0  0  0
M  END
>  <HBA>
2

>  <HBD>
1

>  <TPSA>
28.26

>  <cid>
21477

>  <dipole>
2.98

>  <excitation_energy_1>
4.644

>  <excitation_energy_2>
4.757

>  <excitation_energy_3>
4.799

>  <excitation_energy_4>
4.871

>  <homo_energy>
-5.399

>  <homo_lumo_gap>
5.301

>  <logP>
1.938

>  <lumo_energy>
-0.098

>  <melting_point>
113.37

>  <molecular_refractivity>
68.27

>  <oscillator_strength_1>
0.069

>  <oscillator_strength_2>
0.0011

>  <oscillator_strength_3>
0.0098

>  <oscillator_strength_4>
0.0166

>  <open_babel_can_smiles>
O1CCN(CC1)Cc1c[nH]c2c1cccc2

>  <mulliken_charges>
32
1   -0.142421
2   -0.149838
3   -0.201874
4   -0.16477
5   -0.133312
6   -0.127865
7   -0.035588
8   -0.030948
9   -0.003585
10   -0.191958
11   0.059225
12   0.083469
13   0.311038
14   -0.691026
15   -0.398344
16   -0.468726
17   0.119116
18   0.121392
19   0.135735
20   0.118922
21   0.111549
22   0.155139
23   0.136348
24   0.116396
25   0.13088
26   0.142197
27   0.141935
28   0.126562
29   0.147381
30   0.111308
31   0.145644
32   0.326022

>  <lowdin_charges>
32
1   -0.178764
2   -0.164035
3   -0.158447
4   -0.189925
5   -0.219925
6   -0.216739
7   -0.137342
8   -0.138218
9   -0.136503
10   -0.18928
11   -0.070273
12   -0.032175
13   0.030595
14   -0.200761
15   -0.190396
16   -0.275041
17   0.154756
18   0.15527
19   0.162448
20   0.154203
21   0.119492
22   0.159454
23   0.147258
24   0.121108
25   0.13334
26   0.150061
27   0.150858
28   0.131164
29   0.164566
30   0.122579
31   0.14968
32   0.29099

$$$$

