PCCDB-ID:  10297
public computational chemistry database (PCCDB) project, http://pccdb.org

 24 24  0  0  1  0  0  0  0  0999 V2000
    0.9849   -0.0910    0.1184 C   0  0  0  0  0  0  0  0  0  0  0  0
    7.3841   -0.6417   -1.3188 C   0  0  0  0  0  0  0  0  0  0  0  0
    6.5998   -1.7680   -1.0576 C   0  0  0  0  0  0  0  0  0  0  0  0
    6.7669    0.5743   -1.6123 C   0  0  0  0  0  0  0  0  0  0  0  0
    5.2085   -1.6781   -1.0822 C   0  0  0  0  0  0  0  0  0  0  0  0
    5.3730    0.6610   -1.6427 C   0  0  0  0  0  0  0  0  0  0  0  0
    2.5169   -0.1226    0.0924 C   0  0  1  0  0  0  0  0  0  0  0  0
    4.5786   -0.4598   -1.3716 C   0  0  0  0  0  0  0  0  0  0  0  0
    3.0668   -0.3562   -1.3499 C   0  0  1  0  0  0  0  0  0  0  0  0
    3.0154    1.0984    0.7322 N   0  0  0  0  0  0  0  0  0  0  0  0
    2.5505   -1.5614   -1.9186 O   0  0  0  0  0  0  0  0  0  0  0  0
    0.5465   -1.0442   -0.1971 H   0  0  0  0  0  0  0  0  0  0  0  0
    0.5937    0.7025   -0.5342 H   0  0  0  0  0  0  0  0  0  0  0  0
    0.6406    0.1142    1.1359 H   0  0  0  0  0  0  0  0  0  0  0  0
    8.4683   -0.7142   -1.3006 H   0  0  0  0  0  0  0  0  0  0  0  0
    7.0739   -2.7211   -0.8372 H   0  0  0  0  0  0  0  0  0  0  0  0
    7.3673    1.4542   -1.8283 H   0  0  0  0  0  0  0  0  0  0  0  0
    4.5981   -2.5558   -0.8958 H   0  0  0  0  0  0  0  0  0  0  0  0
    4.8983    1.6078   -1.8912 H   0  0  0  0  0  0  0  0  0  0  0  0
    2.8575   -0.9693    0.7029 H   0  0  0  0  0  0  0  0  0  0  0  0
    2.7640    0.5132   -1.9611 H   0  0  0  0  0  0  0  0  0  0  0  0
    2.7259    1.9145    0.1916 H   0  0  0  0  0  0  0  0  0  0  0  0
    4.0343    1.1015    0.7294 H   0  0  0  0  0  0  0  0  0  0  0  0
    1.5868   -1.4744   -1.9638 H   0  0  0  0  0  0  0  0  0  0  0  0
  1 14  1  0  0  0  0
  2 15  1  0  0  0  0
  2  3  2  0  0  0  0
  3 16  1  0  0  0  0
  4  2  1  0  0  0  0
  5  3  1  0  0  0  0
  5 18  1  0  0  0  0
  6  4  2  0  0  0  0
  6  8  1  0  0  0  0
  7  1  1  0  0  0  0
  7 20  1  1  0  0  0
  7 10  1  0  0  0  0
  8  9  1  0  0  0  0
  8  5  2  0  0  0  0
  9 21  1  6  0  0  0
  9  7  1  0  0  0  0
 11  9  1  0  0  0  0
 12  1  1  0  0  0  0
 13  1  1  0  0  0  0
 17  4  1  0  0  0  0
 19  6  1  0  0  0  0
 22 10  1  0  0  0  0
 23 10  1  0  0  0  0
 24 11  1  0  0  0  0
M  END
>  <HBA>
2

>  <HBD>
2

>  <TPSA>
46.25

>  <cid>
10297

>  <dipole>
1.17

>  <excitation_energy_1>
5.265

>  <excitation_energy_2>
5.352

>  <excitation_energy_3>
5.482

>  <excitation_energy_4>
5.627

>  <homo_energy>
-6.177

>  <homo_lumo_gap>
6.136

>  <logP>
1.768

>  <lumo_energy>
-0.041

>  <melting_point>
78.69

>  <molecular_refractivity>
44.89

>  <oscillator_strength_1>
0.0099

>  <oscillator_strength_2>
0.0164

>  <oscillator_strength_3>
0.0132

>  <oscillator_strength_4>
0.0036

>  <open_babel_can_smiles>
O[C@H](c1ccccc1)[C@@H](N)C

>  <mulliken_charges>
24
1   -0.467182
2   -0.12769
3   -0.131883
4   -0.13065
5   -0.164495
6   -0.195729
7   0.015906
8   0.147073
9   0.062029
10   -0.712572
11   -0.632952
12   0.137319
13   0.134436
14   0.174629
15   0.12921
16   0.13067
17   0.129062
18   0.148584
19   0.119096
20   0.143132
21   0.102188
22   0.285412
23   0.307308
24   0.3971

>  <lowdin_charges>
24
1   -0.456942
2   -0.155682
3   -0.153995
4   -0.159019
5   -0.154827
6   -0.175233
7   -0.080807
8   -0.010957
9   -0.018633
10   -0.546078
11   -0.456823
12   0.146802
13   0.143899
14   0.167805
15   0.155483
16   0.157997
17   0.15804
18   0.168481
19   0.151726
20   0.147197
21   0.12374
22   0.249038
23   0.25749
24   0.341297

$$$$

