PCCDB-ID:  10223
public computational chemistry database (PCCDB) project, http://pccdb.org

 39 40  0  0  1  0  0  0  0  0999 V2000
    5.2193    3.3137   -0.2502 C   0  0  0  0  0  0  0  0  0  0  0  0
    6.5671    4.7588    1.2863 C   0  0  0  0  0  0  0  0  0  0  0  0
    3.4011   -1.1787   -0.5340 C   0  0  0  0  0  0  0  0  0  0  0  0
    9.8410    0.3454    0.9465 C   0  0  0  0  0  0  0  0  0  0  0  0
    5.9016   -1.5828   -0.0160 C   0  0  0  0  0  0  0  0  0  0  0  0
    8.5731    1.8974    2.4823 C   0  0  0  0  0  0  0  0  0  0  0  0
    7.1891   -0.7434   -0.0857 C   0  0  0  0  0  0  0  0  0  0  0  0
    7.2249    2.3896    3.0383 C   0  0  0  0  0  0  0  0  0  0  0  0
    4.7593    0.4190    0.8319 C   0  0  0  0  0  0  0  0  0  0  0  0
    6.3526    3.3162    0.7901 C   0  0  0  0  0  0  0  0  0  0  0  0
    4.6737   -0.7111    0.1198 C   0  0  0  0  0  0  0  0  0  0  0  0
    8.4869    0.7763    1.4606 C   0  0  0  0  0  0  0  0  0  0  0  0
    6.1100    2.3341    1.9729 C   0  0  1  0  0  0  0  0  0  0  0  0
    7.3097    0.2902    1.0202 C   0  0  0  0  0  0  0  0  0  0  0  0
    5.9940    0.8263    1.6041 C   0  0  2  0  0  0  0  0  0  0  0  0
    5.4308    4.0431   -1.0418 H   0  0  0  0  0  0  0  0  0  0  0  0
    4.2607    3.5947    0.2069 H   0  0  0  0  0  0  0  0  0  0  0  0
    5.0909    2.3367   -0.7222 H   0  0  0  0  0  0  0  0  0  0  0  0
    6.6702    5.4430    0.4358 H   0  0  0  0  0  0  0  0  0  0  0  0
    7.4665    4.8669    1.9006 H   0  0  0  0  0  0  0  0  0  0  0  0
    5.7110    5.1026    1.8825 H   0  0  0  0  0  0  0  0  0  0  0  0
    3.5251   -1.2817   -1.6214 H   0  0  0  0  0  0  0  0  0  0  0  0
    2.5714   -0.4880   -0.3500 H   0  0  0  0  0  0  0  0  0  0  0  0
    3.1046   -2.1700   -0.1617 H   0  0  0  0  0  0  0  0  0  0  0  0
   10.5169    0.1154    1.7819 H   0  0  0  0  0  0  0  0  0  0  0  0
   10.3188    1.1588    0.3806 H   0  0  0  0  0  0  0  0  0  0  0  0
    9.8073   -0.5292    0.2938 H   0  0  0  0  0  0  0  0  0  0  0  0
    5.9572   -2.2794    0.8360 H   0  0  0  0  0  0  0  0  0  0  0  0
    5.8302   -2.2113   -0.9134 H   0  0  0  0  0  0  0  0  0  0  0  0
    9.2214    1.5832    3.3143 H   0  0  0  0  0  0  0  0  0  0  0  0
    9.1118    2.7358    2.0113 H   0  0  0  0  0  0  0  0  0  0  0  0
    7.1917   -0.2239   -1.0565 H   0  0  0  0  0  0  0  0  0  0  0  0
    8.0547   -1.4130   -0.0973 H   0  0  0  0  0  0  0  0  0  0  0  0
    7.3400    3.3948    3.4561 H   0  0  0  0  0  0  0  0  0  0  0  0
    6.9226    1.7476    3.8757 H   0  0  0  0  0  0  0  0  0  0  0  0
    3.8737    1.0380    0.9707 H   0  0  0  0  0  0  0  0  0  0  0  0
    7.2692    3.0014    0.2733 H   0  0  0  0  0  0  0  0  0  0  0  0
    5.1637    2.6309    2.4530 H   0  0  0  0  0  0  0  0  0  0  0  0
    5.8683    0.3273    2.5830 H   0  0  0  0  0  0  0  0  0  0  0  0
  1 17  1  0  0  0  0
  1 10  1  0  0  0  0
  2 21  1  0  0  0  0
  2 20  1  0  0  0  0
  3 23  1  0  0  0  0
  3 24  1  0  0  0  0
  3 11  1  0  0  0  0
  4 12  1  0  0  0  0
  4 25  1  0  0  0  0
  5 11  1  0  0  0  0
  5 28  1  0  0  0  0
  6  8  1  0  0  0  0
  6 30  1  0  0  0  0
  7  5  1  0  0  0  0
  7 14  1  0  0  0  0
  8 34  1  0  0  0  0
  8 35  1  0  0  0  0
  9 36  1  0  0  0  0
  9 15  1  0  0  0  0
 10  2  1  0  0  0  0
 10 13  1  0  0  0  0
 11  9  2  0  0  0  0
 12  6  1  0  0  0  0
 13 38  1  1  0  0  0
 13  8  1  0  0  0  0
 14 12  2  0  0  0  0
 14 15  1  0  0  0  0
 15 13  1  0  0  0  0
 15 39  1  1  0  0  0
 16  1  1  0  0  0  0
 18  1  1  0  0  0  0
 19  2  1  0  0  0  0
 22  3  1  0  0  0  0
 26  4  1  0  0  0  0
 27  4  1  0  0  0  0
 29  5  1  0  0  0  0
 31  6  1  0  0  0  0
 32  7  1  0  0  0  0
 33  7  1  0  0  0  0
 37 10  1  0  0  0  0
M  END
>  <HBA>
0

>  <HBD>
0

>  <TPSA>
0.0

>  <cid>
10223

>  <dipole>
0.43

>  <excitation_energy_1>
5.153

>  <excitation_energy_2>
5.401

>  <excitation_energy_3>
5.483

>  <excitation_energy_4>
5.608

>  <homo_energy>
-5.695

>  <homo_lumo_gap>
6.487

>  <logP>
4.725

>  <lumo_energy>
0.792

>  <melting_point>
42.46

>  <molecular_refractivity>
69.04

>  <oscillator_strength_1>
0.0025

>  <oscillator_strength_2>
0.0078

>  <oscillator_strength_3>
0.0061

>  <oscillator_strength_4>
0.0155

>  <open_babel_can_smiles>
CC1=C[C@H]2C(=C(C)CC[C@H]2C(C)C)CC1

>  <mulliken_charges>
39
1   -0.454179
2   -0.45095
3   -0.515478
4   -0.513869
5   -0.334216
6   -0.32499
7   -0.340675
8   -0.281937
9   -0.17539
10   -0.06058
11   0.170774
12   0.098317
13   -0.09028
14   0.111252
15   -0.182719
16   0.132901
17   0.130903
18   0.158139
19   0.137518
20   0.142951
21   0.136262
22   0.149328
23   0.150781
24   0.150251
25   0.146376
26   0.150899
27   0.151381
28   0.146843
29   0.132951
30   0.136701
31   0.139086
32   0.150621
33   0.139942
34   0.133691
35   0.130254
36   0.112997
37   0.128414
38   0.106532
39   0.149197

>  <lowdin_charges>
39
1   -0.450284
2   -0.448205
3   -0.436757
4   -0.445889
5   -0.277156
6   -0.279823
7   -0.272929
8   -0.280637
9   -0.193424
10   -0.124085
11   -0.025027
12   -0.035351
13   -0.126427
14   -0.037375
15   -0.126449
16   0.145423
17   0.140821
18   0.157181
19   0.147918
20   0.147045
21   0.144544
22   0.15065
23   0.154806
24   0.152618
25   0.152218
26   0.154845
27   0.15482
28   0.149741
29   0.146218
30   0.148098
31   0.144459
32   0.151055
33   0.1502
34   0.144065
35   0.141493
36   0.149379
37   0.142341
38   0.133681
39   0.156198

$$$$

