PCCDB-ID:  17779
public computational chemistry database (PCCDB) project, http://pccdb.org

 24 24  0  0  1  0  0  0  0  0999 V2000
    0.8667    0.3102    0.5457 C   0  0  0  0  0  0  0  0  0  0  0  0
    5.5520    0.9517   -1.3664 C   0  0  0  0  0  0  0  0  0  0  0  0
    4.0436   -1.5206   -2.9618 C   0  0  0  0  0  0  0  0  0  0  0  0
    3.2311    1.0491   -0.2227 C   0  0  0  0  0  0  0  0  0  0  0  0
    2.3395   -1.0586   -1.0773 C   0  0  0  0  0  0  0  0  0  0  0  0
    2.2783   -0.1252    0.1476 C   0  0  2  0  0  0  0  0  0  0  0  0
    4.0689    0.5836   -1.4508 C   0  0  2  0  0  0  0  0  0  0  0  0
    3.7895   -0.9367   -1.5714 C   0  0  2  0  0  0  0  0  0  0  0  0
    0.8828    0.9678    1.4234 H   0  0  0  0  0  0  0  0  0  0  0  0
    0.2347   -0.5528    0.7886 H   0  0  0  0  0  0  0  0  0  0  0  0
    0.3819    0.8594   -0.2720 H   0  0  0  0  0  0  0  0  0  0  0  0
    5.6903    2.0378   -1.3021 H   0  0  0  0  0  0  0  0  0  0  0  0
    6.1077    0.6005   -2.2442 H   0  0  0  0  0  0  0  0  0  0  0  0
    6.0151    0.5053   -0.4767 H   0  0  0  0  0  0  0  0  0  0  0  0
    3.8241   -2.5947   -2.9906 H   0  0  0  0  0  0  0  0  0  0  0  0
    5.0876   -1.3898   -3.2709 H   0  0  0  0  0  0  0  0  0  0  0  0
    3.4098   -1.0312   -3.7129 H   0  0  0  0  0  0  0  0  0  0  0  0
    3.8789    1.3093    0.6236 H   0  0  0  0  0  0  0  0  0  0  0  0
    2.6606    1.9547   -0.4644 H   0  0  0  0  0  0  0  0  0  0  0  0
    1.6546   -0.6965   -1.8600 H   0  0  0  0  0  0  0  0  0  0  0  0
    2.0457   -2.0893   -0.8433 H   0  0  0  0  0  0  0  0  0  0  0  0
    2.7189   -0.6676    0.9966 H   0  0  0  0  0  0  0  0  0  0  0  0
    3.6512    1.0582   -2.3519 H   0  0  0  0  0  0  0  0  0  0  0  0
    4.4386   -1.4592   -0.8495 H   0  0  0  0  0  0  0  0  0  0  0  0
  1 10  1  0  0  0  0
  1  9  1  0  0  0  0
  2 12  1  0  0  0  0
  2 14  1  0  0  0  0
  3  8  1  0  0  0  0
  4  6  1  0  0  0  0
  4 18  1  0  0  0  0
  5 21  1  0  0  0  0
  5  6  1  0  0  0  0
  6  1  1  0  0  0  0
  6 22  1  1  0  0  0
  7 23  1  6  0  0  0
  7  2  1  0  0  0  0
  7  4  1  0  0  0  0
  8  7  1  0  0  0  0
  8  5  1  0  0  0  0
  8 24  1  1  0  0  0
 11  1  1  0  0  0  0
 13  2  1  0  0  0  0
 15  3  1  0  0  0  0
 16  3  1  0  0  0  0
 17  3  1  0  0  0  0
 19  4  1  0  0  0  0
 20  5  1  0  0  0  0
M  END
>  <HBA>
0

>  <HBD>
0

>  <TPSA>
0.0

>  <cid>
17779

>  <dipole>
0.07

>  <excitation_energy_1>
7.56

>  <excitation_energy_2>
7.659

>  <excitation_energy_3>
7.717

>  <excitation_energy_4>
7.895

>  <homo_energy>
-8.033

>  <homo_lumo_gap>
10.357

>  <logP>
2.688

>  <lumo_energy>
2.324

>  <melting_point>
-5.31

>  <molecular_refractivity>
38.46

>  <oscillator_strength_1>
0.0117

>  <oscillator_strength_2>
0.0075

>  <oscillator_strength_3>
0.0063

>  <oscillator_strength_4>
0.0096

>  <open_babel_can_smiles>
C[C@@H]1C[C@H]([C@@H](C1)C)C

>  <mulliken_charges>
24
1   -0.451355
2   -0.456076
3   -0.45137
4   -0.284568
5   -0.266218
6   -0.068844
7   -0.065479
8   -0.074311
9   0.14053
10   0.13908
11   0.137488
12   0.141533
13   0.140755
14   0.137908
15   0.140334
16   0.14188
17   0.137586
18   0.130125
19   0.130691
20   0.121625
21   0.127061
22   0.120851
23   0.116501
24   0.114272

>  <lowdin_charges>
24
1   -0.445579
2   -0.444092
3   -0.442679
4   -0.28923
5   -0.28285
6   -0.12671
7   -0.128402
8   -0.12912
9   0.148013
10   0.147776
11   0.145168
12   0.146784
13   0.147391
14   0.144726
15   0.147128
16   0.146712
17   0.145921
18   0.143255
19   0.14295
20   0.136657
21   0.140653
22   0.136674
23   0.134753
24   0.134102

$$$$

