PCCDB-ID:  10861
public computational chemistry database (PCCDB) project, http://pccdb.org

 31 31  0  0  0  0  0  0  0  0999 V2000
    2.8120   -3.1780   -5.8045 C   0  0  0  0  0  0  0  0  0  0  0  0
    3.0084   -1.7481   -5.2904 C   0  0  0  0  0  0  0  0  0  0  0  0
    3.9377   -1.6767   -4.0712 C   0  0  0  0  0  0  0  0  0  0  0  0
   10.8684    0.1717    2.2289 C   0  0  0  0  0  0  0  0  0  0  0  0
    9.4846    0.0847    2.4150 C   0  0  0  0  0  0  0  0  0  0  0  0
   11.3917    0.1989    0.9357 C   0  0  0  0  0  0  0  0  0  0  0  0
    8.6313    0.0247    1.3186 C   0  0  0  0  0  0  0  0  0  0  0  0
   10.5362    0.1380   -0.1626 C   0  0  0  0  0  0  0  0  0  0  0  0
    8.2947   -0.0102   -1.1849 C   0  0  0  0  0  0  0  0  0  0  0  0
    6.9522   -0.0855   -1.2392 C   0  0  0  0  0  0  0  0  0  0  0  0
    4.1128   -0.2481   -3.5646 C   0  0  0  0  0  0  0  0  0  0  0  0
    9.1423    0.0508    0.0062 C   0  0  0  0  0  0  0  0  0  0  0  0
    6.2638   -0.1347   -2.5447 C   0  0  0  0  0  0  0  0  0  0  0  0
    6.8040   -0.1142   -3.6360 O   0  0  0  0  0  0  0  0  0  0  0  0
    4.9192   -0.2016   -2.3678 O   0  0  0  0  0  0  0  0  0  0  0  0
    2.1487   -3.2000   -6.6764 H   0  0  0  0  0  0  0  0  0  0  0  0
    2.3703   -3.8196   -5.0324 H   0  0  0  0  0  0  0  0  0  0  0  0
    3.7682   -3.6259   -6.1005 H   0  0  0  0  0  0  0  0  0  0  0  0
    2.0313   -1.3150   -5.0327 H   0  0  0  0  0  0  0  0  0  0  0  0
    3.4180   -1.1237   -6.0965 H   0  0  0  0  0  0  0  0  0  0  0  0
    4.9236   -2.0811   -4.3303 H   0  0  0  0  0  0  0  0  0  0  0  0
    3.5371   -2.2964   -3.2577 H   0  0  0  0  0  0  0  0  0  0  0  0
   11.5319    0.2168    3.0882 H   0  0  0  0  0  0  0  0  0  0  0  0
    9.0720    0.0626    3.4200 H   0  0  0  0  0  0  0  0  0  0  0  0
   12.4651    0.2674    0.7817 H   0  0  0  0  0  0  0  0  0  0  0  0
    7.5595   -0.0416    1.4796 H   0  0  0  0  0  0  0  0  0  0  0  0
   10.9451    0.1594   -1.1698 H   0  0  0  0  0  0  0  0  0  0  0  0
    8.8149    0.0103   -2.1418 H   0  0  0  0  0  0  0  0  0  0  0  0
    6.3218   -0.1113   -0.3563 H   0  0  0  0  0  0  0  0  0  0  0  0
    3.1536    0.1863   -3.2675 H   0  0  0  0  0  0  0  0  0  0  0  0
    4.5748    0.3831   -4.3287 H   0  0  0  0  0  0  0  0  0  0  0  0
  1  2  1  0  0  0  0
  1 17  1  0  0  0  0
  2 19  1  0  0  0  0
  2  3  1  0  0  0  0
  3 11  1  0  0  0  0
  3 22  1  0  0  0  0
  4  5  1  0  0  0  0
  4 23  1  0  0  0  0
  5 24  1  0  0  0  0
  6  4  2  0  0  0  0
  7 26  1  0  0  0  0
  7  5  2  0  0  0  0
  8 12  2  0  0  0  0
  8  6  1  0  0  0  0
  9 12  1  0  0  0  0
 10  9  2  0  0  0  0
 10 29  1  0  0  0  0
 11 30  1  0  0  0  0
 11 15  1  0  0  0  0
 12  7  1  0  0  0  0
 13 15  1  0  0  0  0
 13 10  1  0  0  0  0
 14 13  2  0  0  0  0
 16  1  1  0  0  0  0
 18  1  1  0  0  0  0
 20  2  1  0  0  0  0
 21  3  1  0  0  0  0
 25  6  1  0  0  0  0
 27  8  1  0  0  0  0
 28  9  1  0  0  0  0
 31 11  1  0  0  0  0
M  END
>  <HBA>
2

>  <HBD>
0

>  <TPSA>
26.3

>  <cid>
10861

>  <dipole>
1.85

>  <excitation_energy_1>
4.365

>  <excitation_energy_2>
4.433

>  <excitation_energy_3>
4.531

>  <excitation_energy_4>
5.509

>  <homo_energy>
-6.34

>  <homo_lumo_gap>
4.64

>  <logP>
3.043

>  <lumo_energy>
-1.701

>  <melting_point>
35.96

>  <molecular_refractivity>
61.85

>  <oscillator_strength_1>
0.7475

>  <oscillator_strength_2>
0.0038

>  <oscillator_strength_3>
0.01

>  <oscillator_strength_4>
0.1135

>  <open_babel_can_smiles>
CCCCOC(=O)/C=C/c1ccccc1

>  <mulliken_charges>
31
1   -0.440967
2   -0.258193
3   -0.271832
4   -0.123762
5   -0.13149
6   -0.131418
7   -0.171095
8   -0.187457
9   -0.148958
10   -0.21051
11   -0.042323
12   0.167609
13   0.625736
14   -0.504682
15   -0.487993
16   0.143969
17   0.143211
18   0.147377
19   0.131335
20   0.140164
21   0.160051
22   0.139574
23   0.13618
24   0.136233
25   0.136912
26   0.135726
27   0.140101
28   0.166442
29   0.148031
30   0.145698
31   0.166334

>  <lowdin_charges>
31
1   -0.444064
2   -0.272528
3   -0.287636
4   -0.148185
5   -0.152007
6   -0.151724
7   -0.144197
8   -0.148593
9   -0.102738
10   -0.205182
11   -0.134714
12   -0.007954
13   0.197632
14   -0.285689
15   -0.197239
16   0.150891
17   0.148461
18   0.149527
19   0.13876
20   0.144473
21   0.15511
22   0.14596
23   0.161838
24   0.160228
25   0.159561
26   0.15893
27   0.161333
28   0.175245
29   0.167176
30   0.148986
31   0.15834

$$$$

