PCCDB-ID:  4650
public computational chemistry database (PCCDB) project, http://pccdb.org

 12 12  0  0  0  0  0  0  0  0999 V2000
    0.8918    1.1302    0.0187 C   0  0  0  0  0  0  0  0  0  0  0  0
   -0.4307    1.3643    0.0068 C   0  0  0  0  0  0  0  0  0  0  0  0
    0.4497   -1.3696    0.0195 C   0  0  0  0  0  0  0  0  0  0  0  0
   -0.8728   -1.1355    0.0077 C   0  0  0  0  0  0  0  0  0  0  0  0
    1.4325   -0.2544    0.0262 C   0  0  0  0  0  0  0  0  0  0  0  0
   -1.4136    0.2491    0.0008 C   0  0  0  0  0  0  0  0  0  0  0  0
    2.6387   -0.4677    0.0368 O   0  0  0  0  0  0  0  0  0  0  0  0
   -2.6197    0.4624   -0.0098 O   0  0  0  0  0  0  0  0  0  0  0  0
    1.6301    1.9272    0.0236 H   0  0  0  0  0  0  0  0  0  0  0  0
   -0.8506    2.3663    0.0014 H   0  0  0  0  0  0  0  0  0  0  0  0
    0.8696   -2.3716    0.0250 H   0  0  0  0  0  0  0  0  0  0  0  0
   -1.6111   -1.9326    0.0029 H   0  0  0  0  0  0  0  0  0  0  0  0
  1  9  1  0  0  0  0
  1  5  1  0  0  0  0
  2  1  2  0  0  0  0
  3 11  1  0  0  0  0
  3  5  1  0  0  0  0
  4  3  2  0  0  0  0
  5  7  2  0  0  0  0
  6  2  1  0  0  0  0
  6  4  1  0  0  0  0
  8  6  2  0  0  0  0
 10  2  1  0  0  0  0
 12  4  1  0  0  0  0
M  END
>  <HBA>
2

>  <HBD>
0

>  <TPSA>
34.14

>  <cid>
4650

>  <dipole>
0.0

>  <excitation_energy_1>
2.511

>  <excitation_energy_2>
2.705

>  <excitation_energy_3>
3.801

>  <excitation_energy_4>
4.899

>  <homo_energy>
-7.363

>  <homo_lumo_gap>
3.826

>  <logP>
0.251

>  <lumo_energy>
-3.538

>  <melting_point>
58.38

>  <molecular_refractivity>
28.29

>  <oscillator_strength_1>
0.0

>  <oscillator_strength_2>
0.0

>  <oscillator_strength_3>
0.0

>  <oscillator_strength_4>
0.332

>  <open_babel_can_smiles>
O=C1C=CC(=O)C=C1

>  <mulliken_charges>
12
1   -0.160833
2   -0.161335
3   -0.161223
4   -0.161018
5   0.434192
6   0.434276
7   -0.454687
8   -0.454691
9   0.171315
10   0.17134
11   0.171343
12   0.171321

>  <lowdin_charges>
12
1   -0.151241
2   -0.149563
3   -0.14956
4   -0.151251
5   0.144175
6   0.144178
7   -0.206677
8   -0.206678
9   0.182344
10   0.180963
11   0.180964
12   0.182346

$$$$

