PCCDB-ID:  29007
public computational chemistry database (PCCDB) project, http://pccdb.org

 30 30  0  0  0  0  0  0  0  0999 V2000
    3.0519   -0.9440   -1.0368 C   0  0  0  0  0  0  0  0  0  0  0  0
   10.9139   -4.6607   -3.9685 C   0  0  0  0  0  0  0  0  0  0  0  0
    3.6798    0.0478   -0.7544 C   0  0  0  0  0  0  0  0  0  0  0  0
    9.2625    1.3082   -4.4075 C   0  0  0  0  0  0  0  0  0  0  0  0
    8.3399    1.6783   -3.4357 C   0  0  0  0  0  0  0  0  0  0  0  0
    9.8457    0.0383   -4.4044 C   0  0  0  0  0  0  0  0  0  0  0  0
    4.4446    1.2523   -0.4091 C   0  0  0  0  0  0  0  0  0  0  0  0
    8.5711   -0.5028   -2.3979 C   0  0  0  0  0  0  0  0  0  0  0  0
    6.6232    0.3156   -0.5030 C   0  0  0  0  0  0  0  0  0  0  0  0
    7.9892    0.7703   -2.4258 C   0  0  0  0  0  0  0  0  0  0  0  0
    9.4896   -0.8436   -3.3908 C   0  0  0  0  0  0  0  0  0  0  0  0
   11.2907   -2.4427   -3.3081 C   0  0  0  0  0  0  0  0  0  0  0  0
   11.7898   -3.5781   -3.5464 N   0  0  0  0  0  0  0  0  0  0  0  0
   12.0461   -1.3896   -2.9234 O   0  0  0  0  0  0  0  0  0  0  0  0
    5.6738    0.9663    0.2697 O   0  0  0  0  0  0  0  0  0  0  0  0
    7.0874    1.2190   -1.5049 O   0  0  0  0  0  0  0  0  0  0  0  0
    9.9621   -2.1574   -3.3684 O   0  0  0  0  0  0  0  0  0  0  0  0
    2.4930   -1.8185   -1.2831 H   0  0  0  0  0  0  0  0  0  0  0  0
   11.5233   -5.4524   -4.4144 H   0  0  0  0  0  0  0  0  0  0  0  0
   10.1618   -4.3417   -4.7022 H   0  0  0  0  0  0  0  0  0  0  0  0
   10.3779   -5.0945   -3.1131 H   0  0  0  0  0  0  0  0  0  0  0  0
    9.5309    2.0161   -5.1866 H   0  0  0  0  0  0  0  0  0  0  0  0
    7.8814    2.6616   -3.4337 H   0  0  0  0  0  0  0  0  0  0  0  0
   10.5637   -0.2556   -5.1619 H   0  0  0  0  0  0  0  0  0  0  0  0
    3.8756    1.8731    0.2894 H   0  0  0  0  0  0  0  0  0  0  0  0
    4.6406    1.8474   -1.3096 H   0  0  0  0  0  0  0  0  0  0  0  0
    8.3415   -1.2354   -1.6345 H   0  0  0  0  0  0  0  0  0  0  0  0
    6.2121   -0.5850   -0.9840 H   0  0  0  0  0  0  0  0  0  0  0  0
    7.4398    0.0463    0.1763 H   0  0  0  0  0  0  0  0  0  0  0  0
   12.9563   -1.7341   -2.8987 H   0  0  0  0  0  0  0  0  0  0  0  0
  1  3  3  0  0  0  0
  2 13  1  0  0  0  0
  2 21  1  0  0  0  0
  3  7  1  0  0  0  0
  4  6  2  0  0  0  0
  4  5  1  0  0  0  0
  5 23  1  0  0  0  0
  5 10  2  0  0  0  0
  6 11  1  0  0  0  0
  7 15  1  0  0  0  0
  7 25  1  0  0  0  0
  8 27  1  0  0  0  0
  9 29  1  0  0  0  0
  9 15  1  0  0  0  0
 10  8  1  0  0  0  0
 10 16  1  0  0  0  0
 11 17  1  0  0  0  0
 11  8  2  0  0  0  0
 12 14  1  0  0  0  0
 13 12  2  0  0  0  0
 14 30  1  0  0  0  0
 16  9  1  0  0  0  0
 17 12  1  0  0  0  0
 18  1  1  0  0  0  0
 19  2  1  0  0  0  0
 20  2  1  0  0  0  0
 22  4  1  0  0  0  0
 24  6  1  0  0  0  0
 26  7  1  0  0  0  0
 28  9  1  0  0  0  0
M  END
>  <HBA>
5

>  <HBD>
1

>  <TPSA>
56.79

>  <cid>
29007

>  <dipole>
1.23

>  <excitation_energy_1>
5.022

>  <excitation_energy_2>
5.594

>  <excitation_energy_3>
5.666

>  <excitation_energy_4>
5.734

>  <homo_energy>
-6.109

>  <homo_lumo_gap>
5.951

>  <logP>
1.782

>  <lumo_energy>
-0.158

>  <melting_point>
79.18

>  <molecular_refractivity>
61.29

>  <oscillator_strength_1>
0.0402

>  <oscillator_strength_2>
0.0566

>  <oscillator_strength_3>
0.0065

>  <oscillator_strength_4>
0.0028

>  <open_babel_can_smiles>
C#CCOCOc1cccc(c1)O/C(=N\C)/O

>  <mulliken_charges>
30
1   -0.464214
2   -0.317058
3   0.305392
4   -0.145442
5   -0.167112
6   -0.148264
7   -0.172456
8   -0.237618
9   0.18154
10   0.373707
11   0.353955
12   0.704803
13   -0.481076
14   -0.590729
15   -0.452186
16   -0.526795
17   -0.536698
18   0.197659
19   0.153493
20   0.148743
21   0.151366
22   0.13884
23   0.139913
24   0.140202
25   0.187679
26   0.187371
27   0.148785
28   0.145281
29   0.156802
30   0.424118

>  <lowdin_charges>
30
1   -0.232769
2   -0.355371
3   -0.058834
4   -0.138282
5   -0.188804
6   -0.192059
7   -0.120972
8   -0.22985
9   -0.019451
10   0.111002
11   0.115961
12   0.189265
13   -0.264416
14   -0.357178
15   -0.230838
16   -0.206925
17   -0.16023
18   0.209233
19   0.153064
20   0.144885
21   0.149419
22   0.164194
23   0.16799
24   0.169108
25   0.178983
26   0.168384
27   0.174557
28   0.136433
29   0.150948
30   0.372551

$$$$

