PCCDB-ID:  10044
public computational chemistry database (PCCDB) project, http://pccdb.org

 23 22  0  0  0  0  0  0  0  0999 V2000
    2.8392    1.1646    0.8378 C   0  0  0  0  0  0  0  0  0  0  0  0
    0.8418   -0.1559    0.1005 C   0  0  0  0  0  0  0  0  0  0  0  0
    2.4821   -1.3653   -2.1682 C   0  0  0  0  0  0  0  0  0  0  0  0
    2.4438    1.1407   -2.2858 C   0  0  0  0  0  0  0  0  0  0  0  0
    4.4742   -0.0627   -1.4343 C   0  0  0  0  0  0  0  0  0  0  0  0
    2.3748   -0.0461    0.0075 C   0  0  0  0  0  0  0  0  0  0  0  0
    2.9302   -0.0677   -1.4605 C   0  0  0  0  0  0  0  0  0  0  0  0
    2.4836    1.0690    1.8705 H   0  0  0  0  0  0  0  0  0  0  0  0
    2.4353    2.1049    0.4437 H   0  0  0  0  0  0  0  0  0  0  0  0
    3.9288    1.2568    0.8766 H   0  0  0  0  0  0  0  0  0  0  0  0
    0.5331   -0.2125    1.1511 H   0  0  0  0  0  0  0  0  0  0  0  0
    0.4525   -1.0465   -0.4016 H   0  0  0  0  0  0  0  0  0  0  0  0
    0.3460    0.7203   -0.3344 H   0  0  0  0  0  0  0  0  0  0  0  0
    2.9640   -1.4520   -3.1495 H   0  0  0  0  0  0  0  0  0  0  0  0
    1.4003   -1.3956   -2.3341 H   0  0  0  0  0  0  0  0  0  0  0  0
    2.7582   -2.2522   -1.5835 H   0  0  0  0  0  0  0  0  0  0  0  0
    2.8486    1.0930   -3.3043 H   0  0  0  0  0  0  0  0  0  0  0  0
    2.7701    2.0915   -1.8497 H   0  0  0  0  0  0  0  0  0  0  0  0
    1.3515    1.1653   -2.3699 H   0  0  0  0  0  0  0  0  0  0  0  0
    4.8744   -0.1984   -2.4463 H   0  0  0  0  0  0  0  0  0  0  0  0
    4.8639   -0.8784   -0.8119 H   0  0  0  0  0  0  0  0  0  0  0  0
    4.8799    0.8780   -1.0482 H   0  0  0  0  0  0  0  0  0  0  0  0
    2.7903   -0.9444    0.4911 H   0  0  0  0  0  0  0  0  0  0  0  0
  1 10  1  0  0  0  0
  1  8  1  0  0  0  0
  2 11  1  0  0  0  0
  3 16  1  0  0  0  0
  3  7  1  0  0  0  0
  4 18  1  0  0  0  0
  4  7  1  0  0  0  0
  5 22  1  0  0  0  0
  5 21  1  0  0  0  0
  6  2  1  0  0  0  0
  6 23  1  0  0  0  0
  6  1  1  0  0  0  0
  7  5  1  0  0  0  0
  7  6  1  0  0  0  0
  9  1  1  0  0  0  0
 12  2  1  0  0  0  0
 13  2  1  0  0  0  0
 14  3  1  0  0  0  0
 15  3  1  0  0  0  0
 17  4  1  0  0  0  0
 19  4  1  0  0  0  0
 20  5  1  0  0  0  0
M  END
>  <HBA>
0

>  <HBD>
0

>  <TPSA>
0.0

>  <cid>
10044

>  <dipole>
0.04

>  <excitation_energy_1>
7.574

>  <excitation_energy_2>
7.724

>  <excitation_energy_3>
7.854

>  <excitation_energy_4>
8.112

>  <homo_energy>
-8.074

>  <homo_lumo_gap>
10.123

>  <logP>
2.688

>  <lumo_energy>
2.049

>  <melting_point>
-8.54

>  <molecular_refractivity>
35.5

>  <oscillator_strength_1>
0.0073

>  <oscillator_strength_2>
0.0047

>  <oscillator_strength_3>
0.0304

>  <oscillator_strength_4>
0.1603

>  <open_babel_can_smiles>
CC(C(C)(C)C)C

>  <mulliken_charges>
23
1   -0.456357
2   -0.456043
3   -0.45006
4   -0.453228
5   -0.449812
6   -0.056355
7   0.112074
8   0.138618
9   0.141614
10   0.144258
11   0.138511
12   0.144346
13   0.141498
14   0.135883
15   0.142076
16   0.135919
17   0.136882
18   0.140995
19   0.14094
20   0.135891
21   0.135937
22   0.141951
23   0.114463

>  <lowdin_charges>
23
1   -0.446268
2   -0.449604
3   -0.442392
4   -0.44342
5   -0.445162
6   -0.121704
7   0.013583
8   0.147359
9   0.146085
10   0.147143
11   0.147185
12   0.149769
13   0.146667
14   0.145862
15   0.145469
16   0.145936
17   0.146753
18   0.147197
19   0.145225
20   0.145654
21   0.146473
22   0.147422
23   0.134765

$$$$

