PCCDB-ID:  23834
public computational chemistry database (PCCDB) project, http://pccdb.org

 36 35  0  0  0  0  0  0  0  0999 V2000
    4.2702   -5.6347    0.3954 C   0  0  0  0  0  0  0  0  0  0  0  0
   13.9769   -3.4548    3.4221 C   0  0  0  0  0  0  0  0  0  0  0  0
    3.7823   -4.2302    0.7652 C   0  0  0  0  0  0  0  0  0  0  0  0
   13.1510   -3.4017    2.1454 C   0  0  0  0  0  0  0  0  0  0  0  0
    4.5698   -3.6013    1.9215 C   0  0  0  0  0  0  0  0  0  0  0  0
    4.0858   -2.1947    2.2934 C   0  0  0  0  0  0  0  0  0  0  0  0
    4.8817   -1.5390    3.4422 C   0  0  0  0  0  0  0  0  0  0  0  0
    6.3150   -1.2415    3.0918 C   0  0  0  0  0  0  0  0  0  0  0  0
    7.3883   -1.7147    3.7315 C   0  0  0  0  0  0  0  0  0  0  0  0
    8.8180   -1.4044    3.3793 C   0  0  0  0  0  0  0  0  0  0  0  0
    9.6165   -2.6674    3.0249 C   0  0  0  0  0  0  0  0  0  0  0  0
   11.0820   -2.3839    2.7541 C   0  0  0  0  0  0  0  0  0  0  0  0
   11.6094   -1.2935    2.8169 O   0  0  0  0  0  0  0  0  0  0  0  0
   11.7356   -3.5229    2.4252 O   0  0  0  0  0  0  0  0  0  0  0  0
    3.6905   -6.0553   -0.4343 H   0  0  0  0  0  0  0  0  0  0  0  0
    4.1814   -6.3222    1.2457 H   0  0  0  0  0  0  0  0  0  0  0  0
    5.3243   -5.6204    0.0919 H   0  0  0  0  0  0  0  0  0  0  0  0
   15.0450   -3.4400    3.1756 H   0  0  0  0  0  0  0  0  0  0  0  0
   13.7664   -4.3702    3.9848 H   0  0  0  0  0  0  0  0  0  0  0  0
   13.7598   -2.5904    4.0558 H   0  0  0  0  0  0  0  0  0  0  0  0
    2.7161   -4.2712    1.0308 H   0  0  0  0  0  0  0  0  0  0  0  0
    3.8496   -3.5759   -0.1159 H   0  0  0  0  0  0  0  0  0  0  0  0
   13.3703   -4.2493    1.4912 H   0  0  0  0  0  0  0  0  0  0  0  0
   13.3243   -2.4696    1.6018 H   0  0  0  0  0  0  0  0  0  0  0  0
    5.6362   -3.5625    1.6600 H   0  0  0  0  0  0  0  0  0  0  0  0
    4.4990   -4.2535    2.8054 H   0  0  0  0  0  0  0  0  0  0  0  0
    3.0258   -2.2385    2.5803 H   0  0  0  0  0  0  0  0  0  0  0  0
    4.1342   -1.5455    1.4065 H   0  0  0  0  0  0  0  0  0  0  0  0
    4.8435   -2.1829    4.3314 H   0  0  0  0  0  0  0  0  0  0  0  0
    4.3772   -0.6000    3.7158 H   0  0  0  0  0  0  0  0  0  0  0  0
    6.4654   -0.5755    2.2380 H   0  0  0  0  0  0  0  0  0  0  0  0
    7.2395   -2.3816    4.5845 H   0  0  0  0  0  0  0  0  0  0  0  0
    9.3170   -0.9055    4.2211 H   0  0  0  0  0  0  0  0  0  0  0  0
    8.8586   -0.6997    2.5411 H   0  0  0  0  0  0  0  0  0  0  0  0
    9.1933   -3.1649    2.1432 H   0  0  0  0  0  0  0  0  0  0  0  0
    9.5622   -3.4093    3.8331 H   0  0  0  0  0  0  0  0  0  0  0  0
  1  3  1  0  0  0  0
  1 16  1  0  0  0  0
  2 19  1  0  0  0  0
  2 20  1  0  0  0  0
  3 21  1  0  0  0  0
  3  5  1  0  0  0  0
  4 14  1  0  0  0  0
  4  2  1  0  0  0  0
  5  6  1  0  0  0  0
  5 26  1  0  0  0  0
  6 27  1  0  0  0  0
  6  7  1  0  0  0  0
  7 30  1  0  0  0  0
  7 29  1  0  0  0  0
  8  7  1  0  0  0  0
  8  9  2  0  0  0  0
  9 32  1  0  0  0  0
 10  9  1  0  0  0  0
 10 33  1  0  0  0  0
 11 10  1  0  0  0  0
 11 36  1  0  0  0  0
 12 13  2  0  0  0  0
 12 11  1  0  0  0  0
 14 12  1  0  0  0  0
 15  1  1  0  0  0  0
 17  1  1  0  0  0  0
 18  2  1  0  0  0  0
 22  3  1  0  0  0  0
 23  4  1  0  0  0  0
 24  4  1  0  0  0  0
 25  5  1  0  0  0  0
 28  6  1  0  0  0  0
 31  8  1  0  0  0  0
 34 10  1  0  0  0  0
 35 11  1  0  0  0  0
M  END
>  <HBA>
2

>  <HBD>
0

>  <TPSA>
26.3

>  <cid>
23834

>  <dipole>
1.55

>  <excitation_energy_1>
5.778

>  <excitation_energy_2>
6.103

>  <excitation_energy_3>
6.131

>  <excitation_energy_4>
6.261

>  <homo_energy>
-6.493

>  <homo_lumo_gap>
6.925

>  <logP>
3.466

>  <lumo_energy>
0.433

>  <melting_point>
-8.32

>  <molecular_refractivity>
60.61

>  <oscillator_strength_1>
0.0005

>  <oscillator_strength_2>
0.0012

>  <oscillator_strength_3>
0.0119

>  <oscillator_strength_4>
0.1134

>  <open_babel_can_smiles>
CCCCC/C=C/CCC(=O)OCC

>  <mulliken_charges>
36
1   -0.441237
2   -0.461879
3   -0.246386
4   -0.043291
5   -0.241273
6   -0.258442
7   -0.303477
8   -0.089254
9   -0.099494
10   -0.298664
11   -0.361419
12   0.625469
13   -0.480946
14   -0.464601
15   0.140991
16   0.140703
17   0.140797
18   0.149807
19   0.156088
20   0.17619
21   0.129079
22   0.129397
23   0.15156
24   0.169062
25   0.134353
26   0.123519
27   0.129304
28   0.128421
29   0.1344
30   0.140265
31   0.116126
32   0.114518
33   0.159822
34   0.153635
35   0.176601
36   0.170256

>  <lowdin_charges>
36
1   -0.444439
2   -0.454674
3   -0.270538
4   -0.127384
5   -0.275831
6   -0.272689
7   -0.27193
8   -0.165375
9   -0.172968
10   -0.267504
11   -0.301554
12   0.197559
13   -0.26969
14   -0.199984
15   0.149704
16   0.146384
17   0.144591
18   0.157035
19   0.155739
20   0.165836
21   0.136275
22   0.138676
23   0.152455
24   0.158041
25   0.139994
26   0.136584
27   0.139113
28   0.138499
29   0.144204
30   0.14994
31   0.145199
32   0.14417
33   0.159668
34   0.155662
35   0.171009
36   0.168222

$$$$

