PCCDB-ID:  52311
public computational chemistry database (PCCDB) project, http://pccdb.org

 22 22  0  0  1  0  0  0  0  0999 V2000
   -2.4492    0.4017    0.2761 C   0  0  0  0  0  0  0  0  0  0  0  0
   -1.5217    1.4147    0.5272 C   0  0  0  0  0  0  0  0  0  0  0  0
   -2.0112   -0.8278   -0.2196 C   0  0  0  0  0  0  0  0  0  0  0  0
   -0.1659    1.1958    0.2817 C   0  0  0  0  0  0  0  0  0  0  0  0
   -0.6540   -1.0485   -0.4578 C   0  0  0  0  0  0  0  0  0  0  0  0
    2.4230   -0.7456    0.8861 C   0  0  0  0  0  0  0  0  0  0  0  0
    0.2807   -0.0372   -0.2084 C   0  0  0  0  0  0  0  0  0  0  0  0
    1.7614   -0.2805   -0.4168 C   0  0  2  0  0  0  0  0  0  0  0  0
    4.4443   -1.6217    1.6795 N   0  0  0  0  0  0  0  0  0  0  0  0
    1.9515   -1.2673   -1.4225 O   0  0  0  0  0  0  0  0  0  0  0  0
    3.7939   -0.9842    0.5597 O   0  0  0  0  0  0  0  0  0  0  0  0
   -3.5068    0.5724    0.4589 H   0  0  0  0  0  0  0  0  0  0  0  0
   -1.8539    2.3784    0.9044 H   0  0  0  0  0  0  0  0  0  0  0  0
   -2.7291   -1.6180   -0.4249 H   0  0  0  0  0  0  0  0  0  0  0  0
    0.5516    1.9933    0.4648 H   0  0  0  0  0  0  0  0  0  0  0  0
   -0.3078   -1.9966   -0.8551 H   0  0  0  0  0  0  0  0  0  0  0  0
    1.9522   -1.6710    1.2398 H   0  0  0  0  0  0  0  0  0  0  0  0
    2.3362    0.0177    1.6710 H   0  0  0  0  0  0  0  0  0  0  0  0
    2.2417    0.6653   -0.7190 H   0  0  0  0  0  0  0  0  0  0  0  0
    5.2239   -0.9920    1.8840 H   0  0  0  0  0  0  0  0  0  0  0  0
    4.8718   -2.4505    1.2598 H   0  0  0  0  0  0  0  0  0  0  0  0
    2.8751   -1.5550   -1.3262 H   0  0  0  0  0  0  0  0  0  0  0  0
  1 12  1  0  0  0  0
  1  2  2  0  0  0  0
  2 13  1  0  0  0  0
  3  1  1  0  0  0  0
  4 15  1  0  0  0  0
  4  2  1  0  0  0  0
  5  3  2  0  0  0  0
  5  7  1  0  0  0  0
  6 17  1  0  0  0  0
  6 18  1  0  0  0  0
  7  4  2  0  0  0  0
  8 19  1  6  0  0  0
  8  7  1  0  0  0  0
  8  6  1  0  0  0  0
  9 20  1  0  0  0  0
 10 22  1  0  0  0  0
 10  8  1  0  0  0  0
 11  6  1  0  0  0  0
 11  9  1  0  0  0  0
 14  3  1  0  0  0  0
 16  5  1  0  0  0  0
 21  9  1  0  0  0  0
M  END
>  <HBA>
3

>  <HBD>
2

>  <TPSA>
55.48

>  <cid>
52311

>  <dipole>
2.35

>  <excitation_energy_1>
5.302

>  <excitation_energy_2>
5.839

>  <excitation_energy_3>
6.059

>  <excitation_energy_4>
6.246

>  <homo_energy>
-6.419

>  <homo_lumo_gap>
6.471

>  <logP>
1.311

>  <lumo_energy>
0.052

>  <melting_point>
72.75

>  <molecular_refractivity>
41.17

>  <oscillator_strength_1>
0.0003

>  <oscillator_strength_2>
0.0628

>  <oscillator_strength_3>
0.0027

>  <oscillator_strength_4>
0.0079

>  <open_babel_can_smiles>
NOC[C@H](c1ccccc1)O

>  <mulliken_charges>
22
1   -0.126888
2   -0.131995
3   -0.132385
4   -0.178235
5   -0.165909
6   0.006684
7   0.131156
8   0.056497
9   -0.465926
10   -0.642838
11   -0.451347
12   0.127186
13   0.127655
14   0.128616
15   0.122056
16   0.150124
17   0.144687
18   0.132217
19   0.128608
20   0.319059
21   0.317698
22   0.403277

>  <lowdin_charges>
22
1   -0.157036
2   -0.156093
3   -0.156202
4   -0.168545
5   -0.15564
6   -0.149406
7   -0.011026
8   -0.004955
9   -0.397289
10   -0.459644
11   -0.264047
12   0.155015
13   0.156454
14   0.157925
15   0.154585
16   0.169014
17   0.14558
18   0.140565
19   0.135532
20   0.2611
21   0.260598
22   0.343517

$$$$

