PCCDB-ID:  11440
public computational chemistry database (PCCDB) project, http://pccdb.org

 28 28  0  0  0  0  0  0  0  0999 V2000
    1.7616    0.5893    0.3365 C   0  0  0  0  0  0  0  0  0  0  0  0
    3.5926   -0.2184   -1.2288 C   0  0  0  0  0  0  0  0  0  0  0  0
    4.4074   -4.3637    3.8753 C   0  0  0  0  0  0  0  0  0  0  0  0
    3.0061   -3.7768    1.8899 C   0  0  0  0  0  0  0  0  0  0  0  0
    3.9116   -1.1854    1.7554 C   0  0  0  0  0  0  0  0  0  0  0  0
    2.4627   -0.6408   -0.2703 C   0  0  0  0  0  0  0  0  0  0  0  0
    3.9456   -3.3695    2.8368 C   0  0  0  0  0  0  0  0  0  0  0  0
    2.9731   -1.5877    0.8090 C   0  0  0  0  0  0  0  0  0  0  0  0
    4.4083   -2.0328    2.7613 C   0  0  0  0  0  0  0  0  0  0  0  0
    2.5256   -2.9181    0.8954 C   0  0  0  0  0  0  0  0  0  0  0  0
    5.4075   -1.5152    3.7219 C   0  0  0  0  0  0  0  0  0  0  0  0
    1.6066   -3.3459   -0.0207 O   0  0  0  0  0  0  0  0  0  0  0  0
    5.7394   -0.2104    3.4977 O   0  0  0  0  0  0  0  0  0  0  0  0
    5.9196   -2.1334    4.6388 O   0  0  0  0  0  0  0  0  0  0  0  0
    1.3599    1.2309   -0.4568 H   0  0  0  0  0  0  0  0  0  0  0  0
    2.4550    1.1943    0.9329 H   0  0  0  0  0  0  0  0  0  0  0  0
    0.9323    0.2922    0.9876 H   0  0  0  0  0  0  0  0  0  0  0  0
    3.1999    0.4233   -2.0267 H   0  0  0  0  0  0  0  0  0  0  0  0
    4.0646   -1.0905   -1.6943 H   0  0  0  0  0  0  0  0  0  0  0  0
    4.3735    0.3442   -0.7030 H   0  0  0  0  0  0  0  0  0  0  0  0
    3.9064   -5.3259    3.7267 H   0  0  0  0  0  0  0  0  0  0  0  0
    4.1987   -4.0108    4.8895 H   0  0  0  0  0  0  0  0  0  0  0  0
    5.4893   -4.5189    3.8303 H   0  0  0  0  0  0  0  0  0  0  0  0
    2.6332   -4.7999    1.9252 H   0  0  0  0  0  0  0  0  0  0  0  0
    4.2838   -0.1678    1.7212 H   0  0  0  0  0  0  0  0  0  0  0  0
    1.7189   -1.1879   -0.8573 H   0  0  0  0  0  0  0  0  0  0  0  0
    1.3930   -4.2748    0.1591 H   0  0  0  0  0  0  0  0  0  0  0  0
    6.3930    0.0031    4.1883 H   0  0  0  0  0  0  0  0  0  0  0  0
  1 16  1  0  0  0  0
  1 17  1  0  0  0  0
  2 20  1  0  0  0  0
  2  6  1  0  0  0  0
  3 22  1  0  0  0  0
  4 24  1  0  0  0  0
  4  7  2  0  0  0  0
  5  9  2  0  0  0  0
  6  1  1  0  0  0  0
  6  8  1  0  0  0  0
  7  3  1  0  0  0  0
  8 10  2  0  0  0  0
  8  5  1  0  0  0  0
  9  7  1  0  0  0  0
  9 11  1  0  0  0  0
 10  4  1  0  0  0  0
 11 14  2  0  0  0  0
 12 27  1  0  0  0  0
 12 10  1  0  0  0  0
 13 11  1  0  0  0  0
 13 28  1  0  0  0  0
 15  1  1  0  0  0  0
 18  2  1  0  0  0  0
 19  2  1  0  0  0  0
 21  3  1  0  0  0  0
 23  3  1  0  0  0  0
 25  5  1  0  0  0  0
 26  6  1  0  0  0  0
M  END
>  <HBA>
3

>  <HBD>
2

>  <TPSA>
57.53

>  <cid>
11440

>  <dipole>
1.95

>  <excitation_energy_1>
4.665

>  <excitation_energy_2>
4.931

>  <excitation_energy_3>
4.997

>  <excitation_energy_4>
5.325

>  <homo_energy>
-6.163

>  <homo_lumo_gap>
5.233

>  <logP>
2.522

>  <lumo_energy>
-0.931

>  <melting_point>
143.97

>  <molecular_refractivity>
54.97

>  <oscillator_strength_1>
0.0584

>  <oscillator_strength_2>
0.0

>  <oscillator_strength_3>
0.1986

>  <oscillator_strength_4>
0.0001

>  <open_babel_can_smiles>
CC(c1cc(C(=O)O)c(cc1O)C)C

>  <mulliken_charges>
28
1   -0.440031
2   -0.438677
3   -0.504523
4   -0.264154
5   -0.256031
6   -0.156586
7   0.133624
8   0.153915
9   0.032223
10   0.307245
11   0.536868
12   -0.640653
13   -0.591099
14   -0.493723
15   0.141629
16   0.144446
17   0.14934
18   0.141467
19   0.149389
20   0.144274
21   0.136708
22   0.179447
23   0.179574
24   0.114996
25   0.162203
26   0.15777
27   0.412487
28   0.407872

>  <lowdin_charges>
28
1   -0.443642
2   -0.443031
3   -0.43632
4   -0.225614
5   -0.131011
6   -0.122762
7   0.038538
8   -0.035872
9   -0.079349
10   0.108815
11   0.199274
12   -0.368582
13   -0.373316
14   -0.282632
15   0.14977
16   0.148626
17   0.153261
18   0.149389
19   0.153387
20   0.148506
21   0.14668
22   0.172255
23   0.171383
24   0.150829
25   0.172387
26   0.159199
27   0.359015
28   0.36082

$$$$

