PCCDB-ID:  14060
public computational chemistry database (PCCDB) project, http://pccdb.org

 33 32  0  0  0  0  0  0  0  0999 V2000
    1.0770   -1.6628   -1.7023 C   0  0  0  0  0  0  0  0  0  0  0  0
    2.5175   -2.9843   -0.1585 C   0  0  0  0  0  0  0  0  0  0  0  0
    2.9907   -2.9698   -2.6295 C   0  0  0  0  0  0  0  0  0  0  0  0
    5.2867    0.6805   -0.7035 C   0  0  0  0  0  0  0  0  0  0  0  0
    5.5703   -1.7778   -0.2717 C   0  0  0  0  0  0  0  0  0  0  0  0
    3.3609   -0.8009   -1.2404 C   0  0  0  0  0  0  0  0  0  0  0  0
    6.7200   -0.8351   -3.0032 C   0  0  0  0  0  0  0  0  0  0  0  0
    2.5315   -2.1130   -1.4324 C   0  0  0  0  0  0  0  0  0  0  0  0
    4.9198   -0.7339   -1.2010 C   0  0  0  0  0  0  0  0  0  0  0  0
    7.6940   -0.5711   -2.2059 N   0  0  0  0  0  0  0  0  0  0  0  0
    6.8334   -1.1502   -4.3761 N   0  0  0  0  0  0  0  0  0  0  0  0
    5.3963   -0.8743   -2.5995 N   0  0  0  0  0  0  0  0  0  0  0  0
    0.4120   -2.5295   -1.8028 H   0  0  0  0  0  0  0  0  0  0  0  0
    1.0055   -1.0760   -2.6264 H   0  0  0  0  0  0  0  0  0  0  0  0
    0.6945   -1.0423   -0.8828 H   0  0  0  0  0  0  0  0  0  0  0  0
    1.8051   -3.8116   -0.2715 H   0  0  0  0  0  0  0  0  0  0  0  0
    2.2056   -2.3977    0.7143 H   0  0  0  0  0  0  0  0  0  0  0  0
    3.4935   -3.4208    0.0640 H   0  0  0  0  0  0  0  0  0  0  0  0
    2.3188   -3.8266   -2.7657 H   0  0  0  0  0  0  0  0  0  0  0  0
    3.9998   -3.3743   -2.4931 H   0  0  0  0  0  0  0  0  0  0  0  0
    2.9664   -2.3981   -3.5673 H   0  0  0  0  0  0  0  0  0  0  0  0
    4.9571    0.8094    0.3339 H   0  0  0  0  0  0  0  0  0  0  0  0
    4.7969    1.4438   -1.3187 H   0  0  0  0  0  0  0  0  0  0  0  0
    6.3669    0.8283   -0.7523 H   0  0  0  0  0  0  0  0  0  0  0  0
    5.1458   -1.7156    0.7367 H   0  0  0  0  0  0  0  0  0  0  0  0
    6.6452   -1.5927   -0.2164 H   0  0  0  0  0  0  0  0  0  0  0  0
    5.4246   -2.7967   -0.6439 H   0  0  0  0  0  0  0  0  0  0  0  0
    3.0108   -0.3525   -0.3011 H   0  0  0  0  0  0  0  0  0  0  0  0
    3.0579   -0.0996   -2.0309 H   0  0  0  0  0  0  0  0  0  0  0  0
    8.5701   -0.4887   -2.7244 H   0  0  0  0  0  0  0  0  0  0  0  0
    7.7569   -0.9622   -4.7484 H   0  0  0  0  0  0  0  0  0  0  0  0
    6.1210   -0.7097   -4.9506 H   0  0  0  0  0  0  0  0  0  0  0  0
    4.8473   -1.5158   -3.1534 H   0  0  0  0  0  0  0  0  0  0  0  0
  1  8  1  0  0  0  0
  1 15  1  0  0  0  0
  2 18  1  0  0  0  0
  2 17  1  0  0  0  0
  3 20  1  0  0  0  0
  3  8  1  0  0  0  0
  4 22  1  0  0  0  0
  5 26  1  0  0  0  0
  5 25  1  0  0  0  0
  6  9  1  0  0  0  0
  6 28  1  0  0  0  0
  7 12  1  0  0  0  0
  7 10  1  0  0  0  0
  8  6  1  0  0  0  0
  8  2  1  0  0  0  0
  9  4  1  0  0  0  0
  9  5  1  0  0  0  0
 11  7  2  0  0  0  0
 12  9  1  0  0  0  0
 13  1  1  0  0  0  0
 14  1  1  0  0  0  0
 16  2  1  0  0  0  0
 19  3  1  0  0  0  0
 21  3  1  0  0  0  0
 23  4  1  0  0  0  0
 24  4  1  0  0  0  0
 27  5  1  0  0  0  0
 29  6  1  0  0  0  0
 30 10  1  0  0  0  0
 31 11  1  0  0  0  0
 32 11  1  0  0  0  0
 33 12  1  0  0  0  0
M  RAD  1  10   2
M  END
>  <HBA>
3

>  <HBD>
2

>  <TPSA>
64.4

>  <cid>
14060

>  <dipole>
2.67

>  <excitation_energy_1>
5.135

>  <excitation_energy_2>
5.737

>  <excitation_energy_3>
5.84

>  <excitation_energy_4>
6.092

>  <homo_energy>
-5.872

>  <homo_lumo_gap>
7.434

>  <logP>
2.875

>  <lumo_energy>
1.562

>  <melting_point>
127.52

>  <molecular_refractivity>
54.25

>  <oscillator_strength_1>
0.0032

>  <oscillator_strength_2>
0.0066

>  <oscillator_strength_3>
0.0135

>  <oscillator_strength_4>
0.041

>  <open_babel_can_smiles>
[NH]C(=[NH2])NC(CC(C)(C)C)(C)C

>  <mulliken_charges>
33
1   -0.441173
2   -0.445389
3   -0.473219
4   -0.452315
5   -0.458743
6   -0.294513
7   0.602257
8   0.105281
9   0.237381
10   -0.649004
11   -0.759216
12   -0.642114
13   0.137639
14   0.136908
15   0.141134
16   0.134458
17   0.137279
18   0.151494
19   0.144348
20   0.155383
21   0.134899
22   0.129659
23   0.132439
24   0.191138
25   0.131502
26   0.190321
27   0.136047
28   0.131882
29   0.129962
30   0.261373
31   0.315383
32   0.318243
33   0.329275

>  <lowdin_charges>
33
1   -0.44272
2   -0.447207
3   -0.452476
4   -0.450449
5   -0.456182
6   -0.286779
7   0.132771
8   0.014231
9   0.085212
10   -0.485448
11   -0.520531
12   -0.31183
13   0.146647
14   0.14497
15   0.148943
16   0.145699
17   0.147219
18   0.153738
19   0.152444
20   0.150152
21   0.14233
22   0.143238
23   0.146446
24   0.172906
25   0.145425
26   0.173368
27   0.142838
28   0.148679
29   0.145331
30   0.245135
31   0.272172
32   0.276203
33   0.277527

$$$$

