PCCDB-ID:  26951
public computational chemistry database (PCCDB) project, http://pccdb.org

 23 23  0  0  0  0  0  0  0  0999 V2000
    0.9570   -0.6460   -0.2829 C   0  0  0  0  0  0  0  0  0  0  0  0
    3.3740   -0.8018    0.4977 C   0  0  0  0  0  0  0  0  0  0  0  0
    2.1345    3.2512    0.7811 C   0  0  0  0  0  0  0  0  0  0  0  0
    3.2161    2.1560   -2.5308 C   0  0  0  0  0  0  0  0  0  0  0  0
    2.1726    0.1335    0.2575 C   0  0  0  0  0  0  0  0  0  0  0  0
    2.9560    3.1741   -1.6368 C   0  0  0  0  0  0  0  0  0  0  0  0
    2.5539    1.2274   -0.7074 C   0  0  0  0  0  0  0  0  0  0  0  0
    2.9647    0.9608   -1.9493 N   0  0  0  0  0  0  0  0  0  0  0  0
    2.5274    2.5729   -0.4562 N   0  0  0  0  0  0  0  0  0  0  0  0
    3.0908    4.5706   -1.8444 N   0  0  0  0  0  0  0  0  0  0  0  0
    3.4969    4.9293   -2.9534 O   0  0  0  0  0  0  0  0  0  0  0  0
    2.7979    5.3418   -0.9183 O   0  0  0  0  0  0  0  0  0  0  0  0
    0.6863   -1.4518    0.4083 H   0  0  0  0  0  0  0  0  0  0  0  0
    1.1922   -1.0851   -1.2570 H   0  0  0  0  0  0  0  0  0  0  0  0
    0.0854    0.0064   -0.4057 H   0  0  0  0  0  0  0  0  0  0  0  0
    3.0971   -1.6012    1.1938 H   0  0  0  0  0  0  0  0  0  0  0  0
    4.2253   -0.2583    0.9220 H   0  0  0  0  0  0  0  0  0  0  0  0
    3.6965   -1.2543   -0.4447 H   0  0  0  0  0  0  0  0  0  0  0  0
    2.9635    3.8485    1.1621 H   0  0  0  0  0  0  0  0  0  0  0  0
    1.8551    2.4980    1.5157 H   0  0  0  0  0  0  0  0  0  0  0  0
    1.2902    3.9156    0.5942 H   0  0  0  0  0  0  0  0  0  0  0  0
    3.5673    2.2570   -3.5476 H   0  0  0  0  0  0  0  0  0  0  0  0
    1.8913    0.5768    1.2185 H   0  0  0  0  0  0  0  0  0  0  0  0
  1  5  1  0  0  0  0
  1 13  1  0  0  0  0
  2 17  1  0  0  0  0
  2 16  1  0  0  0  0
  3 19  1  0  0  0  0
  3 20  1  0  0  0  0
  4  8  1  0  0  0  0
  4  6  2  0  0  0  0
  5  2  1  0  0  0  0
  5 23  1  0  0  0  0
  6  9  1  0  0  0  0
  7  9  1  0  0  0  0
  7  5  1  0  0  0  0
  8  7  2  0  0  0  0
  9  3  1  0  0  0  0
 10  6  1  0  0  0  0
 10 12  2  0  0  0  0
 11 10  2  0  0  0  0
 14  1  1  0  0  0  0
 15  1  1  0  0  0  0
 18  2  1  0  0  0  0
 21  3  1  0  0  0  0
 22  4  1  0  0  0  0
M  END
>  <HBA>
2

>  <HBD>
0

>  <TPSA>
63.64

>  <cid>
26951

>  <dipole>
4.92

>  <excitation_energy_1>
3.831

>  <excitation_energy_2>
4.199

>  <excitation_energy_3>
4.268

>  <excitation_energy_4>
4.781

>  <homo_energy>
-6.863

>  <homo_lumo_gap>
4.65

>  <logP>
1.975

>  <lumo_energy>
-2.212

>  <melting_point>
64.29

>  <molecular_refractivity>
46.89

>  <oscillator_strength_1>
0.0001

>  <oscillator_strength_2>
0.2838

>  <oscillator_strength_3>
0.0009

>  <oscillator_strength_4>
0.0001

>  <open_babel_can_smiles>
CC(c1ncc(n1C)N(=O)=O)C

>  <mulliken_charges>
23
1   -0.442856
2   -0.442533
3   -0.318532
4   0.013138
5   -0.15976
6   0.4822
7   0.509048
8   -0.480524
9   -0.49516
10   0.332294
11   -0.405037
12   -0.429912
13   0.148498
14   0.179162
15   0.148375
16   0.147803
17   0.148799
18   0.179662
19   0.199876
20   0.170714
21   0.200019
22   0.178563
23   0.136164

>  <lowdin_charges>
23
1   -0.439371
2   -0.439936
3   -0.35091
4   -0.100381
5   -0.12665
6   -0.015893
7   0.080537
8   -0.186674
9   -0.001994
10   0.309842
11   -0.254877
12   -0.275392
13   0.153694
14   0.166239
15   0.152904
16   0.153392
17   0.153616
18   0.166963
19   0.179249
20   0.16617
21   0.178754
22   0.184129
23   0.14659

$$$$

