PCCDB-ID:  19990
public computational chemistry database (PCCDB) project, http://pccdb.org

 44 43  0  0  0  0  0  0  0  0999 V2000
    2.8518    3.3502   -8.2101 C   0  0  0  0  0  0  0  0  0  0  0  0
   -2.8034   10.7589   -1.1484 C   0  0  0  0  0  0  0  0  0  0  0  0
    1.3357    3.3640   -7.9523 C   0  0  0  0  0  0  0  0  0  0  0  0
   -3.0162    9.3060   -1.6011 C   0  0  0  0  0  0  0  0  0  0  0  0
   -0.3950    4.6490   -6.7188 C   0  0  0  0  0  0  0  0  0  0  0  0
   -4.7747    7.6043   -1.9741 C   0  0  0  0  0  0  0  0  0  0  0  0
   -1.3110    3.4894   -6.2815 C   0  0  0  0  0  0  0  0  0  0  0  0
   -4.3478    7.0356   -3.3385 C   0  0  0  0  0  0  0  0  0  0  0  0
   -2.9749    4.5512   -4.8094 C   0  0  0  0  0  0  0  0  0  0  0  0
   -4.4333    5.0168   -4.7446 C   0  0  0  0  0  0  0  0  0  0  0  0
    3.4385    4.6391   -8.5780 N   0  0  0  0  0  0  0  0  0  0  0  0
   -1.4096   11.1719   -0.9722 N   0  0  0  0  0  0  0  0  0  0  0  0
    1.0193    4.3173   -6.8869 N   0  0  0  0  0  0  0  0  0  0  0  0
   -4.4397    9.0019   -1.7181 N   0  0  0  0  0  0  0  0  0  0  0  0
   -2.6964    3.9294   -6.1037 N   0  0  0  0  0  0  0  0  0  0  0  0
   -4.7553    5.6380   -3.4579 N   0  0  0  0  0  0  0  0  0  0  0  0
    3.0797    2.6197   -8.9962 H   0  0  0  0  0  0  0  0  0  0  0  0
    3.3611    2.9924   -7.3029 H   0  0  0  0  0  0  0  0  0  0  0  0
   -3.3365   10.9157   -0.2040 H   0  0  0  0  0  0  0  0  0  0  0  0
   -3.2634   11.4388   -1.8793 H   0  0  0  0  0  0  0  0  0  0  0  0
    0.9883    2.3324   -7.7537 H   0  0  0  0  0  0  0  0  0  0  0  0
    0.8171    3.7018   -8.8608 H   0  0  0  0  0  0  0  0  0  0  0  0
   -2.5926    8.6291   -0.8453 H   0  0  0  0  0  0  0  0  0  0  0  0
   -2.4360    9.1360   -2.5301 H   0  0  0  0  0  0  0  0  0  0  0  0
   -0.4579    5.4632   -5.9860 H   0  0  0  0  0  0  0  0  0  0  0  0
   -0.7716    5.0530   -7.6661 H   0  0  0  0  0  0  0  0  0  0  0  0
   -4.3286    6.9915   -1.1815 H   0  0  0  0  0  0  0  0  0  0  0  0
   -5.8651    7.4992   -1.8721 H   0  0  0  0  0  0  0  0  0  0  0  0
   -0.8903    3.0228   -5.3675 H   0  0  0  0  0  0  0  0  0  0  0  0
   -1.3028    2.7182   -7.0602 H   0  0  0  0  0  0  0  0  0  0  0  0
   -3.2569    7.0885   -3.4313 H   0  0  0  0  0  0  0  0  0  0  0  0
   -4.7617    7.6748   -4.1464 H   0  0  0  0  0  0  0  0  0  0  0  0
   -2.7759    3.8837   -3.9505 H   0  0  0  0  0  0  0  0  0  0  0  0
   -2.3097    5.4147   -4.6939 H   0  0  0  0  0  0  0  0  0  0  0  0
   -5.0839    4.1392   -4.8612 H   0  0  0  0  0  0  0  0  0  0  0  0
   -4.6306    5.6779   -5.6079 H   0  0  0  0  0  0  0  0  0  0  0  0
    3.0875    4.9134   -9.4960 H   0  0  0  0  0  0  0  0  0  0  0  0
    3.0674    5.3345   -7.9292 H   0  0  0  0  0  0  0  0  0  0  0  0
   -0.9605   10.5774   -0.2762 H   0  0  0  0  0  0  0  0  0  0  0  0
   -0.8926   11.0264   -1.8391 H   0  0  0  0  0  0  0  0  0  0  0  0
    1.3968    3.9728   -6.0043 H   0  0  0  0  0  0  0  0  0  0  0  0
   -4.8573    9.5933   -2.4357 H   0  0  0  0  0  0  0  0  0  0  0  0
   -3.3143    3.1276   -6.2146 H   0  0  0  0  0  0  0  0  0  0  0  0
   -5.7611    5.5820   -3.3094 H   0  0  0  0  0  0  0  0  0  0  0  0
  1  3  1  0  0  0  0
  1 18  1  0  0  0  0
  2 12  1  0  0  0  0
  2 19  1  0  0  0  0
  3 21  1  0  0  0  0
  3 13  1  0  0  0  0
  4  2  1  0  0  0  0
  4 23  1  0  0  0  0
  5  7  1  0  0  0  0
  5 25  1  0  0  0  0
  6 28  1  0  0  0  0
  6 14  1  0  0  0  0
  6 27  1  0  0  0  0
  7 15  1  0  0  0  0
  7 29  1  0  0  0  0
  8  6  1  0  0  0  0
  9 10  1  0  0  0  0
  9 34  1  0  0  0  0
  9 33  1  0  0  0  0
 10 16  1  0  0  0  0
 11  1  1  0  0  0  0
 11 38  1  0  0  0  0
 12 39  1  0  0  0  0
 13  5  1  0  0  0  0
 13 41  1  0  0  0  0
 14  4  1  0  0  0  0
 15  9  1  0  0  0  0
 16  8  1  0  0  0  0
 16 44  1  0  0  0  0
 17  1  1  0  0  0  0
 20  2  1  0  0  0  0
 22  3  1  0  0  0  0
 24  4  1  0  0  0  0
 26  5  1  0  0  0  0
 30  7  1  0  0  0  0
 31  8  1  0  0  0  0
 32  8  1  0  0  0  0
 35 10  1  0  0  0  0
 36 10  1  0  0  0  0
 37 11  1  0  0  0  0
 40 12  1  0  0  0  0
 42 14  1  0  0  0  0
 43 15  1  0  0  0  0
M  END
>  <HBA>
6

>  <HBD>
6

>  <TPSA>
100.16

>  <cid>
19990

>  <dipole>
3.49

>  <excitation_energy_1>
5.262

>  <excitation_energy_2>
5.307

>  <excitation_energy_3>
5.313

>  <excitation_energy_4>
5.406

>  <homo_energy>
-5.804

>  <homo_lumo_gap>
7.935

>  <logP>
0.226

>  <lumo_energy>
2.131

>  <melting_point>
188.0

>  <molecular_refractivity>
66.81

>  <oscillator_strength_1>
0.0032

>  <oscillator_strength_2>
0.0031

>  <oscillator_strength_3>
0.0067

>  <oscillator_strength_4>
0.0122

>  <open_babel_can_smiles>
NCCNCCNCCNCCNCCN

>  <mulliken_charges>
44
1   -0.149511
2   -0.147403
3   -0.128068
4   -0.126101
5   -0.124209
6   -0.140701
7   -0.134968
8   -0.128987
9   -0.117278
10   -0.133199
11   -0.702879
12   -0.705305
13   -0.553844
14   -0.548741
15   -0.559227
16   -0.559081
17   0.13703
18   0.133936
19   0.156728
20   0.134322
21   0.111651
22   0.130553
23   0.130904
24   0.10396
25   0.137264
26   0.149042
27   0.153033
28   0.129525
29   0.104122
30   0.135993
31   0.146072
32   0.10223
33   0.124207
34   0.142487
35   0.124422
36   0.128967
37   0.285421
38   0.306389
39   0.293135
40   0.291609
41   0.289974
42   0.289211
43   0.293092
44   0.294225

>  <lowdin_charges>
44
1   -0.214247
2   -0.213119
3   -0.222727
4   -0.223714
5   -0.212651
6   -0.208146
7   -0.222002
8   -0.219832
9   -0.209869
10   -0.207719
11   -0.555694
12   -0.552718
13   -0.364262
14   -0.360739
15   -0.364747
16   -0.361177
17   0.144783
18   0.13811
19   0.150811
20   0.140142
21   0.11801
22   0.138205
23   0.139123
24   0.110769
25   0.14207
26   0.147757
27   0.150762
28   0.135945
29   0.114227
30   0.143949
31   0.139525
32   0.11201
33   0.123796
34   0.140947
35   0.138544
36   0.127463
37   0.248532
38   0.25744
39   0.253765
40   0.251399
41   0.250224
42   0.251237
43   0.253037
44   0.250785

$$$$

