PCCDB-ID:  33755
public computational chemistry database (PCCDB) project, http://pccdb.org

 26 26  0  0  1  0  0  0  0  0999 V2000
    1.1915   -0.2319   -0.0583 C   0  0  0  0  0  0  0  0  0  0  0  0
    0.5785   -1.4207   -2.2280 C   0  0  0  0  0  0  0  0  0  0  0  0
    0.0395    0.9840   -3.4817 C   0  0  0  0  0  0  0  0  0  0  0  0
    0.7286   -0.2363   -1.4925 C   0  0  0  0  0  0  0  0  0  0  0  0
    2.6897    0.2036    0.0869 C   0  0  1  0  0  0  0  0  0  0  0  0
    0.4537    0.9705   -2.1473 C   0  0  0  0  0  0  0  0  0  0  0  0
    0.1676   -1.4307   -3.5594 C   0  0  0  0  0  0  0  0  0  0  0  0
   -0.1059   -0.2068   -4.1956 C   0  0  0  0  0  0  0  0  0  0  0  0
    2.9638    0.4348    1.5721 C   0  0  0  0  0  0  0  0  0  0  0  0
    3.6706   -0.7345   -0.4304 N   0  0  0  0  0  0  0  0  0  0  0  0
    0.6088    2.1328   -1.4197 O   0  0  0  0  0  0  0  0  0  0  0  0
    0.0073   -2.5718   -4.2985 O   0  0  0  0  0  0  0  0  0  0  0  0
   -0.5076   -0.2537   -5.4986 O   0  0  0  0  0  0  0  0  0  0  0  0
    3.4989   -0.3711    2.2928 O   0  0  0  0  0  0  0  0  0  0  0  0
    2.4883    1.6040    2.0746 O   0  0  0  0  0  0  0  0  0  0  0  0
    1.0851   -1.2303    0.3820 H   0  0  0  0  0  0  0  0  0  0  0  0
    0.5585    0.4468    0.5268 H   0  0  0  0  0  0  0  0  0  0  0  0
    0.7743   -2.3715   -1.7337 H   0  0  0  0  0  0  0  0  0  0  0  0
   -0.1752    1.9312   -3.9764 H   0  0  0  0  0  0  0  0  0  0  0  0
    2.8047    1.1601   -0.4405 H   0  0  0  0  0  0  0  0  0  0  0  0
    3.8131   -1.4725    0.2575 H   0  0  0  0  0  0  0  0  0  0  0  0
    3.3349   -1.1540   -1.2947 H   0  0  0  0  0  0  0  0  0  0  0  0
    0.3631    2.8884   -1.9749 H   0  0  0  0  0  0  0  0  0  0  0  0
    0.2078   -3.3343   -3.7344 H   0  0  0  0  0  0  0  0  0  0  0  0
   -0.6722    0.6497   -5.8095 H   0  0  0  0  0  0  0  0  0  0  0  0
    2.1078    2.1371    1.3552 H   0  0  0  0  0  0  0  0  0  0  0  0
  1  5  1  0  0  0  0
  1 16  1  0  0  0  0
  1 17  1  0  0  0  0
  2 18  1  0  0  0  0
  2  4  2  0  0  0  0
  3  6  2  0  0  0  0
  4  1  1  0  0  0  0
  5 20  1  6  0  0  0
  5  9  1  0  0  0  0
  6  4  1  0  0  0  0
  6 11  1  0  0  0  0
  7  2  1  0  0  0  0
  8  7  2  0  0  0  0
  8  3  1  0  0  0  0
  9 15  1  0  0  0  0
  9 14  2  0  0  0  0
 10  5  1  0  0  0  0
 10 21  1  0  0  0  0
 12 24  1  0  0  0  0
 12  7  1  0  0  0  0
 13  8  1  0  0  0  0
 19  3  1  0  0  0  0
 22 10  1  0  0  0  0
 23 11  1  0  0  0  0
 25 13  1  0  0  0  0
 26 15  1  0  0  0  0
M  END
>  <HBA>
6

>  <HBD>
5

>  <TPSA>
124.01

>  <cid>
33755

>  <dipole>
5.57

>  <excitation_energy_1>
4.438

>  <excitation_energy_2>
4.499

>  <excitation_energy_3>
4.653

>  <excitation_energy_4>
4.852

>  <homo_energy>
-5.529

>  <homo_lumo_gap>
5.276

>  <logP>
0.458

>  <lumo_energy>
-0.253

>  <melting_point>
260.16

>  <molecular_refractivity>
51.57

>  <oscillator_strength_1>
0.0037

>  <oscillator_strength_2>
0.1187

>  <oscillator_strength_3>
0.0017

>  <oscillator_strength_4>
0.002

>  <open_babel_can_smiles>
OC(=O)[C@H](Cc1cc(O)c(cc1O)O)N

>  <mulliken_charges>
26
1   -0.367016
2   -0.289574
3   -0.267246
4   0.143715
5   -0.082877
6   0.302298
7   0.332037
8   0.327064
9   0.614288
10   -0.71963
11   -0.670979
12   -0.637898
13   -0.629842
14   -0.449891
15   -0.571752
16   0.154423
17   0.156276
18   0.122141
19   0.112534
20   0.158042
21   0.316081
22   0.30017
23   0.412039
24   0.40855
25   0.409231
26   0.417816

>  <lowdin_charges>
26
1   -0.286862
2   -0.209239
3   -0.255637
4   -0.047633
5   -0.105066
6   0.08787
7   0.063976
8   0.089826
9   0.198161
10   -0.546963
11   -0.398449
12   -0.373398
13   -0.362175
14   -0.242755
15   -0.354873
16   0.155838
17   0.159097
18   0.15586
19   0.152112
20   0.151128
21   0.267476
22   0.258683
23   0.361164
24   0.36017
25   0.358285
26   0.363402

$$$$

