PCCDB-ID:  9060
public computational chemistry database (PCCDB) project, http://pccdb.org

 27 28  0  0  1  0  0  0  0  0999 V2000
    0.5435   -0.6556    4.8298 C   0  0  0  0  0  0  0  0  0  0  0  0
    0.6316    0.7374    4.6236 C   0  0  0  0  0  0  0  0  0  0  0  0
    0.4375   -1.5345    3.7613 C   0  0  0  0  0  0  0  0  0  0  0  0
    0.6163    1.2788    3.3446 C   0  0  0  0  0  0  0  0  0  0  0  0
    0.2710   -3.0915    0.8134 C   0  0  0  0  0  0  0  0  0  0  0  0
    0.3590   -0.5746    0.2390 C   0  0  0  0  0  0  0  0  0  0  0  0
    0.3220   -1.6193    1.1391 C   0  0  0  0  0  0  0  0  0  0  0  0
    0.4199   -1.0187    2.4526 C   0  0  0  0  0  0  0  0  0  0  0  0
   -0.9895   -3.5782    0.0494 C   0  0  2  0  0  0  0  0  0  0  0  0
    0.5119    0.3879    2.2704 C   0  0  0  0  0  0  0  0  0  0  0  0
   -2.2798   -3.4927    0.8970 C   0  0  0  0  0  0  0  0  0  0  0  0
   -0.7466   -4.9189   -0.4703 N   0  0  0  0  0  0  0  0  0  0  0  0
    0.4744    0.6246    0.9106 N   0  0  0  0  0  0  0  0  0  0  0  0
   -3.0093   -4.4406    1.0707 O   0  0  0  0  0  0  0  0  0  0  0  0
   -2.5848   -2.2825    1.4167 O   0  0  0  0  0  0  0  0  0  0  0  0
    0.5569   -1.0438    5.8443 H   0  0  0  0  0  0  0  0  0  0  0  0
    0.7136    1.3990    5.4813 H   0  0  0  0  0  0  0  0  0  0  0  0
    0.3657   -2.6047    3.9359 H   0  0  0  0  0  0  0  0  0  0  0  0
    0.6838    2.3517    3.1853 H   0  0  0  0  0  0  0  0  0  0  0  0
    0.3666   -3.6707    1.7407 H   0  0  0  0  0  0  0  0  0  0  0  0
    1.1243   -3.3757    0.1871 H   0  0  0  0  0  0  0  0  0  0  0  0
    0.3373   -0.5947   -0.8426 H   0  0  0  0  0  0  0  0  0  0  0  0
   -1.1368   -2.9112   -0.8131 H   0  0  0  0  0  0  0  0  0  0  0  0
   -1.5953   -5.2381   -0.9371 H   0  0  0  0  0  0  0  0  0  0  0  0
   -0.6527   -5.5549    0.3232 H   0  0  0  0  0  0  0  0  0  0  0  0
    0.4965    1.5334    0.4742 H   0  0  0  0  0  0  0  0  0  0  0  0
   -1.8491   -1.6594    1.2511 H   0  0  0  0  0  0  0  0  0  0  0  0
  1 16  1  0  0  0  0
  2  1  1  0  0  0  0
  2 17  1  0  0  0  0
  3 18  1  0  0  0  0
  3  1  2  0  0  0  0
  4  2  2  0  0  0  0
  5  7  1  0  0  0  0
  5 20  1  0  0  0  0
  6 13  1  0  0  0  0
  6  7  2  0  0  0  0
  7  8  1  0  0  0  0
  8  3  1  0  0  0  0
  9 23  1  6  0  0  0
  9  5  1  0  0  0  0
  9 11  1  0  0  0  0
 10  8  2  0  0  0  0
 10  4  1  0  0  0  0
 11 14  2  0  0  0  0
 11 15  1  0  0  0  0
 12  9  1  0  0  0  0
 12 25  1  0  0  0  0
 13 10  1  0  0  0  0
 19  4  1  0  0  0  0
 21  5  1  0  0  0  0
 22  6  1  0  0  0  0
 24 12  1  0  0  0  0
 26 13  1  0  0  0  0
 27 15  1  0  0  0  0
M  END
>  <HBA>
3

>  <HBD>
3

>  <TPSA>
79.11

>  <cid>
9060

>  <dipole>
5.28

>  <excitation_energy_1>
4.653

>  <excitation_energy_2>
4.856

>  <excitation_energy_3>
4.906

>  <excitation_energy_4>
5.211

>  <homo_energy>
-5.845

>  <homo_lumo_gap>
5.233

>  <logP>
1.823

>  <lumo_energy>
-0.612

>  <melting_point>
229.84

>  <molecular_refractivity>
57.36

>  <oscillator_strength_1>
0.0742

>  <oscillator_strength_2>
0.0442

>  <oscillator_strength_3>
0.0014

>  <oscillator_strength_4>
0.0011

>  <open_babel_can_smiles>
OC(=O)[C@@H](Cc1c[nH]c2c1cccc2)N

>  <mulliken_charges>
27
1   -0.138471
2   -0.148299
3   -0.196194
4   -0.159981
5   -0.331904
6   0.005382
7   -0.03348
8   0.087776
9   -0.110783
10   0.315339
11   0.57299
12   -0.693823
13   -0.682212
14   -0.455138
15   -0.574253
16   0.129328
17   0.130157
18   0.134515
19   0.127243
20   0.154161
21   0.182338
22   0.16054
23   0.155857
24   0.311111
25   0.302362
26   0.333264
27   0.422175

>  <lowdin_charges>
27
1   -0.168035
2   -0.158645
3   -0.155341
4   -0.181942
5   -0.27372
6   -0.136056
7   -0.090018
8   -0.041658
9   -0.114278
10   0.030194
11   0.172005
12   -0.534002
13   -0.192342
14   -0.255806
15   -0.358418
16   0.158286
17   0.160107
18   0.157967
19   0.156586
20   0.155837
21   0.172548
22   0.167326
23   0.154106
24   0.264216
25   0.259181
26   0.294792
27   0.357111

$$$$

