PCCDB-ID:  24311
public computational chemistry database (PCCDB) project, http://pccdb.org

 23 24  0  0  0  0  0  0  0  0999 V2000
    3.6388   -0.2024   -1.0815 C   0  0  0  0  0  0  0  0  0  0  0  0
    2.4865   -0.1250   -0.0637 C   0  0  0  0  0  0  0  0  0  0  0  0
    4.0465    2.9580    5.4606 C   0  0  0  0  0  0  0  0  0  0  0  0
    3.6668    3.5073    4.2585 C   0  0  0  0  0  0  0  0  0  0  0  0
    2.6731    2.2281    0.8826 C   0  0  0  0  0  0  0  0  0  0  0  0
    2.9557    3.1172    1.8927 C   0  0  0  0  0  0  0  0  0  0  0  0
    4.1175    1.5462    5.5698 C   0  0  0  0  0  0  0  0  0  0  0  0
    3.1647    0.3544    2.3213 C   0  0  0  0  0  0  0  0  0  0  0  0
    2.7746    0.8214    1.0823 C   0  0  0  0  0  0  0  0  0  0  0  0
    3.3609    2.6514    3.1711 C   0  0  0  0  0  0  0  0  0  0  0  0
    3.4663    1.2408    3.3882 C   0  0  0  0  0  0  0  0  0  0  0  0
    3.8433    0.7090    4.5893 N   0  0  0  0  0  0  0  0  0  0  0  0
    3.3877   -0.8827   -1.9033 H   0  0  0  0  0  0  0  0  0  0  0  0
    4.5561   -0.5658   -0.6054 H   0  0  0  0  0  0  0  0  0  0  0  0
    3.8548    0.7820   -1.5123 H   0  0  0  0  0  0  0  0  0  0  0  0
    2.2862   -1.1268    0.3343 H   0  0  0  0  0  0  0  0  0  0  0  0
    1.5717    0.1947   -0.5807 H   0  0  0  0  0  0  0  0  0  0  0  0
    4.2900    3.5800    6.3168 H   0  0  0  0  0  0  0  0  0  0  0  0
    3.5963    4.5851    4.1284 H   0  0  0  0  0  0  0  0  0  0  0  0
    2.3580    2.6003   -0.0898 H   0  0  0  0  0  0  0  0  0  0  0  0
    2.8692    4.1884    1.7244 H   0  0  0  0  0  0  0  0  0  0  0  0
    4.4153    1.0967    6.5171 H   0  0  0  0  0  0  0  0  0  0  0  0
    3.2512   -0.7104    2.5201 H   0  0  0  0  0  0  0  0  0  0  0  0
  1 14  1  0  0  0  0
  1  2  1  0  0  0  0
  2 16  1  0  0  0  0
  2  9  1  0  0  0  0
  3  7  1  0  0  0  0
  3 18  1  0  0  0  0
  4  3  2  0  0  0  0
  5  9  2  0  0  0  0
  5  6  1  0  0  0  0
  6 10  2  0  0  0  0
  7 22  1  0  0  0  0
  8 23  1  0  0  0  0
  8 11  2  0  0  0  0
  9  8  1  0  0  0  0
 10 11  1  0  0  0  0
 10  4  1  0  0  0  0
 11 12  1  0  0  0  0
 12  7  2  0  0  0  0
 13  1  1  0  0  0  0
 15  1  1  0  0  0  0
 17  2  1  0  0  0  0
 19  4  1  0  0  0  0
 20  5  1  0  0  0  0
 21  6  1  0  0  0  0
M  END
>  <HBA>
1

>  <HBD>
0

>  <TPSA>
12.89

>  <cid>
24311

>  <dipole>
1.96

>  <excitation_energy_1>
4.308

>  <excitation_energy_2>
4.32

>  <excitation_energy_3>
4.463

>  <excitation_energy_4>
5.224

>  <homo_energy>
-6.169

>  <homo_lumo_gap>
4.871

>  <logP>
2.797

>  <lumo_energy>
-1.298

>  <melting_point>
67.33

>  <molecular_refractivity>
51.52

>  <oscillator_strength_1>
0.0015

>  <oscillator_strength_2>
0.0416

>  <oscillator_strength_3>
0.0232

>  <oscillator_strength_4>
0.0

>  <open_babel_can_smiles>
CCc1ccc2c(c1)nccc2

>  <mulliken_charges>
23
1   -0.436884
2   -0.342253
3   -0.155004
4   -0.148681
5   -0.177256
6   -0.197185
7   0.043458
8   -0.212979
9   0.17676
10   0.156311
11   0.240594
12   -0.497908
13   0.146255
14   0.154347
15   0.148091
16   0.148556
17   0.144974
18   0.135948
19   0.139734
20   0.126814
21   0.131354
22   0.138732
23   0.136219

>  <lowdin_charges>
23
1   -0.441134
2   -0.270102
3   -0.1857
4   -0.12541
5   -0.161986
6   -0.154167
7   -0.085715
8   -0.1642
9   0.003776
10   -0.01911
11   0.042595
12   -0.151564
13   0.15164
14   0.153604
15   0.149271
16   0.151114
17   0.150141
18   0.164596
19   0.159674
20   0.15676
21   0.156203
22   0.155098
23   0.164617

$$$$

