PCCDB-ID:  16993
public computational chemistry database (PCCDB) project, http://pccdb.org

 31 31  0  0  1  0  0  0  0  0999 V2000
    8.3351    1.3613   -0.2528 C   0  0  0  0  0  0  0  0  0  0  0  0
    6.9220    1.0206   -0.7417 C   0  0  0  0  0  0  0  0  0  0  0  0
    5.8324    1.1169    0.3391 C   0  0  0  0  0  0  0  0  0  0  0  0
    5.9584    0.0892    1.4732 C   0  0  0  0  0  0  0  0  0  0  0  0
    4.8137    0.1833    2.4921 C   0  0  0  0  0  0  0  0  0  0  0  0
    4.8578   -0.8713    3.6114 C   0  0  0  0  0  0  0  0  0  0  0  0
    6.0453   -0.7239    4.5747 C   0  0  0  0  0  0  0  0  0  0  0  0
    6.0468   -1.7332    5.7378 C   0  0  0  0  0  0  0  0  0  0  0  0
    7.1507   -4.0779    6.0633 C   0  0  0  0  0  0  0  0  0  0  0  0
    6.2942   -3.1592    5.2996 C   0  0  2  0  0  0  0  0  0  0  0  0
    7.6304   -3.4631    4.8612 O   0  0  0  0  0  0  0  0  0  0  0  0
    9.0548    1.3331   -1.0791 H   0  0  0  0  0  0  0  0  0  0  0  0
    8.6854    0.6581    0.5108 H   0  0  0  0  0  0  0  0  0  0  0  0
    8.3688    2.3681    0.1826 H   0  0  0  0  0  0  0  0  0  0  0  0
    6.9173    0.0079   -1.1699 H   0  0  0  0  0  0  0  0  0  0  0  0
    6.6586    1.6986   -1.5650 H   0  0  0  0  0  0  0  0  0  0  0  0
    4.8497    0.9947   -0.1390 H   0  0  0  0  0  0  0  0  0  0  0  0
    5.8372    2.1312    0.7663 H   0  0  0  0  0  0  0  0  0  0  0  0
    6.9200    0.2193    1.9849 H   0  0  0  0  0  0  0  0  0  0  0  0
    5.9756   -0.9237    1.0426 H   0  0  0  0  0  0  0  0  0  0  0  0
    3.8578    0.0870    1.9576 H   0  0  0  0  0  0  0  0  0  0  0  0
    4.8083    1.1881    2.9411 H   0  0  0  0  0  0  0  0  0  0  0  0
    4.8663   -1.8716    3.1556 H   0  0  0  0  0  0  0  0  0  0  0  0
    3.9253   -0.8084    4.1913 H   0  0  0  0  0  0  0  0  0  0  0  0
    6.0355    0.2918    4.9945 H   0  0  0  0  0  0  0  0  0  0  0  0
    6.9932   -0.8272    4.0328 H   0  0  0  0  0  0  0  0  0  0  0  0
    5.0865   -1.6895    6.2728 H   0  0  0  0  0  0  0  0  0  0  0  0
    6.8261   -1.4531    6.4575 H   0  0  0  0  0  0  0  0  0  0  0  0
    6.9862   -5.1547    6.0053 H   0  0  0  0  0  0  0  0  0  0  0  0
    7.6212   -3.7318    6.9847 H   0  0  0  0  0  0  0  0  0  0  0  0
    5.5226   -3.6081    4.6699 H   0  0  0  0  0  0  0  0  0  0  0  0
  1 14  1  0  0  0  0
  1 13  1  0  0  0  0
  2  1  1  0  0  0  0
  2  3  1  0  0  0  0
  3 18  1  0  0  0  0
  3  4  1  0  0  0  0
  4 19  1  0  0  0  0
  4  5  1  0  0  0  0
  5 22  1  0  0  0  0
  5  6  1  0  0  0  0
  6 24  1  0  0  0  0
  6  7  1  0  0  0  0
  7 25  1  0  0  0  0
  7  8  1  0  0  0  0
  8 27  1  0  0  0  0
  8 28  1  0  0  0  0
  9 30  1  0  0  0  0
 10 31  1  6  0  0  0
 10  8  1  0  0  0  0
 10  9  1  0  0  0  0
 11 10  1  0  0  0  0
 11  9  1  0  0  0  0
 12  1  1  0  0  0  0
 15  2  1  0  0  0  0
 16  2  1  0  0  0  0
 17  3  1  0  0  0  0
 20  4  1  0  0  0  0
 21  5  1  0  0  0  0
 23  6  1  0  0  0  0
 26  7  1  0  0  0  0
 29  9  1  0  0  0  0
M  END
>  <HBA>
1

>  <HBD>
0

>  <TPSA>
12.53

>  <cid>
16993

>  <dipole>
1.77

>  <excitation_energy_1>
6.846

>  <excitation_energy_2>
7.019

>  <excitation_energy_3>
7.102

>  <excitation_energy_4>
7.21

>  <homo_energy>
-7.097

>  <homo_lumo_gap>
9.459

>  <logP>
3.136

>  <lumo_energy>
2.362

>  <melting_point>
-15.59

>  <molecular_refractivity>
49.16

>  <oscillator_strength_1>
0.0186

>  <oscillator_strength_2>
0.0069

>  <oscillator_strength_3>
0.0082

>  <oscillator_strength_4>
0.0024

>  <open_babel_can_smiles>
CCCCCCCC[C@@H]1CO1

>  <mulliken_charges>
31
1   -0.443674
2   -0.248412
3   -0.249031
4   -0.255298
5   -0.255126
6   -0.261347
7   -0.261359
8   -0.282509
9   -0.11294
10   0.104844
11   -0.445337
12   0.141326
13   0.148733
14   0.139211
15   0.129777
16   0.129159
17   0.12537
18   0.124921
19   0.140212
20   0.127346
21   0.126535
22   0.126123
23   0.133234
24   0.124288
25   0.129295
26   0.15768
27   0.133404
28   0.138573
29   0.146613
30   0.146308
31   0.142082

>  <lowdin_charges>
31
1   -0.448484
2   -0.272744
3   -0.274024
4   -0.277905
5   -0.273039
6   -0.277958
7   -0.276845
8   -0.280514
9   -0.164597
10   -0.024943
11   -0.294417
12   0.149952
13   0.149291
14   0.144449
15   0.137919
16   0.141597
17   0.138243
18   0.135607
19   0.141904
20   0.137052
21   0.13955
22   0.136272
23   0.138364
24   0.138332
25   0.140678
26   0.15114
27   0.146134
28   0.152112
29   0.14934
30   0.150339
31   0.147193

$$$$

