PCCDB-ID:  67427
public computational chemistry database (PCCDB) project, http://pccdb.org

 31 30  0  0  1  0  0  0  0  0999 V2000
    1.5231   -0.5530   -0.9756 C   0  0  0  0  0  0  0  0  0  0  0  0
    0.3908    1.4302    1.7126 C   0  0  0  0  0  0  0  0  0  0  0  0
    1.3428    2.5586    1.3118 C   0  0  0  0  0  0  0  0  0  0  0  0
   -0.3566    1.6931    3.0285 C   0  0  0  0  0  0  0  0  0  0  0  0
    2.7639   -0.0078   -0.3055 C   0  0  0  0  0  0  0  0  0  0  0  0
    2.0959    2.2854   -0.0132 C   0  0  1  0  0  0  0  0  0  0  0  0
    2.9154    3.5476   -0.3652 C   0  0  0  0  0  0  0  0  0  0  0  0
   -0.7049   -0.6557    3.7484 C   0  0  0  0  0  0  0  0  0  0  0  0
   -1.0965   -1.6972    3.1028 N   0  0  0  0  0  0  0  0  0  0  0  0
    0.1658   -0.6377    4.8312 N   0  0  0  0  0  0  0  0  0  0  0  0
   -1.2486    0.5961    3.4267 N   0  0  0  0  0  0  0  0  0  0  0  0
    3.0103    1.1667    0.1098 N   0  0  0  0  0  0  0  0  0  0  0  0
    3.7537   -0.9237   -0.1091 O   0  0  0  0  0  0  0  0  0  0  0  0
    2.3891    4.5886   -0.6820 O   0  0  0  0  0  0  0  0  0  0  0  0
    4.2436    3.4010   -0.2499 O   0  0  0  0  0  0  0  0  0  0  0  0
    0.8256    0.2347   -1.2604 H   0  0  0  0  0  0  0  0  0  0  0  0
    0.9989   -1.2377   -0.2976 H   0  0  0  0  0  0  0  0  0  0  0  0
    1.7964   -1.1103   -1.8799 H   0  0  0  0  0  0  0  0  0  0  0  0
    0.9493    0.4921    1.8174 H   0  0  0  0  0  0  0  0  0  0  0  0
   -0.3509    1.2659    0.9174 H   0  0  0  0  0  0  0  0  0  0  0  0
    2.0874    2.7193    2.1032 H   0  0  0  0  0  0  0  0  0  0  0  0
    0.7980    3.5010    1.1833 H   0  0  0  0  0  0  0  0  0  0  0  0
   -0.9669    2.6001    2.9490 H   0  0  0  0  0  0  0  0  0  0  0  0
    0.3633    1.8818    3.8339 H   0  0  0  0  0  0  0  0  0  0  0  0
    1.3548    2.1696   -0.8166 H   0  0  0  0  0  0  0  0  0  0  0  0
   -0.7624   -2.5494    3.5604 H   0  0  0  0  0  0  0  0  0  0  0  0
    0.8981   -1.3320    4.8463 H   0  0  0  0  0  0  0  0  0  0  0  0
    0.4180    0.2549    5.2301 H   0  0  0  0  0  0  0  0  0  0  0  0
   -1.9784    0.4389    2.7369 H   0  0  0  0  0  0  0  0  0  0  0  0
    3.4770   -1.7816   -0.4668 H   0  0  0  0  0  0  0  0  0  0  0  0
    4.3840    2.4577    0.0086 H   0  0  0  0  0  0  0  0  0  0  0  0
  1  5  1  0  0  0  0
  1 17  1  0  0  0  0
  2 19  1  0  0  0  0
  2  4  1  0  0  0  0
  3  2  1  0  0  0  0
  3 21  1  0  0  0  0
  4 11  1  0  0  0  0
  4 24  1  0  0  0  0
  5 13  1  0  0  0  0
  5 12  2  0  0  0  0
  6 25  1  6  0  0  0
  6 12  1  0  0  0  0
  6  3  1  0  0  0  0
  7 15  1  0  0  0  0
  7  6  1  0  0  0  0
  8 10  2  0  0  0  0
  9 26  1  0  0  0  0
  9  8  1  0  0  0  0
 10 27  1  0  0  0  0
 10 28  1  0  0  0  0
 11  8  1  0  0  0  0
 14  7  2  0  0  0  0
 15 31  1  0  0  0  0
 16  1  1  0  0  0  0
 18  1  1  0  0  0  0
 20  2  1  0  0  0  0
 22  3  1  0  0  0  0
 23  4  1  0  0  0  0
 29 11  1  0  0  0  0
 30 13  1  0  0  0  0
M  RAD  1   9   2
M  END
>  <HBA>
7

>  <HBD>
4

>  <TPSA>
130.8

>  <cid>
67427

>  <dipole>
5.31

>  <excitation_energy_1>
5.174

>  <excitation_energy_2>
5.439

>  <excitation_energy_3>
5.525

>  <excitation_energy_4>
5.608

>  <homo_energy>
-6.169

>  <homo_lumo_gap>
5.954

>  <logP>
0.421

>  <lumo_energy>
-0.215

>  <melting_point>
224.2

>  <molecular_refractivity>
54.44

>  <oscillator_strength_1>
0.0034

>  <oscillator_strength_2>
0.0031

>  <oscillator_strength_3>
0.0092

>  <oscillator_strength_4>
0.0006

>  <open_babel_can_smiles>
[NH]C(=[NH2])NCCC[C@@H](C(=O)O)/N=C(/O)\C

>  <mulliken_charges>
31
1   -0.559541
2   -0.268565
3   -0.257484
4   -0.159942
5   0.504069
6   -0.088169
7   0.601812
8   0.56938
9   -0.652493
10   -0.747051
11   -0.566632
12   -0.468223
13   -0.569003
14   -0.469987
15   -0.577344
16   0.191783
17   0.206703
18   0.175059
19   0.148992
20   0.133496
21   0.146696
22   0.170454
23   0.157852
24   0.136489
25   0.150242
26   0.262838
27   0.327652
28   0.332175
29   0.324298
30   0.414345
31   0.430098

>  <lowdin_charges>
31
1   -0.483899
2   -0.293683
3   -0.274758
4   -0.201877
5   0.147258
6   -0.099221
7   0.181284
8   0.12664
9   -0.490359
10   -0.502268
11   -0.311679
12   -0.226759
13   -0.356492
14   -0.260945
15   -0.350157
16   0.179134
17   0.187525
18   0.17108
19   0.148639
20   0.142184
21   0.151002
22   0.163991
23   0.152994
24   0.141338
25   0.15014
26   0.244821
27   0.283488
28   0.282822
29   0.27885
30   0.360981
31   0.357923

$$$$

