PCCDB-ID:  25917
public computational chemistry database (PCCDB) project, http://pccdb.org

 18 17  0  0  0  0  0  0  0  0999 V2000
    0.4799   -0.2463   -0.4486 C   0  0  0  0  0  0  0  0  0  0  0  0
    2.4573    0.2396   -1.9864 C   0  0  0  0  0  0  0  0  0  0  0  0
    3.1416    1.9703    2.2856 C   0  0  0  0  0  0  0  0  0  0  0  0
    3.4938    1.7502    3.6866 C   0  0  0  0  0  0  0  0  0  0  0  0
    1.9924   -0.1125   -0.5812 C   0  0  0  0  0  0  0  0  0  0  0  0
    2.6738    0.6961    1.5726 C   0  0  0  0  0  0  0  0  0  0  0  0
    3.7829    1.6123    4.8008 N   0  0  0  0  0  0  0  0  0  0  0  0
    2.5230   -0.3807    2.0969 O   0  0  0  0  0  0  0  0  0  0  0  0
    2.4584    0.9814    0.2777 O   0  0  0  0  0  0  0  0  0  0  0  0
    0.1171   -1.0441   -1.1060 H   0  0  0  0  0  0  0  0  0  0  0  0
   -0.0170    0.6874   -0.7349 H   0  0  0  0  0  0  0  0  0  0  0  0
    0.2012   -0.4990    0.5781 H   0  0  0  0  0  0  0  0  0  0  0  0
    2.1620   -0.5505   -2.6849 H   0  0  0  0  0  0  0  0  0  0  0  0
    3.5461    0.3431   -2.0241 H   0  0  0  0  0  0  0  0  0  0  0  0
    2.0073    1.1805   -2.3213 H   0  0  0  0  0  0  0  0  0  0  0  0
    3.9994    2.3862    1.7446 H   0  0  0  0  0  0  0  0  0  0  0  0
    2.3436    2.7199    2.2176 H   0  0  0  0  0  0  0  0  0  0  0  0
    2.4795   -1.0252   -0.2270 H   0  0  0  0  0  0  0  0  0  0  0  0
  1 12  1  0  0  0  0
  2  5  1  0  0  0  0
  3  4  1  0  0  0  0
  4  7  3  0  0  0  0
  5  1  1  0  0  0  0
  5 18  1  0  0  0  0
  5  9  1  0  0  0  0
  6  8  2  0  0  0  0
  6  3  1  0  0  0  0
  9  6  1  0  0  0  0
 10  1  1  0  0  0  0
 11  1  1  0  0  0  0
 13  2  1  0  0  0  0
 14  2  1  0  0  0  0
 15  2  1  0  0  0  0
 16  3  1  0  0  0  0
 17  3  1  0  0  0  0
M  END
>  <HBA>
3

>  <HBD>
0

>  <TPSA>
50.09

>  <cid>
25917

>  <dipole>
5.68

>  <excitation_energy_1>
5.846

>  <excitation_energy_2>
7.132

>  <excitation_energy_3>
7.521

>  <excitation_energy_4>
7.552

>  <homo_energy>
-7.959

>  <homo_lumo_gap>
7.742

>  <logP>
0.852

>  <lumo_energy>
-0.218

>  <melting_point>
19.78

>  <molecular_refractivity>
31.99

>  <oscillator_strength_1>
0.0008

>  <oscillator_strength_2>
0.0088

>  <oscillator_strength_3>
0.0263

>  <oscillator_strength_4>
0.0106

>  <open_babel_can_smiles>
CC(OC(=O)CC#N)C

>  <mulliken_charges>
18
1   -0.461046
2   -0.453474
3   -0.44703
4   0.387412
5   0.122891
6   0.640959
7   -0.458773
8   -0.44878
9   -0.470242
10   0.155749
11   0.154141
12   0.177606
13   0.15648
14   0.160864
15   0.158658
16   0.226698
17   0.227939
18   0.169946

>  <lowdin_charges>
18
1   -0.454219
2   -0.446477
3   -0.299298
4   -0.00829
5   0.014213
6   0.200109
7   -0.105717
8   -0.239605
9   -0.193724
10   0.16244
11   0.155849
12   0.167209
13   0.161986
14   0.158663
15   0.158169
16   0.204749
17   0.205288
18   0.158657

$$$$

