PCCDB-ID:  44790
public computational chemistry database (PCCDB) project, http://pccdb.org

 35 34  0  0  1  0  0  0  0  0999 V2000
    1.6878   -1.6576   -0.2884 C   0  0  0  0  0  0  0  0  0  0  0  0
    2.5509    1.9285   -2.8761 C   0  0  0  0  0  0  0  0  0  0  0  0
    0.5412    0.8877    3.8307 C   0  0  0  0  0  0  0  0  0  0  0  0
    2.8652    1.1789    2.8881 C   0  0  0  0  0  0  0  0  0  0  0  0
    5.3475    1.6461   -1.5000 C   0  0  0  0  0  0  0  0  0  0  0  0
    1.7255    0.8412   -0.7382 C   0  0  0  0  0  0  0  0  0  0  0  0
    1.0625   -0.0919    1.5768 C   0  0  0  0  0  0  0  0  0  0  0  0
    1.9403   -0.2658    0.3176 C   0  0  1  0  0  0  0  0  0  0  0  0
    2.9386    1.0694   -1.6589 C   0  0  2  0  0  0  0  0  0  0  0  0
    1.3710    1.0703    2.5484 C   0  0  0  0  0  0  0  0  0  0  0  0
    4.0390    1.6301   -0.8556 N   0  0  0  0  0  0  0  0  0  0  0  0
    0.9372    2.2837    1.8967 O   0  0  0  0  0  0  0  0  0  0  0  0
    2.2838   -1.8166   -1.1949 H   0  0  0  0  0  0  0  0  0  0  0  0
    0.6314   -1.7822   -0.5617 H   0  0  0  0  0  0  0  0  0  0  0  0
    1.9444   -2.4562    0.4185 H   0  0  0  0  0  0  0  0  0  0  0  0
    1.7842    1.4307   -3.4818 H   0  0  0  0  0  0  0  0  0  0  0  0
    3.4097    2.1274   -3.5268 H   0  0  0  0  0  0  0  0  0  0  0  0
    2.1411    2.8942   -2.5511 H   0  0  0  0  0  0  0  0  0  0  0  0
    0.8319   -0.0182    4.3749 H   0  0  0  0  0  0  0  0  0  0  0  0
   -0.5250    0.8222    3.5889 H   0  0  0  0  0  0  0  0  0  0  0  0
    0.6844    1.7411    4.5070 H   0  0  0  0  0  0  0  0  0  0  0  0
    3.0295    1.9760    3.6263 H   0  0  0  0  0  0  0  0  0  0  0  0
    3.4547    1.4087    1.9958 H   0  0  0  0  0  0  0  0  0  0  0  0
    3.2443    0.2469    3.3241 H   0  0  0  0  0  0  0  0  0  0  0  0
    6.0809    2.0824   -0.8132 H   0  0  0  0  0  0  0  0  0  0  0  0
    5.4023    2.2051   -2.4512 H   0  0  0  0  0  0  0  0  0  0  0  0
    5.6595    0.6150   -1.7053 H   0  0  0  0  0  0  0  0  0  0  0  0
    1.4921    1.7884   -0.2410 H   0  0  0  0  0  0  0  0  0  0  0  0
    0.8476    0.5916   -1.3519 H   0  0  0  0  0  0  0  0  0  0  0  0
    1.1303   -1.0180    2.1644 H   0  0  0  0  0  0  0  0  0  0  0  0
    0.0087    0.0049    1.2788 H   0  0  0  0  0  0  0  0  0  0  0  0
    2.9923   -0.2208    0.6219 H   0  0  0  0  0  0  0  0  0  0  0  0
    3.3012    0.0986   -2.0278 H   0  0  0  0  0  0  0  0  0  0  0  0
    3.7844    2.5753   -0.5703 H   0  0  0  0  0  0  0  0  0  0  0  0
    1.1294    3.0164    2.5040 H   0  0  0  0  0  0  0  0  0  0  0  0
  1  8  1  0  0  0  0
  1 15  1  0  0  0  0
  2 18  1  0  0  0  0
  2  9  1  0  0  0  0
  3 19  1  0  0  0  0
  3 21  1  0  0  0  0
  4 24  1  0  0  0  0
  4 22  1  0  0  0  0
  5 11  1  0  0  0  0
  5 25  1  0  0  0  0
  6 28  1  0  0  0  0
  6  8  1  0  0  0  0
  7 30  1  0  0  0  0
  7 10  1  0  0  0  0
  8 32  1  1  0  0  0
  8  7  1  0  0  0  0
  9 33  1  6  0  0  0
  9 11  1  0  0  0  0
  9  6  1  0  0  0  0
 10  4  1  0  0  0  0
 10  3  1  0  0  0  0
 11 34  1  0  0  0  0
 12 35  1  0  0  0  0
 12 10  1  0  0  0  0
 13  1  1  0  0  0  0
 14  1  1  0  0  0  0
 16  2  1  0  0  0  0
 17  2  1  0  0  0  0
 20  3  1  0  0  0  0
 23  4  1  0  0  0  0
 26  5  1  0  0  0  0
 27  5  1  0  0  0  0
 29  6  1  0  0  0  0
 31  7  1  0  0  0  0
M  END
>  <HBA>
2

>  <HBD>
2

>  <TPSA>
32.26

>  <cid>
44790

>  <dipole>
1.25

>  <excitation_energy_1>
5.231

>  <excitation_energy_2>
5.521

>  <excitation_energy_3>
5.682

>  <excitation_energy_4>
5.899

>  <homo_energy>
-5.723

>  <homo_lumo_gap>
7.54

>  <logP>
2.172

>  <lumo_energy>
1.818

>  <melting_point>
27.6

>  <molecular_refractivity>
54.19

>  <oscillator_strength_1>
0.0046

>  <oscillator_strength_2>
0.0055

>  <oscillator_strength_3>
0.0043

>  <oscillator_strength_4>
0.0076

>  <open_babel_can_smiles>
CN[C@@H](C[C@@H](CC(O)(C)C)C)C

>  <mulliken_charges>
35
1   -0.454993
2   -0.455899
3   -0.450707
4   -0.47616
5   -0.300049
6   -0.270338
7   -0.264082
8   -0.079356
9   0.031869
10   0.305975
11   -0.536182
12   -0.633851
13   0.138732
14   0.135535
15   0.13477
16   0.141661
17   0.141897
18   0.135668
19   0.139864
20   0.152529
21   0.124466
22   0.120635
23   0.181302
24   0.139369
25   0.145524
26   0.122037
27   0.149133
28   0.166455
29   0.116807
30   0.121374
31   0.134101
32   0.149027
33   0.122299
34   0.290078
35   0.380511

>  <lowdin_charges>
35
1   -0.445207
2   -0.463089
3   -0.454921
4   -0.467279
5   -0.361072
6   -0.291038
7   -0.277704
8   -0.126401
9   -0.063376
10   0.125876
11   -0.359357
12   -0.466364
13   0.145362
14   0.141031
15   0.144776
16   0.151778
17   0.147982
18   0.144317
19   0.150654
20   0.153442
21   0.141595
22   0.140497
23   0.16646
24   0.151818
25   0.15049
26   0.120685
27   0.146224
28   0.159855
29   0.137838
30   0.142962
31   0.145139
32   0.148139
33   0.133078
34   0.248448
35   0.337363

$$$$

