PCCDB-ID:  52344
public computational chemistry database (PCCDB) project, http://pccdb.org

 24 24  0  0  0  0  0  0  0  0999 V2000
   -1.4865   -2.1198   -3.5023 C   0  0  0  0  0  0  0  0  0  0  0  0
   -0.8986   -2.8765   -2.4905 C   0  0  0  0  0  0  0  0  0  0  0  0
   -0.9520   -0.8627   -3.8009 C   0  0  0  0  0  0  0  0  0  0  0  0
    3.0753    0.4627    1.1631 C   0  0  0  0  0  0  0  0  0  0  0  0
    3.7237   -0.5424    0.1873 C   0  0  0  0  0  0  0  0  0  0  0  0
    0.2070   -2.3998   -1.7830 C   0  0  0  0  0  0  0  0  0  0  0  0
    0.1440   -0.3741   -3.0993 C   0  0  0  0  0  0  0  0  0  0  0  0
    4.0615    1.3300    1.8117 C   0  0  0  0  0  0  0  0  0  0  0  0
    2.6835   -1.4037   -0.5336 C   0  0  0  0  0  0  0  0  0  0  0  0
    0.7416   -1.1334   -2.0745 C   0  0  0  0  0  0  0  0  0  0  0  0
    4.8583    2.0095    2.3130 N   0  0  0  0  0  0  0  0  0  0  0  0
    1.8160   -0.5807   -1.3630 N   0  0  0  0  0  0  0  0  0  0  0  0
   -2.3427   -2.5004   -4.0511 H   0  0  0  0  0  0  0  0  0  0  0  0
   -1.2950   -3.8590   -2.2466 H   0  0  0  0  0  0  0  0  0  0  0  0
   -1.3925   -0.2554   -4.5876 H   0  0  0  0  0  0  0  0  0  0  0  0
    2.5182   -0.0756    1.9404 H   0  0  0  0  0  0  0  0  0  0  0  0
    2.3460    1.0826    0.6301 H   0  0  0  0  0  0  0  0  0  0  0  0
    4.4100   -1.1970    0.7354 H   0  0  0  0  0  0  0  0  0  0  0  0
    4.3339    0.0010   -0.5462 H   0  0  0  0  0  0  0  0  0  0  0  0
    0.6478   -3.0188   -1.0091 H   0  0  0  0  0  0  0  0  0  0  0  0
    0.5445    0.6107   -3.3325 H   0  0  0  0  0  0  0  0  0  0  0  0
    2.0658   -1.9168    0.2135 H   0  0  0  0  0  0  0  0  0  0  0  0
    3.1983   -2.1904   -1.1122 H   0  0  0  0  0  0  0  0  0  0  0  0
    2.3321    0.0986   -1.9123 H   0  0  0  0  0  0  0  0  0  0  0  0
  1  2  1  0  0  0  0
  2 14  1  0  0  0  0
  2  6  2  0  0  0  0
  3  1  2  0  0  0  0
  3  7  1  0  0  0  0
  4  8  1  0  0  0  0
  4 16  1  0  0  0  0
  5 18  1  0  0  0  0
  5  4  1  0  0  0  0
  6 20  1  0  0  0  0
  7 10  2  0  0  0  0
  8 11  3  0  0  0  0
  9  5  1  0  0  0  0
  9 22  1  0  0  0  0
 10  6  1  0  0  0  0
 10 12  1  0  0  0  0
 12  9  1  0  0  0  0
 13  1  1  0  0  0  0
 15  3  1  0  0  0  0
 17  4  1  0  0  0  0
 19  5  1  0  0  0  0
 21  7  1  0  0  0  0
 23  9  1  0  0  0  0
 24 12  1  0  0  0  0
M  END
>  <HBA>
2

>  <HBD>
1

>  <TPSA>
35.82

>  <cid>
52344

>  <dipole>
3.3

>  <excitation_energy_1>
4.641

>  <excitation_energy_2>
4.841

>  <excitation_energy_3>
5.06

>  <excitation_energy_4>
5.317

>  <homo_energy>
-5.573

>  <homo_lumo_gap>
5.584

>  <logP>
2.475

>  <lumo_energy>
0.011

>  <melting_point>
69.78

>  <molecular_refractivity>
49.92

>  <oscillator_strength_1>
0.0284

>  <oscillator_strength_2>
0.018

>  <oscillator_strength_3>
0.0316

>  <oscillator_strength_4>
0.0831

>  <open_babel_can_smiles>
N#CCCCNc1ccccc1

>  <mulliken_charges>
24
1   -0.135994
2   -0.138179
3   -0.133459
4   -0.335245
5   -0.294956
6   -0.182671
7   -0.187711
8   0.347201
9   -0.113836
10   0.351372
11   -0.472303
12   -0.665783
13   0.123851
14   0.127117
15   0.128054
16   0.192947
17   0.209692
18   0.168002
19   0.158702
20   0.12274
21   0.116738
22   0.155587
23   0.145937
24   0.312198

>  <lowdin_charges>
24
1   -0.185028
2   -0.143851
3   -0.146554
4   -0.278608
5   -0.273939
6   -0.210139
7   -0.197462
8   -0.018358
9   -0.198777
10   0.057978
11   -0.129779
12   -0.308978
13   0.156884
14   0.156105
15   0.158409
16   0.18224
17   0.189018
18   0.164399
19   0.154888
20   0.157416
21   0.151305
22   0.15125
23   0.139707
24   0.271872

$$$$

