PCCDB-ID:  30944
public computational chemistry database (PCCDB) project, http://pccdb.org

 24 25  0  0  1  0  0  0  0  0999 V2000
    1.2179   -0.0922   -0.3586 C   0  0  0  0  0  0  0  0  0  0  0  0
    2.0435   -1.8690    1.9185 C   0  0  0  0  0  0  0  0  0  0  0  0
    3.4762    3.2574    1.8080 C   0  0  0  0  0  0  0  0  0  0  0  0
    4.4281    2.7659    2.7034 C   0  0  0  0  0  0  0  0  0  0  0  0
    2.8373    2.3836    0.9150 C   0  0  0  0  0  0  0  0  0  0  0  0
    4.7611    1.4060    2.7351 C   0  0  0  0  0  0  0  0  0  0  0  0
    2.6825   -0.1277    0.0828 C   0  0  2  0  0  0  0  0  0  0  0  0
    3.1155   -1.3580    0.9466 C   0  0  1  0  0  0  0  0  0  0  0  0
    3.1556    1.0342    0.9389 C   0  0  0  0  0  0  0  0  0  0  0  0
    4.1153    0.5489    1.8444 C   0  0  0  0  0  0  0  0  0  0  0  0
    4.2996   -0.8292    1.6654 N   0  0  0  0  0  0  0  0  0  0  0  0
    0.9560   -0.9840   -0.9403 H   0  0  0  0  0  0  0  0  0  0  0  0
    1.0347    0.7790   -0.9974 H   0  0  0  0  0  0  0  0  0  0  0  0
    0.5355   -0.0262    0.4948 H   0  0  0  0  0  0  0  0  0  0  0  0
    1.1822   -2.2865    1.3852 H   0  0  0  0  0  0  0  0  0  0  0  0
    1.6871   -1.0663    2.5740 H   0  0  0  0  0  0  0  0  0  0  0  0
    2.4550   -2.6660    2.5503 H   0  0  0  0  0  0  0  0  0  0  0  0
    3.2294    4.3153    1.8024 H   0  0  0  0  0  0  0  0  0  0  0  0
    4.9181    3.4468    3.3949 H   0  0  0  0  0  0  0  0  0  0  0  0
    2.0941    2.7647    0.2179 H   0  0  0  0  0  0  0  0  0  0  0  0
    5.5013    1.0314    3.4379 H   0  0  0  0  0  0  0  0  0  0  0  0
    3.3067   -0.1502   -0.8247 H   0  0  0  0  0  0  0  0  0  0  0  0
    3.4280   -2.1832    0.2961 H   0  0  0  0  0  0  0  0  0  0  0  0
    4.5723   -1.3524    2.4911 H   0  0  0  0  0  0  0  0  0  0  0  0
  1  7  1  0  0  0  0
  1 14  1  0  0  0  0
  2 17  1  0  0  0  0
  2 16  1  0  0  0  0
  3  4  2  0  0  0  0
  4  6  1  0  0  0  0
  4 19  1  0  0  0  0
  5  9  2  0  0  0  0
  5  3  1  0  0  0  0
  6 21  1  0  0  0  0
  7 22  1  6  0  0  0
  7  9  1  0  0  0  0
  7  8  1  0  0  0  0
  8 23  1  6  0  0  0
  8 11  1  0  0  0  0
  8  2  1  0  0  0  0
  9 10  1  0  0  0  0
 10  6  2  0  0  0  0
 11 10  1  0  0  0  0
 11 24  1  0  0  0  0
 12  1  1  0  0  0  0
 13  1  1  0  0  0  0
 15  2  1  0  0  0  0
 18  3  1  0  0  0  0
 20  5  1  0  0  0  0
M  END
>  <HBA>
1

>  <HBD>
1

>  <TPSA>
12.03

>  <cid>
30944

>  <dipole>
1.66

>  <excitation_energy_1>
4.403

>  <excitation_energy_2>
4.658

>  <excitation_energy_3>
5.083

>  <excitation_energy_4>
5.113

>  <homo_energy>
-5.102

>  <homo_lumo_gap>
5.369

>  <logP>
2.742

>  <lumo_energy>
0.267

>  <melting_point>
63.96

>  <molecular_refractivity>
51.15

>  <oscillator_strength_1>
0.0487

>  <oscillator_strength_2>
0.0121

>  <oscillator_strength_3>
0.0268

>  <oscillator_strength_4>
0.0144

>  <open_babel_can_smiles>
C[C@@H]1[C@H](C)Nc2c1cccc2

>  <mulliken_charges>
24
1   -0.45642
2   -0.457374
3   -0.139963
4   -0.140165
5   -0.219158
6   -0.19224
7   -0.1526
8   0.02805
9   0.12352
10   0.297251
11   -0.647621
12   0.143403
13   0.149987
14   0.153868
15   0.150064
16   0.159447
17   0.138581
18   0.117532
19   0.121402
20   0.119216
21   0.116714
22   0.150556
23   0.131599
24   0.304352

>  <lowdin_charges>
24
1   -0.444766
2   -0.463367
3   -0.185346
4   -0.151898
5   -0.161532
6   -0.204873
7   -0.124113
8   -0.056032
9   -0.044841
10   0.047995
11   -0.310102
12   0.150595
13   0.154577
14   0.153886
15   0.155539
16   0.157242
17   0.149442
18   0.151716
19   0.155767
20   0.154134
21   0.154197
22   0.152963
23   0.142095
24   0.266723

$$$$

