PCCDB-ID:  69021
public computational chemistry database (PCCDB) project, http://pccdb.org

 10  9  0  0  0  0  0  0  0  0999 V2000
    1.0311    0.1061   -0.0099 C   0  0  0  0  0  0  0  0  0  0  0  0
    0.4837    0.2974    1.4084 C   0  0  0  0  0  0  0  0  0  0  0  0
   -0.2768    1.2293    1.8130 N   0  0  0  0  0  0  0  0  0  0  0  0
    2.1785   -0.7458   -0.0249 O   0  0  0  0  0  0  0  0  0  0  0  0
    0.8454   -0.6930    2.2524 O   0  0  0  0  0  0  0  0  0  0  0  0
    1.2352    1.0798   -0.4715 H   0  0  0  0  0  0  0  0  0  0  0  0
    0.2776   -0.4047   -0.6190 H   0  0  0  0  0  0  0  0  0  0  0  0
   -0.4483    1.8943    1.0553 H   0  0  0  0  0  0  0  0  0  0  0  0
    2.9438   -0.2232    0.2644 H   0  0  0  0  0  0  0  0  0  0  0  0
    1.4569   -1.2686    1.7511 H   0  0  0  0  0  0  0  0  0  0  0  0
  1  2  1  0  0  0  0
  2  3  2  0  0  0  0
  2  5  1  0  0  0  0
  4  1  1  0  0  0  0
  4  9  1  0  0  0  0
  6  1  1  0  0  0  0
  7  1  1  0  0  0  0
  8  3  1  0  0  0  0
 10  5  1  0  0  0  0
M  END
>  <HBA>
3

>  <HBD>
2

>  <TPSA>
63.32

>  <cid>
69021

>  <dipole>
4.0

>  <excitation_energy_1>
5.817

>  <excitation_energy_2>
6.143

>  <excitation_energy_3>
6.26

>  <excitation_energy_4>
6.731

>  <homo_energy>
-7.075

>  <homo_lumo_gap>
7.516

>  <logP>
-0.836

>  <lumo_energy>
0.441

>  <melting_point>
70.35

>  <molecular_refractivity>
15.8

>  <oscillator_strength_1>
0.0014

>  <oscillator_strength_2>
0.0084

>  <oscillator_strength_3>
0.0075

>  <oscillator_strength_4>
0.0318

>  <open_babel_can_smiles>
OCC(=N)O

>  <mulliken_charges>
10
1   -0.139042
2   0.445912
3   -0.575074
4   -0.613791
5   -0.576316
6   0.158044
7   0.194072
8   0.278285
9   0.409342
10   0.418566

>  <lowdin_charges>
10
1   -0.178201
2   0.096646
3   -0.399476
4   -0.455351
5   -0.360126
6   0.152829
7   0.175405
8   0.255082
9   0.355949
10   0.357244

$$$$

