PCCDB-ID:  62447
public computational chemistry database (PCCDB) project, http://pccdb.org

 32 31  0  0  0  0  0  0  0  0999 V2000
    3.9877   -0.2787   -4.2445 C   0  0  0  0  0  0  0  0  0  0  0  0
    4.1441   -1.1454   -2.9907 C   0  0  0  0  0  0  0  0  0  0  0  0
    4.8937   -0.4374   -1.8549 C   0  0  0  0  0  0  0  0  0  0  0  0
    5.0516   -1.2972   -0.5943 C   0  0  0  0  0  0  0  0  0  0  0  0
    5.8104   -0.5914    0.5370 C   0  0  0  0  0  0  0  0  0  0  0  0
    5.9713   -1.4527    1.7961 C   0  0  0  0  0  0  0  0  0  0  0  0
    6.7417   -0.7414    2.9183 C   0  0  0  0  0  0  0  0  0  0  0  0
    6.9184   -1.5797    4.1935 C   0  0  0  0  0  0  0  0  0  0  0  0
    5.7042   -1.7921    5.0537 C   0  0  0  0  0  0  0  0  0  0  0  0
    4.5080   -1.1888    4.9597 C   0  0  0  0  0  0  0  0  0  0  0  0
    3.4358   -1.4929    5.9168 C   0  0  0  0  0  0  0  0  0  0  0  0
    2.3304   -0.9836    5.9014 O   0  0  0  0  0  0  0  0  0  0  0  0
    3.4499   -0.8127   -5.0362 H   0  0  0  0  0  0  0  0  0  0  0  0
    4.9648    0.0171   -4.6464 H   0  0  0  0  0  0  0  0  0  0  0  0
    3.4301    0.6400   -4.0243 H   0  0  0  0  0  0  0  0  0  0  0  0
    4.6738   -2.0730   -3.2509 H   0  0  0  0  0  0  0  0  0  0  0  0
    3.1515   -1.4533   -2.6325 H   0  0  0  0  0  0  0  0  0  0  0  0
    4.3651    0.4924   -1.5968 H   0  0  0  0  0  0  0  0  0  0  0  0
    5.8878   -0.1307   -2.2134 H   0  0  0  0  0  0  0  0  0  0  0  0
    5.5731   -2.2305   -0.8542 H   0  0  0  0  0  0  0  0  0  0  0  0
    4.0571   -1.5968   -0.2320 H   0  0  0  0  0  0  0  0  0  0  0  0
    5.2866    0.3400    0.7988 H   0  0  0  0  0  0  0  0  0  0  0  0
    6.8038   -0.2881    0.1737 H   0  0  0  0  0  0  0  0  0  0  0  0
    6.4995   -2.3821    1.5362 H   0  0  0  0  0  0  0  0  0  0  0  0
    4.9805   -1.7587    2.1569 H   0  0  0  0  0  0  0  0  0  0  0  0
    6.2511    0.2097    3.1666 H   0  0  0  0  0  0  0  0  0  0  0  0
    7.7396   -0.4733    2.5464 H   0  0  0  0  0  0  0  0  0  0  0  0
    7.6872   -1.1183    4.8343 H   0  0  0  0  0  0  0  0  0  0  0  0
    7.3327   -2.5658    3.9330 H   0  0  0  0  0  0  0  0  0  0  0  0
    5.8386   -2.5099    5.8668 H   0  0  0  0  0  0  0  0  0  0  0  0
    4.2751   -0.4579    4.1897 H   0  0  0  0  0  0  0  0  0  0  0  0
    3.7061   -2.2488    6.6905 H   0  0  0  0  0  0  0  0  0  0  0  0
  1 15  1  0  0  0  0
  1  2  1  0  0  0  0
  2 17  1  0  0  0  0
  2  3  1  0  0  0  0
  3 18  1  0  0  0  0
  3  4  1  0  0  0  0
  4 21  1  0  0  0  0
  4  5  1  0  0  0  0
  5 22  1  0  0  0  0
  5  6  1  0  0  0  0
  6 25  1  0  0  0  0
  6  7  1  0  0  0  0
  7 26  1  0  0  0  0
  7  8  1  0  0  0  0
  8 28  1  0  0  0  0
  8  9  1  0  0  0  0
  9 30  1  0  0  0  0
 10  9  2  0  0  0  0
 10 11  1  0  0  0  0
 11 32  1  0  0  0  0
 12 11  2  0  0  0  0
 13  1  1  0  0  0  0
 14  1  1  0  0  0  0
 16  2  1  0  0  0  0
 19  3  1  0  0  0  0
 20  4  1  0  0  0  0
 23  5  1  0  0  0  0
 24  6  1  0  0  0  0
 27  7  1  0  0  0  0
 29  8  1  0  0  0  0
 31 10  1  0  0  0  0
M  END
>  <HBA>
1

>  <HBD>
0

>  <TPSA>
17.07

>  <cid>
62447

>  <dipole>
3.95

>  <excitation_energy_1>
3.747

>  <excitation_energy_2>
5.823

>  <excitation_energy_3>
6.151

>  <excitation_energy_4>
6.436

>  <homo_energy>
-6.721

>  <homo_lumo_gap>
5.304

>  <logP>
3.492

>  <lumo_energy>
-1.418

>  <melting_point>
11.63

>  <molecular_refractivity>
54.72

>  <oscillator_strength_1>
0.0002

>  <oscillator_strength_2>
0.3704

>  <oscillator_strength_3>
0.0215

>  <oscillator_strength_4>
0.0708

>  <open_babel_can_smiles>
CCCCCCCC/C=C/C=O

>  <mulliken_charges>
32
1   -0.441455
2   -0.246844
3   -0.246012
4   -0.253672
5   -0.253596
6   -0.257499
7   -0.262967
8   -0.312868
9   -0.094789
10   -0.142569
11   0.22801
12   -0.418617
13   0.141978
14   0.140625
15   0.141838
16   0.129433
17   0.13144
18   0.127733
19   0.125745
20   0.126573
21   0.130476
22   0.129666
23   0.127305
24   0.128106
25   0.141702
26   0.141211
27   0.136453
28   0.162285
29   0.154397
30   0.141036
31   0.149707
32   0.095171

>  <lowdin_charges>
32
1   -0.445459
2   -0.271804
3   -0.274122
4   -0.273889
5   -0.273332
6   -0.277854
7   -0.27596
8   -0.276876
9   -0.107243
10   -0.210425
11   0.039792
12   -0.232922
13   0.150497
14   0.145707
15   0.146637
16   0.13851
17   0.13901
18   0.137956
19   0.136422
20   0.137419
21   0.138834
22   0.138802
23   0.137001
24   0.138364
25   0.14396
26   0.14429
27   0.146298
28   0.165263
29   0.156918
30   0.157656
31   0.168682
32   0.111868

$$$$

