PCCDB-ID:  46441
public computational chemistry database (PCCDB) project, http://pccdb.org

 20 19  0  0  1  0  0  0  0  0999 V2000
    1.2618   -0.2314    0.0681 C   0  0  0  0  0  0  0  0  0  0  0  0
    2.6550    0.1010    0.6168 C   0  0  0  0  0  0  0  0  0  0  0  0
    2.9215    1.6112    0.6517 C   0  0  1  0  0  0  0  0  0  0  0  0
    2.0463    2.3450    1.6931 C   0  0  0  0  0  0  0  0  0  0  0  0
    5.0392    3.4437    0.2024 C   0  0  0  0  0  0  0  0  0  0  0  0
    4.0694    4.2338   -0.0954 N   0  0  0  0  0  0  0  0  0  0  0  0
    6.3708    3.6496   -0.0608 N   0  0  0  0  0  0  0  0  0  0  0  0
    1.4188    1.7466    2.5392 O   0  0  0  0  0  0  0  0  0  0  0  0
    2.0147    3.6738    1.5870 O   0  0  0  0  0  0  0  0  0  0  0  0
    4.7272    1.8854    1.0185 S   0  0  0  0  0  0  0  0  0  0  0  0
    1.1231   -1.3171    0.0225 H   0  0  0  0  0  0  0  0  0  0  0  0
    1.1278    0.1640   -0.9466 H   0  0  0  0  0  0  0  0  0  0  0  0
    0.4811    0.1836    0.7102 H   0  0  0  0  0  0  0  0  0  0  0  0
    3.4215   -0.3755   -0.0049 H   0  0  0  0  0  0  0  0  0  0  0  0
    2.7529   -0.2987    1.6315 H   0  0  0  0  0  0  0  0  0  0  0  0
    2.7631    2.0591   -0.3350 H   0  0  0  0  0  0  0  0  0  0  0  0
    4.3696    5.0651   -0.6071 H   0  0  0  0  0  0  0  0  0  0  0  0
    6.6946    4.6054   -0.1321 H   0  0  0  0  0  0  0  0  0  0  0  0
    7.0494    2.9906    0.2957 H   0  0  0  0  0  0  0  0  0  0  0  0
    2.6588    3.9869    0.8833 H   0  0  0  0  0  0  0  0  0  0  0  0
  1  2  1  0  0  0  0
  1 13  1  0  0  0  0
  2  3  1  0  0  0  0
  2 15  1  0  0  0  0
  3 16  1  6  0  0  0
  3 10  1  0  0  0  0
  3  4  1  0  0  0  0
  4  8  2  0  0  0  0
  5 10  1  0  0  0  0
  6  5  1  0  0  0  0
  7  5  2  0  0  0  0
  7 19  1  0  0  0  0
  9  4  1  0  0  0  0
 11  1  1  0  0  0  0
 12  1  1  0  0  0  0
 14  2  1  0  0  0  0
 17  6  1  0  0  0  0
 18  7  1  0  0  0  0
 20  9  1  0  0  0  0
M  RAD  1   6   2
M  END
>  <HBA>
5

>  <HBD>
3

>  <TPSA>
112.47

>  <cid>
46441

>  <dipole>
7.04

>  <excitation_energy_1>
4.92

>  <excitation_energy_2>
5.442

>  <excitation_energy_3>
5.595

>  <excitation_energy_4>
5.842

>  <homo_energy>
-6.637

>  <homo_lumo_gap>
6.248

>  <logP>
1.276

>  <lumo_energy>
-0.389

>  <melting_point>
145.78

>  <molecular_refractivity>
41.81

>  <oscillator_strength_1>
0.006

>  <oscillator_strength_2>
0.0085

>  <oscillator_strength_3>
0.0265

>  <oscillator_strength_4>
0.0373

>  <open_babel_can_smiles>
CC[C@@H](C(=O)O)SC(=[NH2])[NH]

>  <mulliken_charges>
20
1   -0.459206
2   -0.252855
3   -0.377375
4   0.619701
5   0.341337
6   -0.685238
7   -0.733568
8   -0.458639
9   -0.596772
10   0.152377
11   0.149879
12   0.138782
13   0.18389
14   0.146595
15   0.172943
16   0.202444
17   0.29847
18   0.342584
19   0.3563
20   0.458353

>  <lowdin_charges>
20
1   -0.445463
2   -0.273495
3   -0.253484
4   0.183568
5   0.011779
6   -0.463397
7   -0.469585
8   -0.261222
9   -0.36607
10   0.163759
11   0.153536
12   0.144022
13   0.168571
14   0.152833
15   0.162945
16   0.178369
17   0.26539
18   0.290432
19   0.300388
20   0.357124

$$$$

