PCCDB-ID:  22041
public computational chemistry database (PCCDB) project, http://pccdb.org

 14 13  0  0  0  0  0  0  0  0999 V2000
    1.1778    1.4847    0.5780 C   0  0  0  0  0  0  0  0  0  0  0  0
    1.9516    0.1784    0.7585 C   0  0  0  0  0  0  0  0  0  0  0  0
    2.4367   -0.3782   -0.5614 C   0  0  0  0  0  0  0  0  0  0  0  0
    2.6734   -2.9623   -2.1623 N   0  0  0  0  0  0  0  0  0  0  0  0
    2.2778    0.0591   -1.6629 O   0  0  0  0  0  0  0  0  0  0  0  0
    3.1622   -3.4626   -3.1344 O   0  0  0  0  0  0  0  0  0  0  0  0
    1.5869   -3.0183   -1.6642 O   0  0  0  0  0  0  0  0  0  0  0  0
    3.1393   -1.5661   -0.2934 O   0  0  0  0  0  0  0  0  0  0  0  0
    3.7012   -2.1060   -1.4690 O   0  0  0  0  0  0  0  0  0  0  0  0
    0.8383    1.8555    1.5498 H   0  0  0  0  0  0  0  0  0  0  0  0
    0.3035    1.3376   -0.0622 H   0  0  0  0  0  0  0  0  0  0  0  0
    1.8046    2.2520    0.1147 H   0  0  0  0  0  0  0  0  0  0  0  0
    1.3346   -0.5922    1.2378 H   0  0  0  0  0  0  0  0  0  0  0  0
    2.8241    0.3123    1.4102 H   0  0  0  0  0  0  0  0  0  0  0  0
  1  2  1  0  0  0  0
  1 10  1  0  0  0  0
  2 13  1  0  0  0  0
  2 14  1  0  0  0  0
  3  8  1  0  0  0  0
  3  2  1  0  0  0  0
  4  7  2  0  0  0  0
  4  9  1  0  0  0  0
  5  3  2  0  0  0  0
  6  4  2  0  0  0  0
  9  8  1  0  0  0  0
 11  1  1  0  0  0  0
 12  1  1  0  0  0  0
M  END
>  <HBA>
2

>  <HBD>
0

>  <TPSA>
81.35

>  <cid>
22041

>  <dipole>
3.34

>  <excitation_energy_1>
4.974

>  <excitation_energy_2>
5.132

>  <excitation_energy_3>
5.41

>  <excitation_energy_4>
5.789

>  <homo_energy>
-8.294

>  <homo_lumo_gap>
6.046

>  <logP>
0.586

>  <lumo_energy>
-2.248

>  <melting_point>
20.97

>  <molecular_refractivity>
27.01

>  <oscillator_strength_1>
0.0019

>  <oscillator_strength_2>
0.0022

>  <oscillator_strength_3>
0.0008

>  <oscillator_strength_4>
0.0007

>  <open_babel_can_smiles>
CCC(=O)OON(=O)=O

>  <mulliken_charges>
14
1   -0.440665
2   -0.368498
3   0.641237
4   0.761781
5   -0.421431
6   -0.315628
7   -0.324886
8   -0.259942
9   -0.157001
10   0.155736
11   0.172675
12   0.1707
13   0.195013
14   0.19091

>  <lowdin_charges>
14
1   -0.437648
2   -0.301078
3   0.204644
4   0.37166
5   -0.203456
6   -0.152057
7   -0.159706
8   -0.091567
9   -0.080656
10   0.159159
11   0.165285
12   0.16501
13   0.181714
14   0.178699

$$$$

