PCCDB-ID:  39172
public computational chemistry database (PCCDB) project, http://pccdb.org

 20 21  0  0  0  0  0  0  0  0999 V2000
    0.8338    0.0324   -0.0735 C   0  0  0  0  0  0  0  0  0  0  0  0
    4.4560    1.2413   -0.0829 C   0  0  0  0  0  0  0  0  0  0  0  0
    3.0539    1.2251   -0.0751 C   0  0  0  0  0  0  0  0  0  0  0  0
    5.1792    0.0566   -0.0949 C   0  0  0  0  0  0  0  0  0  0  0  0
    2.4602   -2.4997   -0.1013 C   0  0  0  0  0  0  0  0  0  0  0  0
    3.2119   -3.6242   -0.1162 C   0  0  0  0  0  0  0  0  0  0  0  0
    2.3447    0.0271   -0.0797 C   0  0  0  0  0  0  0  0  0  0  0  0
    3.0707   -1.1922   -0.0926 C   0  0  0  0  0  0  0  0  0  0  0  0
    4.4792   -1.1514   -0.0996 C   0  0  0  0  0  0  0  0  0  0  0  0
    4.6689   -3.5726   -0.1222 C   0  0  0  0  0  0  0  0  0  0  0  0
    5.4196   -4.5191   -0.1346 O   0  0  0  0  0  0  0  0  0  0  0  0
    5.2278   -2.2936   -0.1116 O   0  0  0  0  0  0  0  0  0  0  0  0
    0.4526    1.0573   -0.0641 H   0  0  0  0  0  0  0  0  0  0  0  0
    0.4267   -0.4796    0.8072 H   0  0  0  0  0  0  0  0  0  0  0  0
    0.4196   -0.4661   -0.9586 H   0  0  0  0  0  0  0  0  0  0  0  0
    4.9825    2.1915   -0.0799 H   0  0  0  0  0  0  0  0  0  0  0  0
    2.5080    2.1645   -0.0653 H   0  0  0  0  0  0  0  0  0  0  0  0
    6.2636    0.0390   -0.1010 H   0  0  0  0  0  0  0  0  0  0  0  0
    1.3768   -2.5765   -0.0965 H   0  0  0  0  0  0  0  0  0  0  0  0
    2.7774   -4.6171   -0.1243 H   0  0  0  0  0  0  0  0  0  0  0  0
  1 13  1  0  0  0  0
  1 14  1  0  0  0  0
  2 16  1  0  0  0  0
  2  3  2  0  0  0  0
  3 17  1  0  0  0  0
  4  2  1  0  0  0  0
  5 19  1  0  0  0  0
  5  8  1  0  0  0  0
  6  5  2  0  0  0  0
  7  3  1  0  0  0  0
  7  1  1  0  0  0  0
  8  7  2  0  0  0  0
  9  4  2  0  0  0  0
  9  8  1  0  0  0  0
 10  6  1  0  0  0  0
 10 12  1  0  0  0  0
 11 10  2  0  0  0  0
 12  9  1  0  0  0  0
 15  1  1  0  0  0  0
 18  4  1  0  0  0  0
 20  6  1  0  0  0  0
M  END
>  <HBA>
2

>  <HBD>
0

>  <TPSA>
30.21

>  <cid>
39172

>  <dipole>
5.2

>  <excitation_energy_1>
4.046

>  <excitation_energy_2>
4.367

>  <excitation_energy_3>
4.416

>  <excitation_energy_4>
5.422

>  <homo_energy>
-6.422

>  <homo_lumo_gap>
4.561

>  <logP>
2.101

>  <lumo_energy>
-1.861

>  <melting_point>
87.16

>  <molecular_refractivity>
47.45

>  <oscillator_strength_1>
0.0767

>  <oscillator_strength_2>
0.2219

>  <oscillator_strength_3>
0.0

>  <oscillator_strength_4>
0.0155

>  <open_babel_can_smiles>
O=c1ccc2c(o1)cccc2C

>  <mulliken_charges>
20
1   -0.538276
2   -0.125876
3   -0.19313
4   -0.171081
5   -0.120176
6   -0.217698
7   0.121419
8   0.065631
9   0.314578
10   0.596821
11   -0.465741
12   -0.516983
13   0.165545
14   0.168853
15   0.168916
16   0.143132
17   0.130505
18   0.156278
19   0.153481
20   0.163803

>  <lowdin_charges>
20
1   -0.44461
2   -0.134174
3   -0.178779
4   -0.175144
5   -0.109144
6   -0.198875
7   0.013013
8   -0.051608
9   0.116828
10   0.197828
11   -0.242367
12   -0.134118
13   0.162926
14   0.164181
15   0.164198
16   0.165674
17   0.159908
18   0.174076
19   0.168899
20   0.181288

$$$$

