PCCDB-ID:  6754
public computational chemistry database (PCCDB) project, http://pccdb.org

 24 25  0  0  0  0  0  0  0  0999 V2000
    0.7628    0.0183   -0.0335 C   0  0  0  0  0  0  0  0  0  0  0  0
    7.2198   -1.1526   -0.2659 C   0  0  0  0  0  0  0  0  0  0  0  0
    6.5223   -2.3763   -0.1483 C   0  0  0  0  0  0  0  0  0  0  0  0
    6.5292    0.0399   -0.2859 C   0  0  0  0  0  0  0  0  0  0  0  0
    5.1469   -2.3852   -0.0726 C   0  0  0  0  0  0  0  0  0  0  0  0
    2.9912    1.2416   -0.1252 C   0  0  0  0  0  0  0  0  0  0  0  0
    2.2742    0.0195   -0.0780 C   0  0  0  0  0  0  0  0  0  0  0  0
    5.1132    0.0713   -0.1846 C   0  0  0  0  0  0  0  0  0  0  0  0
    4.4090   -1.1726   -0.0964 C   0  0  0  0  0  0  0  0  0  0  0  0
    4.3703    1.2970   -0.1724 C   0  0  0  0  0  0  0  0  0  0  0  0
    2.9849   -1.1666   -0.0482 C   0  0  0  0  0  0  0  0  0  0  0  0
    5.0553    2.5270   -0.2692 N   0  0  0  0  0  0  0  0  0  0  0  0
    2.3750   -2.3981    0.0245 O   0  0  0  0  0  0  0  0  0  0  0  0
    0.3701    1.0385   -0.0606 H   0  0  0  0  0  0  0  0  0  0  0  0
    0.3729   -0.4499    0.8825 H   0  0  0  0  0  0  0  0  0  0  0  0
    0.3226   -0.5161   -0.8881 H   0  0  0  0  0  0  0  0  0  0  0  0
    8.3033   -1.1532   -0.3515 H   0  0  0  0  0  0  0  0  0  0  0  0
    7.0734   -3.3127   -0.1284 H   0  0  0  0  0  0  0  0  0  0  0  0
    7.0721    0.9712   -0.4148 H   0  0  0  0  0  0  0  0  0  0  0  0
    4.6028   -3.3202    0.0025 H   0  0  0  0  0  0  0  0  0  0  0  0
    2.4234    2.1706   -0.1150 H   0  0  0  0  0  0  0  0  0  0  0  0
    4.4457    3.3214   -0.1064 H   0  0  0  0  0  0  0  0  0  0  0  0
    5.8576    2.5906    0.3494 H   0  0  0  0  0  0  0  0  0  0  0  0
    1.4152   -2.2714    0.0452 H   0  0  0  0  0  0  0  0  0  0  0  0
  1 15  1  0  0  0  0
  2  3  1  0  0  0  0
  3 18  1  0  0  0  0
  3  5  2  0  0  0  0
  4  2  2  0  0  0  0
  4  8  1  0  0  0  0
  5 20  1  0  0  0  0
  6 21  1  0  0  0  0
  6  7  2  0  0  0  0
  7 11  1  0  0  0  0
  7  1  1  0  0  0  0
  8 10  2  0  0  0  0
  8  9  1  0  0  0  0
  9  5  1  0  0  0  0
  9 11  2  0  0  0  0
 10  6  1  0  0  0  0
 11 13  1  0  0  0  0
 12 10  1  0  0  0  0
 12 22  1  0  0  0  0
 12 23  1  0  0  0  0
 13 24  1  0  0  0  0
 14  1  1  0  0  0  0
 16  1  1  0  0  0  0
 17  2  1  0  0  0  0
 19  4  1  0  0  0  0
M  END
>  <HBA>
2

>  <HBD>
2

>  <TPSA>
46.25

>  <cid>
6754

>  <dipole>
2.39

>  <excitation_energy_1>
3.569

>  <excitation_energy_2>
3.998

>  <excitation_energy_3>
4.144

>  <excitation_energy_4>
4.367

>  <homo_energy>
-4.727

>  <homo_lumo_gap>
4.15

>  <logP>
3.017

>  <lumo_energy>
-0.577

>  <melting_point>
143.62

>  <molecular_refractivity>
55.34

>  <oscillator_strength_1>
0.0773

>  <oscillator_strength_2>
0.0758

>  <oscillator_strength_3>
0.0001

>  <oscillator_strength_4>
0.0055

>  <open_babel_can_smiles>
Cc1cc(N)c2c(c1O)cccc2

>  <mulliken_charges>
24
1   -0.582199
2   -0.130665
3   -0.136673
4   -0.206634
5   -0.177276
6   -0.265303
7   0.169542
8   0.099589
9   0.084713
10   0.242657
11   0.182637
12   -0.789831
13   -0.656246
14   0.16829
15   0.160091
16   0.161903
17   0.124605
18   0.125709
19   0.127935
20   0.150131
21   0.104961
22   0.313484
23   0.315486
24   0.413093

>  <lowdin_charges>
24
1   -0.452956
2   -0.157414
3   -0.161757
4   -0.164682
5   -0.15074
6   -0.209416
7   -0.052098
8   -0.018763
9   -0.01589
10   0.035631
11   0.072783
12   -0.498737
13   -0.387318
14   0.165023
15   0.155077
16   0.156663
17   0.153986
18   0.156743
19   0.157623
20   0.169817
21   0.148516
22   0.270293
23   0.271478
24   0.356137

$$$$

