PCCDB-ID:  13915
public computational chemistry database (PCCDB) project, http://pccdb.org

 24 25  0  0  1  0  0  0  0  0999 V2000
   -0.4196    0.6094    1.4055 C   0  0  0  0  0  0  0  0  0  0  0  0
    0.8290    0.8913    1.0198 C   0  0  0  0  0  0  0  0  0  0  0  0
   -1.2550    0.5876   -0.9433 C   0  0  0  0  0  0  0  0  0  0  0  0
    0.1934    0.9122   -1.3916 C   0  0  0  0  0  0  0  0  0  0  0  0
   -1.1837   -2.3644   -0.8331 C   0  0  0  0  0  0  0  0  0  0  0  0
   -0.4936   -2.3268    1.4376 C   0  0  0  0  0  0  0  0  0  0  0  0
    1.3680   -1.7924   -1.6150 C   0  0  0  0  0  0  0  0  0  0  0  0
    2.0540   -1.7496    0.6569 C   0  0  0  0  0  0  0  0  0  0  0  0
   -1.2205   -0.1826    0.4005 C   0  0  1  0  0  0  0  0  0  0  0  0
    1.1954    0.3622   -0.3456 C   0  0  2  0  0  0  0  0  0  0  0  0
   -0.4646   -1.5665    0.1758 C   0  0  0  0  0  0  0  0  0  0  0  0
    1.0566   -1.2238   -0.2917 C   0  0  0  0  0  0  0  0  0  0  0  0
   -1.8059   -2.9590   -1.6111 N   0  0  0  0  0  0  0  0  0  0  0  0
   -0.5803   -2.9035    2.4402 N   0  0  0  0  0  0  0  0  0  0  0  0
    1.6512   -2.1853   -2.6693 N   0  0  0  0  0  0  0  0  0  0  0  0
    2.8826   -2.1180    1.3802 N   0  0  0  0  0  0  0  0  0  0  0  0
   -0.8476    0.9039    2.3582 H   0  0  0  0  0  0  0  0  0  0  0  0
    1.5451    1.4441    1.6190 H   0  0  0  0  0  0  0  0  0  0  0  0
   -1.7831   -0.0012   -1.6997 H   0  0  0  0  0  0  0  0  0  0  0  0
   -1.8337    1.5025   -0.7896 H   0  0  0  0  0  0  0  0  0  0  0  0
    0.3487    1.9919   -1.4684 H   0  0  0  0  0  0  0  0  0  0  0  0
    0.4093    0.4874   -2.3767 H   0  0  0  0  0  0  0  0  0  0  0  0
   -2.2288   -0.4144    0.7497 H   0  0  0  0  0  0  0  0  0  0  0  0
    2.2257    0.5902   -0.6267 H   0  0  0  0  0  0  0  0  0  0  0  0
  1 17  1  0  0  0  0
  2  1  2  0  0  0  0
  2 18  1  0  0  0  0
  3 20  1  0  0  0  0
  3  9  1  0  0  0  0
  4  3  1  0  0  0  0
  4 10  1  0  0  0  0
  5 11  1  0  0  0  0
  6 14  3  0  0  0  0
  7 12  1  0  0  0  0
  8 16  3  0  0  0  0
  9 23  1  1  0  0  0
  9  1  1  0  0  0  0
 10 24  1  6  0  0  0
 10 12  1  0  0  0  0
 10  2  1  0  0  0  0
 11  9  1  0  0  0  0
 11  6  1  0  0  0  0
 12 11  1  0  0  0  0
 12  8  1  0  0  0  0
 13  5  3  0  0  0  0
 15  7  3  0  0  0  0
 19  3  1  0  0  0  0
 21  4  1  0  0  0  0
 22  4  1  0  0  0  0
M  END
>  <HBA>
4

>  <HBD>
0

>  <TPSA>
95.16

>  <cid>
13915

>  <dipole>
7.41

>  <excitation_energy_1>
5.919

>  <excitation_energy_2>
5.966

>  <excitation_energy_3>
6.534

>  <excitation_energy_4>
6.579

>  <homo_energy>
-8.147

>  <homo_lumo_gap>
6.746

>  <logP>
1.65

>  <lumo_energy>
-1.401

>  <melting_point>
197.38

>  <molecular_refractivity>
53.57

>  <oscillator_strength_1>
0.0021

>  <oscillator_strength_2>
0.0291

>  <oscillator_strength_3>
0.0463

>  <oscillator_strength_4>
0.0776

>  <open_babel_can_smiles>
N#CC1(C#N)[C@@H]2CC[C@H](C1(C#N)C#N)C=C2

>  <mulliken_charges>
24
1   -0.103026
2   -0.103553
3   -0.29321
4   -0.293191
5   0.384262
6   0.38247
7   0.384014
8   0.382475
9   -0.145931
10   -0.145757
11   -0.037643
12   -0.037485
13   -0.450139
14   -0.441206
15   -0.450053
16   -0.441346
17   0.169402
18   0.169491
19   0.184756
20   0.17107
21   0.171124
22   0.184694
23   0.17937
24   0.17941

>  <lowdin_charges>
24
1   -0.158628
2   -0.160154
3   -0.284646
4   -0.281261
5   -0.013931
6   -0.011646
7   -0.014595
8   -0.011109
9   -0.109194
10   -0.10816
11   0.024172
12   0.023419
13   -0.068265
14   -0.067506
15   -0.068351
16   -0.067409
17   0.177333
18   0.178796
19   0.170584
20   0.166696
21   0.164645
22   0.16883
23   0.175423
24   0.174957

$$$$

