PCCDB-ID:  14997
public computational chemistry database (PCCDB) project, http://pccdb.org

 21 20  0  0  0  0  0  0  0  0999 V2000
    3.1720   -0.2391    0.0516 C   0  0  0  0  0  0  0  0  0  0  0  0
    3.3049   -5.6895   -0.6298 C   0  0  0  0  0  0  0  0  0  0  0  0
    2.0886   -1.3306   -2.5668 C   0  0  0  0  0  0  0  0  0  0  0  0
    2.5277   -2.5787   -3.3408 C   0  0  0  0  0  0  0  0  0  0  0  0
    3.6084    0.0581   -1.3691 C   0  0  0  0  0  0  0  0  0  0  0  0
    2.6089   -4.6711   -1.5135 C   0  0  0  0  0  0  0  0  0  0  0  0
    3.1697   -0.3780   -2.4730 N   0  0  0  0  0  0  0  0  0  0  0  0
    4.6414    0.9556   -1.4502 O   0  0  0  0  0  0  0  0  0  0  0  0
    1.4022   -4.5691   -1.5785 O   0  0  0  0  0  0  0  0  0  0  0  0
    3.7421   -3.6210   -2.4401 S   0  0  0  0  0  0  0  0  0  0  0  0
    2.8374    0.6827    0.5440 H   0  0  0  0  0  0  0  0  0  0  0  0
    4.0160   -0.6398    0.6270 H   0  0  0  0  0  0  0  0  0  0  0  0
    2.3585   -0.9629    0.0992 H   0  0  0  0  0  0  0  0  0  0  0  0
    3.1149   -5.4338    0.4189 H   0  0  0  0  0  0  0  0  0  0  0  0
    4.3837   -5.7315   -0.7984 H   0  0  0  0  0  0  0  0  0  0  0  0
    2.8641   -6.6742   -0.8153 H   0  0  0  0  0  0  0  0  0  0  0  0
    1.6503   -1.6468   -1.6091 H   0  0  0  0  0  0  0  0  0  0  0  0
    1.2799   -0.8644   -3.1489 H   0  0  0  0  0  0  0  0  0  0  0  0
    3.0146   -2.2919   -4.2759 H   0  0  0  0  0  0  0  0  0  0  0  0
    1.6664   -3.2177   -3.5517 H   0  0  0  0  0  0  0  0  0  0  0  0
    4.9111    1.2122   -0.5552 H   0  0  0  0  0  0  0  0  0  0  0  0
  1 13  1  0  0  0  0
  1 11  1  0  0  0  0
  1 12  1  0  0  0  0
  2 14  1  0  0  0  0
  3  7  1  0  0  0  0
  3 17  1  0  0  0  0
  4  3  1  0  0  0  0
  4 10  1  0  0  0  0
  5  1  1  0  0  0  0
  6  2  1  0  0  0  0
  7  5  2  0  0  0  0
  8  5  1  0  0  0  0
  8 21  1  0  0  0  0
  9  6  2  0  0  0  0
 10  6  1  0  0  0  0
 15  2  1  0  0  0  0
 16  2  1  0  0  0  0
 18  3  1  0  0  0  0
 19  4  1  0  0  0  0
 20  4  1  0  0  0  0
M  END
>  <HBA>
4

>  <HBD>
1

>  <TPSA>
71.47

>  <cid>
14997

>  <dipole>
3.54

>  <excitation_energy_1>
4.738

>  <excitation_energy_2>
5.494

>  <excitation_energy_3>
5.564

>  <excitation_energy_4>
5.715

>  <homo_energy>
-6.659

>  <homo_lumo_gap>
6.215

>  <logP>
0.793

>  <lumo_energy>
-0.444

>  <melting_point>
52.37

>  <molecular_refractivity>
41.75

>  <oscillator_strength_1>
0.0003

>  <oscillator_strength_2>
0.0484

>  <oscillator_strength_3>
0.008

>  <oscillator_strength_4>
0.0042

>  <open_babel_can_smiles>
CC(=O)SCC/N=C(/O)\C

>  <mulliken_charges>
21
1   -0.557088
2   -0.511791
3   -0.150395
4   -0.420358
5   0.502151
6   0.264083
7   -0.405393
8   -0.576488
9   -0.425697
10   0.105945
11   0.172987
12   0.17425
13   0.185551
14   0.187755
15   0.173513
16   0.191436
17   0.140284
18   0.156904
19   0.191557
20   0.197612
21   0.403182

>  <lowdin_charges>
21
1   -0.48505
2   -0.46128
3   -0.200546
4   -0.376401
5   0.136341
6   0.04142
7   -0.204943
8   -0.370608
9   -0.24909
10   0.129069
11   0.168321
12   0.16985
13   0.175164
14   0.179569
15   0.169198
16   0.181469
17   0.133971
18   0.155533
19   0.177449
20   0.178996
21   0.351569

$$$$

