PCCDB-ID:  47083
public computational chemistry database (PCCDB) project, http://pccdb.org

 26 25  0  0  0  0  0  0  0  0999 V2000
    1.8783    1.5392   -0.9933 C   0  0  0  0  0  0  0  0  0  0  0  0
    2.2114    0.2527    1.1279 C   0  0  0  0  0  0  0  0  0  0  0  0
    5.6430   -2.9050    3.8218 C   0  0  0  0  0  0  0  0  0  0  0  0
    7.0599   -0.8425    3.6866 C   0  0  0  0  0  0  0  0  0  0  0  0
    3.4269   -0.3798   -1.0399 C   0  0  0  0  0  0  0  0  0  0  0  0
    6.7496   -2.3973    1.6750 C   0  0  0  0  0  0  0  0  0  0  0  0
    2.4735    0.5458   -0.3270 C   0  0  0  0  0  0  0  0  0  0  0  0
    6.4331   -2.0897    3.1175 C   0  0  0  0  0  0  0  0  0  0  0  0
    5.0289   -1.5101    0.3094 C   0  0  0  0  0  0  0  0  0  0  0  0
    4.3255   -2.4862    0.4596 O   0  0  0  0  0  0  0  0  0  0  0  0
    4.7229   -0.4028   -0.3866 O   0  0  0  0  0  0  0  0  0  0  0  0
    6.2685   -1.3410    0.7991 O   0  0  0  0  0  0  0  0  0  0  0  0
    1.1446    2.1856   -0.5186 H   0  0  0  0  0  0  0  0  0  0  0  0
    2.0950    1.7382   -2.0400 H   0  0  0  0  0  0  0  0  0  0  0  0
    1.4434    0.9164    1.5357 H   0  0  0  0  0  0  0  0  0  0  0  0
    3.1240    0.3846    1.7227 H   0  0  0  0  0  0  0  0  0  0  0  0
    1.8914   -0.7869    1.2714 H   0  0  0  0  0  0  0  0  0  0  0  0
    5.4186   -2.7168    4.8690 H   0  0  0  0  0  0  0  0  0  0  0  0
    5.1896   -3.7856    3.3751 H   0  0  0  0  0  0  0  0  0  0  0  0
    6.7577   -0.6782    4.7251 H   0  0  0  0  0  0  0  0  0  0  0  0
    6.7752    0.0388    3.0992 H   0  0  0  0  0  0  0  0  0  0  0  0
    8.1567   -0.9009    3.6532 H   0  0  0  0  0  0  0  0  0  0  0  0
    3.6198   -0.0398   -2.0600 H   0  0  0  0  0  0  0  0  0  0  0  0
    3.0409   -1.4033   -1.0606 H   0  0  0  0  0  0  0  0  0  0  0  0
    6.3161   -3.3472    1.3599 H   0  0  0  0  0  0  0  0  0  0  0  0
    7.8301   -2.4058    1.4993 H   0  0  0  0  0  0  0  0  0  0  0  0
  1 13  1  0  0  0  0
  1  7  2  0  0  0  0
  2 17  1  0  0  0  0
  2 15  1  0  0  0  0
  2 16  1  0  0  0  0
  3 18  1  0  0  0  0
  4 20  1  0  0  0  0
  5 11  1  0  0  0  0
  5  7  1  0  0  0  0
  6  8  1  0  0  0  0
  7  2  1  0  0  0  0
  8  4  1  0  0  0  0
  8  3  2  0  0  0  0
  9 10  2  0  0  0  0
  9 12  1  0  0  0  0
 11  9  1  0  0  0  0
 12  6  1  0  0  0  0
 14  1  1  0  0  0  0
 19  3  1  0  0  0  0
 21  4  1  0  0  0  0
 22  4  1  0  0  0  0
 23  5  1  0  0  0  0
 24  5  1  0  0  0  0
 25  6  1  0  0  0  0
 26  6  1  0  0  0  0
M  END
>  <HBA>
3

>  <HBD>
0

>  <TPSA>
35.53

>  <cid>
47083

>  <dipole>
0.74

>  <excitation_energy_1>
6.364

>  <excitation_energy_2>
6.479

>  <excitation_energy_3>
6.525

>  <excitation_energy_4>
6.543

>  <homo_energy>
-6.925

>  <homo_lumo_gap>
7.097

>  <logP>
2.292

>  <lumo_energy>
0.171

>  <melting_point>
-49.09

>  <molecular_refractivity>
47.19

>  <oscillator_strength_1>
0.0503

>  <oscillator_strength_2>
0.0789

>  <oscillator_strength_3>
0.0292

>  <oscillator_strength_4>
0.0066

>  <open_babel_can_smiles>
O=C(OCC(=C)C)OCC(=C)C

>  <mulliken_charges>
26
1   -0.396911
2   -0.520429
3   -0.378973
4   -0.510095
5   -0.132129
6   -0.12167
7   0.234955
8   0.204025
9   0.80601
10   -0.49466
11   -0.459077
12   -0.461412
13   0.140776
14   0.138272
15   0.153521
16   0.168526
17   0.170818
18   0.139458
19   0.153502
20   0.15489
21   0.174596
22   0.153855
23   0.157782
24   0.186565
25   0.179817
26   0.157988

>  <lowdin_charges>
26
1   -0.346678
2   -0.444159
3   -0.33373
4   -0.44049
5   -0.124431
6   -0.123957
7   -0.000974
8   -0.010407
9   0.23268
10   -0.296614
11   -0.180773
12   -0.182524
13   0.159869
14   0.155567
15   0.159337
16   0.164155
17   0.164656
18   0.156398
19   0.165316
20   0.157176
21   0.16669
22   0.154877
23   0.156933
24   0.169067
25   0.167076
26   0.154942

$$$$

