PCCDB-ID:  21819
public computational chemistry database (PCCDB) project, http://pccdb.org

 21 21  0  0  0  0  0  0  0  0999 V2000
    2.4551   -1.5262   -0.6799 C   0  0  0  0  0  0  0  0  0  0  0  0
    2.7659   -0.0925   -0.2290 C   0  0  0  0  0  0  0  0  0  0  0  0
    6.8988   -0.0456    0.8340 C   0  0  0  0  0  0  0  0  0  0  0  0
    6.1797    0.0046    3.2219 C   0  0  0  0  0  0  0  0  0  0  0  0
    4.4818   -0.0468    1.4111 C   0  0  0  0  0  0  0  0  0  0  0  0
    7.7575   -0.0652   -0.1124 N   0  0  0  0  0  0  0  0  0  0  0  0
    6.3891    0.0304    4.4825 N   0  0  0  0  0  0  0  0  0  0  0  0
    3.2348   -0.0471    1.1456 N   0  0  0  0  0  0  0  0  0  0  0  0
    7.1449   -0.0025    2.2063 N   0  0  0  0  0  0  0  0  0  0  0  0
    5.5483   -0.0723    0.5165 N   0  0  0  0  0  0  0  0  0  0  0  0
    4.8856   -0.0165    2.7417 N   0  0  0  0  0  0  0  0  0  0  0  0
    2.0192   -1.5308   -1.6857 H   0  0  0  0  0  0  0  0  0  0  0  0
    1.7439   -1.9921    0.0094 H   0  0  0  0  0  0  0  0  0  0  0  0
    3.3610   -2.1433   -0.6962 H   0  0  0  0  0  0  0  0  0  0  0  0
    1.8465    0.5030   -0.2782 H   0  0  0  0  0  0  0  0  0  0  0  0
    3.4604    0.3790   -0.9482 H   0  0  0  0  0  0  0  0  0  0  0  0
    8.7150   -0.0459    0.2386 H   0  0  0  0  0  0  0  0  0  0  0  0
    7.3846    0.0471    4.7036 H   0  0  0  0  0  0  0  0  0  0  0  0
    8.1114    0.0044    2.4971 H   0  0  0  0  0  0  0  0  0  0  0  0
    5.3582   -0.1073   -0.4743 H   0  0  0  0  0  0  0  0  0  0  0  0
    4.1467    0.0005    3.4313 H   0  0  0  0  0  0  0  0  0  0  0  0
  1  2  1  0  0  0  0
  1 13  1  0  0  0  0
  2  8  1  0  0  0  0
  3  9  1  0  0  0  0
  4  7  2  0  0  0  0
  5 11  1  0  0  0  0
  6 17  1  0  0  0  0
  6  3  2  0  0  0  0
  7 18  1  0  0  0  0
  8  5  2  0  0  0  0
  9 19  1  0  0  0  0
  9  4  1  0  0  0  0
 10  3  1  0  0  0  0
 10  5  1  0  0  0  0
 11  4  1  0  0  0  0
 11 21  1  0  0  0  0
 12  1  1  0  0  0  0
 14  1  1  0  0  0  0
 15  2  1  0  0  0  0
 16  2  1  0  0  0  0
 20 10  1  0  0  0  0
M  END
>  <HBA>
6

>  <HBD>
3

>  <TPSA>
102.74

>  <cid>
21819

>  <dipole>
2.17

>  <excitation_energy_1>
5.114

>  <excitation_energy_2>
5.667

>  <excitation_energy_3>
5.723

>  <excitation_energy_4>
5.811

>  <homo_energy>
-6.142

>  <homo_lumo_gap>
6.498

>  <logP>
0.703

>  <lumo_energy>
0.356

>  <melting_point>
184.04

>  <molecular_refractivity>
42.75

>  <oscillator_strength_1>
0.0065

>  <oscillator_strength_2>
0.0497

>  <oscillator_strength_3>
0.1101

>  <oscillator_strength_4>
0.0024

>  <open_babel_can_smiles>
CCN=c1[nH]c(=N)[nH]c(=N)[nH]1

>  <mulliken_charges>
21
1   -0.436504
2   -0.15937
3   0.691456
4   0.692119
5   0.751534
6   -0.648983
7   -0.647437
8   -0.48635
9   -0.70693
10   -0.702814
11   -0.678194
12   0.142806
13   0.1632
14   0.143218
15   0.154313
16   0.108856
17   0.279787
18   0.277197
19   0.337127
20   0.361912
21   0.363059

>  <lowdin_charges>
21
1   -0.450305
2   -0.198646
3   0.145288
4   0.13703
5   0.134329
6   -0.456416
7   -0.452304
8   -0.259704
9   -0.273449
10   -0.249656
11   -0.2324
12   0.150514
13   0.159864
14   0.147279
15   0.151342
16   0.118858
17   0.256268
18   0.253215
19   0.295132
20   0.307095
21   0.316666

$$$$

