PCCDB-ID:  27513
public computational chemistry database (PCCDB) project, http://pccdb.org

 17 18  0  0  0  0  0  0  0  0999 V2000
    2.1369   -0.7211   -0.0905 C   0  0  0  0  0  0  0  0  0  0  0  0
    0.9460   -1.4252   -0.0277 C   0  0  0  0  0  0  0  0  0  0  0  0
   -1.6416    1.1378    0.0602 C   0  0  0  0  0  0  0  0  0  0  0  0
   -2.3895   -0.0069    0.1093 C   0  0  0  0  0  0  0  0  0  0  0  0
    0.9521    1.4285   -0.0629 C   0  0  0  0  0  0  0  0  0  0  0  0
    3.3980    1.3901   -0.1752 C   0  0  0  0  0  0  0  0  0  0  0  0
    2.1445    0.6987   -0.1087 C   0  0  0  0  0  0  0  0  0  0  0  0
   -0.2630    0.7361    0.0020 C   0  0  0  0  0  0  0  0  0  0  0  0
   -0.2445   -0.6897    0.0191 C   0  0  0  0  0  0  0  0  0  0  0  0
    4.4182    1.9481   -0.2294 N   0  0  0  0  0  0  0  0  0  0  0  0
   -1.5524   -1.1101    0.0847 N   0  0  0  0  0  0  0  0  0  0  0  0
    3.0824   -1.2516   -0.1284 H   0  0  0  0  0  0  0  0  0  0  0  0
    0.9425   -2.5115   -0.0150 H   0  0  0  0  0  0  0  0  0  0  0  0
   -2.0233    2.1490    0.0638 H   0  0  0  0  0  0  0  0  0  0  0  0
   -3.4614   -0.1372    0.1615 H   0  0  0  0  0  0  0  0  0  0  0  0
    0.9786    2.5135   -0.0786 H   0  0  0  0  0  0  0  0  0  0  0  0
   -1.8564   -2.0712    0.1104 H   0  0  0  0  0  0  0  0  0  0  0  0
  1  2  1  0  0  0  0
  2 13  1  0  0  0  0
  2  9  2  0  0  0  0
  3 14  1  0  0  0  0
  3  4  2  0  0  0  0
  4 15  1  0  0  0  0
  5  8  2  0  0  0  0
  6  7  1  0  0  0  0
  7  1  2  0  0  0  0
  7  5  1  0  0  0  0
  8  9  1  0  0  0  0
  8  3  1  0  0  0  0
  9 11  1  0  0  0  0
 10  6  3  0  0  0  0
 11  4  1  0  0  0  0
 11 17  1  0  0  0  0
 12  1  1  0  0  0  0
 16  5  1  0  0  0  0
M  END
>  <HBA>
1

>  <HBD>
1

>  <TPSA>
39.58

>  <cid>
27513

>  <dipole>
7.27

>  <excitation_energy_1>
4.46

>  <excitation_energy_2>
4.637

>  <excitation_energy_3>
5.121

>  <excitation_energy_4>
5.541

>  <homo_energy>
-6.09

>  <homo_lumo_gap>
5.151

>  <logP>
2.04

>  <lumo_energy>
-0.939

>  <melting_point>
133.66

>  <molecular_refractivity>
43.01

>  <oscillator_strength_1>
0.017

>  <oscillator_strength_2>
0.0117

>  <oscillator_strength_3>
0.002

>  <oscillator_strength_4>
0.0011

>  <open_babel_can_smiles>
N#Cc1ccc2c(c1)cc[nH]2

>  <mulliken_charges>
17
1   -0.165135
2   -0.162238
3   -0.219933
4   0.053908
5   -0.222142
6   0.228124
7   0.127276
8   0.118025
9   0.328142
10   -0.489854
11   -0.680283
12   0.152784
13   0.137028
14   0.142697
15   0.161085
16   0.155452
17   0.335064

>  <lowdin_charges>
17
1   -0.144938
2   -0.176096
3   -0.2144
4   -0.110745
5   -0.130681
6   -0.014729
7   -0.037558
8   -0.024575
9   0.039363
10   -0.134264
11   -0.189722
12   0.172539
13   0.161469
14   0.169603
15   0.168866
16   0.17136
17   0.294507

$$$$

