PCCDB-ID:  71027
public computational chemistry database (PCCDB) project, http://pccdb.org

 28 29  0  0  0  0  0  0  0  0999 V2000
   -1.3291   -0.0550    0.8014 C   0  0  0  0  0  0  0  0  0  0  0  0
    5.1122   -3.2510   -0.8392 C   0  0  0  0  0  0  0  0  0  0  0  0
   -0.4819    0.7710    1.5411 C   0  0  0  0  0  0  0  0  0  0  0  0
   -0.8254   -0.7592   -0.2954 C   0  0  0  0  0  0  0  0  0  0  0  0
    4.0950   -3.1998    0.1157 C   0  0  0  0  0  0  0  0  0  0  0  0
    5.3646   -2.1343   -1.6393 C   0  0  0  0  0  0  0  0  0  0  0  0
    0.8590    0.9026    1.1796 C   0  0  0  0  0  0  0  0  0  0  0  0
    0.5165   -0.6391   -0.6493 C   0  0  0  0  0  0  0  0  0  0  0  0
    3.3354   -2.0417    0.2706 C   0  0  0  0  0  0  0  0  0  0  0  0
    4.6118   -0.9734   -1.4798 C   0  0  0  0  0  0  0  0  0  0  0  0
    3.4044    1.5575   -0.4791 C   0  0  0  0  0  0  0  0  0  0  0  0
    2.7300    2.8598   -0.5006 C   0  0  0  0  0  0  0  0  0  0  0  0
    1.3765    0.2074    0.0733 C   0  0  0  0  0  0  0  0  0  0  0  0
    3.5887   -0.9031   -0.5162 C   0  0  0  0  0  0  0  0  0  0  0  0
    2.8062    0.3451   -0.3207 C   0  0  0  0  0  0  0  0  0  0  0  0
    3.3357    3.9171   -0.5924 O   0  0  0  0  0  0  0  0  0  0  0  0
   -2.3740   -0.1560    1.0815 H   0  0  0  0  0  0  0  0  0  0  0  0
    5.6991   -4.1568   -0.9643 H   0  0  0  0  0  0  0  0  0  0  0  0
   -0.8620    1.3117    2.4034 H   0  0  0  0  0  0  0  0  0  0  0  0
   -1.4791   -1.4053   -0.8751 H   0  0  0  0  0  0  0  0  0  0  0  0
    3.8922   -4.0636    0.7430 H   0  0  0  0  0  0  0  0  0  0  0  0
    6.1435   -2.1703   -2.3961 H   0  0  0  0  0  0  0  0  0  0  0  0
    1.5218    1.5293    1.7691 H   0  0  0  0  0  0  0  0  0  0  0  0
    0.9043   -1.1919   -1.5000 H   0  0  0  0  0  0  0  0  0  0  0  0
    2.5501   -2.0093    1.0193 H   0  0  0  0  0  0  0  0  0  0  0  0
    4.7969   -0.1189   -2.1237 H   0  0  0  0  0  0  0  0  0  0  0  0
    4.4756    1.6100   -0.6571 H   0  0  0  0  0  0  0  0  0  0  0  0
    1.6231    2.8460   -0.4620 H   0  0  0  0  0  0  0  0  0  0  0  0
  1 17  1  0  0  0  0
  1  3  2  0  0  0  0
  2  5  2  0  0  0  0
  3 19  1  0  0  0  0
  4  1  1  0  0  0  0
  5  9  1  0  0  0  0
  5 21  1  0  0  0  0
  6 10  2  0  0  0  0
  6  2  1  0  0  0  0
  7  3  1  0  0  0  0
  7 23  1  0  0  0  0
  8  4  2  0  0  0  0
  8 13  1  0  0  0  0
  9 25  1  0  0  0  0
 10 14  1  0  0  0  0
 11 15  2  0  0  0  0
 12 11  1  0  0  0  0
 12 28  1  0  0  0  0
 13  7  2  0  0  0  0
 14 15  1  0  0  0  0
 14  9  2  0  0  0  0
 15 13  1  0  0  0  0
 16 12  2  0  0  0  0
 18  2  1  0  0  0  0
 20  4  1  0  0  0  0
 22  6  1  0  0  0  0
 24  8  1  0  0  0  0
 26 10  1  0  0  0  0
 27 11  1  0  0  0  0
M  END
>  <HBA>
1

>  <HBD>
0

>  <TPSA>
17.07

>  <cid>
71027

>  <dipole>
4.64

>  <excitation_energy_1>
3.241

>  <excitation_energy_2>
4.058

>  <excitation_energy_3>
4.328

>  <excitation_energy_4>
4.418

>  <homo_energy>
-6.359

>  <homo_lumo_gap>
4.373

>  <logP>
3.317

>  <lumo_energy>
-1.986

>  <melting_point>
79.11

>  <molecular_refractivity>
66.03

>  <oscillator_strength_1>
0.0052

>  <oscillator_strength_2>
0.2996

>  <oscillator_strength_3>
0.0124

>  <oscillator_strength_4>
0.0467

>  <open_babel_can_smiles>
O=CC=C(c1ccccc1)c1ccccc1

>  <mulliken_charges>
28
1   -0.122849
2   -0.122909
3   -0.132216
4   -0.133249
5   -0.13187
6   -0.133119
7   -0.172595
8   -0.158632
9   -0.171034
10   -0.171752
11   -0.234924
12   0.224789
13   0.055436
14   0.094366
15   0.057565
16   -0.425527
17   0.137617
18   0.136781
19   0.139893
20   0.138101
21   0.136911
22   0.138045
23   0.148415
24   0.145277
25   0.147161
26   0.143788
27   0.15149
28   0.115041

>  <lowdin_charges>
28
1   -0.146818
2   -0.147601
3   -0.154628
4   -0.155269
5   -0.155248
6   -0.153177
7   -0.157471
8   -0.150833
9   -0.150332
10   -0.152462
11   -0.207739
12   0.033506
13   -0.012869
14   -0.011534
15   0.0333
16   -0.242613
17   0.160393
18   0.161563
19   0.163412
20   0.163308
21   0.161784
22   0.162165
23   0.167865
24   0.1666
25   0.167524
26   0.165771
27   0.168715
28   0.122684

$$$$

