PCCDB-ID:  11764
public computational chemistry database (PCCDB) project, http://pccdb.org

 22 23  0  0  0  0  0  0  0  0999 V2000
    2.4438    0.7634    0.0804 C   0  0  0  0  0  0  0  0  0  0  0  0
   -2.4188    0.6061   -0.1258 C   0  0  0  0  0  0  0  0  0  0  0  0
    1.2209    1.3856    0.0112 C   0  0  0  0  0  0  0  0  0  0  0  0
   -1.2369    1.3060   -0.0988 C   0  0  0  0  0  0  0  0  0  0  0  0
    2.5088   -0.6439    0.0386 C   0  0  0  0  0  0  0  0  0  0  0  0
   -2.3968   -0.7970    0.0058 C   0  0  0  0  0  0  0  0  0  0  0  0
    0.0140    0.6359   -0.0212 C   0  0  0  0  0  0  0  0  0  0  0  0
    1.3558   -1.3937   -0.0261 C   0  0  0  0  0  0  0  0  0  0  0  0
   -1.1997   -1.4684    0.1159 C   0  0  0  0  0  0  0  0  0  0  0  0
    0.0584   -0.8005    0.0247 C   0  0  0  0  0  0  0  0  0  0  0  0
    1.5537   -2.8218   -0.3371 N   0  0  0  0  0  0  0  0  0  0  0  0
   -1.3092   -2.8833    0.5177 N   0  0  0  0  0  0  0  0  0  0  0  0
    2.5309   -3.3827    0.1476 O   0  0  0  0  0  0  0  0  0  0  0  0
    0.7648   -3.3293   -1.1330 O   0  0  0  0  0  0  0  0  0  0  0  0
   -2.2493   -3.5333    0.0723 O   0  0  0  0  0  0  0  0  0  0  0  0
   -0.4914   -3.2894    1.3421 O   0  0  0  0  0  0  0  0  0  0  0  0
    3.3610    1.3421    0.1209 H   0  0  0  0  0  0  0  0  0  0  0  0
   -3.3700    1.1232   -0.2014 H   0  0  0  0  0  0  0  0  0  0  0  0
    1.1543    2.4697   -0.0175 H   0  0  0  0  0  0  0  0  0  0  0  0
   -1.2375    2.3917   -0.1394 H   0  0  0  0  0  0  0  0  0  0  0  0
    3.4619   -1.1588    0.0124 H   0  0  0  0  0  0  0  0  0  0  0  0
   -3.3163   -1.3671    0.0665 H   0  0  0  0  0  0  0  0  0  0  0  0
  1 17  1  0  0  0  0
  2  4  2  0  0  0  0
  2  6  1  0  0  0  0
  3  1  1  0  0  0  0
  4  7  1  0  0  0  0
  5  1  2  0  0  0  0
  6 22  1  0  0  0  0
  6  9  2  0  0  0  0
  7  3  2  0  0  0  0
  7 10  1  0  0  0  0
  8 10  2  0  0  0  0
  8  5  1  0  0  0  0
  9 12  1  0  0  0  0
 10  9  1  0  0  0  0
 11  8  1  0  0  0  0
 11 13  2  0  0  0  0
 12 16  2  0  0  0  0
 14 11  2  0  0  0  0
 15 12  2  0  0  0  0
 18  2  1  0  0  0  0
 19  3  1  0  0  0  0
 20  4  1  0  0  0  0
 21  5  1  0  0  0  0
M  END
>  <HBA>
0

>  <HBD>
0

>  <TPSA>
91.64

>  <cid>
11764

>  <dipole>
8.08

>  <excitation_energy_1>
3.615

>  <excitation_energy_2>
3.662

>  <excitation_energy_3>
3.868

>  <excitation_energy_4>
3.879

>  <homo_energy>
-7.029

>  <homo_lumo_gap>
4.286

>  <logP>
3.703

>  <lumo_energy>
-2.743

>  <melting_point>
127.25

>  <molecular_refractivity>
61.59

>  <oscillator_strength_1>
0.0141

>  <oscillator_strength_2>
0.0958

>  <oscillator_strength_3>
0.0211

>  <oscillator_strength_4>
0.0007

>  <open_babel_can_smiles>
O=N(=O)c1cccc2c1c(ccc2)N(=O)=O

>  <mulliken_charges>
22
1   -0.137322
2   -0.137198
3   -0.171366
4   -0.17141
5   -0.142622
6   -0.142704
7   0.102838
8   0.213228
9   0.213221
10   0.139557
11   0.368565
12   0.368363
13   -0.368038
14   -0.386079
15   -0.367865
16   -0.38618
17   0.158284
18   0.15822
19   0.15383
20   0.153863
21   0.190398
22   0.190418

>  <lowdin_charges>
22
1   -0.147909
2   -0.147518
3   -0.128705
4   -0.128644
5   -0.125857
6   -0.126156
7   0.00804
8   0.019224
9   0.019152
10   0.008468
11   0.310475
12   0.310365
13   -0.22874
14   -0.239589
15   -0.228876
16   -0.239309
17   0.17384
18   0.173504
19   0.167954
20   0.167912
21   0.191027
22   0.19134

$$$$

