PCCDB-ID:  42538
public computational chemistry database (PCCDB) project, http://pccdb.org

 25 24  0  0  1  0  0  0  0  0999 V2000
    0.3949    0.2263   -0.9268 C   0  0  0  0  0  0  0  0  0  0  0  0
    6.7956    3.5656   -4.1003 C   0  0  0  0  0  0  0  0  0  0  0  0
    1.6354    0.8450   -0.2747 C   0  0  0  0  0  0  0  0  0  0  0  0
    2.8361    0.9313   -1.2252 C   0  0  0  0  0  0  0  0  0  0  0  0
    4.0848    1.5561   -0.5736 C   0  0  0  0  0  0  0  0  0  0  0  0
    5.2717    1.5990   -1.4964 C   0  0  0  0  0  0  0  0  0  0  0  0
    5.8978    2.7047   -1.9061 C   0  0  0  0  0  0  0  0  0  0  0  0
    7.0794    2.7376   -2.8422 C   0  0  2  0  0  0  0  0  0  0  0  0
    8.2613    3.2149   -2.1801 O   0  0  0  0  0  0  0  0  0  0  0  0
   -0.4448    0.1782   -0.2241 H   0  0  0  0  0  0  0  0  0  0  0  0
    0.5970   -0.7943   -1.2746 H   0  0  0  0  0  0  0  0  0  0  0  0
    0.0697    0.8123   -1.7952 H   0  0  0  0  0  0  0  0  0  0  0  0
    5.9570    3.1483   -4.6690 H   0  0  0  0  0  0  0  0  0  0  0  0
    7.6823    3.5920   -4.7422 H   0  0  0  0  0  0  0  0  0  0  0  0
    6.5353    4.5993   -3.8339 H   0  0  0  0  0  0  0  0  0  0  0  0
    1.9164    0.2572    0.6108 H   0  0  0  0  0  0  0  0  0  0  0  0
    1.3919    1.8518    0.0935 H   0  0  0  0  0  0  0  0  0  0  0  0
    2.5634    1.5197   -2.1125 H   0  0  0  0  0  0  0  0  0  0  0  0
    3.0830   -0.0763   -1.5910 H   0  0  0  0  0  0  0  0  0  0  0  0
    4.3421    0.9699    0.3224 H   0  0  0  0  0  0  0  0  0  0  0  0
    3.8495    2.5704   -0.2243 H   0  0  0  0  0  0  0  0  0  0  0  0
    5.6283    0.6318   -1.8587 H   0  0  0  0  0  0  0  0  0  0  0  0
    5.5496    3.6796   -1.5516 H   0  0  0  0  0  0  0  0  0  0  0  0
    7.3316    1.7122   -3.1345 H   0  0  0  0  0  0  0  0  0  0  0  0
    8.0761    4.1191   -1.8780 H   0  0  0  0  0  0  0  0  0  0  0  0
  1  3  1  0  0  0  0
  1 10  1  0  0  0  0
  2 15  1  0  0  0  0
  2  8  1  0  0  0  0
  3 17  1  0  0  0  0
  3 16  1  0  0  0  0
  4  5  1  0  0  0  0
  4  3  1  0  0  0  0
  5 21  1  0  0  0  0
  5 20  1  0  0  0  0
  6  5  1  0  0  0  0
  7 23  1  0  0  0  0
  7  6  2  0  0  0  0
  8 24  1  6  0  0  0
  8  9  1  0  0  0  0
  8  7  1  0  0  0  0
  9 25  1  0  0  0  0
 11  1  1  0  0  0  0
 12  1  1  0  0  0  0
 13  2  1  0  0  0  0
 14  2  1  0  0  0  0
 18  4  1  0  0  0  0
 19  4  1  0  0  0  0
 22  6  1  0  0  0  0
M  END
>  <HBA>
1

>  <HBD>
1

>  <TPSA>
20.23

>  <cid>
42538

>  <dipole>
1.8

>  <excitation_energy_1>
6.194

>  <excitation_energy_2>
6.375

>  <excitation_energy_3>
6.491

>  <excitation_energy_4>
6.675

>  <homo_energy>
-6.629

>  <homo_lumo_gap>
7.154

>  <logP>
2.114

>  <lumo_energy>
0.525

>  <melting_point>
0.52

>  <molecular_refractivity>
41.26

>  <oscillator_strength_1>
0.0535

>  <oscillator_strength_2>
0.0045

>  <oscillator_strength_3>
0.0141

>  <oscillator_strength_4>
0.0049

>  <open_babel_can_smiles>
CCCC/C=C/[C@H](O)C

>  <mulliken_charges>
25
1   -0.441674
2   -0.455312
3   -0.246816
4   -0.246921
5   -0.304279
6   -0.094263
7   -0.099854
8   0.092455
9   -0.616036
10   0.142853
11   0.142117
12   0.142295
13   0.148439
14   0.157683
15   0.129931
16   0.131484
17   0.131184
18   0.134636
19   0.12954
20   0.141915
21   0.135404
22   0.121151
23   0.105981
24   0.138978
25   0.379111

>  <lowdin_charges>
25
1   -0.44433
2   -0.459257
3   -0.272251
4   -0.273244
5   -0.270795
6   -0.153976
7   -0.187861
8   0.005119
9   -0.462412
10   0.150351
11   0.145819
12   0.147403
13   0.15636
14   0.158164
15   0.141726
16   0.139818
17   0.138642
18   0.141772
19   0.138185
20   0.14878
21   0.14363
22   0.147686
23   0.140462
24   0.14511
25   0.335099

$$$$

