PCCDB-ID:  7809
public computational chemistry database (PCCDB) project, http://pccdb.org

 18 18  0  0  0  0  0  0  0  0999 V2000
    0.8581   -0.0462    0.1848 C   0  0  0  0  0  0  0  0  0  0  0  0
    6.6927   -0.0740   -0.4255 C   0  0  0  0  0  0  0  0  0  0  0  0
    3.0747   -1.2610   -0.0481 C   0  0  0  0  0  0  0  0  0  0  0  0
    3.0898    1.1357   -0.0398 C   0  0  0  0  0  0  0  0  0  0  0  0
    4.4641   -1.2676   -0.1967 C   0  0  0  0  0  0  0  0  0  0  0  0
    4.4738    1.1291   -0.1873 C   0  0  0  0  0  0  0  0  0  0  0  0
    2.3616   -0.0617    0.0318 C   0  0  0  0  0  0  0  0  0  0  0  0
    5.1894   -0.0752   -0.2690 C   0  0  0  0  0  0  0  0  0  0  0  0
    0.4586   -1.0583    0.3045 H   0  0  0  0  0  0  0  0  0  0  0  0
    0.3692    0.4014   -0.6902 H   0  0  0  0  0  0  0  0  0  0  0  0
    0.5486    0.5403    1.0588 H   0  0  0  0  0  0  0  0  0  0  0  0
    7.0849   -1.0918   -0.5191 H   0  0  0  0  0  0  0  0  0  0  0  0
    7.1867    0.3943    0.4354 H   0  0  0  0  0  0  0  0  0  0  0  0
    7.0038    0.4859   -1.3163 H   0  0  0  0  0  0  0  0  0  0  0  0
    2.5388   -2.2063    0.0055 H   0  0  0  0  0  0  0  0  0  0  0  0
    2.5631    2.0862    0.0208 H   0  0  0  0  0  0  0  0  0  0  0  0
    4.9903   -2.2179   -0.2564 H   0  0  0  0  0  0  0  0  0  0  0  0
    5.0104    2.0746   -0.2397 H   0  0  0  0  0  0  0  0  0  0  0  0
  1  9  1  0  0  0  0
  1 11  1  0  0  0  0
  2  8  1  0  0  0  0
  2 13  1  0  0  0  0
  3 15  1  0  0  0  0
  3  7  2  0  0  0  0
  4 16  1  0  0  0  0
  4  7  1  0  0  0  0
  5  3  1  0  0  0  0
  6  4  2  0  0  0  0
  7  1  1  0  0  0  0
  8  5  2  0  0  0  0
  8  6  1  0  0  0  0
 10  1  1  0  0  0  0
 12  2  1  0  0  0  0
 14  2  1  0  0  0  0
 17  5  1  0  0  0  0
 18  6  1  0  0  0  0
M  END
>  <HBA>
0

>  <HBD>
0

>  <TPSA>
0.0

>  <cid>
7809

>  <dipole>
0.09

>  <excitation_energy_1>
5.167

>  <excitation_energy_2>
5.75

>  <excitation_energy_3>
5.836

>  <excitation_energy_4>
6.126

>  <homo_energy>
-6.142

>  <homo_lumo_gap>
6.335

>  <logP>
2.303

>  <lumo_energy>
0.193

>  <melting_point>
11.99

>  <molecular_refractivity>
36.37

>  <oscillator_strength_1>
0.0037

>  <oscillator_strength_2>
0.0582

>  <oscillator_strength_3>
0.0

>  <oscillator_strength_4>
0.0

>  <open_babel_can_smiles>
Cc1ccc(cc1)C

>  <mulliken_charges>
18
1   -0.530219
2   -0.530233
3   -0.180851
4   -0.175938
5   -0.181194
6   -0.176091
7   0.17634
8   0.176517
9   0.153281
10   0.161052
11   0.159324
12   0.153255
13   0.160718
14   0.159693
15   0.118431
16   0.118714
17   0.118457
18   0.118745

>  <lowdin_charges>
18
1   -0.443184
2   -0.443116
3   -0.168744
4   -0.164829
5   -0.168692
6   -0.164885
7   -0.003478
8   -0.003469
9   0.155077
10   0.160199
11   0.15943
12   0.154979
13   0.16017
14   0.159481
15   0.152751
16   0.152777
17   0.152697
18   0.152835

$$$$

