PCCDB-ID:  13356
public computational chemistry database (PCCDB) project, http://pccdb.org

 14 13  0  0  0  0  0  0  0  0999 V2000
    0.9627   -0.7216    0.2728 C   0  0  0  0  0  0  0  0  0  0  0  0
    0.3025   -0.2953    1.5064 C   0  0  0  0  0  0  0  0  0  0  0  0
    4.6019   -0.5301   -0.8691 C   0  0  0  0  0  0  0  0  0  0  0  0
    2.5794   -1.4303   -1.9643 C   0  0  0  0  0  0  0  0  0  0  0  0
    3.2035   -0.7984   -0.8535 C   0  0  0  0  0  0  0  0  0  0  0  0
    2.4598   -0.4352    0.2576 C   0  0  0  0  0  0  0  0  0  0  0  0
   -0.1725    0.0609    2.5035 N   0  0  0  0  0  0  0  0  0  0  0  0
    5.7361   -0.2724   -0.7923 N   0  0  0  0  0  0  0  0  0  0  0  0
    2.0248   -1.9455   -2.8504 N   0  0  0  0  0  0  0  0  0  0  0  0
    2.9985    0.1644    1.3293 N   0  0  0  0  0  0  0  0  0  0  0  0
    0.4901   -0.2234   -0.5824 H   0  0  0  0  0  0  0  0  0  0  0  0
    0.7981   -1.7958    0.1247 H   0  0  0  0  0  0  0  0  0  0  0  0
    2.4340    0.4164    2.1294 H   0  0  0  0  0  0  0  0  0  0  0  0
    3.9897    0.3696    1.3543 H   0  0  0  0  0  0  0  0  0  0  0  0
  1  2  1  0  0  0  0
  2  7  3  0  0  0  0
  3  5  1  0  0  0  0
  3  8  3  0  0  0  0
  4  5  1  0  0  0  0
  5  6  2  0  0  0  0
  6  1  1  0  0  0  0
  6 10  1  0  0  0  0
  9  4  3  0  0  0  0
 10 14  1  0  0  0  0
 10 13  1  0  0  0  0
 11  1  1  0  0  0  0
 12  1  1  0  0  0  0
M  END
>  <HBA>
4

>  <HBD>
1

>  <TPSA>
97.39

>  <cid>
13356

>  <dipole>
3.67

>  <excitation_energy_1>
4.986

>  <excitation_energy_2>
5.162

>  <excitation_energy_3>
5.526

>  <excitation_energy_4>
5.854

>  <homo_energy>
-6.993

>  <homo_lumo_gap>
5.102

>  <logP>
0.86

>  <lumo_energy>
-1.891

>  <melting_point>
146.02

>  <molecular_refractivity>
32.44

>  <oscillator_strength_1>
0.356

>  <oscillator_strength_2>
0.0001

>  <oscillator_strength_3>
0.0041

>  <oscillator_strength_4>
0.001

>  <open_babel_can_smiles>
N#CCC(=C(C#N)C#N)N

>  <mulliken_charges>
14
1   -0.405944
2   0.359966
3   0.271846
4   0.253089
5   0.054658
6   0.409768
7   -0.459631
8   -0.481187
9   -0.483561
10   -0.789831
11   0.2553
12   0.255298
13   0.379694
14   0.380535

>  <lowdin_charges>
14
1   -0.271404
2   -0.017666
3   -0.013342
4   -0.016248
5   -0.134754
6   0.128621
7   -0.098125
8   -0.121012
9   -0.121248
10   -0.398221
11   0.219863
12   0.217577
13   0.313293
14   0.312665

$$$$

