PCCDB-ID:  69661
public computational chemistry database (PCCDB) project, http://pccdb.org

 40 39  0  0  0  0  0  0  0  0999 V2000
    1.9511    0.4347    0.1981 C   0  0  0  0  0  0  0  0  0  0  0  0
    2.1857   -1.0428    0.5437 C   0  0  0  0  0  0  0  0  0  0  0  0
    2.8311    1.3925    1.0131 C   0  0  0  0  0  0  0  0  0  0  0  0
    1.2430   -2.0318   -0.1617 C   0  0  0  0  0  0  0  0  0  0  0  0
    2.6219    2.8678    0.6443 C   0  0  0  0  0  0  0  0  0  0  0  0
    1.3799   -2.0716   -1.6907 C   0  0  0  0  0  0  0  0  0  0  0  0
    3.4007    3.8666    1.5203 C   0  0  0  0  0  0  0  0  0  0  0  0
    0.5007   -3.1522   -2.3352 C   0  0  0  0  0  0  0  0  0  0  0  0
    4.9350    3.7681    1.4701 C   0  0  0  0  0  0  0  0  0  0  0  0
    0.5594   -3.1821   -3.8782 C   0  0  0  0  0  0  0  0  0  0  0  0
    5.5502    4.0714    0.1014 C   0  0  0  0  0  0  0  0  0  0  0  0
    1.9437   -3.5820   -4.3754 C   0  0  0  0  0  0  0  0  0  0  0  0
    7.0158    4.1089    0.1994 N   0  0  0  0  0  0  0  0  0  0  0  0
    2.3254   -4.7228   -4.4467 O   0  0  0  0  0  0  0  0  0  0  0  0
    2.7896   -2.5613   -4.7008 O   0  0  0  0  0  0  0  0  0  0  0  0
    0.8923    0.6833    0.3667 H   0  0  0  0  0  0  0  0  0  0  0  0
    2.1366    0.6044   -0.8718 H   0  0  0  0  0  0  0  0  0  0  0  0
    2.0749   -1.1722    1.6295 H   0  0  0  0  0  0  0  0  0  0  0  0
    3.2278   -1.3091    0.3126 H   0  0  0  0  0  0  0  0  0  0  0  0
    3.8854    1.1161    0.8711 H   0  0  0  0  0  0  0  0  0  0  0  0
    2.6226    1.2526    2.0845 H   0  0  0  0  0  0  0  0  0  0  0  0
    0.2019   -1.7931    0.1016 H   0  0  0  0  0  0  0  0  0  0  0  0
    1.4331   -3.0398    0.2327 H   0  0  0  0  0  0  0  0  0  0  0  0
    1.5510    3.1030    0.7268 H   0  0  0  0  0  0  0  0  0  0  0  0
    2.8788    3.0154   -0.4142 H   0  0  0  0  0  0  0  0  0  0  0  0
    2.4333   -2.2441   -1.9532 H   0  0  0  0  0  0  0  0  0  0  0  0
    1.1103   -1.0916   -2.1120 H   0  0  0  0  0  0  0  0  0  0  0  0
    3.0793    3.7405    2.5638 H   0  0  0  0  0  0  0  0  0  0  0  0
    3.1051    4.8866    1.2358 H   0  0  0  0  0  0  0  0  0  0  0  0
   -0.5448   -2.9983   -2.0375 H   0  0  0  0  0  0  0  0  0  0  0  0
    0.7922   -4.1415   -1.9607 H   0  0  0  0  0  0  0  0  0  0  0  0
    5.2576    2.7684    1.7963 H   0  0  0  0  0  0  0  0  0  0  0  0
    5.3647    4.4745    2.1908 H   0  0  0  0  0  0  0  0  0  0  0  0
    0.2548   -2.2081   -4.2856 H   0  0  0  0  0  0  0  0  0  0  0  0
   -0.1416   -3.9319   -4.2560 H   0  0  0  0  0  0  0  0  0  0  0  0
    5.2155    5.0633   -0.2312 H   0  0  0  0  0  0  0  0  0  0  0  0
    5.1763    3.3487   -0.6466 H   0  0  0  0  0  0  0  0  0  0  0  0
    7.3617    3.1800    0.4402 H   0  0  0  0  0  0  0  0  0  0  0  0
    7.4160    4.3250   -0.7127 H   0  0  0  0  0  0  0  0  0  0  0  0
    2.3374   -1.7104   -4.5844 H   0  0  0  0  0  0  0  0  0  0  0  0
  1 16  1  0  0  0  0
  1  2  1  0  0  0  0
  1  3  1  0  0  0  0
  2 18  1  0  0  0  0
  3 21  1  0  0  0  0
  4 22  1  0  0  0  0
  4 23  1  0  0  0  0
  4  2  1  0  0  0  0
  5 24  1  0  0  0  0
  5  3  1  0  0  0  0
  5  7  1  0  0  0  0
  6  4  1  0  0  0  0
  7 28  1  0  0  0  0
  8 30  1  0  0  0  0
  8 31  1  0  0  0  0
  8  6  1  0  0  0  0
  9  7  1  0  0  0  0
  9 32  1  0  0  0  0
  9 33  1  0  0  0  0
 10  8  1  0  0  0  0
 11 13  1  0  0  0  0
 11  9  1  0  0  0  0
 12 10  1  0  0  0  0
 13 38  1  0  0  0  0
 14 12  2  0  0  0  0
 15 40  1  0  0  0  0
 15 12  1  0  0  0  0
 17  1  1  0  0  0  0
 19  2  1  0  0  0  0
 20  3  1  0  0  0  0
 25  5  1  0  0  0  0
 26  6  1  0  0  0  0
 27  6  1  0  0  0  0
 29  7  1  0  0  0  0
 34 10  1  0  0  0  0
 35 10  1  0  0  0  0
 36 11  1  0  0  0  0
 37 11  1  0  0  0  0
 39 13  1  0  0  0  0
M  END
>  <HBA>
3

>  <HBD>
2

>  <TPSA>
63.32

>  <cid>
69661

>  <dipole>
3.62

>  <excitation_energy_1>
5.538

>  <excitation_energy_2>
5.595

>  <excitation_energy_3>
5.815

>  <excitation_energy_4>
6.074

>  <homo_energy>
-6.264

>  <homo_lumo_gap>
6.482

>  <logP>
3.631

>  <lumo_energy>
0.218

>  <melting_point>
100.86

>  <molecular_refractivity>
64.28

>  <oscillator_strength_1>
0.0094

>  <oscillator_strength_2>
0.0014

>  <oscillator_strength_3>
0.0017

>  <oscillator_strength_4>
0.0068

>  <open_babel_can_smiles>
NCCCCCCCCCCCC(=O)O

>  <mulliken_charges>
40
1   -0.254017
2   -0.257774
3   -0.253004
4   -0.256243
5   -0.257646
6   -0.276531
7   -0.261748
8   -0.260265
9   -0.253056
10   -0.367641
11   -0.134061
12   0.585754
13   -0.715678
14   -0.438549
15   -0.562303
16   0.126639
17   0.126277
18   0.131837
19   0.130877
20   0.131085
21   0.128653
22   0.129443
23   0.136032
24   0.126987
25   0.128978
26   0.147627
27   0.124206
28   0.129851
29   0.128734
30   0.144267
31   0.163885
32   0.125828
33   0.148793
34   0.132655
35   0.180376
36   0.136125
37   0.11234
38   0.290358
39   0.293937
40   0.406972

>  <lowdin_charges>
40
1   -0.273016
2   -0.272224
3   -0.272986
4   -0.271822
5   -0.27559
6   -0.285605
7   -0.273718
8   -0.265283
9   -0.283481
10   -0.316162
11   -0.20692
12   0.193424
13   -0.557661
14   -0.240923
15   -0.360752
16   0.135479
17   0.134147
18   0.140892
19   0.138225
20   0.137062
21   0.136556
22   0.137438
23   0.144153
24   0.138568
25   0.135072
26   0.144314
27   0.133809
28   0.140675
29   0.140172
30   0.147154
31   0.155904
32   0.135214
33   0.153403
34   0.143603
35   0.176925
36   0.139289
37   0.116636
38   0.249312
39   0.252589
40   0.35613

$$$$

