PCCDB-ID:  58633
public computational chemistry database (PCCDB) project, http://pccdb.org

 39 39  0  0  0  0  0  0  0  0999 V2000
    0.6809    0.3186    0.3262 C   0  0  0  0  0  0  0  0  0  0  0  0
    2.9365    7.2004    1.1533 C   0  0  0  0  0  0  0  0  0  0  0  0
    0.7886    4.1595   -2.1128 C   0  0  0  0  0  0  0  0  0  0  0  0
    0.7786    0.3172    1.8620 C   0  0  0  0  0  0  0  0  0  0  0  0
    3.0663    6.5545   -0.2260 C   0  0  0  0  0  0  0  0  0  0  0  0
    2.0047    5.0447   -1.8421 C   0  0  0  0  0  0  0  0  0  0  0  0
    4.3588    0.4074    3.2117 C   0  0  0  0  0  0  0  0  0  0  0  0
    4.5450    1.7729    3.4278 C   0  0  0  0  0  0  0  0  0  0  0  0
    3.1384   -0.0420    2.7056 C   0  0  0  0  0  0  0  0  0  0  0  0
    3.5238    2.6699    3.1205 C   0  0  0  0  0  0  0  0  0  0  0  0
    2.4524    4.2729    0.4560 C   0  0  0  0  0  0  0  0  0  0  0  0
    2.0972    0.8378    2.3907 C   0  0  0  0  0  0  0  0  0  0  0  0
    2.3047    2.2249    2.5786 C   0  0  0  0  0  0  0  0  0  0  0  0
    1.3115    4.0351    1.4678 C   0  0  0  0  0  0  0  0  0  0  0  0
    1.2429    3.1185    2.3473 N   0  0  0  0  0  0  0  0  0  0  0  0
    2.1479    5.4169   -0.4221 N   0  0  0  0  0  0  0  0  0  0  0  0
    0.2965    4.9020    1.3305 O   0  0  0  0  0  0  0  0  0  0  0  0
   -0.2810   -0.0902   -0.0051 H   0  0  0  0  0  0  0  0  0  0  0  0
    1.4797   -0.2829   -0.1231 H   0  0  0  0  0  0  0  0  0  0  0  0
    0.7627    1.3372   -0.0694 H   0  0  0  0  0  0  0  0  0  0  0  0
    3.6174    8.0552    1.2273 H   0  0  0  0  0  0  0  0  0  0  0  0
    3.1905    6.5089    1.9637 H   0  0  0  0  0  0  0  0  0  0  0  0
    1.9159    7.5580    1.3245 H   0  0  0  0  0  0  0  0  0  0  0  0
    0.7030    3.9666   -3.1878 H   0  0  0  0  0  0  0  0  0  0  0  0
   -0.1326    4.6469   -1.7764 H   0  0  0  0  0  0  0  0  0  0  0  0
    0.8585    3.1884   -1.6117 H   0  0  0  0  0  0  0  0  0  0  0  0
    0.6290   -0.7077    2.2246 H   0  0  0  0  0  0  0  0  0  0  0  0
   -0.0340    0.9292    2.2696 H   0  0  0  0  0  0  0  0  0  0  0  0
    4.1136    6.2495   -0.4029 H   0  0  0  0  0  0  0  0  0  0  0  0
    2.8224    7.3005   -0.9903 H   0  0  0  0  0  0  0  0  0  0  0  0
    1.8960    5.9766   -2.4078 H   0  0  0  0  0  0  0  0  0  0  0  0
    2.9210    4.5529   -2.2153 H   0  0  0  0  0  0  0  0  0  0  0  0
    5.1449   -0.3026    3.4537 H   0  0  0  0  0  0  0  0  0  0  0  0
    5.4778    2.1419    3.8471 H   0  0  0  0  0  0  0  0  0  0  0  0
    2.9790   -1.1089    2.5592 H   0  0  0  0  0  0  0  0  0  0  0  0
    3.6473    3.7304    3.3263 H   0  0  0  0  0  0  0  0  0  0  0  0
    2.5963    3.3546   -0.1244 H   0  0  0  0  0  0  0  0  0  0  0  0
    3.3900    4.4337    0.9950 H   0  0  0  0  0  0  0  0  0  0  0  0
    0.5857    5.4813    0.5774 H   0  0  0  0  0  0  0  0  0  0  0  0
  1  4  1  0  0  0  0
  2 21  1  0  0  0  0
  2 23  1  0  0  0  0
  2 22  1  0  0  0  0
  3  6  1  0  0  0  0
  3 25  1  0  0  0  0
  3 26  1  0  0  0  0
  4 27  1  0  0  0  0
  4 28  1  0  0  0  0
  4 12  1  0  0  0  0
  5  2  1  0  0  0  0
  6 16  1  0  0  0  0
  7  8  1  0  0  0  0
  7 33  1  0  0  0  0
  8 34  1  0  0  0  0
  9  7  2  0  0  0  0
 10 36  1  0  0  0  0
 10  8  2  0  0  0  0
 11 38  1  0  0  0  0
 11 14  1  0  0  0  0
 12 13  2  0  0  0  0
 12  9  1  0  0  0  0
 13 10  1  0  0  0  0
 14 15  2  0  0  0  0
 15 13  1  0  0  0  0
 16  5  1  0  0  0  0
 16 11  1  0  0  0  0
 17 14  1  0  0  0  0
 18  1  1  0  0  0  0
 19  1  1  0  0  0  0
 20  1  1  0  0  0  0
 24  3  1  0  0  0  0
 29  5  1  0  0  0  0
 30  5  1  0  0  0  0
 31  6  1  0  0  0  0
 32  6  1  0  0  0  0
 35  9  1  0  0  0  0
 37 11  1  0  0  0  0
 39 17  1  0  0  0  0
M  END
>  <HBA>
3

>  <HBD>
1

>  <TPSA>
32.34

>  <cid>
58633

>  <dipole>
5.13

>  <excitation_energy_1>
4.672

>  <excitation_energy_2>
4.791

>  <excitation_energy_3>
4.983

>  <excitation_energy_4>
5.305

>  <homo_energy>
-5.423

>  <homo_lumo_gap>
5.573

>  <logP>
2.602

>  <lumo_energy>
0.15

>  <melting_point>
62.75

>  <molecular_refractivity>
72.65

>  <oscillator_strength_1>
0.0986

>  <oscillator_strength_2>
0.0342

>  <oscillator_strength_3>
0.0044

>  <oscillator_strength_4>
0.0077

>  <open_babel_can_smiles>
CCN(C/C(=N\c1ccccc1CC)/O)CC

>  <mulliken_charges>
39
1   -0.44828
2   -0.463462
3   -0.470597
4   -0.332861
5   -0.115591
6   -0.116145
7   -0.127447
8   -0.142808
9   -0.203085
10   -0.160153
11   -0.240268
12   0.151469
13   0.184633
14   0.497323
15   -0.497172
16   -0.448664
17   -0.591577
18   0.142466
19   0.141538
20   0.148645
21   0.155116
22   0.160776
23   0.162498
24   0.155165
25   0.161651
26   0.16879
27   0.133949
28   0.17002
29   0.131587
30   0.147045
31   0.146846
32   0.132013
33   0.119376
34   0.121045
35   0.117573
36   0.118752
37   0.182828
38   0.182208
39   0.424797

>  <lowdin_charges>
39
1   -0.442337
2   -0.454111
3   -0.453055
4   -0.271991
5   -0.195723
6   -0.196348
7   -0.177183
8   -0.160455
9   -0.162138
10   -0.19067
11   -0.243652
12   -0.020231
13   0.038295
14   0.125475
15   -0.189389
16   -0.192268
17   -0.359972
18   0.148957
19   0.146936
20   0.142916
21   0.15994
22   0.155578
23   0.157432
24   0.15815
25   0.158199
26   0.155198
27   0.144022
28   0.164534
29   0.127064
30   0.149469
31   0.148676
32   0.129382
33   0.154822
34   0.153836
35   0.150191
36   0.149894
37   0.171376
38   0.171137
39   0.348044

$$$$

