PCCDB-ID:  31160
public computational chemistry database (PCCDB) project, http://pccdb.org

 26 26  0  0  1  0  0  0  0  0999 V2000
    1.3254    0.3765    0.3745 C   0  0  0  0  0  0  0  0  0  0  0  0
    3.8132    5.6261   -4.0562 C   0  0  0  0  0  0  0  0  0  0  0  0
    4.6870    4.5383   -4.0160 C   0  0  0  0  0  0  0  0  0  0  0  0
    2.5675    5.5306   -3.4330 C   0  0  0  0  0  0  0  0  0  0  0  0
    4.3161    3.3659   -3.3558 C   0  0  0  0  0  0  0  0  0  0  0  0
    2.2020    4.3558   -2.7748 C   0  0  0  0  0  0  0  0  0  0  0  0
    3.0651    2.0550   -0.4786 C   0  0  0  0  0  0  0  0  0  0  0  0
    2.6844    1.9987   -1.9736 C   0  0  0  0  0  0  0  0  0  0  0  0
    2.8082    0.7544    0.3129 C   0  0  1  0  0  0  0  0  0  0  0  0
    3.0701    3.2563   -2.7238 C   0  0  0  0  0  0  0  0  0  0  0  0
    3.3308    0.7984    1.6896 N   0  0  0  0  0  0  0  0  0  0  0  0
    0.9083    0.1949   -0.6213 H   0  0  0  0  0  0  0  0  0  0  0  0
    0.7387    1.1803    0.8406 H   0  0  0  0  0  0  0  0  0  0  0  0
    1.1953   -0.5284    0.9755 H   0  0  0  0  0  0  0  0  0  0  0  0
    4.0981    6.5385   -4.5734 H   0  0  0  0  0  0  0  0  0  0  0  0
    5.6565    4.5999   -4.5038 H   0  0  0  0  0  0  0  0  0  0  0  0
    1.8769    6.3696   -3.4642 H   0  0  0  0  0  0  0  0  0  0  0  0
    5.0005    2.5202   -3.3331 H   0  0  0  0  0  0  0  0  0  0  0  0
    1.2269    4.2869   -2.2968 H   0  0  0  0  0  0  0  0  0  0  0  0
    2.5244    2.8829    0.0044 H   0  0  0  0  0  0  0  0  0  0  0  0
    4.1336    2.3027   -0.4022 H   0  0  0  0  0  0  0  0  0  0  0  0
    1.6047    1.8338   -2.0721 H   0  0  0  0  0  0  0  0  0  0  0  0
    3.1764    1.1301   -2.4325 H   0  0  0  0  0  0  0  0  0  0  0  0
    3.3477   -0.0604   -0.1926 H   0  0  0  0  0  0  0  0  0  0  0  0
    2.8656    1.5524    2.1979 H   0  0  0  0  0  0  0  0  0  0  0  0
    4.3194    1.0505    1.6719 H   0  0  0  0  0  0  0  0  0  0  0  0
  1 13  1  0  0  0  0
  1 14  1  0  0  0  0
  2  3  2  0  0  0  0
  2  4  1  0  0  0  0
  3  5  1  0  0  0  0
  4  6  2  0  0  0  0
  5 18  1  0  0  0  0
  5 10  2  0  0  0  0
  6 10  1  0  0  0  0
  6 19  1  0  0  0  0
  7 21  1  0  0  0  0
  7 20  1  0  0  0  0
  7  9  1  0  0  0  0
  8  7  1  0  0  0  0
  9 24  1  6  0  0  0
  9  1  1  0  0  0  0
  9 11  1  0  0  0  0
 10  8  1  0  0  0  0
 11 25  1  0  0  0  0
 12  1  1  0  0  0  0
 15  2  1  0  0  0  0
 16  3  1  0  0  0  0
 17  4  1  0  0  0  0
 22  8  1  0  0  0  0
 23  8  1  0  0  0  0
 26 11  1  0  0  0  0
M  END
>  <HBA>
1

>  <HBD>
1

>  <TPSA>
26.02

>  <cid>
31160

>  <dipole>
1.06

>  <excitation_energy_1>
5.247

>  <excitation_energy_2>
5.544

>  <excitation_energy_3>
5.634

>  <excitation_energy_4>
5.815

>  <homo_energy>
-6.112

>  <homo_lumo_gap>
6.202

>  <logP>
2.667

>  <lumo_energy>
0.09

>  <melting_point>
59.41

>  <molecular_refractivity>
48.54

>  <oscillator_strength_1>
0.0019

>  <oscillator_strength_2>
0.1069

>  <oscillator_strength_3>
0.0378

>  <oscillator_strength_4>
0.0086

>  <open_babel_can_smiles>
C[C@@H](CCc1ccccc1)N

>  <mulliken_charges>
26
1   -0.443791
2   -0.131973
3   -0.1282
4   -0.128252
5   -0.180721
6   -0.179643
7   -0.252429
8   -0.356711
9   0.030288
10   0.172309
11   -0.706208
12   0.145539
13   0.131885
14   0.162358
15   0.12687
16   0.127243
17   0.127238
18   0.12048
19   0.120644
20   0.125205
21   0.126879
22   0.145961
23   0.139396
24   0.12813
25   0.2865
26   0.291001

>  <lowdin_charges>
26
1   -0.450708
2   -0.162844
3   -0.154416
4   -0.156455
5   -0.170396
6   -0.167508
7   -0.289621
8   -0.274979
9   -0.065902
10   0.001297
11   -0.549032
12   0.150119
13   0.14391
14   0.161109
15   0.156726
16   0.155871
17   0.15705
18   0.153689
19   0.152555
20   0.138892
21   0.138129
22   0.148012
23   0.147998
24   0.137513
25   0.249733
26   0.249256

$$$$

