PCCDB-ID:  69709
public computational chemistry database (PCCDB) project, http://pccdb.org

 22 22  0  0  0  0  0  0  0  0999 V2000
    2.8920    0.4929    1.2963 C   0  0  0  0  0  0  0  0  0  0  0  0
    1.0126   -3.6762   -1.1455 C   0  0  0  0  0  0  0  0  0  0  0  0
    4.2714   -1.8859   -3.1371 C   0  0  0  0  0  0  0  0  0  0  0  0
    4.6817   -0.6136   -2.7557 C   0  0  0  0  0  0  0  0  0  0  0  0
    3.2042   -2.5208   -2.5008 C   0  0  0  0  0  0  0  0  0  0  0  0
    2.1491    0.1667    0.0162 C   0  0  0  0  0  0  0  0  0  0  0  0
    4.0051    0.0376   -1.7172 C   0  0  0  0  0  0  0  0  0  0  0  0
    2.5306   -1.8566   -1.4678 C   0  0  0  0  0  0  0  0  0  0  0  0
    2.9245   -0.5648   -1.0624 C   0  0  0  0  0  0  0  0  0  0  0  0
    0.9761    0.4421   -0.1412 O   0  0  0  0  0  0  0  0  0  0  0  0
    4.3579    1.2988   -1.3109 O   0  0  0  0  0  0  0  0  0  0  0  0
    1.4994   -2.3992   -0.7648 O   0  0  0  0  0  0  0  0  0  0  0  0
    3.8213    1.0279    1.0787 H   0  0  0  0  0  0  0  0  0  0  0  0
    3.1618   -0.4429    1.8036 H   0  0  0  0  0  0  0  0  0  0  0  0
    2.2529    1.0901    1.9508 H   0  0  0  0  0  0  0  0  0  0  0  0
    0.1728   -3.8825   -0.4800 H   0  0  0  0  0  0  0  0  0  0  0  0
    1.7767   -4.4547   -1.0191 H   0  0  0  0  0  0  0  0  0  0  0  0
    0.6612   -3.6784   -2.1851 H   0  0  0  0  0  0  0  0  0  0  0  0
    4.7929   -2.3981   -3.9410 H   0  0  0  0  0  0  0  0  0  0  0  0
    5.5114   -0.1215   -3.2588 H   0  0  0  0  0  0  0  0  0  0  0  0
    2.9082   -3.5154   -2.8104 H   0  0  0  0  0  0  0  0  0  0  0  0
    5.0953    1.6093   -1.8584 H   0  0  0  0  0  0  0  0  0  0  0  0
  1 14  1  0  0  0  0
  1 15  1  0  0  0  0
  2 17  1  0  0  0  0
  2 12  1  0  0  0  0
  2 16  1  0  0  0  0
  3  4  2  0  0  0  0
  3  5  1  0  0  0  0
  4  7  1  0  0  0  0
  5  8  2  0  0  0  0
  6  1  1  0  0  0  0
  7 11  1  0  0  0  0
  7  9  2  0  0  0  0
  8  9  1  0  0  0  0
  8 12  1  0  0  0  0
  9  6  1  0  0  0  0
 10  6  2  0  0  0  0
 13  1  1  0  0  0  0
 18  2  1  0  0  0  0
 19  3  1  0  0  0  0
 20  4  1  0  0  0  0
 21  5  1  0  0  0  0
 22 11  1  0  0  0  0
M  END
>  <HBA>
3

>  <HBD>
1

>  <TPSA>
46.53

>  <cid>
69709

>  <dipole>
4.1

>  <excitation_energy_1>
4.14

>  <excitation_energy_2>
4.526

>  <excitation_energy_3>
4.888

>  <excitation_energy_4>
5.229

>  <homo_energy>
-6.016

>  <homo_lumo_gap>
5.421

>  <logP>
1.603

>  <lumo_energy>
-0.596

>  <melting_point>
85.3

>  <molecular_refractivity>
45.15

>  <oscillator_strength_1>
0.0036

>  <oscillator_strength_2>
0.0326

>  <oscillator_strength_3>
0.0578

>  <oscillator_strength_4>
0.0004

>  <open_babel_can_smiles>
COc1cccc(c1C(=O)C)O

>  <mulliken_charges>
22
1   -0.532545
2   -0.215922
3   -0.137383
4   -0.192729
5   -0.201314
6   0.421496
7   0.310266
8   0.350114
9   -0.040142
10   -0.422161
11   -0.646337
12   -0.499257
13   0.185573
14   0.168678
15   0.170401
16   0.175799
17   0.150261
18   0.156899
19   0.135272
20   0.117683
21   0.132838
22   0.412511

>  <lowdin_charges>
22
1   -0.475037
2   -0.275638
3   -0.131299
4   -0.23345
5   -0.23299
6   0.178259
7   0.112056
8   0.1204
9   -0.096836
10   -0.216868
11   -0.380426
12   -0.18678
13   0.176665
14   0.170507
15   0.169113
16   0.166876
17   0.144993
18   0.147124
19   0.1623
20   0.155286
21   0.163839
22   0.361905

$$$$

