PCCDB-ID:  28408
public computational chemistry database (PCCDB) project, http://pccdb.org

 28 29  0  0  0  0  0  0  0  0999 V2000
    1.2857    0.1123    1.6343 C   0  0  0  0  0  0  0  0  0  0  0  0
    0.0127    0.6939    1.7891 C   0  0  0  0  0  0  0  0  0  0  0  0
    3.2592   -0.6626    0.2387 C   0  0  0  0  0  0  0  0  0  0  0  0
    4.3358    0.4189   -0.0027 C   0  0  0  0  0  0  0  0  0  0  0  0
    1.1850    0.3448   -0.7843 C   0  0  0  0  0  0  0  0  0  0  0  0
   -2.0777    1.8562   -0.8996 C   0  0  0  0  0  0  0  0  0  0  0  0
    1.8751   -0.0682    0.3794 C   0  0  0  0  0  0  0  0  0  0  0  0
   -0.6361    1.0861    0.6368 C   0  0  0  0  0  0  0  0  0  0  0  0
   -0.0601    0.9140   -0.6194 C   0  0  0  0  0  0  0  0  0  0  0  0
    5.9416   -0.6690   -1.5146 C   0  0  0  0  0  0  0  0  0  0  0  0
    5.0822   -0.6189   -2.4685 N   0  0  0  0  0  0  0  0  0  0  0  0
    7.2112   -1.2733   -1.5443 N   0  0  0  0  0  0  0  0  0  0  0  0
    5.6687   -0.1085   -0.2736 N   0  0  0  0  0  0  0  0  0  0  0  0
   -1.8756    1.6708    0.5059 O   0  0  0  0  0  0  0  0  0  0  0  0
   -0.9155    1.3847   -1.5894 O   0  0  0  0  0  0  0  0  0  0  0  0
    1.8232   -0.2117    2.5219 H   0  0  0  0  0  0  0  0  0  0  0  0
   -0.4408    0.8260    2.7657 H   0  0  0  0  0  0  0  0  0  0  0  0
    3.5152   -1.2334    1.1412 H   0  0  0  0  0  0  0  0  0  0  0  0
    3.2893   -1.3541   -0.6095 H   0  0  0  0  0  0  0  0  0  0  0  0
    4.4052    1.0816    0.8678 H   0  0  0  0  0  0  0  0  0  0  0  0
    4.0523    1.0277   -0.8639 H   0  0  0  0  0  0  0  0  0  0  0  0
    1.6223    0.2133   -1.7693 H   0  0  0  0  0  0  0  0  0  0  0  0
   -2.2195    2.9233   -1.1103 H   0  0  0  0  0  0  0  0  0  0  0  0
   -2.9536    1.2790   -1.2219 H   0  0  0  0  0  0  0  0  0  0  0  0
    5.4851   -0.9620   -3.3418 H   0  0  0  0  0  0  0  0  0  0  0  0
    7.5117   -1.5324   -2.4762 H   0  0  0  0  0  0  0  0  0  0  0  0
    7.9293   -0.7395   -1.0646 H   0  0  0  0  0  0  0  0  0  0  0  0
    6.0935   -0.6099    0.4982 H   0  0  0  0  0  0  0  0  0  0  0  0
  1  2  1  0  0  0  0
  1 16  1  0  0  0  0
  2 17  1  0  0  0  0
  3  7  1  0  0  0  0
  3 18  1  0  0  0  0
  4  3  1  0  0  0  0
  4 20  1  0  0  0  0
  5  9  2  0  0  0  0
  5  7  1  0  0  0  0
  6 14  1  0  0  0  0
  7  1  2  0  0  0  0
  8  2  2  0  0  0  0
  9  8  1  0  0  0  0
 10 13  1  0  0  0  0
 11 10  1  0  0  0  0
 12 10  2  0  0  0  0
 12 27  1  0  0  0  0
 13  4  1  0  0  0  0
 13 28  1  0  0  0  0
 14  8  1  0  0  0  0
 15  6  1  0  0  0  0
 15  9  1  0  0  0  0
 19  3  1  0  0  0  0
 21  4  1  0  0  0  0
 22  5  1  0  0  0  0
 23  6  1  0  0  0  0
 24  6  1  0  0  0  0
 25 11  1  0  0  0  0
 26 12  1  0  0  0  0
M  RAD  1  11   2
M  END
>  <HBA>
5

>  <HBD>
2

>  <TPSA>
82.86

>  <cid>
28408

>  <dipole>
2.8

>  <excitation_energy_1>
4.712

>  <excitation_energy_2>
4.825

>  <excitation_energy_3>
5.104

>  <excitation_energy_4>
5.259

>  <homo_energy>
-5.284

>  <homo_lumo_gap>
5.538

>  <logP>
1.632

>  <lumo_energy>
0.253

>  <melting_point>
167.64

>  <molecular_refractivity>
56.18

>  <oscillator_strength_1>
0.0853

>  <oscillator_strength_2>
0.0053

>  <oscillator_strength_3>
0.0019

>  <oscillator_strength_4>
0.0098

>  <open_babel_can_smiles>
[NH]C(=[NH2])NCCc1ccc2c(c1)OCO2

>  <mulliken_charges>
28
1   -0.203905
2   -0.18343
3   -0.350855
4   -0.122853
5   -0.242283
6   0.19675
7   0.150438
8   0.32828
9   0.334598
10   0.588133
11   -0.650169
12   -0.757036
13   -0.592143
14   -0.535161
15   -0.534391
16   0.118498
17   0.139255
18   0.123855
19   0.178379
20   0.137997
21   0.183141
22   0.160872
23   0.156534
24   0.155726
25   0.264396
26   0.318693
27   0.321916
28   0.314768

>  <lowdin_charges>
28
1   -0.180638
2   -0.186262
3   -0.287676
4   -0.19827
5   -0.190499
6   0.020595
7   -0.005333
8   0.068806
9   0.070975
10   0.128264
11   -0.485895
12   -0.514741
13   -0.307193
14   -0.21212
15   -0.206969
16   0.155056
17   0.167378
18   0.14032
19   0.168267
20   0.145042
21   0.169615
22   0.176652
23   0.144351
24   0.145989
25   0.247423
26   0.274355
27   0.278688
28   0.273817

$$$$

