PCCDB-ID:  34645
public computational chemistry database (PCCDB) project, http://pccdb.org

 27 27  0  0  1  0  0  0  0  0999 V2000
    2.6086   -0.4338    1.5652 C   0  0  0  0  0  0  0  0  0  0  0  0
    1.4452    1.0502   -0.0517 C   0  0  0  0  0  0  0  0  0  0  0  0
    6.1248   -2.2379   -3.7871 C   0  0  0  0  0  0  0  0  0  0  0  0
    4.5298   -2.6081   -1.8321 C   0  0  0  0  0  0  0  0  0  0  0  0
    3.9021   -1.9981   -0.5719 C   0  0  0  0  0  0  0  0  0  0  0  0
    4.7950   -0.3002   -2.8186 C   0  0  0  0  0  0  0  0  0  0  0  0
    2.4200   -0.0481    0.2996 C   0  0  0  0  0  0  0  0  0  0  0  0
    5.5065   -1.6398   -2.5190 C   0  0  2  0  0  0  0  0  0  0  0  0
    3.1391   -0.6852   -0.8771 C   0  0  1  0  0  0  0  0  0  0  0  0
    4.1109    0.2784   -1.5858 C   0  0  0  0  0  0  0  0  0  0  0  0
    4.3431    1.4053   -1.1924 O   0  0  0  0  0  0  0  0  0  0  0  0
    2.0675    0.0406    2.3798 H   0  0  0  0  0  0  0  0  0  0  0  0
    3.3020   -1.2194    1.8471 H   0  0  0  0  0  0  0  0  0  0  0  0
    0.9078    1.4042    0.8334 H   0  0  0  0  0  0  0  0  0  0  0  0
    0.7022    0.7020   -0.7833 H   0  0  0  0  0  0  0  0  0  0  0  0
    1.9701    1.9007   -0.4999 H   0  0  0  0  0  0  0  0  0  0  0  0
    6.6669   -3.1640   -3.5623 H   0  0  0  0  0  0  0  0  0  0  0  0
    6.8307   -1.5407   -4.2529 H   0  0  0  0  0  0  0  0  0  0  0  0
    5.3501   -2.4750   -4.5278 H   0  0  0  0  0  0  0  0  0  0  0  0
    3.7358   -2.8853   -2.5426 H   0  0  0  0  0  0  0  0  0  0  0  0
    5.0515   -3.5382   -1.5722 H   0  0  0  0  0  0  0  0  0  0  0  0
    4.6926   -1.7947    0.1628 H   0  0  0  0  0  0  0  0  0  0  0  0
    3.2124   -2.7096   -0.1039 H   0  0  0  0  0  0  0  0  0  0  0  0
    4.0268   -0.4749   -3.5884 H   0  0  0  0  0  0  0  0  0  0  0  0
    5.4921    0.4491   -3.2062 H   0  0  0  0  0  0  0  0  0  0  0  0
    6.3211   -1.4281   -1.8092 H   0  0  0  0  0  0  0  0  0  0  0  0
    2.3778   -0.9357   -1.6372 H   0  0  0  0  0  0  0  0  0  0  0  0
  1 13  1  0  0  0  0
  1 12  1  0  0  0  0
  2  7  1  0  0  0  0
  2 14  1  0  0  0  0
  3 17  1  0  0  0  0
  3  8  1  0  0  0  0
  4 21  1  0  0  0  0
  4  5  1  0  0  0  0
  5 23  1  0  0  0  0
  5 22  1  0  0  0  0
  6  8  1  0  0  0  0
  6 10  1  0  0  0  0
  7  1  2  0  0  0  0
  8  4  1  0  0  0  0
  8 26  1  1  0  0  0
  9 27  1  6  0  0  0
  9  5  1  0  0  0  0
  9  7  1  0  0  0  0
 10 11  2  0  0  0  0
 10  9  1  0  0  0  0
 15  2  1  0  0  0  0
 16  2  1  0  0  0  0
 18  3  1  0  0  0  0
 19  3  1  0  0  0  0
 20  4  1  0  0  0  0
 24  6  1  0  0  0  0
 25  6  1  0  0  0  0
M  END
>  <HBA>
1

>  <HBD>
0

>  <TPSA>
17.07

>  <cid>
34645

>  <dipole>
2.89

>  <excitation_energy_1>
4.186

>  <excitation_energy_2>
5.229

>  <excitation_energy_3>
5.851

>  <excitation_energy_4>
6.027

>  <homo_energy>
-6.297

>  <homo_lumo_gap>
5.897

>  <logP>
2.568

>  <lumo_energy>
-0.4

>  <melting_point>
-2.43

>  <molecular_refractivity>
47.8

>  <oscillator_strength_1>
0.0003

>  <oscillator_strength_2>
0.0012

>  <oscillator_strength_3>
0.0385

>  <oscillator_strength_4>
0.034

>  <open_babel_can_smiles>
C[C@@H]1CC[C@H](C(=O)C1)C(=C)C

>  <mulliken_charges>
27
1   -0.402558
2   -0.522186
3   -0.444648
4   -0.264674
5   -0.282529
6   -0.336689
7   0.254709
8   -0.085335
9   -0.250649
10   0.447233
11   -0.44389
12   0.132348
13   0.13395
14   0.149444
15   0.140472
16   0.185323
17   0.145885
18   0.148269
19   0.14151
20   0.129183
21   0.138361
22   0.148342
23   0.15098
24   0.147364
25   0.161072
26   0.135667
27   0.143045

>  <lowdin_charges>
27
1   -0.363239
2   -0.447778
3   -0.444972
4   -0.28015
5   -0.275592
6   -0.307587
7   0.016894
8   -0.122587
9   -0.160864
10   0.1602
11   -0.229819
12   0.157142
13   0.155694
14   0.15645
15   0.149511
16   0.171815
17   0.151677
18   0.153878
19   0.147973
20   0.13955
21   0.148847
22   0.148195
23   0.155674
24   0.156753
25   0.163905
26   0.142228
27   0.1562

$$$$

