PCCDB-ID:  69
public computational chemistry database (PCCDB) project, http://pccdb.org

 19 18  0  0  0  0  0  0  0  0999 V2000
    0.2261   -1.6538   -1.9582 C   0  0  0  0  0  0  0  0  0  0  0  0
    3.2111   -1.4713   -1.5635 C   0  0  0  0  0  0  0  0  0  0  0  0
    2.3581   -0.7970   -0.7602 C   0  0  0  0  0  0  0  0  0  0  0  0
    4.6444   -1.4043   -1.3962 C   0  0  0  0  0  0  0  0  0  0  0  0
    0.8818   -0.8177   -0.8705 C   0  0  0  0  0  0  0  0  0  0  0  0
    5.5843   -2.0290   -2.1435 C   0  0  0  0  0  0  0  0  0  0  0  0
    5.3290   -2.9336   -3.3165 C   0  0  0  0  0  0  0  0  0  0  0  0
    0.2120   -0.1603   -0.0840 O   0  0  0  0  0  0  0  0  0  0  0  0
    6.9322   -1.9026   -1.9078 O   0  0  0  0  0  0  0  0  0  0  0  0
    4.2264   -3.2237   -3.7219 O   0  0  0  0  0  0  0  0  0  0  0  0
    6.4419   -3.4141   -3.9049 O   0  0  0  0  0  0  0  0  0  0  0  0
    0.5463   -1.3260   -2.9544 H   0  0  0  0  0  0  0  0  0  0  0  0
   -0.8570   -1.5494   -1.8746 H   0  0  0  0  0  0  0  0  0  0  0  0
    0.4981   -2.7115   -1.8628 H   0  0  0  0  0  0  0  0  0  0  0  0
    2.8447   -2.0941   -2.3717 H   0  0  0  0  0  0  0  0  0  0  0  0
    2.7297   -0.1722    0.0509 H   0  0  0  0  0  0  0  0  0  0  0  0
    5.0026   -0.7792   -0.5757 H   0  0  0  0  0  0  0  0  0  0  0  0
    7.0926   -1.3089   -1.1564 H   0  0  0  0  0  0  0  0  0  0  0  0
    7.2255   -3.0676   -3.4383 H   0  0  0  0  0  0  0  0  0  0  0  0
  1 13  1  0  0  0  0
  1 14  1  0  0  0  0
  1  5  1  0  0  0  0
  2  4  1  0  0  0  0
  2  3  2  0  0  0  0
  3 16  1  0  0  0  0
  4 17  1  0  0  0  0
  5  3  1  0  0  0  0
  5  8  2  0  0  0  0
  6  9  1  0  0  0  0
  6  4  2  0  0  0  0
  7  6  1  0  0  0  0
  9 18  1  0  0  0  0
 10  7  2  0  0  0  0
 11 19  1  0  0  0  0
 11  7  1  0  0  0  0
 12  1  1  0  0  0  0
 15  2  1  0  0  0  0
M  END
>  <HBA>
4

>  <HBD>
2

>  <TPSA>
74.6

>  <cid>
69

>  <dipole>
5.11

>  <excitation_energy_1>
3.086

>  <excitation_energy_2>
4.174

>  <excitation_energy_3>
4.247

>  <excitation_energy_4>
5.079

>  <homo_energy>
-6.615

>  <homo_lumo_gap>
4.144

>  <logP>
0.658

>  <lumo_energy>
-2.471

>  <melting_point>
105.61

>  <molecular_refractivity>
38.36

>  <oscillator_strength_1>
0.0

>  <oscillator_strength_2>
0.6867

>  <oscillator_strength_3>
0.0002

>  <oscillator_strength_4>
0.0002

>  <open_babel_can_smiles>
CC(=O)/C=C/C=C(\C(=O)O)/O

>  <mulliken_charges>
19
1   -0.542002
2   -0.098395
3   -0.197393
4   -0.202344
5   0.444323
6   0.283963
7   0.601777
8   -0.460025
9   -0.664954
10   -0.457224
11   -0.575975
12   0.174434
13   0.179723
14   0.174199
15   0.199059
16   0.14138
17   0.133372
18   0.427234
19   0.438848

>  <lowdin_charges>
19
1   -0.473955
2   -0.126497
3   -0.187882
4   -0.178958
5   0.156564
6   0.053873
7   0.189796
8   -0.24291
9   -0.386072
10   -0.237326
11   -0.339474
12   0.171686
13   0.172797
14   0.170635
15   0.190361
16   0.164923
17   0.16107
18   0.371282
19   0.370085

$$$$

