PCCDB-ID:  61004
public computational chemistry database (PCCDB) project, http://pccdb.org

 31 30  0  0  1  0  0  0  0  0999 V2000
    1.8581    1.2960   -0.9073 C   0  0  0  0  0  0  0  0  0  0  0  0
    5.3993   -2.3586   -4.9427 C   0  0  0  0  0  0  0  0  0  0  0  0
    9.1561   -1.5355   -0.8531 C   0  0  0  0  0  0  0  0  0  0  0  0
    1.9379   -0.1932   -0.5506 C   0  0  0  0  0  0  0  0  0  0  0  0
    4.8973   -1.2846   -3.9686 C   0  0  0  0  0  0  0  0  0  0  0  0
    8.0357   -1.9925   -0.2841 C   0  0  0  0  0  0  0  0  0  0  0  0
    2.7628   -1.0428   -1.5327 C   0  0  0  0  0  0  0  0  0  0  0  0
    4.2614   -0.7062   -1.5516 C   0  0  0  0  0  0  0  0  0  0  0  0
    6.5918   -1.5039   -2.1114 C   0  0  0  0  0  0  0  0  0  0  0  0
    5.1083   -1.6095   -2.4735 C   0  0  2  0  0  0  0  0  0  0  0  0
    6.7783   -2.0216   -0.7933 O   0  0  0  0  0  0  0  0  0  0  0  0
    1.2047    1.8330   -0.2101 H   0  0  0  0  0  0  0  0  0  0  0  0
    1.4542    1.4385   -1.9178 H   0  0  0  0  0  0  0  0  0  0  0  0
    2.8411    1.7788   -0.8729 H   0  0  0  0  0  0  0  0  0  0  0  0
    5.1886   -2.0730   -5.9796 H   0  0  0  0  0  0  0  0  0  0  0  0
    4.9057   -3.3201   -4.7557 H   0  0  0  0  0  0  0  0  0  0  0  0
    6.4799   -2.5224   -4.8633 H   0  0  0  0  0  0  0  0  0  0  0  0
   10.0856   -1.5901   -0.2983 H   0  0  0  0  0  0  0  0  0  0  0  0
    9.1951   -1.1087   -1.8483 H   0  0  0  0  0  0  0  0  0  0  0  0
    0.9194   -0.6023   -0.5065 H   0  0  0  0  0  0  0  0  0  0  0  0
    2.3548   -0.3056    0.4605 H   0  0  0  0  0  0  0  0  0  0  0  0
    3.8268   -1.1284   -4.1467 H   0  0  0  0  0  0  0  0  0  0  0  0
    5.3797   -0.3223   -4.1971 H   0  0  0  0  0  0  0  0  0  0  0  0
    8.0324   -2.4163    0.7170 H   0  0  0  0  0  0  0  0  0  0  0  0
    2.3327   -0.9366   -2.5388 H   0  0  0  0  0  0  0  0  0  0  0  0
    2.6476   -2.1021   -1.2623 H   0  0  0  0  0  0  0  0  0  0  0  0
    4.6490   -0.7943   -0.5291 H   0  0  0  0  0  0  0  0  0  0  0  0
    4.4118    0.3409   -1.8524 H   0  0  0  0  0  0  0  0  0  0  0  0
    6.9223   -0.4542   -2.1424 H   0  0  0  0  0  0  0  0  0  0  0  0
    7.2200   -2.0736   -2.8088 H   0  0  0  0  0  0  0  0  0  0  0  0
    4.8112   -2.6549   -2.3001 H   0  0  0  0  0  0  0  0  0  0  0  0
  1 14  1  0  0  0  0
  1  4  1  0  0  0  0
  1 12  1  0  0  0  0
  2 17  1  0  0  0  0
  2 16  1  0  0  0  0
  2  5  1  0  0  0  0
  3 18  1  0  0  0  0
  3  6  2  0  0  0  0
  4 20  1  0  0  0  0
  4 21  1  0  0  0  0
  5 10  1  0  0  0  0
  6 24  1  0  0  0  0
  7 26  1  0  0  0  0
  7  4  1  0  0  0  0
  8  7  1  0  0  0  0
  8 27  1  0  0  0  0
  9 11  1  0  0  0  0
 10 31  1  1  0  0  0
 10  9  1  0  0  0  0
 10  8  1  0  0  0  0
 11  6  1  0  0  0  0
 13  1  1  0  0  0  0
 15  2  1  0  0  0  0
 19  3  1  0  0  0  0
 22  5  1  0  0  0  0
 23  5  1  0  0  0  0
 25  7  1  0  0  0  0
 28  8  1  0  0  0  0
 29  9  1  0  0  0  0
 30  9  1  0  0  0  0
M  END
>  <HBA>
1

>  <HBD>
0

>  <TPSA>
9.23

>  <cid>
61004

>  <dipole>
0.89

>  <excitation_energy_1>
5.786

>  <excitation_energy_2>
5.983

>  <excitation_energy_3>
6.175

>  <excitation_energy_4>
6.286

>  <homo_energy>
-6.055

>  <homo_lumo_gap>
7.32

>  <logP>
3.363

>  <lumo_energy>
1.265

>  <melting_point>
-58.77

>  <molecular_refractivity>
50.8

>  <oscillator_strength_1>
0.0397

>  <oscillator_strength_2>
0.0036

>  <oscillator_strength_3>
0.0053

>  <oscillator_strength_4>
0.0036

>  <open_babel_can_smiles>
CCCC[C@H](COC=C)CC

>  <mulliken_charges>
31
1   -0.443248
2   -0.450386
3   -0.401754
4   -0.24882
5   -0.267495
6   0.158113
7   -0.257906
8   -0.267543
9   -0.037959
10   -0.091367
11   -0.454267
12   0.142086
13   0.139149
14   0.146704
15   0.145353
16   0.146837
17   0.146076
18   0.139767
19   0.140586
20   0.129939
21   0.131942
22   0.142772
23   0.129675
24   0.1395
25   0.128069
26   0.130177
27   0.150745
28   0.126553
29   0.13407
30   0.141305
31   0.131327

>  <lowdin_charges>
31
1   -0.447893
2   -0.443993
3   -0.430675
4   -0.270446
5   -0.273845
6   -0.034421
7   -0.274575
8   -0.279292
9   -0.129775
10   -0.130803
11   -0.198443
12   0.151107
13   0.144297
14   0.146984
15   0.150686
16   0.148677
17   0.144403
18   0.167624
19   0.160114
20   0.140543
21   0.138817
22   0.145494
23   0.138718
24   0.155758
25   0.135077
26   0.139557
27   0.15019
28   0.136607
29   0.135493
30   0.142976
31   0.141042

$$$$

