PCCDB-ID:  69362
public computational chemistry database (PCCDB) project, http://pccdb.org

 18 17  0  0  0  0  0  0  0  0999 V2000
    0.9488    0.1721   -0.0552 C   0  0  0  0  0  0  0  0  0  0  0  0
    2.9361    1.6451    0.4829 C   0  0  0  0  0  0  0  0  0  0  0  0
    2.9993   -0.8510    0.9996 C   0  0  0  0  0  0  0  0  0  0  0  0
    4.5168   -0.8950    1.2150 C   0  0  0  0  0  0  0  0  0  0  0  0
    2.4751    0.2470    0.0531 C   0  0  0  0  0  0  0  0  0  0  0  0
    5.0176   -1.1002    2.2947 O   0  0  0  0  0  0  0  0  0  0  0  0
    5.2706   -0.7283    0.1080 O   0  0  0  0  0  0  0  0  0  0  0  0
    3.0485   -0.0817   -1.2449 O   0  0  0  0  0  0  0  0  0  0  0  0
    0.4752    0.3751    0.9116 H   0  0  0  0  0  0  0  0  0  0  0  0
    0.6369   -0.8200   -0.3959 H   0  0  0  0  0  0  0  0  0  0  0  0
    0.5762    0.9137   -0.7726 H   0  0  0  0  0  0  0  0  0  0  0  0
    2.5568    1.8907    1.4803 H   0  0  0  0  0  0  0  0  0  0  0  0
    2.5581    2.4067   -0.2116 H   0  0  0  0  0  0  0  0  0  0  0  0
    4.0283    1.7093    0.5051 H   0  0  0  0  0  0  0  0  0  0  0  0
    2.5396   -0.7482    1.9850 H   0  0  0  0  0  0  0  0  0  0  0  0
    2.6931   -1.8241    0.5923 H   0  0  0  0  0  0  0  0  0  0  0  0
    4.6712   -0.5440   -0.6521 H   0  0  0  0  0  0  0  0  0  0  0  0
    2.9122    0.6739   -1.8389 H   0  0  0  0  0  0  0  0  0  0  0  0
  1  5  1  0  0  0  0
  1  9  1  0  0  0  0
  2 14  1  0  0  0  0
  2 12  1  0  0  0  0
  3  4  1  0  0  0  0
  3 15  1  0  0  0  0
  4  6  2  0  0  0  0
  5  2  1  0  0  0  0
  5  3  1  0  0  0  0
  7  4  1  0  0  0  0
  8  5  1  0  0  0  0
 10  1  1  0  0  0  0
 11  1  1  0  0  0  0
 13  2  1  0  0  0  0
 16  3  1  0  0  0  0
 17  7  1  0  0  0  0
 18  8  1  0  0  0  0
M  END
>  <HBA>
3

>  <HBD>
2

>  <TPSA>
57.53

>  <cid>
69362

>  <dipole>
5.85

>  <excitation_energy_1>
5.619

>  <excitation_energy_2>
6.23

>  <excitation_energy_3>
6.988

>  <excitation_energy_4>
7.161

>  <homo_energy>
-6.931

>  <homo_lumo_gap>
7.505

>  <logP>
0.232

>  <lumo_energy>
0.574

>  <melting_point>
80.9

>  <molecular_refractivity>
29.12

>  <oscillator_strength_1>
0.001

>  <oscillator_strength_2>
0.0083

>  <oscillator_strength_3>
0.0151

>  <oscillator_strength_4>
0.0165

>  <open_babel_can_smiles>
OC(=O)CC(O)(C)C

>  <mulliken_charges>
18
1   -0.446083
2   -0.470692
3   -0.373276
4   0.583066
5   0.270775
6   -0.454208
7   -0.590231
8   -0.651374
9   0.154439
10   0.162701
11   0.14018
12   0.164681
13   0.139441
14   0.175999
15   0.175876
16   0.180237
17   0.434029
18   0.404441

>  <lowdin_charges>
18
1   -0.451519
2   -0.460825
3   -0.321614
4   0.186751
5   0.12525
6   -0.253344
7   -0.372681
8   -0.463706
9   0.15909
10   0.160866
11   0.151426
12   0.165147
13   0.150467
14   0.164447
15   0.175321
16   0.175139
17   0.357367
18   0.352418

$$$$

