PCCDB-ID:  47200
public computational chemistry database (PCCDB) project, http://pccdb.org

 39 39  0  0  1  0  0  0  0  0999 V2000
    7.1069   -4.2672    3.5905 C   0  0  0  0  0  0  0  0  0  0  0  0
   13.2452   -1.2408   -4.2909 C   0  0  0  0  0  0  0  0  0  0  0  0
    7.9069   -3.4417    2.5771 C   0  0  0  0  0  0  0  0  0  0  0  0
   12.9852   -2.1851   -3.1289 C   0  0  0  0  0  0  0  0  0  0  0  0
    9.0548   -4.2382    1.9395 C   0  0  0  0  0  0  0  0  0  0  0  0
   11.3312   -7.1146   -2.7346 C   0  0  0  0  0  0  0  0  0  0  0  0
   12.2321   -6.6011   -1.8024 C   0  0  0  0  0  0  0  0  0  0  0  0
   10.3839   -6.2700   -3.3216 C   0  0  0  0  0  0  0  0  0  0  0  0
   12.1834   -5.2474   -1.4584 C   0  0  0  0  0  0  0  0  0  0  0  0
   10.3357   -4.9218   -2.9749 C   0  0  0  0  0  0  0  0  0  0  0  0
    9.9482   -3.4317    0.9893 C   0  0  0  0  0  0  0  0  0  0  0  0
   11.2327   -4.3976   -2.0339 C   0  0  0  0  0  0  0  0  0  0  0  0
   11.2000   -2.9105   -1.7002 C   0  0  2  0  0  0  0  0  0  0  0  0
    9.7894   -2.4271   -1.3182 C   0  0  0  0  0  0  0  0  0  0  0  0
    9.1051   -1.5934   -2.0076 N   0  0  0  0  0  0  0  0  0  0  0  0
    9.2148   -3.0088   -0.1994 N   0  0  0  0  0  0  0  0  0  0  0  0
   11.6006   -2.1152   -2.8088 O   0  0  0  0  0  0  0  0  0  0  0  0
    6.6652   -5.1531    3.1184 H   0  0  0  0  0  0  0  0  0  0  0  0
    6.2913   -3.6806    4.0276 H   0  0  0  0  0  0  0  0  0  0  0  0
    7.7470   -4.6137    4.4112 H   0  0  0  0  0  0  0  0  0  0  0  0
   14.3053   -1.2604   -4.5663 H   0  0  0  0  0  0  0  0  0  0  0  0
   12.9738   -0.2146   -4.0231 H   0  0  0  0  0  0  0  0  0  0  0  0
   12.6549   -1.5363   -5.1642 H   0  0  0  0  0  0  0  0  0  0  0  0
    8.3162   -2.5487    3.0710 H   0  0  0  0  0  0  0  0  0  0  0  0
    7.2208   -3.0775    1.7999 H   0  0  0  0  0  0  0  0  0  0  0  0
   13.5841   -1.8949   -2.2492 H   0  0  0  0  0  0  0  0  0  0  0  0
   13.2666   -3.2144   -3.3938 H   0  0  0  0  0  0  0  0  0  0  0  0
    8.6500   -5.1001    1.3929 H   0  0  0  0  0  0  0  0  0  0  0  0
    9.6929   -4.6401    2.7387 H   0  0  0  0  0  0  0  0  0  0  0  0
   11.3647   -8.1670   -3.0036 H   0  0  0  0  0  0  0  0  0  0  0  0
   12.9751   -7.2493   -1.3450 H   0  0  0  0  0  0  0  0  0  0  0  0
    9.6785   -6.6659   -4.0476 H   0  0  0  0  0  0  0  0  0  0  0  0
   12.8921   -4.8484   -0.7350 H   0  0  0  0  0  0  0  0  0  0  0  0
    9.5958   -4.2657   -3.4254 H   0  0  0  0  0  0  0  0  0  0  0  0
   10.7801   -4.0684    0.6762 H   0  0  0  0  0  0  0  0  0  0  0  0
   10.3800   -2.5736    1.5358 H   0  0  0  0  0  0  0  0  0  0  0  0
   11.8857   -2.7218   -0.8574 H   0  0  0  0  0  0  0  0  0  0  0  0
    9.6481   -1.3147   -2.8264 H   0  0  0  0  0  0  0  0  0  0  0  0
    8.3252   -2.5597   -0.0078 H   0  0  0  0  0  0  0  0  0  0  0  0
  1 19  1  0  0  0  0
  1 20  1  0  0  0  0
  2 22  1  0  0  0  0
  2  4  1  0  0  0  0
  3 24  1  0  0  0  0
  3  1  1  0  0  0  0
  4 17  1  0  0  0  0
  4 26  1  0  0  0  0
  5  3  1  0  0  0  0
  5 29  1  0  0  0  0
  6  7  2  0  0  0  0
  7  9  1  0  0  0  0
  7 31  1  0  0  0  0
  8 10  2  0  0  0  0
  8  6  1  0  0  0  0
  9 33  1  0  0  0  0
 10 12  1  0  0  0  0
 11 36  1  0  0  0  0
 11  5  1  0  0  0  0
 12 13  1  0  0  0  0
 12  9  2  0  0  0  0
 13 14  1  0  0  0  0
 13 37  1  1  0  0  0
 14 16  1  0  0  0  0
 15 14  2  0  0  0  0
 16 39  1  0  0  0  0
 16 11  1  0  0  0  0
 17 13  1  0  0  0  0
 18  1  1  0  0  0  0
 21  2  1  0  0  0  0
 23  2  1  0  0  0  0
 25  3  1  0  0  0  0
 27  4  1  0  0  0  0
 28  5  1  0  0  0  0
 30  6  1  0  0  0  0
 32  8  1  0  0  0  0
 34 10  1  0  0  0  0
 35 11  1  0  0  0  0
 38 15  1  0  0  0  0
M  END
>  <HBA>
3

>  <HBD>
1

>  <TPSA>
47.61

>  <cid>
47200

>  <dipole>
3.46

>  <excitation_energy_1>
4.736

>  <excitation_energy_2>
4.95

>  <excitation_energy_3>
5.249

>  <excitation_energy_4>
5.415

>  <homo_energy>
-5.796

>  <homo_lumo_gap>
5.548

>  <logP>
3.622

>  <lumo_energy>
-0.248

>  <melting_point>
65.66

>  <molecular_refractivity>
72.53

>  <oscillator_strength_1>
0.0045

>  <oscillator_strength_2>
0.0056

>  <oscillator_strength_3>
0.0006

>  <oscillator_strength_4>
0.01

>  <open_babel_can_smiles>
CCCCNC(=N)[C@@H](c1ccccc1)OCC

>  <mulliken_charges>
39
1   -0.441338
2   -0.456796
3   -0.259652
4   -0.011301
5   -0.260796
6   -0.12834
7   -0.129927
8   -0.131327
9   -0.198954
10   -0.165288
11   -0.129236
12   0.172334
13   0.00951
14   0.452588
15   -0.657068
16   -0.594426
17   -0.493717
18   0.146357
19   0.145829
20   0.142563
21   0.14523
22   0.160186
23   0.161261
24   0.134944
25   0.136629
26   0.118578
27   0.138416
28   0.149217
29   0.132172
30   0.131411
31   0.130441
32   0.13408
33   0.125268
34   0.151545
35   0.151128
36   0.129329
37   0.126293
38   0.305521
39   0.327337

>  <lowdin_charges>
39
1   -0.445302
2   -0.446272
3   -0.278558
4   -0.125223
5   -0.28152
6   -0.153193
7   -0.159188
8   -0.153321
9   -0.173648
10   -0.147152
11   -0.202187
12   -0.020176
13   -0.019886
14   0.080243
15   -0.439893
16   -0.294733
17   -0.263806
18   0.149622
19   0.1525
20   0.147723
21   0.154009
22   0.156638
23   0.159023
24   0.14126
25   0.141358
26   0.126686
27   0.135767
28   0.15071
29   0.146118
30   0.157106
31   0.15937
32   0.160657
33   0.154396
34   0.170347
35   0.153735
36   0.128077
37   0.139557
38   0.261713
39   0.277442

$$$$

