PCCDB-ID:  11920
public computational chemistry database (PCCDB) project, http://pccdb.org

 19 19  0  0  0  0  0  0  0  0999 V2000
   -1.2914   -0.0102    0.1505 C   0  0  0  0  0  0  0  0  0  0  0  0
   -0.4143   -1.0727    0.3658 C   0  0  0  0  0  0  0  0  0  0  0  0
   -0.7975    1.2071   -0.3163 C   0  0  0  0  0  0  0  0  0  0  0  0
    0.9450   -0.9052    0.1151 C   0  0  0  0  0  0  0  0  0  0  0  0
    1.0177    2.7335   -1.1010 C   0  0  0  0  0  0  0  0  0  0  0  0
    0.5668    1.3957   -0.5649 C   0  0  0  0  0  0  0  0  0  0  0  0
    1.4549    0.3204   -0.3330 C   0  0  0  0  0  0  0  0  0  0  0  0
    2.9494    0.3474   -0.5691 C   0  0  0  0  0  0  0  0  0  0  0  0
    1.7421    3.4278   -0.0580 O   0  0  0  0  0  0  0  0  0  0  0  0
    3.5592   -0.6563   -0.8683 O   0  0  0  0  0  0  0  0  0  0  0  0
    3.5940    1.5201   -0.4224 O   0  0  0  0  0  0  0  0  0  0  0  0
   -2.3550   -0.1273    0.3384 H   0  0  0  0  0  0  0  0  0  0  0  0
   -0.7866   -2.0293    0.7213 H   0  0  0  0  0  0  0  0  0  0  0  0
   -1.4836    2.0306   -0.4984 H   0  0  0  0  0  0  0  0  0  0  0  0
    1.6428   -1.7236    0.2559 H   0  0  0  0  0  0  0  0  0  0  0  0
    0.1447    3.3257   -1.3978 H   0  0  0  0  0  0  0  0  0  0  0  0
    1.6637    2.6077   -1.9798 H   0  0  0  0  0  0  0  0  0  0  0  0
    2.1067    4.2441   -0.4392 H   0  0  0  0  0  0  0  0  0  0  0  0
    2.9982    2.2241   -0.0682 H   0  0  0  0  0  0  0  0  0  0  0  0
  1 12  1  0  0  0  0
  1  2  1  0  0  0  0
  2 13  1  0  0  0  0
  3  1  2  0  0  0  0
  4 15  1  0  0  0  0
  4  2  2  0  0  0  0
  5  6  1  0  0  0  0
  5  9  1  0  0  0  0
  6  7  2  0  0  0  0
  6  3  1  0  0  0  0
  7  4  1  0  0  0  0
  8 11  1  0  0  0  0
  8  7  1  0  0  0  0
 10  8  2  0  0  0  0
 11 19  1  0  0  0  0
 14  3  1  0  0  0  0
 16  5  1  0  0  0  0
 17  5  1  0  0  0  0
 18  9  1  0  0  0  0
M  END
>  <HBA>
3

>  <HBD>
2

>  <TPSA>
57.53

>  <cid>
11920

>  <dipole>
5.45

>  <excitation_energy_1>
4.582

>  <excitation_energy_2>
4.997

>  <excitation_energy_3>
5.451

>  <excitation_energy_4>
5.638

>  <homo_energy>
-6.893

>  <homo_lumo_gap>
5.655

>  <logP>
0.877

>  <lumo_energy>
-1.238

>  <melting_point>
118.1

>  <molecular_refractivity>
39.53

>  <oscillator_strength_1>
0.014

>  <oscillator_strength_2>
0.0163

>  <oscillator_strength_3>
0.0875

>  <oscillator_strength_4>
0.0335

>  <open_babel_can_smiles>
OCc1ccccc1C(=O)O

>  <mulliken_charges>
19
1   -0.117595
2   -0.129639
3   -0.18269
4   -0.156304
5   -0.171923
6   0.12829
7   0.010027
8   0.536228
9   -0.61599
10   -0.455276
11   -0.609688
12   0.140675
13   0.143076
14   0.134028
15   0.171185
16   0.155788
17   0.166667
18   0.412664
19   0.440475

>  <lowdin_charges>
19
1   -0.141275
2   -0.147932
3   -0.157662
4   -0.12869
5   -0.143982
6   -0.016546
7   -0.052027
8   0.189488
9   -0.459162
10   -0.256123
11   -0.37279
12   0.16181
13   0.164503
14   0.160452
15   0.181535
16   0.151009
17   0.151501
18   0.356868
19   0.359025

$$$$

