PCCDB-ID:  56191
public computational chemistry database (PCCDB) project, http://pccdb.org

 32 32  0  0  0  0  0  0  0  0999 V2000
    2.7298    0.8884    0.9270 C   0  0  0  0  0  0  0  0  0  0  0  0
    0.7872   -2.8063   -0.1471 C   0  0  0  0  0  0  0  0  0  0  0  0
   10.3378   -3.3597   -1.1281 C   0  0  0  0  0  0  0  0  0  0  0  0
    2.4375   -0.1228   -0.1810 C   0  0  0  0  0  0  0  0  0  0  0  0
    2.2115   -2.5373   -0.6299 C   0  0  0  0  0  0  0  0  0  0  0  0
    8.2595   -3.5817    0.4671 C   0  0  0  0  0  0  0  0  0  0  0  0
    4.3668   -1.6329    0.0453 C   0  0  0  0  0  0  0  0  0  0  0  0
    8.9731   -3.0091   -0.6184 C   0  0  0  0  0  0  0  0  0  0  0  0
    4.8769   -2.4974    1.2097 C   0  0  0  0  0  0  0  0  0  0  0  0
    7.0723   -2.8980    0.5017 C   0  0  0  0  0  0  0  0  0  0  0  0
    6.0300   -3.0368    1.3690 N   0  0  0  0  0  0  0  0  0  0  0  0
    8.2923   -2.0434   -1.2050 N   0  0  0  0  0  0  0  0  0  0  0  0
    2.9060   -1.4844    0.1431 N   0  0  0  0  0  0  0  0  0  0  0  0
    3.9623   -2.6768    2.1655 O   0  0  0  0  0  0  0  0  0  0  0  0
    7.0749   -1.9642   -0.4987 O   0  0  0  0  0  0  0  0  0  0  0  0
    2.3426    1.8737    0.6452 H   0  0  0  0  0  0  0  0  0  0  0  0
    3.8026    1.0014    1.1171 H   0  0  0  0  0  0  0  0  0  0  0  0
    2.2505    0.5846    1.8638 H   0  0  0  0  0  0  0  0  0  0  0  0
    0.3447   -3.6195   -0.7328 H   0  0  0  0  0  0  0  0  0  0  0  0
    0.1348   -1.9335   -0.2543 H   0  0  0  0  0  0  0  0  0  0  0  0
    0.7846   -3.1047    0.9070 H   0  0  0  0  0  0  0  0  0  0  0  0
   10.3825   -4.4091   -1.4412 H   0  0  0  0  0  0  0  0  0  0  0  0
   11.0958   -3.2155   -0.3495 H   0  0  0  0  0  0  0  0  0  0  0  0
   10.5921   -2.7285   -1.9834 H   0  0  0  0  0  0  0  0  0  0  0  0
    2.8701    0.2195   -1.1371 H   0  0  0  0  0  0  0  0  0  0  0  0
    1.3555   -0.1751   -0.3305 H   0  0  0  0  0  0  0  0  0  0  0  0
    2.2152   -2.2902   -1.7058 H   0  0  0  0  0  0  0  0  0  0  0  0
    2.7966   -3.4568   -0.5187 H   0  0  0  0  0  0  0  0  0  0  0  0
    8.5648   -4.3758    1.1309 H   0  0  0  0  0  0  0  0  0  0  0  0
    4.6852   -2.0652   -0.9107 H   0  0  0  0  0  0  0  0  0  0  0  0
    4.8545   -0.6562    0.1090 H   0  0  0  0  0  0  0  0  0  0  0  0
    3.1635   -2.1930    1.8173 H   0  0  0  0  0  0  0  0  0  0  0  0
  1 17  1  0  0  0  0
  1 18  1  0  0  0  0
  2 21  1  0  0  0  0
  3  8  1  0  0  0  0
  3 23  1  0  0  0  0
  4 13  1  0  0  0  0
  4  1  1  0  0  0  0
  5 28  1  0  0  0  0
  5  2  1  0  0  0  0
  5 13  1  0  0  0  0
  6 10  2  0  0  0  0
  6 29  1  0  0  0  0
  7 31  1  0  0  0  0
  7 13  1  0  0  0  0
  7  9  1  0  0  0  0
  8  6  1  0  0  0  0
  9 11  2  0  0  0  0
  9 14  1  0  0  0  0
 10 11  1  0  0  0  0
 12  8  2  0  0  0  0
 12 15  1  0  0  0  0
 15 10  1  0  0  0  0
 16  1  1  0  0  0  0
 19  2  1  0  0  0  0
 20  2  1  0  0  0  0
 22  3  1  0  0  0  0
 24  3  1  0  0  0  0
 25  4  1  0  0  0  0
 26  4  1  0  0  0  0
 27  5  1  0  0  0  0
 30  7  1  0  0  0  0
 32 14  1  0  0  0  0
M  END
>  <HBA>
5

>  <HBD>
1

>  <TPSA>
58.37

>  <cid>
56191

>  <dipole>
3.79

>  <excitation_energy_1>
4.718

>  <excitation_energy_2>
5.025

>  <excitation_energy_3>
5.4

>  <excitation_energy_4>
5.462

>  <homo_energy>
-5.802

>  <homo_lumo_gap>
5.14

>  <logP>
1.336

>  <lumo_energy>
-0.661

>  <melting_point>
78.15

>  <molecular_refractivity>
57.91

>  <oscillator_strength_1>
0.2217

>  <oscillator_strength_2>
0.282

>  <oscillator_strength_3>
0.0038

>  <oscillator_strength_4>
0.0266

>  <open_babel_can_smiles>
CCN(C/C(=N\c1onc(c1)C)/O)CC

>  <mulliken_charges>
32
1   -0.454073
2   -0.452516
3   -0.525528
4   -0.127058
5   -0.127765
6   -0.287394
7   -0.220748
8   0.327299
9   0.492158
10   0.573233
11   -0.516035
12   -0.228917
13   -0.456254
14   -0.576076
15   -0.418586
16   0.155285
17   0.158745
18   0.157925
19   0.156874
20   0.154239
21   0.159823
22   0.166205
23   0.167956
24   0.177648
25   0.138655
26   0.150682
27   0.139467
28   0.159407
29   0.142973
30   0.187932
31   0.197965
32   0.426476

>  <lowdin_charges>
32
1   -0.449293
2   -0.45089
3   -0.441355
4   -0.195791
5   -0.198778
6   -0.25712
7   -0.244438
8   0.024755
9   0.146819
10   0.125265
11   -0.18924
12   -0.108511
13   -0.194095
14   -0.340941
15   -0.116014
16   0.158978
17   0.15233
18   0.155836
19   0.161409
20   0.151982
21   0.154873
22   0.163862
23   0.166548
24   0.172548
25   0.133436
26   0.149496
27   0.132969
28   0.154869
29   0.17774
30   0.170594
31   0.180028
32   0.352129

$$$$

