PCCDB-ID:  20046
public computational chemistry database (PCCDB) project, http://pccdb.org

 29 29  0  0  1  0  0  0  0  0999 V2000
    0.9929   -0.0625    0.2615 C   0  0  0  0  0  0  0  0  0  0  0  0
    2.5525   -1.2640   -1.2465 C   0  0  0  0  0  0  0  0  0  0  0  0
    2.0973    3.2154   -0.3950 C   0  0  0  0  0  0  0  0  0  0  0  0
    4.1470    3.9776    1.9953 C   0  0  0  0  0  0  0  0  0  0  0  0
    4.5017    0.3959    0.6581 C   0  0  0  0  0  0  0  0  0  0  0  0
    4.9250    1.5612    1.5843 C   0  0  0  0  0  0  0  0  0  0  0  0
    2.1881   -0.1123   -0.3371 C   0  0  0  0  0  0  0  0  0  0  0  0
    2.8939    2.2688    0.5050 C   0  0  1  0  0  0  0  0  0  0  0  0
    3.2787    0.9293   -0.1681 C   0  0  1  0  0  0  0  0  0  0  0  0
    4.2517    2.8197    1.0022 C   0  0  1  0  0  0  0  0  0  0  0  0
    4.9597    3.2513   -0.1759 O   0  0  0  0  0  0  0  0  0  0  0  0
    0.2579   -0.8503    0.1153 H   0  0  0  0  0  0  0  0  0  0  0  0
    0.6938    0.7536    0.9120 H   0  0  0  0  0  0  0  0  0  0  0  0
    1.7462   -2.0011   -1.3120 H   0  0  0  0  0  0  0  0  0  0  0  0
    3.4565   -1.7797   -0.8959 H   0  0  0  0  0  0  0  0  0  0  0  0
    2.7722   -0.9057   -2.2617 H   0  0  0  0  0  0  0  0  0  0  0  0
    1.1828    2.7293   -0.7502 H   0  0  0  0  0  0  0  0  0  0  0  0
    2.6928    3.5100   -1.2642 H   0  0  0  0  0  0  0  0  0  0  0  0
    1.8038    4.1277    0.1377 H   0  0  0  0  0  0  0  0  0  0  0  0
    3.5569    3.6996    2.8761 H   0  0  0  0  0  0  0  0  0  0  0  0
    3.6821    4.8496    1.5247 H   0  0  0  0  0  0  0  0  0  0  0  0
    5.1437    4.2776    2.3467 H   0  0  0  0  0  0  0  0  0  0  0  0
    4.2232   -0.4853    1.2457 H   0  0  0  0  0  0  0  0  0  0  0  0
    5.3172    0.0950   -0.0062 H   0  0  0  0  0  0  0  0  0  0  0  0
    6.0134    1.6844    1.6525 H   0  0  0  0  0  0  0  0  0  0  0  0
    4.5606    1.3936    2.6054 H   0  0  0  0  0  0  0  0  0  0  0  0
    2.3084    2.0553    1.4109 H   0  0  0  0  0  0  0  0  0  0  0  0
    3.6505    1.1790   -1.1713 H   0  0  0  0  0  0  0  0  0  0  0  0
    5.8426    3.5368    0.1075 H   0  0  0  0  0  0  0  0  0  0  0  0
  1 13  1  0  0  0  0
  2 15  1  0  0  0  0
  2  7  1  0  0  0  0
  3 19  1  0  0  0  0
  3  8  1  0  0  0  0
  4 22  1  0  0  0  0
  4 20  1  0  0  0  0
  5 23  1  0  0  0  0
  5  6  1  0  0  0  0
  6 25  1  0  0  0  0
  6 26  1  0  0  0  0
  7  9  1  0  0  0  0
  7  1  2  0  0  0  0
  8 10  1  0  0  0  0
  8 27  1  1  0  0  0
  9 28  1  6  0  0  0
  9  8  1  0  0  0  0
  9  5  1  0  0  0  0
 10 11  1  6  0  0  0
 10  6  1  0  0  0  0
 10  4  1  0  0  0  0
 11 29  1  0  0  0  0
 12  1  1  0  0  0  0
 14  2  1  0  0  0  0
 16  2  1  0  0  0  0
 17  3  1  0  0  0  0
 18  3  1  0  0  0  0
 21  4  1  0  0  0  0
 24  5  1  0  0  0  0
M  END
>  <HBA>
1

>  <HBD>
1

>  <TPSA>
20.23

>  <cid>
20046

>  <dipole>
1.61

>  <excitation_energy_1>
5.856

>  <excitation_energy_2>
6.257

>  <excitation_energy_3>
6.329

>  <excitation_energy_4>
6.418

>  <homo_energy>
-6.397

>  <homo_lumo_gap>
7.298

>  <logP>
2.36

>  <lumo_energy>
0.901

>  <melting_point>
5.82

>  <molecular_refractivity>
48.8

>  <oscillator_strength_1>
0.0036

>  <oscillator_strength_2>
0.0172

>  <oscillator_strength_3>
0.0157

>  <oscillator_strength_4>
0.1271

>  <open_babel_can_smiles>
CC(=C)[C@@H]1CC[C@@]([C@H]1C)(C)O

>  <mulliken_charges>
29
1   -0.411013
2   -0.51206
3   -0.458916
4   -0.470406
5   -0.278695
6   -0.28204
7   0.218764
8   -0.09618
9   -0.145164
10   0.301781
11   -0.64666
12   0.127286
13   0.134351
14   0.149666
15   0.155148
16   0.153363
17   0.147755
18   0.165578
19   0.134727
20   0.141674
21   0.158617
22   0.129486
23   0.139609
24   0.140442
25   0.120659
26   0.134217
27   0.119722
28   0.144414
29   0.383875

>  <lowdin_charges>
29
1   -0.376845
2   -0.441604
3   -0.449138
4   -0.457461
5   -0.282033
6   -0.290211
7   0.010487
8   -0.1309
9   -0.129484
10   0.114376
11   -0.464413
12   0.15348
13   0.154438
14   0.155212
15   0.155635
16   0.154634
17   0.153851
18   0.159912
19   0.146104
20   0.152592
21   0.158293
22   0.144
23   0.147515
24   0.14872
25   0.138259
26   0.144767
27   0.139407
28   0.151917
29   0.33849

$$$$

