PCCDB-ID:  3080
public computational chemistry database (PCCDB) project, http://pccdb.org

 14 13  0  0  1  0  0  0  0  0999 V2000
    0.7168    0.0365    0.2889 C   0  0  0  0  0  0  0  0  0  0  0  0
    0.6094   -2.1468   -1.0181 C   0  0  0  0  0  0  0  0  0  0  0  0
    0.2425   -0.6572   -1.0020 C   0  0  1  0  0  0  0  0  0  0  0  0
    0.0578   -0.4284    1.4560 O   0  0  0  0  0  0  0  0  0  0  0  0
    0.4061   -3.0004   -2.6319 S   0  0  0  0  0  0  0  0  0  0  0  0
   -1.5677   -0.3638   -1.2822 S   0  0  0  0  0  0  0  0  0  0  0  0
    0.6091    1.1237    0.1732 H   0  0  0  0  0  0  0  0  0  0  0  0
    1.7814   -0.1819    0.4365 H   0  0  0  0  0  0  0  0  0  0  0  0
    0.0705   -2.6806   -0.2303 H   0  0  0  0  0  0  0  0  0  0  0  0
    1.6784   -2.2464   -0.7967 H   0  0  0  0  0  0  0  0  0  0  0  0
    0.7186   -0.1595   -1.8547 H   0  0  0  0  0  0  0  0  0  0  0  0
   -0.8146   -0.0045    1.4772 H   0  0  0  0  0  0  0  0  0  0  0  0
   -0.9058   -2.7175   -2.7853 H   0  0  0  0  0  0  0  0  0  0  0  0
   -1.9958   -1.1574   -0.2747 H   0  0  0  0  0  0  0  0  0  0  0  0
  1  8  1  0  0  0  0
  1  4  1  0  0  0  0
  2  3  1  0  0  0  0
  2 10  1  0  0  0  0
  2  9  1  0  0  0  0
  3 11  1  6  0  0  0
  3  1  1  0  0  0  0
  4 12  1  0  0  0  0
  5  2  1  0  0  0  0
  6  3  1  0  0  0  0
  6 14  1  0  0  0  0
  7  1  1  0  0  0  0
 13  5  1  0  0  0  0
M  END
>  <HBA>
3

>  <HBD>
3

>  <TPSA>
97.83

>  <cid>
3080

>  <dipole>
1.71

>  <excitation_energy_1>
5.247

>  <excitation_energy_2>
5.563

>  <excitation_energy_3>
5.764

>  <excitation_energy_4>
5.872

>  <homo_energy>
-6.474

>  <homo_lumo_gap>
6.746

>  <logP>
0.207

>  <lumo_energy>
0.272

>  <melting_point>
34.57

>  <molecular_refractivity>
33.55

>  <oscillator_strength_1>
0.004

>  <oscillator_strength_2>
0.0239

>  <oscillator_strength_3>
0.0073

>  <oscillator_strength_4>
0.0078

>  <open_babel_can_smiles>
OC[C@@H](CS)S

>  <mulliken_charges>
14
1   -0.032544
2   -0.405705
3   -0.251576
4   -0.610141
5   -0.080461
6   -0.100955
7   0.146752
8   0.155057
9   0.1936
10   0.1832
11   0.18913
12   0.397242
13   0.114923
14   0.101479

>  <lowdin_charges>
14
1   -0.136861
2   -0.377435
3   -0.241314
4   -0.462522
5   -0.083397
6   -0.089966
7   0.140129
8   0.14964
9   0.169216
10   0.171145
11   0.175985
12   0.345558
13   0.124425
14   0.115398

$$$$

