PCCDB-ID:  13181
public computational chemistry database (PCCDB) project, http://pccdb.org

 16 15  0  0  0  0  0  0  0  0999 V2000
    1.3692   -0.8838    0.5526 C   0  0  0  0  0  0  0  0  0  0  0  0
    2.2160   -0.0514   -0.0540 C   0  0  0  0  0  0  0  0  0  0  0  0
    2.9883    1.0482    0.6230 C   0  0  0  0  0  0  0  0  0  0  0  0
    4.5134    0.8733    0.4942 C   0  0  0  0  0  0  0  0  0  0  0  0
    5.3001    2.0042    1.1598 C   0  0  0  0  0  0  0  0  0  0  0  0
    6.7065    1.8789    0.9839 O   0  0  0  0  0  0  0  0  0  0  0  0
    0.8443   -1.6648    0.0091 H   0  0  0  0  0  0  0  0  0  0  0  0
    1.1645   -0.8132    1.6194 H   0  0  0  0  0  0  0  0  0  0  0  0
    2.3911   -0.1614   -1.1260 H   0  0  0  0  0  0  0  0  0  0  0  0
    2.7060    1.0978    1.6831 H   0  0  0  0  0  0  0  0  0  0  0  0
    2.7089    2.0162    0.1783 H   0  0  0  0  0  0  0  0  0  0  0  0
    4.8016    0.8261   -0.5640 H   0  0  0  0  0  0  0  0  0  0  0  0
    4.8046   -0.0878    0.9430 H   0  0  0  0  0  0  0  0  0  0  0  0
    5.0365    2.0691    2.2292 H   0  0  0  0  0  0  0  0  0  0  0  0
    5.0344    2.9653    0.7054 H   0  0  0  0  0  0  0  0  0  0  0  0
    6.9821    1.0596    1.4237 H   0  0  0  0  0  0  0  0  0  0  0  0
  1  8  1  0  0  0  0
  2  1  2  0  0  0  0
  2  3  1  0  0  0  0
  3 10  1  0  0  0  0
  4  3  1  0  0  0  0
  4 13  1  0  0  0  0
  4  5  1  0  0  0  0
  5 14  1  0  0  0  0
  6  5  1  0  0  0  0
  6 16  1  0  0  0  0
  7  1  1  0  0  0  0
  9  2  1  0  0  0  0
 11  3  1  0  0  0  0
 12  4  1  0  0  0  0
 15  5  1  0  0  0  0
M  END
>  <HBA>
1

>  <HBD>
1

>  <TPSA>
20.23

>  <cid>
13181

>  <dipole>
1.39

>  <excitation_energy_1>
6.379

>  <excitation_energy_2>
6.57

>  <excitation_energy_3>
6.792

>  <excitation_energy_4>
6.845

>  <homo_energy>
-6.822

>  <homo_lumo_gap>
7.423

>  <logP>
0.945

>  <lumo_energy>
0.601

>  <melting_point>
-27.88

>  <molecular_refractivity>
26.84

>  <oscillator_strength_1>
0.0139

>  <oscillator_strength_2>
0.0356

>  <oscillator_strength_3>
0.1143

>  <oscillator_strength_4>
0.092

>  <open_babel_can_smiles>
OCCCC=C

>  <mulliken_charges>
16
1   -0.341776
2   -0.039497
3   -0.308434
4   -0.278346
5   -0.026708
6   -0.614019
7   0.139068
8   0.133934
9   0.125724
10   0.138019
11   0.144899
12   0.147447
13   0.130015
14   0.11804
15   0.145454
16   0.386181

>  <lowdin_charges>
16
1   -0.343383
2   -0.141379
3   -0.270386
4   -0.291003
5   -0.133041
6   -0.467679
7   0.159425
8   0.151555
9   0.147818
10   0.144277
11   0.149483
12   0.147176
13   0.138938
14   0.122239
15   0.145526
16   0.340434

$$$$

