PCCDB-ID:  23497
public computational chemistry database (PCCDB) project, http://pccdb.org

 28 28  0  0  1  0  0  0  0  0999 V2000
    0.3588    1.0816   -2.7795 C   0  0  0  0  0  0  0  0  0  0  0  0
    3.6319    2.8943   -0.6347 C   0  0  0  0  0  0  0  0  0  0  0  0
    4.5121    3.9513   -0.3868 C   0  0  0  0  0  0  0  0  0  0  0  0
    3.1495    0.4124   -0.8678 C   0  0  0  0  0  0  0  0  0  0  0  0
    5.4240    1.3391   -0.2616 C   0  0  0  0  0  0  0  0  0  0  0  0
    4.0768    1.5730   -0.5785 C   0  0  0  0  0  0  0  0  0  0  0  0
    3.1336   -0.0367   -2.3505 C   0  0  2  0  0  0  0  0  0  0  0  0
    5.8485    3.7139   -0.0768 C   0  0  0  0  0  0  0  0  0  0  0  0
    6.3100    2.3839   -0.0133 C   0  0  0  0  0  0  0  0  0  0  0  0
    2.7753    1.1053   -3.3303 C   0  0  0  0  0  0  0  0  0  0  0  0
    2.3828   -1.2876   -2.4858 N   0  0  0  0  0  0  0  0  0  0  0  0
    6.7555    4.7032    0.1802 O   0  0  0  0  0  0  0  0  0  0  0  0
    7.6265    2.1962    0.3012 O   0  0  0  0  0  0  0  0  0  0  0  0
    3.6065    1.5677   -4.0738 O   0  0  0  0  0  0  0  0  0  0  0  0
    1.5204    1.6503   -3.3801 O   0  0  0  0  0  0  0  0  0  0  0  0
    0.4858    0.8695   -1.7140 H   0  0  0  0  0  0  0  0  0  0  0  0
   -0.4236    1.8356   -2.8904 H   0  0  0  0  0  0  0  0  0  0  0  0
    0.0456    0.1724   -3.3048 H   0  0  0  0  0  0  0  0  0  0  0  0
    2.5961    3.1118   -0.8810 H   0  0  0  0  0  0  0  0  0  0  0  0
    4.1548    4.9785   -0.4367 H   0  0  0  0  0  0  0  0  0  0  0  0
    2.1347    0.6634   -0.5366 H   0  0  0  0  0  0  0  0  0  0  0  0
    3.4492   -0.4725   -0.2947 H   0  0  0  0  0  0  0  0  0  0  0  0
    5.7936    0.3153   -0.2058 H   0  0  0  0  0  0  0  0  0  0  0  0
    4.1676   -0.2611   -2.6284 H   0  0  0  0  0  0  0  0  0  0  0  0
    1.4158   -1.1923   -2.1914 H   0  0  0  0  0  0  0  0  0  0  0  0
    2.3815   -1.6118   -3.4505 H   0  0  0  0  0  0  0  0  0  0  0  0
    6.3116    5.5590    0.0758 H   0  0  0  0  0  0  0  0  0  0  0  0
    7.8127    1.2446    0.2845 H   0  0  0  0  0  0  0  0  0  0  0  0
  1 16  1  0  0  0  0
  2  6  2  0  0  0  0
  2  3  1  0  0  0  0
  3  8  2  0  0  0  0
  4  6  1  0  0  0  0
  4 21  1  0  0  0  0
  4 22  1  0  0  0  0
  5 23  1  0  0  0  0
  5  9  2  0  0  0  0
  6  5  1  0  0  0  0
  7 24  1  6  0  0  0
  7  4  1  0  0  0  0
  8  9  1  0  0  0  0
  8 12  1  0  0  0  0
  9 13  1  0  0  0  0
 10  7  1  0  0  0  0
 11  7  1  0  0  0  0
 11 25  1  0  0  0  0
 14 10  2  0  0  0  0
 15 10  1  0  0  0  0
 15  1  1  0  0  0  0
 17  1  1  0  0  0  0
 18  1  1  0  0  0  0
 19  2  1  0  0  0  0
 20  3  1  0  0  0  0
 26 11  1  0  0  0  0
 27 12  1  0  0  0  0
 28 13  1  0  0  0  0
M  END
>  <HBA>
5

>  <HBD>
3

>  <TPSA>
92.78

>  <cid>
23497

>  <dipole>
4.46

>  <excitation_energy_1>
4.672

>  <excitation_energy_2>
4.83

>  <excitation_energy_3>
4.86

>  <excitation_energy_4>
5.034

>  <homo_energy>
-5.513

>  <homo_lumo_gap>
5.543

>  <logP>
0.841

>  <lumo_energy>
0.03

>  <melting_point>
153.8

>  <molecular_refractivity>
53.87

>  <oscillator_strength_1>
0.016

>  <oscillator_strength_2>
0.0409

>  <oscillator_strength_3>
0.0104

>  <oscillator_strength_4>
0.0077

>  <open_babel_can_smiles>
COC(=O)[C@@H](Cc1ccc(c(c1)O)O)N

>  <mulliken_charges>
28
1   -0.229943
2   -0.188632
3   -0.194454
4   -0.37766
5   -0.258033
6   0.175693
7   -0.061846
8   0.320034
9   0.331251
10   0.591132
11   -0.721329
12   -0.631858
13   -0.633582
14   -0.43812
15   -0.44193
16   0.153153
17   0.179121
18   0.15321
19   0.12372
20   0.120465
21   0.143244
22   0.167916
23   0.114738
24   0.175931
25   0.300671
26   0.312068
27   0.407524
28   0.407515

>  <lowdin_charges>
28
1   -0.283006
2   -0.174858
3   -0.200094
4   -0.27452
5   -0.212675
6   -0.016785
7   -0.09739
8   0.077619
9   0.082978
10   0.181147
11   -0.540338
12   -0.367942
13   -0.367182
14   -0.233696
15   -0.201271
16   0.14253
17   0.167592
18   0.146305
19   0.155118
20   0.154197
21   0.145559
22   0.164302
23   0.15121
24   0.168768
25   0.25416
26   0.263306
27   0.358755
28   0.35621

$$$$

