PCCDB-ID:  6890
public computational chemistry database (PCCDB) project, http://pccdb.org

 27 28  0  0  0  0  0  0  0  0999 V2000
    1.9640   -0.4295    1.5577 C   0  0  0  0  0  0  0  0  0  0  0  0
    3.5007    1.1781    0.6536 C   0  0  0  0  0  0  0  0  0  0  0  0
    8.7586   -0.2979    3.5202 C   0  0  0  0  0  0  0  0  0  0  0  0
    9.7134   -0.6088    2.5301 C   0  0  0  0  0  0  0  0  0  0  0  0
    7.3978   -0.3455    3.2454 C   0  0  0  0  0  0  0  0  0  0  0  0
    9.3250   -0.9720    1.2457 C   0  0  0  0  0  0  0  0  0  0  0  0
    5.9181   -1.2362    0.0315 C   0  0  0  0  0  0  0  0  0  0  0  0
    4.3318   -0.6793    1.9714 C   0  0  0  0  0  0  0  0  0  0  0  0
    5.6800   -0.8527    1.3274 C   0  0  0  0  0  0  0  0  0  0  0  0
    6.9706   -0.7066    1.9548 C   0  0  0  0  0  0  0  0  0  0  0  0
    7.9538   -1.0173    0.9730 C   0  0  0  0  0  0  0  0  0  0  0  0
    7.2801   -1.3387   -0.1871 N   0  0  0  0  0  0  0  0  0  0  0  0
    3.3053   -0.2170    1.0317 N   0  0  0  0  0  0  0  0  0  0  0  0
    1.2245   -0.1247    0.8089 H   0  0  0  0  0  0  0  0  0  0  0  0
    1.7601    0.1412    2.4861 H   0  0  0  0  0  0  0  0  0  0  0  0
    1.8119   -1.4928    1.7733 H   0  0  0  0  0  0  0  0  0  0  0  0
    2.7693    1.4572   -0.1130 H   0  0  0  0  0  0  0  0  0  0  0  0
    4.5035    1.3120    0.2397 H   0  0  0  0  0  0  0  0  0  0  0  0
    3.3847    1.8741    1.5084 H   0  0  0  0  0  0  0  0  0  0  0  0
    9.0966   -0.0186    4.5145 H   0  0  0  0  0  0  0  0  0  0  0  0
   10.7711   -0.5655    2.7752 H   0  0  0  0  0  0  0  0  0  0  0  0
    6.6730   -0.1069    4.0196 H   0  0  0  0  0  0  0  0  0  0  0  0
   10.0608   -1.2128    0.4825 H   0  0  0  0  0  0  0  0  0  0  0  0
    5.2091   -1.4371   -0.7587 H   0  0  0  0  0  0  0  0  0  0  0  0
    4.4216    0.0018    2.8425 H   0  0  0  0  0  0  0  0  0  0  0  0
    3.9884   -1.6406    2.3786 H   0  0  0  0  0  0  0  0  0  0  0  0
    7.7111   -1.5729   -1.0674 H   0  0  0  0  0  0  0  0  0  0  0  0
  1 16  1  0  0  0  0
  1 15  1  0  0  0  0
  2 13  1  0  0  0  0
  2 19  1  0  0  0  0
  3 20  1  0  0  0  0
  4 21  1  0  0  0  0
  4  3  2  0  0  0  0
  5  3  1  0  0  0  0
  5 22  1  0  0  0  0
  6  4  1  0  0  0  0
  7  9  2  0  0  0  0
  8 26  1  0  0  0  0
  8 25  1  0  0  0  0
  9 10  1  0  0  0  0
  9  8  1  0  0  0  0
 10  5  2  0  0  0  0
 11  6  2  0  0  0  0
 11 10  1  0  0  0  0
 12  7  1  0  0  0  0
 12 11  1  0  0  0  0
 13  1  1  0  0  0  0
 13  8  1  0  0  0  0
 14  1  1  0  0  0  0
 17  2  1  0  0  0  0
 18  2  1  0  0  0  0
 23  6  1  0  0  0  0
 24  7  1  0  0  0  0
 27 12  1  0  0  0  0
M  END
>  <HBA>
1

>  <HBD>
1

>  <TPSA>
19.03

>  <cid>
6890

>  <dipole>
1.66

>  <excitation_energy_1>
4.533

>  <excitation_energy_2>
4.699

>  <excitation_energy_3>
4.814

>  <excitation_energy_4>
4.833

>  <homo_energy>
-5.246

>  <homo_lumo_gap>
5.2

>  <logP>
2.229

>  <lumo_energy>
-0.046

>  <melting_point>
101.07

>  <molecular_refractivity>
55.77

>  <oscillator_strength_1>
0.0623

>  <oscillator_strength_2>
0.0005

>  <oscillator_strength_3>
0.0232

>  <oscillator_strength_4>
0.0022

>  <open_babel_can_smiles>
CN(Cc1c[nH]c2c1cccc2)C

>  <mulliken_charges>
27
1   -0.291395
2   -0.301331
3   -0.140581
4   -0.152004
5   -0.209846
6   -0.163257
7   0.011047
8   -0.191755
9   0.053892
10   0.075454
11   0.314155
12   -0.693202
13   -0.370595
14   0.146607
15   0.116674
16   0.147875
17   0.143571
18   0.160913
19   0.116079
20   0.118233
21   0.120535
22   0.122283
23   0.118543
24   0.158296
25   0.116923
26   0.147754
27   0.325131

>  <lowdin_charges>
27
1   -0.356017
2   -0.361647
3   -0.176521
4   -0.164362
5   -0.16667
6   -0.189843
7   -0.129435
8   -0.189998
9   -0.072854
10   -0.035129
11   0.031116
12   -0.20055
13   -0.183052
14   0.150056
15   0.119933
16   0.147212
17   0.148082
18   0.156057
19   0.120354
20   0.153001
21   0.153081
22   0.155543
23   0.155128
24   0.171887
25   0.123433
26   0.151008
27   0.290189

$$$$

