PCCDB-ID:  69682
public computational chemistry database (PCCDB) project, http://pccdb.org

 16 16  0  0  1  0  0  0  0  0999 V2000
    0.9998   -0.0943    0.0827 C   0  0  0  0  0  0  0  0  0  0  0  0
    6.6619   -0.0542    0.2359 C   0  0  0  0  0  0  0  0  0  0  0  0
    4.5323    1.0757    0.2901 C   0  0  0  0  0  0  0  0  0  0  0  0
    2.5007   -0.1754    0.1143 C   0  0  1  0  0  0  0  0  0  0  0  0
    5.2386   -0.0813    0.1953 C   0  0  0  0  0  0  0  0  0  0  0  0
    4.5190   -1.3810    0.0503 C   0  0  0  0  0  0  0  0  0  0  0  0
    7.8260   -0.0763    0.2648 N   0  0  0  0  0  0  0  0  0  0  0  0
    5.0514   -2.5403   -0.0486 N   0  0  0  0  0  0  0  0  0  0  0  0
    3.1661    1.0443    0.2515 N   0  0  0  0  0  0  0  0  0  0  0  0
    3.1085   -1.3011    0.0211 N   0  0  0  0  0  0  0  0  0  0  0  0
    0.6556    0.5228   -0.7568 H   0  0  0  0  0  0  0  0  0  0  0  0
    0.6088    0.3479    1.0077 H   0  0  0  0  0  0  0  0  0  0  0  0
    0.5972   -1.1010   -0.0280 H   0  0  0  0  0  0  0  0  0  0  0  0
    4.9988    2.0484    0.3984 H   0  0  0  0  0  0  0  0  0  0  0  0
    6.0727   -2.4680   -0.0154 H   0  0  0  0  0  0  0  0  0  0  0  0
    2.6385    1.9028    0.3219 H   0  0  0  0  0  0  0  0  0  0  0  0
  1 12  1  0  0  0  0
  2  7  3  0  0  0  0
  3 14  1  0  0  0  0
  4  1  1  1  0  0  0
  4  9  1  0  0  0  0
  5  2  1  0  0  0  0
  5  3  2  0  0  0  0
  6  5  1  0  0  0  0
  8 15  1  0  0  0  0
  8  6  1  0  0  0  0
  9  3  1  0  0  0  0
  9 16  1  0  0  0  0
 10  6  2  0  0  0  0
 10  4  1  0  0  0  0
 11  1  1  0  0  0  0
 13  1  1  0  0  0  0
M  RAD  2   4   2   8   2
M  END
>  <HBA>
4

>  <HBD>
1

>  <TPSA>
75.59

>  <cid>
69682

>  <dipole>
8.31

>  <excitation_energy_1>
3.883

>  <excitation_energy_2>
4.279

>  <excitation_energy_3>
4.887

>  <excitation_energy_4>
4.907

>  <homo_energy>
-6.316

>  <homo_lumo_gap>
4.645

>  <logP>
0.82

>  <lumo_energy>
-1.671

>  <melting_point>
127.06

>  <molecular_refractivity>
36.12

>  <oscillator_strength_1>
0.0459

>  <oscillator_strength_2>
0.0008

>  <oscillator_strength_3>
0.0003

>  <oscillator_strength_4>
0.0002

>  <open_babel_can_smiles>
C[C]1NC=C(C(=N1)[NH])C#N

>  <mulliken_charges>
16
1   -0.535619
2   0.218925
3   0.082656
4   0.516075
5   0.083457
6   0.401417
7   -0.478054
8   -0.601922
9   -0.626649
10   -0.461161
11   0.174115
12   0.174249
13   0.213758
14   0.196055
15   0.293322
16   0.349376

>  <lowdin_charges>
16
1   -0.451842
2   -0.020221
3   -0.050609
4   0.112883
5   -0.087842
6   0.078097
7   -0.115136
8   -0.37091
9   -0.212119
10   -0.159427
11   0.170122
12   0.169774
13   0.192708
14   0.185893
15   0.255874
16   0.302754

$$$$

