PCCDB-ID:  36293
public computational chemistry database (PCCDB) project, http://pccdb.org

 19 18  0  0  0  0  0  0  0  0999 V2000
    4.1033    1.0317    0.5444 C   0  0  0  0  0  0  0  0  0  0  0  0
    2.7924    0.3998    1.0152 C   0  0  0  0  0  0  0  0  0  0  0  0
    2.6031   -2.8560   -1.9424 C   0  0  0  0  0  0  0  0  0  0  0  0
    1.7935   -0.8544   -0.9460 C   0  0  0  0  0  0  0  0  0  0  0  0
    2.2625   -4.0503   -2.2147 N   0  0  0  0  0  0  0  0  0  0  0  0
    1.7548   -1.7519   -1.8492 N   0  0  0  0  0  0  0  0  0  0  0  0
    2.8513   -2.0750    0.7486 N   0  0  0  0  0  0  0  0  0  0  0  0
    2.4737   -0.8360    0.2767 N   0  0  0  0  0  0  0  0  0  0  0  0
    3.9185   -2.5267   -1.8326 O   0  0  0  0  0  0  0  0  0  0  0  0
    1.0625    0.2706   -1.0970 O   0  0  0  0  0  0  0  0  0  0  0  0
    3.4879   -2.0390    1.7788 O   0  0  0  0  0  0  0  0  0  0  0  0
    4.3121    1.9283    1.1379 H   0  0  0  0  0  0  0  0  0  0  0  0
    4.0449    1.3241   -0.5090 H   0  0  0  0  0  0  0  0  0  0  0  0
    4.9367    0.3344    0.6670 H   0  0  0  0  0  0  0  0  0  0  0  0
    1.9502    1.0806    0.8934 H   0  0  0  0  0  0  0  0  0  0  0  0
    2.8598    0.1036    2.0635 H   0  0  0  0  0  0  0  0  0  0  0  0
    1.2477   -4.1198   -2.2878 H   0  0  0  0  0  0  0  0  0  0  0  0
    4.3985   -3.3681   -1.9382 H   0  0  0  0  0  0  0  0  0  0  0  0
    0.6687    0.2026   -1.9862 H   0  0  0  0  0  0  0  0  0  0  0  0
  1 14  1  0  0  0  0
  1  2  1  0  0  0  0
  1 12  1  0  0  0  0
  2 16  1  0  0  0  0
  3  6  2  0  0  0  0
  3  9  1  0  0  0  0
  4  8  1  0  0  0  0
  5  3  1  0  0  0  0
  6  4  2  0  0  0  0
  7 11  1  0  0  0  0
  8  7  1  0  0  0  0
  8  2  1  0  0  0  0
 10  4  1  0  0  0  0
 13  1  1  0  0  0  0
 15  2  1  0  0  0  0
 17  5  1  0  0  0  0
 18  9  1  0  0  0  0
 19 10  1  0  0  0  0
M  RAD  3   5   2   7   2  11   2
M  END
>  <HBA>
7

>  <HBD>
2

>  <TPSA>
104.86

>  <cid>
36293

>  <dipole>
4.13

>  <excitation_energy_1>
3.055

>  <excitation_energy_2>
3.969

>  <excitation_energy_3>
4.454

>  <excitation_energy_4>
5.183

>  <homo_energy>
-6.797

>  <homo_lumo_gap>
4.721

>  <logP>
0.869

>  <lumo_energy>
-2.076

>  <melting_point>
141.33

>  <molecular_refractivity>
35.66

>  <oscillator_strength_1>
0.0009

>  <oscillator_strength_2>
0.0239

>  <oscillator_strength_3>
0.0265

>  <oscillator_strength_4>
0.0631

>  <open_babel_can_smiles>
CCN(C(=[N]=C(O)[NH])O)[N][O]

>  <mulliken_charges>
19
1   -0.444822
2   -0.162158
3   0.606845
4   0.731999
5   -0.62568
6   -0.514724
7   0.209003
8   -0.31952
9   -0.588534
10   -0.590609
11   -0.331034
12   0.159661
13   0.163127
14   0.177793
15   0.192618
16   0.190834
17   0.293752
18   0.419561
19   0.431889

>  <lowdin_charges>
19
1   -0.445359
2   -0.211114
3   0.156765
4   0.195443
5   -0.435295
6   -0.233258
7   0.096825
8   -0.037687
9   -0.379841
10   -0.344809
11   -0.200801
12   0.16236
13   0.157178
14   0.166905
15   0.174856
16   0.172347
17   0.263117
18   0.36769
19   0.374678

$$$$

