PCCDB-ID:  13612
public computational chemistry database (PCCDB) project, http://pccdb.org

 21 21  0  0  0  0  0  0  0  0999 V2000
    2.3062    1.2459   -1.1210 C   0  0  0  0  0  0  0  0  0  0  0  0
    4.7409    1.2055    3.6240 C   0  0  0  0  0  0  0  0  0  0  0  0
    3.6779    2.1504    3.0439 C   0  0  0  0  0  0  0  0  0  0  0  0
    4.3785   -0.2558    3.3315 C   0  0  0  0  0  0  0  0  0  0  0  0
    3.2410    1.7511    1.6593 C   0  0  0  0  0  0  0  0  0  0  0  0
    4.3009   -0.5124    1.8204 C   0  0  0  0  0  0  0  0  0  0  0  0
    3.0962    0.2327   -0.3018 C   0  0  0  0  0  0  0  0  0  0  0  0
    3.5225    0.5634    1.0909 C   0  0  0  0  0  0  0  0  0  0  0  0
    3.3872   -0.8537   -0.7845 O   0  0  0  0  0  0  0  0  0  0  0  0
    2.8689    2.1770   -1.2551 H   0  0  0  0  0  0  0  0  0  0  0  0
    1.3590    1.5021   -0.6321 H   0  0  0  0  0  0  0  0  0  0  0  0
    2.0984    0.8083   -2.0989 H   0  0  0  0  0  0  0  0  0  0  0  0
    4.8457    1.3755    4.7022 H   0  0  0  0  0  0  0  0  0  0  0  0
    5.7155    1.4337    3.1708 H   0  0  0  0  0  0  0  0  0  0  0  0
    4.0457    3.1858    3.0251 H   0  0  0  0  0  0  0  0  0  0  0  0
    2.7911    2.1709    3.6981 H   0  0  0  0  0  0  0  0  0  0  0  0
    3.4066   -0.4841    3.7919 H   0  0  0  0  0  0  0  0  0  0  0  0
    5.1089   -0.9339    3.7887 H   0  0  0  0  0  0  0  0  0  0  0  0
    2.6610    2.4892    1.1085 H   0  0  0  0  0  0  0  0  0  0  0  0
    3.8450   -1.4855    1.6092 H   0  0  0  0  0  0  0  0  0  0  0  0
    5.3124   -0.5725    1.3925 H   0  0  0  0  0  0  0  0  0  0  0  0
  1 11  1  0  0  0  0
  1  7  1  0  0  0  0
  2 13  1  0  0  0  0
  3  2  1  0  0  0  0
  3 16  1  0  0  0  0
  4  2  1  0  0  0  0
  4 18  1  0  0  0  0
  4 17  1  0  0  0  0
  5  3  1  0  0  0  0
  6  4  1  0  0  0  0
  7  8  1  0  0  0  0
  8  5  2  0  0  0  0
  8  6  1  0  0  0  0
  9  7  2  0  0  0  0
 10  1  1  0  0  0  0
 12  1  1  0  0  0  0
 14  2  1  0  0  0  0
 15  3  1  0  0  0  0
 19  5  1  0  0  0  0
 20  6  1  0  0  0  0
 21  6  1  0  0  0  0
M  END
>  <HBA>
1

>  <HBD>
0

>  <TPSA>
17.07

>  <cid>
13612

>  <dipole>
3.26

>  <excitation_energy_1>
3.757

>  <excitation_energy_2>
5.398

>  <excitation_energy_3>
6.056

>  <excitation_energy_4>
6.191

>  <homo_energy>
-6.514

>  <homo_lumo_gap>
5.339

>  <logP>
2.076

>  <lumo_energy>
-1.176

>  <melting_point>
29.29

>  <molecular_refractivity>
38.18

>  <oscillator_strength_1>
0.0003

>  <oscillator_strength_2>
0.2826

>  <oscillator_strength_3>
0.0158

>  <oscillator_strength_4>
0.0013

>  <open_babel_can_smiles>
CC(=O)C1=CCCCC1

>  <mulliken_charges>
21
1   -0.541838
2   -0.264067
3   -0.302178
4   -0.27086
5   -0.16788
6   -0.318836
7   0.411522
8   0.096315
9   -0.45634
10   0.167033
11   0.166755
12   0.178776
13   0.135085
14   0.139739
15   0.149032
16   0.154678
17   0.13574
18   0.136097
19   0.131946
20   0.165692
21   0.153589

>  <lowdin_charges>
21
1   -0.476395
2   -0.274204
3   -0.276436
4   -0.277159
5   -0.146382
6   -0.274336
7   0.156073
8   -0.05679
9   -0.246981
10   0.167567
11   0.167361
12   0.173261
13   0.144507
14   0.143244
15   0.153677
16   0.155784
17   0.141014
18   0.148393
19   0.158459
20   0.164748
21   0.154595

$$$$

