PCCDB-ID:  8355
public computational chemistry database (PCCDB) project, http://pccdb.org

 23 24  0  0  0  0  0  0  0  0999 V2000
    2.4255    0.7652   -0.0799 C   0  0  0  0  0  0  0  0  0  0  0  0
    2.4344   -0.6491   -0.0411 C   0  0  0  0  0  0  0  0  0  0  0  0
   -2.4342    0.7519    0.0477 C   0  0  0  0  0  0  0  0  0  0  0  0
    1.2288    1.4442   -0.0744 C   0  0  0  0  0  0  0  0  0  0  0  0
   -1.2473    1.4411   -0.0120 C   0  0  0  0  0  0  0  0  0  0  0  0
   -2.4283   -0.6619    0.1099 C   0  0  0  0  0  0  0  0  0  0  0  0
    1.2540   -1.3578    0.0065 C   0  0  0  0  0  0  0  0  0  0  0  0
   -1.3136   -2.8974    0.2060 C   0  0  0  0  0  0  0  0  0  0  0  0
   -0.0077    0.7460   -0.0215 C   0  0  0  0  0  0  0  0  0  0  0  0
   -1.2526   -1.3866    0.1057 C   0  0  0  0  0  0  0  0  0  0  0  0
   -0.0014   -0.6884    0.0263 C   0  0  0  0  0  0  0  0  0  0  0  0
   -0.7776   -3.5526   -0.9994 N   0  0  0  0  0  0  0  0  0  0  0  0
    3.3642    1.3113   -0.1207 H   0  0  0  0  0  0  0  0  0  0  0  0
    3.3825   -1.1804   -0.0573 H   0  0  0  0  0  0  0  0  0  0  0  0
   -3.3809    1.2854    0.0556 H   0  0  0  0  0  0  0  0  0  0  0  0
    1.2108    2.5312   -0.1097 H   0  0  0  0  0  0  0  0  0  0  0  0
   -1.2382    2.5279   -0.0520 H   0  0  0  0  0  0  0  0  0  0  0  0
   -3.3765   -1.1916    0.1722 H   0  0  0  0  0  0  0  0  0  0  0  0
    1.2677   -2.4412   -0.0108 H   0  0  0  0  0  0  0  0  0  0  0  0
   -2.3542   -3.1812    0.4381 H   0  0  0  0  0  0  0  0  0  0  0  0
   -0.7047   -3.2369    1.0551 H   0  0  0  0  0  0  0  0  0  0  0  0
   -1.3101   -3.2468   -1.8129 H   0  0  0  0  0  0  0  0  0  0  0  0
   -0.9139   -4.5602   -0.9265 H   0  0  0  0  0  0  0  0  0  0  0  0
  1  4  2  0  0  0  0
  1  2  1  0  0  0  0
  2  7  2  0  0  0  0
  3 15  1  0  0  0  0
  3  6  2  0  0  0  0
  4  9  1  0  0  0  0
  5  3  1  0  0  0  0
  6 18  1  0  0  0  0
  7 11  1  0  0  0  0
  8 20  1  0  0  0  0
  8 21  1  0  0  0  0
  9  5  2  0  0  0  0
  9 11  1  0  0  0  0
 10  6  1  0  0  0  0
 10  8  1  0  0  0  0
 11 10  2  0  0  0  0
 12 23  1  0  0  0  0
 12  8  1  0  0  0  0
 13  1  1  0  0  0  0
 14  2  1  0  0  0  0
 16  4  1  0  0  0  0
 17  5  1  0  0  0  0
 19  7  1  0  0  0  0
 22 12  1  0  0  0  0
M  END
>  <HBA>
1

>  <HBD>
1

>  <TPSA>
26.02

>  <cid>
8355

>  <dipole>
1.44

>  <excitation_energy_1>
4.276

>  <excitation_energy_2>
4.402

>  <excitation_energy_3>
4.753

>  <excitation_energy_4>
5.249

>  <homo_energy>
-5.638

>  <homo_lumo_gap>
4.762

>  <logP>
2.999

>  <lumo_energy>
-0.876

>  <melting_point>
106.74

>  <molecular_refractivity>
51.62

>  <oscillator_strength_1>
0.0879

>  <oscillator_strength_2>
0.0005

>  <oscillator_strength_3>
0.0079

>  <oscillator_strength_4>
0.0165

>  <open_babel_can_smiles>
NCc1cccc2c1cccc2

>  <mulliken_charges>
23
1   -0.131044
2   -0.139255
3   -0.130297
4   -0.197165
5   -0.191303
6   -0.206871
7   -0.178967
8   -0.231903
9   0.13918
10   0.120744
11   0.06945
12   -0.706836
13   0.126571
14   0.126634
15   0.127051
16   0.126125
17   0.127261
18   0.120074
19   0.158904
20   0.124753
21   0.15111
22   0.298962
23   0.296824

>  <lowdin_charges>
23
1   -0.159271
2   -0.160097
3   -0.162989
4   -0.1573
5   -0.153708
6   -0.172204
7   -0.150873
8   -0.202581
9   -0.000309
10   -0.01157
11   -0.00319
12   -0.55495
13   0.157081
14   0.156944
15   0.157473
16   0.153518
17   0.154388
18   0.153214
19   0.171678
20   0.125831
21   0.149372
22   0.256812
23   0.252731

$$$$

