PCCDB-ID:  61138
public computational chemistry database (PCCDB) project, http://pccdb.org

 15 14  0  0  0  0  0  0  0  0999 V2000
    1.5456   -1.1427   -0.8661 C   0  0  0  0  0  0  0  0  0  0  0  0
    2.3248   -0.4541   -0.0317 C   0  0  0  0  0  0  0  0  0  0  0  0
    3.1503    0.7447   -0.4115 C   0  0  0  0  0  0  0  0  0  0  0  0
    4.6533    0.5049   -0.2049 C   0  0  0  0  0  0  0  0  0  0  0  0
    5.4948    1.7385   -0.5131 C   0  0  0  0  0  0  0  0  0  0  0  0
    5.0507    2.8148   -0.8213 O   0  0  0  0  0  0  0  0  0  0  0  0
    6.8430    1.5614   -0.4137 O   0  0  0  0  0  0  0  0  0  0  0  0
    0.9681   -2.0013   -0.5342 H   0  0  0  0  0  0  0  0  0  0  0  0
    1.4482   -0.8675   -1.9146 H   0  0  0  0  0  0  0  0  0  0  0  0
    2.3888   -0.7667    1.0126 H   0  0  0  0  0  0  0  0  0  0  0  0
    2.8579    1.6153    0.1898 H   0  0  0  0  0  0  0  0  0  0  0  0
    2.9685    1.0182   -1.4563 H   0  0  0  0  0  0  0  0  0  0  0  0
    4.9955   -0.3275   -0.8362 H   0  0  0  0  0  0  0  0  0  0  0  0
    4.8569    0.2015    0.8331 H   0  0  0  0  0  0  0  0  0  0  0  0
    7.0403    0.6437   -0.1624 H   0  0  0  0  0  0  0  0  0  0  0  0
  1  8  1  0  0  0  0
  1  2  2  0  0  0  0
  2 10  1  0  0  0  0
  3  4  1  0  0  0  0
  3  2  1  0  0  0  0
  3 11  1  0  0  0  0
  4 14  1  0  0  0  0
  5  7  1  0  0  0  0
  5  4  1  0  0  0  0
  6  5  2  0  0  0  0
  7 15  1  0  0  0  0
  9  1  1  0  0  0  0
 12  3  1  0  0  0  0
 13  4  1  0  0  0  0
M  END
>  <HBA>
2

>  <HBD>
1

>  <TPSA>
37.3

>  <cid>
61138

>  <dipole>
4.02

>  <excitation_energy_1>
5.724

>  <excitation_energy_2>
6.203

>  <excitation_energy_3>
6.496

>  <excitation_energy_4>
6.575

>  <homo_energy>
-7.07

>  <homo_lumo_gap>
7.304

>  <logP>
1.037

>  <lumo_energy>
0.234

>  <melting_point>
30.66

>  <molecular_refractivity>
27.45

>  <oscillator_strength_1>
0.0002

>  <oscillator_strength_2>
0.0444

>  <oscillator_strength_3>
0.0045

>  <oscillator_strength_4>
0.0077

>  <open_babel_can_smiles>
C=CCCC(=O)O

>  <mulliken_charges>
15
1   -0.338549
2   -0.051317
3   -0.295419
4   -0.406802
5   0.609221
6   -0.435149
7   -0.56794
8   0.142074
9   0.140108
10   0.124786
11   0.170979
12   0.161438
13   0.170434
14   0.167664
15   0.408472

>  <lowdin_charges>
15
1   -0.336677
2   -0.147901
3   -0.264211
4   -0.322409
5   0.196422
6   -0.234754
7   -0.359672
8   0.160237
9   0.154846
10   0.147109
11   0.165649
12   0.158672
13   0.164385
14   0.161944
15   0.35636

$$$$

