PCCDB-ID:  49385
public computational chemistry database (PCCDB) project, http://pccdb.org

 26 26  0  0  0  0  0  0  0  0999 V2000
    0.2407    0.6957    0.1641 C   0  0  0  0  0  0  0  0  0  0  0  0
    1.6747    4.6545   -5.1833 C   0  0  0  0  0  0  0  0  0  0  0  0
    1.1652    3.3406   -5.7991 C   0  0  0  0  0  0  0  0  0  0  0  0
    2.2317    1.3893   -1.9178 C   0  0  0  0  0  0  0  0  0  0  0  0
    2.1469    4.2438   -3.7714 C   0  0  0  0  0  0  0  0  0  0  0  0
    3.1780    2.0423   -2.9323 C   0  0  0  0  0  0  0  0  0  0  0  0
    0.6695    2.0787   -0.2796 C   0  0  0  0  0  0  0  0  0  0  0  0
    1.9224    2.2493   -5.0382 C   0  0  0  0  0  0  0  0  0  0  0  0
    1.5145    2.4072   -1.1617 N   0  0  0  0  0  0  0  0  0  0  0  0
    2.4953    2.8339   -3.9402 N   0  0  0  0  0  0  0  0  0  0  0  0
    0.0436    3.1048    0.3787 O   0  0  0  0  0  0  0  0  0  0  0  0
    1.9954    1.0612   -5.3265 O   0  0  0  0  0  0  0  0  0  0  0  0
    0.7518   -0.0888   -0.3954 H   0  0  0  0  0  0  0  0  0  0  0  0
   -0.8398    0.5670    0.0216 H   0  0  0  0  0  0  0  0  0  0  0  0
    0.4562    0.5516    1.2307 H   0  0  0  0  0  0  0  0  0  0  0  0
    0.9182    5.4435   -5.1496 H   0  0  0  0  0  0  0  0  0  0  0  0
    2.5252    5.0316   -5.7621 H   0  0  0  0  0  0  0  0  0  0  0  0
    1.3341    3.2472   -6.8751 H   0  0  0  0  0  0  0  0  0  0  0  0
    0.0917    3.1905   -5.6240 H   0  0  0  0  0  0  0  0  0  0  0  0
    2.8359    0.7459   -1.2580 H   0  0  0  0  0  0  0  0  0  0  0  0
    1.5471    0.7319   -2.4724 H   0  0  0  0  0  0  0  0  0  0  0  0
    1.3643    4.3598   -3.0123 H   0  0  0  0  0  0  0  0  0  0  0  0
    3.0201    4.8148   -3.4340 H   0  0  0  0  0  0  0  0  0  0  0  0
    3.7313    1.2549   -3.4543 H   0  0  0  0  0  0  0  0  0  0  0  0
    3.8925    2.6888   -2.4113 H   0  0  0  0  0  0  0  0  0  0  0  0
   -0.5751    2.7364    1.0277 H   0  0  0  0  0  0  0  0  0  0  0  0
  1 15  1  0  0  0  0
  2 16  1  0  0  0  0
  2  5  1  0  0  0  0
  3 19  1  0  0  0  0
  3  2  1  0  0  0  0
  3  8  1  0  0  0  0
  4 20  1  0  0  0  0
  4  9  1  0  0  0  0
  5 23  1  0  0  0  0
  5 22  1  0  0  0  0
  6 25  1  0  0  0  0
  6  4  1  0  0  0  0
  7  1  1  0  0  0  0
  7 11  1  0  0  0  0
  8 10  1  0  0  0  0
  9  7  2  0  0  0  0
 10  5  1  0  0  0  0
 10  6  1  0  0  0  0
 11 26  1  0  0  0  0
 12  8  2  0  0  0  0
 13  1  1  0  0  0  0
 14  1  1  0  0  0  0
 17  2  1  0  0  0  0
 18  3  1  0  0  0  0
 21  4  1  0  0  0  0
 24  6  1  0  0  0  0
M  END
>  <HBA>
4

>  <HBD>
1

>  <TPSA>
49.41

>  <cid>
49385

>  <dipole>
3.97

>  <excitation_energy_1>
5.331

>  <excitation_energy_2>
5.382

>  <excitation_energy_3>
5.581

>  <excitation_energy_4>
5.778

>  <homo_energy>
-5.954

>  <homo_lumo_gap>
6.354

>  <logP>
0.074

>  <lumo_energy>
0.4

>  <melting_point>
67.28

>  <molecular_refractivity>
48.47

>  <oscillator_strength_1>
0.0037

>  <oscillator_strength_2>
0.0011

>  <oscillator_strength_3>
0.0022

>  <oscillator_strength_4>
0.0104

>  <open_babel_can_smiles>
C/C(=N\CCN1CCCC1=O)/O

>  <mulliken_charges>
26
1   -0.565273
2   -0.299392
3   -0.369166
4   -0.152944
5   -0.11361
6   -0.142014
7   0.50197
8   0.587616
9   -0.419387
10   -0.41255
11   -0.58096
12   -0.537913
13   0.189352
14   0.176285
15   0.17521
16   0.146392
17   0.152049
18   0.167727
19   0.16586
20   0.132147
21   0.164396
22   0.176027
23   0.142207
24   0.165931
25   0.145366
26   0.404674

>  <lowdin_charges>
26
1   -0.482233
2   -0.284632
3   -0.302513
4   -0.213969
5   -0.194779
6   -0.201381
7   0.130445
8   0.145235
9   -0.214071
10   -0.102037
11   -0.371129
12   -0.322463
13   0.178605
14   0.168805
15   0.16841
16   0.152543
17   0.151322
18   0.164242
19   0.162499
20   0.140453
21   0.153204
22   0.154677
23   0.14567
24   0.165245
25   0.152391
26   0.35546

$$$$

