PCCDB-ID:  15439
public computational chemistry database (PCCDB) project, http://pccdb.org

 28 27  0  0  0  0  0  0  0  0999 V2000
    1.2974   -1.1049   -0.7815 C   0  0  0  0  0  0  0  0  0  0  0  0
    9.5090    3.1465    2.5168 C   0  0  0  0  0  0  0  0  0  0  0  0
    2.2947   -0.7969    0.0483 C   0  0  0  0  0  0  0  0  0  0  0  0
    8.3609    2.8095    1.9272 C   0  0  0  0  0  0  0  0  0  0  0  0
    3.0625    0.4972    0.0453 C   0  0  0  0  0  0  0  0  0  0  0  0
    7.7428    3.5376    0.7632 C   0  0  0  0  0  0  0  0  0  0  0  0
    4.5648    0.3028   -0.2355 C   0  0  0  0  0  0  0  0  0  0  0  0
    7.6833    2.7092   -0.5413 C   0  0  0  0  0  0  0  0  0  0  0  0
    5.3642    1.6116   -0.1944 C   0  0  0  0  0  0  0  0  0  0  0  0
    6.8595    1.4115   -0.4792 C   0  0  0  0  0  0  0  0  0  0  0  0
    0.7864   -2.0630   -0.7344 H   0  0  0  0  0  0  0  0  0  0  0  0
    0.9497   -0.4061   -1.5402 H   0  0  0  0  0  0  0  0  0  0  0  0
    9.9144    2.5809    3.3518 H   0  0  0  0  0  0  0  0  0  0  0  0
   10.0883    4.0071    2.1868 H   0  0  0  0  0  0  0  0  0  0  0  0
    2.6096   -1.5318    0.7921 H   0  0  0  0  0  0  0  0  0  0  0  0
    7.8161    1.9413    2.3005 H   0  0  0  0  0  0  0  0  0  0  0  0
    2.9504    0.9900    1.0238 H   0  0  0  0  0  0  0  0  0  0  0  0
    2.6323    1.1804   -0.6991 H   0  0  0  0  0  0  0  0  0  0  0  0
    8.3143    4.4540    0.5678 H   0  0  0  0  0  0  0  0  0  0  0  0
    6.7265    3.8599    1.0328 H   0  0  0  0  0  0  0  0  0  0  0  0
    4.6849   -0.1734   -1.2184 H   0  0  0  0  0  0  0  0  0  0  0  0
    4.9821   -0.4026    0.4981 H   0  0  0  0  0  0  0  0  0  0  0  0
    8.7108    2.4616   -0.8385 H   0  0  0  0  0  0  0  0  0  0  0  0
    7.2759    3.3505   -1.3360 H   0  0  0  0  0  0  0  0  0  0  0  0
    5.2273    2.0829    0.7893 H   0  0  0  0  0  0  0  0  0  0  0  0
    4.9466    2.3159   -0.9296 H   0  0  0  0  0  0  0  0  0  0  0  0
    7.2862    0.7351    0.2745 H   0  0  0  0  0  0  0  0  0  0  0  0
    6.9674    0.8915   -1.4415 H   0  0  0  0  0  0  0  0  0  0  0  0
  1 11  1  0  0  0  0
  1  3  2  0  0  0  0
  2 13  1  0  0  0  0
  3 15  1  0  0  0  0
  4 16  1  0  0  0  0
  4  2  2  0  0  0  0
  5  3  1  0  0  0  0
  5 17  1  0  0  0  0
  6 20  1  0  0  0  0
  6  4  1  0  0  0  0
  7  9  1  0  0  0  0
  7  5  1  0  0  0  0
  7 22  1  0  0  0  0
  8 10  1  0  0  0  0
  8  6  1  0  0  0  0
  9 25  1  0  0  0  0
 10  9  1  0  0  0  0
 10 27  1  0  0  0  0
 12  1  1  0  0  0  0
 14  2  1  0  0  0  0
 18  5  1  0  0  0  0
 19  6  1  0  0  0  0
 21  7  1  0  0  0  0
 23  8  1  0  0  0  0
 24  8  1  0  0  0  0
 26  9  1  0  0  0  0
 28 10  1  0  0  0  0
M  END
>  <HBA>
0

>  <HBD>
0

>  <TPSA>
0.0

>  <cid>
15439

>  <dipole>
0.2

>  <excitation_energy_1>
6.425

>  <excitation_energy_2>
6.464

>  <excitation_energy_3>
6.623

>  <excitation_energy_4>
6.662

>  <homo_energy>
-6.778

>  <homo_lumo_gap>
7.418

>  <logP>
3.699

>  <lumo_energy>
0.639

>  <melting_point>
-70.42

>  <molecular_refractivity>
49.24

>  <oscillator_strength_1>
0.0442

>  <oscillator_strength_2>
0.0337

>  <oscillator_strength_3>
0.0025

>  <oscillator_strength_4>
0.0675

>  <open_babel_can_smiles>
C=CCCCCCCC=C

>  <mulliken_charges>
28
1   -0.34173
2   -0.341828
3   -0.040949
4   -0.04082
5   -0.301075
6   -0.308175
7   -0.254453
8   -0.254753
9   -0.255378
10   -0.258715
11   0.136719
12   0.133058
13   0.136621
14   0.133448
15   0.122019
16   0.124968
17   0.139125
18   0.135963
19   0.136471
20   0.143685
21   0.138087
22   0.129055
23   0.136504
24   0.128698
25   0.131024
26   0.128395
27   0.132898
28   0.13114

>  <lowdin_charges>
28
1   -0.346237
2   -0.344835
3   -0.144657
4   -0.147102
5   -0.27258
6   -0.275816
7   -0.273167
8   -0.273815
9   -0.278359
10   -0.279496
11   0.15688
12   0.153773
13   0.157524
14   0.153243
15   0.148723
16   0.148946
17   0.146549
18   0.146251
19   0.14836
20   0.147178
21   0.142574
22   0.139845
23   0.144204
24   0.14151
25   0.137676
26   0.139362
27   0.140854
28   0.142613

$$$$

