PCCDB-ID:  7214
public computational chemistry database (PCCDB) project, http://pccdb.org

 23 22  0  0  1  0  0  0  0  0999 V2000
    0.5316    0.5766   -0.0629 C   0  0  0  0  0  0  0  0  0  0  0  0
    3.3472   -0.1680   -3.0966 C   0  0  0  0  0  0  0  0  0  0  0  0
    2.0132    0.5811    0.1631 C   0  0  0  0  0  0  0  0  0  0  0  0
    2.7967    0.9783   -2.2299 C   0  0  0  0  0  0  0  0  0  0  0  0
    2.9922    0.7414   -0.7461 C   0  0  0  0  0  0  0  0  0  0  0  0
    4.4020    0.7190   -0.2663 C   0  0  2  0  0  0  0  0  0  0  0  0
    4.3550   -1.0276    1.3271 C   0  0  0  0  0  0  0  0  0  0  0  0
    4.1979   -1.1497    2.5883 N   0  0  0  0  0  0  0  0  0  0  0  0
    4.9623    0.0298    0.6576 N   0  0  0  0  0  0  0  0  0  0  0  0
    5.1779    1.6125   -0.9252 O   0  0  0  0  0  0  0  0  0  0  0  0
    4.0045   -2.0504    0.5035 O   0  0  0  0  0  0  0  0  0  0  0  0
    0.1053   -0.3774    0.2754 H   0  0  0  0  0  0  0  0  0  0  0  0
    0.2456    0.7229   -1.1067 H   0  0  0  0  0  0  0  0  0  0  0  0
    0.0501    1.3604    0.5367 H   0  0  0  0  0  0  0  0  0  0  0  0
    3.1807    0.0402   -4.1594 H   0  0  0  0  0  0  0  0  0  0  0  0
    2.8589   -1.1172   -2.8515 H   0  0  0  0  0  0  0  0  0  0  0  0
    4.4243   -0.2962   -2.9457 H   0  0  0  0  0  0  0  0  0  0  0  0
    2.3071    0.4353    1.2009 H   0  0  0  0  0  0  0  0  0  0  0  0
    1.7333    1.1178   -2.4436 H   0  0  0  0  0  0  0  0  0  0  0  0
    3.2982    1.9121   -2.5096 H   0  0  0  0  0  0  0  0  0  0  0  0
    4.5400   -0.3145    3.0643 H   0  0  0  0  0  0  0  0  0  0  0  0
    6.0767    1.5035   -0.5606 H   0  0  0  0  0  0  0  0  0  0  0  0
    3.6704   -2.7467    1.0980 H   0  0  0  0  0  0  0  0  0  0  0  0
  1  3  1  0  0  0  0
  1 12  1  0  0  0  0
  1 14  1  0  0  0  0
  2 17  1  0  0  0  0
  2 16  1  0  0  0  0
  2  4  1  0  0  0  0
  3 18  1  0  0  0  0
  4  5  1  0  0  0  0
  5  6  1  0  0  0  0
  5  3  2  0  0  0  0
  6 10  1  1  0  0  0
  6  9  1  0  0  0  0
  7  8  1  0  0  0  0
  8 21  1  0  0  0  0
  9  7  2  0  0  0  0
 10 22  1  0  0  0  0
 11 23  1  0  0  0  0
 11  7  1  0  0  0  0
 13  1  1  0  0  0  0
 15  2  1  0  0  0  0
 19  4  1  0  0  0  0
 20  4  1  0  0  0  0
M  RAD  2   6   2   8   2
M  END
>  <HBA>
4

>  <HBD>
2

>  <TPSA>
72.19

>  <cid>
7214

>  <dipole>
2.27

>  <excitation_energy_1>
4.677

>  <excitation_energy_2>
5.223

>  <excitation_energy_3>
5.594

>  <excitation_energy_4>
5.936

>  <homo_energy>
-6.574

>  <homo_lumo_gap>
5.625

>  <logP>
1.629

>  <lumo_energy>
-0.95

>  <melting_point>
120.53

>  <molecular_refractivity>
41.59

>  <oscillator_strength_1>
0.0176

>  <oscillator_strength_2>
0.161

>  <oscillator_strength_3>
0.0471

>  <oscillator_strength_4>
0.0018

>  <open_babel_can_smiles>
CC/C(=C\C)/[C](/N=C(/O)\[NH])O

>  <mulliken_charges>
23
1   -0.498581
2   -0.443966
3   -0.147078
4   -0.330793
5   0.143943
6   0.464451
7   0.563785
8   -0.631501
9   -0.509172
10   -0.584722
11   -0.576042
12   0.171173
13   0.163161
14   0.167348
15   0.145378
16   0.155698
17   0.158316
18   0.159584
19   0.141744
20   0.169288
21   0.289232
22   0.415001
23   0.413754

>  <lowdin_charges>
23
1   -0.442019
2   -0.439129
3   -0.1312
4   -0.271093
5   -0.041405
6   0.171619
7   0.15176
8   -0.462062
9   -0.231861
10   -0.347614
11   -0.373461
12   0.168072
13   0.15762
14   0.166616
15   0.150088
16   0.153927
17   0.152571
18   0.167586
19   0.148317
20   0.162691
21   0.262276
22   0.36188
23   0.364819

$$$$

