PCCDB-ID:  17625
public computational chemistry database (PCCDB) project, http://pccdb.org

 15 15  0  0  0  0  0  0  0  0999 V2000
    1.1927    0.6879    0.5473 C   0  0  0  0  0  0  0  0  0  0  0  0
    0.8038   -3.3784    1.8654 C   0  0  0  0  0  0  0  0  0  0  0  0
    1.1147   -4.4285    1.0505 C   0  0  0  0  0  0  0  0  0  0  0  0
    2.2623    0.0106   -0.2723 C   0  0  0  0  0  0  0  0  0  0  0  0
    1.9050   -2.2177    0.3352 C   0  0  0  0  0  0  0  0  0  0  0  0
    1.2482   -2.1402    1.4688 N   0  0  0  0  0  0  0  0  0  0  0  0
    2.5406   -1.2335   -0.3779 N   0  0  0  0  0  0  0  0  0  0  0  0
    3.0528    0.8372   -1.0026 O   0  0  0  0  0  0  0  0  0  0  0  0
    2.0346   -3.8630   -0.3067 S   0  0  0  0  0  0  0  0  0  0  0  0
    0.4269   -0.0235    0.8532 H   0  0  0  0  0  0  0  0  0  0  0  0
    0.7400    1.5119   -0.0186 H   0  0  0  0  0  0  0  0  0  0  0  0
    1.6325    1.1009    1.4639 H   0  0  0  0  0  0  0  0  0  0  0  0
    0.2427   -3.4602    2.7900 H   0  0  0  0  0  0  0  0  0  0  0  0
    0.8621   -5.4724    1.1744 H   0  0  0  0  0  0  0  0  0  0  0  0
    2.7583    1.7530   -0.8790 H   0  0  0  0  0  0  0  0  0  0  0  0
  1 10  1  0  0  0  0
  1 12  1  0  0  0  0
  2 13  1  0  0  0  0
  3 14  1  0  0  0  0
  3  2  2  0  0  0  0
  4  1  1  0  0  0  0
  5  6  2  0  0  0  0
  6  2  1  0  0  0  0
  7  4  2  0  0  0  0
  7  5  1  0  0  0  0
  8 15  1  0  0  0  0
  8  4  1  0  0  0  0
  9  5  1  0  0  0  0
  9  3  1  0  0  0  0
 11  1  1  0  0  0  0
M  END
>  <HBA>
4

>  <HBD>
1

>  <TPSA>
70.23

>  <cid>
17625

>  <dipole>
3.09

>  <excitation_energy_1>
4.419

>  <excitation_energy_2>
5.086

>  <excitation_energy_3>
5.094

>  <excitation_energy_4>
5.244

>  <homo_energy>
-5.886

>  <homo_lumo_gap>
4.83

>  <logP>
1.175

>  <lumo_energy>
-1.056

>  <melting_point>
73.33

>  <molecular_refractivity>
36.43

>  <oscillator_strength_1>
0.2991

>  <oscillator_strength_2>
0.0174

>  <oscillator_strength_3>
0.0256

>  <oscillator_strength_4>
0.0387

>  <open_babel_can_smiles>
C/C(=N\c1nccs1)/O

>  <mulliken_charges>
15
1   -0.536919
2   0.055907
3   -0.352091
4   0.49145
5   0.244172
6   -0.434841
7   -0.455372
8   -0.553962
9   0.246916
10   0.218283
11   0.151396
12   0.193003
13   0.146103
14   0.173062
15   0.41289

>  <lowdin_charges>
15
1   -0.482435
2   -0.12883
3   -0.341661
4   0.170249
5   -0.042588
6   -0.196216
7   -0.182786
8   -0.33881
9   0.297221
10   0.196417
11   0.15923
12   0.183061
13   0.16402
14   0.184381
15   0.358748

$$$$

