PCCDB-ID:  35363
public computational chemistry database (PCCDB) project, http://pccdb.org

 27 27  0  0  1  0  0  0  0  0999 V2000
    0.9283    0.2280    0.0267 C   0  0  0  0  0  0  0  0  0  0  0  0
    2.5504   -2.4425   -0.0580 C   0  0  0  0  0  0  0  0  0  0  0  0
    2.4832   -1.3533    2.1904 C   0  0  0  0  0  0  0  0  0  0  0  0
    4.6147    1.3622    0.6487 C   0  0  0  0  0  0  0  0  0  0  0  0
    5.1576    0.1040    1.3376 C   0  0  0  0  0  0  0  0  0  0  0  0
    3.0807    1.3809    0.6650 C   0  0  0  0  0  0  0  0  0  0  0  0
    4.5459   -1.1623    0.7234 C   0  0  0  0  0  0  0  0  0  0  0  0
    2.4600    0.1037    0.0592 C   0  0  1  0  0  0  0  0  0  0  0  0
    2.9938   -1.2006    0.7418 C   0  0  0  0  0  0  0  0  0  0  0  0
    0.6344    1.1121   -0.5518 H   0  0  0  0  0  0  0  0  0  0  0  0
    0.5094    0.3462    1.0332 H   0  0  0  0  0  0  0  0  0  0  0  0
    0.4478   -0.6396   -0.4371 H   0  0  0  0  0  0  0  0  0  0  0  0
    3.0145   -3.3485    0.3515 H   0  0  0  0  0  0  0  0  0  0  0  0
    2.8493   -2.3641   -1.1109 H   0  0  0  0  0  0  0  0  0  0  0  0
    1.4655   -2.5900   -0.0261 H   0  0  0  0  0  0  0  0  0  0  0  0
    2.9251   -2.2440    2.6545 H   0  0  0  0  0  0  0  0  0  0  0  0
    1.3951   -1.4770    2.2196 H   0  0  0  0  0  0  0  0  0  0  0  0
    2.7344   -0.4961    2.8235 H   0  0  0  0  0  0  0  0  0  0  0  0
    4.9647    1.3816   -0.3943 H   0  0  0  0  0  0  0  0  0  0  0  0
    5.0117    2.2664    1.1281 H   0  0  0  0  0  0  0  0  0  0  0  0
    4.9330    0.1485    2.4122 H   0  0  0  0  0  0  0  0  0  0  0  0
    6.2515    0.0640    1.2546 H   0  0  0  0  0  0  0  0  0  0  0  0
    2.7109    2.2530    0.1088 H   0  0  0  0  0  0  0  0  0  0  0  0
    2.7266    1.5097    1.6982 H   0  0  0  0  0  0  0  0  0  0  0  0
    4.9326   -2.0553    1.2339 H   0  0  0  0  0  0  0  0  0  0  0  0
    4.8801   -1.2381   -0.3226 H   0  0  0  0  0  0  0  0  0  0  0  0
    2.8031    0.0524   -0.9874 H   0  0  0  0  0  0  0  0  0  0  0  0
  1  8  1  0  0  0  0
  1 11  1  0  0  0  0
  2 15  1  0  0  0  0
  2 13  1  0  0  0  0
  2  9  1  0  0  0  0
  3 17  1  0  0  0  0
  3 16  1  0  0  0  0
  3 18  1  0  0  0  0
  4  6  1  0  0  0  0
  4 20  1  0  0  0  0
  4  5  1  0  0  0  0
  5 21  1  0  0  0  0
  6 24  1  0  0  0  0
  7  9  1  0  0  0  0
  7 25  1  0  0  0  0
  7  5  1  0  0  0  0
  8 27  1  6  0  0  0
  8  6  1  0  0  0  0
  8  9  1  0  0  0  0
  9  3  1  0  0  0  0
 10  1  1  0  0  0  0
 12  1  1  0  0  0  0
 14  2  1  0  0  0  0
 19  4  1  0  0  0  0
 22  5  1  0  0  0  0
 23  6  1  0  0  0  0
 26  7  1  0  0  0  0
M  END
>  <HBA>
0

>  <HBD>
0

>  <TPSA>
0.0

>  <cid>
35363

>  <dipole>
0.07

>  <excitation_energy_1>
7.197

>  <excitation_energy_2>
7.234

>  <excitation_energy_3>
7.514

>  <excitation_energy_4>
7.558

>  <homo_energy>
-7.685

>  <homo_lumo_gap>
9.804

>  <logP>
3.223

>  <lumo_energy>
2.12

>  <melting_point>
12.71

>  <molecular_refractivity>
43.0

>  <oscillator_strength_1>
0.0007

>  <oscillator_strength_2>
0.005

>  <oscillator_strength_3>
0.001

>  <oscillator_strength_4>
0.0002

>  <open_babel_can_smiles>
C[C@H]1CCCCC1(C)C

>  <mulliken_charges>
27
1   -0.459178
2   -0.453469
3   -0.460856
4   -0.258472
5   -0.262825
6   -0.262179
7   -0.260014
8   -0.06746
9   0.105655
10   0.138594
11   0.14231
12   0.143057
13   0.136282
14   0.135797
15   0.140251
16   0.136758
17   0.142477
18   0.14347
19   0.125564
20   0.127322
21   0.130439
22   0.128256
23   0.125905
24   0.126901
25   0.122647
26   0.121893
27   0.110876

>  <lowdin_charges>
27
1   -0.449151
2   -0.440287
3   -0.448239
4   -0.276827
5   -0.275816
6   -0.27934
7   -0.276583
8   -0.124664
9   0.008024
10   0.148937
11   0.146061
12   0.149421
13   0.146952
14   0.143774
15   0.144636
16   0.148136
17   0.146902
18   0.147386
19   0.135095
20   0.142548
21   0.136578
22   0.140818
23   0.142388
24   0.13594
25   0.140145
26   0.135704
27   0.131465

$$$$

