PCCDB-ID:  10313
public computational chemistry database (PCCDB) project, http://pccdb.org

 17 17  0  0  0  0  0  0  0  0999 V2000
   -1.4464   -0.1405    0.0354 C   0  0  0  0  0  0  0  0  0  0  0  0
   -0.8441    1.1184    0.0370 C   0  0  0  0  0  0  0  0  0  0  0  0
   -0.6524   -1.2884   -0.0222 C   0  0  0  0  0  0  0  0  0  0  0  0
    0.5446    1.2265   -0.0110 C   0  0  0  0  0  0  0  0  0  0  0  0
    0.7358   -1.1865   -0.0813 C   0  0  0  0  0  0  0  0  0  0  0  0
    1.3515    0.0763   -0.0725 C   0  0  0  0  0  0  0  0  0  0  0  0
    2.8268    0.2386   -0.0797 C   0  0  0  0  0  0  0  0  0  0  0  0
    3.7307   -0.4511   -0.6743 N   0  0  0  0  0  0  0  0  0  0  0  0
    3.3253    1.3121    0.6135 O   0  0  0  0  0  0  0  0  0  0  0  0
    3.1863   -1.4698   -1.4872 O   0  0  0  0  0  0  0  0  0  0  0  0
   -2.5289   -0.2272    0.0748 H   0  0  0  0  0  0  0  0  0  0  0  0
   -1.4539    2.0171    0.0721 H   0  0  0  0  0  0  0  0  0  0  0  0
   -1.1169   -2.2707   -0.0214 H   0  0  0  0  0  0  0  0  0  0  0  0
    1.0097    2.2083   -0.0302 H   0  0  0  0  0  0  0  0  0  0  0  0
    1.3484   -2.0774   -0.1345 H   0  0  0  0  0  0  0  0  0  0  0  0
    2.6990    1.5238    1.3236 H   0  0  0  0  0  0  0  0  0  0  0  0
    3.9894   -1.8456   -1.8789 H   0  0  0  0  0  0  0  0  0  0  0  0
  1  2  1  0  0  0  0
  1 11  1  0  0  0  0
  2 12  1  0  0  0  0
  3 13  1  0  0  0  0
  3  1  2  0  0  0  0
  4  2  2  0  0  0  0
  5  6  2  0  0  0  0
  5  3  1  0  0  0  0
  6  4  1  0  0  0  0
  7  6  1  0  0  0  0
  7  9  1  0  0  0  0
  8  7  2  0  0  0  0
  9 16  1  0  0  0  0
 10  8  1  0  0  0  0
 14  4  1  0  0  0  0
 15  5  1  0  0  0  0
 17 10  1  0  0  0  0
M  END
>  <HBA>
3

>  <HBD>
2

>  <TPSA>
49.33

>  <cid>
10313

>  <dipole>
2.59

>  <excitation_energy_1>
4.567

>  <excitation_energy_2>
4.826

>  <excitation_energy_3>
5.287

>  <excitation_energy_4>
5.383

>  <homo_energy>
-6.041

>  <homo_lumo_gap>
5.059

>  <logP>
1.196

>  <lumo_energy>
-0.982

>  <melting_point>
119.96

>  <molecular_refractivity>
35.36

>  <oscillator_strength_1>
0.1503

>  <oscillator_strength_2>
0.0004

>  <oscillator_strength_3>
0.0397

>  <oscillator_strength_4>
0.0239

>  <open_babel_can_smiles>
O/N=C(\c1ccccc1)/O

>  <mulliken_charges>
17
1   -0.120603
2   -0.131929
3   -0.138619
4   -0.193134
5   -0.139776
6   0.081147
7   0.442949
8   -0.242964
9   -0.59195
10   -0.515914
11   0.13706
12   0.137487
13   0.138011
14   0.146293
15   0.163997
16   0.407366
17   0.420579

>  <lowdin_charges>
17
1   -0.143487
2   -0.155819
3   -0.153384
4   -0.164637
5   -0.138076
6   -0.03898
7   0.09832
8   -0.090437
9   -0.370639
10   -0.383172
11   0.159353
12   0.16209
13   0.161591
14   0.163796
15   0.17715
16   0.35845
17   0.35788

$$$$

