PCCDB-ID:  7515
public computational chemistry database (PCCDB) project, http://pccdb.org

 17 17  0  0  0  0  0  0  0  0999 V2000
    2.7984    1.5739   -0.2287 C   0  0  0  0  0  0  0  0  0  0  0  0
    4.4327   -1.8974    3.2075 C   0  0  0  0  0  0  0  0  0  0  0  0
    3.3826   -2.4728    2.4849 C   0  0  0  0  0  0  0  0  0  0  0  0
    4.8659   -0.6193    2.8581 C   0  0  0  0  0  0  0  0  0  0  0  0
    2.7829   -1.7868    1.4353 C   0  0  0  0  0  0  0  0  0  0  0  0
    4.2685    0.0837    1.8105 C   0  0  0  0  0  0  0  0  0  0  0  0
    3.2166   -0.4941    1.0769 C   0  0  0  0  0  0  0  0  0  0  0  0
    2.6216    0.1518   -0.0051 N   0  0  0  0  0  0  0  0  0  0  0  0
    2.1815    1.8731   -1.0802 H   0  0  0  0  0  0  0  0  0  0  0  0
    3.8411    1.7950   -0.4841 H   0  0  0  0  0  0  0  0  0  0  0  0
    2.5219    2.1949    0.6397 H   0  0  0  0  0  0  0  0  0  0  0  0
    4.9012   -2.4366    4.0256 H   0  0  0  0  0  0  0  0  0  0  0  0
    3.0264   -3.4679    2.7402 H   0  0  0  0  0  0  0  0  0  0  0  0
    5.6790   -0.1518    3.4084 H   0  0  0  0  0  0  0  0  0  0  0  0
    1.9728   -2.2493    0.8744 H   0  0  0  0  0  0  0  0  0  0  0  0
    4.6237    1.0789    1.5647 H   0  0  0  0  0  0  0  0  0  0  0  0
    1.6952   -0.1909   -0.2215 H   0  0  0  0  0  0  0  0  0  0  0  0
  1  8  1  0  0  0  0
  1 11  1  0  0  0  0
  2 12  1  0  0  0  0
  3 13  1  0  0  0  0
  3  2  2  0  0  0  0
  4  2  1  0  0  0  0
  4 14  1  0  0  0  0
  5  3  1  0  0  0  0
  6  4  2  0  0  0  0
  7  5  2  0  0  0  0
  7  6  1  0  0  0  0
  8  7  1  0  0  0  0
  9  1  1  0  0  0  0
 10  1  1  0  0  0  0
 15  5  1  0  0  0  0
 16  6  1  0  0  0  0
 17  8  1  0  0  0  0
M  END
>  <HBA>
1

>  <HBD>
1

>  <TPSA>
12.03

>  <cid>
7515

>  <dipole>
1.77

>  <excitation_energy_1>
4.545

>  <excitation_energy_2>
4.687

>  <excitation_energy_3>
5.094

>  <excitation_energy_4>
5.242

>  <homo_energy>
-5.178

>  <homo_lumo_gap>
5.486

>  <logP>
1.801

>  <lumo_energy>
0.307

>  <melting_point>
37.87

>  <molecular_refractivity>
35.75

>  <oscillator_strength_1>
0.0273

>  <oscillator_strength_2>
0.0164

>  <oscillator_strength_3>
0.0204

>  <oscillator_strength_4>
0.0258

>  <open_babel_can_smiles>
CNc1ccccc1

>  <mulliken_charges>
17
1   -0.303478
2   -0.138871
3   -0.133172
4   -0.137184
5   -0.189697
6   -0.184153
7   0.3478
8   -0.636061
9   0.153558
10   0.164951
11   0.146305
12   0.118501
13   0.122773
14   0.122451
15   0.111934
16   0.120307
17   0.314035

>  <lowdin_charges>
17
1   -0.353367
2   -0.191706
3   -0.146614
4   -0.146604
5   -0.202086
6   -0.211132
7   0.060102
8   -0.299593
9   0.157784
10   0.152614
11   0.138034
12   0.154691
13   0.154087
14   0.155285
15   0.15056
16   0.155826
17   0.27212

$$$$

