PCCDB-ID:  7237
public computational chemistry database (PCCDB) project, http://pccdb.org

 18 18  0  0  0  0  0  0  0  0999 V2000
    0.9800   -0.0757   -0.0589 C   0  0  0  0  0  0  0  0  0  0  0  0
    2.4561    2.4853   -0.2205 C   0  0  0  0  0  0  0  0  0  0  0  0
    4.6023   -1.2683   -0.2247 C   0  0  0  0  0  0  0  0  0  0  0  0
    5.2972   -0.0631   -0.2983 C   0  0  0  0  0  0  0  0  0  0  0  0
    3.2087   -1.2549   -0.1486 C   0  0  0  0  0  0  0  0  0  0  0  0
    4.5895    1.1399   -0.2960 C   0  0  0  0  0  0  0  0  0  0  0  0
    2.4884   -0.0553   -0.1441 C   0  0  0  0  0  0  0  0  0  0  0  0
    3.1926    1.1662   -0.2197 C   0  0  0  0  0  0  0  0  0  0  0  0
    0.6028   -1.1014   -0.0013 H   0  0  0  0  0  0  0  0  0  0  0  0
    0.5157    0.4012   -0.9321 H   0  0  0  0  0  0  0  0  0  0  0  0
    0.6142    0.4636    0.8247 H   0  0  0  0  0  0  0  0  0  0  0  0
    3.1537    3.3263   -0.2801 H   0  0  0  0  0  0  0  0  0  0  0  0
    1.8534    2.6164    0.6879 H   0  0  0  0  0  0  0  0  0  0  0  0
    1.7649    2.5656   -1.0698 H   0  0  0  0  0  0  0  0  0  0  0  0
    5.1376   -2.2142   -0.2259 H   0  0  0  0  0  0  0  0  0  0  0  0
    6.3824   -0.0553   -0.3570 H   0  0  0  0  0  0  0  0  0  0  0  0
    2.6648   -2.1955   -0.0918 H   0  0  0  0  0  0  0  0  0  0  0  0
    5.1313    2.0816   -0.3544 H   0  0  0  0  0  0  0  0  0  0  0  0
  1  9  1  0  0  0  0
  1 11  1  0  0  0  0
  2  8  1  0  0  0  0
  2 13  1  0  0  0  0
  3  5  2  0  0  0  0
  4  6  2  0  0  0  0
  4  3  1  0  0  0  0
  5  7  1  0  0  0  0
  5 17  1  0  0  0  0
  6  8  1  0  0  0  0
  7  1  1  0  0  0  0
  8  7  2  0  0  0  0
 10  1  1  0  0  0  0
 12  2  1  0  0  0  0
 14  2  1  0  0  0  0
 15  3  1  0  0  0  0
 16  4  1  0  0  0  0
 18  6  1  0  0  0  0
M  END
>  <HBA>
0

>  <HBD>
0

>  <TPSA>
0.0

>  <cid>
7237

>  <dipole>
0.55

>  <excitation_energy_1>
5.253

>  <excitation_energy_2>
5.868

>  <excitation_energy_3>
5.939

>  <excitation_energy_4>
6.157

>  <homo_energy>
-6.245

>  <homo_lumo_gap>
6.449

>  <logP>
2.303

>  <lumo_energy>
0.204

>  <melting_point>
11.99

>  <molecular_refractivity>
36.37

>  <oscillator_strength_1>
0.0011

>  <oscillator_strength_2>
0.0125

>  <oscillator_strength_3>
0.0073

>  <oscillator_strength_4>
0.0

>  <open_babel_can_smiles>
Cc1ccccc1C

>  <mulliken_charges>
18
1   -0.531593
2   -0.531572
3   -0.128169
4   -0.128291
5   -0.184862
6   -0.185021
7   0.131156
8   0.131604
9   0.153733
10   0.158451
11   0.158355
12   0.153684
13   0.158312
14   0.158455
15   0.124166
16   0.12423
17   0.118666
18   0.118695

>  <lowdin_charges>
18
1   -0.442383
2   -0.442468
3   -0.162382
4   -0.159217
5   -0.168201
6   -0.168342
7   -0.007732
8   -0.008838
9   0.155722
10   0.158444
11   0.158283
12   0.156993
13   0.157919
14   0.158201
15   0.155591
16   0.153375
17   0.152519
18   0.152519

$$$$

