PCCDB-ID:  34242
public computational chemistry database (PCCDB) project, http://pccdb.org

 20 20  0  0  0  0  0  0  0  0999 V2000
    0.7716    0.0894   -0.0569 C   0  0  0  0  0  0  0  0  0  0  0  0
    7.4495    1.0012   -0.2510 C   0  0  0  0  0  0  0  0  0  0  0  0
    6.5757   -0.0287   -0.2905 C   0  0  0  0  0  0  0  0  0  0  0  0
    2.9871   -1.1357   -0.2076 C   0  0  0  0  0  0  0  0  0  0  0  0
    3.0188    1.2618   -0.0495 C   0  0  0  0  0  0  0  0  0  0  0  0
    4.3779   -1.1469   -0.2705 C   0  0  0  0  0  0  0  0  0  0  0  0
    4.4055    1.2567   -0.1112 C   0  0  0  0  0  0  0  0  0  0  0  0
    8.8578    0.8039   -0.3254 C   0  0  0  0  0  0  0  0  0  0  0  0
    2.2800    0.0674   -0.0989 C   0  0  0  0  0  0  0  0  0  0  0  0
    5.1185    0.0470   -0.2242 C   0  0  0  0  0  0  0  0  0  0  0  0
   10.0127    0.6618   -0.3841 N   0  0  0  0  0  0  0  0  0  0  0  0
    0.3639   -0.8870    0.2230 H   0  0  0  0  0  0  0  0  0  0  0  0
    0.3525    0.3516   -1.0376 H   0  0  0  0  0  0  0  0  0  0  0  0
    0.4011    0.8309    0.6597 H   0  0  0  0  0  0  0  0  0  0  0  0
    7.1207    2.0329   -0.1597 H   0  0  0  0  0  0  0  0  0  0  0  0
    6.9862   -1.0328   -0.3820 H   0  0  0  0  0  0  0  0  0  0  0  0
    2.4422   -2.0760   -0.2424 H   0  0  0  0  0  0  0  0  0  0  0  0
    2.4931    2.2096    0.0411 H   0  0  0  0  0  0  0  0  0  0  0  0
    4.9041   -2.0949   -0.3537 H   0  0  0  0  0  0  0  0  0  0  0  0
    4.9385    2.2021   -0.0680 H   0  0  0  0  0  0  0  0  0  0  0  0
  1 12  1  0  0  0  0
  1 14  1  0  0  0  0
  2 15  1  0  0  0  0
  3  2  2  0  0  0  0
  3 10  1  0  0  0  0
  4  9  2  0  0  0  0
  5 18  1  0  0  0  0
  6 10  2  0  0  0  0
  6  4  1  0  0  0  0
  7 20  1  0  0  0  0
  7  5  2  0  0  0  0
  8  2  1  0  0  0  0
  9  1  1  0  0  0  0
  9  5  1  0  0  0  0
 10  7  1  0  0  0  0
 11  8  3  0  0  0  0
 13  1  1  0  0  0  0
 16  3  1  0  0  0  0
 17  4  1  0  0  0  0
 19  6  1  0  0  0  0
M  END
>  <HBA>
1

>  <HBD>
0

>  <TPSA>
23.79

>  <cid>
34242

>  <dipole>
5.98

>  <excitation_energy_1>
4.292

>  <excitation_energy_2>
4.506

>  <excitation_energy_3>
5.405

>  <excitation_energy_4>
5.648

>  <homo_energy>
-6.406

>  <homo_lumo_gap>
4.482

>  <logP>
2.532

>  <lumo_energy>
-1.924

>  <melting_point>
64.91

>  <molecular_refractivity>
46.05

>  <oscillator_strength_1>
0.741

>  <oscillator_strength_2>
0.0072

>  <oscillator_strength_3>
0.167

>  <oscillator_strength_4>
0.0273

>  <open_babel_can_smiles>
N#C/C=C/c1ccc(cc1)C

>  <mulliken_charges>
20
1   -0.532178
2   -0.161688
3   -0.142279
4   -0.181458
5   -0.177684
6   -0.187769
7   -0.172514
8   0.309006
9   0.181259
10   0.168907
11   -0.481451
12   0.161969
13   0.172935
14   0.165009
15   0.176671
16   0.159925
17   0.132913
18   0.132658
19   0.139824
20   0.135945

>  <lowdin_charges>
20
1   -0.44297
2   -0.183356
3   -0.100094
4   -0.164513
5   -0.16009
6   -0.146285
7   -0.144713
8   -0.016168
9   0.015578
10   -0.014726
11   -0.126746
12   0.160704
13   0.166498
14   0.163889
15   0.179318
16   0.171101
17   0.160156
18   0.159829
19   0.161997
20   0.16059

$$$$

