PCCDB-ID:  34719
public computational chemistry database (PCCDB) project, http://pccdb.org

 27 28  0  0  1  0  0  0  0  0999 V2000
    1.2465   -0.1089   -0.5509 C   0  0  0  0  0  0  0  0  0  0  0  0
    4.7148    3.7757   -1.1099 C   0  0  0  0  0  0  0  0  0  0  0  0
    5.5841    2.6893   -1.8124 C   0  0  0  0  0  0  0  0  0  0  0  0
    4.4375    3.2194    0.2996 C   0  0  0  0  0  0  0  0  0  0  0  0
    5.5572    1.4542   -0.8749 C   0  0  0  0  0  0  0  0  0  0  0  0
    4.3787    0.8098    1.3705 C   0  0  0  0  0  0  0  0  0  0  0  0
    2.6917    0.1055   -0.1383 C   0  0  2  0  0  0  0  0  0  0  0  0
    2.9833    0.1612    1.3719 C   0  0  2  0  0  0  0  0  0  0  0  0
    4.3851    1.6980    0.0974 C   0  0  0  0  0  0  0  0  0  0  0  0
    2.0215    0.9462    2.0679 O   0  0  0  0  0  0  0  0  0  0  0  0
    3.1306    1.3987   -0.5785 O   0  0  0  0  0  0  0  0  0  0  0  0
    0.9225   -1.1176   -0.2730 H   0  0  0  0  0  0  0  0  0  0  0  0
    1.1394    0.0042   -1.6341 H   0  0  0  0  0  0  0  0  0  0  0  0
    0.5884    0.6095   -0.0553 H   0  0  0  0  0  0  0  0  0  0  0  0
    3.7678    3.9003   -1.6438 H   0  0  0  0  0  0  0  0  0  0  0  0
    5.2050    4.7543   -1.0819 H   0  0  0  0  0  0  0  0  0  0  0  0
    6.6107    3.0351   -1.9738 H   0  0  0  0  0  0  0  0  0  0  0  0
    5.1736    2.4459   -2.7968 H   0  0  0  0  0  0  0  0  0  0  0  0
    3.5177    3.6099    0.7495 H   0  0  0  0  0  0  0  0  0  0  0  0
    5.2662    3.4549    0.9804 H   0  0  0  0  0  0  0  0  0  0  0  0
    6.4888    1.3862   -0.2985 H   0  0  0  0  0  0  0  0  0  0  0  0
    5.4384    0.5064   -1.4109 H   0  0  0  0  0  0  0  0  0  0  0  0
    5.1572    0.0402    1.3093 H   0  0  0  0  0  0  0  0  0  0  0  0
    4.5425    1.3794    2.2902 H   0  0  0  0  0  0  0  0  0  0  0  0
    3.3251   -0.6777   -0.5915 H   0  0  0  0  0  0  0  0  0  0  0  0
    2.9683   -0.8227    1.8486 H   0  0  0  0  0  0  0  0  0  0  0  0
    1.9244    1.7700    1.5607 H   0  0  0  0  0  0  0  0  0  0  0  0
  1 12  1  0  0  0  0
  1  7  1  0  0  0  0
  1 14  1  0  0  0  0
  2 16  1  0  0  0  0
  2  4  1  0  0  0  0
  3  2  1  0  0  0  0
  3  5  1  0  0  0  0
  4 19  1  0  0  0  0
  4 20  1  0  0  0  0
  5 21  1  0  0  0  0
  5  9  1  0  0  0  0
  6  8  1  0  0  0  0
  6 24  1  0  0  0  0
  7 25  1  6  0  0  0
  7  8  1  0  0  0  0
  8 26  1  1  0  0  0
  8 10  1  0  0  0  0
  9  4  1  0  0  0  0
  9  6  1  0  0  0  0
 11  7  1  0  0  0  0
 11  9  1  0  0  0  0
 13  1  1  0  0  0  0
 15  2  1  0  0  0  0
 17  3  1  0  0  0  0
 18  3  1  0  0  0  0
 22  5  1  0  0  0  0
 23  6  1  0  0  0  0
 27 10  1  0  0  0  0
M  END
>  <HBA>
2

>  <HBD>
1

>  <TPSA>
29.46

>  <cid>
34719

>  <dipole>
1.5

>  <excitation_energy_1>
6.039

>  <excitation_energy_2>
6.482

>  <excitation_energy_3>
6.595

>  <excitation_energy_4>
6.766

>  <homo_energy>
-6.588

>  <homo_lumo_gap>
8.43

>  <logP>
1.469

>  <lumo_energy>
1.842

>  <melting_point>
37.29

>  <molecular_refractivity>
43.43

>  <oscillator_strength_1>
0.007

>  <oscillator_strength_2>
0.0162

>  <oscillator_strength_3>
0.0021

>  <oscillator_strength_4>
0.0025

>  <open_babel_can_smiles>
O[C@@H]1CC2(O[C@@H]1C)CCCC2

>  <mulliken_charges>
27
1   -0.447963
2   -0.269715
3   -0.270874
4   -0.28705
5   -0.284974
6   -0.347239
7   0.122921
8   0.125493
9   0.326314
10   -0.629442
11   -0.535891
12   0.146055
13   0.155769
14   0.151986
15   0.153195
16   0.132806
17   0.134148
18   0.145659
19   0.131751
20   0.135188
21   0.132792
22   0.140186
23   0.141885
24   0.157498
25   0.110343
26   0.134489
27   0.39467

>  <lowdin_charges>
27
1   -0.44594
2   -0.283131
3   -0.283168
4   -0.287881
5   -0.292862
6   -0.312607
7   -0.015945
8   -0.015781
9   0.116516
10   -0.457756
11   -0.292701
12   0.156228
13   0.15729
14   0.157484
15   0.15173
16   0.144149
17   0.143302
18   0.149624
19   0.144961
20   0.145785
21   0.143535
22   0.149678
23   0.153163
24   0.160564
25   0.126776
26   0.146387
27   0.340603

$$$$

