PCCDB-ID:  52536
public computational chemistry database (PCCDB) project, http://pccdb.org

 31 32  0  0  1  0  0  0  0  0999 V2000
    2.0662    1.0602   -0.1917 C   0  0  0  0  0  0  0  0  0  0  0  0
    2.3206   -0.3120   -0.2481 C   0  0  0  0  0  0  0  0  0  0  0  0
    0.7449    1.5295   -0.2289 C   0  0  0  0  0  0  0  0  0  0  0  0
    1.2774   -1.2408   -0.3413 C   0  0  0  0  0  0  0  0  0  0  0  0
   -2.7621   -0.8093    1.3592 C   0  0  0  0  0  0  0  0  0  0  0  0
   -4.0615   -0.0905    1.7289 C   0  0  0  0  0  0  0  0  0  0  0  0
   -1.7955    0.8178   -0.4034 C   0  0  0  0  0  0  0  0  0  0  0  0
   -0.2974    0.6190   -0.3177 C   0  0  0  0  0  0  0  0  0  0  0  0
   -2.3539   -0.6068   -0.1123 C   0  0  1  0  0  0  0  0  0  0  0  0
   -0.0319   -0.7596   -0.3748 C   0  0  0  0  0  0  0  0  0  0  0  0
   -5.4218    0.4165    3.7077 C   0  0  0  0  0  0  0  0  0  0  0  0
   -5.9888    1.3715    3.0650 N   0  0  0  0  0  0  0  0  0  0  0  0
   -5.7301   -0.0487    4.9995 N   0  0  0  0  0  0  0  0  0  0  0  0
   -4.3894   -0.3159    3.1328 N   0  0  0  0  0  0  0  0  0  0  0  0
   -1.2249   -1.4837   -0.5023 N   0  0  0  0  0  0  0  0  0  0  0  0
    2.8903    1.7639   -0.1169 H   0  0  0  0  0  0  0  0  0  0  0  0
    3.3464   -0.6708   -0.2159 H   0  0  0  0  0  0  0  0  0  0  0  0
    0.5411    2.5972   -0.1818 H   0  0  0  0  0  0  0  0  0  0  0  0
    1.4848   -2.3072   -0.3837 H   0  0  0  0  0  0  0  0  0  0  0  0
   -2.8871   -1.8894    1.5381 H   0  0  0  0  0  0  0  0  0  0  0  0
   -1.9505   -0.4717    2.0167 H   0  0  0  0  0  0  0  0  0  0  0  0
   -4.8801   -0.4153    1.0661 H   0  0  0  0  0  0  0  0  0  0  0  0
   -3.9720    0.9899    1.5923 H   0  0  0  0  0  0  0  0  0  0  0  0
   -2.0892    1.1419   -1.4108 H   0  0  0  0  0  0  0  0  0  0  0  0
   -2.1809    1.5651    0.2984 H   0  0  0  0  0  0  0  0  0  0  0  0
   -3.2162   -0.8273   -0.7531 H   0  0  0  0  0  0  0  0  0  0  0  0
   -6.6419    1.8777    3.6658 H   0  0  0  0  0  0  0  0  0  0  0  0
   -6.3416    0.5734    5.5146 H   0  0  0  0  0  0  0  0  0  0  0  0
   -4.9124   -0.2923    5.5498 H   0  0  0  0  0  0  0  0  0  0  0  0
   -4.3984   -1.2935    3.4038 H   0  0  0  0  0  0  0  0  0  0  0  0
   -1.2335   -2.4113   -0.0916 H   0  0  0  0  0  0  0  0  0  0  0  0
  1 16  1  0  0  0  0
  2 17  1  0  0  0  0
  2  1  2  0  0  0  0
  3  1  1  0  0  0  0
  3 18  1  0  0  0  0
  4  2  1  0  0  0  0
  5 20  1  0  0  0  0
  5  6  1  0  0  0  0
  5 21  1  0  0  0  0
  6 14  1  0  0  0  0
  7  8  1  0  0  0  0
  7  9  1  0  0  0  0
  7 25  1  0  0  0  0
  8  3  2  0  0  0  0
  9 26  1  6  0  0  0
  9  5  1  0  0  0  0
 10  4  2  0  0  0  0
 10  8  1  0  0  0  0
 11 13  2  0  0  0  0
 12 27  1  0  0  0  0
 12 11  1  0  0  0  0
 13 28  1  0  0  0  0
 13 29  1  0  0  0  0
 14 30  1  0  0  0  0
 14 11  1  0  0  0  0
 15 10  1  0  0  0  0
 15  9  1  0  0  0  0
 15 31  1  0  0  0  0
 19  4  1  0  0  0  0
 22  6  1  0  0  0  0
 23  6  1  0  0  0  0
 24  7  1  0  0  0  0
M  RAD  1  12   2
M  END
>  <HBA>
4

>  <HBD>
3

>  <TPSA>
76.43

>  <cid>
52536

>  <dipole>
3.65

>  <excitation_energy_1>
4.429

>  <excitation_energy_2>
4.546

>  <excitation_energy_3>
4.735

>  <excitation_energy_4>
5.084

>  <homo_energy>
-5.091

>  <homo_lumo_gap>
5.347

>  <logP>
2.225

>  <lumo_energy>
0.256

>  <melting_point>
189.66

>  <molecular_refractivity>
65.06

>  <oscillator_strength_1>
0.051

>  <oscillator_strength_2>
0.0058

>  <oscillator_strength_3>
0.0011

>  <oscillator_strength_4>
0.0044

>  <open_babel_can_smiles>
[NH]C(=[NH2])NCC[C@H]1Cc2c(N1)cccc2

>  <mulliken_charges>
31
1   -0.139511
2   -0.140491
3   -0.211864
4   -0.189779
5   -0.288026
6   -0.104524
7   -0.358002
8   0.124109
9   0.031502
10   0.303711
11   0.587902
12   -0.645466
13   -0.757194
14   -0.608851
15   -0.654512
16   0.117974
17   0.121347
18   0.121219
19   0.116537
20   0.115704
21   0.157096
22   0.140909
23   0.182063
24   0.162227
25   0.157642
26   0.135732
27   0.263929
28   0.318546
29   0.321788
30   0.313734
31   0.30455

>  <lowdin_charges>
31
1   -0.187612
2   -0.149829
3   -0.156917
4   -0.201585
5   -0.294351
6   -0.190792
7   -0.279859
8   -0.041343
9   -0.053309
10   0.045229
11   0.125114
12   -0.47945
13   -0.517474
14   -0.309484
15   -0.30619
16   0.154468
17   0.153433
18   0.15268
19   0.151537
20   0.131293
21   0.154688
22   0.137836
23   0.164154
24   0.158693
25   0.158716
26   0.143096
27   0.247723
28   0.276504
29   0.277906
30   0.269444
31   0.265681

$$$$

