PCCDB-ID:  62140
public computational chemistry database (PCCDB) project, http://pccdb.org

 36 35  0  0  0  0  0  0  0  0999 V2000
    0.7556   -0.0876   -0.0755 C   0  0  0  0  0  0  0  0  0  0  0  0
   12.8054    1.1211    8.6878 C   0  0  0  0  0  0  0  0  0  0  0  0
    2.2844   -0.1627   -0.0112 C   0  0  0  0  0  0  0  0  0  0  0  0
   12.3622    0.8300    7.4699 C   0  0  0  0  0  0  0  0  0  0  0  0
    2.8449    0.0857    1.3951 C   0  0  0  0  0  0  0  0  0  0  0  0
    4.3755    0.0145    1.4682 C   0  0  0  0  0  0  0  0  0  0  0  0
    4.9339    0.2622    2.8756 C   0  0  0  0  0  0  0  0  0  0  0  0
    6.4646    0.1945    2.9493 C   0  0  0  0  0  0  0  0  0  0  0  0
    7.0194    0.4447    4.3576 C   0  0  0  0  0  0  0  0  0  0  0  0
    8.5497    0.3758    4.4265 C   0  0  0  0  0  0  0  0  0  0  0  0
    9.0861    0.6389    5.8352 C   0  0  0  0  0  0  0  0  0  0  0  0
   10.5934    0.5554    5.9258 C   0  0  0  0  0  0  0  0  0  0  0  0
   11.3491    0.2617    5.0300 O   0  0  0  0  0  0  0  0  0  0  0  0
   11.0047    0.8614    7.1986 O   0  0  0  0  0  0  0  0  0  0  0  0
    0.3874   -0.2733   -1.0910 H   0  0  0  0  0  0  0  0  0  0  0  0
    0.3933    0.9005    0.2345 H   0  0  0  0  0  0  0  0  0  0  0  0
    0.2940   -0.8300    0.5873 H   0  0  0  0  0  0  0  0  0  0  0  0
   13.8693    1.0981    8.8936 H   0  0  0  0  0  0  0  0  0  0  0  0
   12.1305    1.3893    9.4940 H   0  0  0  0  0  0  0  0  0  0  0  0
    2.7164    0.5700   -0.7077 H   0  0  0  0  0  0  0  0  0  0  0  0
    2.6171   -1.1494   -0.3641 H   0  0  0  0  0  0  0  0  0  0  0  0
   12.9810    0.5551    6.6238 H   0  0  0  0  0  0  0  0  0  0  0  0
    2.4131   -0.6488    2.0915 H   0  0  0  0  0  0  0  0  0  0  0  0
    2.5095    1.0720    1.7495 H   0  0  0  0  0  0  0  0  0  0  0  0
    4.8067    0.7493    0.7721 H   0  0  0  0  0  0  0  0  0  0  0  0
    4.7102   -0.9716    1.1133 H   0  0  0  0  0  0  0  0  0  0  0  0
    4.5042   -0.4740    3.5712 H   0  0  0  0  0  0  0  0  0  0  0  0
    4.5969    1.2474    3.2313 H   0  0  0  0  0  0  0  0  0  0  0  0
    6.8955    0.9300    2.2542 H   0  0  0  0  0  0  0  0  0  0  0  0
    6.8028   -0.7908    2.5962 H   0  0  0  0  0  0  0  0  0  0  0  0
    6.5882   -0.2903    5.0536 H   0  0  0  0  0  0  0  0  0  0  0  0
    6.6810    1.4304    4.7107 H   0  0  0  0  0  0  0  0  0  0  0  0
    8.9881    1.1038    3.7324 H   0  0  0  0  0  0  0  0  0  0  0  0
    8.8964   -0.6082    4.0875 H   0  0  0  0  0  0  0  0  0  0  0  0
    8.6703   -0.0772    6.5578 H   0  0  0  0  0  0  0  0  0  0  0  0
    8.7811    1.6284    6.2013 H   0  0  0  0  0  0  0  0  0  0  0  0
  1  3  1  0  0  0  0
  1 16  1  0  0  0  0
  1 17  1  0  0  0  0
  2 18  1  0  0  0  0
  2 19  1  0  0  0  0
  3  5  1  0  0  0  0
  4  2  2  0  0  0  0
  5  6  1  0  0  0  0
  5 24  1  0  0  0  0
  5 23  1  0  0  0  0
  6  7  1  0  0  0  0
  7  8  1  0  0  0  0
  7 28  1  0  0  0  0
  7 27  1  0  0  0  0
  8  9  1  0  0  0  0
  9 10  1  0  0  0  0
  9 32  1  0  0  0  0
  9 31  1  0  0  0  0
 10 11  1  0  0  0  0
 11 12  1  0  0  0  0
 11 36  1  0  0  0  0
 11 35  1  0  0  0  0
 12 14  1  0  0  0  0
 13 12  2  0  0  0  0
 14  4  1  0  0  0  0
 15  1  1  0  0  0  0
 20  3  1  0  0  0  0
 21  3  1  0  0  0  0
 22  4  1  0  0  0  0
 25  6  1  0  0  0  0
 26  6  1  0  0  0  0
 29  8  1  0  0  0  0
 30  8  1  0  0  0  0
 33 10  1  0  0  0  0
 34 10  1  0  0  0  0
M  END
>  <HBA>
2

>  <HBD>
0

>  <TPSA>
26.3

>  <cid>
62140

>  <dipole>
1.53

>  <excitation_energy_1>
5.683

>  <excitation_energy_2>
5.94

>  <excitation_energy_3>
6.483

>  <excitation_energy_4>
6.91

>  <homo_energy>
-6.738

>  <homo_lumo_gap>
6.523

>  <logP>
3.814

>  <lumo_energy>
-0.215

>  <melting_point>
-38.7

>  <molecular_refractivity>
60.61

>  <oscillator_strength_1>
0.0005

>  <oscillator_strength_2>
0.3464

>  <oscillator_strength_3>
0.039

>  <oscillator_strength_4>
0.0174

>  <open_babel_can_smiles>
CCCCCCCCCC(=O)OC=C

>  <mulliken_charges>
36
1   -0.441196
2   -0.389704
3   -0.246778
4   0.156333
5   -0.245627
6   -0.252643
7   -0.253284
8   -0.253898
9   -0.257378
10   -0.251209
11   -0.37184
12   0.631334
13   -0.463937
14   -0.462861
15   0.141524
16   0.14088
17   0.140878
18   0.15415
19   0.154552
20   0.130079
21   0.130063
22   0.182029
23   0.126062
24   0.125992
25   0.127459
26   0.127488
27   0.126946
28   0.126826
29   0.130318
30   0.130531
31   0.128195
32   0.128041
33   0.148871
34   0.151365
35   0.175763
36   0.174675

>  <lowdin_charges>
36
1   -0.444774
2   -0.363626
3   -0.272823
4   -0.035566
5   -0.275359
6   -0.27514
7   -0.274847
8   -0.274586
9   -0.275371
10   -0.271438
11   -0.301262
12   0.210088
13   -0.249387
14   -0.159394
15   0.148453
16   0.145627
17   0.147166
18   0.17102
19   0.170214
20   0.139917
21   0.138365
22   0.174947
23   0.138205
24   0.136643
25   0.139006
26   0.137505
27   0.138643
28   0.137068
29   0.140569
30   0.139173
31   0.139112
32   0.137484
33   0.151629
34   0.151373
35   0.171805
36   0.169561

$$$$

