PCCDB-ID:  11305
public computational chemistry database (PCCDB) project, http://pccdb.org

 20 21  0  0  0  0  0  0  0  0999 V2000
   -2.4139   -0.7506   -0.0211 C   0  0  0  0  0  0  0  0  0  0  0  0
   -2.4352    0.6632   -0.0167 C   0  0  0  0  0  0  0  0  0  0  0  0
   -1.2145   -1.4292   -0.0182 C   0  0  0  0  0  0  0  0  0  0  0  0
   -1.2569    1.3778   -0.0102 C   0  0  0  0  0  0  0  0  0  0  0  0
    2.4476   -0.6783    0.0012 C   0  0  0  0  0  0  0  0  0  0  0  0
    2.4263    0.7380    0.0029 C   0  0  0  0  0  0  0  0  0  0  0  0
    0.0152   -0.7224   -0.0108 C   0  0  0  0  0  0  0  0  0  0  0  0
   -0.0063    0.7085   -0.0073 C   0  0  0  0  0  0  0  0  0  0  0  0
    1.2741   -1.3970   -0.0062 C   0  0  0  0  0  0  0  0  0  0  0  0
    1.2316    1.4209   -0.0007 C   0  0  0  0  0  0  0  0  0  0  0  0
    1.2321   -2.7694   -0.0082 O   0  0  0  0  0  0  0  0  0  0  0  0
    1.1478    2.7914    0.0005 O   0  0  0  0  0  0  0  0  0  0  0  0
   -3.3494   -1.3036   -0.0273 H   0  0  0  0  0  0  0  0  0  0  0  0
   -3.3870    1.1877   -0.0185 H   0  0  0  0  0  0  0  0  0  0  0  0
   -1.1896   -2.5133   -0.0218 H   0  0  0  0  0  0  0  0  0  0  0  0
   -1.2650    2.4621   -0.0072 H   0  0  0  0  0  0  0  0  0  0  0  0
    3.4055   -1.1948    0.0058 H   0  0  0  0  0  0  0  0  0  0  0  0
    3.3682    1.2830    0.0075 H   0  0  0  0  0  0  0  0  0  0  0  0
    2.1410   -3.1060   -0.0143 H   0  0  0  0  0  0  0  0  0  0  0  0
    2.0461    3.1557    0.0070 H   0  0  0  0  0  0  0  0  0  0  0  0
  1  3  2  0  0  0  0
  1  2  1  0  0  0  0
  2  4  2  0  0  0  0
  3  7  1  0  0  0  0
  4  8  1  0  0  0  0
  4 16  1  0  0  0  0
  5  6  1  0  0  0  0
  5 17  1  0  0  0  0
  6 18  1  0  0  0  0
  7  8  2  0  0  0  0
  7  9  1  0  0  0  0
  8 10  1  0  0  0  0
  9  5  2  0  0  0  0
 10 12  1  0  0  0  0
 10  6  2  0  0  0  0
 11  9  1  0  0  0  0
 12 20  1  0  0  0  0
 13  1  1  0  0  0  0
 14  2  1  0  0  0  0
 15  3  1  0  0  0  0
 19 11  1  0  0  0  0
M  END
>  <HBA>
2

>  <HBD>
2

>  <TPSA>
40.46

>  <cid>
11305

>  <dipole>
2.47

>  <excitation_energy_1>
3.867

>  <excitation_energy_2>
4.151

>  <excitation_energy_3>
4.396

>  <excitation_energy_4>
4.528

>  <homo_energy>
-5.05

>  <homo_lumo_gap>
4.435

>  <logP>
2.251

>  <lumo_energy>
-0.615

>  <melting_point>
129.6

>  <molecular_refractivity>
47.99

>  <oscillator_strength_1>
0.075

>  <oscillator_strength_2>
0.0735

>  <oscillator_strength_3>
0.0

>  <oscillator_strength_4>
0.0

>  <open_babel_can_smiles>
Oc1ccc(c2c1cccc2)O

>  <mulliken_charges>
20
1   -0.132851
2   -0.132908
3   -0.179811
4   -0.17971
5   -0.207766
6   -0.207842
7   0.077612
8   0.077582
9   0.290839
10   0.290874
11   -0.649863
12   -0.649878
13   0.128079
14   0.128048
15   0.151425
16   0.151417
17   0.115195
18   0.115217
19   0.407175
20   0.407166

>  <lowdin_charges>
20
1   -0.158129
2   -0.157912
3   -0.148548
4   -0.148529
5   -0.216286
6   -0.216484
7   -0.016998
8   -0.017057
9   0.088466
10   0.088519
11   -0.384798
12   -0.384987
13   0.157775
14   0.157597
15   0.168062
16   0.168051
17   0.153493
18   0.153667
19   0.356955
20   0.357143

$$$$

