PCCDB-ID:  35108
public computational chemistry database (PCCDB) project, http://pccdb.org

 23 23  0  0  0  0  0  0  0  0999 V2000
    1.0166   -0.0473    0.0222 C   0  0  0  0  0  0  0  0  0  0  0  0
    7.3198   -1.0867    0.1117 C   0  0  0  0  0  0  0  0  0  0  0  0
    3.3332   -5.8408    0.7114 C   0  0  0  0  0  0  0  0  0  0  0  0
    3.0595   -1.1766    0.1459 C   0  0  0  0  0  0  0  0  0  0  0  0
    5.2947   -2.2445    0.2616 C   0  0  0  0  0  0  0  0  0  0  0  0
    3.1980   -3.4563    0.4201 C   0  0  0  0  0  0  0  0  0  0  0  0
    2.4720   -0.0531    0.0150 N   0  0  0  0  0  0  0  0  0  0  0  0
    6.5690   -2.3209    0.2645 N   0  0  0  0  0  0  0  0  0  0  0  0
    4.4786   -1.1505    0.1337 N   0  0  0  0  0  0  0  0  0  0  0  0
    2.4490   -2.4142    0.2986 N   0  0  0  0  0  0  0  0  0  0  0  0
    4.5670   -3.4407    0.4095 N   0  0  0  0  0  0  0  0  0  0  0  0
    2.5764   -4.6395    0.5674 O   0  0  0  0  0  0  0  0  0  0  0  0
    0.6698    0.9857   -0.0787 H   0  0  0  0  0  0  0  0  0  0  0  0
    0.6030   -0.4633    0.9509 H   0  0  0  0  0  0  0  0  0  0  0  0
    0.5965   -0.6351   -0.8055 H   0  0  0  0  0  0  0  0  0  0  0  0
    8.3888   -1.3155    0.1349 H   0  0  0  0  0  0  0  0  0  0  0  0
    7.1204   -0.3651    0.9211 H   0  0  0  0  0  0  0  0  0  0  0  0
    7.1131   -0.5789   -0.8449 H   0  0  0  0  0  0  0  0  0  0  0  0
    2.5947   -6.6357    0.8158 H   0  0  0  0  0  0  0  0  0  0  0  0
    3.9608   -5.8162    1.6107 H   0  0  0  0  0  0  0  0  0  0  0  0
    3.9478   -6.0389   -0.1754 H   0  0  0  0  0  0  0  0  0  0  0  0
    4.8882   -0.2333    0.0234 H   0  0  0  0  0  0  0  0  0  0  0  0
    5.1432   -4.2643    0.5057 H   0  0  0  0  0  0  0  0  0  0  0  0
  1 14  1  0  0  0  0
  2 16  1  0  0  0  0
  2  8  1  0  0  0  0
  2 17  1  0  0  0  0
  3 19  1  0  0  0  0
  3 20  1  0  0  0  0
  4 10  2  0  0  0  0
  5  8  2  0  0  0  0
  5 11  1  0  0  0  0
  6 12  1  0  0  0  0
  7  1  1  0  0  0  0
  7  4  1  0  0  0  0
  9  4  1  0  0  0  0
  9  5  1  0  0  0  0
 10  6  2  0  0  0  0
 11  6  1  0  0  0  0
 11 23  1  0  0  0  0
 12  3  1  0  0  0  0
 13  1  1  0  0  0  0
 15  1  1  0  0  0  0
 18  2  1  0  0  0  0
 21  3  1  0  0  0  0
 22  9  1  0  0  0  0
M  RAD  1   7   2
M  END
>  <HBA>
6

>  <HBD>
2

>  <TPSA>
71.96

>  <cid>
35108

>  <dipole>
4.13

>  <excitation_energy_1>
5.005

>  <excitation_energy_2>
5.196

>  <excitation_energy_3>
5.221

>  <excitation_energy_4>
5.235

>  <homo_energy>
-5.899

>  <homo_lumo_gap>
5.646

>  <logP>
0.11

>  <lumo_energy>
-0.253

>  <melting_point>
126.05

>  <molecular_refractivity>
44.93

>  <oscillator_strength_1>
0.0858

>  <oscillator_strength_2>
0.0003

>  <oscillator_strength_3>
0.0329

>  <oscillator_strength_4>
0.0005

>  <open_babel_can_smiles>
C/N=C/1\NC(=[N]=C(N1)OC)[N]C

>  <mulliken_charges>
23
1   -0.305681
2   -0.341198
3   -0.250293
4   0.662096
5   0.760575
6   0.761703
7   -0.50255
8   -0.49782
9   -0.713808
10   -0.536391
11   -0.712977
12   -0.451395
13   0.142007
14   0.148316
15   0.147786
16   0.164812
17   0.14295
18   0.143113
19   0.197793
20   0.168618
21   0.168683
22   0.350161
23   0.353502

>  <lowdin_charges>
23
1   -0.355215
2   -0.361061
3   -0.284807
4   0.122441
5   0.128928
6   0.193777
7   -0.248988
8   -0.274208
9   -0.251499
10   -0.235424
11   -0.246522
12   -0.161944
13   0.144454
14   0.146881
15   0.147507
16   0.156773
17   0.139647
18   0.139027
19   0.179957
20   0.154263
21   0.154605
22   0.304755
23   0.306651

$$$$

