PCCDB-ID:  10534
public computational chemistry database (PCCDB) project, http://pccdb.org

 39 40  0  0  1  0  0  0  0  0999 V2000
    1.5330   -2.0105    0.7838 C   0  0  0  0  0  0  0  0  0  0  0  0
    3.2157   -3.8113    0.1831 C   0  0  0  0  0  0  0  0  0  0  0  0
    8.6998    0.0359   -0.1004 C   0  0  0  0  0  0  0  0  0  0  0  0
    8.2004   -2.7602    1.3116 C   0  0  0  0  0  0  0  0  0  0  0  0
    5.2578   -2.2637    2.0217 C   0  0  0  0  0  0  0  0  0  0  0  0
    3.8224   -1.9073    1.7362 C   0  0  0  0  0  0  0  0  0  0  0  0
   10.2941   -0.3434    2.9659 C   0  0  0  0  0  0  0  0  0  0  0  0
    9.4908   -1.4710    3.6904 C   0  0  0  0  0  0  0  0  0  0  0  0
    6.2259   -1.1877    1.4810 C   0  0  0  0  0  0  0  0  0  0  0  0
    8.0681    0.4108    3.4246 C   0  0  0  0  0  0  0  0  0  0  0  0
    2.9365   -2.5435    0.9540 C   0  0  0  0  0  0  0  0  0  0  0  0
    8.5556   -0.2305    1.1979 C   0  0  0  0  0  0  0  0  0  0  0  0
    9.1713    0.5427    2.3492 C   0  0  2  0  0  0  0  0  0  0  0  0
    8.0187   -1.1332    3.3459 C   0  0  1  0  0  0  0  0  0  0  0  0
    7.7323   -1.3814    1.8214 C   0  0  2  0  0  0  0  0  0  0  0  0
    1.3176   -1.7939   -0.2722 H   0  0  0  0  0  0  0  0  0  0  0  0
    1.3705   -1.0923    1.3573 H   0  0  0  0  0  0  0  0  0  0  0  0
    0.7861   -2.7498    1.1066 H   0  0  0  0  0  0  0  0  0  0  0  0
    3.0406   -3.6567   -0.8908 H   0  0  0  0  0  0  0  0  0  0  0  0
    2.5323   -4.6138    0.4944 H   0  0  0  0  0  0  0  0  0  0  0  0
    4.2375   -4.1781    0.3045 H   0  0  0  0  0  0  0  0  0  0  0  0
    9.2935    0.8792   -0.4462 H   0  0  0  0  0  0  0  0  0  0  0  0
    8.2338   -0.5724   -0.8725 H   0  0  0  0  0  0  0  0  0  0  0  0
    7.8581   -2.9266    0.2832 H   0  0  0  0  0  0  0  0  0  0  0  0
    7.8048   -3.5753    1.9289 H   0  0  0  0  0  0  0  0  0  0  0  0
    9.2907   -2.8413    1.3040 H   0  0  0  0  0  0  0  0  0  0  0  0
    5.5111   -3.2415    1.6009 H   0  0  0  0  0  0  0  0  0  0  0  0
    5.3875   -2.3559    3.1102 H   0  0  0  0  0  0  0  0  0  0  0  0
    3.4826   -0.9934    2.2286 H   0  0  0  0  0  0  0  0  0  0  0  0
   10.9728   -0.7284    2.1983 H   0  0  0  0  0  0  0  0  0  0  0  0
   10.8939    0.2391    3.6747 H   0  0  0  0  0  0  0  0  0  0  0  0
    9.6336   -1.4148    4.7756 H   0  0  0  0  0  0  0  0  0  0  0  0
    9.7901   -2.4759    3.3838 H   0  0  0  0  0  0  0  0  0  0  0  0
    5.8932   -0.2060    1.8377 H   0  0  0  0  0  0  0  0  0  0  0  0
    6.1283   -1.1514    0.3883 H   0  0  0  0  0  0  0  0  0  0  0  0
    7.1335    0.9100    3.1517 H   0  0  0  0  0  0  0  0  0  0  0  0
    8.3830    0.7754    4.4092 H   0  0  0  0  0  0  0  0  0  0  0  0
    9.4968    1.5531    2.0869 H   0  0  0  0  0  0  0  0  0  0  0  0
    7.2995   -1.6251    4.0073 H   0  0  0  0  0  0  0  0  0  0  0  0
  1 11  1  0  0  0  0
  1 18  1  0  0  0  0
  1 17  1  0  0  0  0
  2 21  1  0  0  0  0
  2 20  1  0  0  0  0
  2 11  1  0  0  0  0
  3 12  2  0  0  0  0
  4 25  1  0  0  0  0
  5 28  1  0  0  0  0
  6  5  1  0  0  0  0
  6 29  1  0  0  0  0
  7 31  1  0  0  0  0
  7  8  1  0  0  0  0
  8 32  1  0  0  0  0
  9 15  1  0  0  0  0
  9 34  1  0  0  0  0
  9  5  1  0  0  0  0
 10 37  1  0  0  0  0
 11  6  2  0  0  0  0
 12 15  1  0  0  0  0
 12 13  1  0  0  0  0
 13 38  1  6  0  0  0
 13  7  1  0  0  0  0
 13 10  1  0  0  0  0
 14 10  1  0  0  0  0
 14  8  1  0  0  0  0
 14 39  1  1  0  0  0
 15  4  1  6  0  0  0
 15 14  1  0  0  0  0
 16  1  1  0  0  0  0
 19  2  1  0  0  0  0
 22  3  1  0  0  0  0
 23  3  1  0  0  0  0
 24  4  1  0  0  0  0
 26  4  1  0  0  0  0
 27  5  1  0  0  0  0
 30  7  1  0  0  0  0
 33  8  1  0  0  0  0
 35  9  1  0  0  0  0
 36 10  1  0  0  0  0
M  END
>  <HBA>
0

>  <HBD>
0

>  <TPSA>
0.0

>  <cid>
10534

>  <dipole>
0.47

>  <excitation_energy_1>
5.573

>  <excitation_energy_2>
5.87

>  <excitation_energy_3>
5.954

>  <excitation_energy_4>
5.973

>  <homo_energy>
-6.065

>  <homo_lumo_gap>
6.754

>  <logP>
4.725

>  <lumo_energy>
0.688

>  <melting_point>
27.33

>  <molecular_refractivity>
68.78

>  <oscillator_strength_1>
0.0043

>  <oscillator_strength_2>
0.0111

>  <oscillator_strength_3>
0.0847

>  <oscillator_strength_4>
0.0045

>  <open_babel_can_smiles>
CC(=CCC[C@]1(C)[C@H]2CC[C@@H](C1=C)C2)C

>  <mulliken_charges>
39
1   -0.505538
2   -0.513599
3   -0.445872
4   -0.467144
5   -0.313129
6   -0.161733
7   -0.269429
8   -0.277954
9   -0.263471
10   -0.284364
11   0.188329
12   0.234655
13   -0.166513
14   -0.128869
15   0.057909
16   0.148143
17   0.150296
18   0.147724
19   0.150846
20   0.150986
21   0.153971
22   0.13105
23   0.130858
24   0.140855
25   0.143231
26   0.149642
27   0.141477
28   0.139611
29   0.108846
30   0.141505
31   0.135384
32   0.134153
33   0.139791
34   0.133604
35   0.137156
36   0.142688
37   0.130812
38   0.116678
39   0.117414

>  <lowdin_charges>
39
1   -0.439041
2   -0.443265
3   -0.374062
4   -0.441255
5   -0.276494
6   -0.189163
7   -0.285477
8   -0.285099
9   -0.267477
10   -0.284672
11   -0.011375
12   0.006789
13   -0.129865
14   -0.139096
15   0.004302
16   0.150501
17   0.153953
18   0.152451
19   0.152848
20   0.155282
21   0.153998
22   0.156133
23   0.154668
24   0.148542
25   0.148855
26   0.150658
27   0.145993
28   0.143609
29   0.143669
30   0.147937
31   0.146231
32   0.142466
33   0.146137
34   0.142533
35   0.143812
36   0.146336
37   0.143255
38   0.143711
39   0.141669

$$$$

