PCCDB-ID:  7468
public computational chemistry database (PCCDB) project, http://pccdb.org

 19 19  0  0  0  0  0  0  0  0999 V2000
    3.1493    1.3318   -0.3733 C   0  0  0  0  0  0  0  0  0  0  0  0
    2.8760   -2.3339    0.8422 C   0  0  0  0  0  0  0  0  0  0  0  0
    4.4268   -0.6183    1.5168 C   0  0  0  0  0  0  0  0  0  0  0  0
    3.4679   -3.2261    1.7197 C   0  0  0  0  0  0  0  0  0  0  0  0
    5.0300   -1.5042    2.3998 C   0  0  0  0  0  0  0  0  0  0  0  0
    2.6600   -0.1051   -0.2453 C   0  0  0  0  0  0  0  0  0  0  0  0
    3.3394   -1.0116    0.7192 C   0  0  0  0  0  0  0  0  0  0  0  0
    4.5598   -2.8259    2.5172 C   0  0  0  0  0  0  0  0  0  0  0  0
    5.1229   -3.7002    3.4350 N   0  0  0  0  0  0  0  0  0  0  0  0
    1.7223   -0.4969   -0.9289 O   0  0  0  0  0  0  0  0  0  0  0  0
    4.1994    1.3672   -0.6876 H   0  0  0  0  0  0  0  0  0  0  0  0
    3.0750    1.8635    0.5829 H   0  0  0  0  0  0  0  0  0  0  0  0
    2.5349    1.8422   -1.1171 H   0  0  0  0  0  0  0  0  0  0  0  0
    2.0374   -2.6392    0.2247 H   0  0  0  0  0  0  0  0  0  0  0  0
    4.8158    0.3934    1.4504 H   0  0  0  0  0  0  0  0  0  0  0  0
    3.0917   -4.2436    1.8017 H   0  0  0  0  0  0  0  0  0  0  0  0
    5.8696   -1.1788    3.0098 H   0  0  0  0  0  0  0  0  0  0  0  0
    4.9762   -4.6860    3.2622 H   0  0  0  0  0  0  0  0  0  0  0  0
    6.0664   -3.4915    3.7340 H   0  0  0  0  0  0  0  0  0  0  0  0
  1  6  1  0  0  0  0
  1 12  1  0  0  0  0
  2  4  1  0  0  0  0
  3  5  2  0  0  0  0
  4 16  1  0  0  0  0
  4  8  2  0  0  0  0
  5  8  1  0  0  0  0
  5 17  1  0  0  0  0
  6  7  1  0  0  0  0
  7  2  2  0  0  0  0
  7  3  1  0  0  0  0
  8  9  1  0  0  0  0
  9 19  1  0  0  0  0
 10  6  2  0  0  0  0
 11  1  1  0  0  0  0
 13  1  1  0  0  0  0
 14  2  1  0  0  0  0
 15  3  1  0  0  0  0
 18  9  1  0  0  0  0
M  END
>  <HBA>
2

>  <HBD>
1

>  <TPSA>
43.09

>  <cid>
7468

>  <dipole>
4.84

>  <excitation_energy_1>
3.861

>  <excitation_energy_2>
4.461

>  <excitation_energy_3>
4.654

>  <excitation_energy_4>
4.94

>  <homo_energy>
-5.766

>  <homo_lumo_gap>
4.767

>  <logP>
2.053

>  <lumo_energy>
-0.999

>  <melting_point>
88.37

>  <molecular_refractivity>
41.04

>  <oscillator_strength_1>
0.0001

>  <oscillator_strength_2>
0.4001

>  <oscillator_strength_3>
0.005

>  <oscillator_strength_4>
0.0028

>  <open_babel_can_smiles>
CC(=O)c1ccc(cc1)N

>  <mulliken_charges>
19
1   -0.542075
2   -0.168676
3   -0.190903
4   -0.174066
5   -0.177867
6   0.400745
7   0.074956
8   0.333268
9   -0.790166
10   -0.468578
11   0.165045
12   0.166092
13   0.177486
14   0.161998
15   0.131706
16   0.123995
17   0.120909
18   0.32858
19   0.32755

>  <lowdin_charges>
19
1   -0.476909
2   -0.115738
3   -0.136315
4   -0.199745
5   -0.204838
6   0.156788
7   -0.080661
8   0.076587
9   -0.470301
10   -0.259708
11   0.165092
12   0.166633
13   0.17396
14   0.176931
15   0.160007
16   0.154568
17   0.154914
18   0.279462
19   0.279274

$$$$

