PCCDB-ID:  21227
public computational chemistry database (PCCDB) project, http://pccdb.org

 18 18  0  0  1  0  0  0  0  0999 V2000
    0.8992   -0.0531    0.2232 C   0  0  0  0  0  0  0  0  0  0  0  0
    5.5562    0.7137   -0.5189 C   0  0  0  0  0  0  0  0  0  0  0  0
    3.0138    1.0277   -0.8586 C   0  0  0  0  0  0  0  0  0  0  0  0
    2.4217   -0.0139    0.1006 C   0  0  2  0  0  0  0  0  0  0  0  0
    4.3207    0.3626   -1.3400 C   0  0  2  0  0  0  0  0  0  0  0  0
    2.9982   -1.3262   -0.4378 C   0  0  0  0  0  0  0  0  0  0  0  0
    2.6161   -2.4464   -0.2153 O   0  0  0  0  0  0  0  0  0  0  0  0
    4.0657   -1.0647   -1.2431 O   0  0  0  0  0  0  0  0  0  0  0  0
    0.5195    0.8596    0.6946 H   0  0  0  0  0  0  0  0  0  0  0  0
    0.5925   -0.9128    0.8260 H   0  0  0  0  0  0  0  0  0  0  0  0
    0.4294   -0.1494   -0.7623 H   0  0  0  0  0  0  0  0  0  0  0  0
    5.8239    1.7658   -0.6695 H   0  0  0  0  0  0  0  0  0  0  0  0
    6.4049    0.0938   -0.8234 H   0  0  0  0  0  0  0  0  0  0  0  0
    5.3824    0.5532    0.5513 H   0  0  0  0  0  0  0  0  0  0  0  0
    3.1931    2.0017   -0.3937 H   0  0  0  0  0  0  0  0  0  0  0  0
    2.3344    1.1796   -1.7058 H   0  0  0  0  0  0  0  0  0  0  0  0
    2.8554    0.1145    1.1034 H   0  0  0  0  0  0  0  0  0  0  0  0
    4.5116    0.5589   -2.3992 H   0  0  0  0  0  0  0  0  0  0  0  0
  1  9  1  0  0  0  0
  1 10  1  0  0  0  0
  2 14  1  0  0  0  0
  3 15  1  0  0  0  0
  3  4  1  0  0  0  0
  4  1  1  0  0  0  0
  4 17  1  1  0  0  0
  5 18  1  6  0  0  0
  5  8  1  0  0  0  0
  5  3  1  0  0  0  0
  5  2  1  0  0  0  0
  6  7  2  0  0  0  0
  6  4  1  0  0  0  0
  8  6  1  0  0  0  0
 11  1  1  0  0  0  0
 12  2  1  0  0  0  0
 13  2  1  0  0  0  0
 16  3  1  0  0  0  0
M  END
>  <HBA>
2

>  <HBD>
0

>  <TPSA>
26.3

>  <cid>
21227

>  <dipole>
4.4

>  <excitation_energy_1>
5.602

>  <excitation_energy_2>
6.727

>  <excitation_energy_3>
7.074

>  <excitation_energy_4>
7.18

>  <homo_energy>
-7.113

>  <homo_lumo_gap>
7.489

>  <logP>
0.958

>  <lumo_energy>
0.376

>  <melting_point>
8.46

>  <molecular_refractivity>
30.13

>  <oscillator_strength_1>
0.0005

>  <oscillator_strength_2>
0.0025

>  <oscillator_strength_3>
0.0111

>  <oscillator_strength_4>
0.0582

>  <open_babel_can_smiles>
C[C@@H]1C[C@H](C(=O)O1)C

>  <mulliken_charges>
18
1   -0.447095
2   -0.45439
3   -0.306823
4   -0.200311
5   0.125494
6   0.62574
7   -0.463961
8   -0.457489
9   0.147374
10   0.176814
11   0.152568
12   0.150362
13   0.171142
14   0.152687
15   0.153244
16   0.155098
17   0.168979
18   0.150567

>  <lowdin_charges>
18
1   -0.437058
2   -0.451627
3   -0.292824
4   -0.160848
5   0.010415
6   0.187207
7   -0.239744
8   -0.191838
9   0.153328
10   0.169411
11   0.153517
12   0.156037
13   0.166466
14   0.152682
15   0.156674
16   0.155094
17   0.164093
18   0.149015

$$$$

