PCCDB-ID:  12041
public computational chemistry database (PCCDB) project, http://pccdb.org

 16 15  0  0  0  0  0  0  0  0999 V2000
    3.2273   -0.7738   -2.7957 C   0  0  0  0  0  0  0  0  0  0  0  0
    6.9696   -0.4148    1.3289 C   0  0  0  0  0  0  0  0  0  0  0  0
    2.9353   -1.2814   -1.3922 C   0  0  0  0  0  0  0  0  0  0  0  0
    5.5704   -0.0009    0.9443 C   0  0  0  0  0  0  0  0  0  0  0  0
    4.9082   -0.8963   -0.1328 C   0  0  0  0  0  0  0  0  0  0  0  0
    4.9822    0.9483    1.4115 O   0  0  0  0  0  0  0  0  0  0  0  0
    5.4907   -1.8289   -0.6484 O   0  0  0  0  0  0  0  0  0  0  0  0
    3.6572   -0.5118   -0.3953 O   0  0  0  0  0  0  0  0  0  0  0  0
    2.6079   -1.3155   -3.5195 H   0  0  0  0  0  0  0  0  0  0  0  0
    4.2773   -0.9347   -3.0561 H   0  0  0  0  0  0  0  0  0  0  0  0
    3.0001    0.2938   -2.8780 H   0  0  0  0  0  0  0  0  0  0  0  0
    6.9743   -1.4493    1.6903 H   0  0  0  0  0  0  0  0  0  0  0  0
    7.3493    0.2582    2.0994 H   0  0  0  0  0  0  0  0  0  0  0  0
    7.6246   -0.3939    0.4505 H   0  0  0  0  0  0  0  0  0  0  0  0
    3.2055   -2.3349   -1.2839 H   0  0  0  0  0  0  0  0  0  0  0  0
    1.8857   -1.1434   -1.1238 H   0  0  0  0  0  0  0  0  0  0  0  0
  1  3  1  0  0  0  0
  2 12  1  0  0  0  0
  2 13  1  0  0  0  0
  3 15  1  0  0  0  0
  3 16  1  0  0  0  0
  3  8  1  0  0  0  0
  4  2  1  0  0  0  0
  4  6  2  0  0  0  0
  5  4  1  0  0  0  0
  7  5  2  0  0  0  0
  8  5  1  0  0  0  0
  9  1  1  0  0  0  0
 10  1  1  0  0  0  0
 11  1  1  0  0  0  0
 14  2  1  0  0  0  0
M  END
>  <HBA>
3

>  <HBD>
0

>  <TPSA>
43.37

>  <cid>
12041

>  <dipole>
1.53

>  <excitation_energy_1>
3.289

>  <excitation_energy_2>
5.062

>  <excitation_energy_3>
5.826

>  <excitation_energy_4>
6.36

>  <homo_energy>
-6.879

>  <homo_lumo_gap>
4.923

>  <logP>
0.139

>  <lumo_energy>
-1.957

>  <melting_point>
7.93

>  <molecular_refractivity>
27.63

>  <oscillator_strength_1>
0.0

>  <oscillator_strength_2>
0.0006

>  <oscillator_strength_3>
0.0422

>  <oscillator_strength_4>
0.0008

>  <open_babel_can_smiles>
CCOC(=O)C(=O)C

>  <mulliken_charges>
16
1   -0.464538
2   -0.522041
3   -0.050603
4   0.389632
5   0.565576
6   -0.401252
7   -0.471485
8   -0.433392
9   0.155408
10   0.175812
11   0.166042
12   0.187395
13   0.179213
14   0.188463
15   0.172367
16   0.163402

>  <lowdin_charges>
16
1   -0.452742
2   -0.467661
3   -0.12244
4   0.139771
5   0.157639
6   -0.184458
7   -0.254376
8   -0.156636
9   0.163074
10   0.163981
11   0.15917
12   0.181728
13   0.174724
14   0.18376
15   0.157889
16   0.156577

$$$$

