PCCDB-ID:  49606
public computational chemistry database (PCCDB) project, http://pccdb.org

 39 39  0  0  0  0  0  0  0  0999 V2000
    6.8954    1.1858    2.3936 C   0  0  0  0  0  0  0  0  0  0  0  0
    8.6306    0.4351   -1.8071 C   0  0  0  0  0  0  0  0  0  0  0  0
   10.4848   -0.8051    2.7894 C   0  0  0  0  0  0  0  0  0  0  0  0
    7.2459    0.6350    1.0036 C   0  0  0  0  0  0  0  0  0  0  0  0
   12.1629    0.4221   -0.4029 C   0  0  0  0  0  0  0  0  0  0  0  0
   11.0729    0.5773   -1.2536 C   0  0  0  0  0  0  0  0  0  0  0  0
   11.9589   -0.0290    0.8994 C   0  0  0  0  0  0  0  0  0  0  0  0
    7.0129   -2.3007    2.1173 C   0  0  0  0  0  0  0  0  0  0  0  0
    7.8009   -1.7980    0.8956 C   0  0  0  0  0  0  0  0  0  0  0  0
    9.7705    0.2957   -0.8210 C   0  0  0  0  0  0  0  0  0  0  0  0
   10.6733   -0.3089    1.3751 C   0  0  0  0  0  0  0  0  0  0  0  0
    9.5670   -0.1286    0.5123 C   0  0  0  0  0  0  0  0  0  0  0  0
    7.6362   -4.6718    2.3431 C   0  0  0  0  0  0  0  0  0  0  0  0
    8.8300   -4.3272    2.6692 N   0  0  0  0  0  0  0  0  0  0  0  0
    7.1029   -5.9728    2.3251 N   0  0  0  0  0  0  0  0  0  0  0  0
    6.6890   -3.7224    1.9839 N   0  0  0  0  0  0  0  0  0  0  0  0
    8.2594   -0.4192    1.0259 N   0  0  0  0  0  0  0  0  0  0  0  0
    6.1395    1.9781    2.3143 H   0  0  0  0  0  0  0  0  0  0  0  0
    7.7852    1.6102    2.8711 H   0  0  0  0  0  0  0  0  0  0  0  0
    6.5025    0.4050    3.0528 H   0  0  0  0  0  0  0  0  0  0  0  0
    8.9919    0.2848   -2.8299 H   0  0  0  0  0  0  0  0  0  0  0  0
    8.1701    1.4318   -1.7742 H   0  0  0  0  0  0  0  0  0  0  0  0
    7.8359   -0.2925   -1.6196 H   0  0  0  0  0  0  0  0  0  0  0  0
   11.4235   -0.7351    3.3492 H   0  0  0  0  0  0  0  0  0  0  0  0
   10.1535   -1.8511    2.8155 H   0  0  0  0  0  0  0  0  0  0  0  0
    9.7224   -0.2211    3.3156 H   0  0  0  0  0  0  0  0  0  0  0  0
    7.6035    1.4688    0.3903 H   0  0  0  0  0  0  0  0  0  0  0  0
    6.3326    0.2613    0.5124 H   0  0  0  0  0  0  0  0  0  0  0  0
   13.1679    0.6393   -0.7559 H   0  0  0  0  0  0  0  0  0  0  0  0
   11.2284    0.9021   -2.2804 H   0  0  0  0  0  0  0  0  0  0  0  0
   12.8082   -0.1618    1.5657 H   0  0  0  0  0  0  0  0  0  0  0  0
    6.0631   -1.7631    2.2058 H   0  0  0  0  0  0  0  0  0  0  0  0
    7.5990   -2.1188    3.0247 H   0  0  0  0  0  0  0  0  0  0  0  0
    7.1740   -1.9458   -0.0045 H   0  0  0  0  0  0  0  0  0  0  0  0
    8.6798   -2.4362    0.7864 H   0  0  0  0  0  0  0  0  0  0  0  0
    9.4235   -5.1456    2.8103 H   0  0  0  0  0  0  0  0  0  0  0  0
    7.8063   -6.6977    2.4014 H   0  0  0  0  0  0  0  0  0  0  0  0
    6.4836   -6.1488    1.5401 H   0  0  0  0  0  0  0  0  0  0  0  0
    5.7497   -3.9743    2.2640 H   0  0  0  0  0  0  0  0  0  0  0  0
  1 19  1  0  0  0  0
  1 20  1  0  0  0  0
  2 22  1  0  0  0  0
  2 23  1  0  0  0  0
  2 10  1  0  0  0  0
  3 25  1  0  0  0  0
  3 26  1  0  0  0  0
  3 24  1  0  0  0  0
  4 17  1  0  0  0  0
  4  1  1  0  0  0  0
  5  7  2  0  0  0  0
  6 10  2  0  0  0  0
  6  5  1  0  0  0  0
  7 11  1  0  0  0  0
  7 31  1  0  0  0  0
  8 32  1  0  0  0  0
  8 33  1  0  0  0  0
  9 17  1  0  0  0  0
  9  8  1  0  0  0  0
 10 12  1  0  0  0  0
 11  3  1  0  0  0  0
 12 17  1  0  0  0  0
 12 11  2  0  0  0  0
 13 14  1  0  0  0  0
 14 36  1  0  0  0  0
 15 13  2  0  0  0  0
 15 37  1  0  0  0  0
 16  8  1  0  0  0  0
 16 39  1  0  0  0  0
 16 13  1  0  0  0  0
 18  1  1  0  0  0  0
 21  2  1  0  0  0  0
 27  4  1  0  0  0  0
 28  4  1  0  0  0  0
 29  5  1  0  0  0  0
 30  6  1  0  0  0  0
 34  9  1  0  0  0  0
 35  9  1  0  0  0  0
 38 15  1  0  0  0  0
M  RAD  1  14   2
M  END
>  <HBA>
4

>  <HBD>
2

>  <TPSA>
67.64

>  <cid>
49606

>  <dipole>
3.77

>  <excitation_energy_1>
4.49

>  <excitation_energy_2>
4.572

>  <excitation_energy_3>
4.653

>  <excitation_energy_4>
4.954

>  <homo_energy>
-5.151

>  <homo_lumo_gap>
5.565

>  <logP>
2.804

>  <lumo_energy>
0.414

>  <melting_point>
146.71

>  <molecular_refractivity>
74.1

>  <oscillator_strength_1>
0.0301

>  <oscillator_strength_2>
0.0127

>  <oscillator_strength_3>
0.0092

>  <oscillator_strength_4>
0.0314

>  <open_babel_can_smiles>
CCN(c1c(C)cccc1C)CCNC(=[NH2])[NH]

>  <mulliken_charges>
39
1   -0.433701
2   -0.535965
3   -0.544505
4   -0.127528
5   -0.113212
6   -0.207887
7   -0.210015
8   -0.12891
9   -0.116922
10   0.181495
11   0.181444
12   0.112522
13   0.583968
14   -0.638588
15   -0.757193
16   -0.605284
17   -0.473008
18   0.129387
19   0.153362
20   0.144582
21   0.151917
22   0.157085
23   0.162891
24   0.135395
25   0.203181
26   0.156966
27   0.143907
28   0.119981
29   0.118684
30   0.112877
31   0.115511
32   0.129536
33   0.176198
34   0.11121
35   0.180079
36   0.267342
37   0.319717
38   0.322601
39   0.320883

>  <lowdin_charges>
39
1   -0.456982
2   -0.442961
3   -0.45134
4   -0.194268
5   -0.161234
6   -0.174488
7   -0.176035
8   -0.204625
9   -0.20032
10   -0.016946
11   -0.001303
12   0.020994
13   0.126299
14   -0.480251
15   -0.513602
16   -0.307284
17   -0.165587
18   0.144532
19   0.153424
20   0.148113
21   0.155307
22   0.154753
23   0.160562
24   0.147612
25   0.176279
26   0.159915
27   0.149288
28   0.130121
29   0.152698
30   0.148678
31   0.152322
32   0.14176
33   0.157718
34   0.118937
35   0.168476
36   0.249009
37   0.276387
38   0.278282
39   0.275762

$$$$

