PCCDB-ID:  23358
public computational chemistry database (PCCDB) project, http://pccdb.org

 34 33  0  0  0  0  0  0  0  0999 V2000
    0.0770   -2.4809    1.3315 C   0  0  0  0  0  0  0  0  0  0  0  0
    2.5998   -3.9313   -0.8034 C   0  0  0  0  0  0  0  0  0  0  0  0
   -1.6703    0.8977   -1.9703 C   0  0  0  0  0  0  0  0  0  0  0  0
    0.8504   -0.5501   -4.1072 C   0  0  0  0  0  0  0  0  0  0  0  0
    1.0804   -1.6509    0.5209 C   0  0  0  0  0  0  0  0  0  0  0  0
    1.3705   -3.2715   -1.4428 C   0  0  0  0  0  0  0  0  0  0  0  0
   -0.4390    0.2396   -1.3330 C   0  0  0  0  0  0  0  0  0  0  0  0
   -0.1506   -1.3822   -3.2958 C   0  0  0  0  0  0  0  0  0  0  0  0
    1.1077   -1.8024   -1.0258 C   0  0  0  0  0  0  0  0  0  0  0  0
   -0.1770   -1.2299   -1.7491 C   0  0  0  0  0  0  0  0  0  0  0  0
    2.1841   -0.9677   -1.5030 O   0  0  0  0  0  0  0  0  0  0  0  0
   -1.2538   -2.0631   -1.2701 O   0  0  0  0  0  0  0  0  0  0  0  0
    0.2455   -2.3198    2.4031 H   0  0  0  0  0  0  0  0  0  0  0  0
    0.1862   -3.5536    1.1379 H   0  0  0  0  0  0  0  0  0  0  0  0
   -0.9525   -2.2096    1.0935 H   0  0  0  0  0  0  0  0  0  0  0  0
    2.7673   -4.9192   -1.2465 H   0  0  0  0  0  0  0  0  0  0  0  0
    2.4924   -4.0734    0.2771 H   0  0  0  0  0  0  0  0  0  0  0  0
    3.5117   -3.3462   -0.9796 H   0  0  0  0  0  0  0  0  0  0  0  0
   -1.8377    1.8861   -1.5280 H   0  0  0  0  0  0  0  0  0  0  0  0
   -2.5808    0.3115   -1.7910 H   0  0  0  0  0  0  0  0  0  0  0  0
   -1.5657    1.0387   -3.0512 H   0  0  0  0  0  0  0  0  0  0  0  0
    0.6897   -0.7215   -5.1784 H   0  0  0  0  0  0  0  0  0  0  0  0
    1.8806   -0.8105   -3.8606 H   0  0  0  0  0  0  0  0  0  0  0  0
    0.7302    0.5231   -3.9232 H   0  0  0  0  0  0  0  0  0  0  0  0
    2.0930   -1.9074    0.8672 H   0  0  0  0  0  0  0  0  0  0  0  0
    0.9616   -0.5897    0.7611 H   0  0  0  0  0  0  0  0  0  0  0  0
    0.4753   -3.8646   -1.2310 H   0  0  0  0  0  0  0  0  0  0  0  0
    1.5124   -3.2904   -2.5276 H   0  0  0  0  0  0  0  0  0  0  0  0
   -0.5787    0.2594   -0.2480 H   0  0  0  0  0  0  0  0  0  0  0  0
    0.4556    0.8330   -1.5471 H   0  0  0  0  0  0  0  0  0  0  0  0
   -0.0294   -2.4431   -3.5358 H   0  0  0  0  0  0  0  0  0  0  0  0
   -1.1640   -1.1278   -3.6416 H   0  0  0  0  0  0  0  0  0  0  0  0
    2.9617   -1.1623   -0.9577 H   0  0  0  0  0  0  0  0  0  0  0  0
   -2.0272   -1.8810   -1.8256 H   0  0  0  0  0  0  0  0  0  0  0  0
  1 13  1  0  0  0  0
  2 17  1  0  0  0  0
  3 20  1  0  0  0  0
  3 19  1  0  0  0  0
  3  7  1  0  0  0  0
  4 24  1  0  0  0  0
  4 23  1  0  0  0  0
  4  8  1  0  0  0  0
  5 26  1  0  0  0  0
  5 25  1  0  0  0  0
  5  1  1  0  0  0  0
  6 27  1  0  0  0  0
  6  9  1  0  0  0  0
  6  2  1  0  0  0  0
  7 29  1  0  0  0  0
  8 10  1  0  0  0  0
  9  5  1  0  0  0  0
 10  7  1  0  0  0  0
 10 12  1  0  0  0  0
 10  9  1  0  0  0  0
 11  9  1  0  0  0  0
 11 33  1  0  0  0  0
 14  1  1  0  0  0  0
 15  1  1  0  0  0  0
 16  2  1  0  0  0  0
 18  2  1  0  0  0  0
 21  3  1  0  0  0  0
 22  4  1  0  0  0  0
 28  6  1  0  0  0  0
 30  7  1  0  0  0  0
 31  8  1  0  0  0  0
 32  8  1  0  0  0  0
 34 12  1  0  0  0  0
M  END
>  <HBA>
2

>  <HBD>
2

>  <TPSA>
40.46

>  <cid>
23358

>  <dipole>
0.03

>  <excitation_energy_1>
6.321

>  <excitation_energy_2>
6.372

>  <excitation_energy_3>
6.846

>  <excitation_energy_4>
6.848

>  <homo_energy>
-6.825

>  <homo_lumo_gap>
8.642

>  <logP>
2.089

>  <lumo_energy>
1.818

>  <melting_point>
30.06

>  <molecular_refractivity>
52.58

>  <oscillator_strength_1>
0.0

>  <oscillator_strength_2>
0.0112

>  <oscillator_strength_3>
0.0015

>  <oscillator_strength_4>
0.0143

>  <open_babel_can_smiles>
CCC(C(CC)(CC)O)(CC)O

>  <mulliken_charges>
34
1   -0.444013
2   -0.468609
3   -0.468561
4   -0.444584
5   -0.30029
6   -0.273584
7   -0.272988
8   -0.301158
9   0.314415
10   0.314696
11   -0.656028
12   -0.656171
13   0.130459
14   0.142725
15   0.17446
16   0.14857
17   0.151823
18   0.127917
19   0.14841
20   0.128262
21   0.151439
22   0.130605
23   0.17494
24   0.14276
25   0.115907
26   0.145114
27   0.158648
28   0.141811
29   0.141772
30   0.158633
31   0.145023
32   0.116016
33   0.390762
34   0.390819

>  <lowdin_charges>
34
1   -0.447022
2   -0.449213
3   -0.449235
4   -0.447202
5   -0.287722
6   -0.29264
7   -0.292491
8   -0.287754
9   0.116869
10   0.116965
11   -0.45856
12   -0.458573
13   0.143037
14   0.145994
15   0.161798
16   0.154244
17   0.147106
18   0.138553
19   0.154149
20   0.138782
21   0.146881
22   0.143149
23   0.162018
24   0.145965
25   0.134452
26   0.147058
27   0.15806
28   0.147565
29   0.147606
30   0.158037
31   0.146965
32   0.134431
33   0.34033
34   0.340398

$$$$

