PCCDB-ID:  27596
public computational chemistry database (PCCDB) project, http://pccdb.org

 14 14  0  0  0  0  0  0  0  0999 V2000
    0.6922    1.2082   -0.2528 C   0  0  0  0  0  0  0  0  0  0  0  0
   -1.3716    0.0309   -0.2486 C   0  0  0  0  0  0  0  0  0  0  0  0
    1.5545    0.0735    0.2967 C   0  0  0  0  0  0  0  0  0  0  0  0
   -0.8314   -1.2882    0.3010 C   0  0  0  0  0  0  0  0  0  0  0  0
   -0.6457    1.1575    0.2237 O   0  0  0  0  0  0  0  0  0  0  0  0
    0.9116   -1.5728   -0.2091 S   0  0  0  0  0  0  0  0  0  0  0  0
    0.7070    1.1895   -1.3543 H   0  0  0  0  0  0  0  0  0  0  0  0
    1.0876    2.1734    0.0836 H   0  0  0  0  0  0  0  0  0  0  0  0
   -2.4025    0.1820    0.0912 H   0  0  0  0  0  0  0  0  0  0  0  0
   -1.3669    0.0069   -1.3501 H   0  0  0  0  0  0  0  0  0  0  0  0
    1.5978    0.1300    1.3898 H   0  0  0  0  0  0  0  0  0  0  0  0
    2.5748    0.1419   -0.0943 H   0  0  0  0  0  0  0  0  0  0  0  0
   -1.4106   -2.1324   -0.0868 H   0  0  0  0  0  0  0  0  0  0  0  0
   -0.8985   -1.2949    1.3945 H   0  0  0  0  0  0  0  0  0  0  0  0
  1  8  1  0  0  0  0
  1  5  1  0  0  0  0
  1  3  1  0  0  0  0
  2  9  1  0  0  0  0
  2  5  1  0  0  0  0
  2  4  1  0  0  0  0
  3 11  1  0  0  0  0
  4 14  1  0  0  0  0
  6  3  1  0  0  0  0
  6  4  1  0  0  0  0
  7  1  1  0  0  0  0
 10  2  1  0  0  0  0
 12  3  1  0  0  0  0
 13  4  1  0  0  0  0
M  END
>  <HBA>
2

>  <HBD>
0

>  <TPSA>
34.53

>  <cid>
27596

>  <dipole>
0.49

>  <excitation_energy_1>
5.168

>  <excitation_energy_2>
5.606

>  <excitation_energy_3>
5.976

>  <excitation_energy_4>
6.068

>  <homo_energy>
-5.997

>  <homo_lumo_gap>
6.953

>  <logP>
0.75

>  <lumo_energy>
0.955

>  <melting_point>
-2.64

>  <molecular_refractivity>
27.9

>  <oscillator_strength_1>
0.0008

>  <oscillator_strength_2>
0.0252

>  <oscillator_strength_3>
0.0334

>  <oscillator_strength_4>
0.0074

>  <open_babel_can_smiles>
C1COCCS1

>  <mulliken_charges>
14
1   -0.024581
2   -0.024757
3   -0.425313
4   -0.425348
5   -0.461002
6   0.080379
7   0.137332
8   0.151334
9   0.15136
10   0.137353
11   0.178374
12   0.173259
13   0.173264
14   0.178347

>  <lowdin_charges>
14
1   -0.133301
2   -0.132759
3   -0.388291
4   -0.390757
5   -0.274063
6   0.088419
7   0.133334
8   0.152631
9   0.151396
10   0.133317
11   0.158517
12   0.170717
13   0.172339
14   0.158501

$$$$

