PCCDB-ID:  10254
public computational chemistry database (PCCDB) project, http://pccdb.org

 23 23  0  0  0  0  0  0  0  0999 V2000
    1.0391   -0.1196    0.0728 C   0  0  0  0  0  0  0  0  0  0  0  0
    5.2510    2.6189   -0.0973 C   0  0  0  0  0  0  0  0  0  0  0  0
    5.4280   -2.5295   -0.2797 C   0  0  0  0  0  0  0  0  0  0  0  0
    3.2187    1.1676   -0.0181 C   0  0  0  0  0  0  0  0  0  0  0  0
    3.3025   -1.2290   -0.1037 C   0  0  0  0  0  0  0  0  0  0  0  0
    6.8340    0.1315   -0.2727 C   0  0  0  0  0  0  0  0  0  0  0  0
    2.5446   -0.0562   -0.0173 C   0  0  0  0  0  0  0  0  0  0  0  0
    4.6101    1.2436   -0.1019 C   0  0  0  0  0  0  0  0  0  0  0  0
    4.6950   -1.2122   -0.1897 C   0  0  0  0  0  0  0  0  0  0  0  0
    5.3618    0.0437   -0.1885 C   0  0  0  0  0  0  0  0  0  0  0  0
    7.6108   -0.8071   -0.3588 O   0  0  0  0  0  0  0  0  0  0  0  0
    0.5982    0.8790    0.1483 H   0  0  0  0  0  0  0  0  0  0  0  0
    0.7185   -0.6968    0.9488 H   0  0  0  0  0  0  0  0  0  0  0  0
    0.6098   -0.6116   -0.8088 H   0  0  0  0  0  0  0  0  0  0  0  0
    4.4789    3.3916   -0.0362 H   0  0  0  0  0  0  0  0  0  0  0  0
    5.8339    2.8102   -1.0055 H   0  0  0  0  0  0  0  0  0  0  0  0
    5.9243    2.7617    0.7559 H   0  0  0  0  0  0  0  0  0  0  0  0
    4.7133   -3.3586   -0.2577 H   0  0  0  0  0  0  0  0  0  0  0  0
    6.1389   -2.6539    0.5426 H   0  0  0  0  0  0  0  0  0  0  0  0
    6.0224   -2.5995   -1.1957 H   0  0  0  0  0  0  0  0  0  0  0  0
    2.6437    2.0887    0.0478 H   0  0  0  0  0  0  0  0  0  0  0  0
    2.7918   -2.1900   -0.1045 H   0  0  0  0  0  0  0  0  0  0  0  0
    7.2410    1.1618   -0.2526 H   0  0  0  0  0  0  0  0  0  0  0  0
  1 12  1  0  0  0  0
  1 13  1  0  0  0  0
  2 15  1  0  0  0  0
  2 17  1  0  0  0  0
  3 18  1  0  0  0  0
  3  9  1  0  0  0  0
  3 19  1  0  0  0  0
  4  7  1  0  0  0  0
  4 21  1  0  0  0  0
  5  7  2  0  0  0  0
  6 23  1  0  0  0  0
  6 10  1  0  0  0  0
  7  1  1  0  0  0  0
  8  2  1  0  0  0  0
  8  4  2  0  0  0  0
  9 10  2  0  0  0  0
  9  5  1  0  0  0  0
 10  8  1  0  0  0  0
 11  6  2  0  0  0  0
 14  1  1  0  0  0  0
 16  2  1  0  0  0  0
 20  3  1  0  0  0  0
 22  5  1  0  0  0  0
M  END
>  <HBA>
1

>  <HBD>
0

>  <TPSA>
17.07

>  <cid>
10254

>  <dipole>
3.44

>  <excitation_energy_1>
3.524

>  <excitation_energy_2>
4.325

>  <excitation_energy_3>
4.829

>  <excitation_energy_4>
5.535

>  <homo_energy>
-6.544

>  <homo_lumo_gap>
5.004

>  <logP>
2.424

>  <lumo_energy>
-1.54

>  <melting_point>
51.6

>  <molecular_refractivity>
46.73

>  <oscillator_strength_1>
0.0

>  <oscillator_strength_2>
0.0471

>  <oscillator_strength_3>
0.2792

>  <oscillator_strength_4>
0.0

>  <open_babel_can_smiles>
O=Cc1c(C)cc(cc1C)C

>  <mulliken_charges>
23
1   -0.534768
2   -0.541578
3   -0.50275
4   -0.260363
5   -0.247157
6   0.175548
7   0.212583
8   0.142507
9   0.13831
10   0.003555
11   -0.423915
12   0.158879
13   0.168605
14   0.16899
15   0.1606
16   0.170875
17   0.170911
18   0.137997
19   0.178023
20   0.177998
21   0.119795
22   0.121379
23   0.103977

>  <lowdin_charges>
23
1   -0.44298
2   -0.449441
3   -0.440557
4   -0.18878
5   -0.183097
6   0.039548
7   0.024545
8   0.019308
9   0.038043
10   -0.079308
11   -0.240022
12   0.158177
13   0.165597
14   0.165868
15   0.160246
16   0.164269
17   0.164491
18   0.147875
19   0.172826
20   0.172391
21   0.15385
22   0.154605
23   0.122546

$$$$

