PCCDB-ID:  19918
public computational chemistry database (PCCDB) project, http://pccdb.org

 30 31  0  0  1  0  0  0  0  0999 V2000
    3.1702   -1.4200   -0.6908 C   0  0  0  0  0  0  0  0  0  0  0  0
   -0.4372    4.3511    2.8054 C   0  0  0  0  0  0  0  0  0  0  0  0
    2.2578    7.3012    1.2023 C   0  0  0  0  0  0  0  0  0  0  0  0
    2.6642   -0.1866    0.0584 C   0  0  0  0  0  0  0  0  0  0  0  0
    1.9225    2.4976    1.2383 C   0  0  0  0  0  0  0  0  0  0  0  0
    2.8881    4.8293   -0.0014 C   0  0  0  0  0  0  0  0  0  0  0  0
    4.2661    2.3091   -2.1212 C   0  0  0  0  0  0  0  0  0  0  0  0
    2.7358    2.3762    0.0809 C   0  0  0  0  0  0  0  0  0  0  0  0
    3.1148    1.1383   -0.5238 C   0  0  2  0  0  0  0  0  0  0  0  0
    3.2143    3.5617   -0.5466 C   0  0  0  0  0  0  0  0  0  0  0  0
    1.6061    3.7294    1.7588 C   0  0  0  0  0  0  0  0  0  0  0  0
    2.1077    4.9229    1.1333 C   0  0  0  0  0  0  0  0  0  0  0  0
    3.8699    1.1151   -1.6111 N   0  0  0  0  0  0  0  0  0  0  0  0
    3.9929    3.5123   -1.6674 N   0  0  0  0  0  0  0  0  0  0  0  0
    0.8788    3.7994    2.9177 O   0  0  0  0  0  0  0  0  0  0  0  0
    1.7651    6.0835    1.7495 O   0  0  0  0  0  0  0  0  0  0  0  0
    2.7979   -2.3300   -0.2077 H   0  0  0  0  0  0  0  0  0  0  0  0
    4.2631   -1.4545   -0.7027 H   0  0  0  0  0  0  0  0  0  0  0  0
    2.8350   -1.4154   -1.7316 H   0  0  0  0  0  0  0  0  0  0  0  0
   -1.0478    3.7578    2.1120 H   0  0  0  0  0  0  0  0  0  0  0  0
   -0.4095    5.3930    2.4742 H   0  0  0  0  0  0  0  0  0  0  0  0
   -0.8702    4.2959    3.8065 H   0  0  0  0  0  0  0  0  0  0  0  0
    1.8753    8.0927    1.8483 H   0  0  0  0  0  0  0  0  0  0  0  0
    1.8953    7.4543    0.1782 H   0  0  0  0  0  0  0  0  0  0  0  0
    3.3544    7.3211    1.2058 H   0  0  0  0  0  0  0  0  0  0  0  0
    2.9839   -0.2297    1.1095 H   0  0  0  0  0  0  0  0  0  0  0  0
    1.5650   -0.1942    0.0909 H   0  0  0  0  0  0  0  0  0  0  0  0
    1.5370    1.6212    1.7477 H   0  0  0  0  0  0  0  0  0  0  0  0
    3.2859    5.7017   -0.5045 H   0  0  0  0  0  0  0  0  0  0  0  0
    4.8858    2.2511   -3.0148 H   0  0  0  0  0  0  0  0  0  0  0  0
  1 17  1  0  0  0  0
  1  4  1  0  0  0  0
  2 15  1  0  0  0  0
  2 22  1  0  0  0  0
  3 25  1  0  0  0  0
  3 16  1  0  0  0  0
  3 23  1  0  0  0  0
  4 27  1  0  0  0  0
  4 26  1  0  0  0  0
  5 28  1  0  0  0  0
  5 11  1  0  0  0  0
  6 12  1  0  0  0  0
  7 14  1  0  0  0  0
  7 13  2  0  0  0  0
  8  5  2  0  0  0  0
  9  4  1  6  0  0  0
  9  8  1  0  0  0  0
 10  6  2  0  0  0  0
 10  8  1  0  0  0  0
 11 15  1  0  0  0  0
 12 16  1  0  0  0  0
 12 11  2  0  0  0  0
 13  9  1  0  0  0  0
 14 10  1  0  0  0  0
 18  1  1  0  0  0  0
 19  1  1  0  0  0  0
 20  2  1  0  0  0  0
 21  2  1  0  0  0  0
 24  3  1  0  0  0  0
 29  6  1  0  0  0  0
 30  7  1  0  0  0  0
M  RAD  2   9   2  14   2
M  END
>  <HBA>
4

>  <HBD>
0

>  <TPSA>
44.24

>  <cid>
19918

>  <dipole>
3.34

>  <excitation_energy_1>
3.962

>  <excitation_energy_2>
4.27

>  <excitation_energy_3>
4.382

>  <excitation_energy_4>
4.854

>  <homo_energy>
-6.267

>  <homo_lumo_gap>
4.865

>  <logP>
2.209

>  <lumo_energy>
-1.401

>  <melting_point>
95.05

>  <molecular_refractivity>
62.3

>  <oscillator_strength_1>
0.0021

>  <oscillator_strength_2>
0.1086

>  <oscillator_strength_3>
0.0194

>  <oscillator_strength_4>
0.0009

>  <open_babel_can_smiles>
CC[C]1N=C[N]c2c1cc(OC)c(c2)OC

>  <mulliken_charges>
30
1   -0.426115
2   -0.214145
3   -0.220711
4   -0.337087
5   -0.275224
6   -0.251848
7   0.157386
8   0.139259
9   0.273304
10   0.24671
11   0.340552
12   0.362191
13   -0.474479
14   -0.48068
15   -0.51918
16   -0.505827
17   0.134727
18   0.16025
19   0.16059
20   0.142153
21   0.164625
22   0.163824
23   0.175111
24   0.16128
25   0.164808
26   0.160214
27   0.15768
28   0.145417
29   0.150636
30   0.144582

>  <lowdin_charges>
30
1   -0.435595
2   -0.273849
3   -0.273732
4   -0.278862
5   -0.174953
6   -0.21916
7   -0.046348
8   -0.050456
9   0.077113
10   0.054972
11   0.079038
12   0.091802
13   -0.179107
14   -0.167884
15   -0.218931
16   -0.183596
17   0.147838
18   0.156652
19   0.157668
20   0.141823
21   0.149648
22   0.158666
23   0.166893
24   0.149808
25   0.150972
26   0.157353
27   0.155538
28   0.173505
29   0.177114
30   0.156067

$$$$

