PCCDB-ID:  2927
public computational chemistry database (PCCDB) project, http://pccdb.org

 27 26  0  0  1  0  0  0  0  0999 V2000
    0.2328   -0.0058    0.1558 C   0  0  0  0  0  0  0  0  0  0  0  0
    0.7341    1.1327   -0.7442 C   0  0  0  0  0  0  0  0  0  0  0  0
    1.2903   -0.4555    1.1732 C   0  0  0  0  0  0  0  0  0  0  0  0
   -0.3319    1.5715   -1.7624 C   0  0  0  0  0  0  0  0  0  0  0  0
    0.8313   -1.5342    2.1805 C   0  0  1  0  0  0  0  0  0  0  0  0
    0.4911   -2.8420    1.4396 C   0  0  0  0  0  0  0  0  0  0  0  0
    1.8742   -1.7237    3.1850 N   0  0  0  0  0  0  0  0  0  0  0  0
    1.2927   -3.7262    1.2626 O   0  0  0  0  0  0  0  0  0  0  0  0
   -0.7739   -2.9611    0.9501 O   0  0  0  0  0  0  0  0  0  0  0  0
    0.6055    4.0700   -1.8209 O   0  0  0  0  0  0  0  0  0  0  0  0
    1.5482    2.3600   -3.5238 O   0  0  0  0  0  0  0  0  0  0  0  0
   -0.8204    3.3721   -3.8996 O   0  0  0  0  0  0  0  0  0  0  0  0
    0.1557    2.9133   -2.8767 P   0  0  0  0  0  0  0  0  0  0  0  0
   -0.0738   -0.8516   -0.4738 H   0  0  0  0  0  0  0  0  0  0  0  0
   -0.6689    0.3342    0.6902 H   0  0  0  0  0  0  0  0  0  0  0  0
    1.6348    0.8089   -1.2794 H   0  0  0  0  0  0  0  0  0  0  0  0
    1.0247    1.9906   -0.1268 H   0  0  0  0  0  0  0  0  0  0  0  0
    1.6250    0.3991    1.7719 H   0  0  0  0  0  0  0  0  0  0  0  0
    2.1743   -0.8353    0.6421 H   0  0  0  0  0  0  0  0  0  0  0  0
   -1.2414    1.9132   -1.2534 H   0  0  0  0  0  0  0  0  0  0  0  0
   -0.6209    0.7320   -2.4064 H   0  0  0  0  0  0  0  0  0  0  0  0
   -0.0681   -1.1678    2.6974 H   0  0  0  0  0  0  0  0  0  0  0  0
    2.6439   -2.2247    2.7386 H   0  0  0  0  0  0  0  0  0  0  0  0
    1.5345   -2.3594    3.9067 H   0  0  0  0  0  0  0  0  0  0  0  0
   -1.2937   -2.1753    1.1872 H   0  0  0  0  0  0  0  0  0  0  0  0
    0.4726    4.9486   -2.2157 H   0  0  0  0  0  0  0  0  0  0  0  0
    1.5775    2.5946   -4.4666 H   0  0  0  0  0  0  0  0  0  0  0  0
  1 15  1  0  0  0  0
  1  3  1  0  0  0  0
  2 17  1  0  0  0  0
  2  1  1  0  0  0  0
  3 18  1  0  0  0  0
  3  5  1  0  0  0  0
  4 20  1  0  0  0  0
  4  2  1  0  0  0  0
  5 22  1  1  0  0  0
  5  7  1  0  0  0  0
  6  5  1  0  0  0  0
  7 24  1  0  0  0  0
  8  6  2  0  0  0  0
  9 25  1  0  0  0  0
  9  6  1  0  0  0  0
 11 13  1  0  0  0  0
 12 13  2  0  0  0  0
 13 10  1  0  0  0  0
 13  4  1  0  0  0  0
 14  1  1  0  0  0  0
 16  2  1  0  0  0  0
 19  3  1  0  0  0  0
 21  4  1  0  0  0  0
 23  7  1  0  0  0  0
 26 10  1  0  0  0  0
 27 11  1  0  0  0  0
M  END
>  <HBA>
6

>  <HBD>
4

>  <TPSA>
130.66

>  <cid>
2927

>  <dipole>
2.64

>  <excitation_energy_1>
5.468

>  <excitation_energy_2>
5.858

>  <excitation_energy_3>
5.995

>  <excitation_energy_4>
6.285

>  <homo_energy>
-6.855

>  <homo_lumo_gap>
6.863

>  <logP>
0.447

>  <lumo_energy>
0.008

>  <melting_point>
191.18

>  <molecular_refractivity>
46.42

>  <oscillator_strength_1>
0.0049

>  <oscillator_strength_2>
0.0004

>  <oscillator_strength_3>
0.0061

>  <oscillator_strength_4>
0.0017

>  <open_babel_can_smiles>
OC(=O)[C@H](CCCCP(=O)(O)O)N

>  <mulliken_charges>
27
1   -0.292941
2   -0.274534
3   -0.248411
4   -0.482386
5   -0.102355
6   0.580308
7   -0.692912
8   -0.445315
9   -0.562498
10   -0.658503
11   -0.66056
12   -0.558504
13   1.055259
14   0.151339
15   0.123633
16   0.16969
17   0.167721
18   0.167334
19   0.152957
20   0.184436
21   0.187462
22   0.131886
23   0.314335
24   0.304028
25   0.411035
26   0.438586
27   0.438913

>  <lowdin_charges>
27
1   -0.288378
2   -0.271935
3   -0.275262
4   -0.448734
5   -0.112455
6   0.177957
7   -0.53181
8   -0.244467
9   -0.356261
10   -0.578332
11   -0.582488
12   -0.605081
13   1.045004
14   0.147624
15   0.134431
16   0.160531
17   0.159485
18   0.162579
19   0.153604
20   0.180611
21   0.182435
22   0.142682
23   0.266169
24   0.261227
25   0.357591
26   0.38187
27   0.381403

$$$$

