PCCDB-ID:  48589
public computational chemistry database (PCCDB) project, http://pccdb.org

 33 33  0  0  0  0  0  0  0  0999 V2000
    1.9400    0.1083   -2.8659 C   0  0  0  0  0  0  0  0  0  0  0  0
    2.4624   -2.3283   -2.8236 C   0  0  0  0  0  0  0  0  0  0  0  0
    7.3311    1.1362    0.6596 C   0  0  0  0  0  0  0  0  0  0  0  0
    7.7137   -1.3255    0.7391 C   0  0  0  0  0  0  0  0  0  0  0  0
    3.2330   -0.7341   -0.9272 C   0  0  0  0  0  0  0  0  0  0  0  0
    5.3361   -0.3229    0.4736 C   0  0  0  0  0  0  0  0  0  0  0  0
    2.5187   -0.9303   -2.2541 C   0  0  0  0  0  0  0  0  0  0  0  0
    6.8332   -0.1041    0.6169 C   0  0  0  0  0  0  0  0  0  0  0  0
    5.1660    0.6103   -1.8814 C   0  0  0  0  0  0  0  0  0  0  0  0
    5.4458   -1.8095   -1.5878 C   0  0  0  0  0  0  0  0  0  0  0  0
    6.4345   -0.6606   -3.3510 C   0  0  0  0  0  0  0  0  0  0  0  0
    4.7981   -0.5704   -0.9870 C   0  0  0  0  0  0  0  0  0  0  0  0
    5.8879    0.5760   -2.9264 N   0  0  0  0  0  0  0  0  0  0  0  0
    6.1716   -1.8593   -2.6305 N   0  0  0  0  0  0  0  0  0  0  0  0
    4.6755    1.8199   -1.5212 O   0  0  0  0  0  0  0  0  0  0  0  0
    5.2279   -2.9817   -0.9427 O   0  0  0  0  0  0  0  0  0  0  0  0
    7.1328   -0.7033   -4.3377 O   0  0  0  0  0  0  0  0  0  0  0  0
    1.4235   -0.0079   -3.8146 H   0  0  0  0  0  0  0  0  0  0  0  0
    1.9749    1.1149   -2.4574 H   0  0  0  0  0  0  0  0  0  0  0  0
    1.8558   -2.3528   -3.7332 H   0  0  0  0  0  0  0  0  0  0  0  0
    2.0207   -3.0296   -2.1024 H   0  0  0  0  0  0  0  0  0  0  0  0
    3.4557   -2.7161   -3.0758 H   0  0  0  0  0  0  0  0  0  0  0  0
    8.3978    1.3157    0.7602 H   0  0  0  0  0  0  0  0  0  0  0  0
    6.7002    2.0173    0.5760 H   0  0  0  0  0  0  0  0  0  0  0  0
    8.7546   -1.0383    0.9122 H   0  0  0  0  0  0  0  0  0  0  0  0
    7.6865   -1.9513   -0.1601 H   0  0  0  0  0  0  0  0  0  0  0  0
    7.3934   -1.9587    1.5783 H   0  0  0  0  0  0  0  0  0  0  0  0
    3.0032   -1.5724   -0.2541 H   0  0  0  0  0  0  0  0  0  0  0  0
    2.8252    0.1509   -0.4234 H   0  0  0  0  0  0  0  0  0  0  0  0
    4.8024    0.5445    0.8808 H   0  0  0  0  0  0  0  0  0  0  0  0
    5.0220   -1.1698    1.1001 H   0  0  0  0  0  0  0  0  0  0  0  0
    4.1380    1.7406   -0.7184 H   0  0  0  0  0  0  0  0  0  0  0  0
    4.6797   -2.8376   -0.1559 H   0  0  0  0  0  0  0  0  0  0  0  0
  1 19  1  0  0  0  0
  1  7  2  0  0  0  0
  2  7  1  0  0  0  0
  2 21  1  0  0  0  0
  3 23  1  0  0  0  0
  4 25  1  0  0  0  0
  4 27  1  0  0  0  0
  5 29  1  0  0  0  0
  5 28  1  0  0  0  0
  6  8  1  0  0  0  0
  6 30  1  0  0  0  0
  6 31  1  0  0  0  0
  7  5  1  0  0  0  0
  8  3  2  0  0  0  0
  8  4  1  0  0  0  0
  9 15  1  0  0  0  0
  9 12  1  0  0  0  0
 10 12  1  0  0  0  0
 10 16  1  0  0  0  0
 11 13  2  0  0  0  0
 11 14  1  0  0  0  0
 12  5  1  0  0  0  0
 12  6  1  0  0  0  0
 13  9  2  0  0  0  0
 14 10  2  0  0  0  0
 15 32  1  0  0  0  0
 16 33  1  0  0  0  0
 17 11  2  0  0  0  0
 18  1  1  0  0  0  0
 20  2  1  0  0  0  0
 22  2  1  0  0  0  0
 24  3  1  0  0  0  0
 26  4  1  0  0  0  0
M  END
>  <HBA>
5

>  <HBD>
2

>  <TPSA>
75.27

>  <cid>
48589

>  <dipole>
9.37

>  <excitation_energy_1>
3.968

>  <excitation_energy_2>
4.14

>  <excitation_energy_3>
4.742

>  <excitation_energy_4>
4.936

>  <homo_energy>
-6.885

>  <homo_lumo_gap>
5.358

>  <logP>
1.929

>  <lumo_energy>
-1.527

>  <melting_point>
105.22

>  <molecular_refractivity>
70.9

>  <oscillator_strength_1>
0.0

>  <oscillator_strength_2>
0.0

>  <oscillator_strength_3>
0.0049

>  <oscillator_strength_4>
0.0042

>  <open_babel_can_smiles>
CC(=C)CC1(CC(=C)C)C(=N[C](=[N]=C1O)=O)O

>  <mulliken_charges>
33
1   -0.379501
2   -0.528876
3   -0.379783
4   -0.529538
5   -0.359144
6   -0.357058
7   0.229131
8   0.226936
9   0.578709
10   0.573976
11   0.621743
12   -0.151241
13   -0.469865
14   -0.4807
15   -0.58105
16   -0.591392
17   -0.431594
18   0.152898
19   0.140615
20   0.165273
21   0.1496
22   0.197858
23   0.15288
24   0.142778
25   0.165581
26   0.197691
27   0.149113
28   0.13884
29   0.143653
30   0.144955
31   0.138604
32   0.413153
33   0.415757

>  <lowdin_charges>
33
1   -0.334138
2   -0.448496
3   -0.33387
4   -0.447425
5   -0.272636
6   -0.27298
7   -0.00556
8   -0.006514
9   0.155581
10   0.144303
11   0.171716
12   -0.059144
13   -0.176068
14   -0.185787
15   -0.329952
16   -0.335271
17   -0.206618
18   0.165185
19   0.156202
20   0.164924
21   0.155499
22   0.17573
23   0.164071
24   0.158536
25   0.163747
26   0.176088
27   0.154655
28   0.147224
29   0.151115
30   0.151965
31   0.147112
32   0.354157
33   0.356647

$$$$

