PCCDB-ID:  51739
public computational chemistry database (PCCDB) project, http://pccdb.org

 32 35  0  0  0  0  0  0  0  0999 V2000
    3.1065   -5.0724    0.1731 C   0  0  0  0  0  0  0  0  0  0  0  0
   -4.1609   -2.1452    0.1081 C   0  0  0  0  0  0  0  0  0  0  0  0
    2.3659   -3.9534   -0.2386 C   0  0  0  0  0  0  0  0  0  0  0  0
   -2.8395   -1.9376    0.7952 C   0  0  0  0  0  0  0  0  0  0  0  0
    2.4451   -6.2607    0.4131 C   0  0  0  0  0  0  0  0  0  0  0  0
   -4.4348   -3.3385   -0.4354 C   0  0  0  0  0  0  0  0  0  0  0  0
    0.9856   -4.0208   -0.3414 C   0  0  0  0  0  0  0  0  0  0  0  0
   -1.7249   -2.7680    0.1361 C   0  0  0  0  0  0  0  0  0  0  0  0
    0.4088   -7.6417    0.3977 C   0  0  0  0  0  0  0  0  0  0  0  0
   -3.9643   -5.7685   -0.5465 C   0  0  0  0  0  0  0  0  0  0  0  0
   -0.9156   -7.7796    0.1369 C   0  0  0  0  0  0  0  0  0  0  0  0
   -3.1209   -6.8408   -0.3761 C   0  0  0  0  0  0  0  0  0  0  0  0
    1.0410   -6.3598    0.2866 C   0  0  0  0  0  0  0  0  0  0  0  0
   -3.4820   -4.4545   -0.3776 C   0  0  0  0  0  0  0  0  0  0  0  0
   -1.7471   -6.6414   -0.1276 C   0  0  0  0  0  0  0  0  0  0  0  0
    0.2626   -5.2000   -0.0307 C   0  0  0  0  0  0  0  0  0  0  0  0
   -2.1172   -4.2184   -0.1238 C   0  0  0  0  0  0  0  0  0  0  0  0
   -1.2003   -5.3147   -0.1007 C   0  0  0  0  0  0  0  0  0  0  0  0
    4.1874   -5.0139    0.2667 H   0  0  0  0  0  0  0  0  0  0  0  0
   -4.8984   -1.3460    0.1078 H   0  0  0  0  0  0  0  0  0  0  0  0
    2.8748   -3.0279   -0.4945 H   0  0  0  0  0  0  0  0  0  0  0  0
   -2.9346   -2.2180    1.8572 H   0  0  0  0  0  0  0  0  0  0  0  0
   -2.5492   -0.8804    0.7853 H   0  0  0  0  0  0  0  0  0  0  0  0
    3.0032   -7.1558    0.6781 H   0  0  0  0  0  0  0  0  0  0  0  0
   -5.4031   -3.5375   -0.8906 H   0  0  0  0  0  0  0  0  0  0  0  0
    0.4674   -3.1527   -0.7200 H   0  0  0  0  0  0  0  0  0  0  0  0
   -0.8396   -2.7216    0.7738 H   0  0  0  0  0  0  0  0  0  0  0  0
   -1.4559   -2.2825   -0.8159 H   0  0  0  0  0  0  0  0  0  0  0  0
    1.0247   -8.5052    0.6363 H   0  0  0  0  0  0  0  0  0  0  0  0
   -5.0202   -5.9234   -0.7547 H   0  0  0  0  0  0  0  0  0  0  0  0
   -1.3856   -8.7600    0.1533 H   0  0  0  0  0  0  0  0  0  0  0  0
   -3.5014   -7.8581   -0.4248 H   0  0  0  0  0  0  0  0  0  0  0  0
  1 19  1  0  0  0  0
  1  5  2  0  0  0  0
  2  4  1  0  0  0  0
  3  1  1  0  0  0  0
  4 22  1  0  0  0  0
  5 24  1  0  0  0  0
  6 14  1  0  0  0  0
  6  2  2  0  0  0  0
  7  3  2  0  0  0  0
  7 16  1  0  0  0  0
  8 27  1  0  0  0  0
  8  4  1  0  0  0  0
  9 29  1  0  0  0  0
 10 14  2  0  0  0  0
 10 12  1  0  0  0  0
 11 31  1  0  0  0  0
 11  9  2  0  0  0  0
 12 15  2  0  0  0  0
 13  9  1  0  0  0  0
 13  5  1  0  0  0  0
 14 17  1  0  0  0  0
 15 18  1  0  0  0  0
 15 11  1  0  0  0  0
 16 13  2  0  0  0  0
 17 18  2  0  0  0  0
 17  8  1  0  0  0  0
 18 16  1  0  0  0  0
 20  2  1  0  0  0  0
 21  3  1  0  0  0  0
 23  4  1  0  0  0  0
 25  6  1  0  0  0  0
 26  7  1  0  0  0  0
 28  8  1  0  0  0  0
 30 10  1  0  0  0  0
 32 12  1  0  0  0  0
M  END
>  <HBA>
0

>  <HBD>
0

>  <TPSA>
0.0

>  <cid>
51739

>  <dipole>
0.48

>  <excitation_energy_1>
3.673

>  <excitation_energy_2>
3.694

>  <excitation_energy_3>
4.376

>  <excitation_energy_4>
4.483

>  <homo_energy>
-5.32

>  <homo_lumo_gap>
4.106

>  <logP>
4.952

>  <lumo_energy>
-1.214

>  <melting_point>
144.27

>  <molecular_refractivity>
79.2

>  <oscillator_strength_1>
0.1979

>  <oscillator_strength_2>
0.0534

>  <oscillator_strength_3>
0.0863

>  <oscillator_strength_4>
0.0002

>  <open_babel_can_smiles>
C1=Cc2c(CC1)c1c(cc2)ccc2c1cccc2

>  <mulliken_charges>
32
1   -0.129229
2   -0.130896
3   -0.14162
4   -0.304799
5   -0.203597
6   -0.154145
7   -0.198566
8   -0.367597
9   -0.192016
10   -0.189393
11   -0.192198
12   -0.208846
13   0.136501
14   0.105329
15   0.144296
16   0.055831
17   0.06302
18   -0.003626
19   0.129197
20   0.129599
21   0.127771
22   0.155665
23   0.141585
24   0.128371
25   0.125104
26   0.142832
27   0.162766
28   0.155699
29   0.128662
30   0.126943
31   0.128978
32   0.128379

>  <lowdin_charges>
32
1   -0.155216
2   -0.163636
3   -0.162015
4   -0.271032
5   -0.1595
6   -0.170121
7   -0.166326
8   -0.278787
9   -0.161937
10   -0.157962
11   -0.157712
12   -0.160005
13   0.00047
14   -0.010894
15   -0.000285
16   -0.004053
17   -0.007809
18   -0.009684
19   0.156236
20   0.156699
21   0.157802
22   0.152232
23   0.150623
24   0.157425
25   0.155588
26   0.167607
27   0.163026
28   0.150911
29   0.158868
30   0.155229
31   0.15786
32   0.156397

$$$$

