PCCDB-ID:  32237
public computational chemistry database (PCCDB) project, http://pccdb.org

 28 29  0  0  0  0  0  0  0  0999 V2000
    0.2909    0.5894    1.0224 C   0  0  0  0  0  0  0  0  0  0  0  0
    3.3562    3.5008    0.8935 C   0  0  0  0  0  0  0  0  0  0  0  0
    4.8907    1.7471    0.2588 C   0  0  0  0  0  0  0  0  0  0  0  0
    2.3127    2.5790    0.9461 C   0  0  0  0  0  0  0  0  0  0  0  0
    3.8657    0.8221    0.3066 C   0  0  0  0  0  0  0  0  0  0  0  0
    4.3344    6.6390    3.9576 C   0  0  0  0  0  0  0  0  0  0  0  0
    4.2533    6.6722    2.5880 C   0  0  0  0  0  0  0  0  0  0  0  0
    5.6013    5.5476    0.7483 C   0  0  0  0  0  0  0  0  0  0  0  0
    5.8742    5.3351    3.2521 C   0  0  0  0  0  0  0  0  0  0  0  0
    4.6573    3.1073    0.5500 C   0  0  0  0  0  0  0  0  0  0  0  0
    2.5638    1.2315    0.6510 C   0  0  0  0  0  0  0  0  0  0  0  0
    5.8021    4.0451    0.4569 C   0  0  0  0  0  0  0  0  0  0  0  0
    5.3479    5.8013    4.3646 N   0  0  0  0  0  0  0  0  0  0  0  0
    5.2484    5.8235    2.1358 N   0  0  0  0  0  0  0  0  0  0  0  0
    6.9206    3.6712    0.1319 O   0  0  0  0  0  0  0  0  0  0  0  0
    1.6269    0.2511    0.6699 O   0  0  0  0  0  0  0  0  0  0  0  0
   -0.2734   -0.3429    0.9737 H   0  0  0  0  0  0  0  0  0  0  0  0
   -0.1382    1.3123    0.3171 H   0  0  0  0  0  0  0  0  0  0  0  0
    0.2367    0.9961    2.0398 H   0  0  0  0  0  0  0  0  0  0  0  0
    3.1403    4.5342    1.1426 H   0  0  0  0  0  0  0  0  0  0  0  0
    5.8981    1.4441   -0.0068 H   0  0  0  0  0  0  0  0  0  0  0  0
    1.3197    2.9147    1.2205 H   0  0  0  0  0  0  0  0  0  0  0  0
    4.0356   -0.2264    0.0839 H   0  0  0  0  0  0  0  0  0  0  0  0
    3.7217    7.1704    4.6736 H   0  0  0  0  0  0  0  0  0  0  0  0
    3.6164    7.2131    1.9031 H   0  0  0  0  0  0  0  0  0  0  0  0
    4.8072    5.9538    0.1140 H   0  0  0  0  0  0  0  0  0  0  0  0
    6.5411    6.0414    0.4849 H   0  0  0  0  0  0  0  0  0  0  0  0
    6.7039    4.6436    3.1832 H   0  0  0  0  0  0  0  0  0  0  0  0
  1 19  1  0  0  0  0
  2  4  1  0  0  0  0
  2 20  1  0  0  0  0
  3  5  2  0  0  0  0
  3 10  1  0  0  0  0
  4 22  1  0  0  0  0
  5 11  1  0  0  0  0
  6 13  1  0  0  0  0
  6 24  1  0  0  0  0
  7  6  2  0  0  0  0
  8 14  1  0  0  0  0
  9 13  2  0  0  0  0
 10  2  2  0  0  0  0
 11 16  1  0  0  0  0
 11  4  2  0  0  0  0
 12 10  1  0  0  0  0
 12  8  1  0  0  0  0
 14  7  1  0  0  0  0
 14  9  1  0  0  0  0
 15 12  2  0  0  0  0
 16  1  1  0  0  0  0
 17  1  1  0  0  0  0
 18  1  1  0  0  0  0
 21  3  1  0  0  0  0
 23  5  1  0  0  0  0
 25  7  1  0  0  0  0
 26  8  1  0  0  0  0
 27  8  1  0  0  0  0
 28  9  1  0  0  0  0
M  END
>  <HBA>
4

>  <HBD>
0

>  <TPSA>
44.12

>  <cid>
32237

>  <dipole>
5.52

>  <excitation_energy_1>
3.684

>  <excitation_energy_2>
3.824

>  <excitation_energy_3>
4.448

>  <excitation_energy_4>
4.654

>  <homo_energy>
-6.136

>  <homo_lumo_gap>
4.452

>  <logP>
1.775

>  <lumo_energy>
-1.684

>  <melting_point>
88.55

>  <molecular_refractivity>
59.7

>  <oscillator_strength_1>
0.0179

>  <oscillator_strength_2>
0.0053

>  <oscillator_strength_3>
0.336

>  <oscillator_strength_4>
0.0126

>  <open_babel_can_smiles>
COc1ccc(cc1)C(=O)Cn1cncc1

>  <mulliken_charges>
28
1   -0.221801
2   -0.176161
3   -0.160691
4   -0.20228
5   -0.171746
6   -0.036171
7   -0.000896
8   -0.234908
9   0.201371
10   0.078892
11   0.390143
12   0.384764
13   -0.435205
14   -0.377567
15   -0.461372
16   -0.497038
17   0.178387
18   0.158201
19   0.161901
20   0.144061
21   0.168246
22   0.141038
23   0.149693
24   0.135234
25   0.148239
26   0.171958
27   0.19364
28   0.170068

>  <lowdin_charges>
28
1   -0.276928
2   -0.129149
3   -0.115456
4   -0.212977
5   -0.1765
6   -0.154579
7   -0.189042
8   -0.218558
9   -0.100432
10   -0.072302
11   0.118687
12   0.144148
13   -0.182275
14   -0.010047
15   -0.2408
16   -0.183638
17   0.167997
18   0.150538
19   0.150188
20   0.165225
21   0.178644
22   0.166355
23   0.170839
24   0.163096
25   0.167746
26   0.170737
27   0.175395
28   0.173088

$$$$

