PCCDB-ID:  7510
public computational chemistry database (PCCDB) project, http://pccdb.org

 15 15  0  0  0  0  0  0  0  0999 V2000
   -0.7515    1.1908   -0.1138 C   0  0  0  0  0  0  0  0  0  0  0  0
   -1.3724   -0.0464   -0.2621 C   0  0  0  0  0  0  0  0  0  0  0  0
    0.6170    1.2222    0.1644 C   0  0  0  0  0  0  0  0  0  0  0  0
    0.7563   -1.0569    0.1392 C   0  0  0  0  0  0  0  0  0  0  0  0
   -1.2382   -2.5820   -0.2596 C   0  0  0  0  0  0  0  0  0  0  0  0
   -0.6083   -1.2109   -0.1285 C   0  0  0  0  0  0  0  0  0  0  0  0
    1.3700    0.1231    0.2894 N   0  0  0  0  0  0  0  0  0  0  0  0
   -2.2467   -2.6446   -1.2618 O   0  0  0  0  0  0  0  0  0  0  0  0
   -1.3122    2.1159   -0.2117 H   0  0  0  0  0  0  0  0  0  0  0  0
   -2.4324   -0.1233   -0.4879 H   0  0  0  0  0  0  0  0  0  0  0  0
    1.1338    2.1728    0.2872 H   0  0  0  0  0  0  0  0  0  0  0  0
    1.3926   -1.9376    0.2342 H   0  0  0  0  0  0  0  0  0  0  0  0
   -1.7507   -2.8550    0.6702 H   0  0  0  0  0  0  0  0  0  0  0  0
   -0.4540   -3.3374   -0.4259 H   0  0  0  0  0  0  0  0  0  0  0  0
   -1.8306   -2.4094   -2.1066 H   0  0  0  0  0  0  0  0  0  0  0  0
  1  3  2  0  0  0  0
  2  6  2  0  0  0  0
  2  1  1  0  0  0  0
  3 11  1  0  0  0  0
  3  7  1  0  0  0  0
  4 12  1  0  0  0  0
  4  7  2  0  0  0  0
  5  6  1  0  0  0  0
  5 13  1  0  0  0  0
  6  4  1  0  0  0  0
  8  5  1  0  0  0  0
  9  1  1  0  0  0  0
 10  2  1  0  0  0  0
 14  5  1  0  0  0  0
 15  8  1  0  0  0  0
M  END
>  <HBA>
2

>  <HBD>
1

>  <TPSA>
33.12

>  <cid>
7510

>  <dipole>
1.13

>  <excitation_energy_1>
4.787

>  <excitation_energy_2>
5.087

>  <excitation_energy_3>
5.337

>  <excitation_energy_4>
5.904

>  <homo_energy>
-6.887

>  <homo_lumo_gap>
6.166

>  <logP>
0.574

>  <lumo_energy>
-0.721

>  <melting_point>
41.27

>  <molecular_refractivity>
30.36

>  <oscillator_strength_1>
0.0044

>  <oscillator_strength_2>
0.0

>  <oscillator_strength_3>
0.0442

>  <oscillator_strength_4>
0.0348

>  <open_babel_can_smiles>
OCc1cccnc1

>  <mulliken_charges>
15
1   -0.139121
2   -0.139174
3   0.039364
4   -0.011161
5   -0.100174
6   0.092105
7   -0.407815
8   -0.607016
9   0.139401
10   0.156963
11   0.142853
12   0.136726
13   0.169407
14   0.13664
15   0.391002

>  <lowdin_charges>
15
1   -0.173939
2   -0.130769
3   -0.089703
4   -0.102207
5   -0.133485
6   -0.050927
7   -0.147272
8   -0.459498
9   0.165038
10   0.168524
11   0.157168
12   0.154383
13   0.16069
14   0.137682
15   0.344315

$$$$

