PCCDB-ID:  66776
public computational chemistry database (PCCDB) project, http://pccdb.org

 11 11  0  0  0  0  0  0  0  0999 V2000
    1.1123   -0.7413   -0.0363 C   0  0  0  0  0  0  0  0  0  0  0  0
   -1.2425    0.1202    0.1564 C   0  0  0  0  0  0  0  0  0  0  0  0
    1.0376    0.5994   -0.0276 C   0  0  0  0  0  0  0  0  0  0  0  0
   -0.2670    1.1633   -0.1292 N   0  0  0  0  0  0  0  0  0  0  0  0
    2.3368    1.8055    0.0854 S   0  0  0  0  0  0  0  0  0  0  0  0
   -0.4686   -1.5267   -0.2922 S   0  0  0  0  0  0  0  0  0  0  0  0
    2.0054   -1.3405    0.0805 H   0  0  0  0  0  0  0  0  0  0  0  0
   -2.1691    0.2756   -0.3974 H   0  0  0  0  0  0  0  0  0  0  0  0
   -1.4494    0.0966    1.2300 H   0  0  0  0  0  0  0  0  0  0  0  0
   -0.4019    1.5923   -1.0463 H   0  0  0  0  0  0  0  0  0  0  0  0
    3.3158    1.0231   -0.4156 H   0  0  0  0  0  0  0  0  0  0  0  0
  1  3  2  0  0  0  0
  1  7  1  0  0  0  0
  2  9  1  0  0  0  0
  3  5  1  0  0  0  0
  4  3  1  0  0  0  0
  4  2  1  0  0  0  0
  6  1  1  0  0  0  0
  6  2  1  0  0  0  0
  8  2  1  0  0  0  0
 10  4  1  0  0  0  0
 11  5  1  0  0  0  0
M  END
>  <HBA>
3

>  <HBD>
2

>  <TPSA>
76.13

>  <cid>
66776

>  <dipole>
0.93

>  <excitation_energy_1>
3.859

>  <excitation_energy_2>
4.101

>  <excitation_energy_3>
4.623

>  <excitation_energy_4>
4.899

>  <homo_energy>
-5.208

>  <homo_lumo_gap>
5.132

>  <logP>
1.338

>  <lumo_energy>
-0.076

>  <melting_point>
67.63

>  <molecular_refractivity>
36.18

>  <oscillator_strength_1>
0.0102

>  <oscillator_strength_2>
0.0135

>  <oscillator_strength_3>
0.0504

>  <oscillator_strength_4>
0.0201

>  <open_babel_can_smiles>
SC1=CSCN1

>  <mulliken_charges>
11
1   -0.338386
2   -0.284691
3   0.088636
4   -0.550904
5   -0.006073
6   0.115197
7   0.172708
8   0.179671
9   0.197837
10   0.326983
11   0.099022

>  <lowdin_charges>
11
1   -0.338389
2   -0.280017
3   -0.107207
4   -0.311389
5   0.004974
6   0.118218
7   0.18383
8   0.169412
9   0.162486
10   0.275061
11   0.123022

$$$$

