PCCDB-ID:  31645
public computational chemistry database (PCCDB) project, http://pccdb.org

 35 35  0  0  0  0  0  0  0  0999 V2000
    1.5309   -1.8653   -2.0078 C   0  0  0  0  0  0  0  0  0  0  0  0
    3.6801   -3.6726   -0.9559 C   0  0  0  0  0  0  0  0  0  0  0  0
    6.1399    1.5301    1.0023 C   0  0  0  0  0  0  0  0  0  0  0  0
    7.0463   -0.7541    1.2201 C   0  0  0  0  0  0  0  0  0  0  0  0
    1.3076    3.1745   -2.8527 C   0  0  0  0  0  0  0  0  0  0  0  0
    0.4078    4.0357   -0.7158 C   0  0  0  0  0  0  0  0  0  0  0  0
    2.7359   -1.3410   -1.2720 C   0  0  0  0  0  0  0  0  0  0  0  0
    3.7515   -2.1783   -0.7693 C   0  0  0  0  0  0  0  0  0  0  0  0
    2.9596    0.0159   -1.0275 C   0  0  0  0  0  0  0  0  0  0  0  0
    4.8943   -0.3802    0.0776 C   0  0  0  0  0  0  0  0  0  0  0  0
    1.5369    1.8929   -0.7181 C   0  0  0  0  0  0  0  0  0  0  0  0
    4.8128   -1.7155   -0.1039 N   0  0  0  0  0  0  0  0  0  0  0  0
    4.0046    0.5147   -0.3949 N   0  0  0  0  0  0  0  0  0  0  0  0
    5.9563    0.1049    0.7944 N   0  0  0  0  0  0  0  0  0  0  0  0
    1.1069    2.9767   -1.4261 N   0  0  0  0  0  0  0  0  0  0  0  0
    1.4265    1.7356    0.4792 O   0  0  0  0  0  0  0  0  0  0  0  0
    2.0709    0.9301   -1.5658 O   0  0  0  0  0  0  0  0  0  0  0  0
    1.8156   -2.4228   -2.9099 H   0  0  0  0  0  0  0  0  0  0  0  0
    0.8772   -1.0464   -2.3136 H   0  0  0  0  0  0  0  0  0  0  0  0
    0.9415   -2.5490   -1.3832 H   0  0  0  0  0  0  0  0  0  0  0  0
    2.7647   -4.0839   -0.5126 H   0  0  0  0  0  0  0  0  0  0  0  0
    4.5443   -4.1437   -0.4841 H   0  0  0  0  0  0  0  0  0  0  0  0
    3.6656   -3.9403   -2.0201 H   0  0  0  0  0  0  0  0  0  0  0  0
    6.4886    1.7036    2.0276 H   0  0  0  0  0  0  0  0  0  0  0  0
    5.1950    2.0477    0.8476 H   0  0  0  0  0  0  0  0  0  0  0  0
    6.8899    1.9455    0.3115 H   0  0  0  0  0  0  0  0  0  0  0  0
    7.2538   -0.5939    2.2861 H   0  0  0  0  0  0  0  0  0  0  0  0
    7.9659   -0.5319    0.6577 H   0  0  0  0  0  0  0  0  0  0  0  0
    6.7709   -1.7937    1.0557 H   0  0  0  0  0  0  0  0  0  0  0  0
    0.3435    3.2035   -3.3790 H   0  0  0  0  0  0  0  0  0  0  0  0
    1.9109    2.3681   -3.2623 H   0  0  0  0  0  0  0  0  0  0  0  0
    1.8209    4.1291   -3.0291 H   0  0  0  0  0  0  0  0  0  0  0  0
    0.9736    4.9753   -0.7710 H   0  0  0  0  0  0  0  0  0  0  0  0
    0.2954    3.7443    0.3273 H   0  0  0  0  0  0  0  0  0  0  0  0
   -0.5826    4.2030   -1.1592 H   0  0  0  0  0  0  0  0  0  0  0  0
  1 20  1  0  0  0  0
  1  7  1  0  0  0  0
  2  8  1  0  0  0  0
  2 21  1  0  0  0  0
  2 22  1  0  0  0  0
  3 24  1  0  0  0  0
  4 27  1  0  0  0  0
  5 15  1  0  0  0  0
  6 34  1  0  0  0  0
  7  9  1  0  0  0  0
  7  8  2  0  0  0  0
  8 12  1  0  0  0  0
  9 13  2  0  0  0  0
 10 14  1  0  0  0  0
 11 16  2  0  0  0  0
 12 10  2  0  0  0  0
 13 10  1  0  0  0  0
 14  3  1  0  0  0  0
 14  4  1  0  0  0  0
 15 11  1  0  0  0  0
 15  6  1  0  0  0  0
 17  9  1  0  0  0  0
 17 11  1  0  0  0  0
 18  1  1  0  0  0  0
 19  1  1  0  0  0  0
 23  2  1  0  0  0  0
 25  3  1  0  0  0  0
 26  3  1  0  0  0  0
 28  4  1  0  0  0  0
 29  4  1  0  0  0  0
 30  5  1  0  0  0  0
 31  5  1  0  0  0  0
 32  5  1  0  0  0  0
 33  6  1  0  0  0  0
 35  6  1  0  0  0  0
M  END
>  <HBA>
6

>  <HBD>
0

>  <TPSA>
58.56

>  <cid>
31645

>  <dipole>
2.5

>  <excitation_energy_1>
4.218

>  <excitation_energy_2>
4.72

>  <excitation_energy_3>
5.003

>  <excitation_energy_4>
5.222

>  <homo_energy>
-5.353

>  <homo_lumo_gap>
5.004

>  <logP>
1.22

>  <lumo_energy>
-0.348

>  <melting_point>
92.49

>  <molecular_refractivity>
65.76

>  <oscillator_strength_1>
0.0609

>  <oscillator_strength_2>
0.0031

>  <oscillator_strength_3>
0.018

>  <oscillator_strength_4>
0.047

>  <open_babel_can_smiles>
CN(C(=O)Oc1nc(nc(c1C)C)N(C)C)C

>  <mulliken_charges>
35
1   -0.535259
2   -0.523384
3   -0.310396
4   -0.314302
5   -0.313644
6   -0.31756
7   0.074914
8   0.283726
9   0.507396
10   0.69414
11   0.788303
12   -0.55421
13   -0.53591
14   -0.458343
15   -0.429349
16   -0.499039
17   -0.557275
18   0.154721
19   0.171563
20   0.160243
21   0.164916
22   0.174309
23   0.16214
24   0.147283
25   0.206356
26   0.143995
27   0.147984
28   0.144471
29   0.202631
30   0.15428
31   0.197645
32   0.155533
33   0.154564
34   0.205182
35   0.152376

>  <lowdin_charges>
35
1   -0.442497
2   -0.446921
3   -0.352615
4   -0.352583
5   -0.351527
6   -0.348887
7   -0.094242
8   0.081257
9   0.158288
10   0.13531
11   0.215471
12   -0.21541
13   -0.204372
14   -0.09335
15   -0.102701
16   -0.292935
17   -0.177886
18   0.155932
19   0.168381
20   0.159832
21   0.164925
22   0.170721
23   0.16167
24   0.147864
25   0.183758
26   0.143117
27   0.145594
28   0.142542
29   0.18098
30   0.148388
31   0.180096
32   0.1502
33   0.149336
34   0.184167
35   0.148098

$$$$

