PCCDB-ID:  13737
public computational chemistry database (PCCDB) project, http://pccdb.org

 34 35  0  0  1  0  0  0  0  0999 V2000
    0.5962   -2.1967    0.5910 C   0  0  0  0  0  0  0  0  0  0  0  0
    1.6125   -1.0739    0.3715 C   0  0  0  0  0  0  0  0  0  0  0  0
    1.4351   -4.4111   -8.4095 C   0  0  0  0  0  0  0  0  0  0  0  0
    1.9512   -3.1304   -8.2034 C   0  0  0  0  0  0  0  0  0  0  0  0
    1.1559   -5.2249   -7.3101 C   0  0  0  0  0  0  0  0  0  0  0  0
    2.1869   -2.6682   -6.9096 C   0  0  0  0  0  0  0  0  0  0  0  0
    1.3910   -4.7621   -6.0164 C   0  0  0  0  0  0  0  0  0  0  0  0
    2.6485   -3.8413   -3.4150 C   0  0  0  0  0  0  0  0  0  0  0  0
    1.9270   -1.6426   -4.0652 C   0  0  0  0  0  0  0  0  0  0  0  0
    2.8828   -3.3777   -2.1207 C   0  0  0  0  0  0  0  0  0  0  0  0
    2.1632   -1.1808   -2.7745 C   0  0  0  0  0  0  0  0  0  0  0  0
    1.9112   -3.4759   -5.7931 C   0  0  0  0  0  0  0  0  0  0  0  0
    2.1633   -2.9845   -4.4148 C   0  0  0  0  0  0  0  0  0  0  0  0
    2.6432   -2.0413   -1.7730 C   0  0  0  0  0  0  0  0  0  0  0  0
    2.8908   -1.5369   -0.3580 C   0  0  1  0  0  0  0  0  0  0  0  0
    3.9704   -0.4343   -0.3097 C   0  0  0  0  0  0  0  0  0  0  0  0
    3.9530    0.4971    0.4560 O   0  0  0  0  0  0  0  0  0  0  0  0
    5.0122   -0.5966   -1.1639 O   0  0  0  0  0  0  0  0  0  0  0  0
   -0.2855   -1.8188    1.1199 H   0  0  0  0  0  0  0  0  0  0  0  0
    1.0225   -3.0072    1.1957 H   0  0  0  0  0  0  0  0  0  0  0  0
    0.2574   -2.6305   -0.3562 H   0  0  0  0  0  0  0  0  0  0  0  0
    1.9157   -0.6401    1.3291 H   0  0  0  0  0  0  0  0  0  0  0  0
    1.1533   -0.2563   -0.1983 H   0  0  0  0  0  0  0  0  0  0  0  0
    1.2516   -4.7715   -9.4179 H   0  0  0  0  0  0  0  0  0  0  0  0
    2.1791   -2.4914   -9.0523 H   0  0  0  0  0  0  0  0  0  0  0  0
    0.7460   -6.2204   -7.4587 H   0  0  0  0  0  0  0  0  0  0  0  0
    2.6149   -1.6805   -6.7627 H   0  0  0  0  0  0  0  0  0  0  0  0
    1.1434   -5.3933   -5.1675 H   0  0  0  0  0  0  0  0  0  0  0  0
    2.8684   -4.8771   -3.6575 H   0  0  0  0  0  0  0  0  0  0  0  0
    1.5305   -0.9585   -4.8100 H   0  0  0  0  0  0  0  0  0  0  0  0
    3.2591   -4.0671   -1.3679 H   0  0  0  0  0  0  0  0  0  0  0  0
    1.9681   -0.1370   -2.5397 H   0  0  0  0  0  0  0  0  0  0  0  0
    3.3216   -2.3716    0.2177 H   0  0  0  0  0  0  0  0  0  0  0  0
    4.8277   -1.3483   -1.7554 H   0  0  0  0  0  0  0  0  0  0  0  0
  1 19  1  0  0  0  0
  1 20  1  0  0  0  0
  2  1  1  0  0  0  0
  2 22  1  0  0  0  0
  3  4  2  0  0  0  0
  3  5  1  0  0  0  0
  4  6  1  0  0  0  0
  5  7  2  0  0  0  0
  6 27  1  0  0  0  0
  6 12  2  0  0  0  0
  7 12  1  0  0  0  0
  7 28  1  0  0  0  0
  8 10  2  0  0  0  0
  9 11  1  0  0  0  0
 10 14  1  0  0  0  0
 10 31  1  0  0  0  0
 11 32  1  0  0  0  0
 11 14  2  0  0  0  0
 12 13  1  0  0  0  0
 13  9  2  0  0  0  0
 13  8  1  0  0  0  0
 14 15  1  0  0  0  0
 15 16  1  0  0  0  0
 15 33  1  1  0  0  0
 15  2  1  0  0  0  0
 16 17  2  0  0  0  0
 18 16  1  0  0  0  0
 21  1  1  0  0  0  0
 23  2  1  0  0  0  0
 24  3  1  0  0  0  0
 25  4  1  0  0  0  0
 26  5  1  0  0  0  0
 29  8  1  0  0  0  0
 30  9  1  0  0  0  0
 34 18  1  0  0  0  0
M  END
>  <HBA>
2

>  <HBD>
1

>  <TPSA>
37.3

>  <cid>
13737

>  <dipole>
4.87

>  <excitation_energy_1>
4.702

>  <excitation_energy_2>
4.79

>  <excitation_energy_3>
4.912

>  <excitation_energy_4>
5.41

>  <homo_energy>
-6.324

>  <homo_lumo_gap>
5.189

>  <logP>
3.932

>  <lumo_energy>
-1.135

>  <melting_point>
120.59

>  <molecular_refractivity>
73.04

>  <oscillator_strength_1>
0.5776

>  <oscillator_strength_2>
0.0237

>  <oscillator_strength_3>
0.0012

>  <oscillator_strength_4>
0.0016

>  <open_babel_can_smiles>
CC[C@@H](c1ccc(cc1)c1ccccc1)C(=O)O

>  <mulliken_charges>
34
1   -0.453947
2   -0.244772
3   -0.125266
4   -0.133292
5   -0.133319
6   -0.174138
7   -0.173598
8   -0.170504
9   -0.174578
10   -0.199186
11   -0.17533
12   0.090096
13   0.089535
14   0.102583
15   -0.282538
16   0.605624
17   -0.448
18   -0.571654
19   0.150806
20   0.140034
21   0.153778
22   0.169143
23   0.145141
24   0.133611
25   0.134644
26   0.133976
27   0.134729
28   0.133615
29   0.139951
30   0.142156
31   0.135594
32   0.148132
33   0.164267
34   0.412705

>  <lowdin_charges>
34
1   -0.449505
2   -0.267591
3   -0.153774
4   -0.153806
5   -0.151342
6   -0.158981
7   -0.161854
8   -0.157065
9   -0.156236
10   -0.173816
11   -0.158476
12   -0.004194
13   0.00296
14   -0.02937
15   -0.167208
16   0.188929
17   -0.238716
18   -0.355133
19   0.155563
20   0.14692
21   0.152647
22   0.163187
23   0.149312
24   0.159304
25   0.161025
26   0.159022
27   0.159421
28   0.160591
29   0.162154
30   0.16564
31   0.160422
32   0.163624
33   0.166133
34   0.36021

$$$$

