PCCDB-ID:  61281
public computational chemistry database (PCCDB) project, http://pccdb.org

 16 15  0  0  0  0  0  0  0  0999 V2000
    0.9381    0.1879    0.0988 C   0  0  0  0  0  0  0  0  0  0  0  0
    2.9543   -0.2787    1.5725 C   0  0  0  0  0  0  0  0  0  0  0  0
    3.0305   -0.8460   -0.9012 C   0  0  0  0  0  0  0  0  0  0  0  0
    2.7166   -3.3052   -1.1751 C   0  0  0  0  0  0  0  0  0  0  0  0
    2.4687    0.1041    0.1680 C   0  0  0  0  0  0  0  0  0  0  0  0
    2.5612   -2.2060   -0.7050 N   0  0  0  0  0  0  0  0  0  0  0  0
    2.7781   -4.4273   -1.5405 O   0  0  0  0  0  0  0  0  0  0  0  0
    0.5535    0.9035    0.8341 H   0  0  0  0  0  0  0  0  0  0  0  0
    0.4864   -0.7881    0.3082 H   0  0  0  0  0  0  0  0  0  0  0  0
    0.5991    0.5101   -0.8933 H   0  0  0  0  0  0  0  0  0  0  0  0
    2.5881    0.4347    2.3191 H   0  0  0  0  0  0  0  0  0  0  0  0
    4.0496   -0.2907    1.6277 H   0  0  0  0  0  0  0  0  0  0  0  0
    2.5921   -1.2748    1.8505 H   0  0  0  0  0  0  0  0  0  0  0  0
    4.1278   -0.8347   -0.8679 H   0  0  0  0  0  0  0  0  0  0  0  0
    2.7244   -0.5033   -1.8983 H   0  0  0  0  0  0  0  0  0  0  0  0
    2.8800    1.0936   -0.0812 H   0  0  0  0  0  0  0  0  0  0  0  0
  1  5  1  0  0  0  0
  1  9  1  0  0  0  0
  1  8  1  0  0  0  0
  2 12  1  0  0  0  0
  2 13  1  0  0  0  0
  2 11  1  0  0  0  0
  3 14  1  0  0  0  0
  3  6  1  0  0  0  0
  3  5  1  0  0  0  0
  4  6  2  0  0  0  0
  5  2  1  0  0  0  0
  7  4  2  0  0  0  0
 10  1  1  0  0  0  0
 15  3  1  0  0  0  0
 16  5  1  0  0  0  0
M  END
>  <HBA>
2

>  <HBD>
0

>  <TPSA>
29.43

>  <cid>
61281

>  <dipole>
2.91

>  <excitation_energy_1>
6.0

>  <excitation_energy_2>
6.7

>  <excitation_energy_3>
7.024

>  <excitation_energy_4>
7.292

>  <homo_energy>
-7.453

>  <homo_lumo_gap>
8.063

>  <logP>
0.978

>  <lumo_energy>
0.61

>  <melting_point>
24.88

>  <molecular_refractivity>
28.41

>  <oscillator_strength_1>
0.0001

>  <oscillator_strength_2>
0.0191

>  <oscillator_strength_3>
0.0014

>  <oscillator_strength_4>
0.0055

>  <open_babel_can_smiles>
CC(CN=C=O)C

>  <mulliken_charges>
16
1   -0.445043
2   -0.445016
3   -0.13301
4   0.600994
5   -0.082749
6   -0.423993
7   -0.414803
8   0.145436
9   0.162998
10   0.13943
11   0.145681
12   0.139265
13   0.162313
14   0.158967
15   0.159671
16   0.12986

>  <lowdin_charges>
16
1   -0.447457
2   -0.445413
3   -0.165117
4   0.171612
5   -0.124076
6   -0.182444
7   -0.165089
8   0.152765
9   0.157013
10   0.147635
11   0.152807
12   0.14586
13   0.156416
14   0.150584
15   0.152854
16   0.142051

$$$$

