PCCDB-ID:  31198
public computational chemistry database (PCCDB) project, http://pccdb.org

 24 24  0  0  0  0  0  0  0  0999 V2000
   -0.0253    4.8058   -0.1856 C   0  0  0  0  0  0  0  0  0  0  0  0
    0.0418    4.0869    1.0121 C   0  0  0  0  0  0  0  0  0  0  0  0
    0.5807    4.2927   -1.3313 C   0  0  0  0  0  0  0  0  0  0  0  0
    0.7083    2.8649    1.0599 C   0  0  0  0  0  0  0  0  0  0  0  0
    1.2520    3.0679   -1.2791 C   0  0  0  0  0  0  0  0  0  0  0  0
   -1.3427   -1.2395   -1.0675 C   0  0  0  0  0  0  0  0  0  0  0  0
   -0.0309   -0.4607   -1.2841 C   0  0  0  0  0  0  0  0  0  0  0  0
    2.0595    1.0214   -0.0345 C   0  0  0  0  0  0  0  0  0  0  0  0
    1.3260    2.3396   -0.0852 C   0  0  0  0  0  0  0  0  0  0  0  0
   -2.3045   -0.6650   -0.1309 N   0  0  0  0  0  0  0  0  0  0  0  0
    0.9902   -0.4616    0.2475 S   0  0  0  0  0  0  0  0  0  0  0  0
   -0.5457    5.7590   -0.2220 H   0  0  0  0  0  0  0  0  0  0  0  0
   -0.4256    4.4820    1.9103 H   0  0  0  0  0  0  0  0  0  0  0  0
    0.5357    4.8436   -2.2672 H   0  0  0  0  0  0  0  0  0  0  0  0
    0.7482    2.3039    1.9904 H   0  0  0  0  0  0  0  0  0  0  0  0
    1.7321    2.6774   -2.1739 H   0  0  0  0  0  0  0  0  0  0  0  0
   -1.1134   -2.2602   -0.7364 H   0  0  0  0  0  0  0  0  0  0  0  0
   -1.8350   -1.3376   -2.0439 H   0  0  0  0  0  0  0  0  0  0  0  0
   -0.2564    0.5796   -1.5467 H   0  0  0  0  0  0  0  0  0  0  0  0
    0.5460   -0.9063   -2.1037 H   0  0  0  0  0  0  0  0  0  0  0  0
    2.7600    0.9945    0.8070 H   0  0  0  0  0  0  0  0  0  0  0  0
    2.6426    0.8660   -0.9478 H   0  0  0  0  0  0  0  0  0  0  0  0
   -1.8669   -0.5709    0.7848 H   0  0  0  0  0  0  0  0  0  0  0  0
   -2.5402    0.2834   -0.4225 H   0  0  0  0  0  0  0  0  0  0  0  0
  1  2  2  0  0  0  0
  2  4  1  0  0  0  0
  2 13  1  0  0  0  0
  3  5  2  0  0  0  0
  3  1  1  0  0  0  0
  4 15  1  0  0  0  0
  5  9  1  0  0  0  0
  6 17  1  0  0  0  0
  6 10  1  0  0  0  0
  7  6  1  0  0  0  0
  7 11  1  0  0  0  0
  8 11  1  0  0  0  0
  8 21  1  0  0  0  0
  9  8  1  0  0  0  0
  9  4  2  0  0  0  0
 10 23  1  0  0  0  0
 12  1  1  0  0  0  0
 14  3  1  0  0  0  0
 16  5  1  0  0  0  0
 18  6  1  0  0  0  0
 19  7  1  0  0  0  0
 20  7  1  0  0  0  0
 22  8  1  0  0  0  0
 24 10  1  0  0  0  0
M  END
>  <HBA>
2

>  <HBD>
1

>  <TPSA>
51.32

>  <cid>
31198

>  <dipole>
2.61

>  <excitation_energy_1>
4.585

>  <excitation_energy_2>
4.935

>  <excitation_energy_3>
5.229

>  <excitation_energy_4>
5.278

>  <homo_energy>
-5.997

>  <homo_lumo_gap>
5.606

>  <logP>
2.579

>  <lumo_energy>
-0.392

>  <melting_point>
69.04

>  <molecular_refractivity>
51.32

>  <oscillator_strength_1>
0.0086

>  <oscillator_strength_2>
0.0164

>  <oscillator_strength_3>
0.0024

>  <oscillator_strength_4>
0.0026

>  <open_babel_can_smiles>
NCCSCc1ccccc1

>  <mulliken_charges>
24
1   -0.130151
2   -0.131794
3   -0.127406
4   -0.165184
5   -0.186242
6   -0.154777
7   -0.409906
8   -0.510703
9   0.179367
10   -0.701445
11   0.070432
12   0.131892
13   0.133183
14   0.131836
15   0.136719
16   0.125993
17   0.158338
18   0.149343
19   0.168618
20   0.161865
21   0.188084
22   0.176219
23   0.312246
24   0.293475

>  <lowdin_charges>
24
1   -0.156457
2   -0.154805
3   -0.156474
4   -0.156577
5   -0.172108
6   -0.207642
7   -0.396233
8   -0.370426
9   -0.011911
10   -0.547642
11   0.073749
12   0.15841
13   0.159757
14   0.15887
15   0.162221
16   0.155783
17   0.149658
18   0.149051
19   0.156819
20   0.155018
21   0.17728
22   0.161904
23   0.260298
24   0.251455

$$$$

