PCCDB-ID:  69980
public computational chemistry database (PCCDB) project, http://pccdb.org

 13 13  0  0  0  0  0  0  0  0999 V2000
   -1.2652   -0.0423    0.0925 C   0  0  0  0  0  0  0  0  0  0  0  0
   -0.4366   -1.1872    0.0868 C   0  0  0  0  0  0  0  0  0  0  0  0
   -0.6796    2.4846   -0.0566 C   0  0  0  0  0  0  0  0  0  0  0  0
    2.1461   -1.4196   -0.0768 C   0  0  0  0  0  0  0  0  0  0  0  0
   -0.4250    1.0460   -0.0110 C   0  0  0  0  0  0  0  0  0  0  0  0
    0.8593   -0.7287   -0.0201 C   0  0  0  0  0  0  0  0  0  0  0  0
   -1.7986    2.9603   -0.0022 O   0  0  0  0  0  0  0  0  0  0  0  0
    2.2487   -2.6315   -0.0296 O   0  0  0  0  0  0  0  0  0  0  0  0
    0.8731    0.6337   -0.0799 O   0  0  0  0  0  0  0  0  0  0  0  0
   -2.3425    0.0059    0.1620 H   0  0  0  0  0  0  0  0  0  0  0  0
   -0.7272   -2.2260    0.1512 H   0  0  0  0  0  0  0  0  0  0  0  0
    0.2299    3.1129   -0.1449 H   0  0  0  0  0  0  0  0  0  0  0  0
    3.0264   -0.7514   -0.1667 H   0  0  0  0  0  0  0  0  0  0  0  0
  1 10  1  0  0  0  0
  2  1  1  0  0  0  0
  2 11  1  0  0  0  0
  3  5  1  0  0  0  0
  3  7  2  0  0  0  0
  4  8  2  0  0  0  0
  4  6  1  0  0  0  0
  5  1  2  0  0  0  0
  6  2  2  0  0  0  0
  9  6  1  0  0  0  0
  9  5  1  0  0  0  0
 12  3  1  0  0  0  0
 13  4  1  0  0  0  0
M  END
>  <HBA>
3

>  <HBD>
0

>  <TPSA>
47.28

>  <cid>
69980

>  <dipole>
0.18

>  <excitation_energy_1>
3.367

>  <excitation_energy_2>
3.549

>  <excitation_energy_3>
4.435

>  <excitation_energy_4>
5.043

>  <homo_energy>
-7.241

>  <homo_lumo_gap>
4.487

>  <logP>
0.905

>  <lumo_energy>
-2.754

>  <melting_point>
71.09

>  <molecular_refractivity>
29.48

>  <oscillator_strength_1>
0.0

>  <oscillator_strength_2>
0.0001

>  <oscillator_strength_3>
0.5499

>  <oscillator_strength_4>
0.0002

>  <open_babel_can_smiles>
O=Cc1ccc(o1)C=O

>  <mulliken_charges>
13
1   -0.171708
2   -0.17211
3   0.180694
4   0.180718
5   0.307198
6   0.307495
7   -0.393256
8   -0.393338
9   -0.473392
10   0.184559
11   0.184565
12   0.129292
13   0.129283

>  <lowdin_charges>
13
1   -0.150189
2   -0.1509
3   0.038773
4   0.035509
5   0.041824
6   0.043444
7   -0.215385
8   -0.214145
9   -0.081266
10   0.189803
11   0.190473
12   0.13566
13   0.1364

$$$$

