PCCDB-ID:  33163
public computational chemistry database (PCCDB) project, http://pccdb.org

 20 19  0  0  0  0  0  0  0  0999 V2000
    4.1080   -1.4879   -1.6802 C   0  0  0  0  0  0  0  0  0  0  0  0
    4.3488    0.3199    3.3936 C   0  0  0  0  0  0  0  0  0  0  0  0
    4.1234    0.7735   -1.0232 C   0  0  0  0  0  0  0  0  0  0  0  0
    3.2436    0.1177    2.3562 C   0  0  0  0  0  0  0  0  0  0  0  0
    4.2765    1.6884    0.1842 C   0  0  0  0  0  0  0  0  0  0  0  0
    4.0428    1.3335    4.3318 O   0  0  0  0  0  0  0  0  0  0  0  0
    4.2720   -0.5737   -0.6151 O   0  0  0  0  0  0  0  0  0  0  0  0
    2.8827    1.6442    1.3839 S   0  0  0  0  0  0  0  0  0  0  0  0
    4.2475   -2.4908   -1.2691 H   0  0  0  0  0  0  0  0  0  0  0  0
    4.8519   -1.3207   -2.4756 H   0  0  0  0  0  0  0  0  0  0  0  0
    3.1026   -1.4182   -2.1242 H   0  0  0  0  0  0  0  0  0  0  0  0
    5.3096    0.5140    2.8875 H   0  0  0  0  0  0  0  0  0  0  0  0
    4.4698   -0.6053    3.9695 H   0  0  0  0  0  0  0  0  0  0  0  0
    4.8994    1.0290   -1.7682 H   0  0  0  0  0  0  0  0  0  0  0  0
    3.1413    0.9296   -1.4976 H   0  0  0  0  0  0  0  0  0  0  0  0
    2.3017   -0.1129    2.8645 H   0  0  0  0  0  0  0  0  0  0  0  0
    3.4806   -0.6893    1.6596 H   0  0  0  0  0  0  0  0  0  0  0  0
    4.3210    2.7273   -0.1590 H   0  0  0  0  0  0  0  0  0  0  0  0
    5.2181    1.4720    0.6989 H   0  0  0  0  0  0  0  0  0  0  0  0
    3.8348    2.1297    3.8116 H   0  0  0  0  0  0  0  0  0  0  0  0
  1  9  1  0  0  0  0
  1  7  1  0  0  0  0
  2 13  1  0  0  0  0
  2  6  1  0  0  0  0
  3  7  1  0  0  0  0
  3  5  1  0  0  0  0
  4 16  1  0  0  0  0
  4  2  1  0  0  0  0
  5 19  1  0  0  0  0
  5  8  1  0  0  0  0
  8  4  1  0  0  0  0
 10  1  1  0  0  0  0
 11  1  1  0  0  0  0
 12  2  1  0  0  0  0
 14  3  1  0  0  0  0
 15  3  1  0  0  0  0
 17  4  1  0  0  0  0
 18  5  1  0  0  0  0
 20  6  1  0  0  0  0
M  END
>  <HBA>
3

>  <HBD>
1

>  <TPSA>
54.76

>  <cid>
33163

>  <dipole>
3.67

>  <excitation_energy_1>
5.404

>  <excitation_energy_2>
5.747

>  <excitation_energy_3>
6.076

>  <excitation_energy_4>
6.141

>  <homo_energy>
-6.18

>  <homo_lumo_gap>
7.266

>  <logP>
0.358

>  <lumo_energy>
1.086

>  <melting_point>
-7.26

>  <molecular_refractivity>
35.99

>  <oscillator_strength_1>
0.014

>  <oscillator_strength_2>
0.0335

>  <oscillator_strength_3>
0.0205

>  <oscillator_strength_4>
0.0007

>  <open_babel_can_smiles>
COCCSCCO

>  <mulliken_charges>
20
1   -0.195291
2   -0.018004
3   0.002591
4   -0.439872
5   -0.438828
6   -0.620068
7   -0.45691
8   0.051495
9   0.16156
10   0.13331
11   0.13834
12   0.123621
13   0.149758
14   0.123776
15   0.138916
16   0.180759
17   0.200254
18   0.17787
19   0.184499
20   0.402225

>  <lowdin_charges>
20
1   -0.27924
2   -0.139881
3   -0.131973
4   -0.399081
5   -0.384189
6   -0.469818
7   -0.27133
8   0.078536
9   0.156366
10   0.134416
11   0.135636
12   0.12475
13   0.150537
14   0.130216
15   0.136458
16   0.171173
17   0.176984
18   0.172714
19   0.16571
20   0.342017

$$$$

