PCCDB-ID:  35528
public computational chemistry database (PCCDB) project, http://pccdb.org

 25 26  0  0  0  0  0  0  0  0999 V2000
    3.6300    0.9383   -3.1718 C   0  0  0  0  0  0  0  0  0  0  0  0
    3.0894    0.7369   -1.7650 C   0  0  0  0  0  0  0  0  0  0  0  0
    8.3143    2.1030    2.2972 C   0  0  0  0  0  0  0  0  0  0  0  0
    9.1148    1.0800    2.8032 C   0  0  0  0  0  0  0  0  0  0  0  0
    7.2048    1.8243    1.4912 C   0  0  0  0  0  0  0  0  0  0  0  0
    8.8165   -0.2542    2.5073 C   0  0  0  0  0  0  0  0  0  0  0  0
    5.6319   -1.4467    0.4995 C   0  0  0  0  0  0  0  0  0  0  0  0
    6.9089    0.4933    1.1942 C   0  0  0  0  0  0  0  0  0  0  0  0
    7.7178   -0.5357    1.7045 C   0  0  0  0  0  0  0  0  0  0  0  0
    4.9906    0.7971   -0.3390 C   0  0  0  0  0  0  0  0  0  0  0  0
    5.8442    0.0041    0.3957 N   0  0  0  0  0  0  0  0  0  0  0  0
    5.0648    2.0078   -0.4478 O   0  0  0  0  0  0  0  0  0  0  0  0
    4.0365    0.0303   -0.9282 O   0  0  0  0  0  0  0  0  0  0  0  0
    7.2012   -2.1508    1.1641 S   0  0  0  0  0  0  0  0  0  0  0  0
    2.8600    1.3976   -3.8025 H   0  0  0  0  0  0  0  0  0  0  0  0
    3.9154   -0.0186   -3.6212 H   0  0  0  0  0  0  0  0  0  0  0  0
    4.5013    1.5988   -3.1576 H   0  0  0  0  0  0  0  0  0  0  0  0
    2.2042    0.0960   -1.7615 H   0  0  0  0  0  0  0  0  0  0  0  0
    2.8487    1.6912   -1.2913 H   0  0  0  0  0  0  0  0  0  0  0  0
    8.5457    3.1384    2.5303 H   0  0  0  0  0  0  0  0  0  0  0  0
    9.9713    1.3127    3.4293 H   0  0  0  0  0  0  0  0  0  0  0  0
    6.5856    2.6152    1.0923 H   0  0  0  0  0  0  0  0  0  0  0  0
    9.4314   -1.0600    2.8971 H   0  0  0  0  0  0  0  0  0  0  0  0
    5.4214   -1.8751   -0.4791 H   0  0  0  0  0  0  0  0  0  0  0  0
    4.8011   -1.6719    1.1774 H   0  0  0  0  0  0  0  0  0  0  0  0
  1 17  1  0  0  0  0
  1  2  1  0  0  0  0
  2 18  1  0  0  0  0
  2 19  1  0  0  0  0
  2 13  1  0  0  0  0
  3 20  1  0  0  0  0
  3  4  2  0  0  0  0
  4 21  1  0  0  0  0
  5  3  1  0  0  0  0
  6  4  1  0  0  0  0
  6 23  1  0  0  0  0
  7 14  1  0  0  0  0
  7 25  1  0  0  0  0
  8  5  2  0  0  0  0
  8  9  1  0  0  0  0
  9  6  2  0  0  0  0
 10 11  1  0  0  0  0
 11  7  1  0  0  0  0
 11  8  1  0  0  0  0
 12 10  2  0  0  0  0
 13 10  1  0  0  0  0
 14  9  1  0  0  0  0
 15  1  1  0  0  0  0
 16  1  1  0  0  0  0
 22  5  1  0  0  0  0
 24  7  1  0  0  0  0
M  END
>  <HBA>
4

>  <HBD>
0

>  <TPSA>
54.84

>  <cid>
35528

>  <dipole>
1.86

>  <excitation_energy_1>
4.24

>  <excitation_energy_2>
4.461

>  <excitation_energy_3>
4.723

>  <excitation_energy_4>
4.981

>  <homo_energy>
-5.472

>  <homo_lumo_gap>
5.279

>  <logP>
2.778

>  <lumo_energy>
-0.193

>  <melting_point>
71.17

>  <molecular_refractivity>
59.67

>  <oscillator_strength_1>
0.0061

>  <oscillator_strength_2>
0.0658

>  <oscillator_strength_3>
0.1188

>  <oscillator_strength_4>
0.0023

>  <open_babel_can_smiles>
CCOC(=O)N1CSc2c1cccc2

>  <mulliken_charges>
25
1   -0.462933
2   -0.038518
3   -0.152968
4   -0.116011
5   -0.145632
6   -0.173779
7   -0.276285
8   0.35908
9   -0.161084
10   0.81008
11   -0.593249
12   -0.512001
13   -0.498164
14   0.155062
15   0.152123
16   0.156382
17   0.180442
18   0.153972
19   0.175427
20   0.133821
21   0.130909
22   0.182227
23   0.140776
24   0.20578
25   0.194546

>  <lowdin_charges>
25
1   -0.45742
2   -0.124717
3   -0.155952
4   -0.160956
5   -0.176241
6   -0.16716
7   -0.277153
8   0.046848
9   -0.136743
10   0.210943
11   -0.082812
12   -0.297952
13   -0.205121
14   0.167913
15   0.161201
16   0.15579
17   0.167979
18   0.153317
19   0.161566
20   0.159663
21   0.160312
22   0.188176
23   0.166371
24   0.17909
25   0.163059

$$$$

