PCCDB-ID:  6200
public computational chemistry database (PCCDB) project, http://pccdb.org

 26 27  0  0  0  0  0  0  0  0999 V2000
   -0.7393    1.2013    0.1471 C   0  0  0  0  0  0  0  0  0  0  0  0
    1.3928    0.1178   -0.2241 C   0  0  0  0  0  0  0  0  0  0  0  0
   -1.3390   -4.9052    0.4300 C   0  0  0  0  0  0  0  0  0  0  0  0
   -3.2156   -3.9192   -0.7377 C   0  0  0  0  0  0  0  0  0  0  0  0
   -1.3755   -0.0356    0.1158 C   0  0  0  0  0  0  0  0  0  0  0  0
    0.7579   -1.1157   -0.2533 C   0  0  0  0  0  0  0  0  0  0  0  0
   -0.7024   -3.6685    0.4555 C   0  0  0  0  0  0  0  0  0  0  0  0
   -2.5809   -2.6855   -0.7102 C   0  0  0  0  0  0  0  0  0  0  0  0
    1.3191    2.6079    0.0126 C   0  0  0  0  0  0  0  0  0  0  0  0
   -3.2714   -6.3601   -0.1890 C   0  0  0  0  0  0  0  0  0  0  0  0
    0.6479    1.2896   -0.0223 C   0  0  0  0  0  0  0  0  0  0  0  0
   -2.5990   -5.0422   -0.1655 C   0  0  0  0  0  0  0  0  0  0  0  0
   -0.6379   -1.2161   -0.0836 C   0  0  0  0  0  0  0  0  0  0  0  0
   -1.3127   -2.5365   -0.1132 C   0  0  0  0  0  0  0  0  0  0  0  0
    2.5153    2.7784   -0.1270 O   0  0  0  0  0  0  0  0  0  0  0  0
   -4.3613   -6.5711   -0.6857 O   0  0  0  0  0  0  0  0  0  0  0  0
   -1.3196    2.1071    0.3101 H   0  0  0  0  0  0  0  0  0  0  0  0
    2.4663    0.2022   -0.3624 H   0  0  0  0  0  0  0  0  0  0  0  0
   -0.8603   -5.7723    0.8805 H   0  0  0  0  0  0  0  0  0  0  0  0
   -4.1886   -4.0418   -1.2035 H   0  0  0  0  0  0  0  0  0  0  0  0
   -2.4480   -0.0938    0.2748 H   0  0  0  0  0  0  0  0  0  0  0  0
    1.3385   -2.0149   -0.4371 H   0  0  0  0  0  0  0  0  0  0  0  0
    0.2626   -3.5693    0.9434 H   0  0  0  0  0  0  0  0  0  0  0  0
   -3.0532   -1.8274   -1.1793 H   0  0  0  0  0  0  0  0  0  0  0  0
    0.6375    3.4712    0.1814 H   0  0  0  0  0  0  0  0  0  0  0  0
   -2.6981   -7.1820    0.2951 H   0  0  0  0  0  0  0  0  0  0  0  0
  1 17  1  0  0  0  0
  2 11  1  0  0  0  0
  3  7  1  0  0  0  0
  3 19  1  0  0  0  0
  4  8  2  0  0  0  0
  4 12  1  0  0  0  0
  5  1  1  0  0  0  0
  5 21  1  0  0  0  0
  6  2  2  0  0  0  0
  6 13  1  0  0  0  0
  7 23  1  0  0  0  0
  8 14  1  0  0  0  0
  9 25  1  0  0  0  0
 10 12  1  0  0  0  0
 10 26  1  0  0  0  0
 11  9  1  0  0  0  0
 11  1  2  0  0  0  0
 12  3  2  0  0  0  0
 13  5  2  0  0  0  0
 14 13  1  0  0  0  0
 14  7  2  0  0  0  0
 15  9  2  0  0  0  0
 16 10  2  0  0  0  0
 18  2  1  0  0  0  0
 20  4  1  0  0  0  0
 22  6  1  0  0  0  0
 24  8  1  0  0  0  0
M  END
>  <HBA>
2

>  <HBD>
0

>  <TPSA>
34.14

>  <cid>
6200

>  <dipole>
1.07

>  <excitation_energy_1>
3.544

>  <excitation_energy_2>
3.551

>  <excitation_energy_3>
4.044

>  <excitation_energy_4>
4.361

>  <homo_energy>
-6.784

>  <homo_lumo_gap>
4.403

>  <logP>
2.979

>  <lumo_energy>
-2.381

>  <melting_point>
110.13

>  <molecular_refractivity>
62.65

>  <oscillator_strength_1>
0.0001

>  <oscillator_strength_2>
0.0001

>  <oscillator_strength_3>
0.8491

>  <oscillator_strength_4>
0.0037

>  <open_babel_can_smiles>
O=Cc1ccc(cc1)c1ccc(cc1)C=O

>  <mulliken_charges>
26
1   -0.184194
2   -0.163551
3   -0.184107
4   -0.163721
5   -0.175653
6   -0.172392
7   -0.175829
8   -0.172319
9   0.194098
10   0.194158
11   0.101243
12   0.10138
13   0.094882
14   0.09512
15   -0.404105
16   -0.404173
17   0.14544
18   0.167916
19   0.145367
20   0.167939
21   0.145695
22   0.145648
23   0.145726
24   0.145585
25   0.104929
26   0.104917

>  <lowdin_charges>
26
1   -0.139522
2   -0.120002
3   -0.139626
4   -0.121076
5   -0.155845
6   -0.156522
7   -0.157076
8   -0.156852
9   0.043037
10   0.042678
11   -0.052354
12   -0.052907
13   0.013497
14   0.013526
15   -0.2242
16   -0.223826
17   0.165067
18   0.176403
19   0.165343
20   0.177646
21   0.163796
22   0.166098
23   0.165116
24   0.166374
25   0.120485
26   0.120742

$$$$

