PCCDB-ID:  756
public computational chemistry database (PCCDB) project, http://pccdb.org

  8  7  0  0  0  0  0  0  0  0999 V2000
    0.9977   -0.1232   -0.0218 C   0  0  0  0  0  0  0  0  0  0  0  0
    0.2053    0.6117    1.0534 C   0  0  0  0  0  0  0  0  0  0  0  0
    2.0801    0.2346   -0.4260 O   0  0  0  0  0  0  0  0  0  0  0  0
   -1.1653    0.2564    1.0587 O   0  0  0  0  0  0  0  0  0  0  0  0
    0.4962   -1.0427   -0.4026 H   0  0  0  0  0  0  0  0  0  0  0  0
    0.3799    1.6931    0.9545 H   0  0  0  0  0  0  0  0  0  0  0  0
    0.6072    0.3071    2.0287 H   0  0  0  0  0  0  0  0  0  0  0  0
   -1.5856    0.6626    0.2852 H   0  0  0  0  0  0  0  0  0  0  0  0
  1  2  1  0  0  0  0
  2  4  1  0  0  0  0
  2  7  1  0  0  0  0
  3  1  2  0  0  0  0
  5  1  1  0  0  0  0
  6  2  1  0  0  0  0
  8  4  1  0  0  0  0
M  END
>  <HBA>
2

>  <HBD>
1

>  <TPSA>
37.3

>  <cid>
756

>  <dipole>
1.75

>  <excitation_energy_1>
4.065

>  <excitation_energy_2>
6.12

>  <excitation_energy_3>
6.338

>  <excitation_energy_4>
7.039

>  <homo_energy>
-6.95

>  <homo_lumo_gap>
5.951

>  <logP>
-0.822

>  <lumo_energy>
-0.999

>  <melting_point>
26.44

>  <molecular_refractivity>
13.09

>  <oscillator_strength_1>
0.0001

>  <oscillator_strength_2>
0.008

>  <oscillator_strength_3>
0.004

>  <oscillator_strength_4>
0.0056

>  <open_babel_can_smiles>
OCC=O

>  <mulliken_charges>
8
1   0.216464
2   -0.109204
3   -0.371418
4   -0.604489
5   0.11918
6   0.162843
7   0.187821
8   0.398803

>  <lowdin_charges>
8
1   0.034397
2   -0.17077
3   -0.207806
4   -0.455512
5   0.12216
6   0.152584
7   0.175528
8   0.34942

$$$$

