PCCDB-ID:  58285
public computational chemistry database (PCCDB) project, http://pccdb.org

 34 36  0  0  0  0  0  0  0  0999 V2000
    3.8288   -2.1553    0.9069 C   0  0  0  0  0  0  0  0  0  0  0  0
    2.0693   -0.4759    0.4469 C   0  0  0  0  0  0  0  0  0  0  0  0
    4.3237    5.2146    4.5932 C   0  0  0  0  0  0  0  0  0  0  0  0
    5.6454    5.7078   -1.2773 C   0  0  0  0  0  0  0  0  0  0  0  0
    4.1872    3.8569    4.9022 C   0  0  0  0  0  0  0  0  0  0  0  0
    5.7049    4.4221   -1.8256 C   0  0  0  0  0  0  0  0  0  0  0  0
    4.6569    5.6220    3.2986 C   0  0  0  0  0  0  0  0  0  0  0  0
    5.3798    5.8920    0.0822 C   0  0  0  0  0  0  0  0  0  0  0  0
    4.3912    2.8812    3.9189 C   0  0  0  0  0  0  0  0  0  0  0  0
    5.5070    3.2957   -1.0178 C   0  0  0  0  0  0  0  0  0  0  0  0
    4.3310    0.2340    1.0205 C   0  0  0  0  0  0  0  0  0  0  0  0
    4.8530    4.6494    2.3167 C   0  0  0  0  0  0  0  0  0  0  0  0
    5.1759    4.7693    0.8863 C   0  0  0  0  0  0  0  0  0  0  0  0
    4.7288    3.2832    2.6342 C   0  0  0  0  0  0  0  0  0  0  0  0
    5.2498    3.4760    0.3341 C   0  0  0  0  0  0  0  0  0  0  0  0
    5.0357    2.4186    1.4146 C   0  0  0  0  0  0  0  0  0  0  0  0
    3.9871    1.4646    1.1016 N   0  0  0  0  0  0  0  0  0  0  0  0
    3.4767   -0.7722    0.6545 N   0  0  0  0  0  0  0  0  0  0  0  0
    3.4921   -2.7888    0.0773 H   0  0  0  0  0  0  0  0  0  0  0  0
    3.3747   -2.5401    1.8342 H   0  0  0  0  0  0  0  0  0  0  0  0
    4.9151   -2.2523    0.9921 H   0  0  0  0  0  0  0  0  0  0  0  0
    1.6577   -1.1677   -0.2964 H   0  0  0  0  0  0  0  0  0  0  0  0
    1.9760    0.5506    0.0911 H   0  0  0  0  0  0  0  0  0  0  0  0
    1.4884   -0.5743    1.3768 H   0  0  0  0  0  0  0  0  0  0  0  0
    4.1641    5.9608    5.3673 H   0  0  0  0  0  0  0  0  0  0  0  0
    5.8028    6.5727   -1.9166 H   0  0  0  0  0  0  0  0  0  0  0  0
    3.9182    3.5588    5.9122 H   0  0  0  0  0  0  0  0  0  0  0  0
    5.9036    4.2978   -2.8869 H   0  0  0  0  0  0  0  0  0  0  0  0
    4.7538    6.6792    3.0647 H   0  0  0  0  0  0  0  0  0  0  0  0
    5.3279    6.8945    0.4997 H   0  0  0  0  0  0  0  0  0  0  0  0
    4.2774    1.8262    4.1556 H   0  0  0  0  0  0  0  0  0  0  0  0
    5.5454    2.2967   -1.4452 H   0  0  0  0  0  0  0  0  0  0  0  0
    5.3563   -0.1194    1.2117 H   0  0  0  0  0  0  0  0  0  0  0  0
    6.0030    1.9037    1.5890 H   0  0  0  0  0  0  0  0  0  0  0  0
  1 21  1  0  0  0  0
  1 20  1  0  0  0  0
  2 18  1  0  0  0  0
  2 24  1  0  0  0  0
  3  5  1  0  0  0  0
  3 25  1  0  0  0  0
  4  8  1  0  0  0  0
  5 27  1  0  0  0  0
  6  4  2  0  0  0  0
  6 10  1  0  0  0  0
  7  3  2  0  0  0  0
  8 30  1  0  0  0  0
  8 13  2  0  0  0  0
  9 31  1  0  0  0  0
  9  5  2  0  0  0  0
 10 15  2  0  0  0  0
 11 17  2  0  0  0  0
 11 33  1  0  0  0  0
 12 14  2  0  0  0  0
 12  7  1  0  0  0  0
 13 12  1  0  0  0  0
 14  9  1  0  0  0  0
 15 13  1  0  0  0  0
 15 16  1  0  0  0  0
 16 34  1  0  0  0  0
 16 14  1  0  0  0  0
 17 16  1  0  0  0  0
 18  1  1  0  0  0  0
 18 11  1  0  0  0  0
 19  1  1  0  0  0  0
 22  2  1  0  0  0  0
 23  2  1  0  0  0  0
 26  4  1  0  0  0  0
 28  6  1  0  0  0  0
 29  7  1  0  0  0  0
 32 10  1  0  0  0  0
M  END
>  <HBA>
2

>  <HBD>
0

>  <TPSA>
15.6

>  <cid>
58285

>  <dipole>
2.96

>  <excitation_energy_1>
4.282

>  <excitation_energy_2>
4.437

>  <excitation_energy_3>
4.688

>  <excitation_energy_4>
4.781

>  <homo_energy>
-5.499

>  <homo_lumo_gap>
4.928

>  <logP>
3.346

>  <lumo_energy>
-0.571

>  <melting_point>
92.01

>  <molecular_refractivity>
75.89

>  <oscillator_strength_1>
0.0916

>  <oscillator_strength_2>
0.0058

>  <oscillator_strength_3>
0.2206

>  <oscillator_strength_4>
0.1062

>  <open_babel_can_smiles>
CN(/C=N/C1c2ccccc2c2c1cccc2)C

>  <mulliken_charges>
34
1   -0.30963
2   -0.310089
3   -0.134552
4   -0.134915
5   -0.134448
6   -0.134152
7   -0.194227
8   -0.193738
9   -0.189985
10   -0.192113
11   0.269045
12   0.082776
13   0.082965
14   0.116555
15   0.116159
16   -0.144732
17   -0.42019
18   -0.381771
19   0.159241
20   0.151904
21   0.161361
22   0.146193
23   0.2011
24   0.149798
25   0.124747
26   0.124835
27   0.123486
28   0.123732
29   0.12623
30   0.12626
31   0.122911
32   0.125136
33   0.108385
34   0.131723

>  <lowdin_charges>
34
1   -0.34622
2   -0.352766
3   -0.157836
4   -0.157656
5   -0.159121
6   -0.157834
7   -0.162408
8   -0.163767
9   -0.154987
10   -0.156881
11   -0.045025
12   -0.008549
13   -0.007856
14   -0.005997
15   -0.006317
16   -0.052857
17   -0.235675
18   -0.103349
19   0.153662
20   0.142743
21   0.156941
22   0.150756
23   0.180847
24   0.145304
25   0.156789
26   0.156606
27   0.154587
28   0.153835
29   0.154492
30   0.155437
31   0.154889
32   0.156614
33   0.123639
34   0.13796

$$$$

