PCCDB-ID:  42434
public computational chemistry database (PCCDB) project, http://pccdb.org

 27 28  0  0  0  0  0  0  0  0999 V2000
    2.4080    1.7585    0.0725 C   0  0  0  0  0  0  0  0  0  0  0  0
    5.9574   -4.7652   -5.7163 C   0  0  0  0  0  0  0  0  0  0  0  0
    5.4923   -0.4092   -3.7535 C   0  0  0  0  0  0  0  0  0  0  0  0
    6.0566   -1.2624   -4.6849 C   0  0  0  0  0  0  0  0  0  0  0  0
    3.8908   -0.0178   -1.8485 C   0  0  0  0  0  0  0  0  0  0  0  0
    4.7773   -3.1155   -3.7513 C   0  0  0  0  0  0  0  0  0  0  0  0
    3.1046   -2.0496   -0.7045 C   0  0  0  0  0  0  0  0  0  0  0  0
    2.3959    0.2381    0.1485 C   0  0  0  0  0  0  0  0  0  0  0  0
    4.5738   -0.8724   -2.7929 C   0  0  0  0  0  0  0  0  0  0  0  0
    3.1358   -0.5465   -0.8571 C   0  0  0  0  0  0  0  0  0  0  0  0
    5.6926   -2.6231   -4.6883 C   0  0  0  0  0  0  0  0  0  0  0  0
    4.2347   -2.2429   -2.8066 C   0  0  0  0  0  0  0  0  0  0  0  0
    1.7815   -0.3376    1.0428 O   0  0  0  0  0  0  0  0  0  0  0  0
    6.2907   -3.3854   -5.6407 O   0  0  0  0  0  0  0  0  0  0  0  0
    3.3094   -2.7475   -1.9504 O   0  0  0  0  0  0  0  0  0  0  0  0
    3.4282    2.1523    0.1515 H   0  0  0  0  0  0  0  0  0  0  0  0
    1.8092    2.1499    0.8968 H   0  0  0  0  0  0  0  0  0  0  0  0
    1.9904    2.1128   -0.8771 H   0  0  0  0  0  0  0  0  0  0  0  0
    6.5438   -5.1674   -6.5440 H   0  0  0  0  0  0  0  0  0  0  0  0
    4.8892   -4.9090   -5.9220 H   0  0  0  0  0  0  0  0  0  0  0  0
    6.2229   -5.2929   -4.7915 H   0  0  0  0  0  0  0  0  0  0  0  0
    5.7572    0.6456   -3.7598 H   0  0  0  0  0  0  0  0  0  0  0  0
    6.7692   -0.9122   -5.4236 H   0  0  0  0  0  0  0  0  0  0  0  0
    3.9822    1.0586   -1.9737 H   0  0  0  0  0  0  0  0  0  0  0  0
    4.4736   -4.1543   -3.7239 H   0  0  0  0  0  0  0  0  0  0  0  0
    2.1356   -2.3831   -0.3326 H   0  0  0  0  0  0  0  0  0  0  0  0
    3.8711   -2.3850    0.0123 H   0  0  0  0  0  0  0  0  0  0  0  0
  1  8  1  0  0  0  0
  1 16  1  0  0  0  0
  1 17  1  0  0  0  0
  2 14  1  0  0  0  0
  2 21  1  0  0  0  0
  3  9  2  0  0  0  0
  4  3  1  0  0  0  0
  5 10  2  0  0  0  0
  6 25  1  0  0  0  0
  6 12  2  0  0  0  0
  7 26  1  0  0  0  0
  7 27  1  0  0  0  0
  8 13  2  0  0  0  0
  9  5  1  0  0  0  0
 10  7  1  0  0  0  0
 10  8  1  0  0  0  0
 11  4  2  0  0  0  0
 11  6  1  0  0  0  0
 12  9  1  0  0  0  0
 12 15  1  0  0  0  0
 14 11  1  0  0  0  0
 15  7  1  0  0  0  0
 18  1  1  0  0  0  0
 19  2  1  0  0  0  0
 20  2  1  0  0  0  0
 22  3  1  0  0  0  0
 23  4  1  0  0  0  0
 24  5  1  0  0  0  0
M  END
>  <HBA>
3

>  <HBD>
0

>  <TPSA>
35.53

>  <cid>
42434

>  <dipole>
3.35

>  <excitation_energy_1>
3.381

>  <excitation_energy_2>
3.545

>  <excitation_energy_3>
4.148

>  <excitation_energy_4>
4.867

>  <homo_energy>
-5.581

>  <homo_lumo_gap>
3.815

>  <logP>
2.06

>  <lumo_energy>
-1.766

>  <melting_point>
85.12

>  <molecular_refractivity>
57.22

>  <oscillator_strength_1>
0.2889

>  <oscillator_strength_2>
0.0189

>  <oscillator_strength_3>
0.1629

>  <oscillator_strength_4>
0.2048

>  <open_babel_can_smiles>
COc1ccc2c(c1)OCC(=C2)C(=O)C

>  <mulliken_charges>
27
1   -0.540494
2   -0.218381
3   -0.20199
4   -0.178663
5   -0.178462
6   -0.265054
7   -0.088915
8   0.420645
9   0.115507
10   0.007687
11   0.388799
12   0.329791
13   -0.473135
14   -0.503407
15   -0.5282
16   0.166702
17   0.180788
18   0.1687
19   0.174437
20   0.159521
21   0.158647
22   0.135355
23   0.140727
24   0.141758
25   0.145763
26   0.186184
27   0.155689

>  <lowdin_charges>
27
1   -0.475828
2   -0.275883
3   -0.13341
4   -0.201586
5   -0.119181
6   -0.242016
7   -0.116235
8   0.152495
9   -0.071341
10   -0.083865
11   0.120365
12   0.124687
13   -0.2595
14   -0.187498
15   -0.194489
16   0.166622
17   0.175888
18   0.168258
19   0.16648
20   0.148192
21   0.149703
22   0.159618
23   0.170281
24   0.163014
25   0.173233
26   0.174011
27   0.147986

$$$$

