PCCDB-ID:  51760
public computational chemistry database (PCCDB) project, http://pccdb.org

 36 35  0  0  0  0  0  0  0  0999 V2000
    2.6118   -0.3864   -0.0378 C   0  0  0  0  0  0  0  0  0  0  0  0
    2.0390   -0.8553   -2.4596 C   0  0  0  0  0  0  0  0  0  0  0  0
    6.2193    0.2405   -1.7935 C   0  0  0  0  0  0  0  0  0  0  0  0
    4.9264    0.1518   -3.9765 C   0  0  0  0  0  0  0  0  0  0  0  0
    2.4592    5.5104   -4.6244 C   0  0  0  0  0  0  0  0  0  0  0  0
    2.9648    2.0199   -2.0470 C   0  0  0  0  0  0  0  0  0  0  0  0
    3.4254    3.2086   -1.1900 C   0  0  0  0  0  0  0  0  0  0  0  0
    3.1469   -0.4104   -1.4795 C   0  0  0  0  0  0  0  0  0  0  0  0
    5.0518    0.8317   -2.5978 C   0  0  0  0  0  0  0  0  0  0  0  0
    3.8110    0.8631   -1.8006 N   0  0  0  0  0  0  0  0  0  0  0  0
    3.6000    7.1203   -2.9064 O   0  0  0  0  0  0  0  0  0  0  0  0
    4.8749    4.8250   -3.3596 O   0  0  0  0  0  0  0  0  0  0  0  0
    3.5613    5.5104   -3.1815 P   0  0  2  0  0  0  0  0  0  0  0  0
    2.4774    4.7699   -1.5101 S   0  0  0  0  0  0  0  0  0  0  0  0
    2.1795   -1.3560    0.2373 H   0  0  0  0  0  0  0  0  0  0  0  0
    1.8247    0.3688    0.0818 H   0  0  0  0  0  0  0  0  0  0  0  0
    3.4166   -0.1490    0.6648 H   0  0  0  0  0  0  0  0  0  0  0  0
    1.1759   -0.1797   -2.4311 H   0  0  0  0  0  0  0  0  0  0  0  0
    1.6758   -1.8541   -2.1893 H   0  0  0  0  0  0  0  0  0  0  0  0
    2.4012   -0.8962   -3.4905 H   0  0  0  0  0  0  0  0  0  0  0  0
    7.1573    0.3396   -2.3519 H   0  0  0  0  0  0  0  0  0  0  0  0
    6.0759   -0.8266   -1.5844 H   0  0  0  0  0  0  0  0  0  0  0  0
    6.3262    0.7618   -0.8369 H   0  0  0  0  0  0  0  0  0  0  0  0
    5.8486    0.2903   -4.5531 H   0  0  0  0  0  0  0  0  0  0  0  0
    4.1034    0.5803   -4.5597 H   0  0  0  0  0  0  0  0  0  0  0  0
    4.7548   -0.9269   -3.8825 H   0  0  0  0  0  0  0  0  0  0  0  0
    2.9551    6.0407   -5.4432 H   0  0  0  0  0  0  0  0  0  0  0  0
    1.5134    6.0048   -4.3886 H   0  0  0  0  0  0  0  0  0  0  0  0
    2.2663    4.4782   -4.9265 H   0  0  0  0  0  0  0  0  0  0  0  0
    2.9634    2.3145   -3.1099 H   0  0  0  0  0  0  0  0  0  0  0  0
    1.9270    1.7876   -1.7911 H   0  0  0  0  0  0  0  0  0  0  0  0
    4.4807    3.4309   -1.3552 H   0  0  0  0  0  0  0  0  0  0  0  0
    3.2766    2.9935   -0.1283 H   0  0  0  0  0  0  0  0  0  0  0  0
    3.9333   -1.1728   -1.5158 H   0  0  0  0  0  0  0  0  0  0  0  0
    5.2963    1.8839   -2.7868 H   0  0  0  0  0  0  0  0  0  0  0  0
    4.1551    7.3304   -2.1355 H   0  0  0  0  0  0  0  0  0  0  0  0
  1 16  1  0  0  0  0
  1 15  1  0  0  0  0
  1 17  1  0  0  0  0
  2 18  1  0  0  0  0
  2 19  1  0  0  0  0
  2  8  1  0  0  0  0
  3 22  1  0  0  0  0
  3 23  1  0  0  0  0
  4 26  1  0  0  0  0
  4  9  1  0  0  0  0
  5 28  1  0  0  0  0
  5 13  1  0  0  0  0
  6 10  1  0  0  0  0
  6 31  1  0  0  0  0
  6  7  1  0  0  0  0
  7 33  1  0  0  0  0
  8  1  1  0  0  0  0
  9 10  1  0  0  0  0
  9  3  1  0  0  0  0
 10  8  1  0  0  0  0
 11 36  1  0  0  0  0
 13 12  2  6  0  0  0
 13 11  1  0  0  0  0
 13 14  1  0  0  0  0
 14  7  1  0  0  0  0
 20  2  1  0  0  0  0
 21  3  1  0  0  0  0
 24  4  1  0  0  0  0
 25  4  1  0  0  0  0
 27  5  1  0  0  0  0
 29  5  1  0  0  0  0
 30  6  1  0  0  0  0
 32  7  1  0  0  0  0
 34  8  1  0  0  0  0
 35  9  1  0  0  0  0
M  END
>  <HBA>
4

>  <HBD>
1

>  <TPSA>
75.65

>  <cid>
51760

>  <dipole>
1.26

>  <excitation_energy_1>
4.519

>  <excitation_energy_2>
4.805

>  <excitation_energy_3>
4.926

>  <excitation_energy_4>
5.144

>  <homo_energy>
-5.323

>  <homo_lumo_gap>
5.655

>  <logP>
2.654

>  <lumo_energy>
0.332

>  <melting_point>
31.59

>  <molecular_refractivity>
65.69

>  <oscillator_strength_1>
0.0147

>  <oscillator_strength_2>
0.0242

>  <oscillator_strength_3>
0.0091

>  <oscillator_strength_4>
0.0189

>  <open_babel_can_smiles>
CC(N(C(C)C)CCS[P@](=O)(O)C)C

>  <mulliken_charges>
36
1   -0.435348
2   -0.452307
3   -0.439139
4   -0.446829
5   -0.64703
6   -0.130908
7   -0.421721
8   0.037763
9   0.02304
10   -0.384474
11   -0.653656
12   -0.547447
13   0.892218
14   -0.12398
15   0.136277
16   0.137741
17   0.149098
18   0.140204
19   0.14031
20   0.150059
21   0.141328
22   0.13846
23   0.148514
24   0.144013
25   0.142879
26   0.139709
27   0.204995
28   0.199813
29   0.195597
30   0.139172
31   0.149513
32   0.219555
33   0.182388
34   0.132369
35   0.161267
36   0.436558

>  <lowdin_charges>
36
1   -0.451285
2   -0.461356
3   -0.448318
4   -0.458832
5   -0.622199
6   -0.20004
7   -0.369608
8   -0.054636
9   -0.054519
10   -0.18653
11   -0.578612
12   -0.597911
13   0.894216
14   -0.079626
15   0.147095
16   0.145352
17   0.153689
18   0.1464
19   0.150162
20   0.152003
21   0.150773
22   0.142482
23   0.152726
24   0.152769
25   0.149031
26   0.143432
27   0.194986
28   0.192066
29   0.187698
30   0.132173
31   0.148771
32   0.180469
33   0.168682
34   0.144092
35   0.154079
36   0.38033

$$$$

