PCCDB-ID:  7463
public computational chemistry database (PCCDB) project, http://pccdb.org

 24 24  0  0  0  0  0  0  0  0999 V2000
    3.2449   -0.0022   -1.3803 C   0  0  0  0  0  0  0  0  0  0  0  0
    0.9439    0.0191   -0.3074 C   0  0  0  0  0  0  0  0  0  0  0  0
    4.1988   -4.0136    3.7963 C   0  0  0  0  0  0  0  0  0  0  0  0
    3.9315   -1.5987    3.0645 C   0  0  0  0  0  0  0  0  0  0  0  0
    3.1841   -3.3223    1.5770 C   0  0  0  0  0  0  0  0  0  0  0  0
    3.5084   -0.6312    2.1512 C   0  0  0  0  0  0  0  0  0  0  0  0
    2.7626   -2.3564    0.6659 C   0  0  0  0  0  0  0  0  0  0  0  0
    2.4625    0.0760   -0.0556 C   0  0  0  0  0  0  0  0  0  0  0  0
    3.7736   -2.9625    2.7972 C   0  0  0  0  0  0  0  0  0  0  0  0
    2.9154   -0.9880    0.9352 C   0  0  0  0  0  0  0  0  0  0  0  0
    2.9514    0.8130   -2.0528 H   0  0  0  0  0  0  0  0  0  0  0  0
    3.0534   -0.9482   -1.9010 H   0  0  0  0  0  0  0  0  0  0  0  0
    4.3242    0.0700   -1.2072 H   0  0  0  0  0  0  0  0  0  0  0  0
    0.6292    0.8383   -0.9651 H   0  0  0  0  0  0  0  0  0  0  0  0
    0.3841    0.0998    0.6307 H   0  0  0  0  0  0  0  0  0  0  0  0
    0.6548   -0.9231   -0.7883 H   0  0  0  0  0  0  0  0  0  0  0  0
    4.9551   -3.6270    4.4875 H   0  0  0  0  0  0  0  0  0  0  0  0
    4.6162   -4.8961    3.2984 H   0  0  0  0  0  0  0  0  0  0  0  0
    3.3490   -4.3570    4.4018 H   0  0  0  0  0  0  0  0  0  0  0  0
    4.3926   -1.2863    3.9992 H   0  0  0  0  0  0  0  0  0  0  0  0
    3.0548   -4.3758    1.3368 H   0  0  0  0  0  0  0  0  0  0  0  0
    3.6466    0.4220    2.3878 H   0  0  0  0  0  0  0  0  0  0  0  0
    2.3114   -2.6757   -0.2708 H   0  0  0  0  0  0  0  0  0  0  0  0
    2.6828    1.0526    0.3973 H   0  0  0  0  0  0  0  0  0  0  0  0
  1 13  1  0  0  0  0
  1  8  1  0  0  0  0
  2  8  1  0  0  0  0
  2 15  1  0  0  0  0
  3 19  1  0  0  0  0
  3 17  1  0  0  0  0
  4 20  1  0  0  0  0
  5  9  2  0  0  0  0
  6 22  1  0  0  0  0
  6  4  2  0  0  0  0
  7 10  2  0  0  0  0
  7  5  1  0  0  0  0
  8 24  1  0  0  0  0
  8 10  1  0  0  0  0
  9  4  1  0  0  0  0
  9  3  1  0  0  0  0
 10  6  1  0  0  0  0
 11  1  1  0  0  0  0
 12  1  1  0  0  0  0
 14  2  1  0  0  0  0
 16  2  1  0  0  0  0
 18  3  1  0  0  0  0
 21  5  1  0  0  0  0
 23  7  1  0  0  0  0
M  END
>  <HBA>
0

>  <HBD>
0

>  <TPSA>
0.0

>  <cid>
7463

>  <dipole>
0.07

>  <excitation_energy_1>
5.187

>  <excitation_energy_2>
5.759

>  <excitation_energy_3>
5.78

>  <excitation_energy_4>
6.1

>  <homo_energy>
-6.155

>  <homo_lumo_gap>
6.335

>  <logP>
3.118

>  <lumo_energy>
0.18

>  <melting_point>
10.66

>  <molecular_refractivity>
45.99

>  <oscillator_strength_1>
0.0036

>  <oscillator_strength_2>
0.031

>  <oscillator_strength_3>
0.0466

>  <oscillator_strength_4>
0.0032

>  <open_babel_can_smiles>
Cc1ccc(cc1)C(C)C

>  <mulliken_charges>
24
1   -0.437465
2   -0.438235
3   -0.529285
4   -0.177875
5   -0.179264
6   -0.196663
7   -0.184749
8   -0.159618
9   0.176289
10   0.186287
11   0.139603
12   0.142368
13   0.148995
14   0.139761
15   0.149106
16   0.142359
17   0.154285
18   0.156081
19   0.163424
20   0.118114
21   0.118194
22   0.119671
23   0.121556
24   0.12706

>  <lowdin_charges>
24
1   -0.440822
2   -0.443209
3   -0.444158
4   -0.167647
5   -0.164393
6   -0.167703
7   -0.163972
8   -0.117465
9   -0.004285
10   -0.005069
11   0.148226
12   0.146991
13   0.150673
14   0.14844
15   0.152603
16   0.147024
17   0.157457
18   0.158081
19   0.161199
20   0.152556
21   0.150945
22   0.151002
23   0.152775
24   0.140748

$$$$

