PCCDB-ID:  41232
public computational chemistry database (PCCDB) project, http://pccdb.org

 20 20  0  0  0  0  0  0  0  0999 V2000
    0.8769   -1.2390    0.9173 C   0  0  0  0  0  0  0  0  0  0  0  0
    2.0316   -1.4933    1.8739 C   0  0  0  0  0  0  0  0  0  0  0  0
    6.4889    3.4940    0.4962 C   0  0  0  0  0  0  0  0  0  0  0  0
    5.3552    2.7485    0.9733 C   0  0  0  0  0  0  0  0  0  0  0  0
    7.2982    2.6194   -0.1527 C   0  0  0  0  0  0  0  0  0  0  0  0
    5.5776    1.4662    0.5663 C   0  0  0  0  0  0  0  0  0  0  0  0
    3.6850    0.1209    1.3270 C   0  0  0  0  0  0  0  0  0  0  0  0
    4.8918    0.2638    0.6886 N   0  0  0  0  0  0  0  0  0  0  0  0
    3.0640    1.0170    1.8652 O   0  0  0  0  0  0  0  0  0  0  0  0
    3.3051   -1.1805    1.2630 O   0  0  0  0  0  0  0  0  0  0  0  0
    6.7467    1.3561   -0.1183 O   0  0  0  0  0  0  0  0  0  0  0  0
   -0.0665   -1.5439    1.3848 H   0  0  0  0  0  0  0  0  0  0  0  0
    1.0029   -1.8102   -0.0083 H   0  0  0  0  0  0  0  0  0  0  0  0
    0.8096   -0.1753    0.6723 H   0  0  0  0  0  0  0  0  0  0  0  0
    2.1135   -2.5518    2.1330 H   0  0  0  0  0  0  0  0  0  0  0  0
    1.9265   -0.9041    2.7880 H   0  0  0  0  0  0  0  0  0  0  0  0
    6.6660    4.5524    0.6285 H   0  0  0  0  0  0  0  0  0  0  0  0
    4.5031    3.0989    1.5316 H   0  0  0  0  0  0  0  0  0  0  0  0
    8.2419    2.6963   -0.6684 H   0  0  0  0  0  0  0  0  0  0  0  0
    5.3173   -0.5570    0.2797 H   0  0  0  0  0  0  0  0  0  0  0  0
  1 12  1  0  0  0  0
  1  2  1  0  0  0  0
  2 15  1  0  0  0  0
  2 16  1  0  0  0  0
  3 17  1  0  0  0  0
  3  4  1  0  0  0  0
  4 18  1  0  0  0  0
  5 11  1  0  0  0  0
  5  3  2  0  0  0  0
  6  8  1  0  0  0  0
  6  4  2  0  0  0  0
  7  9  2  0  0  0  0
  8  7  1  0  0  0  0
 10  7  1  0  0  0  0
 10  2  1  0  0  0  0
 11  6  1  0  0  0  0
 13  1  1  0  0  0  0
 14  1  1  0  0  0  0
 19  5  1  0  0  0  0
 20  8  1  0  0  0  0
M  END
>  <HBA>
4

>  <HBD>
1

>  <TPSA>
51.47

>  <cid>
41232

>  <dipole>
1.83

>  <excitation_energy_1>
5.005

>  <excitation_energy_2>
5.213

>  <excitation_energy_3>
5.431

>  <excitation_energy_4>
5.703

>  <homo_energy>
-5.402

>  <homo_lumo_gap>
5.761

>  <logP>
1.921

>  <lumo_energy>
0.359

>  <melting_point>
58.54

>  <molecular_refractivity>
39.3

>  <oscillator_strength_1>
0.0048

>  <oscillator_strength_2>
0.4598

>  <oscillator_strength_3>
0.0083

>  <oscillator_strength_4>
0.0048

>  <open_babel_can_smiles>
CCOC(=O)Nc1ccco1

>  <mulliken_charges>
20
1   -0.462117
2   -0.039088
3   -0.188533
4   -0.171427
5   0.075749
6   0.546296
7   0.80732
8   -0.736033
9   -0.504743
10   -0.496599
11   -0.463581
12   0.150909
13   0.156523
14   0.178885
15   0.153629
16   0.174389
17   0.141403
18   0.168434
19   0.152948
20   0.355637

>  <lowdin_charges>
20
1   -0.455026
2   -0.121532
3   -0.189616
4   -0.239485
5   -0.096883
6   0.122113
7   0.220432
8   -0.234655
9   -0.300109
10   -0.21359
11   -0.118135
12   0.159481
13   0.155858
14   0.165503
15   0.151249
16   0.160678
17   0.168233
18   0.186647
19   0.17064
20   0.308195

$$$$

