PCCDB-ID:  42796
public computational chemistry database (PCCDB) project, http://pccdb.org

 31 32  0  0  0  0  0  0  0  0999 V2000
    3.8399    0.6800    1.5431 C   0  0  0  0  0  0  0  0  0  0  0  0
    6.1824    1.1796    1.3866 C   0  0  0  0  0  0  0  0  0  0  0  0
    3.9740   -8.8847   -1.9781 C   0  0  0  0  0  0  0  0  0  0  0  0
    5.1461   -8.3918   -2.5592 C   0  0  0  0  0  0  0  0  0  0  0  0
    3.1090   -8.0145   -1.3124 C   0  0  0  0  0  0  0  0  0  0  0  0
    5.4535   -7.0368   -2.4757 C   0  0  0  0  0  0  0  0  0  0  0  0
    3.4108   -6.6564   -1.2251 C   0  0  0  0  0  0  0  0  0  0  0  0
    4.3371   -1.3383   -0.7261 C   0  0  0  0  0  0  0  0  0  0  0  0
    5.3298   -0.8102    0.3309 C   0  0  0  0  0  0  0  0  0  0  0  0
    4.5852   -6.1592   -1.8071 C   0  0  0  0  0  0  0  0  0  0  0  0
    4.7082   -2.6973   -1.2158 C   0  0  0  0  0  0  0  0  0  0  0  0
    4.8950   -4.7263   -1.7094 C   0  0  0  0  0  0  0  0  0  0  0  0
    4.0712   -3.8203   -1.0641 N   0  0  0  0  0  0  0  0  0  0  0  0
    5.9799   -4.1934   -2.2279 N   0  0  0  0  0  0  0  0  0  0  0  0
    5.0389    0.5658    0.7207 N   0  0  0  0  0  0  0  0  0  0  0  0
    5.8610   -2.8324   -1.9000 O   0  0  0  0  0  0  0  0  0  0  0  0
    3.6549    1.7353    1.7692 H   0  0  0  0  0  0  0  0  0  0  0  0
    3.9189    0.1321    2.5031 H   0  0  0  0  0  0  0  0  0  0  0  0
    2.9650    0.3010    1.0067 H   0  0  0  0  0  0  0  0  0  0  0  0
    5.9574    2.2293    1.6035 H   0  0  0  0  0  0  0  0  0  0  0  0
    7.0561    1.1497    0.7271 H   0  0  0  0  0  0  0  0  0  0  0  0
    6.4528    0.6847    2.3400 H   0  0  0  0  0  0  0  0  0  0  0  0
    3.7371   -9.9432   -2.0451 H   0  0  0  0  0  0  0  0  0  0  0  0
    5.8219   -9.0658   -3.0785 H   0  0  0  0  0  0  0  0  0  0  0  0
    2.1968   -8.3932   -0.8594 H   0  0  0  0  0  0  0  0  0  0  0  0
    6.3618   -6.6479   -2.9247 H   0  0  0  0  0  0  0  0  0  0  0  0
    2.7464   -5.9702   -0.7107 H   0  0  0  0  0  0  0  0  0  0  0  0
    4.3221   -0.6348   -1.5665 H   0  0  0  0  0  0  0  0  0  0  0  0
    3.3236   -1.4107   -0.3252 H   0  0  0  0  0  0  0  0  0  0  0  0
    6.3340   -0.8307   -0.1053 H   0  0  0  0  0  0  0  0  0  0  0  0
    5.3429   -1.4993    1.1990 H   0  0  0  0  0  0  0  0  0  0  0  0
  1 17  1  0  0  0  0
  1 18  1  0  0  0  0
  2 20  1  0  0  0  0
  2 22  1  0  0  0  0
  3  5  2  0  0  0  0
  4  6  2  0  0  0  0
  4  3  1  0  0  0  0
  5  7  1  0  0  0  0
  5 25  1  0  0  0  0
  6 10  1  0  0  0  0
  7 27  1  0  0  0  0
  8 29  1  0  0  0  0
  8  9  1  0  0  0  0
  9 15  1  0  0  0  0
  9 31  1  0  0  0  0
 10 12  1  0  0  0  0
 10  7  2  0  0  0  0
 11 13  2  0  0  0  0
 11  8  1  0  0  0  0
 12 13  2  0  0  0  0
 14 16  1  0  0  0  0
 14 12  1  0  0  0  0
 15  2  1  0  0  0  0
 15  1  1  0  0  0  0
 16 11  1  0  0  0  0
 19  1  1  0  0  0  0
 21  2  1  0  0  0  0
 23  3  1  0  0  0  0
 24  4  1  0  0  0  0
 26  6  1  0  0  0  0
 28  8  1  0  0  0  0
 30  9  1  0  0  0  0
M  RAD  1  14   2
M  END
>  <HBA>
4

>  <HBD>
0

>  <TPSA>
42.16

>  <cid>
42796

>  <dipole>
1.88

>  <excitation_energy_1>
4.294

>  <excitation_energy_2>
4.847

>  <excitation_energy_3>
5.01

>  <excitation_energy_4>
5.15

>  <homo_energy>
-6.025

>  <homo_lumo_gap>
4.868

>  <logP>
1.841

>  <lumo_energy>
-1.156

>  <melting_point>
76.31

>  <molecular_refractivity>
62.02

>  <oscillator_strength_1>
0.0

>  <oscillator_strength_2>
0.0177

>  <oscillator_strength_3>
0.2567

>  <oscillator_strength_4>
0.0006

>  <open_babel_can_smiles>
CN(CCC1=[N]=C([N]O1)c1ccccc1)C

>  <mulliken_charges>
31
1   -0.305551
2   -0.29856
3   -0.120368
4   -0.138453
5   -0.135885
6   -0.16771
7   -0.171755
8   -0.354577
9   -0.124955
10   0.101299
11   0.568097
12   0.378425
13   -0.51655
14   -0.225078
15   -0.369331
16   -0.36276
17   0.154105
18   0.12289
19   0.153613
20   0.151892
21   0.154232
22   0.122338
23   0.133819
24   0.135708
25   0.134643
26   0.161868
27   0.161984
28   0.185162
29   0.182208
30   0.161613
31   0.127638

>  <lowdin_charges>
31
1   -0.357747
2   -0.35458
3   -0.14596
4   -0.15575
5   -0.154921
6   -0.142394
7   -0.145501
8   -0.282695
9   -0.197033
10   -0.01683
11   0.131994
12   0.052619
13   -0.197022
14   -0.090775
15   -0.18369
16   -0.075339
17   0.15235
18   0.122784
19   0.151254
20   0.150508
21   0.152723
22   0.122929
23   0.15837
24   0.162292
25   0.160518
26   0.174203
27   0.176121
28   0.177354
29   0.173173
30   0.155162
31   0.125882

$$$$

