PCCDB-ID:  70738
public computational chemistry database (PCCDB) project, http://pccdb.org

 20 20  0  0  0  0  0  0  0  0999 V2000
    1.4576   -0.2013   -0.5687 C   0  0  0  0  0  0  0  0  0  0  0  0
    2.9827   -0.2001   -0.4308 C   0  0  0  0  0  0  0  0  0  0  0  0
    3.4720    0.6482    0.7614 C   0  0  0  0  0  0  0  0  0  0  0  0
    5.6455   -0.3148    1.6619 C   0  0  0  0  0  0  0  0  0  0  0  0
    5.7735    1.5953    0.2426 C   0  0  0  0  0  0  0  0  0  0  0  0
    7.0384   -0.2938    1.7269 C   0  0  0  0  0  0  0  0  0  0  0  0
    7.1607    1.5317    0.3708 C   0  0  0  0  0  0  0  0  0  0  0  0
    4.9768    0.6506    0.9001 C   0  0  0  0  0  0  0  0  0  0  0  0
    7.8026    0.6083    1.0980 N   0  0  0  0  0  0  0  0  0  0  0  0
    1.1380   -0.8099   -1.4218 H   0  0  0  0  0  0  0  0  0  0  0  0
    1.0714    0.8141   -0.7197 H   0  0  0  0  0  0  0  0  0  0  0  0
    0.9777   -0.6078    0.3300 H   0  0  0  0  0  0  0  0  0  0  0  0
    3.4411    0.1805   -1.3531 H   0  0  0  0  0  0  0  0  0  0  0  0
    3.3477   -1.2287   -0.3117 H   0  0  0  0  0  0  0  0  0  0  0  0
    3.0174    0.2635    1.6838 H   0  0  0  0  0  0  0  0  0  0  0  0
    3.1114    1.6782    0.6392 H   0  0  0  0  0  0  0  0  0  0  0  0
    5.0878   -1.0749    2.2039 H   0  0  0  0  0  0  0  0  0  0  0  0
    5.3189    2.3772   -0.3613 H   0  0  0  0  0  0  0  0  0  0  0  0
    7.5688   -1.0382    2.3194 H   0  0  0  0  0  0  0  0  0  0  0  0
    7.7899    2.2640   -0.1335 H   0  0  0  0  0  0  0  0  0  0  0  0
  1  2  1  0  0  0  0
  1 12  1  0  0  0  0
  2 14  1  0  0  0  0
  2  3  1  0  0  0  0
  3  8  1  0  0  0  0
  3 15  1  0  0  0  0
  4  6  1  0  0  0  0
  4 17  1  0  0  0  0
  5  7  2  0  0  0  0
  5  8  1  0  0  0  0
  6 19  1  0  0  0  0
  7  9  1  0  0  0  0
  8  4  2  0  0  0  0
  9  6  2  0  0  0  0
 10  1  1  0  0  0  0
 11  1  1  0  0  0  0
 13  2  1  0  0  0  0
 16  3  1  0  0  0  0
 18  5  1  0  0  0  0
 20  7  1  0  0  0  0
M  END
>  <HBA>
1

>  <HBD>
0

>  <TPSA>
12.89

>  <cid>
70738

>  <dipole>
2.72

>  <excitation_energy_1>
4.923

>  <excitation_energy_2>
5.154

>  <excitation_energy_3>
5.456

>  <excitation_energy_4>
6.125

>  <homo_energy>
-6.773

>  <homo_lumo_gap>
6.289

>  <logP>
2.034

>  <lumo_energy>
-0.484

>  <melting_point>
21.33

>  <molecular_refractivity>
38.82

>  <oscillator_strength_1>
0.005

>  <oscillator_strength_2>
0.0

>  <oscillator_strength_3>
0.0254

>  <oscillator_strength_4>
0.0116

>  <open_babel_can_smiles>
CCCc1ccncc1

>  <mulliken_charges>
20
1   -0.441979
2   -0.24615
3   -0.34043
4   -0.185665
5   -0.185488
6   0.038602
7   0.038518
8   0.188009
9   -0.41099
10   0.148675
11   0.144529
12   0.144543
13   0.141994
14   0.142017
15   0.14471
16   0.144748
17   0.12853
18   0.128502
19   0.138657
20   0.13867

>  <lowdin_charges>
20
1   -0.445411
2   -0.267535
3   -0.273354
4   -0.189217
5   -0.188599
6   -0.090125
7   -0.090608
8   0.025155
9   -0.154807
10   0.154087
11   0.147321
12   0.148559
13   0.14532
14   0.144045
15   0.15074
16   0.14948
17   0.160874
18   0.160649
19   0.156612
20   0.156815

$$$$

