PCCDB-ID:  43369
public computational chemistry database (PCCDB) project, http://pccdb.org

 15 14  0  0  0  0  0  0  0  0999 V2000
    2.7229   -1.1587    0.0786 C   0  0  0  0  0  0  0  0  0  0  0  0
    2.5787    2.2617   -1.0530 C   0  0  0  0  0  0  0  0  0  0  0  0
    4.6370    0.9979   -1.0607 C   0  0  0  0  0  0  0  0  0  0  0  0
    2.7254    0.2930    0.2157 N   0  0  0  0  0  0  0  0  0  0  0  0
    3.1817    0.9378   -0.9744 N   0  0  0  0  0  0  0  0  0  0  0  0
    2.3894   -1.5908    1.0287 H   0  0  0  0  0  0  0  0  0  0  0  0
    3.6995   -1.6059   -0.1766 H   0  0  0  0  0  0  0  0  0  0  0  0
    2.0092   -1.4371   -0.7017 H   0  0  0  0  0  0  0  0  0  0  0  0
    2.8446    2.7233   -2.0106 H   0  0  0  0  0  0  0  0  0  0  0  0
    2.9111    2.9380   -0.2413 H   0  0  0  0  0  0  0  0  0  0  0  0
    1.4932    2.1595   -0.9925 H   0  0  0  0  0  0  0  0  0  0  0  0
    4.9318    1.4534   -2.0121 H   0  0  0  0  0  0  0  0  0  0  0  0
    5.0558   -0.0125   -1.0283 H   0  0  0  0  0  0  0  0  0  0  0  0
    5.0897    1.5915   -0.2402 H   0  0  0  0  0  0  0  0  0  0  0  0
    3.3203    0.5668    1.0076 H   0  0  0  0  0  0  0  0  0  0  0  0
  1  4  1  0  0  0  0
  1  6  1  0  0  0  0
  2 11  1  0  0  0  0
  2  5  1  0  0  0  0
  2 10  1  0  0  0  0
  3 13  1  0  0  0  0
  3  5  1  0  0  0  0
  3 14  1  0  0  0  0
  4 15  1  0  0  0  0
  5  4  1  0  0  0  0
  7  1  1  0  0  0  0
  8  1  1  0  0  0  0
  9  2  1  0  0  0  0
 12  3  1  0  0  0  0
M  END
>  <HBA>
2

>  <HBD>
1

>  <TPSA>
15.27

>  <cid>
43369

>  <dipole>
1.33

>  <excitation_energy_1>
5.572

>  <excitation_energy_2>
5.681

>  <excitation_energy_3>
6.116

>  <excitation_energy_4>
6.249

>  <homo_energy>
-5.946

>  <homo_lumo_gap>
8.115

>  <logP>
0.073

>  <lumo_energy>
2.169

>  <melting_point>
5.24

>  <molecular_refractivity>
22.23

>  <oscillator_strength_1>
0.0277

>  <oscillator_strength_2>
0.0081

>  <oscillator_strength_3>
0.0175

>  <oscillator_strength_4>
0.0432

>  <open_babel_can_smiles>
CNN(C)C

>  <mulliken_charges>
15
1   -0.282295
2   -0.27091
3   -0.303778
4   -0.419125
5   -0.265723
6   0.143374
7   0.120886
8   0.164628
9   0.14172
10   0.111094
11   0.164543
12   0.153519
13   0.155225
14   0.112705
15   0.274137

>  <lowdin_charges>
15
1   -0.36176
2   -0.356533
3   -0.371199
4   -0.291912
5   -0.127685
6   0.149616
7   0.121981
8   0.157128
9   0.146901
10   0.119739
11   0.157842
12   0.154137
13   0.151183
14   0.11881
15   0.231753

$$$$

