PCCDB-ID:  71899
public computational chemistry database (PCCDB) project, http://pccdb.org

 34 35  0  0  1  0  0  0  0  0999 V2000
    4.3479    0.2050   -0.8769 C   0  0  0  0  0  0  0  0  0  0  0  0
    1.9960   -0.3726   -1.6154 C   0  0  0  0  0  0  0  0  0  0  0  0
    2.4274   -3.2746    1.5846 C   0  0  0  0  0  0  0  0  0  0  0  0
    2.7711   -2.8591    2.8656 C   0  0  0  0  0  0  0  0  0  0  0  0
    2.4581   -2.3547    0.5320 C   0  0  0  0  0  0  0  0  0  0  0  0
    3.1433   -1.5318    3.0954 C   0  0  0  0  0  0  0  0  0  0  0  0
    4.8477    4.6820    3.7821 C   0  0  0  0  0  0  0  0  0  0  0  0
    3.9386    4.7598    2.5249 C   0  0  0  0  0  0  0  0  0  0  0  0
    3.8081    1.1839    3.4951 C   0  0  0  0  0  0  0  0  0  0  0  0
    2.8897   -0.0121   -0.4204 C   0  0  0  0  0  0  0  0  0  0  0  0
    2.8259   -1.0209    0.7219 C   0  0  0  0  0  0  0  0  0  0  0  0
    3.1707   -0.6234    2.0341 C   0  0  0  0  0  0  0  0  0  0  0  0
    4.0800    2.6568    3.3954 C   0  0  3  0  0  0  0  0  0  0  0  0
    4.9828    3.2447    4.0903 N   0  0  0  0  0  0  0  0  0  0  0  0
    3.2640    3.4539    2.5991 N   0  0  0  0  0  0  0  0  0  0  0  0
    3.5320    0.6959    2.1832 O   0  0  0  0  0  0  0  0  0  0  0  0
    4.3989    0.9693   -1.6626 H   0  0  0  0  0  0  0  0  0  0  0  0
    4.7670   -0.7238   -1.2822 H   0  0  0  0  0  0  0  0  0  0  0  0
    4.9779    0.5286   -0.0434 H   0  0  0  0  0  0  0  0  0  0  0  0
    1.9955    0.4469   -2.3432 H   0  0  0  0  0  0  0  0  0  0  0  0
    0.9602   -0.5525   -1.3067 H   0  0  0  0  0  0  0  0  0  0  0  0
    2.3526   -1.2666   -2.1410 H   0  0  0  0  0  0  0  0  0  0  0  0
    2.1351   -4.3040    1.3981 H   0  0  0  0  0  0  0  0  0  0  0  0
    2.7540   -3.5587    3.6969 H   0  0  0  0  0  0  0  0  0  0  0  0
    2.1820   -2.6890   -0.4631 H   0  0  0  0  0  0  0  0  0  0  0  0
    3.4143   -1.2212    4.0976 H   0  0  0  0  0  0  0  0  0  0  0  0
    4.3804    5.1868    4.6391 H   0  0  0  0  0  0  0  0  0  0  0  0
    5.8308    5.1380    3.6294 H   0  0  0  0  0  0  0  0  0  0  0  0
    4.5302    4.8531    1.6022 H   0  0  0  0  0  0  0  0  0  0  0  0
    3.2209    5.5844    2.5610 H   0  0  0  0  0  0  0  0  0  0  0  0
    2.9409    1.0086    4.1484 H   0  0  0  0  0  0  0  0  0  0  0  0
    4.6851    0.6952    3.9324 H   0  0  0  0  0  0  0  0  0  0  0  0
    2.5295    0.9452   -0.0211 H   0  0  0  0  0  0  0  0  0  0  0  0
    2.9237    3.0329    1.7425 H   0  0  0  0  0  0  0  0  0  0  0  0
  1 10  1  0  0  0  0
  1 19  1  0  0  0  0
  2 21  1  0  0  0  0
  2 10  1  0  0  0  0
  3  4  2  0  0  0  0
  4  6  1  0  0  0  0
  4 24  1  0  0  0  0
  5 11  2  0  0  0  0
  5  3  1  0  0  0  0
  6 26  1  0  0  0  0
  7 14  1  0  0  0  0
  7 27  1  0  0  0  0
  8 30  1  0  0  0  0
  8 15  1  0  0  0  0
  8  7  1  0  0  0  0
  9 32  1  0  0  0  0
  9 31  1  0  0  0  0
 10 33  1  0  0  0  0
 10 11  1  0  0  0  0
 11 12  1  0  0  0  0
 12 16  1  0  0  0  0
 12  6  2  0  0  0  0
 13  9  1  0  0  0  0
 13 14  1  0  0  0  0
 15 13  1  0  0  0  0
 16  9  1  0  0  0  0
 17  1  1  0  0  0  0
 18  1  1  0  0  0  0
 20  2  1  0  0  0  0
 22  2  1  0  0  0  0
 23  3  1  0  0  0  0
 25  5  1  0  0  0  0
 28  7  1  0  0  0  0
 29  8  1  0  0  0  0
 34 15  1  0  0  0  0
M  RAD  2  13   2  14   2
M  END
>  <HBA>
3

>  <HBD>
1

>  <TPSA>
33.62

>  <cid>
71899

>  <dipole>
1.84

>  <excitation_energy_1>
5.047

>  <excitation_energy_2>
5.256

>  <excitation_energy_3>
5.386

>  <excitation_energy_4>
5.475

>  <homo_energy>
-5.948

>  <homo_lumo_gap>
5.973

>  <logP>
1.955

>  <lumo_energy>
0.024

>  <melting_point>
77.56

>  <molecular_refractivity>
73.55

>  <oscillator_strength_1>
0.0409

>  <oscillator_strength_2>
0.0043

>  <oscillator_strength_3>
0.0102

>  <oscillator_strength_4>
0.0024

>  <open_babel_can_smiles>
CC(c1ccccc1OC[C]1[N]CCN1)C

>  <mulliken_charges>
34
1   -0.440006
2   -0.453598
3   -0.128603
4   -0.14161
5   -0.20098
6   -0.189661
7   -0.16188
8   -0.149324
9   -0.096776
10   -0.138787
11   0.117331
12   0.329989
13   0.46087
14   -0.465016
15   -0.60228
16   -0.544755
17   0.135836
18   0.143912
19   0.159505
20   0.141969
21   0.149667
22   0.144795
23   0.125082
24   0.129635
25   0.126308
26   0.139773
27   0.152393
28   0.151451
29   0.143557
30   0.152212
31   0.166145
32   0.176551
33   0.132886
34   0.33341

>  <lowdin_charges>
34
1   -0.443935
2   -0.444574
3   -0.172812
4   -0.151968
5   -0.160391
6   -0.210173
7   -0.209028
8   -0.21006
9   -0.130642
10   -0.117268
11   -0.027646
12   0.095962
13   0.072789
14   -0.238714
15   -0.313461
16   -0.21284
17   0.145728
18   0.148718
19   0.157418
20   0.151221
21   0.151179
22   0.147214
23   0.155521
24   0.158901
25   0.158338
26   0.163615
27   0.148669
28   0.151512
29   0.137351
30   0.151897
31   0.158134
32   0.166134
33   0.143684
34   0.279529

$$$$

