PCCDB-ID:  8842
public computational chemistry database (PCCDB) project, http://pccdb.org

 31 30  0  0  1  0  0  0  0  0999 V2000
    1.9173    1.7550   -2.1913 C   0  0  0  0  0  0  0  0  0  0  0  0
    1.9148    0.5353    0.0336 C   0  0  0  0  0  0  0  0  0  0  0  0
    5.5492   -3.3713    0.5060 C   0  0  0  0  0  0  0  0  0  0  0  0
    4.7467   -0.5888   -0.7879 C   0  0  0  0  0  0  0  0  0  0  0  0
    3.8634    0.3466   -1.5705 C   0  0  0  0  0  0  0  0  0  0  0  0
    4.9863   -1.9208   -1.5294 C   0  0  0  0  0  0  0  0  0  0  0  0
    6.4634   -3.9955   -1.8011 C   0  0  0  0  0  0  0  0  0  0  0  0
    5.3782   -4.9906   -2.2019 C   0  0  0  0  0  0  0  0  0  0  0  0
    2.6545    0.8325   -1.2485 C   0  0  0  0  0  0  0  0  0  0  0  0
    6.0228   -2.8502   -0.8625 C   0  0  2  0  0  0  0  0  0  0  0  0
    5.9906   -5.9570   -3.0544 O   0  0  0  0  0  0  0  0  0  0  0  0
    1.7055    2.7230   -1.7150 H   0  0  0  0  0  0  0  0  0  0  0  0
    0.9440    1.3324   -2.4792 H   0  0  0  0  0  0  0  0  0  0  0  0
    2.4873    1.9459   -3.1060 H   0  0  0  0  0  0  0  0  0  0  0  0
    0.9318    0.0933   -0.1809 H   0  0  0  0  0  0  0  0  0  0  0  0
    1.7217    1.4608    0.5941 H   0  0  0  0  0  0  0  0  0  0  0  0
    2.4510   -0.1488    0.6953 H   0  0  0  0  0  0  0  0  0  0  0  0
    5.4129   -2.5538    1.2220 H   0  0  0  0  0  0  0  0  0  0  0  0
    6.2810   -4.0653    0.9367 H   0  0  0  0  0  0  0  0  0  0  0  0
    4.5923   -3.9022    0.4291 H   0  0  0  0  0  0  0  0  0  0  0  0
    4.3306   -0.7839    0.2055 H   0  0  0  0  0  0  0  0  0  0  0  0
    5.7224   -0.1050   -0.6217 H   0  0  0  0  0  0  0  0  0  0  0  0
    4.2751    0.6423   -2.5381 H   0  0  0  0  0  0  0  0  0  0  0  0
    5.3218   -1.6955   -2.5521 H   0  0  0  0  0  0  0  0  0  0  0  0
    4.0237   -2.4404   -1.6334 H   0  0  0  0  0  0  0  0  0  0  0  0
    6.8816   -3.5705   -2.7232 H   0  0  0  0  0  0  0  0  0  0  0  0
    7.2744   -4.5629   -1.3258 H   0  0  0  0  0  0  0  0  0  0  0  0
    4.5558   -4.4754   -2.7230 H   0  0  0  0  0  0  0  0  0  0  0  0
    4.9499   -5.4736   -1.3094 H   0  0  0  0  0  0  0  0  0  0  0  0
    6.9262   -2.2468   -0.6840 H   0  0  0  0  0  0  0  0  0  0  0  0
    5.3080   -6.5910   -3.3210 H   0  0  0  0  0  0  0  0  0  0  0  0
  1 12  1  0  0  0  0
  1  9  1  0  0  0  0
  2 16  1  0  0  0  0
  2 17  1  0  0  0  0
  3 19  1  0  0  0  0
  3 18  1  0  0  0  0
  4 22  1  0  0  0  0
  4 21  1  0  0  0  0
  5  9  2  0  0  0  0
  5  4  1  0  0  0  0
  6 10  1  0  0  0  0
  6  4  1  0  0  0  0
  7 27  1  0  0  0  0
  7 10  1  0  0  0  0
  8  7  1  0  0  0  0
  8 29  1  0  0  0  0
  9  2  1  0  0  0  0
 10 30  1  1  0  0  0
 10  3  1  0  0  0  0
 11  8  1  0  0  0  0
 13  1  1  0  0  0  0
 14  1  1  0  0  0  0
 15  2  1  0  0  0  0
 20  3  1  0  0  0  0
 23  5  1  0  0  0  0
 24  6  1  0  0  0  0
 25  6  1  0  0  0  0
 26  7  1  0  0  0  0
 28  8  1  0  0  0  0
 31 11  1  0  0  0  0
M  END
>  <HBA>
1

>  <HBD>
1

>  <TPSA>
20.23

>  <cid>
8842

>  <dipole>
1.7

>  <excitation_energy_1>
5.666

>  <excitation_energy_2>
5.943

>  <excitation_energy_3>
6.062

>  <excitation_energy_4>
6.203

>  <homo_energy>
-6.172

>  <homo_lumo_gap>
7.091

>  <logP>
2.751

>  <lumo_energy>
0.92

>  <melting_point>
2.61

>  <molecular_refractivity>
50.87

>  <oscillator_strength_1>
0.0094

>  <oscillator_strength_2>
0.0108

>  <oscillator_strength_3>
0.0047

>  <oscillator_strength_4>
0.0378

>  <open_babel_can_smiles>
OCC[C@@H](CCC=C(C)C)C

>  <mulliken_charges>
31
1   -0.50544
2   -0.513262
3   -0.455073
4   -0.308017
5   -0.161159
6   -0.255176
7   -0.265889
8   -0.035775
9   0.187366
10   -0.07608
11   -0.622048
12   0.148186
13   0.147625
14   0.150615
15   0.150205
16   0.151693
17   0.153748
18   0.145703
19   0.142985
20   0.139803
21   0.140152
22   0.136571
23   0.109068
24   0.129574
25   0.13228
26   0.141242
27   0.140556
28   0.120951
29   0.118792
30   0.122057
31   0.388747

>  <lowdin_charges>
31
1   -0.438612
2   -0.445623
3   -0.451773
4   -0.27452
5   -0.189639
6   -0.275338
7   -0.283713
8   -0.13945
9   -0.012003
10   -0.124292
11   -0.475813
12   0.151591
13   0.151267
14   0.154154
15   0.153766
16   0.155129
17   0.156043
18   0.150094
19   0.150921
20   0.144168
21   0.144553
22   0.145086
23   0.143526
24   0.139833
25   0.139253
26   0.148251
27   0.149033
28   0.126562
29   0.125315
30   0.138838
31   0.343394

$$$$

