PCCDB-ID:  66080
public computational chemistry database (PCCDB) project, http://pccdb.org

 19 18  0  0  0  0  0  0  0  0999 V2000
    2.6357   -1.3493    0.3857 C   0  0  0  0  0  0  0  0  0  0  0  0
    2.1558    0.6471    1.7927 C   0  0  0  0  0  0  0  0  0  0  0  0
    5.5113   -0.4838   -0.8706 C   0  0  0  0  0  0  0  0  0  0  0  0
    5.1165    1.7802   -1.9572 C   0  0  0  0  0  0  0  0  0  0  0  0
    3.4384    0.8812   -0.3679 C   0  0  0  0  0  0  0  0  0  0  0  0
    2.7621   -0.0269    0.5803 C   0  0  0  0  0  0  0  0  0  0  0  0
    4.6064    0.7136   -1.0184 C   0  0  0  0  0  0  0  0  0  0  0  0
    2.1229   -1.9803    1.1077 H   0  0  0  0  0  0  0  0  0  0  0  0
    3.0128   -1.8389   -0.5066 H   0  0  0  0  0  0  0  0  0  0  0  0
    1.6228   -0.0663    2.4287 H   0  0  0  0  0  0  0  0  0  0  0  0
    1.4466    1.4300    1.4909 H   0  0  0  0  0  0  0  0  0  0  0  0
    2.9269    1.1411    2.3982 H   0  0  0  0  0  0  0  0  0  0  0  0
    5.4807   -1.1192   -1.7675 H   0  0  0  0  0  0  0  0  0  0  0  0
    5.2417   -1.1044   -0.0132 H   0  0  0  0  0  0  0  0  0  0  0  0
    6.5548   -0.1599   -0.7577 H   0  0  0  0  0  0  0  0  0  0  0  0
    6.0980    2.1550   -1.6339 H   0  0  0  0  0  0  0  0  0  0  0  0
    4.4310    2.6307   -2.0260 H   0  0  0  0  0  0  0  0  0  0  0  0
    5.2582    1.3773   -2.9702 H   0  0  0  0  0  0  0  0  0  0  0  0
    2.9264    1.8348   -0.5153 H   0  0  0  0  0  0  0  0  0  0  0  0
  1  6  2  0  0  0  0
  1  8  1  0  0  0  0
  2 12  1  0  0  0  0
  2 10  1  0  0  0  0
  3 15  1  0  0  0  0
  3 14  1  0  0  0  0
  4 16  1  0  0  0  0
  4  7  1  0  0  0  0
  5  6  1  0  0  0  0
  6  2  1  0  0  0  0
  7  3  1  0  0  0  0
  7  5  2  0  0  0  0
  9  1  1  0  0  0  0
 11  2  1  0  0  0  0
 13  3  1  0  0  0  0
 17  4  1  0  0  0  0
 18  4  1  0  0  0  0
 19  5  1  0  0  0  0
M  END
>  <HBA>
0

>  <HBD>
0

>  <TPSA>
0.0

>  <cid>
66080

>  <dipole>
0.47

>  <excitation_energy_1>
5.231

>  <excitation_energy_2>
5.504

>  <excitation_energy_3>
5.936

>  <excitation_energy_4>
5.993

>  <homo_energy>
-5.861

>  <homo_lumo_gap>
5.78

>  <logP>
2.529

>  <lumo_energy>
-0.082

>  <melting_point>
-31.2

>  <molecular_refractivity>
34.81

>  <oscillator_strength_1>
0.2767

>  <oscillator_strength_2>
0.0082

>  <oscillator_strength_3>
0.0286

>  <oscillator_strength_4>
0.0024

>  <open_babel_can_smiles>
CC(=CC(=C)C)C

>  <mulliken_charges>
19
1   -0.397419
2   -0.513664
3   -0.515693
4   -0.50793
5   -0.23488
6   0.203235
7   0.197509
8   0.13045
9   0.141192
10   0.15068
11   0.153579
12   0.158647
13   0.153371
14   0.166104
15   0.145486
16   0.151
17   0.152232
18   0.152717
19   0.113382

>  <lowdin_charges>
19
1   -0.360586
2   -0.442832
3   -0.447558
4   -0.438477
5   -0.197035
6   0.009185
7   0.007728
8   0.154861
9   0.15882
10   0.156294
11   0.156586
12   0.15867
13   0.156811
14   0.165739
15   0.150992
16   0.15339
17   0.154863
18   0.154051
19   0.148495

$$$$

