PCCDB-ID:  34858
public computational chemistry database (PCCDB) project, http://pccdb.org

 22 22  0  0  0  0  0  0  0  0999 V2000
    1.2070   -0.7120   -0.5839 C   0  0  0  0  0  0  0  0  0  0  0  0
    4.3735   -0.7341   -2.3916 C   0  0  0  0  0  0  0  0  0  0  0  0
    2.5176   -0.0417   -0.1311 C   0  0  0  0  0  0  0  0  0  0  0  0
    2.9901    3.3330   -1.8238 C   0  0  0  0  0  0  0  0  0  0  0  0
    2.5850    2.3363   -0.9409 C   0  0  0  0  0  0  0  0  0  0  0  0
    3.8380    3.0170   -2.8825 C   0  0  0  0  0  0  0  0  0  0  0  0
    3.8671    0.6749   -2.1735 C   0  0  0  0  0  0  0  0  0  0  0  0
    3.0143    1.0113   -1.1044 C   0  0  0  0  0  0  0  0  0  0  0  0
    4.2736    1.6998   -3.0480 C   0  0  0  0  0  0  0  0  0  0  0  0
    5.1222    1.3553   -4.0730 O   0  0  0  0  0  0  0  0  0  0  0  0
    0.8725   -1.4537    0.1509 H   0  0  0  0  0  0  0  0  0  0  0  0
    1.3284   -1.2202   -1.5470 H   0  0  0  0  0  0  0  0  0  0  0  0
    0.4115    0.0320   -0.7034 H   0  0  0  0  0  0  0  0  0  0  0  0
    3.5787   -1.4760   -2.2655 H   0  0  0  0  0  0  0  0  0  0  0  0
    5.1703   -0.9890   -1.6794 H   0  0  0  0  0  0  0  0  0  0  0  0
    4.7862   -0.8472   -3.3955 H   0  0  0  0  0  0  0  0  0  0  0  0
    3.2831   -0.8098    0.0270 H   0  0  0  0  0  0  0  0  0  0  0  0
    2.3524    0.4300    0.8455 H   0  0  0  0  0  0  0  0  0  0  0  0
    2.6530    4.3573   -1.6888 H   0  0  0  0  0  0  0  0  0  0  0  0
    1.9312    2.5833   -0.1078 H   0  0  0  0  0  0  0  0  0  0  0  0
    4.1679    3.7879   -3.5772 H   0  0  0  0  0  0  0  0  0  0  0  0
    5.2953    2.1455   -4.6070 H   0  0  0  0  0  0  0  0  0  0  0  0
  1  3  1  0  0  0  0
  1 11  1  0  0  0  0
  2 14  1  0  0  0  0
  2  7  1  0  0  0  0
  2 15  1  0  0  0  0
  3 17  1  0  0  0  0
  3 18  1  0  0  0  0
  4 19  1  0  0  0  0
  4  5  2  0  0  0  0
  5 20  1  0  0  0  0
  6  4  1  0  0  0  0
  7  8  2  0  0  0  0
  8  5  1  0  0  0  0
  8  3  1  0  0  0  0
  9  6  2  0  0  0  0
  9  7  1  0  0  0  0
 10  9  1  0  0  0  0
 12  1  1  0  0  0  0
 13  1  1  0  0  0  0
 16  2  1  0  0  0  0
 21  6  1  0  0  0  0
 22 10  1  0  0  0  0
M  END
>  <HBA>
1

>  <HBD>
1

>  <TPSA>
20.23

>  <cid>
34858

>  <dipole>
0.88

>  <excitation_energy_1>
4.95

>  <excitation_energy_2>
5.076

>  <excitation_energy_3>
5.611

>  <excitation_energy_4>
5.653

>  <homo_energy>
-5.75

>  <homo_lumo_gap>
5.891

>  <logP>
2.263

>  <lumo_energy>
0.142

>  <melting_point>
52.3

>  <molecular_refractivity>
43.2

>  <oscillator_strength_1>
0.0372

>  <oscillator_strength_2>
0.002

>  <oscillator_strength_3>
0.0052

>  <oscillator_strength_4>
0.0108

>  <open_babel_can_smiles>
CCc1cccc(c1C)O

>  <mulliken_charges>
22
1   -0.43764
2   -0.537392
3   -0.341446
4   -0.134551
5   -0.186789
6   -0.19304
7   0.089482
8   0.111156
9   0.295669
10   -0.6503
11   0.142402
12   0.151684
13   0.149803
14   0.154883
15   0.16002
16   0.180654
17   0.144045
18   0.142155
19   0.1256
20   0.115666
21   0.111742
22   0.406196

>  <lowdin_charges>
22
1   -0.442189
2   -0.447908
3   -0.272995
4   -0.149473
5   -0.189479
6   -0.220705
7   -0.040013
8   0.000285
9   0.096065
10   -0.387121
11   0.149713
12   0.149512
13   0.151611
14   0.156959
15   0.159566
16   0.170395
17   0.150755
18   0.14889
19   0.155517
20   0.15271
21   0.151248
22   0.356656

$$$$

