PCCDB-ID:  7941
public computational chemistry database (PCCDB) project, http://pccdb.org

 20 20  0  0  0  0  0  0  0  0999 V2000
    2.3176    1.5877    0.0317 C   0  0  0  0  0  0  0  0  0  0  0  0
    2.1557   -4.9735    1.3685 C   0  0  0  0  0  0  0  0  0  0  0  0
    2.1837    0.2692    0.2207 C   0  0  0  0  0  0  0  0  0  0  0  0
    3.1109   -4.3026    2.0241 C   0  0  0  0  0  0  0  0  0  0  0  0
    4.7773   -0.9894    2.6917 C   0  0  0  0  0  0  0  0  0  0  0  0
    4.0522   -0.1198    1.8859 C   0  0  0  0  0  0  0  0  0  0  0  0
    4.4617   -2.3489    2.7287 C   0  0  0  0  0  0  0  0  0  0  0  0
    2.6882   -1.9665    1.1477 C   0  0  0  0  0  0  0  0  0  0  0  0
    2.9891   -0.5999    1.0956 C   0  0  0  0  0  0  0  0  0  0  0  0
    3.4093   -2.8621    1.9553 C   0  0  0  0  0  0  0  0  0  0  0  0
    1.6588    2.1227   -0.6455 H   0  0  0  0  0  0  0  0  0  0  0  0
    3.0754    2.1834    0.5332 H   0  0  0  0  0  0  0  0  0  0  0  0
    2.0351   -6.0440    1.5033 H   0  0  0  0  0  0  0  0  0  0  0  0
    1.4633   -4.4964    0.6802 H   0  0  0  0  0  0  0  0  0  0  0  0
    1.3949   -0.2484   -0.3256 H   0  0  0  0  0  0  0  0  0  0  0  0
    3.7610   -4.8643    2.6950 H   0  0  0  0  0  0  0  0  0  0  0  0
    5.5958   -0.6088    3.2970 H   0  0  0  0  0  0  0  0  0  0  0  0
    4.3098    0.9348    1.8682 H   0  0  0  0  0  0  0  0  0  0  0  0
    5.0351   -3.0213    3.3624 H   0  0  0  0  0  0  0  0  0  0  0  0
    1.8682   -2.3380    0.5385 H   0  0  0  0  0  0  0  0  0  0  0  0
  1  3  2  0  0  0  0
  1 12  1  0  0  0  0
  2 13  1  0  0  0  0
  2  4  2  0  0  0  0
  3  9  1  0  0  0  0
  4 16  1  0  0  0  0
  5  7  1  0  0  0  0
  5 17  1  0  0  0  0
  6  5  2  0  0  0  0
  7 19  1  0  0  0  0
  8 10  1  0  0  0  0
  9  8  2  0  0  0  0
  9  6  1  0  0  0  0
 10  4  1  0  0  0  0
 10  7  2  0  0  0  0
 11  1  1  0  0  0  0
 14  2  1  0  0  0  0
 15  3  1  0  0  0  0
 18  6  1  0  0  0  0
 20  8  1  0  0  0  0
M  END
>  <HBA>
0

>  <HBD>
0

>  <TPSA>
0.0

>  <cid>
7941

>  <dipole>
0.17

>  <excitation_energy_1>
4.236

>  <excitation_energy_2>
4.572

>  <excitation_energy_3>
4.938

>  <excitation_energy_4>
5.264

>  <homo_energy>
-5.94

>  <homo_lumo_gap>
4.92

>  <logP>
2.973

>  <lumo_energy>
-1.02

>  <melting_point>
-9.41

>  <molecular_refractivity>
46.62

>  <oscillator_strength_1>
0.0024

>  <oscillator_strength_2>
0.1521

>  <oscillator_strength_3>
0.5774

>  <oscillator_strength_4>
0.381

>  <open_babel_can_smiles>
C=Cc1cccc(c1)C=C

>  <mulliken_charges>
20
1   -0.352647
2   -0.349151
3   -0.111931
4   -0.117868
5   -0.128027
6   -0.182959
7   -0.197718
8   -0.263046
9   0.177125
10   0.179489
11   0.145092
12   0.142434
13   0.144883
14   0.142773
15   0.127586
16   0.127459
17   0.131652
18   0.128478
19   0.129283
20   0.127093

>  <lowdin_charges>
20
1   -0.334045
2   -0.330893
3   -0.146502
4   -0.146874
5   -0.153232
6   -0.152223
7   -0.161637
8   -0.157026
9   -0.000914
10   -0.002395
11   0.164837
12   0.157866
13   0.161775
14   0.157788
15   0.15568
16   0.155946
17   0.159677
18   0.156862
19   0.158481
20   0.156829

$$$$

