PCCDB-ID:  52237
public computational chemistry database (PCCDB) project, http://pccdb.org

 28 28  0  0  0  0  0  0  0  0999 V2000
    0.0359    0.2889    0.0264 C   0  0  0  0  0  0  0  0  0  0  0  0
    5.8520    1.0420    0.3816 C   0  0  0  0  0  0  0  0  0  0  0  0
    4.1773   -2.9740   -0.5952 C   0  0  0  0  0  0  0  0  0  0  0  0
    2.1005    1.7285   -0.2420 C   0  0  0  0  0  0  0  0  0  0  0  0
    2.3719   -0.4875    0.6185 C   0  0  0  0  0  0  0  0  0  0  0  0
    1.5250    0.5191    0.1413 C   0  0  0  0  0  0  0  0  0  0  0  0
    4.3436    0.9279    0.3237 C   0  0  0  0  0  0  0  0  0  0  0  0
    4.7325   -2.4500    0.7113 C   0  0  0  0  0  0  0  0  0  0  0  0
    3.4827    1.9451   -0.1295 C   0  0  0  0  0  0  0  0  0  0  0  0
    3.7594   -0.3085    0.6918 C   0  0  0  0  0  0  0  0  0  0  0  0
    3.9441    3.3217   -0.5261 C   0  0  0  0  0  0  0  0  0  0  0  0
    4.5905   -1.3010    1.2318 N   0  0  0  0  0  0  0  0  0  0  0  0
    5.5110   -3.3299    1.4013 O   0  0  0  0  0  0  0  0  0  0  0  0
    3.5350    3.9131   -1.4959 O   0  0  0  0  0  0  0  0  0  0  0  0
    4.8349    3.9317    0.3086 O   0  0  0  0  0  0  0  0  0  0  0  0
   -0.5174    1.2324    0.0666 H   0  0  0  0  0  0  0  0  0  0  0  0
   -0.3336   -0.3563    0.8310 H   0  0  0  0  0  0  0  0  0  0  0  0
   -0.2188   -0.1978   -0.9245 H   0  0  0  0  0  0  0  0  0  0  0  0
    6.3169    0.2538   -0.2212 H   0  0  0  0  0  0  0  0  0  0  0  0
    6.2180    0.8891    1.4048 H   0  0  0  0  0  0  0  0  0  0  0  0
    6.2214    1.9982    0.0081 H   0  0  0  0  0  0  0  0  0  0  0  0
    3.5053   -3.8230   -0.4180 H   0  0  0  0  0  0  0  0  0  0  0  0
    4.9967   -3.3255   -1.2351 H   0  0  0  0  0  0  0  0  0  0  0  0
    3.6235   -2.2008   -1.1285 H   0  0  0  0  0  0  0  0  0  0  0  0
    1.4820    2.5360   -0.6214 H   0  0  0  0  0  0  0  0  0  0  0  0
    1.9529   -1.4317    0.9590 H   0  0  0  0  0  0  0  0  0  0  0  0
    5.5760   -4.1601    0.9045 H   0  0  0  0  0  0  0  0  0  0  0  0
    4.9705    3.3769    1.0945 H   0  0  0  0  0  0  0  0  0  0  0  0
  1 16  1  0  0  0  0
  1  6  1  0  0  0  0
  1 17  1  0  0  0  0
  2 20  1  0  0  0  0
  3 22  1  0  0  0  0
  3  8  1  0  0  0  0
  4  9  2  0  0  0  0
  4  6  1  0  0  0  0
  5 10  1  0  0  0  0
  5 26  1  0  0  0  0
  6  5  2  0  0  0  0
  7  2  1  0  0  0  0
  7 10  2  0  0  0  0
  8 12  2  0  0  0  0
  8 13  1  0  0  0  0
  9  7  1  0  0  0  0
 10 12  1  0  0  0  0
 11  9  1  0  0  0  0
 11 15  1  0  0  0  0
 14 11  2  0  0  0  0
 15 28  1  0  0  0  0
 18  1  1  0  0  0  0
 19  2  1  0  0  0  0
 21  2  1  0  0  0  0
 23  3  1  0  0  0  0
 24  3  1  0  0  0  0
 25  4  1  0  0  0  0
 27 13  1  0  0  0  0
M  END
>  <HBA>
4

>  <HBD>
2

>  <TPSA>
66.4

>  <cid>
52237

>  <dipole>
6.54

>  <excitation_energy_1>
4.378

>  <excitation_energy_2>
4.734

>  <excitation_energy_3>
4.952

>  <excitation_energy_4>
5.014

>  <homo_energy>
-6.022

>  <homo_lumo_gap>
5.187

>  <logP>
2.033

>  <lumo_energy>
-0.835

>  <melting_point>
160.61

>  <molecular_refractivity>
57.65

>  <oscillator_strength_1>
0.0393

>  <oscillator_strength_2>
0.0881

>  <oscillator_strength_3>
0.0471

>  <oscillator_strength_4>
0.012

>  <open_babel_can_smiles>
C/C(=N\c1cc(C)cc(c1C)C(=O)O)/O

>  <mulliken_charges>
28
1   -0.530125
2   -0.54943
3   -0.555478
4   -0.211872
5   -0.201073
6   0.171632
7   0.099026
8   0.483429
9   -0.025873
10   0.192979
11   0.519165
12   -0.469462
13   -0.56679
14   -0.439947
15   -0.566794
16   0.164157
17   0.158315
18   0.166703
19   0.16579
20   0.177918
21   0.164425
22   0.17937
23   0.17523
24   0.200493
25   0.149104
26   0.122172
27   0.41105
28   0.415889

>  <lowdin_charges>
28
1   -0.442163
2   -0.458148
3   -0.485629
4   -0.163651
5   -0.186043
6   0.00261
7   -0.026724
8   0.148093
9   -0.063499
10   0.041734
11   0.194592
12   -0.170981
13   -0.355238
14   -0.238362
15   -0.356859
16   0.162163
17   0.159823
18   0.162783
19   0.166952
20   0.168598
21   0.161439
22   0.17268
23   0.171185
24   0.186425
25   0.171747
26   0.156541
27   0.358749
28   0.361183

$$$$

