PCCDB-ID:  16478
public computational chemistry database (PCCDB) project, http://pccdb.org

 27 28  0  0  0  0  0  0  0  0999 V2000
    0.8215    0.0735   -0.1564 C   0  0  0  0  0  0  0  0  0  0  0  0
    6.7585   -2.4862    0.1258 C   0  0  0  0  0  0  0  0  0  0  0  0
    6.6859    0.4772    0.0831 C   0  0  0  0  0  0  0  0  0  0  0  0
    3.1208   -3.5348   -0.0049 C   0  0  0  0  0  0  0  0  0  0  0  0
    4.5253   -3.5087    0.0536 C   0  0  0  0  0  0  0  0  0  0  0  0
    2.4285   -2.3520   -0.0522 C   0  0  0  0  0  0  0  0  0  0  0  0
    2.9913    1.3107   -0.0849 C   0  0  0  0  0  0  0  0  0  0  0  0
    4.3962    1.3636   -0.0283 C   0  0  0  0  0  0  0  0  0  0  0  0
    2.3310    0.1055   -0.0931 C   0  0  0  0  0  0  0  0  0  0  0  0
    5.2504   -2.3288    0.0647 C   0  0  0  0  0  0  0  0  0  0  0  0
    5.1899    0.2336    0.0219 C   0  0  0  0  0  0  0  0  0  0  0  0
    3.1044   -1.1020   -0.0430 C   0  0  0  0  0  0  0  0  0  0  0  0
    4.5521   -1.0641    0.0160 C   0  0  0  0  0  0  0  0  0  0  0  0
    0.4203    1.0911   -0.1842 H   0  0  0  0  0  0  0  0  0  0  0  0
    0.3824   -0.4318    0.7131 H   0  0  0  0  0  0  0  0  0  0  0  0
    0.4576   -0.4505   -1.0493 H   0  0  0  0  0  0  0  0  0  0  0  0
    7.0111   -3.5495    0.1761 H   0  0  0  0  0  0  0  0  0  0  0  0
    7.2015   -2.0090    1.0047 H   0  0  0  0  0  0  0  0  0  0  0  0
    7.2626   -2.0788   -0.7561 H   0  0  0  0  0  0  0  0  0  0  0  0
    6.8783    1.5537    0.0497 H   0  0  0  0  0  0  0  0  0  0  0  0
    7.2267    0.0285   -0.7552 H   0  0  0  0  0  0  0  0  0  0  0  0
    7.1402    0.0995    1.0047 H   0  0  0  0  0  0  0  0  0  0  0  0
    2.5951   -4.4859   -0.0114 H   0  0  0  0  0  0  0  0  0  0  0  0
    5.0655   -4.4513    0.0923 H   0  0  0  0  0  0  0  0  0  0  0  0
    1.3455   -2.3661   -0.0976 H   0  0  0  0  0  0  0  0  0  0  0  0
    2.4256    2.2387   -0.1242 H   0  0  0  0  0  0  0  0  0  0  0  0
    4.8771    2.3387   -0.0249 H   0  0  0  0  0  0  0  0  0  0  0  0
  1  9  1  0  0  0  0
  1 15  1  0  0  0  0
  2 17  1  0  0  0  0
  2 18  1  0  0  0  0
  3 22  1  0  0  0  0
  4  5  2  0  0  0  0
  5 10  1  0  0  0  0
  5 24  1  0  0  0  0
  6 12  2  0  0  0  0
  6  4  1  0  0  0  0
  7  8  1  0  0  0  0
  8 27  1  0  0  0  0
  8 11  2  0  0  0  0
  9  7  2  0  0  0  0
  9 12  1  0  0  0  0
 10  2  1  0  0  0  0
 11  3  1  0  0  0  0
 12 13  1  0  0  0  0
 13 11  1  0  0  0  0
 13 10  2  0  0  0  0
 14  1  1  0  0  0  0
 16  1  1  0  0  0  0
 19  2  1  0  0  0  0
 20  3  1  0  0  0  0
 21  3  1  0  0  0  0
 23  4  1  0  0  0  0
 25  6  1  0  0  0  0
 26  7  1  0  0  0  0
M  END
>  <HBA>
0

>  <HBD>
0

>  <TPSA>
0.0

>  <cid>
16478

>  <dipole>
0.25

>  <excitation_energy_1>
4.141

>  <excitation_energy_2>
4.306

>  <excitation_energy_3>
5.172

>  <excitation_energy_4>
5.343

>  <homo_energy>
-5.415

>  <homo_lumo_gap>
4.631

>  <logP>
3.765

>  <lumo_energy>
-0.784

>  <melting_point>
62.17

>  <molecular_refractivity>
58.85

>  <oscillator_strength_1>
0.1188

>  <oscillator_strength_2>
0.0099

>  <oscillator_strength_3>
0.0014

>  <oscillator_strength_4>
0.0565

>  <open_babel_can_smiles>
Cc1ccc(c2c1cccc2C)C

>  <mulliken_charges>
27
1   -0.537521
2   -0.532291
3   -0.533828
4   -0.123211
5   -0.195576
6   -0.204891
7   -0.197547
8   -0.191461
9   0.136661
10   0.11802
11   0.123156
12   0.075134
13   0.031187
14   0.154785
15   0.16144
16   0.161519
17   0.152663
18   0.160859
19   0.16111
20   0.152778
21   0.159806
22   0.160085
23   0.125793
24   0.118251
25   0.126581
26   0.119028
27   0.117465

>  <lowdin_charges>
27
1   -0.444413
2   -0.441168
3   -0.440692
4   -0.158946
5   -0.17381
6   -0.164594
7   -0.172229
8   -0.172479
9   -0.003206
10   0.001068
11   -0.00353
12   -0.004892
13   -0.01325
14   0.156658
15   0.159288
16   0.159142
17   0.153877
18   0.159564
19   0.159235
20   0.153661
21   0.159015
22   0.15814
23   0.156735
24   0.152908
25   0.157663
26   0.153773
27   0.152485

$$$$

