PCCDB-ID:  55803
public computational chemistry database (PCCDB) project, http://pccdb.org

 34 34  0  0  1  0  0  0  0  0999 V2000
    0.7222    3.5647    3.7667 C   0  0  0  0  0  0  0  0  0  0  0  0
    2.2455    3.7163    3.7116 C   0  0  0  0  0  0  0  0  0  0  0  0
    2.7599    4.9166    4.5149 C   0  0  0  0  0  0  0  0  0  0  0  0
    7.0636    7.6216    6.8735 C   0  0  0  0  0  0  0  0  0  0  0  0
    6.8068    7.5828    5.5031 C   0  0  0  0  0  0  0  0  0  0  0  0
    7.8337    6.6288    7.4784 C   0  0  0  0  0  0  0  0  0  0  0  0
    4.2789    5.1200    4.4401 C   0  0  0  0  0  0  0  0  0  0  0  0
    8.0971    5.5460    5.3244 C   0  0  0  0  0  0  0  0  0  0  0  0
    6.1167    5.3340    2.7535 C   0  0  0  0  0  0  0  0  0  0  0  0
    7.3130    6.5350    4.7214 C   0  0  0  0  0  0  0  0  0  0  0  0
    8.3529    5.5895    6.6972 C   0  0  0  0  0  0  0  0  0  0  0  0
    7.0494    6.4788    3.2267 C   0  0  1  0  0  0  0  0  0  0  0  0
    4.7016    5.4187    3.0712 N   0  0  0  0  0  0  0  0  0  0  0  0
    9.1229    4.5884    7.2230 O   0  0  0  0  0  0  0  0  0  0  0  0
    8.2628    6.2679    2.4971 O   0  0  0  0  0  0  0  0  0  0  0  0
    0.3851    2.6971    3.1875 H   0  0  0  0  0  0  0  0  0  0  0  0
    0.2201    4.4510    3.3582 H   0  0  0  0  0  0  0  0  0  0  0  0
    0.3695    3.4333    4.7976 H   0  0  0  0  0  0  0  0  0  0  0  0
    2.5777    3.8187    2.6724 H   0  0  0  0  0  0  0  0  0  0  0  0
    2.7193    2.8012    4.0956 H   0  0  0  0  0  0  0  0  0  0  0  0
    2.4783    4.8050    5.5720 H   0  0  0  0  0  0  0  0  0  0  0  0
    2.2572    5.8330    4.1665 H   0  0  0  0  0  0  0  0  0  0  0  0
    6.6695    8.4342    7.4779 H   0  0  0  0  0  0  0  0  0  0  0  0
    6.2134    8.3657    5.0376 H   0  0  0  0  0  0  0  0  0  0  0  0
    8.0370    6.6625    8.5474 H   0  0  0  0  0  0  0  0  0  0  0  0
    4.7865    4.1940    4.7421 H   0  0  0  0  0  0  0  0  0  0  0  0
    4.5762    5.8873    5.1736 H   0  0  0  0  0  0  0  0  0  0  0  0
    8.5232    4.7411    4.7338 H   0  0  0  0  0  0  0  0  0  0  0  0
    6.5026    4.3830    3.1390 H   0  0  0  0  0  0  0  0  0  0  0  0
    6.2275    5.3010    1.6621 H   0  0  0  0  0  0  0  0  0  0  0  0
    6.5857    7.4341    2.9225 H   0  0  0  0  0  0  0  0  0  0  0  0
    4.3154    6.3102    2.7661 H   0  0  0  0  0  0  0  0  0  0  0  0
    9.2206    4.7337    8.1768 H   0  0  0  0  0  0  0  0  0  0  0  0
    8.9354    6.8587    2.8710 H   0  0  0  0  0  0  0  0  0  0  0  0
  1 18  1  0  0  0  0
  2  1  1  0  0  0  0
  2 20  1  0  0  0  0
  2  3  1  0  0  0  0
  3 21  1  0  0  0  0
  4 23  1  0  0  0  0
  4  6  1  0  0  0  0
  5  4  2  0  0  0  0
  6 25  1  0  0  0  0
  7  3  1  0  0  0  0
  7 26  1  0  0  0  0
  7 27  1  0  0  0  0
  8 11  1  0  0  0  0
  9 13  1  0  0  0  0
  9 29  1  0  0  0  0
  9 12  1  0  0  0  0
 10  8  2  0  0  0  0
 10  5  1  0  0  0  0
 11 14  1  0  0  0  0
 11  6  2  0  0  0  0
 12 31  1  6  0  0  0
 12 10  1  0  0  0  0
 13  7  1  0  0  0  0
 14 33  1  0  0  0  0
 15 34  1  0  0  0  0
 15 12  1  0  0  0  0
 16  1  1  0  0  0  0
 17  1  1  0  0  0  0
 19  2  1  0  0  0  0
 22  3  1  0  0  0  0
 24  5  1  0  0  0  0
 28  8  1  0  0  0  0
 30  9  1  0  0  0  0
 32 13  1  0  0  0  0
M  END
>  <HBA>
3

>  <HBD>
3

>  <TPSA>
52.49

>  <cid>
55803

>  <dipole>
3.62

>  <excitation_energy_1>
4.41

>  <excitation_energy_2>
4.873

>  <excitation_energy_3>
5.011

>  <excitation_energy_4>
5.077

>  <homo_energy>
-5.551

>  <homo_lumo_gap>
5.26

>  <logP>
2.206

>  <lumo_energy>
-0.291

>  <melting_point>
90.6

>  <molecular_refractivity>
61.43

>  <oscillator_strength_1>
0.03

>  <oscillator_strength_2>
0.0036

>  <oscillator_strength_3>
0.0023

>  <oscillator_strength_4>
0.0312

>  <open_babel_can_smiles>
CCCCNC[C@@H](c1cccc(c1)O)O

>  <mulliken_charges>
34
1   -0.441496
2   -0.23868
3   -0.255743
4   -0.132039
5   -0.197503
6   -0.194274
7   -0.127414
8   -0.216795
9   -0.137994
10   0.122719
11   0.354869
12   0.064985
13   -0.549614
14   -0.64094
15   -0.627864
16   0.139927
17   0.137205
18   0.136363
19   0.15343
20   0.123971
21   0.125173
22   0.118056
23   0.132614
24   0.122609
25   0.119303
26   0.136457
27   0.127173
28   0.152804
29   0.148729
30   0.155228
31   0.104995
32   0.285922
33   0.407387
34   0.390436

>  <lowdin_charges>
34
1   -0.445335
2   -0.273446
3   -0.278623
4   -0.145802
5   -0.193873
6   -0.213814
7   -0.20594
8   -0.193576
9   -0.206829
10   -0.017943
11   0.104528
12   -0.014249
13   -0.357991
14   -0.375142
15   -0.462865
16   0.148769
17   0.144505
18   0.142213
19   0.14934
20   0.137167
21   0.13846
22   0.133583
23   0.160593
24   0.155935
25   0.15202
26   0.142089
27   0.128552
28   0.174224
29   0.150202
30   0.151171
31   0.122692
32   0.24854
33   0.355692
34   0.345154

$$$$

