PCCDB-ID:  59417
public computational chemistry database (PCCDB) project, http://pccdb.org

 36 37  0  0  0  0  0  0  0  0999 V2000
    1.4483    0.6420   -1.1898 C   0  0  0  0  0  0  0  0  0  0  0  0
    0.7728    0.5342   -3.6337 C   0  0  0  0  0  0  0  0  0  0  0  0
    3.1579    2.3521   -3.1011 C   0  0  0  0  0  0  0  0  0  0  0  0
    8.1377   -3.2385   -7.0955 C   0  0  0  0  0  0  0  0  0  0  0  0
    6.8165   -2.7940   -7.0854 C   0  0  0  0  0  0  0  0  0  0  0  0
    9.0929   -2.5470   -6.3454 C   0  0  0  0  0  0  0  0  0  0  0  0
    6.4457   -1.6777   -6.3332 C   0  0  0  0  0  0  0  0  0  0  0  0
    8.7391   -1.4222   -5.6056 C   0  0  0  0  0  0  0  0  0  0  0  0
    4.3316    0.3806   -2.3558 C   0  0  0  0  0  0  0  0  0  0  0  0
    5.6904    0.4764   -4.5647 C   0  0  0  0  0  0  0  0  0  0  0  0
    1.8914    0.2699   -2.6186 C   0  0  0  0  0  0  0  0  0  0  0  0
    7.4073   -0.9825   -5.5897 C   0  0  0  0  0  0  0  0  0  0  0  0
    5.5436    0.3543   -3.2406 C   0  0  0  0  0  0  0  0  0  0  0  0
    7.7637    0.3901   -3.6672 N   0  0  0  0  0  0  0  0  0  0  0  0
    3.1596    0.8915   -3.0585 N   0  0  0  0  0  0  0  0  0  0  0  0
    7.0740    0.2232   -4.8915 N   0  0  0  0  0  0  0  0  0  0  0  0
    6.7432    0.1070   -2.6077 O   0  0  0  0  0  0  0  0  0  0  0  0
    0.5675    0.0573   -0.9005 H   0  0  0  0  0  0  0  0  0  0  0  0
    1.1791    1.7018   -1.1143 H   0  0  0  0  0  0  0  0  0  0  0  0
    2.2360    0.4400   -0.4549 H   0  0  0  0  0  0  0  0  0  0  0  0
   -0.0960   -0.0932   -3.4058 H   0  0  0  0  0  0  0  0  0  0  0  0
    1.1132    0.3007   -4.6476 H   0  0  0  0  0  0  0  0  0  0  0  0
    0.4337    1.5762   -3.6139 H   0  0  0  0  0  0  0  0  0  0  0  0
    4.0985    2.6937   -3.5431 H   0  0  0  0  0  0  0  0  0  0  0  0
    3.0603    2.8271   -2.1080 H   0  0  0  0  0  0  0  0  0  0  0  0
    2.3447    2.7129   -3.7365 H   0  0  0  0  0  0  0  0  0  0  0  0
    8.4208   -4.1103   -7.6785 H   0  0  0  0  0  0  0  0  0  0  0  0
    6.0582   -3.3230   -7.6570 H   0  0  0  0  0  0  0  0  0  0  0  0
   10.1271   -2.8818   -6.3396 H   0  0  0  0  0  0  0  0  0  0  0  0
    5.4088   -1.3603   -6.3187 H   0  0  0  0  0  0  0  0  0  0  0  0
    9.4803   -0.8826   -5.0273 H   0  0  0  0  0  0  0  0  0  0  0  0
    4.5725    0.9488   -1.4378 H   0  0  0  0  0  0  0  0  0  0  0  0
    4.1377   -0.6493   -2.0281 H   0  0  0  0  0  0  0  0  0  0  0  0
    4.9414    0.6711   -5.3137 H   0  0  0  0  0  0  0  0  0  0  0  0
    2.0881   -0.8103   -2.6367 H   0  0  0  0  0  0  0  0  0  0  0  0
    7.8336    1.4078   -3.5508 H   0  0  0  0  0  0  0  0  0  0  0  0
  1 19  1  0  0  0  0
  1 18  1  0  0  0  0
  1 20  1  0  0  0  0
  2 23  1  0  0  0  0
  2 21  1  0  0  0  0
  2 11  1  0  0  0  0
  3 15  1  0  0  0  0
  3 25  1  0  0  0  0
  4  5  2  0  0  0  0
  4  6  1  0  0  0  0
  5  7  1  0  0  0  0
  6 29  1  0  0  0  0
  6  8  2  0  0  0  0
  7 30  1  0  0  0  0
  7 12  2  0  0  0  0
  8 12  1  0  0  0  0
  8 31  1  0  0  0  0
  9 33  1  0  0  0  0
  9 32  1  0  0  0  0
 10 13  2  0  0  0  0
 11  1  1  0  0  0  0
 12 16  1  0  0  0  0
 13 17  1  0  0  0  0
 13  9  1  0  0  0  0
 14 36  1  0  0  0  0
 14 17  1  0  0  0  0
 15 11  1  0  0  0  0
 15  9  1  0  0  0  0
 16 10  1  0  0  0  0
 16 14  1  0  0  0  0
 22  2  1  0  0  0  0
 24  3  1  0  0  0  0
 26  3  1  0  0  0  0
 27  4  1  0  0  0  0
 28  5  1  0  0  0  0
 34 10  1  0  0  0  0
 35 11  1  0  0  0  0
M  END
>  <HBA>
4

>  <HBD>
1

>  <TPSA>
27.74

>  <cid>
59417

>  <dipole>
2.99

>  <excitation_energy_1>
4.497

>  <excitation_energy_2>
4.685

>  <excitation_energy_3>
4.734

>  <excitation_energy_4>
4.847

>  <homo_energy>
-5.263

>  <homo_lumo_gap>
5.478

>  <logP>
2.518

>  <lumo_energy>
0.215

>  <melting_point>
68.34

>  <molecular_refractivity>
75.73

>  <oscillator_strength_1>
0.0072

>  <oscillator_strength_2>
0.0987

>  <oscillator_strength_3>
0.0092

>  <oscillator_strength_4>
0.0768

>  <open_babel_can_smiles>
CC(N(CC1=CN(NO1)c1ccccc1)C)C

>  <mulliken_charges>
36
1   -0.457506
2   -0.453015
3   -0.315778
4   -0.12922
5   -0.139401
6   -0.138038
7   -0.178522
8   -0.151493
9   -0.202287
10   -0.129089
11   0.049196
12   0.327918
13   0.409313
14   -0.183385
15   -0.382538
16   -0.408488
17   -0.439584
18   0.146528
19   0.147848
20   0.14876
21   0.145531
22   0.154971
23   0.14412
24   0.154064
25   0.127353
26   0.155799
27   0.122849
28   0.125446
29   0.127129
30   0.127436
31   0.145052
32   0.143369
33   0.171944
34   0.165995
35   0.133901
36   0.333822

>  <lowdin_charges>
36
1   -0.463464
2   -0.448273
3   -0.36456
4   -0.174593
5   -0.15225
6   -0.148916
7   -0.191204
8   -0.175476
9   -0.193943
10   -0.206384
11   -0.054127
12   0.049995
13   0.069868
14   -0.123354
15   -0.184892
16   -0.071113
17   -0.196646
18   0.155113
19   0.148942
20   0.151616
21   0.154503
22   0.155759
23   0.146535
24   0.154162
25   0.124958
26   0.154753
27   0.155695
28   0.157179
29   0.1556
30   0.159142
31   0.169379
32   0.139012
33   0.165949
34   0.183933
35   0.13945
36   0.257652

$$$$

