PCCDB-ID:  6363
public computational chemistry database (PCCDB) project, http://pccdb.org

 13 12  0  0  0  0  0  0  0  0999 V2000
    0.9812   -0.1035   -0.0541 C   0  0  0  0  0  0  0  0  0  0  0  0
    3.0351   -0.4536    1.3940 C   0  0  0  0  0  0  0  0  0  0  0  0
    2.5114   -0.1356   -0.0166 C   0  0  0  0  0  0  0  0  0  0  0  0
    2.9905   -1.0593   -1.0589 N   0  0  0  0  0  0  0  0  0  0  0  0
    0.5830    0.6374    0.6481 H   0  0  0  0  0  0  0  0  0  0  0  0
    0.5654   -1.0818    0.2242 H   0  0  0  0  0  0  0  0  0  0  0  0
    0.6285    0.1392   -1.0610 H   0  0  0  0  0  0  0  0  0  0  0  0
    2.6943    0.2857    2.1299 H   0  0  0  0  0  0  0  0  0  0  0  0
    4.1321   -0.4625    1.4141 H   0  0  0  0  0  0  0  0  0  0  0  0
    2.6850   -1.4409    1.7248 H   0  0  0  0  0  0  0  0  0  0  0  0
    2.8785    0.8609   -0.3006 H   0  0  0  0  0  0  0  0  0  0  0  0
    2.6810   -2.0058   -0.8314 H   0  0  0  0  0  0  0  0  0  0  0  0
    4.0100   -1.0924   -1.0414 H   0  0  0  0  0  0  0  0  0  0  0  0
  1  3  1  0  0  0  0
  1  6  1  0  0  0  0
  1  5  1  0  0  0  0
  2  9  1  0  0  0  0
  2 10  1  0  0  0  0
  2  8  1  0  0  0  0
  3  2  1  0  0  0  0
  4 13  1  0  0  0  0
  4 12  1  0  0  0  0
  4  3  1  0  0  0  0
  7  1  1  0  0  0  0
 11  3  1  0  0  0  0
M  END
>  <HBA>
1

>  <HBD>
1

>  <TPSA>
26.02

>  <cid>
6363

>  <dipole>
1.34

>  <excitation_energy_1>
5.73

>  <excitation_energy_2>
6.541

>  <excitation_energy_3>
6.681

>  <excitation_energy_4>
6.855

>  <homo_energy>
-6.237

>  <homo_lumo_gap>
8.327

>  <logP>
1.054

>  <lumo_energy>
2.09

>  <melting_point>
29.68

>  <molecular_refractivity>
19.24

>  <oscillator_strength_1>
0.0423

>  <oscillator_strength_2>
0.0129

>  <oscillator_strength_3>
0.0027

>  <oscillator_strength_4>
0.0095

>  <open_babel_can_smiles>
CC(N)C

>  <mulliken_charges>
13
1   -0.432263
2   -0.441596
3   0.031783
4   -0.702134
5   0.139545
6   0.13143
7   0.159611
8   0.139673
9   0.134211
10   0.133247
11   0.132118
12   0.284698
13   0.289679

>  <lowdin_charges>
13
1   -0.447505
2   -0.461422
3   -0.059589
4   -0.548962
5   0.150394
6   0.14226
7   0.158143
8   0.14987
9   0.142292
10   0.142666
11   0.137199
12   0.246738
13   0.247918

$$$$

