PCCDB-ID:  42444
public computational chemistry database (PCCDB) project, http://pccdb.org

 26 27  0  0  1  0  0  0  0  0999 V2000
    1.0472   -0.1519    0.3998 C   0  0  0  0  0  0  0  0  0  0  0  0
    5.9584    0.1118    6.0430 C   0  0  0  0  0  0  0  0  0  0  0  0
    4.9108   -2.1362    3.3652 C   0  0  0  0  0  0  0  0  0  0  0  0
    4.3062   -2.1318    2.1150 C   0  0  0  0  0  0  0  0  0  0  0  0
    3.7330    1.5111    1.5537 C   0  0  0  0  0  0  0  0  0  0  0  0
    4.7210    0.2708    3.4971 C   0  0  0  0  0  0  0  0  0  0  0  0
    2.6398    2.6387   -0.3027 C   0  0  0  0  0  0  0  0  0  0  0  0
    2.4722    0.1254   -0.0868 C   0  0  1  0  0  0  0  0  0  0  0  0
    4.1046    0.2854    2.2308 C   0  0  0  0  0  0  0  0  0  0  0  0
    2.9996    1.4649    0.4180 C   0  0  0  0  0  0  0  0  0  0  0  0
    5.1173   -0.9365    4.0694 C   0  0  0  0  0  0  0  0  0  0  0  0
    3.8903   -0.9252    1.5480 C   0  0  0  0  0  0  0  0  0  0  0  0
    2.3189    3.5761   -0.9167 N   0  0  0  0  0  0  0  0  0  0  0  0
    5.7131   -1.0660    5.2923 O   0  0  0  0  0  0  0  0  0  0  0  0
    3.3556   -0.9493    0.2896 O   0  0  0  0  0  0  0  0  0  0  0  0
    0.3676    0.6296    0.0424 H   0  0  0  0  0  0  0  0  0  0  0  0
    1.0076   -0.1696    1.4938 H   0  0  0  0  0  0  0  0  0  0  0  0
    0.7024   -1.1180    0.0175 H   0  0  0  0  0  0  0  0  0  0  0  0
    6.4293   -0.2166    6.9712 H   0  0  0  0  0  0  0  0  0  0  0  0
    5.0258    0.6425    6.2781 H   0  0  0  0  0  0  0  0  0  0  0  0
    6.6376    0.7940    5.5141 H   0  0  0  0  0  0  0  0  0  0  0  0
    5.2331   -3.0651    3.8247 H   0  0  0  0  0  0  0  0  0  0  0  0
    4.1488   -3.0541    1.5655 H   0  0  0  0  0  0  0  0  0  0  0  0
    4.0746    2.4622    1.9532 H   0  0  0  0  0  0  0  0  0  0  0  0
    4.8774    1.2145    4.0080 H   0  0  0  0  0  0  0  0  0  0  0  0
    2.4939    0.1120   -1.1801 H   0  0  0  0  0  0  0  0  0  0  0  0
  1 17  1  0  0  0  0
  2 20  1  0  0  0  0
  2 19  1  0  0  0  0
  3 22  1  0  0  0  0
  3 11  2  0  0  0  0
  4  3  1  0  0  0  0
  5 24  1  0  0  0  0
  5  9  1  0  0  0  0
  6 25  1  0  0  0  0
  6 11  1  0  0  0  0
  7 10  1  0  0  0  0
  8 26  1  6  0  0  0
  8 15  1  0  0  0  0
  8  1  1  0  0  0  0
  8 10  1  0  0  0  0
  9  6  2  0  0  0  0
 10  5  2  0  0  0  0
 11 14  1  0  0  0  0
 12  4  2  0  0  0  0
 12  9  1  0  0  0  0
 13  7  3  0  0  0  0
 14  2  1  0  0  0  0
 15 12  1  0  0  0  0
 16  1  1  0  0  0  0
 18  1  1  0  0  0  0
 21  2  1  0  0  0  0
 23  4  1  0  0  0  0
M  END
>  <HBA>
3

>  <HBD>
0

>  <TPSA>
42.25

>  <cid>
42444

>  <dipole>
4.15

>  <excitation_energy_1>
3.215

>  <excitation_energy_2>
4.409

>  <excitation_energy_3>
4.916

>  <excitation_energy_4>
5.086

>  <homo_energy>
-5.682

>  <homo_lumo_gap>
3.758

>  <logP>
2.383

>  <lumo_energy>
-1.924

>  <melting_point>
97.63

>  <molecular_refractivity>
56.77

>  <oscillator_strength_1>
0.1045

>  <oscillator_strength_2>
0.2785

>  <oscillator_strength_3>
0.1792

>  <oscillator_strength_4>
0.0082

>  <open_babel_can_smiles>
N#CC1=Cc2cc(OC)ccc2O[C@H]1C

>  <mulliken_charges>
26
1   -0.451618
2   -0.215075
3   -0.16936
4   -0.183025
5   -0.150242
6   -0.276494
7   0.257171
8   0.078281
9   0.124531
10   0.079136
11   0.378554
12   0.321243
13   -0.483797
14   -0.511299
15   -0.537173
16   0.166926
17   0.161649
18   0.165531
19   0.173831
20   0.152071
21   0.152655
22   0.149387
23   0.148676
24   0.161223
25   0.138841
26   0.168374

>  <lowdin_charges>
26
1   -0.454622
2   -0.279838
3   -0.158298
4   -0.17074
5   -0.109886
6   -0.204
7   -0.018924
8   0.024908
9   -0.042487
10   -0.05282
11   0.091721
12   0.096684
13   -0.122651
14   -0.200242
15   -0.195333
16   0.167554
17   0.159042
18   0.16287
19   0.165255
20   0.145504
21   0.14678
22   0.173393
23   0.173019
24   0.175509
25   0.166027
26   0.161576

$$$$

