PCCDB-ID:  30834
public computational chemistry database (PCCDB) project, http://pccdb.org

 29 31  0  0  1  0  0  0  0  0999 V2000
    0.8941    0.0053    0.0720 C   0  0  0  0  0  0  0  0  0  0  0  0
    5.3050   -3.2817    1.3141 C   0  0  0  0  0  0  0  0  0  0  0  0
    9.2214   -1.3084    0.0757 C   0  0  0  0  0  0  0  0  0  0  0  0
    9.0417    0.0788    0.0540 C   0  0  0  0  0  0  0  0  0  0  0  0
    8.1161   -2.1675    0.0949 C   0  0  0  0  0  0  0  0  0  0  0  0
    7.7585    0.6305    0.0514 C   0  0  0  0  0  0  0  0  0  0  0  0
    3.1148    1.2298    0.0523 C   0  0  0  0  0  0  0  0  0  0  0  0
    4.5114    1.2614    0.0517 C   0  0  0  0  0  0  0  0  0  0  0  0
    3.1279   -1.1863    0.0940 C   0  0  0  0  0  0  0  0  0  0  0  0
    2.4057    0.0201    0.0729 C   0  0  0  0  0  0  0  0  0  0  0  0
    5.4909   -2.3355    0.1128 C   0  0  2  0  0  0  0  0  0  0  0  0
    6.8364   -1.6244    0.0944 C   0  0  0  0  0  0  0  0  0  0  0  0
    6.6556   -0.2258    0.0724 C   0  0  0  0  0  0  0  0  0  0  0  0
    5.2146    0.0575    0.0720 C   0  0  0  0  0  0  0  0  0  0  0  0
    4.5156   -1.1674    0.0934 C   0  0  0  0  0  0  0  0  0  0  0  0
    0.4846    1.0202    0.0627 H   0  0  0  0  0  0  0  0  0  0  0  0
    0.4966   -0.5062    0.9578 H   0  0  0  0  0  0  0  0  0  0  0  0
    0.4979   -0.5213   -0.8056 H   0  0  0  0  0  0  0  0  0  0  0  0
    6.0490   -4.0858    1.2957 H   0  0  0  0  0  0  0  0  0  0  0  0
    4.3112   -3.7429    1.2973 H   0  0  0  0  0  0  0  0  0  0  0  0
    5.4135   -2.7368    2.2576 H   0  0  0  0  0  0  0  0  0  0  0  0
   10.2264   -1.7221    0.0755 H   0  0  0  0  0  0  0  0  0  0  0  0
    9.9091    0.7336    0.0391 H   0  0  0  0  0  0  0  0  0  0  0  0
    8.2639   -3.2450    0.1115 H   0  0  0  0  0  0  0  0  0  0  0  0
    7.6259    1.7093    0.0323 H   0  0  0  0  0  0  0  0  0  0  0  0
    2.5606    2.1655    0.0349 H   0  0  0  0  0  0  0  0  0  0  0  0
    5.0342    2.2145    0.0371 H   0  0  0  0  0  0  0  0  0  0  0  0
    2.5885   -2.1322    0.1114 H   0  0  0  0  0  0  0  0  0  0  0  0
    5.3742   -2.9296   -0.8070 H   0  0  0  0  0  0  0  0  0  0  0  0
  1 10  1  0  0  0  0
  1 17  1  0  0  0  0
  2 21  1  0  0  0  0
  3  5  2  0  0  0  0
  4  3  1  0  0  0  0
  5 24  1  0  0  0  0
  6  4  2  0  0  0  0
  6 13  1  0  0  0  0
  7 10  1  0  0  0  0
  8  7  2  0  0  0  0
  8 14  1  0  0  0  0
  9 28  1  0  0  0  0
 10  9  2  0  0  0  0
 11 29  1  6  0  0  0
 11  2  1  0  0  0  0
 12  5  1  0  0  0  0
 12 11  1  0  0  0  0
 13 12  2  0  0  0  0
 14 13  1  0  0  0  0
 14 15  2  0  0  0  0
 15  9  1  0  0  0  0
 15 11  1  0  0  0  0
 16  1  1  0  0  0  0
 18  1  1  0  0  0  0
 19  2  1  0  0  0  0
 20  2  1  0  0  0  0
 22  3  1  0  0  0  0
 23  4  1  0  0  0  0
 25  6  1  0  0  0  0
 26  7  1  0  0  0  0
 27  8  1  0  0  0  0
M  END
>  <HBA>
0

>  <HBD>
0

>  <TPSA>
0.0

>  <cid>
30834

>  <dipole>
0.69

>  <excitation_energy_1>
4.391

>  <excitation_energy_2>
4.544

>  <excitation_energy_3>
4.814

>  <excitation_energy_4>
5.302

>  <homo_energy>
-5.597

>  <homo_lumo_gap>
4.92

>  <logP>
4.127

>  <lumo_energy>
-0.678

>  <melting_point>
77.68

>  <molecular_refractivity>
64.66

>  <oscillator_strength_1>
0.2133

>  <oscillator_strength_2>
0.2585

>  <oscillator_strength_3>
0.0049

>  <oscillator_strength_4>
0.0205

>  <open_babel_can_smiles>
Cc1ccc2c(c1)[C@H](C)c1c2cccc1

>  <mulliken_charges>
29
1   -0.531818
2   -0.436424
3   -0.13149
4   -0.136572
5   -0.2026
6   -0.192699
7   -0.19442
8   -0.190834
9   -0.257667
10   0.183177
11   -0.240857
12   0.106391
13   0.081804
14   0.078613
15   0.113714
16   0.154319
17   0.160857
18   0.161071
19   0.146811
20   0.146704
21   0.158356
22   0.125442
23   0.126267
24   0.122988
25   0.12732
26   0.1194
27   0.127047
28   0.11578
29   0.15932

>  <lowdin_charges>
29
1   -0.443212
2   -0.433853
3   -0.159564
4   -0.157915
5   -0.162092
6   -0.161085
7   -0.169338
8   -0.161678
9   -0.173931
10   0.001686
11   -0.121013
12   -0.007189
13   -0.011043
14   -0.015474
15   -0.003413
16   0.155618
17   0.160151
18   0.160278
19   0.151302
20   0.150136
21   0.156727
22   0.155832
23   0.157243
24   0.153135
25   0.154586
26   0.153839
27   0.156606
28   0.152345
29   0.161318

$$$$

