PCCDB-ID:  66092
public computational chemistry database (PCCDB) project, http://pccdb.org

 24 24  0  0  0  0  0  0  0  0999 V2000
    4.1131    3.8219   -2.7293 C   0  0  0  0  0  0  0  0  0  0  0  0
    3.9563    2.3424   -2.3663 C   0  0  0  0  0  0  0  0  0  0  0  0
    4.8348    1.9333   -1.1821 C   0  0  0  0  0  0  0  0  0  0  0  0
    5.3429   -1.4164    0.6975 C   0  0  0  0  0  0  0  0  0  0  0  0
    6.3653    0.7291    1.1129 C   0  0  0  0  0  0  0  0  0  0  0  0
    6.0507   -1.9659    1.7576 C   0  0  0  0  0  0  0  0  0  0  0  0
    7.0802    0.1920    2.1766 C   0  0  0  0  0  0  0  0  0  0  0  0
    5.4849   -0.0622    0.3548 C   0  0  0  0  0  0  0  0  0  0  0  0
    6.9240   -1.1608    2.5027 C   0  0  0  0  0  0  0  0  0  0  0  0
    4.6907    0.4622   -0.7977 C   0  0  0  0  0  0  0  0  0  0  0  0
    7.6462   -1.6388    3.5542 O   0  0  0  0  0  0  0  0  0  0  0  0
    3.9390   -0.2746   -1.4226 O   0  0  0  0  0  0  0  0  0  0  0  0
    3.4763    4.0890   -3.5801 H   0  0  0  0  0  0  0  0  0  0  0  0
    5.1488    4.0603   -3.0029 H   0  0  0  0  0  0  0  0  0  0  0  0
    3.8358    4.4726   -1.8903 H   0  0  0  0  0  0  0  0  0  0  0  0
    4.2036    1.7132   -3.2289 H   0  0  0  0  0  0  0  0  0  0  0  0
    2.9098    2.1201   -2.1280 H   0  0  0  0  0  0  0  0  0  0  0  0
    4.6017    2.5502   -0.3013 H   0  0  0  0  0  0  0  0  0  0  0  0
    5.8939    2.1332   -1.4042 H   0  0  0  0  0  0  0  0  0  0  0  0
    4.6628   -2.0241    0.1095 H   0  0  0  0  0  0  0  0  0  0  0  0
    6.4999    1.7795    0.8749 H   0  0  0  0  0  0  0  0  0  0  0  0
    5.9311   -3.0177    2.0124 H   0  0  0  0  0  0  0  0  0  0  0  0
    7.7611    0.7987    2.7648 H   0  0  0  0  0  0  0  0  0  0  0  0
    7.4517   -2.5821    3.6716 H   0  0  0  0  0  0  0  0  0  0  0  0
  1  2  1  0  0  0  0
  1 15  1  0  0  0  0
  2 17  1  0  0  0  0
  2  3  1  0  0  0  0
  3 10  1  0  0  0  0
  3 18  1  0  0  0  0
  4  6  1  0  0  0  0
  5  7  2  0  0  0  0
  6 22  1  0  0  0  0
  6  9  2  0  0  0  0
  7  9  1  0  0  0  0
  7 23  1  0  0  0  0
  8  4  2  0  0  0  0
  8  5  1  0  0  0  0
  9 11  1  0  0  0  0
 10  8  1  0  0  0  0
 11 24  1  0  0  0  0
 12 10  2  0  0  0  0
 13  1  1  0  0  0  0
 14  1  1  0  0  0  0
 16  2  1  0  0  0  0
 19  3  1  0  0  0  0
 20  4  1  0  0  0  0
 21  5  1  0  0  0  0
M  END
>  <HBA>
2

>  <HBD>
1

>  <TPSA>
37.3

>  <cid>
66092

>  <dipole>
2.38

>  <excitation_energy_1>
3.846

>  <excitation_energy_2>
4.767

>  <excitation_energy_3>
4.835

>  <excitation_energy_4>
5.329

>  <homo_energy>
-6.321

>  <homo_lumo_gap>
5.119

>  <logP>
2.375

>  <lumo_energy>
-1.203

>  <melting_point>
77.86

>  <molecular_refractivity>
48.27

>  <oscillator_strength_1>
0.0

>  <oscillator_strength_2>
0.3096

>  <oscillator_strength_3>
0.0266

>  <oscillator_strength_4>
0.0

>  <open_babel_can_smiles>
CCCC(=O)c1ccc(cc1)O

>  <mulliken_charges>
24
1   -0.446858
2   -0.238476
3   -0.363176
4   -0.162995
5   -0.189556
6   -0.196799
7   -0.164421
8   0.078565
9   0.361567
10   0.401739
11   -0.633525
12   -0.476008
13   0.146517
14   0.138978
15   0.139019
16   0.150626
17   0.150326
18   0.156806
19   0.157396
20   0.165978
21   0.138942
22   0.127221
23   0.14582
24   0.412314

>  <lowdin_charges>
24
1   -0.445868
2   -0.266978
3   -0.309647
4   -0.116406
5   -0.135454
6   -0.211958
7   -0.189199
8   -0.072777
9   0.11651
10   0.15962
11   -0.363849
12   -0.253256
13   0.152449
14   0.143901
15   0.145603
16   0.152242
17   0.150209
18   0.158849
19   0.157407
20   0.179828
21   0.162528
22   0.155403
23   0.171564
24   0.359281

$$$$

