PCCDB-ID:  66793
public computational chemistry database (PCCDB) project, http://pccdb.org

 20 20  0  0  0  0  0  0  0  0999 V2000
    1.6356    0.5968   -0.5750 C   0  0  0  0  0  0  0  0  0  0  0  0
    3.0725    2.4382    1.0468 C   0  0  0  0  0  0  0  0  0  0  0  0
    3.7977    3.2864    1.8675 C   0  0  0  0  0  0  0  0  0  0  0  0
    4.2551    0.5524    1.9520 C   0  0  0  0  0  0  0  0  0  0  0  0
    3.2940    1.0490    1.0848 C   0  0  0  0  0  0  0  0  0  0  0  0
    4.7806    2.8195    2.7687 C   0  0  0  0  0  0  0  0  0  0  0  0
    4.9903    1.4127    2.7781 C   0  0  0  0  0  0  0  0  0  0  0  0
    5.4257    3.7057    3.5881 N   0  0  0  0  0  0  0  0  0  0  0  0
    5.9931    0.7937    3.6276 N   0  0  0  0  0  0  0  0  0  0  0  0
    6.1126   -0.4316    3.6014 O   0  0  0  0  0  0  0  0  0  0  0  0
    6.7014    1.5215    4.3485 O   0  0  0  0  0  0  0  0  0  0  0  0
    2.6304    0.1294    0.3198 O   0  0  0  0  0  0  0  0  0  0  0  0
    1.2395   -0.2910   -1.0710 H   0  0  0  0  0  0  0  0  0  0  0  0
    2.0543    1.2747   -1.3316 H   0  0  0  0  0  0  0  0  0  0  0  0
    0.8196    1.1075   -0.0455 H   0  0  0  0  0  0  0  0  0  0  0  0
    2.3333    2.8657    0.3788 H   0  0  0  0  0  0  0  0  0  0  0  0
    3.6041    4.3555    1.8306 H   0  0  0  0  0  0  0  0  0  0  0  0
    4.4503   -0.5107    1.9955 H   0  0  0  0  0  0  0  0  0  0  0  0
    5.3891    4.6836    3.3421 H   0  0  0  0  0  0  0  0  0  0  0  0
    6.2343    3.3637    4.0888 H   0  0  0  0  0  0  0  0  0  0  0  0
  1 15  1  0  0  0  0
  1 12  1  0  0  0  0
  2  5  2  0  0  0  0
  2  3  1  0  0  0  0
  3  6  2  0  0  0  0
  4 18  1  0  0  0  0
  4  7  2  0  0  0  0
  5  4  1  0  0  0  0
  6  7  1  0  0  0  0
  6  8  1  0  0  0  0
  7  9  1  0  0  0  0
  8 20  1  0  0  0  0
  9 11  2  0  0  0  0
 10  9  2  0  0  0  0
 12  5  1  0  0  0  0
 13  1  1  0  0  0  0
 14  1  1  0  0  0  0
 16  2  1  0  0  0  0
 17  3  1  0  0  0  0
 19  8  1  0  0  0  0
M  END
>  <HBA>
2

>  <HBD>
1

>  <TPSA>
81.07

>  <cid>
66793

>  <dipole>
5.97

>  <excitation_energy_1>
2.845

>  <excitation_energy_2>
3.787

>  <excitation_energy_3>
4.381

>  <excitation_energy_4>
4.651

>  <homo_energy>
-5.551

>  <homo_lumo_gap>
3.385

>  <logP>
2.29

>  <lumo_energy>
-2.166

>  <melting_point>
98.38

>  <molecular_refractivity>
46.16

>  <oscillator_strength_1>
0.0767

>  <oscillator_strength_2>
0.0002

>  <oscillator_strength_3>
0.0005

>  <oscillator_strength_4>
0.1103

>  <open_babel_can_smiles>
COc1ccc(c(c1)N(=O)=O)N

>  <mulliken_charges>
20
1   -0.216227
2   -0.176556
3   -0.197781
4   -0.230769
5   0.378224
6   0.336318
7   0.260758
8   -0.811781
9   0.36482
10   -0.399772
11   -0.443794
12   -0.511455
13   0.175329
14   0.150079
15   0.150841
16   0.144059
17   0.132861
18   0.189647
19   0.329691
20   0.375506

>  <lowdin_charges>
20
1   -0.280354
2   -0.173077
3   -0.187685
4   -0.157051
5   0.078833
6   0.072788
7   -0.035042
8   -0.461439
9   0.31197
10   -0.249113
11   -0.285964
12   -0.19943
13   0.166906
14   0.144664
15   0.14513
16   0.170049
17   0.158954
18   0.19441
19   0.282238
20   0.303211

$$$$

