PCCDB-ID:  25860
public computational chemistry database (PCCDB) project, http://pccdb.org

 21 20  0  0  0  0  0  0  0  0999 V2000
    6.3715    0.2644   -0.3527 C   0  0  0  0  0  0  0  0  0  0  0  0
    5.0829    2.4059   -0.0786 C   0  0  0  0  0  0  0  0  0  0  0  0
    5.8106   -2.5404    2.2993 C   0  0  0  0  0  0  0  0  0  0  0  0
    4.4761   -3.2784    2.2977 C   0  0  0  0  0  0  0  0  0  0  0  0
    3.1018   -1.9954    0.8662 C   0  0  0  0  0  0  0  0  0  0  0  0
    5.2386    0.9079   -0.0393 C   0  0  0  0  0  0  0  0  0  0  0  0
    4.0216    0.1666    0.3995 C   0  0  0  0  0  0  0  0  0  0  0  0
    6.8479   -3.0433    1.9324 O   0  0  0  0  0  0  0  0  0  0  0  0
    2.9996    0.7075    0.7639 O   0  0  0  0  0  0  0  0  0  0  0  0
    3.3645   -2.4033    2.1734 O   0  0  0  0  0  0  0  0  0  0  0  0
    4.1679   -1.1959    0.3354 O   0  0  0  0  0  0  0  0  0  0  0  0
    7.2566    0.8153   -0.6597 H   0  0  0  0  0  0  0  0  0  0  0  0
    6.4544   -0.8152   -0.3059 H   0  0  0  0  0  0  0  0  0  0  0  0
    6.0127    2.8848   -0.3975 H   0  0  0  0  0  0  0  0  0  0  0  0
    4.8037    2.7962    0.9063 H   0  0  0  0  0  0  0  0  0  0  0  0
    4.2818    2.6991   -0.7666 H   0  0  0  0  0  0  0  0  0  0  0  0
    5.7627   -1.5060    2.7009 H   0  0  0  0  0  0  0  0  0  0  0  0
    4.3644   -3.7755    3.2700 H   0  0  0  0  0  0  0  0  0  0  0  0
    4.4892   -4.0505    1.5156 H   0  0  0  0  0  0  0  0  0  0  0  0
    2.1820   -1.4137    0.8928 H   0  0  0  0  0  0  0  0  0  0  0  0
    3.0319   -2.8523    0.1858 H   0  0  0  0  0  0  0  0  0  0  0  0
  1 13  1  0  0  0  0
  1  6  2  0  0  0  0
  2  6  1  0  0  0  0
  2 15  1  0  0  0  0
  3 17  1  0  0  0  0
  4  3  1  0  0  0  0
  4 18  1  0  0  0  0
  5 20  1  0  0  0  0
  5 10  1  0  0  0  0
  6  7  1  0  0  0  0
  7  9  2  0  0  0  0
  8  3  2  0  0  0  0
 10  4  1  0  0  0  0
 11  7  1  0  0  0  0
 11  5  1  0  0  0  0
 12  1  1  0  0  0  0
 14  2  1  0  0  0  0
 16  2  1  0  0  0  0
 19  4  1  0  0  0  0
 21  5  1  0  0  0  0
M  END
>  <HBA>
4

>  <HBD>
0

>  <TPSA>
52.6

>  <cid>
25860

>  <dipole>
0.77

>  <excitation_energy_1>
4.177

>  <excitation_energy_2>
4.808

>  <excitation_energy_3>
4.971

>  <excitation_energy_4>
5.654

>  <homo_energy>
-6.991

>  <homo_lumo_gap>
5.6

>  <logP>
0.279

>  <lumo_energy>
-1.391

>  <melting_point>
-9.19

>  <molecular_refractivity>
37.86

>  <oscillator_strength_1>
0.0

>  <oscillator_strength_2>
0.0001

>  <oscillator_strength_3>
0.0005

>  <oscillator_strength_4>
0.0655

>  <open_babel_can_smiles>
O=CCOCOC(=O)C(=C)C

>  <mulliken_charges>
21
1   -0.369786
2   -0.50056
3   0.248744
4   -0.114558
5   0.150081
6   0.121598
7   0.594274
8   -0.384713
9   -0.466728
10   -0.443469
11   -0.490004
12   0.154876
13   0.185354
14   0.150927
15   0.176474
16   0.173108
17   0.124612
18   0.185496
19   0.162727
20   0.194046
21   0.147501

>  <lowdin_charges>
21
1   -0.290492
2   -0.435314
3   0.044661
4   -0.168186
5   -0.023113
6   -0.032238
7   0.204463
8   -0.214963
9   -0.251119
10   -0.23857
11   -0.211474
12   0.167261
13   0.178512
14   0.157849
15   0.170183
16   0.169454
17   0.125358
18   0.176005
19   0.15647
20   0.172956
21   0.142297

$$$$

