PCCDB-ID:  1245
public computational chemistry database (PCCDB) project, http://pccdb.org

 24 24  0  0  1  0  0  0  0  0999 V2000
    3.5124   -1.0191    1.0231 C   0  0  0  0  0  0  0  0  0  0  0  0
    4.5322    3.8447    0.3536 C   0  0  0  0  0  0  0  0  0  0  0  0
    5.4822    2.8262    0.3463 C   0  0  0  0  0  0  0  0  0  0  0  0
    2.7857    2.2007    0.1200 C   0  0  0  0  0  0  0  0  0  0  0  0
    3.1704    3.5410    0.2351 C   0  0  0  0  0  0  0  0  0  0  0  0
    5.0941    1.4894    0.2197 C   0  0  0  0  0  0  0  0  0  0  0  0
    3.7246    1.1709    0.1162 C   0  0  0  0  0  0  0  0  0  0  0  0
    2.1368    4.6466    0.2043 C   0  0  1  0  0  0  0  0  0  0  0  0
    2.1996    5.5058    1.4848 C   0  0  0  0  0  0  0  0  0  0  0  0
    5.9908    0.4594    0.1817 O   0  0  0  0  0  0  0  0  0  0  0  0
    2.3306    5.5371   -0.9121 O   0  0  0  0  0  0  0  0  0  0  0  0
    1.8376    5.0974    2.5592 O   0  0  0  0  0  0  0  0  0  0  0  0
    2.7280    6.7299    1.2986 O   0  0  0  0  0  0  0  0  0  0  0  0
    3.2899   -0.1153   -0.0662 O   0  0  0  0  0  0  0  0  0  0  0  0
    3.0563   -1.9645    0.7223 H   0  0  0  0  0  0  0  0  0  0  0  0
    3.0247   -0.6532    1.9358 H   0  0  0  0  0  0  0  0  0  0  0  0
    4.5798   -1.1681    1.2095 H   0  0  0  0  0  0  0  0  0  0  0  0
    4.8545    4.8763    0.4656 H   0  0  0  0  0  0  0  0  0  0  0  0
    6.5399    3.0677    0.4360 H   0  0  0  0  0  0  0  0  0  0  0  0
    1.7383    1.9276    0.0303 H   0  0  0  0  0  0  0  0  0  0  0  0
    1.1315    4.2120    0.1631 H   0  0  0  0  0  0  0  0  0  0  0  0
    6.8875    0.8210    0.2612 H   0  0  0  0  0  0  0  0  0  0  0  0
    2.8033    5.0497   -1.6048 H   0  0  0  0  0  0  0  0  0  0  0  0
    2.8566    6.8246    0.3298 H   0  0  0  0  0  0  0  0  0  0  0  0
  1 17  1  0  0  0  0
  1 16  1  0  0  0  0
  2 18  1  0  0  0  0
  3  2  1  0  0  0  0
  3 19  1  0  0  0  0
  4  5  1  0  0  0  0
  5  2  2  0  0  0  0
  6  3  2  0  0  0  0
  7  4  2  0  0  0  0
  7  6  1  0  0  0  0
  8 21  1  6  0  0  0
  8  5  1  0  0  0  0
  8  9  1  0  0  0  0
  9 12  2  0  0  0  0
 10  6  1  0  0  0  0
 10 22  1  0  0  0  0
 11  8  1  0  0  0  0
 13  9  1  0  0  0  0
 14  7  1  0  0  0  0
 14  1  1  0  0  0  0
 15  1  1  0  0  0  0
 20  4  1  0  0  0  0
 23 11  1  0  0  0  0
 24 13  1  0  0  0  0
M  END
>  <HBA>
5

>  <HBD>
3

>  <TPSA>
86.99

>  <cid>
1245

>  <dipole>
4.99

>  <excitation_energy_1>
4.868

>  <excitation_energy_2>
5.232

>  <excitation_energy_3>
5.307

>  <excitation_energy_4>
5.499

>  <homo_energy>
-6.259

>  <homo_lumo_gap>
5.772

>  <logP>
0.519

>  <lumo_energy>
-0.487

>  <melting_point>
149.35

>  <molecular_refractivity>
47.66

>  <oscillator_strength_1>
0.0458

>  <oscillator_strength_2>
0.0244

>  <oscillator_strength_3>
0.0539

>  <oscillator_strength_4>
0.0087

>  <open_babel_can_smiles>
COc1cc(ccc1O)[C@@H](C(=O)O)O

>  <mulliken_charges>
24
1   -0.21879
2   -0.183231
3   -0.195799
4   -0.238585
5   0.125296
6   0.319465
7   0.338522
8   -0.030092
9   0.595484
10   -0.635081
11   -0.653258
12   -0.452355
13   -0.579269
14   -0.520788
15   0.163621
16   0.147708
17   0.170381
18   0.142538
19   0.130263
20   0.147293
21   0.168551
22   0.413615
23   0.409031
24   0.43548

>  <lowdin_charges>
24
1   -0.274492
2   -0.159977
3   -0.200333
4   -0.166123
5   -0.043557
6   0.082559
7   0.073225
8   -0.031601
9   0.177843
10   -0.365851
11   -0.46851
12   -0.242302
13   -0.350622
14   -0.220959
15   0.159041
16   0.143697
17   0.152108
18   0.1636
19   0.157131
20   0.170763
21   0.163251
22   0.361815
23   0.357302
24   0.361993

$$$$

