PCCDB-ID:  7632
public computational chemistry database (PCCDB) project, http://pccdb.org

 28 28  0  0  0  0  0  0  0  0999 V2000
    3.0933   -1.1713    1.0201 C   0  0  0  0  0  0  0  0  0  0  0  0
    1.0629   -0.2091   -0.1267 C   0  0  0  0  0  0  0  0  0  0  0  0
    4.2435    6.2166    1.1635 C   0  0  0  0  0  0  0  0  0  0  0  0
    2.9566    5.8114    1.5214 C   0  0  0  0  0  0  0  0  0  0  0  0
    5.0028    5.4166    0.3073 C   0  0  0  0  0  0  0  0  0  0  0  0
    2.4367    4.6144    1.0265 C   0  0  0  0  0  0  0  0  0  0  0  0
    4.4775    4.2210   -0.1843 C   0  0  0  0  0  0  0  0  0  0  0  0
    2.6343    2.4862   -0.3432 C   0  0  0  0  0  0  0  0  0  0  0  0
    3.0047    1.3032    0.5744 C   0  0  0  0  0  0  0  0  0  0  0  0
    3.1869    3.8008    0.1666 C   0  0  0  0  0  0  0  0  0  0  0  0
    2.5838   -0.0861    0.0583 C   0  0  0  0  0  0  0  0  0  0  0  0
    3.2406   -0.2324   -1.2142 O   0  0  0  0  0  0  0  0  0  0  0  0
    2.6390   -1.0753    2.0131 H   0  0  0  0  0  0  0  0  0  0  0  0
    4.1810   -1.1047    1.1265 H   0  0  0  0  0  0  0  0  0  0  0  0
    2.8490   -2.1717    0.6388 H   0  0  0  0  0  0  0  0  0  0  0  0
    0.5283   -0.0234    0.8122 H   0  0  0  0  0  0  0  0  0  0  0  0
    0.7992   -1.2215   -0.4605 H   0  0  0  0  0  0  0  0  0  0  0  0
    0.7001    0.4960   -0.8800 H   0  0  0  0  0  0  0  0  0  0  0  0
    4.6497    7.1499    1.5447 H   0  0  0  0  0  0  0  0  0  0  0  0
    2.3545    6.4295    2.1826 H   0  0  0  0  0  0  0  0  0  0  0  0
    6.0041    5.7258    0.0179 H   0  0  0  0  0  0  0  0  0  0  0  0
    1.4296    4.3093    1.3045 H   0  0  0  0  0  0  0  0  0  0  0  0
    5.0727    3.6054   -0.8557 H   0  0  0  0  0  0  0  0  0  0  0  0
    1.5438    2.5631   -0.4301 H   0  0  0  0  0  0  0  0  0  0  0  0
    3.0206    2.2785   -1.3464 H   0  0  0  0  0  0  0  0  0  0  0  0
    2.5676    1.4573    1.5697 H   0  0  0  0  0  0  0  0  0  0  0  0
    4.0937    1.2923    0.7080 H   0  0  0  0  0  0  0  0  0  0  0  0
    2.9836   -1.0958   -1.5754 H   0  0  0  0  0  0  0  0  0  0  0  0
  1 14  1  0  0  0  0
  1 13  1  0  0  0  0
  2 11  1  0  0  0  0
  2 16  1  0  0  0  0
  3  4  1  0  0  0  0
  3 19  1  0  0  0  0
  4 20  1  0  0  0  0
  5  3  2  0  0  0  0
  6 22  1  0  0  0  0
  6  4  2  0  0  0  0
  7 10  2  0  0  0  0
  7  5  1  0  0  0  0
  8 10  1  0  0  0  0
  8  9  1  0  0  0  0
  9 27  1  0  0  0  0
  9 26  1  0  0  0  0
 10  6  1  0  0  0  0
 11  9  1  0  0  0  0
 11  1  1  0  0  0  0
 12 11  1  0  0  0  0
 15  1  1  0  0  0  0
 17  2  1  0  0  0  0
 18  2  1  0  0  0  0
 21  5  1  0  0  0  0
 23  7  1  0  0  0  0
 24  8  1  0  0  0  0
 25  8  1  0  0  0  0
 28 12  1  0  0  0  0
M  END
>  <HBA>
1

>  <HBD>
1

>  <TPSA>
20.23

>  <cid>
7632

>  <dipole>
1.79

>  <excitation_energy_1>
5.294

>  <excitation_energy_2>
5.816

>  <excitation_energy_3>
5.932

>  <excitation_energy_4>
6.109

>  <homo_energy>
-6.299

>  <homo_lumo_gap>
6.52

>  <logP>
2.39

>  <lumo_energy>
0.22

>  <melting_point>
34.13

>  <molecular_refractivity>
51.84

>  <oscillator_strength_1>
0.0012

>  <oscillator_strength_2>
0.0464

>  <oscillator_strength_3>
0.0125

>  <oscillator_strength_4>
0.0145

>  <open_babel_can_smiles>
CC(CCc1ccccc1)(O)C

>  <mulliken_charges>
28
1   -0.453338
2   -0.464604
3   -0.132031
4   -0.128429
5   -0.128708
6   -0.180782
7   -0.180611
8   -0.359725
9   -0.250079
10   0.167216
11   0.309197
12   -0.638723
13   0.141626
14   0.155162
15   0.127724
16   0.142667
17   0.129509
18   0.160664
19   0.12478
20   0.124961
21   0.125945
22   0.117659
23   0.12718
24   0.136448
25   0.167563
26   0.130763
27   0.144365
28   0.383599

>  <lowdin_charges>
28
1   -0.452301
2   -0.461328
3   -0.163751
4   -0.158292
5   -0.15521
6   -0.169303
7   -0.169101
8   -0.27362
9   -0.272487
10   0.002055
11   0.124548
12   -0.466189
13   0.151286
14   0.15466
15   0.142354
16   0.152773
17   0.143428
18   0.158303
19   0.15552
20   0.156694
21   0.15499
22   0.15088
23   0.157507
24   0.143797
25   0.160932
26   0.144141
27   0.149264
28   0.338449

$$$$

