PCCDB-ID:  29023
public computational chemistry database (PCCDB) project, http://pccdb.org

 20 19  0  0  1  0  0  0  0  0999 V2000
    1.0318    0.2786    0.4778 C   0  0  0  0  0  0  0  0  0  0  0  0
    2.4020   -1.7649   -1.5084 C   0  0  0  0  0  0  0  0  0  0  0  0
    2.8129   -2.2809   -2.9061 C   0  0  0  0  0  0  0  0  0  0  0  0
    2.8459   -0.3222   -1.2313 C   0  0  0  0  0  0  0  0  0  0  0  0
    4.2663   -2.3132   -3.1027 C   0  0  0  0  0  0  0  0  0  0  0  0
    2.5345    0.1922    0.1923 C   0  0  1  0  0  0  0  0  0  0  0  0
    5.4191   -2.3308   -3.2391 N   0  0  0  0  0  0  0  0  0  0  0  0
    3.1363    1.5029    0.4816 N   0  0  0  0  0  0  0  0  0  0  0  0
    0.5424   -0.6973    0.3953 H   0  0  0  0  0  0  0  0  0  0  0  0
    0.5406    0.9608   -0.2298 H   0  0  0  0  0  0  0  0  0  0  0  0
    0.8664    0.6646    1.4877 H   0  0  0  0  0  0  0  0  0  0  0  0
    2.8196   -2.4360   -0.7469 H   0  0  0  0  0  0  0  0  0  0  0  0
    1.3115   -1.8512   -1.4426 H   0  0  0  0  0  0  0  0  0  0  0  0
    2.3755   -1.6462   -3.6875 H   0  0  0  0  0  0  0  0  0  0  0  0
    2.4232   -3.2937   -3.0656 H   0  0  0  0  0  0  0  0  0  0  0  0
    2.3777    0.3543   -1.9636 H   0  0  0  0  0  0  0  0  0  0  0  0
    3.9305   -0.2494   -1.3926 H   0  0  0  0  0  0  0  0  0  0  0  0
    2.9788   -0.5133    0.9098 H   0  0  0  0  0  0  0  0  0  0  0  0
    2.7686    2.1949   -0.1733 H   0  0  0  0  0  0  0  0  0  0  0  0
    4.1410    1.4647    0.3094 H   0  0  0  0  0  0  0  0  0  0  0  0
  1 11  1  0  0  0  0
  2 13  1  0  0  0  0
  2  4  1  0  0  0  0
  2 12  1  0  0  0  0
  3  2  1  0  0  0  0
  4  6  1  0  0  0  0
  5  3  1  0  0  0  0
  6  1  1  0  0  0  0
  6  8  1  0  0  0  0
  6 18  1  1  0  0  0
  7  5  3  0  0  0  0
  9  1  1  0  0  0  0
 10  1  1  0  0  0  0
 14  3  1  0  0  0  0
 15  3  1  0  0  0  0
 16  4  1  0  0  0  0
 17  4  1  0  0  0  0
 19  8  1  0  0  0  0
 20  8  1  0  0  0  0
M  END
>  <HBA>
2

>  <HBD>
1

>  <TPSA>
49.81

>  <cid>
29023

>  <dipole>
3.46

>  <excitation_energy_1>
5.698

>  <excitation_energy_2>
5.936

>  <excitation_energy_3>
6.388

>  <excitation_energy_4>
6.53

>  <homo_energy>
-6.43

>  <homo_lumo_gap>
7.249

>  <logP>
1.728

>  <lumo_energy>
0.819

>  <melting_point>
61.59

>  <molecular_refractivity>
33.41

>  <oscillator_strength_1>
0.0239

>  <oscillator_strength_2>
0.0087

>  <oscillator_strength_3>
0.0056

>  <oscillator_strength_4>
0.0033

>  <open_babel_can_smiles>
N#CCCC[C@@H](N)C

>  <mulliken_charges>
20
1   -0.443391
2   -0.268194
3   -0.347211
4   -0.267369
5   0.354822
6   0.026495
7   -0.473428
8   -0.705381
9   0.142091
10   0.133242
11   0.166734
12   0.156281
13   0.152754
14   0.191439
15   0.192894
16   0.121972
17   0.149184
18   0.133372
19   0.287651
20   0.296044

>  <lowdin_charges>
20
1   -0.450258
2   -0.266926
3   -0.274074
4   -0.297404
5   -0.019799
6   -0.064122
7   -0.131488
8   -0.54715
9   0.148591
10   0.144799
11   0.162504
12   0.154449
13   0.15019
14   0.180247
15   0.181558
16   0.137735
17   0.14807
18   0.140477
19   0.250774
20   0.251828

$$$$

