PCCDB-ID:  15359
public computational chemistry database (PCCDB) project, http://pccdb.org

 32 32  0  0  0  0  0  0  0  0999 V2000
    1.7087   -0.8190   -0.7943 C   0  0  0  0  0  0  0  0  0  0  0  0
    5.4797    0.5567    6.5989 C   0  0  0  0  0  0  0  0  0  0  0  0
    5.0049    2.6856    5.3065 C   0  0  0  0  0  0  0  0  0  0  0  0
    7.4937   -0.6881   -1.2375 C   0  0  0  0  0  0  0  0  0  0  0  0
    2.7387    0.3131   -0.7140 C   0  0  0  0  0  0  0  0  0  0  0  0
    5.1014    1.1523    5.2382 C   0  0  0  0  0  0  0  0  0  0  0  0
    4.3100    0.4364    1.0461 C   0  0  0  0  0  0  0  0  0  0  0  0
    5.7973    0.5786    3.0407 C   0  0  0  0  0  0  0  0  0  0  0  0
    6.5471   -0.0437    0.8254 C   0  0  0  0  0  0  0  0  0  0  0  0
    3.0993    0.5748    0.6702 N   0  0  0  0  0  0  0  0  0  0  0  0
    6.1132    0.7518    4.2641 N   0  0  0  0  0  0  0  0  0  0  0  0
    4.5783    0.7107    2.4093 N   0  0  0  0  0  0  0  0  0  0  0  0
    5.3938    0.0541    0.2564 N   0  0  0  0  0  0  0  0  0  0  0  0
    6.8071    0.1984    2.1428 N   0  0  0  0  0  0  0  0  0  0  0  0
    7.6524   -0.4048    0.1627 O   0  0  0  0  0  0  0  0  0  0  0  0
    1.3766   -0.9686   -1.8287 H   0  0  0  0  0  0  0  0  0  0  0  0
    0.8333   -0.5896   -0.1775 H   0  0  0  0  0  0  0  0  0  0  0  0
    2.1380   -1.7603   -0.4326 H   0  0  0  0  0  0  0  0  0  0  0  0
    4.7417    0.8254    7.3636 H   0  0  0  0  0  0  0  0  0  0  0  0
    6.4610    0.9291    6.9136 H   0  0  0  0  0  0  0  0  0  0  0  0
    5.5370   -0.5351    6.5397 H   0  0  0  0  0  0  0  0  0  0  0  0
    4.2681    2.9985    6.0557 H   0  0  0  0  0  0  0  0  0  0  0  0
    4.7118    3.1111    4.3399 H   0  0  0  0  0  0  0  0  0  0  0  0
    5.9776    3.1099    5.5792 H   0  0  0  0  0  0  0  0  0  0  0  0
    8.4917   -0.9557   -1.5855 H   0  0  0  0  0  0  0  0  0  0  0  0
    7.1213    0.1923   -1.7663 H   0  0  0  0  0  0  0  0  0  0  0  0
    6.7964   -1.5164   -1.3836 H   0  0  0  0  0  0  0  0  0  0  0  0
    2.2867    1.2305   -1.1175 H   0  0  0  0  0  0  0  0  0  0  0  0
    3.6092    0.0739   -1.3389 H   0  0  0  0  0  0  0  0  0  0  0  0
    4.1033    0.7547    4.9751 H   0  0  0  0  0  0  0  0  0  0  0  0
    3.7685    0.9800    2.9497 H   0  0  0  0  0  0  0  0  0  0  0  0
    7.7351    0.0751    2.5242 H   0  0  0  0  0  0  0  0  0  0  0  0
  1  5  1  0  0  0  0
  1 18  1  0  0  0  0
  1 17  1  0  0  0  0
  2 20  1  0  0  0  0
  2 19  1  0  0  0  0
  3 24  1  0  0  0  0
  3 22  1  0  0  0  0
  4 15  1  0  0  0  0
  5 10  1  0  0  0  0
  6  3  1  0  0  0  0
  6  2  1  0  0  0  0
  7 12  1  0  0  0  0
  8 11  2  0  0  0  0
  9 14  1  0  0  0  0
 10  7  1  0  0  0  0
 11  6  1  0  0  0  0
 12 31  1  0  0  0  0
 12  8  1  0  0  0  0
 13  9  2  0  0  0  0
 13  7  2  0  0  0  0
 14 32  1  0  0  0  0
 14  8  1  0  0  0  0
 15  9  1  0  0  0  0
 16  1  1  0  0  0  0
 21  2  1  0  0  0  0
 23  3  1  0  0  0  0
 25  4  1  0  0  0  0
 26  4  1  0  0  0  0
 27  4  1  0  0  0  0
 28  5  1  0  0  0  0
 29  5  1  0  0  0  0
 30  6  1  0  0  0  0
M  RAD  1  10   2
M  END
>  <HBA>
6

>  <HBD>
2

>  <TPSA>
71.96

>  <cid>
15359

>  <dipole>
2.35

>  <excitation_energy_1>
5.145

>  <excitation_energy_2>
5.258

>  <excitation_energy_3>
5.322

>  <excitation_energy_4>
5.434

>  <homo_energy>
-5.951

>  <homo_lumo_gap>
5.826

>  <logP>
1.278

>  <lumo_energy>
-0.125

>  <melting_point>
124.06

>  <molecular_refractivity>
59.35

>  <oscillator_strength_1>
0.0374

>  <oscillator_strength_2>
0.0546

>  <oscillator_strength_3>
0.0333

>  <oscillator_strength_4>
0.0289

>  <open_babel_can_smiles>
CC[N]C1=[N]=C(N/C(=N/C(C)C)/N1)OC

>  <mulliken_charges>
32
1   -0.432471
2   -0.428215
3   -0.434612
4   -0.211105
5   -0.136591
6   0.013935
7   0.669286
8   0.757898
9   0.772887
10   -0.504817
11   -0.502776
12   -0.720383
13   -0.560896
14   -0.699122
15   -0.48857
16   0.131949
17   0.150294
18   0.141671
19   0.133702
20   0.149306
21   0.146512
22   0.140873
23   0.142003
24   0.154287
25   0.170171
26   0.179285
27   0.178581
28   0.134031
29   0.141305
30   0.103557
31   0.350777
32   0.357246

>  <lowdin_charges>
32
1   -0.445448
2   -0.441765
3   -0.450903
4   -0.269223
5   -0.19781
6   -0.052455
7   0.123883
8   0.133166
9   0.187505
10   -0.244491
11   -0.264675
12   -0.259944
13   -0.25883
14   -0.227162
15   -0.181083
16   0.144423
17   0.151983
18   0.147027
19   0.146637
20   0.152636
21   0.150675
22   0.150702
23   0.148142
24   0.154787
25   0.163099
26   0.165183
27   0.16456
28   0.140932
29   0.137779
30   0.115856
31   0.303094
32   0.31172

$$$$

