PCCDB-ID:  7703
public computational chemistry database (PCCDB) project, http://pccdb.org

 23 23  0  0  0  0  0  0  0  0999 V2000
    0.2078   -0.1122    1.2816 C   0  0  0  0  0  0  0  0  0  0  0  0
    8.9380   -1.8118   -0.0593 C   0  0  0  0  0  0  0  0  0  0  0  0
    1.6968   -0.1601    1.4608 C   0  0  0  0  0  0  0  0  0  0  0  0
    2.5460   -0.7521    0.6072 C   0  0  0  0  0  0  0  0  0  0  0  0
    4.7572   -0.3039    1.7732 C   0  0  0  0  0  0  0  0  0  0  0  0
    4.7232   -1.5091   -0.3008 C   0  0  0  0  0  0  0  0  0  0  0  0
    6.1366   -0.4192    1.8206 C   0  0  0  0  0  0  0  0  0  0  0  0
    6.1137   -1.6352   -0.2702 C   0  0  0  0  0  0  0  0  0  0  0  0
    4.0087   -0.8470    0.7075 C   0  0  0  0  0  0  0  0  0  0  0  0
    6.8303   -1.0861    0.7972 C   0  0  0  0  0  0  0  0  0  0  0  0
    8.1873   -1.1423    0.9402 O   0  0  0  0  0  0  0  0  0  0  0  0
   -0.3123   -0.6001    2.1179 H   0  0  0  0  0  0  0  0  0  0  0  0
   -0.1020   -0.6092    0.3558 H   0  0  0  0  0  0  0  0  0  0  0  0
   -0.1590    0.9233    1.2495 H   0  0  0  0  0  0  0  0  0  0  0  0
    9.9823   -1.7378    0.2499 H   0  0  0  0  0  0  0  0  0  0  0  0
    8.8170   -1.3373   -1.0423 H   0  0  0  0  0  0  0  0  0  0  0  0
    8.6566   -2.8708   -0.1344 H   0  0  0  0  0  0  0  0  0  0  0  0
    2.0810    0.3285    2.3565 H   0  0  0  0  0  0  0  0  0  0  0  0
    2.1218   -1.2295   -0.2780 H   0  0  0  0  0  0  0  0  0  0  0  0
    4.2504    0.2183    2.5796 H   0  0  0  0  0  0  0  0  0  0  0  0
    4.1779   -1.9418   -1.1368 H   0  0  0  0  0  0  0  0  0  0  0  0
    6.7078    0.0009    2.6428 H   0  0  0  0  0  0  0  0  0  0  0  0
    6.6184   -2.1590   -1.0740 H   0  0  0  0  0  0  0  0  0  0  0  0
  1  3  1  0  0  0  0
  1 12  1  0  0  0  0
  2 15  1  0  0  0  0
  2 11  1  0  0  0  0
  3 18  1  0  0  0  0
  4  9  1  0  0  0  0
  4  3  2  0  0  0  0
  5  7  1  0  0  0  0
  5 20  1  0  0  0  0
  6  8  2  0  0  0  0
  6  9  1  0  0  0  0
  7 22  1  0  0  0  0
  8 10  1  0  0  0  0
  9  5  2  0  0  0  0
 10 11  1  0  0  0  0
 10  7  2  0  0  0  0
 13  1  1  0  0  0  0
 14  1  1  0  0  0  0
 16  2  1  0  0  0  0
 17  2  1  0  0  0  0
 19  4  1  0  0  0  0
 21  6  1  0  0  0  0
 23  8  1  0  0  0  0
M  END
>  <HBA>
1

>  <HBD>
0

>  <TPSA>
9.23

>  <cid>
7703

>  <dipole>
1.18

>  <excitation_energy_1>
4.443

>  <excitation_energy_2>
4.721

>  <excitation_energy_3>
5.025

>  <excitation_energy_4>
5.315

>  <homo_energy>
-5.32

>  <homo_lumo_gap>
4.923

>  <logP>
2.728

>  <lumo_energy>
-0.397

>  <melting_point>
32.28

>  <molecular_refractivity>
47.83

>  <oscillator_strength_1>
0.1663

>  <oscillator_strength_2>
0.4678

>  <oscillator_strength_3>
0.0041

>  <oscillator_strength_4>
0.0001

>  <open_babel_can_smiles>
C/C=C/c1ccc(cc1)OC

>  <mulliken_charges>
23
1   -0.48885
2   -0.21425
3   -0.099554
4   -0.168259
5   -0.189527
6   -0.212139
7   -0.172517
8   -0.194667
9   0.180311
10   0.374163
11   -0.506632
12   0.154931
13   0.152702
14   0.154585
15   0.169246
16   0.151718
17   0.151739
18   0.121944
19   0.113776
20   0.128129
21   0.126451
22   0.13698
23   0.12972

>  <lowdin_charges>
23
1   -0.436963
2   -0.274619
3   -0.161548
4   -0.169794
5   -0.148057
6   -0.15302
7   -0.180108
8   -0.216007
9   -0.019013
10   0.101542
11   -0.198597
12   0.157117
13   0.154321
14   0.155119
15   0.161043
16   0.144359
17   0.143273
18   0.147653
19   0.148713
20   0.158632
21   0.156397
22   0.166923
23   0.162633

$$$$

