PCCDB-ID:  23726
public computational chemistry database (PCCDB) project, http://pccdb.org

 24 23  0  0  0  0  0  0  0  0999 V2000
    0.6921    0.5374   -0.7492 C   0  0  0  0  0  0  0  0  0  0  0  0
    4.4741   -2.7916    6.9275 C   0  0  0  0  0  0  0  0  0  0  0  0
    2.1663    0.2362   -0.4612 C   0  0  0  0  0  0  0  0  0  0  0  0
    4.3010   -1.8501    5.7780 C   0  0  0  0  0  0  0  0  0  0  0  0
    2.3658   -0.6099    0.8034 C   0  0  0  0  0  0  0  0  0  0  0  0
    4.2250   -2.2068    4.4900 C   0  0  0  0  0  0  0  0  0  0  0  0
    3.8383   -0.9045    1.0729 C   0  0  0  0  0  0  0  0  0  0  0  0
    4.0549   -1.1884    3.4293 C   0  0  0  0  0  0  0  0  0  0  0  0
    3.9715    0.0131    3.6040 O   0  0  0  0  0  0  0  0  0  0  0  0
    4.0070   -1.7803    2.2090 O   0  0  0  0  0  0  0  0  0  0  0  0
    0.5795    1.1452   -1.6540 H   0  0  0  0  0  0  0  0  0  0  0  0
    0.2314    1.0856    0.0813 H   0  0  0  0  0  0  0  0  0  0  0  0
    0.1194   -0.3868   -0.8943 H   0  0  0  0  0  0  0  0  0  0  0  0
    3.6406   -2.6971    7.6364 H   0  0  0  0  0  0  0  0  0  0  0  0
    5.3867   -2.5536    7.4904 H   0  0  0  0  0  0  0  0  0  0  0  0
    4.5326   -3.8343    6.5999 H   0  0  0  0  0  0  0  0  0  0  0  0
    2.7181    1.1809   -0.3575 H   0  0  0  0  0  0  0  0  0  0  0  0
    2.6087   -0.2830   -1.3235 H   0  0  0  0  0  0  0  0  0  0  0  0
    4.2308   -0.7874    6.0085 H   0  0  0  0  0  0  0  0  0  0  0  0
    1.8245   -1.5608    0.7083 H   0  0  0  0  0  0  0  0  0  0  0  0
    1.9494   -0.0848    1.6715 H   0  0  0  0  0  0  0  0  0  0  0  0
    4.2831   -3.2447    4.1734 H   0  0  0  0  0  0  0  0  0  0  0  0
    4.3961    0.0191    1.2506 H   0  0  0  0  0  0  0  0  0  0  0  0
    4.2926   -1.4465    0.2382 H   0  0  0  0  0  0  0  0  0  0  0  0
  1  3  1  0  0  0  0
  1 12  1  0  0  0  0
  2 15  1  0  0  0  0
  2 14  1  0  0  0  0
  3 17  1  0  0  0  0
  3  5  1  0  0  0  0
  4 19  1  0  0  0  0
  4  2  1  0  0  0  0
  5  7  1  0  0  0  0
  5 21  1  0  0  0  0
  6  4  2  0  0  0  0
  7 23  1  0  0  0  0
  7 10  1  0  0  0  0
  8  9  2  0  0  0  0
  8  6  1  0  0  0  0
 10  8  1  0  0  0  0
 11  1  1  0  0  0  0
 13  1  1  0  0  0  0
 16  2  1  0  0  0  0
 18  3  1  0  0  0  0
 20  5  1  0  0  0  0
 22  6  1  0  0  0  0
 24  7  1  0  0  0  0
M  END
>  <HBA>
2

>  <HBD>
0

>  <TPSA>
26.3

>  <cid>
23726

>  <dipole>
1.48

>  <excitation_energy_1>
4.867

>  <excitation_energy_2>
6.002

>  <excitation_energy_3>
6.222

>  <excitation_energy_4>
6.836

>  <homo_energy>
-7.197

>  <homo_lumo_gap>
6.275

>  <logP>
1.906

>  <lumo_energy>
-0.922

>  <melting_point>
-5.66

>  <molecular_refractivity>
41.38

>  <oscillator_strength_1>
0.0002

>  <oscillator_strength_2>
0.4862

>  <oscillator_strength_3>
0.1254

>  <oscillator_strength_4>
0.0045

>  <open_babel_can_smiles>
CCCCOC(=O)/C=C/C

>  <mulliken_charges>
24
1   -0.440803
2   -0.497981
3   -0.258412
4   -0.054686
5   -0.272128
6   -0.186554
7   -0.042673
8   0.612855
9   -0.50196
10   -0.482749
11   0.144019
12   0.147274
13   0.143238
14   0.168574
15   0.168844
16   0.161582
17   0.140027
18   0.131458
19   0.165923
20   0.139824
21   0.160092
22   0.142466
23   0.166029
24   0.145743

>  <lowdin_charges>
24
1   -0.443952
2   -0.438501
3   -0.272583
4   -0.094431
5   -0.287715
6   -0.210908
7   -0.134619
8   0.194037
9   -0.282867
10   -0.19484
11   0.150833
12   0.150402
13   0.147534
14   0.166765
15   0.166736
16   0.158188
17   0.143313
18   0.139839
19   0.170104
20   0.145041
21   0.156203
22   0.16422
23   0.156986
24   0.150216

$$$$

