PCCDB-ID:  70005
public computational chemistry database (PCCDB) project, http://pccdb.org

 23 24  0  0  0  0  0  0  0  0999 V2000
    0.9374    0.0897   -0.1313 C   0  0  0  0  0  0  0  0  0  0  0  0
    4.6162   -3.7571    0.0188 C   0  0  0  0  0  0  0  0  0  0  0  0
    3.1836    1.2625   -0.0037 C   0  0  0  0  0  0  0  0  0  0  0  0
    4.5559    1.2589    0.0661 C   0  0  0  0  0  0  0  0  0  0  0  0
    6.6743   -2.3148    0.1350 C   0  0  0  0  0  0  0  0  0  0  0  0
    7.2944   -1.0432    0.1795 C   0  0  0  0  0  0  0  0  0  0  0  0
    3.1345   -1.1480   -0.0320 C   0  0  0  0  0  0  0  0  0  0  0  0
    2.4446    0.0482   -0.0536 C   0  0  0  0  0  0  0  0  0  0  0  0
    5.3004   -2.4145    0.0652 C   0  0  0  0  0  0  0  0  0  0  0  0
    4.5529   -1.1948    0.0400 C   0  0  0  0  0  0  0  0  0  0  0  0
    5.2796    0.0370    0.0892 C   0  0  0  0  0  0  0  0  0  0  0  0
    6.6422    0.1005    0.1590 N   0  0  0  0  0  0  0  0  0  0  0  0
    0.5991    0.6309   -1.0241 H   0  0  0  0  0  0  0  0  0  0  0  0
    0.5077    0.6068    0.7362 H   0  0  0  0  0  0  0  0  0  0  0  0
    0.5090   -0.9168   -0.1669 H   0  0  0  0  0  0  0  0  0  0  0  0
    5.3480   -4.5695    0.0481 H   0  0  0  0  0  0  0  0  0  0  0  0
    4.0202   -3.8729   -0.8948 H   0  0  0  0  0  0  0  0  0  0  0  0
    3.9325   -3.8887    0.8666 H   0  0  0  0  0  0  0  0  0  0  0  0
    2.6454    2.2078   -0.0207 H   0  0  0  0  0  0  0  0  0  0  0  0
    5.1289    2.1801    0.1047 H   0  0  0  0  0  0  0  0  0  0  0  0
    7.2910   -3.2097    0.1566 H   0  0  0  0  0  0  0  0  0  0  0  0
    8.3812   -0.9805    0.2347 H   0  0  0  0  0  0  0  0  0  0  0  0
    2.5762   -2.0792   -0.0716 H   0  0  0  0  0  0  0  0  0  0  0  0
  1  8  1  0  0  0  0
  1 14  1  0  0  0  0
  2 16  1  0  0  0  0
  2  9  1  0  0  0  0
  2 18  1  0  0  0  0
  3  4  2  0  0  0  0
  4 11  1  0  0  0  0
  4 20  1  0  0  0  0
  5 21  1  0  0  0  0
  5  6  2  0  0  0  0
  6 22  1  0  0  0  0
  7 10  1  0  0  0  0
  8  7  2  0  0  0  0
  8  3  1  0  0  0  0
  9  5  1  0  0  0  0
 10  9  2  0  0  0  0
 10 11  1  0  0  0  0
 11 12  2  0  0  0  0
 12  6  1  0  0  0  0
 13  1  1  0  0  0  0
 15  1  1  0  0  0  0
 17  2  1  0  0  0  0
 19  3  1  0  0  0  0
 23  7  1  0  0  0  0
M  END
>  <HBA>
1

>  <HBD>
0

>  <TPSA>
12.89

>  <cid>
70005

>  <dipole>
2.58

>  <excitation_energy_1>
4.319

>  <excitation_energy_2>
4.333

>  <excitation_energy_3>
4.445

>  <excitation_energy_4>
5.216

>  <homo_energy>
-6.074

>  <homo_lumo_gap>
4.857

>  <logP>
2.852

>  <lumo_energy>
-1.216

>  <melting_point>
72.83

>  <molecular_refractivity>
51.67

>  <oscillator_strength_1>
0.0614

>  <oscillator_strength_2>
0.0017

>  <oscillator_strength_3>
0.021

>  <oscillator_strength_4>
0.0

>  <open_babel_can_smiles>
Cc1ccc2c(c1)c(C)ccn2

>  <mulliken_charges>
23
1   -0.532933
2   -0.533072
3   -0.183243
4   -0.139042
5   -0.217019
6   0.046614
7   -0.276159
8   0.189772
9   0.162241
10   0.118281
11   0.22738
12   -0.498901
13   0.163812
14   0.163805
15   0.155742
16   0.160658
17   0.169195
18   0.169254
19   0.12644
20   0.142774
21   0.126603
22   0.135879
23   0.121922

>  <lowdin_charges>
23
1   -0.442285
2   -0.444327
3   -0.161355
4   -0.148286
5   -0.19617
6   -0.085861
7   -0.178551
8   0.004411
9   0.024123
10   -0.022579
11   0.038005
12   -0.154303
13   0.161937
14   0.162153
15   0.156393
16   0.161565
17   0.164889
18   0.165231
19   0.157555
20   0.169484
21   0.159999
22   0.151711
23   0.15626

$$$$

