PCCDB-ID:  67328
public computational chemistry database (PCCDB) project, http://pccdb.org

 26 25  0  0  0  0  0  0  0  0999 V2000
    0.1879   -0.3989   -0.8903 C   0  0  0  0  0  0  0  0  0  0  0  0
    8.8534    0.5813   -4.6290 C   0  0  0  0  0  0  0  0  0  0  0  0
    1.5189    0.3133   -0.6287 C   0  0  0  0  0  0  0  0  0  0  0  0
    7.5543    0.9371   -3.8979 C   0  0  0  0  0  0  0  0  0  0  0  0
    2.6619   -0.2189   -1.5016 C   0  0  0  0  0  0  0  0  0  0  0  0
    3.9898    0.4922   -1.2361 C   0  0  0  0  0  0  0  0  0  0  0  0
    7.4555    0.2342   -2.5477 C   0  0  0  0  0  0  0  0  0  0  0  0
    5.1321   -0.0364   -2.0829 C   0  0  0  0  0  0  0  0  0  0  0  0
    5.0521   -0.9420   -2.8855 O   0  0  0  0  0  0  0  0  0  0  0  0
    6.2752    0.6403   -1.8173 O   0  0  0  0  0  0  0  0  0  0  0  0
   -0.6092   -0.0039   -0.2504 H   0  0  0  0  0  0  0  0  0  0  0  0
    0.2700   -1.4752   -0.6959 H   0  0  0  0  0  0  0  0  0  0  0  0
   -0.1285   -0.2751   -1.9332 H   0  0  0  0  0  0  0  0  0  0  0  0
    8.9119    1.0952   -5.5941 H   0  0  0  0  0  0  0  0  0  0  0  0
    8.9198   -0.4961   -4.8217 H   0  0  0  0  0  0  0  0  0  0  0  0
    9.7351    0.8712   -4.0442 H   0  0  0  0  0  0  0  0  0  0  0  0
    1.7890    0.2070    0.4319 H   0  0  0  0  0  0  0  0  0  0  0  0
    1.3966    1.3920   -0.8035 H   0  0  0  0  0  0  0  0  0  0  0  0
    6.6899    0.6498   -4.5068 H   0  0  0  0  0  0  0  0  0  0  0  0
    7.4941    2.0212   -3.7386 H   0  0  0  0  0  0  0  0  0  0  0  0
    2.4010   -0.1118   -2.5621 H   0  0  0  0  0  0  0  0  0  0  0  0
    2.7900   -1.2956   -1.3339 H   0  0  0  0  0  0  0  0  0  0  0  0
    4.2852    0.3999   -0.1819 H   0  0  0  0  0  0  0  0  0  0  0  0
    3.9072    1.5719   -1.4204 H   0  0  0  0  0  0  0  0  0  0  0  0
    8.2901    0.5109   -1.8967 H   0  0  0  0  0  0  0  0  0  0  0  0
    7.4396   -0.8521   -2.6729 H   0  0  0  0  0  0  0  0  0  0  0  0
  1 12  1  0  0  0  0
  1  3  1  0  0  0  0
  1 11  1  0  0  0  0
  2 16  1  0  0  0  0
  2  4  1  0  0  0  0
  3 17  1  0  0  0  0
  4 20  1  0  0  0  0
  4  7  1  0  0  0  0
  5 22  1  0  0  0  0
  5  6  1  0  0  0  0
  5  3  1  0  0  0  0
  6 23  1  0  0  0  0
  7 25  1  0  0  0  0
  7 10  1  0  0  0  0
  8 10  1  0  0  0  0
  8  6  1  0  0  0  0
  9  8  2  0  0  0  0
 13  1  1  0  0  0  0
 14  2  1  0  0  0  0
 15  2  1  0  0  0  0
 18  3  1  0  0  0  0
 19  4  1  0  0  0  0
 21  5  1  0  0  0  0
 24  6  1  0  0  0  0
 26  7  1  0  0  0  0
M  END
>  <HBA>
2

>  <HBD>
0

>  <TPSA>
26.3

>  <cid>
67328

>  <dipole>
1.56

>  <excitation_energy_1>
5.841

>  <excitation_energy_2>
7.033

>  <excitation_energy_3>
7.378

>  <excitation_energy_4>
7.508

>  <homo_energy>
-7.255

>  <homo_lumo_gap>
7.742

>  <logP>
2.13

>  <lumo_energy>
0.487

>  <melting_point>
-15.45

>  <molecular_refractivity>
41.85

>  <oscillator_strength_1>
0.0006

>  <oscillator_strength_2>
0.016

>  <oscillator_strength_3>
0.0122

>  <oscillator_strength_4>
0.0593

>  <open_babel_can_smiles>
CCCCC(=O)OCCC

>  <mulliken_charges>
26
1   -0.441872
2   -0.453378
3   -0.251293
4   -0.272454
5   -0.241115
6   -0.363021
7   -0.037952
8   0.623201
9   -0.481514
10   -0.470362
11   0.142312
12   0.144447
13   0.144187
14   0.152542
15   0.152191
16   0.143931
17   0.130088
18   0.129945
19   0.162765
20   0.143627
21   0.146416
22   0.148237
23   0.169047
24   0.168429
25   0.146524
26   0.165073

>  <lowdin_charges>
26
1   -0.441904
2   -0.442732
3   -0.269206
4   -0.283588
5   -0.267529
6   -0.298109
7   -0.131579
8   0.197698
9   -0.268741
10   -0.198269
11   0.150669
12   0.1463
13   0.1468
14   0.155791
15   0.149967
16   0.14802
17   0.136951
18   0.136539
19   0.157081
20   0.144729
21   0.147793
22   0.148413
23   0.165758
24   0.164833
25   0.150397
26   0.153918

$$$$

