PCCDB-ID:  18197
public computational chemistry database (PCCDB) project, http://pccdb.org

 27 28  0  0  0  0  0  0  0  0999 V2000
    0.8316   -0.0518   -0.1216 C   0  0  0  0  0  0  0  0  0  0  0  0
    7.3976   -3.7186    0.1178 C   0  0  0  0  0  0  0  0  0  0  0  0
    7.3922    1.3161    0.2903 C   0  0  0  0  0  0  0  0  0  0  0  0
    3.0419    1.1865    0.0470 C   0  0  0  0  0  0  0  0  0  0  0  0
    4.4157    1.2227    0.1251 C   0  0  0  0  0  0  0  0  0  0  0  0
    7.2807   -1.1868    0.1976 C   0  0  0  0  0  0  0  0  0  0  0  0
    3.0710   -1.2151   -0.0362 C   0  0  0  0  0  0  0  0  0  0  0  0
    5.2283   -2.4321    0.0413 C   0  0  0  0  0  0  0  0  0  0  0  0
    2.3391   -0.0455   -0.0361 C   0  0  0  0  0  0  0  0  0  0  0  0
    6.6033   -2.4347    0.1169 C   0  0  0  0  0  0  0  0  0  0  0  0
    6.6176    0.0223    0.2034 C   0  0  0  0  0  0  0  0  0  0  0  0
    4.4893   -1.2185    0.0428 C   0  0  0  0  0  0  0  0  0  0  0  0
    5.1865    0.0286    0.1251 C   0  0  0  0  0  0  0  0  0  0  0  0
    0.4793    0.4957   -1.0053 H   0  0  0  0  0  0  0  0  0  0  0  0
    0.3793    0.4317    0.7538 H   0  0  0  0  0  0  0  0  0  0  0  0
    0.4385   -1.0715   -0.1812 H   0  0  0  0  0  0  0  0  0  0  0  0
    8.0997   -3.7550   -0.7252 H   0  0  0  0  0  0  0  0  0  0  0  0
    6.7438   -4.5935    0.0473 H   0  0  0  0  0  0  0  0  0  0  0  0
    7.9945   -3.8187    1.0336 H   0  0  0  0  0  0  0  0  0  0  0  0
    8.4677    1.1222    0.3437 H   0  0  0  0  0  0  0  0  0  0  0  0
    7.1143    1.8986    1.1779 H   0  0  0  0  0  0  0  0  0  0  0  0
    7.2123    1.9573   -0.5821 H   0  0  0  0  0  0  0  0  0  0  0  0
    2.4785    2.1173    0.0491 H   0  0  0  0  0  0  0  0  0  0  0  0
    4.9195    2.1823    0.1879 H   0  0  0  0  0  0  0  0  0  0  0  0
    8.3678   -1.1908    0.2568 H   0  0  0  0  0  0  0  0  0  0  0  0
    2.5573   -2.1729   -0.0991 H   0  0  0  0  0  0  0  0  0  0  0  0
    4.6839   -3.3724   -0.0224 H   0  0  0  0  0  0  0  0  0  0  0  0
  1  9  1  0  0  0  0
  1 15  1  0  0  0  0
  2 19  1  0  0  0  0
  3 20  1  0  0  0  0
  3 21  1  0  0  0  0
  4 23  1  0  0  0  0
  4  5  2  0  0  0  0
  5 24  1  0  0  0  0
  6 11  1  0  0  0  0
  6 25  1  0  0  0  0
  7  9  2  0  0  0  0
  7 12  1  0  0  0  0
  8 12  2  0  0  0  0
  8 10  1  0  0  0  0
  9  4  1  0  0  0  0
 10  2  1  0  0  0  0
 10  6  2  0  0  0  0
 11  3  1  0  0  0  0
 12 13  1  0  0  0  0
 13  5  1  0  0  0  0
 13 11  2  0  0  0  0
 14  1  1  0  0  0  0
 16  1  1  0  0  0  0
 17  2  1  0  0  0  0
 18  2  1  0  0  0  0
 22  3  1  0  0  0  0
 26  7  1  0  0  0  0
 27  8  1  0  0  0  0
M  END
>  <HBA>
0

>  <HBD>
0

>  <TPSA>
0.0

>  <cid>
18197

>  <dipole>
0.12

>  <excitation_energy_1>
4.289

>  <excitation_energy_2>
4.308

>  <excitation_energy_3>
5.285

>  <excitation_energy_4>
5.444

>  <homo_energy>
-5.521

>  <homo_lumo_gap>
4.781

>  <logP>
3.765

>  <lumo_energy>
-0.74

>  <melting_point>
62.17

>  <molecular_refractivity>
58.85

>  <oscillator_strength_1>
0.0669

>  <oscillator_strength_2>
0.0031

>  <oscillator_strength_3>
0.0016

>  <oscillator_strength_4>
0.3951

>  <open_babel_can_smiles>
Cc1ccc2c(c1)cc(cc2C)C

>  <mulliken_charges>
27
1   -0.532524
2   -0.532384
3   -0.535537
4   -0.180089
5   -0.198889
6   -0.257792
7   -0.268221
8   -0.270182
9   0.184818
10   0.19504
11   0.142631
12   0.161621
13   0.070838
14   0.16051
15   0.160531
16   0.155267
17   0.15995
18   0.154687
19   0.160142
20   0.155037
21   0.161305
22   0.161369
23   0.118816
24   0.125686
25   0.111737
26   0.118543
27   0.117089

>  <lowdin_charges>
27
1   -0.44205
2   -0.441543
3   -0.442107
4   -0.168195
5   -0.160328
6   -0.178056
7   -0.172663
8   -0.178177
9   -0.000485
10   -0.000411
11   0.002141
12   0.005091
13   -0.015897
14   0.160061
15   0.160193
16   0.155959
17   0.159622
18   0.156825
19   0.159453
20   0.155741
21   0.159528
22   0.159563
23   0.154109
24   0.158197
25   0.148592
26   0.152433
27   0.152404

$$$$

