PCCDB-ID:  7476
public computational chemistry database (PCCDB) project, http://pccdb.org

 21 21  0  0  0  0  0  0  0  0999 V2000
    1.0439    0.5068   -1.1640 C   0  0  0  0  0  0  0  0  0  0  0  0
    6.2578    2.2298    4.0762 C   0  0  0  0  0  0  0  0  0  0  0  0
    3.8920   -0.0271    1.3971 C   0  0  0  0  0  0  0  0  0  0  0  0
    2.7684    2.0138    0.7773 C   0  0  0  0  0  0  0  0  0  0  0  0
    4.6953    0.6706    2.2931 C   0  0  0  0  0  0  0  0  0  0  0  0
    3.5604    2.7244    1.6666 C   0  0  0  0  0  0  0  0  0  0  0  0
    2.0961   -0.1922   -0.3154 C   0  0  0  0  0  0  0  0  0  0  0  0
    2.9191    0.6232    0.6252 C   0  0  0  0  0  0  0  0  0  0  0  0
    4.5312    2.0576    2.4317 C   0  0  0  0  0  0  0  0  0  0  0  0
    2.2600   -1.4012   -0.4088 O   0  0  0  0  0  0  0  0  0  0  0  0
    5.2574    2.8408    3.2725 O   0  0  0  0  0  0  0  0  0  0  0  0
    0.2975    1.0076   -0.5354 H   0  0  0  0  0  0  0  0  0  0  0  0
    0.5479   -0.2380   -1.7886 H   0  0  0  0  0  0  0  0  0  0  0  0
    1.4976    1.2732   -1.8039 H   0  0  0  0  0  0  0  0  0  0  0  0
    6.7031    3.0367    4.6605 H   0  0  0  0  0  0  0  0  0  0  0  0
    7.0330    1.7556    3.4611 H   0  0  0  0  0  0  0  0  0  0  0  0
    5.8270    1.4836    4.7559 H   0  0  0  0  0  0  0  0  0  0  0  0
    4.0051   -1.0998    1.2776 H   0  0  0  0  0  0  0  0  0  0  0  0
    2.0250    2.5512    0.1965 H   0  0  0  0  0  0  0  0  0  0  0  0
    5.4386    0.1363    2.8735 H   0  0  0  0  0  0  0  0  0  0  0  0
    3.4508    3.7971    1.7904 H   0  0  0  0  0  0  0  0  0  0  0  0
  1 12  1  0  0  0  0
  1  7  1  0  0  0  0
  2 15  1  0  0  0  0
  2 17  1  0  0  0  0
  3  5  2  0  0  0  0
  4  6  1  0  0  0  0
  5  9  1  0  0  0  0
  5 20  1  0  0  0  0
  6 21  1  0  0  0  0
  6  9  2  0  0  0  0
  7  8  1  0  0  0  0
  8  4  2  0  0  0  0
  8  3  1  0  0  0  0
  9 11  1  0  0  0  0
 10  7  2  0  0  0  0
 11  2  1  0  0  0  0
 13  1  1  0  0  0  0
 14  1  1  0  0  0  0
 16  2  1  0  0  0  0
 18  3  1  0  0  0  0
 19  4  1  0  0  0  0
M  END
>  <HBA>
2

>  <HBD>
0

>  <TPSA>
26.3

>  <cid>
7476

>  <dipole>
3.21

>  <excitation_energy_1>
3.835

>  <excitation_energy_2>
4.658

>  <excitation_energy_3>
4.805

>  <excitation_energy_4>
5.407

>  <homo_energy>
-6.215

>  <homo_lumo_gap>
5.029

>  <logP>
1.898

>  <lumo_energy>
-1.186

>  <melting_point>
44.32

>  <molecular_refractivity>
43.13

>  <oscillator_strength_1>
0.0001

>  <oscillator_strength_2>
0.3603

>  <oscillator_strength_3>
0.0041

>  <oscillator_strength_4>
0.0001

>  <open_babel_can_smiles>
COc1ccc(cc1)C(=O)C

>  <mulliken_charges>
21
1   -0.54232
2   -0.219593
3   -0.170919
4   -0.18624
5   -0.19501
6   -0.176768
7   0.404531
8   0.075778
9   0.386088
10   -0.462944
11   -0.501251
12   0.168119
13   0.179394
14   0.168103
15   0.174635
16   0.158034
17   0.158047
18   0.165474
19   0.135481
20   0.138402
21   0.142958

>  <lowdin_charges>
21
1   -0.47919
2   -0.281382
3   -0.113061
4   -0.141816
5   -0.213815
6   -0.183544
7   0.157742
8   -0.072406
9   0.114597
10   -0.25296
11   -0.188103
12   0.169314
13   0.175145
14   0.16916
15   0.166925
16   0.150144
17   0.150012
18   0.175651
19   0.164049
20   0.166412
21   0.167127

$$$$

