PCCDB-ID:  55892
public computational chemistry database (PCCDB) project, http://pccdb.org

 27 29  0  0  0  0  0  0  0  0999 V2000
   -3.5288    0.0860   -0.0011 C   0  0  0  0  0  0  0  0  0  0  0  0
   -3.1288   -1.2555   -0.0025 C   0  0  0  0  0  0  0  0  0  0  0  0
    2.8925   -1.4713    0.0002 C   0  0  0  0  0  0  0  0  0  0  0  0
   -2.5793    1.1135    0.0008 C   0  0  0  0  0  0  0  0  0  0  0  0
   -1.7744   -1.5931   -0.0027 C   0  0  0  0  0  0  0  0  0  0  0  0
    1.5148   -1.7030   -0.0014 C   0  0  0  0  0  0  0  0  0  0  0  0
    3.3924   -0.1708    0.0014 C   0  0  0  0  0  0  0  0  0  0  0  0
   -0.0152    1.6883    0.0033 C   0  0  0  0  0  0  0  0  0  0  0  0
   -1.2283    0.7832    0.0012 C   0  0  0  0  0  0  0  0  0  0  0  0
   -0.8266   -0.5674   -0.0011 C   0  0  0  0  0  0  0  0  0  0  0  0
    0.6416   -0.6137   -0.0015 C   0  0  0  0  0  0  0  0  0  0  0  0
    2.5213    0.9362    0.0013 C   0  0  0  0  0  0  0  0  0  0  0  0
    1.1376    0.7069    0.0001 C   0  0  0  0  0  0  0  0  0  0  0  0
    3.0350    2.3247    0.0026 C   0  0  0  0  0  0  0  0  0  0  0  0
    5.4680    4.5378   -0.0062 N   0  0  0  0  0  0  0  0  0  0  0  0
    4.4733    2.3804   -0.0086 N   0  0  0  0  0  0  0  0  0  0  0  0
    4.9434    3.5331   -0.0067 N   0  0  0  0  0  0  0  0  0  0  0  0
    2.3463    3.3284    0.0115 O   0  0  0  0  0  0  0  0  0  0  0  0
   -4.5874    0.3315   -0.0020 H   0  0  0  0  0  0  0  0  0  0  0  0
   -3.8796   -2.0411   -0.0033 H   0  0  0  0  0  0  0  0  0  0  0  0
    3.5822   -2.3104    0.0005 H   0  0  0  0  0  0  0  0  0  0  0  0
   -2.8974    2.1532    0.0020 H   0  0  0  0  0  0  0  0  0  0  0  0
   -1.4696   -2.6367   -0.0042 H   0  0  0  0  0  0  0  0  0  0  0  0
    1.1318   -2.7202   -0.0027 H   0  0  0  0  0  0  0  0  0  0  0  0
    4.4627    0.0001    0.0026 H   0  0  0  0  0  0  0  0  0  0  0  0
    0.0210    2.3506    0.8772 H   0  0  0  0  0  0  0  0  0  0  0  0
    0.0197    2.3572   -0.8656 H   0  0  0  0  0  0  0  0  0  0  0  0
  1  4  2  0  0  0  0
  2  1  1  0  0  0  0
  3 21  1  0  0  0  0
  3  7  2  0  0  0  0
  4  9  1  0  0  0  0
  4 22  1  0  0  0  0
  5  2  2  0  0  0  0
  5 10  1  0  0  0  0
  6  3  1  0  0  0  0
  7 25  1  0  0  0  0
  8 26  1  0  0  0  0
  9  8  1  0  0  0  0
 10  9  2  0  0  0  0
 11  6  2  0  0  0  0
 11 10  1  0  0  0  0
 11 13  1  0  0  0  0
 12  7  1  0  0  0  0
 12 14  1  0  0  0  0
 13 12  2  0  0  0  0
 13  8  1  0  0  0  0
 14 18  2  0  0  0  0
 16 17  2  0  0  0  0
 16 14  1  0  0  0  0
 17 15  2  0  0  0  0
 19  1  1  0  0  0  0
 20  2  1  0  0  0  0
 23  5  1  0  0  0  0
 24  6  1  0  0  0  0
 27  8  1  0  0  0  0
M  RAD  1  15   2
M  END
>  <HBA>
2

>  <HBD>
0

>  <TPSA>
66.82

>  <cid>
55892

>  <dipole>
2.55

>  <excitation_energy_1>
3.501

>  <excitation_energy_2>
4.113

>  <excitation_energy_3>
4.157

>  <excitation_energy_4>
4.242

>  <homo_energy>
-6.082

>  <homo_lumo_gap>
4.087

>  <logP>
3.161

>  <lumo_energy>
-1.995

>  <melting_point>
157.0

>  <molecular_refractivity>
65.1

>  <oscillator_strength_1>
0.0368

>  <oscillator_strength_2>
0.0136

>  <oscillator_strength_3>
0.0001

>  <oscillator_strength_4>
0.0

>  <open_babel_can_smiles>
[N]=[N]=NC(=O)c1cccc2c1Cc1c2cccc1

>  <mulliken_charges>
27
1   -0.127895
2   -0.137941
3   -0.141183
4   -0.204715
5   -0.192628
6   -0.177523
7   -0.167782
8   -0.400501
9   0.107613
10   0.091499
11   0.073302
12   0.018419
13   0.048782
14   0.547619
15   -0.217907
16   -0.483358
17   0.495225
18   -0.477247
19   0.130368
20   0.13018
21   0.13865
22   0.131353
23   0.129084
24   0.139959
25   0.166709
26   0.190167
27   0.189749

>  <lowdin_charges>
27
1   -0.152571
2   -0.157642
3   -0.15706
4   -0.159989
5   -0.1595
6   -0.139989
7   -0.13987
8   -0.271925
9   -0.004198
10   -0.01577
11   -0.009052
12   -0.052599
13   0.024797
14   0.179809
15   -0.039662
16   -0.206981
17   0.222351
18   -0.254732
19   0.157351
20   0.159475
21   0.163758
22   0.158201
23   0.155895
24   0.162013
25   0.174931
26   0.181583
27   0.181374

$$$$

