PCCDB-ID:  27531
public computational chemistry database (PCCDB) project, http://pccdb.org

 36 37  0  0  1  0  0  0  0  0999 V2000
    1.2327   -1.8952    1.6306 C   0  0  0  0  0  0  0  0  0  0  0  0
    4.9456   -1.4217    0.4894 C   0  0  0  0  0  0  0  0  0  0  0  0
    3.7047   -2.1132    1.0728 C   0  0  0  0  0  0  0  0  0  0  0  0
    5.2110   -0.0697    1.1666 C   0  0  0  0  0  0  0  0  0  0  0  0
    3.1476    6.3563   -0.1269 C   0  0  0  0  0  0  0  0  0  0  0  0
    1.3911    5.1999    1.0238 C   0  0  0  0  0  0  0  0  0  0  0  0
    2.2959    7.4565   -0.2049 C   0  0  0  0  0  0  0  0  0  0  0  0
    0.6194    6.3546    0.8858 C   0  0  0  0  0  0  0  0  0  0  0  0
    2.7491    0.1409    1.6944 C   0  0  0  0  0  0  0  0  0  0  0  0
    2.4588   -1.2107    1.0151 C   0  0  2  0  0  0  0  0  0  0  0  0
    2.6940    5.1997    0.5137 C   0  0  0  0  0  0  0  0  0  0  0  0
    3.9783    0.8395    1.0997 C   0  0  1  0  0  0  0  0  0  0  0  0
    3.6256    4.0225    0.5944 C   0  0  0  0  0  0  0  0  0  0  0  0
    1.0510    7.4727    0.2911 N   0  0  0  0  0  0  0  0  0  0  0  0
    4.2863    2.0792    1.8523 N   0  0  0  0  0  0  0  0  0  0  0  0
    3.3550    3.1077    1.5834 N   0  0  0  0  0  0  0  0  0  0  0  0
    4.5774    3.8911   -0.1695 O   0  0  0  0  0  0  0  0  0  0  0  0
    1.0127   -2.8436    1.1261 H   0  0  0  0  0  0  0  0  0  0  0  0
    0.3411   -1.2609    1.5557 H   0  0  0  0  0  0  0  0  0  0  0  0
    1.3971   -2.1138    2.6937 H   0  0  0  0  0  0  0  0  0  0  0  0
    4.8014   -1.2647   -0.5892 H   0  0  0  0  0  0  0  0  0  0  0  0
    5.8254   -2.0687    0.5937 H   0  0  0  0  0  0  0  0  0  0  0  0
    3.8981   -2.3848    2.1221 H   0  0  0  0  0  0  0  0  0  0  0  0
    3.5113   -3.0530    0.5389 H   0  0  0  0  0  0  0  0  0  0  0  0
    6.0676    0.4279    0.6913 H   0  0  0  0  0  0  0  0  0  0  0  0
    5.4756   -0.2244    2.2222 H   0  0  0  0  0  0  0  0  0  0  0  0
    4.1457    6.3783   -0.5506 H   0  0  0  0  0  0  0  0  0  0  0  0
    0.9634    4.3179    1.4913 H   0  0  0  0  0  0  0  0  0  0  0  0
    2.6270    8.3724   -0.6912 H   0  0  0  0  0  0  0  0  0  0  0  0
   -0.3995    6.3792    1.2688 H   0  0  0  0  0  0  0  0  0  0  0  0
    2.9262   -0.0177    2.7686 H   0  0  0  0  0  0  0  0  0  0  0  0
    1.8729    0.7972    1.6097 H   0  0  0  0  0  0  0  0  0  0  0  0
    2.2389   -1.0134   -0.0466 H   0  0  0  0  0  0  0  0  0  0  0  0
    3.7760    1.0787    0.0426 H   0  0  0  0  0  0  0  0  0  0  0  0
    5.1819    2.4321    1.5066 H   0  0  0  0  0  0  0  0  0  0  0  0
    2.8342    3.4116    2.3956 H   0  0  0  0  0  0  0  0  0  0  0  0
  1 20  1  0  0  0  0
  2 22  1  0  0  0  0
  2  3  1  0  0  0  0
  2  4  1  0  0  0  0
  3 23  1  0  0  0  0
  4 26  1  0  0  0  0
  5 11  1  0  0  0  0
  6 28  1  0  0  0  0
  7  5  2  0  0  0  0
  7 14  1  0  0  0  0
  8  6  1  0  0  0  0
  8 30  1  0  0  0  0
  9 31  1  0  0  0  0
 10 33  1  6  0  0  0
 10  3  1  0  0  0  0
 10  1  1  0  0  0  0
 10  9  1  0  0  0  0
 11 13  1  0  0  0  0
 11  6  2  0  0  0  0
 12 34  1  6  0  0  0
 12  4  1  0  0  0  0
 12  9  1  0  0  0  0
 12 15  1  0  0  0  0
 13 16  1  0  0  0  0
 14  8  2  0  0  0  0
 16 15  1  0  0  0  0
 16 36  1  0  0  0  0
 17 13  2  0  0  0  0
 18  1  1  0  0  0  0
 19  1  1  0  0  0  0
 21  2  1  0  0  0  0
 24  3  1  0  0  0  0
 25  4  1  0  0  0  0
 27  5  1  0  0  0  0
 29  7  1  0  0  0  0
 32  9  1  0  0  0  0
 35 15  1  0  0  0  0
M  END
>  <HBA>
4

>  <HBD>
2

>  <TPSA>
54.02

>  <cid>
27531

>  <dipole>
2.28

>  <excitation_energy_1>
4.231

>  <excitation_energy_2>
4.342

>  <excitation_energy_3>
4.588

>  <excitation_energy_4>
5.016

>  <homo_energy>
-6.61

>  <homo_lumo_gap>
5.01

>  <logP>
2.676

>  <lumo_energy>
-1.6

>  <melting_point>
126.67

>  <molecular_refractivity>
66.76

>  <oscillator_strength_1>
0.0187

>  <oscillator_strength_2>
0.0164

>  <oscillator_strength_3>
0.0007

>  <oscillator_strength_4>
0.0462

>  <open_babel_can_smiles>
C[C@@H]1CCC[C@@H](C1)NNC(=O)c1ccncc1

>  <mulliken_charges>
36
1   -0.444782
2   -0.267717
3   -0.253862
4   -0.285403
5   -0.163224
6   -0.191637
7   0.035725
8   0.038381
9   -0.252315
10   -0.077105
11   0.09134
12   0.059846
13   0.556093
14   -0.399306
15   -0.449329
16   -0.490381
17   -0.515679
18   0.141267
19   0.138844
20   0.139615
21   0.134389
22   0.135328
23   0.126237
24   0.129738
25   0.137792
26   0.142206
27   0.170072
28   0.143858
29   0.150066
30   0.147668
31   0.130979
32   0.126474
33   0.120286
34   0.130939
35   0.322938
36   0.340658

>  <lowdin_charges>
36
1   -0.441306
2   -0.274182
3   -0.277069
4   -0.2833
5   -0.150462
6   -0.180691
7   -0.086252
8   -0.085715
9   -0.283415
10   -0.123407
11   -0.016577
12   -0.067197
13   0.150191
14   -0.138399
15   -0.284304
16   -0.220248
17   -0.30052
18   0.148714
19   0.147741
20   0.1445
21   0.139077
22   0.147087
23   0.136183
24   0.143455
25   0.147478
26   0.144052
27   0.181759
28   0.16625
29   0.161801
30   0.158822
31   0.139765
32   0.141437
33   0.133094
34   0.130628
35   0.26324
36   0.287769

$$$$

