PCCDB-ID:  34653
public computational chemistry database (PCCDB) project, http://pccdb.org

 40 41  0  0  1  0  0  0  0  0999 V2000
    5.3973    2.2972    0.4611 C   0  0  0  0  0  0  0  0  0  0  0  0
    5.2006    0.0979    1.6465 C   0  0  0  0  0  0  0  0  0  0  0  0
    3.1511    1.1737    0.6336 C   0  0  0  0  0  0  0  0  0  0  0  0
    3.6781    0.4712   -8.5976 C   0  0  0  0  0  0  0  0  0  0  0  0
    5.0804    1.0292   -8.5645 C   0  0  0  0  0  0  0  0  0  0  0  0
    3.4027   -0.2367   -5.4322 C   0  0  0  0  0  0  0  0  0  0  0  0
    5.7052    0.4407   -5.4922 C   0  0  0  0  0  0  0  0  0  0  0  0
    3.6301   -0.9005   -4.2290 C   0  0  0  0  0  0  0  0  0  0  0  0
    5.9362   -0.2273   -4.2877 C   0  0  0  0  0  0  0  0  0  0  0  0
    4.3500   -0.9835   -1.1469 C   0  0  0  0  0  0  0  0  0  0  0  0
    4.1777    1.1901   -7.3642 C   0  0  0  0  0  0  0  0  0  0  0  0
    4.4379    0.4485   -6.0859 C   0  0  0  0  0  0  0  0  0  0  0  0
    4.9010   -0.9022   -3.6351 C   0  0  0  0  0  0  0  0  0  0  0  0
    5.1382   -1.6318   -2.3115 C   0  0  1  0  0  0  0  0  0  0  0  0
    4.6692    0.9426    0.4756 C   0  0  0  0  0  0  0  0  0  0  0  0
    5.0127    0.2782   -0.8065 N   0  0  0  0  0  0  0  0  0  0  0  0
    6.5062   -1.6845   -1.9512 O   0  0  0  0  0  0  0  0  0  0  0  0
    5.2323    2.8389    1.3986 H   0  0  0  0  0  0  0  0  0  0  0  0
    5.0338    2.9314   -0.3580 H   0  0  0  0  0  0  0  0  0  0  0  0
    6.4746    2.1530    0.3271 H   0  0  0  0  0  0  0  0  0  0  0  0
    5.0439    0.6240    2.5946 H   0  0  0  0  0  0  0  0  0  0  0  0
    6.2729   -0.0897    1.5271 H   0  0  0  0  0  0  0  0  0  0  0  0
    4.6918   -0.8690    1.7225 H   0  0  0  0  0  0  0  0  0  0  0  0
    2.9313    1.7178    1.5597 H   0  0  0  0  0  0  0  0  0  0  0  0
    2.6016    0.2265    0.6687 H   0  0  0  0  0  0  0  0  0  0  0  0
    2.7563    1.7636   -0.2031 H   0  0  0  0  0  0  0  0  0  0  0  0
    3.5656   -0.6081   -8.5394 H   0  0  0  0  0  0  0  0  0  0  0  0
    2.9361    0.9653   -9.2190 H   0  0  0  0  0  0  0  0  0  0  0  0
    5.3048    1.9071   -9.1641 H   0  0  0  0  0  0  0  0  0  0  0  0
    5.9003    0.3202   -8.4875 H   0  0  0  0  0  0  0  0  0  0  0  0
    2.4122   -0.2552   -5.8808 H   0  0  0  0  0  0  0  0  0  0  0  0
    6.5251    0.9564   -5.9867 H   0  0  0  0  0  0  0  0  0  0  0  0
    2.8100   -1.4362   -3.7537 H   0  0  0  0  0  0  0  0  0  0  0  0
    6.9296   -0.2521   -3.8522 H   0  0  0  0  0  0  0  0  0  0  0  0
    4.4126   -1.6540   -0.2848 H   0  0  0  0  0  0  0  0  0  0  0  0
    3.2873   -0.8777   -1.4145 H   0  0  0  0  0  0  0  0  0  0  0  0
    3.7723    2.1929   -7.2230 H   0  0  0  0  0  0  0  0  0  0  0  0
    4.7931   -2.6687   -2.4214 H   0  0  0  0  0  0  0  0  0  0  0  0
    4.8508    0.9384   -1.5674 H   0  0  0  0  0  0  0  0  0  0  0  0
    6.6286   -0.8758   -1.4102 H   0  0  0  0  0  0  0  0  0  0  0  0
  1 15  1  0  0  0  0
  1 18  1  0  0  0  0
  2 23  1  0  0  0  0
  2 21  1  0  0  0  0
  3 25  1  0  0  0  0
  3 24  1  0  0  0  0
  4  5  1  0  0  0  0
  4 27  1  0  0  0  0
  4 11  1  0  0  0  0
  5 30  1  0  0  0  0
  5 11  1  0  0  0  0
  6  8  2  0  0  0  0
  7  9  1  0  0  0  0
  8 33  1  0  0  0  0
  8 13  1  0  0  0  0
  9 34  1  0  0  0  0
  9 13  2  0  0  0  0
 10 16  1  0  0  0  0
 10 35  1  0  0  0  0
 11 37  1  0  0  0  0
 11 12  1  0  0  0  0
 12  7  2  0  0  0  0
 12  6  1  0  0  0  0
 13 14  1  0  0  0  0
 14 38  1  6  0  0  0
 14 17  1  0  0  0  0
 14 10  1  0  0  0  0
 15  3  1  0  0  0  0
 15  2  1  0  0  0  0
 16 15  1  0  0  0  0
 17 40  1  0  0  0  0
 19  1  1  0  0  0  0
 20  1  1  0  0  0  0
 22  2  1  0  0  0  0
 26  3  1  0  0  0  0
 28  4  1  0  0  0  0
 29  5  1  0  0  0  0
 31  6  1  0  0  0  0
 32  7  1  0  0  0  0
 36 10  1  0  0  0  0
 39 16  1  0  0  0  0
M  END
>  <HBA>
2

>  <HBD>
2

>  <TPSA>
32.26

>  <cid>
34653

>  <dipole>
2.91

>  <excitation_energy_1>
5.165

>  <excitation_energy_2>
5.484

>  <excitation_energy_3>
5.594

>  <excitation_energy_4>
5.667

>  <homo_energy>
-6.185

>  <homo_lumo_gap>
6.24

>  <logP>
3.376

>  <lumo_energy>
0.054

>  <melting_point>
86.74

>  <molecular_refractivity>
71.91

>  <oscillator_strength_1>
0.0025

>  <oscillator_strength_2>
0.039

>  <oscillator_strength_3>
0.1013

>  <oscillator_strength_4>
0.0049

>  <open_babel_can_smiles>
O[C@H](c1ccc(cc1)C1CC1)CNC(C)(C)C

>  <mulliken_charges>
40
1   -0.451706
2   -0.440604
3   -0.446427
4   -0.305854
5   -0.310224
6   -0.178784
7   -0.18012
8   -0.184662
9   -0.18559
10   -0.153669
11   -0.190099
12   0.150314
13   0.123693
14   0.074589
15   0.217491
16   -0.597521
17   -0.644303
18   0.145
19   0.137293
20   0.15395
21   0.141811
22   0.152482
23   0.144445
24   0.142795
25   0.145697
26   0.137815
27   0.156353
28   0.147379
29   0.147896
30   0.156708
31   0.124108
32   0.125519
33   0.119072
34   0.139736
35   0.15354
36   0.130449
37   0.153896
38   0.140892
39   0.305423
40   0.401213

>  <lowdin_charges>
40
1   -0.444425
2   -0.444646
3   -0.458136
4   -0.31143
5   -0.31346
6   -0.161136
7   -0.163517
8   -0.173855
9   -0.166605
10   -0.221198
11   -0.152601
12   -0.006476
13   -0.028994
14   -0.005831
15   0.072437
16   -0.361987
17   -0.465511
18   0.15262
19   0.147094
20   0.153642
21   0.151645
22   0.15355
23   0.148935
24   0.152065
25   0.150308
26   0.148284
27   0.158993
28   0.158091
29   0.157829
30   0.161734
31   0.155515
32   0.157698
33   0.152373
34   0.164611
35   0.151305
36   0.129752
37   0.158084
38   0.147415
39   0.259767
40   0.336063

$$$$

