PCCDB-ID:  57562
public computational chemistry database (PCCDB) project, http://pccdb.org

 34 35  0  0  0  0  0  0  0  0999 V2000
   -0.3030    4.2824   -0.9626 C   0  0  0  0  0  0  0  0  0  0  0  0
    0.3107    3.9383   -2.1671 C   0  0  0  0  0  0  0  0  0  0  0  0
    0.1468    3.7049    0.2290 C   0  0  0  0  0  0  0  0  0  0  0  0
    3.4753    0.7618   -0.0607 C   0  0  0  0  0  0  0  0  0  0  0  0
    1.3629    3.0241   -2.1775 C   0  0  0  0  0  0  0  0  0  0  0  0
    1.1978    2.7932    0.2172 C   0  0  0  0  0  0  0  0  0  0  0  0
    2.9356    1.4707   -1.0636 C   0  0  0  0  0  0  0  0  0  0  0  0
    3.8656   -3.4212    1.3780 C   0  0  0  0  0  0  0  0  0  0  0  0
    3.8378   -3.9194    2.8220 C   0  0  0  0  0  0  0  0  0  0  0  0
    3.7623   -6.0611    4.0629 C   0  0  0  0  0  0  0  0  0  0  0  0
    4.4748   -6.3176    2.7795 C   0  0  0  0  0  0  0  0  0  0  0  0
    4.6332   -0.1665   -0.2516 C   0  0  0  0  0  0  0  0  0  0  0  0
    1.8255    2.4315   -0.9897 C   0  0  0  0  0  0  0  0  0  0  0  0
    4.2345   -1.9560    1.2754 C   0  0  0  0  0  0  0  0  0  0  0  0
    3.4105   -5.3164    2.8575 N   0  0  0  0  0  0  0  0  0  0  0  0
    4.4702   -1.2251    2.2162 O   0  0  0  0  0  0  0  0  0  0  0  0
    4.2677   -1.5575   -0.0152 O   0  0  0  0  0  0  0  0  0  0  0  0
   -1.1229    4.9953   -0.9490 H   0  0  0  0  0  0  0  0  0  0  0  0
   -0.0293    4.3806   -3.0998 H   0  0  0  0  0  0  0  0  0  0  0  0
   -0.3224    3.9709    1.1725 H   0  0  0  0  0  0  0  0  0  0  0  0
    3.1014    0.8398    0.9573 H   0  0  0  0  0  0  0  0  0  0  0  0
    1.8368    2.7586   -3.1200 H   0  0  0  0  0  0  0  0  0  0  0  0
    1.5380    2.3618    1.1540 H   0  0  0  0  0  0  0  0  0  0  0  0
    3.3527    1.3370   -2.0632 H   0  0  0  0  0  0  0  0  0  0  0  0
    2.8868   -3.5710    0.9067 H   0  0  0  0  0  0  0  0  0  0  0  0
    4.5771   -4.0007    0.7759 H   0  0  0  0  0  0  0  0  0  0  0  0
    3.1234   -3.3267    3.4032 H   0  0  0  0  0  0  0  0  0  0  0  0
    4.8280   -3.7673    3.2872 H   0  0  0  0  0  0  0  0  0  0  0  0
    4.3172   -5.5396    4.8439 H   0  0  0  0  0  0  0  0  0  0  0  0
    3.0075   -6.7549    4.4269 H   0  0  0  0  0  0  0  0  0  0  0  0
    4.2521   -7.2029    2.1879 H   0  0  0  0  0  0  0  0  0  0  0  0
    5.5051   -5.9656    2.7052 H   0  0  0  0  0  0  0  0  0  0  0  0
    5.4548    0.0843    0.4265 H   0  0  0  0  0  0  0  0  0  0  0  0
    4.9907   -0.1526   -1.2836 H   0  0  0  0  0  0  0  0  0  0  0  0
  1 18  1  0  0  0  0
  1  3  2  0  0  0  0
  2  1  1  0  0  0  0
  3 20  1  0  0  0  0
  4 21  1  0  0  0  0
  5  2  2  0  0  0  0
  5 13  1  0  0  0  0
  6  3  1  0  0  0  0
  6 23  1  0  0  0  0
  7 13  1  0  0  0  0
  7  4  2  0  0  0  0
  8  9  1  0  0  0  0
  9 15  1  0  0  0  0
  9 28  1  0  0  0  0
  9 27  1  0  0  0  0
 10 30  1  0  0  0  0
 10 29  1  0  0  0  0
 11 15  1  0  0  0  0
 11 10  1  0  0  0  0
 12  4  1  0  0  0  0
 12 17  1  0  0  0  0
 12 33  1  0  0  0  0
 13  6  2  0  0  0  0
 14  8  1  0  0  0  0
 14 16  2  0  0  0  0
 15 10  1  0  0  0  0
 17 14  1  0  0  0  0
 19  2  1  0  0  0  0
 22  5  1  0  0  0  0
 24  7  1  0  0  0  0
 25  8  1  0  0  0  0
 26  8  1  0  0  0  0
 31 11  1  0  0  0  0
 32 11  1  0  0  0  0
 34 12  1  0  0  0  0
M  END
>  <HBA>
3

>  <HBD>
0

>  <TPSA>
29.31

>  <cid>
57562

>  <dipole>
1.07

>  <excitation_energy_1>
4.704

>  <excitation_energy_2>
4.814

>  <excitation_energy_3>
4.883

>  <excitation_energy_4>
5.618

>  <homo_energy>
-6.101

>  <homo_lumo_gap>
5.075

>  <logP>
1.887

>  <lumo_energy>
-1.026

>  <melting_point>
46.58

>  <molecular_refractivity>
71.36

>  <oscillator_strength_1>
0.4079

>  <oscillator_strength_2>
0.1683

>  <oscillator_strength_3>
0.0107

>  <oscillator_strength_4>
0.011

>  <open_babel_can_smiles>
O=C(CCN1CC1)OC/C=C/c1ccccc1

>  <mulliken_charges>
34
1   -0.127991
2   -0.129267
3   -0.130044
4   -0.11903
5   -0.194823
6   -0.181052
7   -0.16798
8   -0.364713
9   -0.120313
10   -0.191639
11   -0.197918
12   -0.102602
13   0.173974
14   0.627712
15   -0.357461
16   -0.487933
17   -0.460074
18   0.131795
19   0.131896
20   0.133105
21   0.156979
22   0.128954
23   0.134799
24   0.125698
25   0.189426
26   0.173505
27   0.161049
28   0.127213
29   0.147153
30   0.157807
31   0.157628
32   0.143724
33   0.173227
34   0.157196

>  <lowdin_charges>
34
1   -0.153625
2   -0.155572
3   -0.153302
4   -0.172795
5   -0.158994
6   -0.153241
7   -0.14825
8   -0.305648
9   -0.195454
10   -0.244252
11   -0.245571
12   -0.124665
13   -0.003108
14   0.201723
15   -0.194571
16   -0.275948
17   -0.197003
18   0.159134
19   0.159167
20   0.159402
21   0.16376
22   0.156558
23   0.160225
24   0.151966
25   0.178392
26   0.171286
27   0.157149
28   0.128905
29   0.150363
30   0.160195
31   0.159066
32   0.14543
33   0.163695
34   0.155581

$$$$

