PCCDB-ID:  26332
public computational chemistry database (PCCDB) project, http://pccdb.org

 19 19  0  0  0  0  0  0  0  0999 V2000
    2.7121   -0.3581    1.4230 C   0  0  0  0  0  0  0  0  0  0  0  0
    1.9237    4.7813    0.4171 C   0  0  0  0  0  0  0  0  0  0  0  0
    2.7418    0.0004   -0.0721 C   0  0  0  0  0  0  0  0  0  0  0  0
    4.0319    3.9321   -0.7239 C   0  0  0  0  0  0  0  0  0  0  0  0
    4.4115    1.7087   -0.9625 C   0  0  0  0  0  0  0  0  0  0  0  0
    2.8145    3.6686   -0.0742 C   0  0  0  0  0  0  0  0  0  0  0  0
    3.2047    1.4167   -0.3182 C   0  0  0  0  0  0  0  0  0  0  0  0
    4.8314    2.9627   -1.1687 N   0  0  0  0  0  0  0  0  0  0  0  0
    2.4103    2.4079    0.1235 N   0  0  0  0  0  0  0  0  0  0  0  0
    2.3214   -1.3707    1.5715 H   0  0  0  0  0  0  0  0  0  0  0  0
    2.0722    0.3431    1.9673 H   0  0  0  0  0  0  0  0  0  0  0  0
    3.7160   -0.3134    1.8606 H   0  0  0  0  0  0  0  0  0  0  0  0
    1.6183    5.4403   -0.4047 H   0  0  0  0  0  0  0  0  0  0  0  0
    2.4379    5.4049    1.1586 H   0  0  0  0  0  0  0  0  0  0  0  0
    1.0287    4.3574    0.8776 H   0  0  0  0  0  0  0  0  0  0  0  0
    1.7324   -0.1113   -0.4875 H   0  0  0  0  0  0  0  0  0  0  0  0
    3.3917   -0.6967   -0.6145 H   0  0  0  0  0  0  0  0  0  0  0  0
    4.3641    4.9568   -0.8861 H   0  0  0  0  0  0  0  0  0  0  0  0
    5.0569    0.9101   -1.3243 H   0  0  0  0  0  0  0  0  0  0  0  0
  1 10  1  0  0  0  0
  1 12  1  0  0  0  0
  1 11  1  0  0  0  0
  2 15  1  0  0  0  0
  2 14  1  0  0  0  0
  3  1  1  0  0  0  0
  4  6  2  0  0  0  0
  5  7  1  0  0  0  0
  6  9  1  0  0  0  0
  6  2  1  0  0  0  0
  7  3  1  0  0  0  0
  7  9  2  0  0  0  0
  8  5  2  0  0  0  0
  8  4  1  0  0  0  0
 13  2  1  0  0  0  0
 16  3  1  0  0  0  0
 17  3  1  0  0  0  0
 18  4  1  0  0  0  0
 19  5  1  0  0  0  0
M  END
>  <HBA>
2

>  <HBD>
0

>  <TPSA>
25.78

>  <cid>
26332

>  <dipole>
0.8

>  <excitation_energy_1>
4.043

>  <excitation_energy_2>
4.717

>  <excitation_energy_3>
5.102

>  <excitation_energy_4>
5.604

>  <homo_energy>
-6.539

>  <homo_lumo_gap>
5.418

>  <logP>
1.347

>  <lumo_energy>
-1.121

>  <melting_point>
42.34

>  <molecular_refractivity>
36.77

>  <oscillator_strength_1>
0.0052

>  <oscillator_strength_2>
0.0

>  <oscillator_strength_3>
0.1372

>  <oscillator_strength_4>
0.0

>  <open_babel_can_smiles>
CCc1cncc(n1)C

>  <mulliken_charges>
19
1   -0.442805
2   -0.525092
3   -0.319597
4   0.000658
5   -0.014972
6   0.304066
7   0.30607
8   -0.377248
9   -0.491927
10   0.146267
11   0.168959
12   0.146351
13   0.167022
14   0.167134
15   0.178645
16   0.160719
17   0.142121
18   0.141749
19   0.14188

>  <lowdin_charges>
19
1   -0.440187
2   -0.451041
3   -0.275416
4   -0.120476
5   -0.128331
6   0.04171
7   0.040014
8   -0.117501
9   -0.144421
10   0.151003
11   0.161608
12   0.148899
13   0.166256
14   0.166755
15   0.172683
16   0.160329
17   0.149993
18   0.157682
19   0.160441

$$$$

