PCCDB-ID:  24874
public computational chemistry database (PCCDB) project, http://pccdb.org

 16 15  0  0  1  0  0  0  0  0999 V2000
    2.8780   -0.3357    1.4538 C   0  0  0  0  0  0  0  0  0  0  0  0
    2.5147   -0.4342   -2.4497 C   0  0  0  0  0  0  0  0  0  0  0  0
    2.5116    0.1014    0.0329 C   0  0  0  0  0  0  0  0  0  0  0  0
    3.0595   -0.8250   -1.0656 C   0  0  2  0  0  0  0  0  0  0  0  0
    4.5305   -0.8529   -0.9919 N   0  0  0  0  0  0  0  0  0  0  0  0
    2.4869    0.3685    2.1972 H   0  0  0  0  0  0  0  0  0  0  0  0
    3.9633   -0.4013    1.5696 H   0  0  0  0  0  0  0  0  0  0  0  0
    2.4598   -1.3248    1.6788 H   0  0  0  0  0  0  0  0  0  0  0  0
    1.4193   -0.4890   -2.4854 H   0  0  0  0  0  0  0  0  0  0  0  0
    2.9082   -1.0988   -3.2289 H   0  0  0  0  0  0  0  0  0  0  0  0
    2.8065    0.5931   -2.7068 H   0  0  0  0  0  0  0  0  0  0  0  0
    2.8868    1.1202   -0.1519 H   0  0  0  0  0  0  0  0  0  0  0  0
    1.4196    0.1579   -0.0712 H   0  0  0  0  0  0  0  0  0  0  0  0
    2.7234   -1.8480   -0.8408 H   0  0  0  0  0  0  0  0  0  0  0  0
    4.8938    0.0653   -1.2538 H   0  0  0  0  0  0  0  0  0  0  0  0
    4.8950   -1.5028   -1.6881 H   0  0  0  0  0  0  0  0  0  0  0  0
  1  7  1  0  0  0  0
  1  8  1  0  0  0  0
  1  6  1  0  0  0  0
  2  4  1  0  0  0  0
  3  1  1  0  0  0  0
  4  5  1  0  0  0  0
  4 14  1  1  0  0  0
  4  3  1  0  0  0  0
  9  2  1  0  0  0  0
 10  2  1  0  0  0  0
 11  2  1  0  0  0  0
 12  3  1  0  0  0  0
 13  3  1  0  0  0  0
 15  5  1  0  0  0  0
 16  5  1  0  0  0  0
M  END
>  <HBA>
1

>  <HBD>
1

>  <TPSA>
26.02

>  <cid>
24874

>  <dipole>
1.37

>  <excitation_energy_1>
5.727

>  <excitation_energy_2>
6.461

>  <excitation_energy_3>
6.617

>  <excitation_energy_4>
6.646

>  <homo_energy>
-6.242

>  <homo_lumo_gap>
8.327

>  <logP>
1.444

>  <lumo_energy>
2.084

>  <melting_point>
29.01

>  <molecular_refractivity>
24.05

>  <oscillator_strength_1>
0.0372

>  <oscillator_strength_2>
0.0093

>  <oscillator_strength_3>
0.0013

>  <oscillator_strength_4>
0.0121

>  <open_babel_can_smiles>
CC[C@H](N)C

>  <mulliken_charges>
16
1   -0.437589
2   -0.446561
3   -0.240367
4   0.032338
5   -0.705138
6   0.133083
7   0.168654
8   0.135357
9   0.139872
10   0.133407
11   0.133757
12   0.119644
13   0.128387
14   0.127672
15   0.285541
16   0.291944

>  <lowdin_charges>
16
1   -0.444365
2   -0.460076
3   -0.272476
4   -0.063099
5   -0.552415
6   0.146205
7   0.158539
8   0.144045
9   0.146899
10   0.145314
11   0.142468
12   0.133802
13   0.139039
14   0.135294
15   0.247628
16   0.253197

$$$$

