PCCDB-ID:  36822
public computational chemistry database (PCCDB) project, http://pccdb.org

 20 21  0  0  0  0  0  0  0  0999 V2000
   -2.4401    0.6757   -0.3540 C   0  0  0  0  0  0  0  0  0  0  0  0
   -2.4367   -0.6846    0.3559 C   0  0  0  0  0  0  0  0  0  0  0  0
   -1.2109    1.5003    0.0518 C   0  0  0  0  0  0  0  0  0  0  0  0
   -1.2066   -1.5050   -0.0550 C   0  0  0  0  0  0  0  0  0  0  0  0
    2.3607    0.7000    0.0088 C   0  0  0  0  0  0  0  0  0  0  0  0
    2.3628   -0.6947   -0.0096 C   0  0  0  0  0  0  0  0  0  0  0  0
    0.0769    0.7044    0.0103 C   0  0  0  0  0  0  0  0  0  0  0  0
    0.0789   -0.7058   -0.0130 C   0  0  0  0  0  0  0  0  0  0  0  0
    1.2240    1.4002    0.0200 N   0  0  0  0  0  0  0  0  0  0  0  0
    1.2281   -1.3983   -0.0216 N   0  0  0  0  0  0  0  0  0  0  0  0
   -3.3542    1.2343   -0.1214 H   0  0  0  0  0  0  0  0  0  0  0  0
   -2.4370    0.5165   -1.4417 H   0  0  0  0  0  0  0  0  0  0  0  0
   -3.3501   -1.2458    0.1267 H   0  0  0  0  0  0  0  0  0  0  0  0
   -2.4298   -0.5256    1.4436 H   0  0  0  0  0  0  0  0  0  0  0  0
   -1.3437    1.8786    1.0765 H   0  0  0  0  0  0  0  0  0  0  0  0
   -1.0932    2.3877   -0.5802 H   0  0  0  0  0  0  0  0  0  0  0  0
   -1.3408   -1.8799   -1.0809 H   0  0  0  0  0  0  0  0  0  0  0  0
   -1.0853   -2.3943    0.5736 H   0  0  0  0  0  0  0  0  0  0  0  0
    3.2913    1.2648    0.0141 H   0  0  0  0  0  0  0  0  0  0  0  0
    3.2950   -1.2569   -0.0141 H   0  0  0  0  0  0  0  0  0  0  0  0
  1 11  1  0  0  0  0
  1  3  1  0  0  0  0
  1  2  1  0  0  0  0
  2 14  1  0  0  0  0
  3 15  1  0  0  0  0
  4  8  1  0  0  0  0
  4  2  1  0  0  0  0
  4 18  1  0  0  0  0
  5 19  1  0  0  0  0
  5  9  1  0  0  0  0
  6  5  2  0  0  0  0
  7  9  2  0  0  0  0
  7  3  1  0  0  0  0
  8  7  1  0  0  0  0
 10  8  2  0  0  0  0
 10  6  1  0  0  0  0
 12  1  1  0  0  0  0
 13  2  1  0  0  0  0
 16  3  1  0  0  0  0
 17  4  1  0  0  0  0
 20  6  1  0  0  0  0
M  END
>  <HBA>
2

>  <HBD>
0

>  <TPSA>
25.78

>  <cid>
36822

>  <dipole>
0.94

>  <excitation_energy_1>
3.969

>  <excitation_energy_2>
4.768

>  <excitation_energy_3>
5.018

>  <excitation_energy_4>
5.519

>  <homo_energy>
-6.49

>  <homo_lumo_gap>
5.328

>  <logP>
1.355

>  <lumo_energy>
-1.162

>  <melting_point>
64.25

>  <molecular_refractivity>
39.46

>  <oscillator_strength_1>
0.0053

>  <oscillator_strength_2>
0.0001

>  <oscillator_strength_3>
0.1484

>  <oscillator_strength_4>
0.0001

>  <open_babel_can_smiles>
C1CCc2c(C1)nccn2

>  <mulliken_charges>
20
1   -0.272032
2   -0.272095
3   -0.323737
4   -0.323815
5   0.026983
6   0.026925
7   0.267788
8   0.267865
9   -0.445886
10   -0.445916
11   0.139367
12   0.140158
13   0.139357
14   0.140191
15   0.159964
16   0.163203
17   0.159887
18   0.163192
19   0.1443
20   0.144303

>  <lowdin_charges>
20
1   -0.276372
2   -0.27635
3   -0.279497
4   -0.279452
5   -0.11162
6   -0.111608
7   0.025236
8   0.025217
9   -0.130979
10   -0.13098
11   0.149262
12   0.140849
13   0.149255
14   0.140863
15   0.158052
16   0.16442
17   0.157979
18   0.164404
19   0.16067
20   0.160653

$$$$

