PCCDB-ID:  21460
public computational chemistry database (PCCDB) project, http://pccdb.org

 25 24  0  0  0  0  0  0  0  0999 V2000
    0.4240    2.3976    1.2102 C   0  0  0  0  0  0  0  0  0  0  0  0
    5.2450    1.1551    6.2498 C   0  0  0  0  0  0  0  0  0  0  0  0
    1.9468    2.3334    1.0531 C   0  0  0  0  0  0  0  0  0  0  0  0
    5.9368    1.9712    5.4476 C   0  0  0  0  0  0  0  0  0  0  0  0
    2.5154    0.9318    1.3161 C   0  0  0  0  0  0  0  0  0  0  0  0
    4.0278    0.7899    1.0621 C   0  0  0  0  0  0  0  0  0  0  0  0
    4.9484    1.6549    1.9401 C   0  0  0  0  0  0  0  0  0  0  0  0
    4.8752    1.3143    3.4232 C   0  0  0  0  0  0  0  0  0  0  0  0
    5.8397    2.1192    4.1024 O   0  0  0  0  0  0  0  0  0  0  0  0
    0.0441    3.4074    1.0184 H   0  0  0  0  0  0  0  0  0  0  0  0
    0.1173    2.1142    2.2247 H   0  0  0  0  0  0  0  0  0  0  0  0
   -0.0756    1.7147    0.5119 H   0  0  0  0  0  0  0  0  0  0  0  0
    5.4525    1.1655    7.3136 H   0  0  0  0  0  0  0  0  0  0  0  0
    4.4778    0.4749    5.8996 H   0  0  0  0  0  0  0  0  0  0  0  0
    2.4096    3.0606    1.7336 H   0  0  0  0  0  0  0  0  0  0  0  0
    2.2241    2.6492    0.0368 H   0  0  0  0  0  0  0  0  0  0  0  0
    6.7019    2.6406    5.8328 H   0  0  0  0  0  0  0  0  0  0  0  0
    1.9926    0.2130    0.6692 H   0  0  0  0  0  0  0  0  0  0  0  0
    2.2743    0.6315    2.3461 H   0  0  0  0  0  0  0  0  0  0  0  0
    4.2314    1.0329    0.0104 H   0  0  0  0  0  0  0  0  0  0  0  0
    4.3082   -0.2657    1.1873 H   0  0  0  0  0  0  0  0  0  0  0  0
    4.7201    2.7196    1.8114 H   0  0  0  0  0  0  0  0  0  0  0  0
    5.9870    1.5203    1.6136 H   0  0  0  0  0  0  0  0  0  0  0  0
    5.0991    0.2505    3.5944 H   0  0  0  0  0  0  0  0  0  0  0  0
    3.8787    1.5169    3.8396 H   0  0  0  0  0  0  0  0  0  0  0  0
  1 11  1  0  0  0  0
  2 13  1  0  0  0  0
  3  1  1  0  0  0  0
  3  5  1  0  0  0  0
  3 15  1  0  0  0  0
  4 17  1  0  0  0  0
  4  2  2  0  0  0  0
  5 19  1  0  0  0  0
  6 21  1  0  0  0  0
  6  5  1  0  0  0  0
  6  7  1  0  0  0  0
  7  8  1  0  0  0  0
  8 24  1  0  0  0  0
  8 25  1  0  0  0  0
  8  9  1  0  0  0  0
  9  4  1  0  0  0  0
 10  1  1  0  0  0  0
 12  1  1  0  0  0  0
 14  2  1  0  0  0  0
 16  3  1  0  0  0  0
 18  5  1  0  0  0  0
 20  6  1  0  0  0  0
 22  7  1  0  0  0  0
 23  7  1  0  0  0  0
M  END
>  <HBA>
1

>  <HBD>
0

>  <TPSA>
9.23

>  <cid>
21460

>  <dipole>
1.07

>  <excitation_energy_1>
5.76

>  <excitation_energy_2>
6.03

>  <excitation_energy_3>
6.101

>  <excitation_energy_4>
6.336

>  <homo_energy>
-6.046

>  <homo_lumo_gap>
7.325

>  <logP>
2.727

>  <lumo_energy>
1.279

>  <melting_point>
-57.44

>  <molecular_refractivity>
41.18

>  <oscillator_strength_1>
0.0372

>  <oscillator_strength_2>
0.004

>  <oscillator_strength_3>
0.0068

>  <oscillator_strength_4>
0.0072

>  <open_babel_can_smiles>
CCCCCCOC=C

>  <mulliken_charges>
25
1   -0.44192
2   -0.402164
3   -0.249695
4   0.15789
5   -0.25279
6   -0.26952
7   -0.277941
8   -0.029217
9   -0.452927
10   0.143437
11   0.142065
12   0.141912
13   0.139513
14   0.139463
15   0.137291
16   0.131205
17   0.139708
18   0.130811
19   0.129723
20   0.135973
21   0.1309
22   0.150381
23   0.147928
24   0.136522
25   0.141452

>  <lowdin_charges>
25
1   -0.44394
2   -0.431803
3   -0.27556
4   -0.034923
5   -0.279639
6   -0.273887
7   -0.281045
8   -0.126937
9   -0.19877
10   0.149543
11   0.145997
12   0.147643
13   0.165849
14   0.161212
15   0.142252
16   0.13856
17   0.15795
18   0.143702
19   0.135931
20   0.143847
21   0.140368
22   0.14811
23   0.151568
24   0.135599
25   0.138373

$$$$

