PCCDB-ID:  43256
public computational chemistry database (PCCDB) project, http://pccdb.org

 15 14  0  0  0  0  0  0  0  0999 V2000
    1.7023   -0.1837    0.2268 C   0  0  0  0  0  0  0  0  0  0  0  0
    1.1887    0.5968    1.4561 C   0  0  0  0  0  0  0  0  0  0  0  0
    3.8176   -1.4807    0.8244 C   0  0  0  0  0  0  0  0  0  0  0  0
    5.0162   -1.8619    0.7267 N   0  0  0  0  0  0  0  0  0  0  0  0
    3.9912    0.4151   -0.5316 N   0  0  0  0  0  0  0  0  0  0  0  0
    3.1535   -0.4057    0.1953 N   0  0  0  0  0  0  0  0  0  0  0  0
    0.4869    1.5676    1.3419 O   0  0  0  0  0  0  0  0  0  0  0  0
    1.5372    0.1063    2.6611 O   0  0  0  0  0  0  0  0  0  0  0  0
    2.9464   -2.1251    1.6570 O   0  0  0  0  0  0  0  0  0  0  0  0
    3.4420    1.3352   -1.0912 O   0  0  0  0  0  0  0  0  0  0  0  0
    1.4575    0.4064   -0.6554 H   0  0  0  0  0  0  0  0  0  0  0  0
    1.2057   -1.1563    0.1746 H   0  0  0  0  0  0  0  0  0  0  0  0
    5.5460   -1.2957    0.0656 H   0  0  0  0  0  0  0  0  0  0  0  0
    2.0318   -0.7318    2.5622 H   0  0  0  0  0  0  0  0  0  0  0  0
    3.4609   -2.8502    2.0598 H   0  0  0  0  0  0  0  0  0  0  0  0
  1  2  1  0  0  0  0
  2  8  1  0  0  0  0
  3  9  1  0  0  0  0
  4  3  2  0  0  0  0
  5  6  1  0  0  0  0
  6  1  1  0  0  0  0
  6  3  1  0  0  0  0
  7  2  2  0  0  0  0
  9 15  1  0  0  0  0
 10  5  1  0  0  0  0
 11  1  1  0  0  0  0
 12  1  1  0  0  0  0
 13  4  1  0  0  0  0
 14  8  1  0  0  0  0
M  RAD  2   5   2  10   2
M  END
>  <HBA>
7

>  <HBD>
2

>  <TPSA>
113.06

>  <cid>
43256

>  <dipole>
4.72

>  <excitation_energy_1>
3.062

>  <excitation_energy_2>
4.297

>  <excitation_energy_3>
4.984

>  <excitation_energy_4>
5.179

>  <homo_energy>
-7.426

>  <homo_lumo_gap>
4.868

>  <logP>
-0.167

>  <lumo_energy>
-2.558

>  <melting_point>
160.25

>  <molecular_refractivity>
29.24

>  <oscillator_strength_1>
0.0011

>  <oscillator_strength_2>
0.0348

>  <oscillator_strength_3>
0.048

>  <oscillator_strength_4>
0.0021

>  <open_babel_can_smiles>
[O][N]N(C(=N)O)CC(=O)O

>  <mulliken_charges>
15
1   -0.281521
2   0.601937
3   0.697265
4   -0.616812
5   0.200157
6   -0.328739
7   -0.419322
8   -0.574411
9   -0.628319
10   -0.30752
11   0.22997
12   0.211579
13   0.332482
14   0.438621
15   0.444635

>  <lowdin_charges>
15
1   -0.252511
2   0.183775
3   0.157815
4   -0.408812
5   0.085807
6   -0.055579
7   -0.220069
8   -0.353494
9   -0.372427
10   -0.179953
11   0.200631
12   0.187837
13   0.285162
14   0.357086
15   0.384733

$$$$

