PCCDB-ID:  66337
public computational chemistry database (PCCDB) project, http://pccdb.org

 28 28  0  0  0  0  0  0  0  0999 V2000
    3.6655    1.9698   -2.9942 C   0  0  0  0  0  0  0  0  0  0  0  0
   12.8785    5.7183   -2.4716 C   0  0  0  0  0  0  0  0  0  0  0  0
    4.8972    2.8796   -2.9613 C   0  0  0  0  0  0  0  0  0  0  0  0
    5.3547    3.2089   -1.5348 C   0  0  0  0  0  0  0  0  0  0  0  0
   10.4428    5.8617   -1.7725 C   0  0  0  0  0  0  0  0  0  0  0  0
   11.1938    3.8553   -2.8403 C   0  0  0  0  0  0  0  0  0  0  0  0
    9.1542    5.3305   -1.6479 C   0  0  0  0  0  0  0  0  0  0  0  0
    9.9225    3.3088   -2.7270 C   0  0  0  0  0  0  0  0  0  0  0  0
    6.5778    4.1148   -1.4718 C   0  0  0  0  0  0  0  0  0  0  0  0
   11.4845    5.1444   -2.3629 C   0  0  0  0  0  0  0  0  0  0  0  0
    8.8890    4.0444   -2.1276 C   0  0  0  0  0  0  0  0  0  0  0  0
    7.6743    3.4205   -2.0623 O   0  0  0  0  0  0  0  0  0  0  0  0
    3.3644    1.7443   -4.0234 H   0  0  0  0  0  0  0  0  0  0  0  0
    2.8095    2.4377   -2.4919 H   0  0  0  0  0  0  0  0  0  0  0  0
    3.8639    1.0163   -2.4895 H   0  0  0  0  0  0  0  0  0  0  0  0
   12.8806    6.7980   -2.2895 H   0  0  0  0  0  0  0  0  0  0  0  0
   13.3088    5.5464   -3.4654 H   0  0  0  0  0  0  0  0  0  0  0  0
   13.5621    5.2620   -1.7429 H   0  0  0  0  0  0  0  0  0  0  0  0
    4.6777    3.8162   -3.4941 H   0  0  0  0  0  0  0  0  0  0  0  0
    5.7256    2.4056   -3.5002 H   0  0  0  0  0  0  0  0  0  0  0  0
    5.5784    2.2816   -0.9906 H   0  0  0  0  0  0  0  0  0  0  0  0
    4.5416    3.7063   -0.9872 H   0  0  0  0  0  0  0  0  0  0  0  0
   10.6317    6.8648   -1.3959 H   0  0  0  0  0  0  0  0  0  0  0  0
   11.9803    3.2695   -3.3117 H   0  0  0  0  0  0  0  0  0  0  0  0
    8.3766    5.9260   -1.1833 H   0  0  0  0  0  0  0  0  0  0  0  0
    9.7014    2.3130   -3.0991 H   0  0  0  0  0  0  0  0  0  0  0  0
    6.8169    4.3702   -0.4291 H   0  0  0  0  0  0  0  0  0  0  0  0
    6.3936    5.0541   -2.0152 H   0  0  0  0  0  0  0  0  0  0  0  0
  1  3  1  0  0  0  0
  1 14  1  0  0  0  0
  1 15  1  0  0  0  0
  2 10  1  0  0  0  0
  2 16  1  0  0  0  0
  2 18  1  0  0  0  0
  3  4  1  0  0  0  0
  4  9  1  0  0  0  0
  4 21  1  0  0  0  0
  4 22  1  0  0  0  0
  5  7  1  0  0  0  0
  5 23  1  0  0  0  0
  6  8  2  0  0  0  0
  6 10  1  0  0  0  0
  7 25  1  0  0  0  0
  8 11  1  0  0  0  0
  9 27  1  0  0  0  0
 10  5  2  0  0  0  0
 11 12  1  0  0  0  0
 11  7  2  0  0  0  0
 12  9  1  0  0  0  0
 13  1  1  0  0  0  0
 17  2  1  0  0  0  0
 19  3  1  0  0  0  0
 20  3  1  0  0  0  0
 24  6  1  0  0  0  0
 26  8  1  0  0  0  0
 28  9  1  0  0  0  0
M  END
>  <HBA>
1

>  <HBD>
0

>  <TPSA>
9.23

>  <cid>
66337

>  <dipole>
1.02

>  <excitation_energy_1>
4.897

>  <excitation_energy_2>
5.313

>  <excitation_energy_3>
5.58

>  <excitation_energy_4>
5.636

>  <homo_energy>
-5.625

>  <homo_lumo_gap>
5.793

>  <logP>
3.174

>  <lumo_energy>
0.169

>  <melting_point>
11.27

>  <molecular_refractivity>
52.32

>  <oscillator_strength_1>
0.0321

>  <oscillator_strength_2>
0.0052

>  <oscillator_strength_3>
0.1487

>  <oscillator_strength_4>
0.0069

>  <open_babel_can_smiles>
CCCCOc1ccc(cc1)C

>  <mulliken_charges>
28
1   -0.442674
2   -0.529574
3   -0.248364
4   -0.270541
5   -0.194136
6   -0.182199
7   -0.192095
8   -0.174016
9   -0.033627
10   0.17827
11   0.376807
12   -0.523519
13   0.144465
14   0.139414
15   0.143651
16   0.152046
17   0.155779
18   0.160377
19   0.128471
20   0.156234
21   0.1468
22   0.132683
23   0.119712
24   0.120903
25   0.130078
26   0.132924
27   0.137231
28   0.1349

>  <lowdin_charges>
28
1   -0.443783
2   -0.44047
3   -0.275282
4   -0.282431
5   -0.158283
6   -0.158468
7   -0.215932
8   -0.180682
9   -0.125096
10   -0.019425
11   0.098918
12   -0.205279
13   0.14996
14   0.145763
15   0.147321
16   0.153425
17   0.156422
18   0.159239
19   0.13874
20   0.152484
21   0.149724
22   0.147316
23   0.152294
24   0.15565
25   0.162137
26   0.163331
27   0.137037
28   0.135372

$$$$

