PCCDB-ID:  4845
public computational chemistry database (PCCDB) project, http://pccdb.org

 37 37  0  0  1  0  0  0  0  0999 V2000
    5.3756    1.3405   -0.5833 C   0  0  0  0  0  0  0  0  0  0  0  0
    3.7760    0.1493   -2.1356 C   0  0  0  0  0  0  0  0  0  0  0  0
    6.2549   -0.2647   -2.2956 C   0  0  0  0  0  0  0  0  0  0  0  0
    5.4143   -4.4252    1.4500 C   0  0  0  0  0  0  0  0  0  0  0  0
    5.2841   -5.7625    1.0692 C   0  0  0  0  0  0  0  0  0  0  0  0
    3.9570   -1.1600    0.5973 C   0  0  0  0  0  0  0  0  0  0  0  0
    1.6279   -5.7081   -0.0234 C   0  0  0  0  0  0  0  0  0  0  0  0
    4.3156   -3.5779    1.3272 C   0  0  0  0  0  0  0  0  0  0  0  0
    2.9971   -5.2971    0.4879 C   0  0  0  0  0  0  0  0  0  0  0  0
    4.0610   -6.2119    0.5818 C   0  0  0  0  0  0  0  0  0  0  0  0
    4.3757   -2.1081    1.7438 C   0  0  1  0  0  0  0  0  0  0  0  0
    5.0900    0.0295   -1.3354 C   0  0  0  0  0  0  0  0  0  0  0  0
    5.0624   -1.0972   -0.3668 N   0  0  0  0  0  0  0  0  0  0  0  0
    3.1372   -4.0249    0.8540 N   0  0  0  0  0  0  0  0  0  0  0  0
    0.7381   -4.6197   -0.0742 O   0  0  0  0  0  0  0  0  0  0  0  0
    3.8163   -7.4960    0.1813 O   0  0  0  0  0  0  0  0  0  0  0  0
    5.6641   -1.7425    2.2004 O   0  0  0  0  0  0  0  0  0  0  0  0
    5.5158    2.1617   -1.2946 H   0  0  0  0  0  0  0  0  0  0  0  0
    6.2844    1.2463    0.0206 H   0  0  0  0  0  0  0  0  0  0  0  0
    4.5521    1.6233    0.0811 H   0  0  0  0  0  0  0  0  0  0  0  0
    3.8379    0.9597   -2.8711 H   0  0  0  0  0  0  0  0  0  0  0  0
    2.9245    0.3612   -1.4797 H   0  0  0  0  0  0  0  0  0  0  0  0
    3.5611   -0.7799   -2.6779 H   0  0  0  0  0  0  0  0  0  0  0  0
    6.3660    0.5395   -3.0305 H   0  0  0  0  0  0  0  0  0  0  0  0
    6.0840   -1.1980   -2.8479 H   0  0  0  0  0  0  0  0  0  0  0  0
    7.1949   -0.3634   -1.7423 H   0  0  0  0  0  0  0  0  0  0  0  0
    6.3432   -4.0371    1.8499 H   0  0  0  0  0  0  0  0  0  0  0  0
    6.1263   -6.4476    1.1552 H   0  0  0  0  0  0  0  0  0  0  0  0
    3.8127   -0.1641    1.0249 H   0  0  0  0  0  0  0  0  0  0  0  0
    3.0018   -1.4920    0.1689 H   0  0  0  0  0  0  0  0  0  0  0  0
    1.2330   -6.5072    0.6262 H   0  0  0  0  0  0  0  0  0  0  0  0
    1.7352   -6.1560   -1.0235 H   0  0  0  0  0  0  0  0  0  0  0  0
    3.6758   -1.9702    2.5785 H   0  0  0  0  0  0  0  0  0  0  0  0
    5.0779   -1.9703   -0.8944 H   0  0  0  0  0  0  0  0  0  0  0  0
    1.2260   -3.8749    0.3299 H   0  0  0  0  0  0  0  0  0  0  0  0
    4.6187   -8.0279    0.3019 H   0  0  0  0  0  0  0  0  0  0  0  0
    6.1013   -1.4125    1.3852 H   0  0  0  0  0  0  0  0  0  0  0  0
  1 19  1  0  0  0  0
  1 20  1  0  0  0  0
  2 22  1  0  0  0  0
  2 12  1  0  0  0  0
  3 26  1  0  0  0  0
  3 12  1  0  0  0  0
  4 27  1  0  0  0  0
  5 28  1  0  0  0  0
  5  4  2  0  0  0  0
  6 29  1  0  0  0  0
  6 11  1  0  0  0  0
  7  9  1  0  0  0  0
  7 31  1  0  0  0  0
  8  4  1  0  0  0  0
  8 11  1  0  0  0  0
  9 10  2  0  0  0  0
  9 14  1  0  0  0  0
 10  5  1  0  0  0  0
 11 17  1  0  0  0  0
 11 33  1  1  0  0  0
 12  1  1  0  0  0  0
 12 13  1  0  0  0  0
 13  6  1  0  0  0  0
 14  8  2  0  0  0  0
 15  7  1  0  0  0  0
 15 35  1  0  0  0  0
 16 36  1  0  0  0  0
 16 10  1  0  0  0  0
 18  1  1  0  0  0  0
 21  2  1  0  0  0  0
 23  2  1  0  0  0  0
 24  3  1  0  0  0  0
 25  3  1  0  0  0  0
 30  6  1  0  0  0  0
 32  7  1  0  0  0  0
 34 13  1  0  0  0  0
 37 17  1  0  0  0  0
M  END
>  <HBA>
5

>  <HBD>
4

>  <TPSA>
85.61

>  <cid>
4845

>  <dipole>
3.89

>  <excitation_energy_1>
4.736

>  <excitation_energy_2>
4.835

>  <excitation_energy_3>
5.21

>  <excitation_energy_4>
5.21

>  <homo_energy>
-6.191

>  <homo_lumo_gap>
5.44

>  <logP>
1.092

>  <lumo_energy>
-0.751

>  <melting_point>
140.59

>  <molecular_refractivity>
65.39

>  <oscillator_strength_1>
0.0632

>  <oscillator_strength_2>
0.0695

>  <oscillator_strength_3>
0.0001

>  <oscillator_strength_4>
0.0026

>  <open_babel_can_smiles>
OCc1nc(ccc1O)[C@H](CNC(C)(C)C)O

>  <mulliken_charges>
37
1   -0.441422
2   -0.446048
3   -0.451041
4   -0.188407
5   -0.153051
6   -0.159003
7   -0.036153
8   0.262288
9   0.237644
10   0.311309
11   0.094306
12   0.215242
13   -0.602036
14   -0.588963
15   -0.642632
16   -0.642145
17   -0.646487
18   0.143147
19   0.151704
20   0.146306
21   0.143114
22   0.149338
23   0.139957
24   0.146492
25   0.135897
26   0.152194
27   0.159162
28   0.132636
29   0.154286
30   0.15239
31   0.147094
32   0.148604
33   0.151217
34   0.30265
35   0.406692
36   0.412434
37   0.401285

>  <lowdin_charges>
37
1   -0.448265
2   -0.457467
3   -0.445512
4   -0.171899
5   -0.183414
6   -0.223004
7   -0.132392
8   0.013765
9   0.012337
10   0.077767
11   -0.011406
12   0.071246
13   -0.361489
14   -0.168306
15   -0.476228
16   -0.374732
17   -0.467775
18   0.153111
19   0.154899
20   0.150824
21   0.152661
22   0.152931
23   0.148789
24   0.153892
25   0.145592
26   0.154401
27   0.178143
28   0.160264
29   0.151893
30   0.142893
31   0.146825
32   0.14762
33   0.155528
34   0.256609
35   0.341434
36   0.362278
37   0.336187

$$$$

