PCCDB-ID:  56941
public computational chemistry database (PCCDB) project, http://pccdb.org

 33 33  0  0  1  0  0  0  0  0999 V2000
    6.0234   -2.3767   -1.6728 C   0  0  0  0  0  0  0  0  0  0  0  0
    9.1178    1.7845   -3.9192 C   0  0  0  0  0  0  0  0  0  0  0  0
    6.2776    4.4764   -4.2426 C   0  0  0  0  0  0  0  0  0  0  0  0
    5.1430   -1.1289   -1.7738 C   0  0  0  0  0  0  0  0  0  0  0  0
    8.6437    3.8534   -6.5656 C   0  0  0  0  0  0  0  0  0  0  0  0
    7.3070    3.2153   -6.9411 C   0  0  0  0  0  0  0  0  0  0  0  0
    5.6389    0.0621   -0.9416 C   0  0  0  0  0  0  0  0  0  0  0  0
    6.7503    1.6640   -2.9808 C   0  0  0  0  0  0  0  0  0  0  0  0
    7.8740    2.5813   -3.4999 C   0  0  2  0  0  0  0  0  0  0  0  0
    7.3588    3.4754   -4.6590 C   0  0  0  0  0  0  0  0  0  0  0  0
    8.4476    4.2401   -5.2078 O   0  0  0  0  0  0  0  0  0  0  0  0
    6.8926    2.6301   -5.7120 O   0  0  0  0  0  0  0  0  0  0  0  0
    7.2559    0.7830   -1.4416 S   0  0  0  0  0  0  0  0  0  0  0  0
    5.6207   -3.1909   -2.2857 H   0  0  0  0  0  0  0  0  0  0  0  0
    6.0808   -2.7350   -0.6373 H   0  0  0  0  0  0  0  0  0  0  0  0
    7.0434   -2.1675   -2.0108 H   0  0  0  0  0  0  0  0  0  0  0  0
    9.5066    1.2006   -3.0799 H   0  0  0  0  0  0  0  0  0  0  0  0
    9.9072    2.4592   -4.2600 H   0  0  0  0  0  0  0  0  0  0  0  0
    8.8769    1.0872   -4.7293 H   0  0  0  0  0  0  0  0  0  0  0  0
    6.6601    5.1456   -3.4655 H   0  0  0  0  0  0  0  0  0  0  0  0
    5.3837    3.9715   -3.8675 H   0  0  0  0  0  0  0  0  0  0  0  0
    5.9925    5.0857   -5.1054 H   0  0  0  0  0  0  0  0  0  0  0  0
    4.1258   -1.3688   -1.4309 H   0  0  0  0  0  0  0  0  0  0  0  0
    5.0442   -0.8259   -2.8242 H   0  0  0  0  0  0  0  0  0  0  0  0
    8.8873    4.7436   -7.1541 H   0  0  0  0  0  0  0  0  0  0  0  0
    9.4686    3.1318   -6.6481 H   0  0  0  0  0  0  0  0  0  0  0  0
    7.3833    2.4224   -7.6897 H   0  0  0  0  0  0  0  0  0  0  0  0
    6.5831    3.9680   -7.2873 H   0  0  0  0  0  0  0  0  0  0  0  0
    5.7846   -0.2413    0.1019 H   0  0  0  0  0  0  0  0  0  0  0  0
    4.8944    0.8673   -0.9408 H   0  0  0  0  0  0  0  0  0  0  0  0
    6.4834    0.9385   -3.7555 H   0  0  0  0  0  0  0  0  0  0  0  0
    5.8560    2.2447   -2.7353 H   0  0  0  0  0  0  0  0  0  0  0  0
    8.1578    3.2691   -2.6919 H   0  0  0  0  0  0  0  0  0  0  0  0
  1 15  1  0  0  0  0
  2  9  1  0  0  0  0
  2 17  1  0  0  0  0
  3 21  1  0  0  0  0
  3 20  1  0  0  0  0
  4  1  1  0  0  0  0
  4 23  1  0  0  0  0
  4  7  1  0  0  0  0
  5 11  1  0  0  0  0
  6  5  1  0  0  0  0
  6 12  1  0  0  0  0
  7 30  1  0  0  0  0
  7 29  1  0  0  0  0
  8 32  1  0  0  0  0
  8 13  1  0  0  0  0
  9  8  1  0  0  0  0
  9 33  1  1  0  0  0
 10  3  1  0  0  0  0
 10  9  1  0  0  0  0
 11 10  1  0  0  0  0
 12 10  1  0  0  0  0
 13  7  1  0  0  0  0
 14  1  1  0  0  0  0
 16  1  1  0  0  0  0
 18  2  1  0  0  0  0
 19  2  1  0  0  0  0
 22  3  1  0  0  0  0
 24  4  1  0  0  0  0
 25  5  1  0  0  0  0
 26  5  1  0  0  0  0
 27  6  1  0  0  0  0
 28  6  1  0  0  0  0
 31  8  1  0  0  0  0
M  END
>  <HBA>
3

>  <HBD>
0

>  <TPSA>
43.76

>  <cid>
56941

>  <dipole>
2.46

>  <excitation_energy_1>
5.247

>  <excitation_energy_2>
5.252

>  <excitation_energy_3>
5.678

>  <excitation_energy_4>
5.761

>  <homo_energy>
-5.75

>  <homo_lumo_gap>
7.01

>  <logP>
2.529

>  <lumo_energy>
1.26

>  <melting_point>
-4.55

>  <molecular_refractivity>
57.87

>  <oscillator_strength_1>
0.0114

>  <oscillator_strength_2>
0.006

>  <oscillator_strength_3>
0.0113

>  <oscillator_strength_4>
0.009

>  <open_babel_can_smiles>
CCCSC[C@H](C1(C)OCCO1)C

>  <mulliken_charges>
33
1   -0.4428
2   -0.472324
3   -0.455615
4   -0.247239
5   -0.037688
6   -0.056591
7   -0.414931
8   -0.41881
9   -0.10356
10   0.540378
11   -0.521062
12   -0.508837
13   0.075647
14   0.141338
15   0.138709
16   0.170409
17   0.167741
18   0.159611
19   0.14816
20   0.157013
21   0.150777
22   0.14812
23   0.136418
24   0.14394
25   0.147592
26   0.139811
27   0.154858
28   0.137958
29   0.168735
30   0.161626
31   0.184318
32   0.160072
33   0.146226

>  <lowdin_charges>
33
1   -0.446871
2   -0.453543
3   -0.460607
4   -0.274997
5   -0.143555
6   -0.145627
7   -0.3747
8   -0.375218
9   -0.137101
10   0.217297
11   -0.273485
12   -0.265978
13   0.073063
14   0.150568
15   0.1445
16   0.159626
17   0.163632
18   0.158764
19   0.151275
20   0.162545
21   0.15604
22   0.157816
23   0.143571
24   0.143231
25   0.151439
26   0.137698
27   0.15698
28   0.136057
29   0.163231
30   0.154573
31   0.161778
32   0.153304
33   0.154694

$$$$

