PCCDB-ID:  61880
public computational chemistry database (PCCDB) project, http://pccdb.org

 24 23  0  0  0  0  0  0  0  0999 V2000
    0.9092    1.3834    1.2714 C   0  0  0  0  0  0  0  0  0  0  0  0
    5.5690   -5.8685    1.7155 C   0  0  0  0  0  0  0  0  0  0  0  0
    2.3637    0.9510    1.0588 C   0  0  0  0  0  0  0  0  0  0  0  0
    4.1570   -5.5903    1.2243 C   0  0  0  0  0  0  0  0  0  0  0  0
    2.4926   -0.5274    0.6673 C   0  0  0  0  0  0  0  0  0  0  0  0
    3.9439   -0.9393    0.4493 C   0  0  0  0  0  0  0  0  0  0  0  0
    4.0457   -3.2468    0.9476 C   0  0  0  0  0  0  0  0  0  0  0  0
    3.9881   -3.0514    2.1444 O   0  0  0  0  0  0  0  0  0  0  0  0
    4.1199   -4.4425    0.3435 O   0  0  0  0  0  0  0  0  0  0  0  0
    4.0476   -2.3073   -0.0097 O   0  0  0  0  0  0  0  0  0  0  0  0
    0.8461    2.4393    1.5571 H   0  0  0  0  0  0  0  0  0  0  0  0
    0.4336    0.7932    2.0638 H   0  0  0  0  0  0  0  0  0  0  0  0
    0.3188    1.2481    0.3571 H   0  0  0  0  0  0  0  0  0  0  0  0
    5.5800   -6.7859    2.3153 H   0  0  0  0  0  0  0  0  0  0  0  0
    5.9268   -5.0456    2.3407 H   0  0  0  0  0  0  0  0  0  0  0  0
    6.2546   -5.9998    0.8721 H   0  0  0  0  0  0  0  0  0  0  0  0
    2.9382    1.1367    1.9769 H   0  0  0  0  0  0  0  0  0  0  0  0
    2.8207    1.5778    0.2797 H   0  0  0  0  0  0  0  0  0  0  0  0
    3.4718   -5.4187    2.0581 H   0  0  0  0  0  0  0  0  0  0  0  0
    3.7785   -6.4085    0.6068 H   0  0  0  0  0  0  0  0  0  0  0  0
    1.9263   -0.7229   -0.2530 H   0  0  0  0  0  0  0  0  0  0  0  0
    2.0625   -1.1590    1.4541 H   0  0  0  0  0  0  0  0  0  0  0  0
    4.5295   -0.8259    1.3657 H   0  0  0  0  0  0  0  0  0  0  0  0
    4.4070   -0.3543   -0.3501 H   0  0  0  0  0  0  0  0  0  0  0  0
  1 11  1  0  0  0  0
  1 12  1  0  0  0  0
  2 14  1  0  0  0  0
  2 15  1  0  0  0  0
  3  1  1  0  0  0  0
  3 17  1  0  0  0  0
  4  2  1  0  0  0  0
  4 19  1  0  0  0  0
  5  3  1  0  0  0  0
  5 22  1  0  0  0  0
  6  5  1  0  0  0  0
  6 23  1  0  0  0  0
  7  8  2  0  0  0  0
  9  7  1  0  0  0  0
  9  4  1  0  0  0  0
 10  6  1  0  0  0  0
 10  7  1  0  0  0  0
 13  1  1  0  0  0  0
 16  2  1  0  0  0  0
 18  3  1  0  0  0  0
 20  4  1  0  0  0  0
 21  5  1  0  0  0  0
 24  6  1  0  0  0  0
M  END
>  <HBA>
3

>  <HBD>
0

>  <TPSA>
35.53

>  <cid>
61880

>  <dipole>
0.2

>  <excitation_energy_1>
6.931

>  <excitation_energy_2>
7.512

>  <excitation_energy_3>
7.768

>  <excitation_energy_4>
7.851

>  <homo_energy>
-7.636

>  <homo_lumo_gap>
8.893

>  <logP>
1.96

>  <lumo_energy>
1.257

>  <melting_point>
-13.4

>  <molecular_refractivity>
38.52

>  <oscillator_strength_1>
0.0003

>  <oscillator_strength_2>
0.0098

>  <oscillator_strength_3>
0.0046

>  <oscillator_strength_4>
0.1122

>  <open_babel_can_smiles>
CCCCOC(=O)OCC

>  <mulliken_charges>
24
1   -0.441052
2   -0.462829
3   -0.259362
4   -0.043126
5   -0.273356
6   -0.04436
7   0.796191
8   -0.501348
9   -0.456186
10   -0.461202
11   0.145067
12   0.147488
13   0.144533
14   0.150066
15   0.176483
16   0.160232
17   0.140248
18   0.13297
19   0.170365
20   0.156048
21   0.144516
22   0.159287
23   0.167191
24   0.152136

>  <lowdin_charges>
24
1   -0.44235
2   -0.457497
3   -0.273041
4   -0.124814
5   -0.289655
6   -0.127412
7   0.227232
8   -0.300973
9   -0.180174
10   -0.17776
11   0.149859
12   0.150664
13   0.148285
14   0.159128
15   0.166516
16   0.158226
17   0.143651
18   0.14099
19   0.159012
20   0.155161
21   0.147691
22   0.156319
23   0.1572
24   0.153743

$$$$

