PCCDB-ID:  189
public computational chemistry database (PCCDB) project, http://pccdb.org

 19 18  0  0  1  0  0  0  0  0999 V2000
    2.5940   -4.3962   -3.0518 C   0  0  0  0  0  0  0  0  0  0  0  0
    5.3420   -2.6293   -1.2987 C   0  0  0  0  0  0  0  0  0  0  0  0
    3.8436   -3.5736   -2.8781 C   0  0  0  0  0  0  0  0  0  0  0  0
    6.6870   -3.2946   -1.6935 C   0  0  1  0  0  0  0  0  0  0  0  0
    7.5460   -2.3099   -2.5256 C   0  0  0  0  0  0  0  0  0  0  0  0
    7.3739   -3.7977   -0.5098 N   0  0  0  0  0  0  0  0  0  0  0  0
    4.4658   -3.0638   -3.7986 O   0  0  0  0  0  0  0  0  0  0  0  0
    8.6307   -1.9269   -2.1517 O   0  0  0  0  0  0  0  0  0  0  0  0
    7.0085   -1.9005   -3.6853 O   0  0  0  0  0  0  0  0  0  0  0  0
    4.1924   -3.4622   -1.5893 O   0  0  0  0  0  0  0  0  0  0  0  0
    2.7170   -5.3717   -2.5711 H   0  0  0  0  0  0  0  0  0  0  0  0
    2.3841   -4.5228   -4.1140 H   0  0  0  0  0  0  0  0  0  0  0  0
    1.7512   -3.8961   -2.5632 H   0  0  0  0  0  0  0  0  0  0  0  0
    5.1921   -1.6621   -1.7860 H   0  0  0  0  0  0  0  0  0  0  0  0
    5.3132   -2.5063   -0.2165 H   0  0  0  0  0  0  0  0  0  0  0  0
    6.4548   -4.1476   -2.3408 H   0  0  0  0  0  0  0  0  0  0  0  0
    7.9221   -3.0279   -0.1215 H   0  0  0  0  0  0  0  0  0  0  0  0
    8.0753   -4.4772   -0.8013 H   0  0  0  0  0  0  0  0  0  0  0  0
    6.1134   -2.2952   -3.8121 H   0  0  0  0  0  0  0  0  0  0  0  0
  1  3  1  0  0  0  0
  1 11  1  0  0  0  0
  1 13  1  0  0  0  0
  2 15  1  0  0  0  0
  3 10  1  0  0  0  0
  4 16  1  6  0  0  0
  4  2  1  0  0  0  0
  4  6  1  0  0  0  0
  5  8  2  0  0  0  0
  5  4  1  0  0  0  0
  6 17  1  0  0  0  0
  7  3  2  0  0  0  0
  9  5  1  0  0  0  0
 10  2  1  0  0  0  0
 12  1  1  0  0  0  0
 14  2  1  0  0  0  0
 18  6  1  0  0  0  0
 19  9  1  0  0  0  0
M  END
>  <HBA>
5

>  <HBD>
2

>  <TPSA>
89.62

>  <cid>
189

>  <dipole>
4.77

>  <excitation_energy_1>
5.561

>  <excitation_energy_2>
5.646

>  <excitation_energy_3>
5.927

>  <excitation_energy_4>
6.002

>  <homo_energy>
-6.863

>  <homo_lumo_gap>
6.286

>  <logP>
-0.338

>  <lumo_energy>
-0.577

>  <melting_point>
117.95

>  <molecular_refractivity>
31.91

>  <oscillator_strength_1>
0.0075

>  <oscillator_strength_2>
0.0014

>  <oscillator_strength_3>
0.0009

>  <oscillator_strength_4>
0.0044

>  <open_babel_can_smiles>
CC(=O)OC[C@@H](C(=O)O)N

>  <mulliken_charges>
19
1   -0.52693
2   -0.063553
3   0.621238
4   -0.119522
5   0.557951
6   -0.700671
7   -0.497953
8   -0.453527
9   -0.591609
10   -0.430499
11   0.193968
12   0.192512
13   0.194603
14   0.175385
15   0.190505
16   0.176853
17   0.315944
18   0.310714
19   0.454589

>  <lowdin_charges>
19
1   -0.460649
2   -0.133274
3   0.217905
4   -0.126555
5   0.165204
6   -0.535731
7   -0.285917
8   -0.255397
9   -0.357164
10   -0.170769
11   0.184801
12   0.180093
13   0.186702
14   0.156995
15   0.174806
16   0.167986
17   0.266189
18   0.265769
19   0.359006

$$$$

