PCCDB-ID:  11546
public computational chemistry database (PCCDB) project, http://pccdb.org

 22 21  0  0  0  0  0  0  0  0999 V2000
    1.8168   -0.8336   -0.1079 C   0  0  0  0  0  0  0  0  0  0  0  0
    0.9229    3.6422    0.0117 C   0  0  0  0  0  0  0  0  0  0  0  0
    0.8388    2.8463    2.4080 C   0  0  0  0  0  0  0  0  0  0  0  0
    2.9509    3.8327    1.4776 C   0  0  0  0  0  0  0  0  0  0  0  0
    2.2329    1.5775    0.7034 C   0  0  0  0  0  0  0  0  0  0  0  0
    1.2199    0.5036    0.3120 C   0  0  0  0  0  0  0  0  0  0  0  0
    1.7178    2.9673    1.1472 C   0  0  0  0  0  0  0  0  0  0  0  0
    0.0137    0.6695    0.3249 O   0  0  0  0  0  0  0  0  0  0  0  0
    2.4936   -0.7055   -0.9618 H   0  0  0  0  0  0  0  0  0  0  0  0
    1.0153   -1.5243   -0.3773 H   0  0  0  0  0  0  0  0  0  0  0  0
    2.4115   -1.2634    0.7079 H   0  0  0  0  0  0  0  0  0  0  0  0
    0.6154    4.6520    0.3100 H   0  0  0  0  0  0  0  0  0  0  0  0
    0.0260    3.0704   -0.2377 H   0  0  0  0  0  0  0  0  0  0  0  0
    1.5349    3.7384   -0.8948 H   0  0  0  0  0  0  0  0  0  0  0  0
    0.5195    3.8396    2.7467 H   0  0  0  0  0  0  0  0  0  0  0  0
    1.3943    2.3796    3.2322 H   0  0  0  0  0  0  0  0  0  0  0  0
   -0.0535    2.2477    2.2112 H   0  0  0  0  0  0  0  0  0  0  0  0
    2.6436    4.8338    1.8032 H   0  0  0  0  0  0  0  0  0  0  0  0
    3.6030    3.9519    0.6030 H   0  0  0  0  0  0  0  0  0  0  0  0
    3.5482    3.3885    2.2839 H   0  0  0  0  0  0  0  0  0  0  0  0
    2.9162    1.6945   -0.1528 H   0  0  0  0  0  0  0  0  0  0  0  0
    2.8601    1.1453    1.4993 H   0  0  0  0  0  0  0  0  0  0  0  0
  1  6  1  0  0  0  0
  1 11  1  0  0  0  0
  2 12  1  0  0  0  0
  2  7  1  0  0  0  0
  3 15  1  0  0  0  0
  3 16  1  0  0  0  0
  4 18  1  0  0  0  0
  4 20  1  0  0  0  0
  5  7  1  0  0  0  0
  5 22  1  0  0  0  0
  6  8  2  0  0  0  0
  6  5  1  0  0  0  0
  7  4  1  0  0  0  0
  7  3  1  0  0  0  0
  9  1  1  0  0  0  0
 10  1  1  0  0  0  0
 13  2  1  0  0  0  0
 14  2  1  0  0  0  0
 17  3  1  0  0  0  0
 19  4  1  0  0  0  0
 21  5  1  0  0  0  0
M  END
>  <HBA>
1

>  <HBD>
0

>  <TPSA>
17.07

>  <cid>
11546

>  <dipole>
2.51

>  <excitation_energy_1>
4.335

>  <excitation_energy_2>
5.985

>  <excitation_energy_3>
6.708

>  <excitation_energy_4>
6.922

>  <homo_energy>
-6.574

>  <homo_lumo_gap>
6.212

>  <logP>
2.012

>  <lumo_energy>
-0.362

>  <melting_point>
12.85

>  <molecular_refractivity>
35.7

>  <oscillator_strength_1>
0.0001

>  <oscillator_strength_2>
0.0314

>  <oscillator_strength_3>
0.0043

>  <oscillator_strength_4>
0.0002

>  <open_babel_can_smiles>
CC(=O)CC(C)(C)C

>  <mulliken_charges>
22
1   -0.52814
2   -0.453906
3   -0.454283
4   -0.441412
5   -0.355867
6   0.45623
7   0.110928
8   -0.437058
9   0.167047
10   0.179476
11   0.167664
12   0.135235
13   0.175094
14   0.12693
15   0.135342
16   0.126979
17   0.175213
18   0.142383
19   0.134579
20   0.134539
21   0.151546
22   0.151481

>  <lowdin_charges>
22
1   -0.477229
2   -0.448599
3   -0.449788
4   -0.442647
5   -0.311683
6   0.168148
7   0.021384
8   -0.236328
9   0.168914
10   0.173394
11   0.169847
12   0.145745
13   0.164613
14   0.141394
15   0.146176
16   0.142151
17   0.164598
18   0.148773
19   0.144757
20   0.145274
21   0.160197
22   0.160909

$$$$

