PCCDB-ID:  32983
public computational chemistry database (PCCDB) project, http://pccdb.org

 29 29  0  0  0  0  0  0  0  0999 V2000
    2.5619   -1.7790   -1.7983 C   0  0  0  0  0  0  0  0  0  0  0  0
    8.6011    1.9402    2.3092 C   0  0  0  0  0  0  0  0  0  0  0  0
    9.1855    3.7086    0.8018 C   0  0  0  0  0  0  0  0  0  0  0  0
    6.9217    0.7848   -0.0024 C   0  0  0  0  0  0  0  0  0  0  0  0
    5.5859    1.5516    0.0710 C   0  0  0  0  0  0  0  0  0  0  0  0
    2.5536   -0.5689    0.5292 C   0  0  0  0  0  0  0  0  0  0  0  0
    3.4415    0.4165    1.0778 C   0  0  0  0  0  0  0  0  0  0  0  0
    8.1401    1.7135   -0.0660 C   0  0  0  0  0  0  0  0  0  0  0  0
    3.0165   -0.8603   -0.7185 C   0  0  0  0  0  0  0  0  0  0  0  0
    4.3882    0.6657    0.1291 C   0  0  0  0  0  0  0  0  0  0  0  0
    8.2475    2.6276    1.0737 N   0  0  0  0  0  0  0  0  0  0  0  0
    4.1386   -0.1135   -0.9762 O   0  0  0  0  0  0  0  0  0  0  0  0
    1.6604   -2.3095   -1.4788 H   0  0  0  0  0  0  0  0  0  0  0  0
    3.3276   -2.5257   -2.0450 H   0  0  0  0  0  0  0  0  0  0  0  0
    2.3284   -1.2342   -2.7219 H   0  0  0  0  0  0  0  0  0  0  0  0
    8.6314    2.6622    3.1324 H   0  0  0  0  0  0  0  0  0  0  0  0
    9.5883    1.4380    2.2575 H   0  0  0  0  0  0  0  0  0  0  0  0
    7.8500    1.1848    2.5573 H   0  0  0  0  0  0  0  0  0  0  0  0
    9.1967    4.4061    1.6466 H   0  0  0  0  0  0  0  0  0  0  0  0
    8.8699    4.2608   -0.0902 H   0  0  0  0  0  0  0  0  0  0  0  0
   10.2242    3.3577    0.6372 H   0  0  0  0  0  0  0  0  0  0  0  0
    6.9290    0.1512   -0.8978 H   0  0  0  0  0  0  0  0  0  0  0  0
    6.9960    0.1004    0.8516 H   0  0  0  0  0  0  0  0  0  0  0  0
    5.5131    2.2166   -0.8024 H   0  0  0  0  0  0  0  0  0  0  0  0
    5.5864    2.1996    0.9527 H   0  0  0  0  0  0  0  0  0  0  0  0
    1.6810   -1.0001    1.0012 H   0  0  0  0  0  0  0  0  0  0  0  0
    3.3792    0.8835    2.0515 H   0  0  0  0  0  0  0  0  0  0  0  0
    8.0584    2.3307   -0.9702 H   0  0  0  0  0  0  0  0  0  0  0  0
    9.0602    1.1044   -0.1838 H   0  0  0  0  0  0  0  0  0  0  0  0
  1 13  1  0  0  0  0
  1  9  1  0  0  0  0
  2 18  1  0  0  0  0
  2 16  1  0  0  0  0
  3 11  1  0  0  0  0
  3 19  1  0  0  0  0
  4  5  1  0  0  0  0
  4 23  1  0  0  0  0
  5 10  1  0  0  0  0
  5 25  1  0  0  0  0
  6 26  1  0  0  0  0
  6  7  1  0  0  0  0
  7 27  1  0  0  0  0
  8  4  1  0  0  0  0
  8 11  1  0  0  0  0
  9  6  2  0  0  0  0
 10  7  2  0  0  0  0
 11  2  1  0  0  0  0
 12  9  1  0  0  0  0
 12 10  1  0  0  0  0
 14  1  1  0  0  0  0
 15  1  1  0  0  0  0
 17  2  1  0  0  0  0
 20  3  1  0  0  0  0
 21  3  1  0  0  0  0
 22  4  1  0  0  0  0
 24  5  1  0  0  0  0
 28  8  1  0  0  0  0
 29  8  1  0  0  0  0
M  END
>  <HBA>
2

>  <HBD>
0

>  <TPSA>
16.38

>  <cid>
32983

>  <dipole>
0.62

>  <excitation_energy_1>
5.094

>  <excitation_energy_2>
5.284

>  <excitation_energy_3>
5.423

>  <excitation_energy_4>
5.535

>  <homo_energy>
-5.415

>  <homo_lumo_gap>
6.174

>  <logP>
2.082

>  <lumo_energy>
0.759

>  <melting_point>
11.2

>  <molecular_refractivity>
50.76

>  <oscillator_strength_1>
0.0045

>  <oscillator_strength_2>
0.0192

>  <oscillator_strength_3>
0.024

>  <oscillator_strength_4>
0.0014

>  <open_babel_can_smiles>
CN(CCCc1ccc(o1)C)C

>  <mulliken_charges>
29
1   -0.529696
2   -0.301644
3   -0.292592
4   -0.274685
5   -0.341252
6   -0.215627
7   -0.21947
8   -0.117401
9   0.353157
10   0.35296
11   -0.363883
12   -0.47963
13   0.16281
14   0.16599
15   0.166871
16   0.148005
17   0.116797
18   0.154142
19   0.146867
20   0.148563
21   0.116424
22   0.147973
23   0.141165
24   0.145812
25   0.168005
26   0.127756
27   0.128978
28   0.133356
29   0.110248

>  <lowdin_charges>
29
1   -0.442223
2   -0.360042
3   -0.354739
4   -0.281646
5   -0.27639
6   -0.224895
7   -0.223948
8   -0.201699
9   0.065052
10   0.065357
11   -0.18481
12   -0.120275
13   0.166934
14   0.164097
15   0.164065
16   0.150746
17   0.119444
18   0.152208
19   0.149363
20   0.149708
21   0.118322
22   0.15267
23   0.144786
24   0.153496
25   0.166505
26   0.163287
27   0.162887
28   0.142964
29   0.118775

$$$$

