PCCDB-ID:  39524
public computational chemistry database (PCCDB) project, http://pccdb.org

 35 36  0  0  1  0  0  0  0  0999 V2000
    2.6781   -0.1060    4.3493 C   0  0  0  0  0  0  0  0  0  0  0  0
    1.7423    1.8421    3.0589 C   0  0  0  0  0  0  0  0  0  0  0  0
    3.9635    0.8789    2.4198 C   0  0  0  0  0  0  0  0  0  0  0  0
    1.6985   -5.3387    1.1755 C   0  0  0  0  0  0  0  0  0  0  0  0
    1.9236   -2.9208    1.6202 C   0  0  0  0  0  0  0  0  0  0  0  0
    2.1925   -6.6301    0.9260 C   0  0  0  0  0  0  0  0  0  0  0  0
    2.5381   -1.7308    1.7133 C   0  0  0  0  0  0  0  0  0  0  0  0
    3.9457   -4.4174    1.3321 C   0  0  0  0  0  0  0  0  0  0  0  0
    5.6768   -7.5093    0.7330 C   0  0  0  0  0  0  0  0  0  0  0  0
    2.5393   -4.2316    1.3747 C   0  0  0  0  0  0  0  0  0  0  0  0
    3.5640   -6.7731    0.8853 C   0  0  0  0  0  0  0  0  0  0  0  0
    4.4153   -5.6866    1.0860 C   0  0  0  0  0  0  0  0  0  0  0  0
    1.8189   -0.4232    1.9627 C   0  0  2  0  0  0  0  0  0  0  0  0
    2.5583    0.5391    2.9555 C   0  0  0  0  0  0  0  0  0  0  0  0
    0.4604   -0.6336    2.3470 O   0  0  0  0  0  0  0  0  0  0  0  0
    4.3026   -7.9103    0.6698 O   0  0  0  0  0  0  0  0  0  0  0  0
    5.7230   -6.1043    1.0041 O   0  0  0  0  0  0  0  0  0  0  0  0
    3.2014    0.5654    5.0401 H   0  0  0  0  0  0  0  0  0  0  0  0
    3.2331   -1.0507    4.3129 H   0  0  0  0  0  0  0  0  0  0  0  0
    1.6915   -0.3079    4.7850 H   0  0  0  0  0  0  0  0  0  0  0  0
    2.2107    2.5339    3.7691 H   0  0  0  0  0  0  0  0  0  0  0  0
    0.7203    1.6404    3.3903 H   0  0  0  0  0  0  0  0  0  0  0  0
    1.6843    2.3484    2.0871 H   0  0  0  0  0  0  0  0  0  0  0  0
    4.4155    1.6729    3.0258 H   0  0  0  0  0  0  0  0  0  0  0  0
    3.9196    1.2394    1.3840 H   0  0  0  0  0  0  0  0  0  0  0  0
    4.6449    0.0218    2.4510 H   0  0  0  0  0  0  0  0  0  0  0  0
    0.6229   -5.1891    1.2097 H   0  0  0  0  0  0  0  0  0  0  0  0
    0.8386   -2.9359    1.7113 H   0  0  0  0  0  0  0  0  0  0  0  0
    1.5300   -7.4751    0.7735 H   0  0  0  0  0  0  0  0  0  0  0  0
    3.6146   -1.6622    1.5764 H   0  0  0  0  0  0  0  0  0  0  0  0
    4.6360   -3.5977    1.4954 H   0  0  0  0  0  0  0  0  0  0  0  0
    6.1604   -7.7124   -0.2303 H   0  0  0  0  0  0  0  0  0  0  0  0
    6.1783   -8.0546    1.5415 H   0  0  0  0  0  0  0  0  0  0  0  0
    1.7422    0.1189    1.0079 H   0  0  0  0  0  0  0  0  0  0  0  0
    0.4746   -1.2177    3.1229 H   0  0  0  0  0  0  0  0  0  0  0  0
  1 20  1  0  0  0  0
  1 18  1  0  0  0  0
  2 22  1  0  0  0  0
  2 21  1  0  0  0  0
  3 26  1  0  0  0  0
  3 14  1  0  0  0  0
  3 24  1  0  0  0  0
  4 27  1  0  0  0  0
  4 10  2  0  0  0  0
  5 28  1  0  0  0  0
  5  7  2  0  0  0  0
  6  4  1  0  0  0  0
  7 13  1  0  0  0  0
  8 10  1  0  0  0  0
  8 31  1  0  0  0  0
  9 17  1  0  0  0  0
  9 33  1  0  0  0  0
 10  5  1  0  0  0  0
 11  6  2  0  0  0  0
 11 12  1  0  0  0  0
 12  8  2  0  0  0  0
 13 34  1  6  0  0  0
 13 15  1  0  0  0  0
 13 14  1  0  0  0  0
 14  2  1  0  0  0  0
 14  1  1  0  0  0  0
 15 35  1  0  0  0  0
 16  9  1  0  0  0  0
 16 11  1  0  0  0  0
 17 12  1  0  0  0  0
 19  1  1  0  0  0  0
 23  2  1  0  0  0  0
 25  3  1  0  0  0  0
 29  6  1  0  0  0  0
 30  7  1  0  0  0  0
 32  9  1  0  0  0  0
M  END
>  <HBA>
3

>  <HBD>
1

>  <TPSA>
38.69

>  <cid>
39524

>  <dipole>
1.94

>  <excitation_energy_1>
4.167

>  <excitation_energy_2>
4.734

>  <excitation_energy_3>
5.015

>  <excitation_energy_4>
5.181

>  <homo_energy>
-5.369

>  <homo_lumo_gap>
4.645

>  <logP>
2.836

>  <lumo_energy>
-0.724

>  <melting_point>
96.28

>  <molecular_refractivity>
67.53

>  <oscillator_strength_1>
0.3528

>  <oscillator_strength_2>
0.2092

>  <oscillator_strength_3>
0.0093

>  <oscillator_strength_4>
0.0566

>  <open_babel_can_smiles>
O[C@@H](C(C)(C)C)/C=C/c1ccc2c(c1)OCO2

>  <mulliken_charges>
35
1   -0.462639
2   -0.44296
3   -0.457376
4   -0.218155
5   -0.194993
6   -0.182596
7   -0.163053
8   -0.244682
9   0.194833
10   0.173811
11   0.333715
12   0.337659
13   0.115961
14   0.081361
15   -0.626132
16   -0.530969
17   -0.534643
18   0.145366
19   0.147686
20   0.132829
21   0.133661
22   0.159795
23   0.135426
24   0.14478
25   0.141925
26   0.142652
27   0.132406
28   0.132563
29   0.145658
30   0.130843
31   0.140732
32   0.160522
33   0.160579
34   0.145441
35   0.387993

>  <lowdin_charges>
35
1   -0.450779
2   -0.444131
3   -0.446301
4   -0.164516
5   -0.165678
6   -0.184053
7   -0.188837
8   -0.187953
9   0.019787
10   -0.005709
11   0.071273
12   0.074323
13   -0.000485
14   -0.001679
15   -0.452117
16   -0.2041
17   -0.208376
18   0.153641
19   0.150575
20   0.142772
21   0.146326
22   0.156841
23   0.146076
24   0.153225
25   0.147283
26   0.146915
27   0.158468
28   0.155542
29   0.171625
30   0.152371
31   0.169264
32   0.148194
33   0.150068
34   0.150766
35   0.339378

$$$$

