PCCDB-ID:  20434
public computational chemistry database (PCCDB) project, http://pccdb.org

 23 23  0  0  0  0  0  0  0  0999 V2000
    1.9742    0.3116    1.4306 C   0  0  0  0  0  0  0  0  0  0  0  0
    3.2813    1.2027   -0.5378 C   0  0  0  0  0  0  0  0  0  0  0  0
    3.3927   -1.6105   -1.6908 C   0  0  0  0  0  0  0  0  0  0  0  0
    3.9243   -2.5274    1.5201 C   0  0  0  0  0  0  0  0  0  0  0  0
    2.7824   -3.3135    0.8775 C   0  0  0  0  0  0  0  0  0  0  0  0
    2.3628    0.0774   -0.0356 C   0  0  0  0  0  0  0  0  0  0  0  0
    2.9933   -1.3190   -0.2421 C   0  0  0  0  0  0  0  0  0  0  0  0
    4.1628   -1.4811    0.5828 O   0  0  0  0  0  0  0  0  0  0  0  0
    2.0496   -2.2966    0.2066 O   0  0  0  0  0  0  0  0  0  0  0  0
    1.4623    1.2745    1.5382 H   0  0  0  0  0  0  0  0  0  0  0  0
    2.8659    0.3341    2.0676 H   0  0  0  0  0  0  0  0  0  0  0  0
    1.3055   -0.4731    1.7942 H   0  0  0  0  0  0  0  0  0  0  0  0
    2.8307    2.1795   -0.3290 H   0  0  0  0  0  0  0  0  0  0  0  0
    3.4594    1.1474   -1.6165 H   0  0  0  0  0  0  0  0  0  0  0  0
    4.2509    1.1628   -0.0287 H   0  0  0  0  0  0  0  0  0  0  0  0
    4.2419   -0.9934   -1.9952 H   0  0  0  0  0  0  0  0  0  0  0  0
    2.5534   -1.4204   -2.3680 H   0  0  0  0  0  0  0  0  0  0  0  0
    3.6862   -2.6603   -1.7872 H   0  0  0  0  0  0  0  0  0  0  0  0
    4.8441   -3.1084    1.6427 H   0  0  0  0  0  0  0  0  0  0  0  0
    3.6275   -2.1155    2.4948 H   0  0  0  0  0  0  0  0  0  0  0  0
    2.1161   -3.8017    1.5939 H   0  0  0  0  0  0  0  0  0  0  0  0
    3.1611   -4.0670    0.1702 H   0  0  0  0  0  0  0  0  0  0  0  0
    1.4441    0.0785   -0.6394 H   0  0  0  0  0  0  0  0  0  0  0  0
  1 10  1  0  0  0  0
  1 12  1  0  0  0  0
  1 11  1  0  0  0  0
  2 13  1  0  0  0  0
  2  6  1  0  0  0  0
  2 15  1  0  0  0  0
  3  7  1  0  0  0  0
  4 19  1  0  0  0  0
  4 20  1  0  0  0  0
  5  4  1  0  0  0  0
  5 21  1  0  0  0  0
  6  1  1  0  0  0  0
  7  6  1  0  0  0  0
  7  9  1  0  0  0  0
  7  8  1  0  0  0  0
  8  4  1  0  0  0  0
  9  5  1  0  0  0  0
 14  2  1  0  0  0  0
 16  3  1  0  0  0  0
 17  3  1  0  0  0  0
 18  3  1  0  0  0  0
 22  5  1  0  0  0  0
 23  6  1  0  0  0  0
M  END
>  <HBA>
2

>  <HBD>
0

>  <TPSA>
18.46

>  <cid>
20434

>  <dipole>
1.0

>  <excitation_energy_1>
6.373

>  <excitation_energy_2>
6.639

>  <excitation_energy_3>
6.744

>  <excitation_energy_4>
6.82

>  <homo_energy>
-6.702

>  <homo_lumo_gap>
8.923

>  <logP>
1.405

>  <lumo_energy>
2.22

>  <melting_point>
-11.52

>  <molecular_refractivity>
35.86

>  <oscillator_strength_1>
0.0024

>  <oscillator_strength_2>
0.0117

>  <oscillator_strength_3>
0.0203

>  <oscillator_strength_4>
0.0078

>  <open_babel_can_smiles>
CC(C1(C)OCCO1)C

>  <mulliken_charges>
23
1   -0.461149
2   -0.460855
3   -0.459104
4   -0.034622
5   -0.056888
6   -0.079227
7   0.544891
8   -0.520839
9   -0.511309
10   0.137489
11   0.150001
12   0.15481
13   0.141358
14   0.143032
15   0.160704
16   0.158533
17   0.147597
18   0.145228
19   0.144841
20   0.137883
21   0.15252
22   0.135406
23   0.1297

>  <lowdin_charges>
23
1   -0.45049
2   -0.445617
3   -0.458413
4   -0.142392
5   -0.148237
6   -0.133104
7   0.218024
8   -0.277604
9   -0.263383
10   0.148031
11   0.151028
12   0.155676
13   0.15002
14   0.146867
15   0.155874
16   0.161706
17   0.156198
18   0.154386
19   0.149248
20   0.135656
21   0.156398
22   0.134575
23   0.145554

$$$$

