PCCDB-ID:  14357
public computational chemistry database (PCCDB) project, http://pccdb.org

 24 25  0  0  0  0  0  0  0  0999 V2000
    1.2527   -1.4055   -0.0008 C   0  0  0  0  0  0  0  0  0  0  0  0
   -1.2434    1.4008    0.0414 C   0  0  0  0  0  0  0  0  0  0  0  0
    2.4397   -0.7147   -0.0354 C   0  0  0  0  0  0  0  0  0  0  0  0
   -2.4303    0.7100    0.0753 C   0  0  0  0  0  0  0  0  0  0  0  0
   -1.2304   -1.4056    0.0599 C   0  0  0  0  0  0  0  0  0  0  0  0
    1.2397    1.4009   -0.0210 C   0  0  0  0  0  0  0  0  0  0  0  0
    0.0069   -0.7194    0.0248 C   0  0  0  0  0  0  0  0  0  0  0  0
    0.0024    0.7147    0.0150 C   0  0  0  0  0  0  0  0  0  0  0  0
    2.4355    0.7077   -0.0455 C   0  0  0  0  0  0  0  0  0  0  0  0
   -2.4262   -0.7125    0.0849 C   0  0  0  0  0  0  0  0  0  0  0  0
    3.6945    1.4999   -0.0840 C   0  0  0  0  0  0  0  0  0  0  0  0
   -3.6852   -1.5046    0.1214 C   0  0  0  0  0  0  0  0  0  0  0  0
    4.8073    0.7221   -0.1048 O   0  0  0  0  0  0  0  0  0  0  0  0
    3.7556    2.7131   -0.0961 O   0  0  0  0  0  0  0  0  0  0  0  0
   -4.7981   -0.7268    0.1416 O   0  0  0  0  0  0  0  0  0  0  0  0
   -3.7463   -2.7179    0.1334 O   0  0  0  0  0  0  0  0  0  0  0  0
    1.2507   -2.4923    0.0075 H   0  0  0  0  0  0  0  0  0  0  0  0
   -1.2414    2.4876    0.0345 H   0  0  0  0  0  0  0  0  0  0  0  0
    3.3861   -1.2425   -0.0539 H   0  0  0  0  0  0  0  0  0  0  0  0
   -3.3768    1.2377    0.0958 H   0  0  0  0  0  0  0  0  0  0  0  0
   -1.2522   -2.4912    0.0679 H   0  0  0  0  0  0  0  0  0  0  0  0
    1.2615    2.4865   -0.0298 H   0  0  0  0  0  0  0  0  0  0  0  0
    5.5606    1.3407   -0.1294 H   0  0  0  0  0  0  0  0  0  0  0  0
   -5.5514   -1.3454    0.1650 H   0  0  0  0  0  0  0  0  0  0  0  0
  1 17  1  0  0  0  0
  1  7  2  0  0  0  0
  2  4  2  0  0  0  0
  3  1  1  0  0  0  0
  4 10  1  0  0  0  0
  4 20  1  0  0  0  0
  5 21  1  0  0  0  0
  5 10  2  0  0  0  0
  6  8  2  0  0  0  0
  7  5  1  0  0  0  0
  8  7  1  0  0  0  0
  8  2  1  0  0  0  0
  9  3  2  0  0  0  0
  9  6  1  0  0  0  0
 10 12  1  0  0  0  0
 11  9  1  0  0  0  0
 12 16  2  0  0  0  0
 12 15  1  0  0  0  0
 13 11  1  0  0  0  0
 14 11  2  0  0  0  0
 15 24  1  0  0  0  0
 18  2  1  0  0  0  0
 19  3  1  0  0  0  0
 22  6  1  0  0  0  0
 23 13  1  0  0  0  0
M  END
>  <HBA>
4

>  <HBD>
2

>  <TPSA>
74.6

>  <cid>
14357

>  <dipole>
0.0

>  <excitation_energy_1>
3.656

>  <excitation_energy_2>
4.265

>  <excitation_energy_3>
4.552

>  <excitation_energy_4>
4.582

>  <homo_energy>
-6.368

>  <homo_lumo_gap>
4.199

>  <logP>
2.236

>  <lumo_energy>
-2.169

>  <melting_point>
232.31

>  <molecular_refractivity>
57.87

>  <oscillator_strength_1>
0.0812

>  <oscillator_strength_2>
0.095

>  <oscillator_strength_3>
0.0

>  <oscillator_strength_4>
0.0

>  <open_babel_can_smiles>
OC(=O)c1ccc2c(c1)ccc(c2)C(=O)O

>  <mulliken_charges>
24
1   -0.188018
2   -0.188049
3   -0.168949
4   -0.168938
5   -0.238165
6   -0.238117
7   0.143417
8   0.143367
9   0.068477
10   0.0685
11   0.545678
12   0.545682
13   -0.583635
14   -0.472145
15   -0.583634
16   -0.472161
17   0.145594
18   0.145585
19   0.163715
20   0.163715
21   0.169952
22   0.169948
23   0.414089
24   0.414091

>  <lowdin_charges>
24
1   -0.145369
2   -0.145372
3   -0.145695
4   -0.145695
5   -0.119798
6   -0.119799
7   0.004901
8   0.004902
9   -0.043017
10   -0.043017
11   0.191997
12   0.192015
13   -0.357883
14   -0.2689
15   -0.357884
16   -0.26892
17   0.163715
18   0.163715
19   0.176723
20   0.176723
21   0.177801
22   0.1778
23   0.365529
24   0.365529

$$$$

