PCCDB-ID:  9506
public computational chemistry database (PCCDB) project, http://pccdb.org

 25 25  0  0  0  0  0  0  0  0999 V2000
    1.7709    1.0793   -1.5341 C   0  0  0  0  0  0  0  0  0  0  0  0
   -0.3252    2.9646    3.0502 C   0  0  0  0  0  0  0  0  0  0  0  0
    0.6838    3.6482    2.3724 C   0  0  0  0  0  0  0  0  0  0  0  0
   -0.3679    1.5680    3.0002 C   0  0  0  0  0  0  0  0  0  0  0  0
    1.6417    2.9370    1.6450 C   0  0  0  0  0  0  0  0  0  0  0  0
    0.5903    0.8607    2.2756 C   0  0  0  0  0  0  0  0  0  0  0  0
    2.6368    0.7623    0.7818 C   0  0  0  0  0  0  0  0  0  0  0  0
    1.6075    1.5395    1.5861 C   0  0  0  0  0  0  0  0  0  0  0  0
    1.7250   -1.1547   -0.4500 C   0  0  0  0  0  0  0  0  0  0  0  0
    2.0082   -1.9163    0.5534 N   0  0  0  0  0  0  0  0  0  0  0  0
    1.1034   -1.5790   -1.6402 N   0  0  0  0  0  0  0  0  0  0  0  0
    2.1067    0.1749   -0.4507 N   0  0  0  0  0  0  0  0  0  0  0  0
    2.4418    1.9423   -1.4896 H   0  0  0  0  0  0  0  0  0  0  0  0
    0.7395    1.4656   -1.4837 H   0  0  0  0  0  0  0  0  0  0  0  0
    1.9238    0.5920   -2.5014 H   0  0  0  0  0  0  0  0  0  0  0  0
   -1.0710    3.5142    3.6187 H   0  0  0  0  0  0  0  0  0  0  0  0
    0.7283    4.7338    2.4096 H   0  0  0  0  0  0  0  0  0  0  0  0
   -1.1461    1.0292    3.5352 H   0  0  0  0  0  0  0  0  0  0  0  0
    2.4310    3.4754    1.1234 H   0  0  0  0  0  0  0  0  0  0  0  0
    0.5691   -0.2253    2.2435 H   0  0  0  0  0  0  0  0  0  0  0  0
    3.0386   -0.0641    1.3697 H   0  0  0  0  0  0  0  0  0  0  0  0
    3.4669    1.4261    0.5078 H   0  0  0  0  0  0  0  0  0  0  0  0
    1.6680   -2.8646    0.3949 H   0  0  0  0  0  0  0  0  0  0  0  0
    0.6992   -2.5029   -1.5487 H   0  0  0  0  0  0  0  0  0  0  0  0
    0.4274   -0.9340   -2.0339 H   0  0  0  0  0  0  0  0  0  0  0  0
  1 13  1  0  0  0  0
  1 14  1  0  0  0  0
  1 12  1  0  0  0  0
  2 16  1  0  0  0  0
  3 17  1  0  0  0  0
  3  2  2  0  0  0  0
  4  2  1  0  0  0  0
  4 18  1  0  0  0  0
  5  3  1  0  0  0  0
  6  4  2  0  0  0  0
  7 21  1  0  0  0  0
  7  8  1  0  0  0  0
  8  5  2  0  0  0  0
  8  6  1  0  0  0  0
  9 10  1  0  0  0  0
 11 24  1  0  0  0  0
 11  9  2  0  0  0  0
 12  9  1  0  0  0  0
 12  7  1  0  0  0  0
 15  1  1  0  0  0  0
 19  5  1  0  0  0  0
 20  6  1  0  0  0  0
 22  7  1  0  0  0  0
 23 10  1  0  0  0  0
 25 11  1  0  0  0  0
M  RAD  1  10   2
M  END
>  <HBA>
3

>  <HBD>
2

>  <TPSA>
53.11

>  <cid>
9506

>  <dipole>
3.18

>  <excitation_energy_1>
4.728

>  <excitation_energy_2>
4.78

>  <excitation_energy_3>
4.884

>  <excitation_energy_4>
5.333

>  <homo_energy>
-5.502

>  <homo_lumo_gap>
5.573

>  <logP>
1.812

>  <lumo_energy>
0.071

>  <melting_point>
94.01

>  <molecular_refractivity>
50.22

>  <oscillator_strength_1>
0.0099

>  <oscillator_strength_2>
0.0077

>  <oscillator_strength_3>
0.0137

>  <oscillator_strength_4>
0.0021

>  <open_babel_can_smiles>
CN(C(=[NH2])[NH])Cc1ccccc1

>  <mulliken_charges>
25
1   -0.330476
2   -0.130339
3   -0.127659
4   -0.13085
5   -0.190138
6   -0.182789
7   -0.242935
8   0.165262
9   0.611809
10   -0.676659
11   -0.760363
12   -0.398446
13   0.161382
14   0.150008
15   0.174216
16   0.125752
17   0.125475
18   0.126699
19   0.1181
20   0.157877
21   0.210182
22   0.137567
23   0.262702
24   0.319424
25   0.324198

>  <lowdin_charges>
25
1   -0.358433
2   -0.161776
3   -0.15668
4   -0.158169
5   -0.173211
6   -0.157842
7   -0.19771
8   -0.015678
9   0.133156
10   -0.506687
11   -0.509778
12   -0.119218
13   0.160448
14   0.138654
15   0.161696
16   0.156999
17   0.15346
18   0.157005
19   0.152063
20   0.16889
21   0.189411
22   0.144513
23   0.244739
24   0.274994
25   0.279153

$$$$

