PCCDB-ID:  21180
public computational chemistry database (PCCDB) project, http://pccdb.org

 34 35  0  0  0  0  0  0  0  0999 V2000
    5.0199   -2.2461    0.3191 C   0  0  0  0  0  0  0  0  0  0  0  0
    4.1342   -0.0957   -0.3399 C   0  0  0  0  0  0  0  0  0  0  0  0
    7.3309   -4.6030    4.9100 C   0  0  0  0  0  0  0  0  0  0  0  0
    6.7184   -1.3644    7.4388 C   0  0  0  0  0  0  0  0  0  0  0  0
    6.0885   -0.1296    7.4210 C   0  0  0  0  0  0  0  0  0  0  0  0
    4.1569   -0.4712    2.7733 C   0  0  0  0  0  0  0  0  0  0  0  0
    5.3411   -0.3068    1.7803 C   0  0  0  0  0  0  0  0  0  0  0  0
    5.9373   -1.8882    5.1897 C   0  0  0  0  0  0  0  0  0  0  0  0
    4.1339    1.2407    4.6941 C   0  0  0  0  0  0  0  0  0  0  0  0
    4.4920    0.0319    4.1478 C   0  0  0  0  0  0  0  0  0  0  0  0
    6.6458   -2.2480    6.3322 C   0  0  0  0  0  0  0  0  0  0  0  0
    5.2959   -0.6352    5.1451 C   0  0  0  0  0  0  0  0  0  0  0  0
    5.3796    0.2273    6.2691 C   0  0  0  0  0  0  0  0  0  0  0  0
    4.6655    1.3678    5.9644 N   0  0  0  0  0  0  0  0  0  0  0  0
    5.1505   -0.8027    0.4208 N   0  0  0  0  0  0  0  0  0  0  0  0
    7.5042   -3.8062    6.5383 S   0  0  0  0  0  0  0  0  0  0  0  0
    5.0895   -2.5447   -0.7339 H   0  0  0  0  0  0  0  0  0  0  0  0
    4.0677   -2.6499    0.7142 H   0  0  0  0  0  0  0  0  0  0  0  0
    5.8421   -2.7283    0.8605 H   0  0  0  0  0  0  0  0  0  0  0  0
    4.1999   -0.3875   -1.3950 H   0  0  0  0  0  0  0  0  0  0  0  0
    4.3133    0.9839   -0.2773 H   0  0  0  0  0  0  0  0  0  0  0  0
    3.0959   -0.2884   -0.0068 H   0  0  0  0  0  0  0  0  0  0  0  0
    7.8867   -5.5418    4.9765 H   0  0  0  0  0  0  0  0  0  0  0  0
    7.7650   -3.9885    4.1160 H   0  0  0  0  0  0  0  0  0  0  0  0
    6.2859   -4.8285    4.6783 H   0  0  0  0  0  0  0  0  0  0  0  0
    7.2820   -1.6624    8.3187 H   0  0  0  0  0  0  0  0  0  0  0  0
    6.1525    0.5358    8.2781 H   0  0  0  0  0  0  0  0  0  0  0  0
    3.8687   -1.5298    2.8260 H   0  0  0  0  0  0  0  0  0  0  0  0
    3.2815    0.0668    2.3891 H   0  0  0  0  0  0  0  0  0  0  0  0
    6.2237   -0.8083    2.1978 H   0  0  0  0  0  0  0  0  0  0  0  0
    5.5907    0.7604    1.7178 H   0  0  0  0  0  0  0  0  0  0  0  0
    5.8687   -2.5559    4.3375 H   0  0  0  0  0  0  0  0  0  0  0  0
    3.5305    2.0332    4.2717 H   0  0  0  0  0  0  0  0  0  0  0  0
    4.5247    2.1532    6.5796 H   0  0  0  0  0  0  0  0  0  0  0  0
  1 15  1  0  0  0  0
  1 18  1  0  0  0  0
  1 19  1  0  0  0  0
  2 21  1  0  0  0  0
  2 22  1  0  0  0  0
  2 15  1  0  0  0  0
  3 23  1  0  0  0  0
  3 16  1  0  0  0  0
  4 26  1  0  0  0  0
  5  4  1  0  0  0  0
  5 27  1  0  0  0  0
  6 28  1  0  0  0  0
  6 10  1  0  0  0  0
  7 30  1  0  0  0  0
  7  6  1  0  0  0  0
  8 11  1  0  0  0  0
  9 14  1  0  0  0  0
 10  9  2  0  0  0  0
 10 12  1  0  0  0  0
 11 16  1  0  0  0  0
 11  4  2  0  0  0  0
 12  8  2  0  0  0  0
 12 13  1  0  0  0  0
 13  5  2  0  0  0  0
 14 13  1  0  0  0  0
 14 34  1  0  0  0  0
 15  7  1  0  0  0  0
 17  1  1  0  0  0  0
 20  2  1  0  0  0  0
 24  3  1  0  0  0  0
 25  3  1  0  0  0  0
 29  6  1  0  0  0  0
 31  7  1  0  0  0  0
 32  8  1  0  0  0  0
 33  9  1  0  0  0  0
M  END
>  <HBA>
2

>  <HBD>
1

>  <TPSA>
44.33

>  <cid>
21180

>  <dipole>
2.75

>  <excitation_energy_1>
4.105

>  <excitation_energy_2>
4.359

>  <excitation_energy_3>
4.424

>  <excitation_energy_4>
4.525

>  <homo_energy>
-5.042

>  <homo_lumo_gap>
4.865

>  <logP>
2.994

>  <lumo_energy>
-0.177

>  <melting_point>
114.23

>  <molecular_refractivity>
72.3

>  <oscillator_strength_1>
0.0482

>  <oscillator_strength_2>
0.0449

>  <oscillator_strength_3>
0.0027

>  <oscillator_strength_4>
0.0007

>  <open_babel_can_smiles>
CSc1ccc2c(c1)c(CCN(C)C)c[nH]2

>  <mulliken_charges>
34
1   -0.297138
2   -0.296419
3   -0.598283
4   -0.184685
5   -0.148977
6   -0.361971
7   -0.128668
8   -0.248945
9   -0.006163
10   0.075338
11   -0.070912
12   0.094744
13   0.305517
14   -0.691751
15   -0.355518
16   0.119195
17   0.147133
18   0.120115
19   0.143472
20   0.1466
21   0.145018
22   0.1198
23   0.186876
24   0.185393
25   0.184657
26   0.135319
27   0.124124
28   0.144285
29   0.139167
30   0.142223
31   0.135983
32   0.124164
33   0.144359
34   0.325949

>  <lowdin_charges>
34
1   -0.356251
2   -0.351442
3   -0.548647
4   -0.173165
5   -0.179347
6   -0.28771
7   -0.203606
8   -0.192865
9   -0.139821
10   -0.059961
11   -0.12766
12   -0.029588
13   0.024912
14   -0.20188
15   -0.181349
16   0.151889
17   0.147495
18   0.119862
19   0.14856
20   0.146978
21   0.146601
22   0.11832
23   0.179324
24   0.167181
25   0.163411
26   0.164074
27   0.157993
28   0.147435
29   0.149474
30   0.145374
31   0.141088
32   0.157932
33   0.163686
34   0.2917

$$$$

