PCCDB-ID:  13617
public computational chemistry database (PCCDB) project, http://pccdb.org

 22 22  0  0  0  0  0  0  0  0999 V2000
    1.1094   -0.0851   -0.4387 C   0  0  0  0  0  0  0  0  0  0  0  0
    2.4873   -0.0916    1.6968 C   0  0  0  0  0  0  0  0  0  0  0  0
    4.4703   -0.0908   -2.6069 C   0  0  0  0  0  0  0  0  0  0  0  0
    5.8489   -0.0973   -0.4718 C   0  0  0  0  0  0  0  0  0  0  0  0
    3.4821    0.9645   -0.4532 C   0  0  0  0  0  0  0  0  0  0  0  0
    3.4760   -1.1466   -0.4568 C   0  0  0  0  0  0  0  0  0  0  0  0
    2.5239   -0.0893    0.1608 C   0  0  0  0  0  0  0  0  0  0  0  0
    4.4342   -0.0927   -1.0709 C   0  0  0  0  0  0  0  0  0  0  0  0
    3.4860    2.1700   -0.4506 O   0  0  0  0  0  0  0  0  0  0  0  0
    3.4718   -2.3521   -0.4601 O   0  0  0  0  0  0  0  0  0  0  0  0
    0.5659    0.8063   -0.1069 H   0  0  0  0  0  0  0  0  0  0  0  0
    0.5617   -0.9748   -0.1094 H   0  0  0  0  0  0  0  0  0  0  0  0
    1.1249   -0.0836   -1.5340 H   0  0  0  0  0  0  0  0  0  0  0  0
    1.9613    0.7984    2.0589 H   0  0  0  0  0  0  0  0  0  0  0  0
    3.4915   -0.0925    2.1345 H   0  0  0  0  0  0  0  0  0  0  0  0
    1.9610   -0.9827    2.0562 H   0  0  0  0  0  0  0  0  0  0  0  0
    5.0022    0.7966   -2.9668 H   0  0  0  0  0  0  0  0  0  0  0  0
    3.4659   -0.0835   -3.0442 H   0  0  0  0  0  0  0  0  0  0  0  0
    4.9902   -0.9845   -2.9689 H   0  0  0  0  0  0  0  0  0  0  0  0
    6.3955    0.7939   -0.7989 H   0  0  0  0  0  0  0  0  0  0  0  0
    6.3932   -0.9871   -0.8062 H   0  0  0  0  0  0  0  0  0  0  0  0
    5.8337   -0.1018    0.6235 H   0  0  0  0  0  0  0  0  0  0  0  0
  1 12  1  0  0  0  0
  1 11  1  0  0  0  0
  1  7  1  0  0  0  0
  2 16  1  0  0  0  0
  2 14  1  0  0  0  0
  2 15  1  0  0  0  0
  3  8  1  0  0  0  0
  4 22  1  0  0  0  0
  5  9  2  0  0  0  0
  5  7  1  0  0  0  0
  6  7  1  0  0  0  0
  7  2  1  0  0  0  0
  8  4  1  0  0  0  0
  8  6  1  0  0  0  0
  8  5  1  0  0  0  0
 10  6  2  0  0  0  0
 13  1  1  0  0  0  0
 17  3  1  0  0  0  0
 18  3  1  0  0  0  0
 19  3  1  0  0  0  0
 20  4  1  0  0  0  0
 21  4  1  0  0  0  0
M  END
>  <HBA>
2

>  <HBD>
0

>  <TPSA>
34.14

>  <cid>
13617

>  <dipole>
0.0

>  <excitation_energy_1>
3.451

>  <excitation_energy_2>
4.059

>  <excitation_energy_3>
4.794

>  <excitation_energy_4>
5.308

>  <homo_energy>
-6.283

>  <homo_lumo_gap>
4.92

>  <logP>
1.191

>  <lumo_energy>
-1.363

>  <melting_point>
74.84

>  <molecular_refractivity>
38.34

>  <oscillator_strength_1>
0.0

>  <oscillator_strength_2>
0.0

>  <oscillator_strength_3>
0.0

>  <oscillator_strength_4>
0.0

>  <open_babel_can_smiles>
O=C1C(C)(C)C(=O)C1(C)C

>  <mulliken_charges>
22
1   -0.446458
2   -0.446318
3   -0.446297
4   -0.446515
5   0.402655
6   0.402746
7   -0.059154
8   -0.059118
9   -0.434721
10   -0.434792
11   0.169103
12   0.169157
13   0.153764
14   0.169079
15   0.153761
16   0.169114
17   0.169042
18   0.153761
19   0.169163
20   0.169177
21   0.169087
22   0.153765

>  <lowdin_charges>
22
1   -0.426579
2   -0.428052
3   -0.42804
4   -0.426595
5   0.145584
6   0.145605
7   -0.055489
8   -0.055487
9   -0.202024
10   -0.202044
11   0.16474
12   0.164783
13   0.15302
14   0.164771
15   0.15447
16   0.164773
17   0.16477
18   0.154464
19   0.164784
20   0.164773
21   0.164749
22   0.153021

$$$$

