PCCDB-ID:  23716
public computational chemistry database (PCCDB) project, http://pccdb.org

 36 35  0  0  0  0  0  0  0  0999 V2000
    7.2292    5.1835   -1.2870 C   0  0  0  0  0  0  0  0  0  0  0  0
    9.7641    0.1673   -6.2130 C   0  0  0  0  0  0  0  0  0  0  0  0
    6.1119    4.4635   -0.5234 C   0  0  0  0  0  0  0  0  0  0  0  0
    5.9886    2.9521   -0.7897 C   0  0  0  0  0  0  0  0  0  0  0  0
    5.6326    2.5599   -2.2434 C   0  0  0  0  0  0  0  0  0  0  0  0
    6.8246    2.2214   -3.1628 C   0  0  0  0  0  0  0  0  0  0  0  0
    7.5817    0.9216   -2.8328 C   0  0  0  0  0  0  0  0  0  0  0  0
    6.7556   -0.3608   -3.0148 C   0  0  0  0  0  0  0  0  0  0  0  0
    7.5461   -1.6685   -2.7759 C   0  0  0  0  0  0  0  0  0  0  0  0
    8.1748   -2.3401   -4.0116 C   0  0  0  0  0  0  0  0  0  0  0  0
    9.3002   -1.5946   -4.7231 C   0  0  0  0  0  0  0  0  0  0  0  0
    8.7711   -0.5192   -5.4824 O   0  0  0  0  0  0  0  0  0  0  0  0
    7.2853    6.2386   -0.9939 H   0  0  0  0  0  0  0  0  0  0  0  0
    7.0678    5.1533   -2.3701 H   0  0  0  0  0  0  0  0  0  0  0  0
    8.2071    4.7296   -1.0835 H   0  0  0  0  0  0  0  0  0  0  0  0
    9.2637    0.9580   -6.7784 H   0  0  0  0  0  0  0  0  0  0  0  0
   10.2839   -0.5025   -6.9176 H   0  0  0  0  0  0  0  0  0  0  0  0
   10.5185    0.6236   -5.5515 H   0  0  0  0  0  0  0  0  0  0  0  0
    5.1503    4.9432   -0.7575 H   0  0  0  0  0  0  0  0  0  0  0  0
    6.2682    4.6121    0.5543 H   0  0  0  0  0  0  0  0  0  0  0  0
    5.2134    2.5630   -0.1162 H   0  0  0  0  0  0  0  0  0  0  0  0
    6.9205    2.4553   -0.4848 H   0  0  0  0  0  0  0  0  0  0  0  0
    5.0556    3.3776   -2.6992 H   0  0  0  0  0  0  0  0  0  0  0  0
    4.9516    1.6997   -2.2264 H   0  0  0  0  0  0  0  0  0  0  0  0
    7.5404    3.0532   -3.1515 H   0  0  0  0  0  0  0  0  0  0  0  0
    6.4584    2.1509   -4.1971 H   0  0  0  0  0  0  0  0  0  0  0  0
    7.9609    0.9590   -1.8008 H   0  0  0  0  0  0  0  0  0  0  0  0
    8.4598    0.8672   -3.4851 H   0  0  0  0  0  0  0  0  0  0  0  0
    6.3253   -0.3722   -4.0249 H   0  0  0  0  0  0  0  0  0  0  0  0
    5.9065   -0.3405   -2.3199 H   0  0  0  0  0  0  0  0  0  0  0  0
    6.8732   -2.4099   -2.3253 H   0  0  0  0  0  0  0  0  0  0  0  0
    8.3312   -1.4896   -2.0260 H   0  0  0  0  0  0  0  0  0  0  0  0
    7.3945   -2.5581   -4.7530 H   0  0  0  0  0  0  0  0  0  0  0  0
    8.5837   -3.3112   -3.6992 H   0  0  0  0  0  0  0  0  0  0  0  0
    9.8336   -2.2882   -5.3968 H   0  0  0  0  0  0  0  0  0  0  0  0
   10.0404   -1.2195   -3.9937 H   0  0  0  0  0  0  0  0  0  0  0  0
  1 15  1  0  0  0  0
  1 13  1  0  0  0  0
  1  3  1  0  0  0  0
  2 18  1  0  0  0  0
  2 12  1  0  0  0  0
  3 20  1  0  0  0  0
  4  3  1  0  0  0  0
  4 22  1  0  0  0  0
  4 21  1  0  0  0  0
  5 24  1  0  0  0  0
  5  4  1  0  0  0  0
  6 25  1  0  0  0  0
  6  7  1  0  0  0  0
  6  5  1  0  0  0  0
  7 27  1  0  0  0  0
  8  7  1  0  0  0  0
  8  9  1  0  0  0  0
  8 30  1  0  0  0  0
  9 31  1  0  0  0  0
  9 32  1  0  0  0  0
 10 34  1  0  0  0  0
 10  9  1  0  0  0  0
 11 10  1  0  0  0  0
 11 36  1  0  0  0  0
 12 11  1  0  0  0  0
 14  1  1  0  0  0  0
 16  2  1  0  0  0  0
 17  2  1  0  0  0  0
 19  3  1  0  0  0  0
 23  5  1  0  0  0  0
 26  6  1  0  0  0  0
 28  7  1  0  0  0  0
 29  8  1  0  0  0  0
 33 10  1  0  0  0  0
 35 11  1  0  0  0  0
M  END
>  <HBA>
1

>  <HBD>
0

>  <TPSA>
9.23

>  <cid>
23716

>  <dipole>
1.24

>  <excitation_energy_1>
6.417

>  <excitation_energy_2>
6.723

>  <excitation_energy_3>
6.938

>  <excitation_energy_4>
7.017

>  <homo_energy>
-6.863

>  <homo_lumo_gap>
9.032

>  <logP>
3.773

>  <lumo_energy>
2.169

>  <melting_point>
-38.83

>  <molecular_refractivity>
56.08

>  <oscillator_strength_1>
0.0251

>  <oscillator_strength_2>
0.0023

>  <oscillator_strength_3>
0.0134

>  <oscillator_strength_4>
0.0098

>  <open_babel_can_smiles>
CCCCCCCCCCOC

>  <mulliken_charges>
36
1   -0.440648
2   -0.191306
3   -0.249205
4   -0.253521
5   -0.261293
6   -0.265337
7   -0.261521
8   -0.246451
9   -0.262411
10   -0.27395
11   -0.009326
12   -0.454479
13   0.138459
14   0.148944
15   0.139282
16   0.158059
17   0.129092
18   0.129369
19   0.128646
20   0.127304
21   0.126195
22   0.131817
23   0.126014
24   0.133085
25   0.12908
26   0.128457
27   0.120585
28   0.146562
29   0.139972
30   0.125791
31   0.128717
32   0.126415
33   0.14643
34   0.129782
35   0.116237
36   0.115152

>  <lowdin_charges>
36
1   -0.444582
2   -0.28538
3   -0.269997
4   -0.28219
5   -0.283448
6   -0.278734
7   -0.282777
8   -0.279753
9   -0.277915
10   -0.282378
11   -0.134396
12   -0.269684
13   0.146342
14   0.146101
15   0.144535
16   0.156181
17   0.132651
18   0.132132
19   0.136926
20   0.137406
21   0.142642
22   0.139025
23   0.140645
24   0.14201
25   0.141296
26   0.139687
27   0.130426
28   0.149591
29   0.144394
30   0.137923
31   0.144317
32   0.138275
33   0.150198
34   0.146706
35   0.127728
36   0.124097

$$$$

