PCCDB-ID:  6351
public computational chemistry database (PCCDB) project, http://pccdb.org

  9  9  0  0  0  0  0  0  0  0999 V2000
   -0.0265    0.8697   -0.0696 C   0  0  0  0  0  0  0  0  0  0  0  0
    0.7641   -0.4094    0.0540 C   0  0  0  0  0  0  0  0  0  0  0  0
   -0.7386   -0.4604   -0.0697 C   0  0  0  0  0  0  0  0  0  0  0  0
    0.0318    1.4204   -1.0046 H   0  0  0  0  0  0  0  0  0  0  0  0
   -0.1205    1.5018    0.8093 H   0  0  0  0  0  0  0  0  0  0  0  0
    1.2081   -0.6469    1.0169 H   0  0  0  0  0  0  0  0  0  0  0  0
    1.3601   -0.7283   -0.7969 H   0  0  0  0  0  0  0  0  0  0  0  0
   -1.1647   -0.8144   -1.0046 H   0  0  0  0  0  0  0  0  0  0  0  0
   -1.3167   -0.7329    0.8092 H   0  0  0  0  0  0  0  0  0  0  0  0
  1  2  1  0  0  0  0
  1  5  1  0  0  0  0
  2  6  1  0  0  0  0
  3  1  1  0  0  0  0
  3  2  1  0  0  0  0
  3  9  1  0  0  0  0
  4  1  1  0  0  0  0
  7  2  1  0  0  0  0
  8  3  1  0  0  0  0
M  END
>  <HBA>
0

>  <HBD>
0

>  <TPSA>
0.0

>  <cid>
6351

>  <dipole>
0.0

>  <excitation_energy_1>
7.718

>  <excitation_energy_2>
7.719

>  <excitation_energy_3>
7.836

>  <excitation_energy_4>
7.868

>  <homo_energy>
-7.826

>  <homo_lumo_gap>
10.7

>  <logP>
1.17

>  <lumo_energy>
2.874

>  <melting_point>
-1.99

>  <molecular_refractivity>
14.42

>  <oscillator_strength_1>
0.001

>  <oscillator_strength_2>
0.001

>  <oscillator_strength_3>
0.0

>  <oscillator_strength_4>
0.0001

>  <open_babel_can_smiles>
C1CC1

>  <mulliken_charges>
9
1   -0.299892
2   -0.300014
3   -0.300016
4   0.149987
5   0.149977
6   0.150005
7   0.14998
8   0.149993
9   0.149979

>  <lowdin_charges>
9
1   -0.314422
2   -0.313819
3   -0.31381
4   0.156767
5   0.157138
6   0.156561
7   0.157455
8   0.156878
9   0.157253

$$$$

