PCCDB-ID:  9025
public computational chemistry database (PCCDB) project, http://pccdb.org

 20 20  0  0  0  0  0  0  0  0999 V2000
    2.0258    2.2095    0.5189 C   0  0  0  0  0  0  0  0  0  0  0  0
    4.4795   -1.8211   -3.7708 C   0  0  0  0  0  0  0  0  0  0  0  0
    3.8087    2.8997   -3.2545 C   0  0  0  0  0  0  0  0  0  0  0  0
    3.2058    2.7349   -1.9998 C   0  0  0  0  0  0  0  0  0  0  0  0
    4.2676    1.8167   -3.9883 C   0  0  0  0  0  0  0  0  0  0  0  0
    3.5271    0.3315   -2.2162 C   0  0  0  0  0  0  0  0  0  0  0  0
    3.0693    1.4427   -1.4885 C   0  0  0  0  0  0  0  0  0  0  0  0
    4.1234    0.5211   -3.4614 C   0  0  0  0  0  0  0  0  0  0  0  0
    2.4999    1.1405   -0.2826 O   0  0  0  0  0  0  0  0  0  0  0  0
    4.5995   -0.4904   -4.2457 O   0  0  0  0  0  0  0  0  0  0  0  0
    1.6269    1.7504    1.4256 H   0  0  0  0  0  0  0  0  0  0  0  0
    1.2270    2.7696    0.0147 H   0  0  0  0  0  0  0  0  0  0  0  0
    2.8341    2.9022    0.7885 H   0  0  0  0  0  0  0  0  0  0  0  0
    4.9108   -2.4563   -4.5468 H   0  0  0  0  0  0  0  0  0  0  0  0
    3.4292   -2.1012   -3.6144 H   0  0  0  0  0  0  0  0  0  0  0  0
    5.0325   -1.9670   -2.8333 H   0  0  0  0  0  0  0  0  0  0  0  0
    3.9167    3.9024   -3.6597 H   0  0  0  0  0  0  0  0  0  0  0  0
    2.8561    3.6005   -1.4505 H   0  0  0  0  0  0  0  0  0  0  0  0
    4.7348    1.9387   -4.9596 H   0  0  0  0  0  0  0  0  0  0  0  0
    3.3982   -0.6496   -1.7764 H   0  0  0  0  0  0  0  0  0  0  0  0
  1 13  1  0  0  0  0
  1 11  1  0  0  0  0
  2 15  1  0  0  0  0
  2 16  1  0  0  0  0
  3  4  2  0  0  0  0
  4  7  1  0  0  0  0
  4 18  1  0  0  0  0
  5  8  2  0  0  0  0
  5  3  1  0  0  0  0
  6 20  1  0  0  0  0
  6  7  2  0  0  0  0
  7  9  1  0  0  0  0
  8  6  1  0  0  0  0
  9  1  1  0  0  0  0
 10  2  1  0  0  0  0
 10  8  1  0  0  0  0
 12  1  1  0  0  0  0
 14  2  1  0  0  0  0
 17  3  1  0  0  0  0
 19  5  1  0  0  0  0
M  END
>  <HBA>
2

>  <HBD>
0

>  <TPSA>
18.46

>  <cid>
9025

>  <dipole>
1.29

>  <excitation_energy_1>
4.997

>  <excitation_energy_2>
5.363

>  <excitation_energy_3>
5.594

>  <excitation_energy_4>
5.664

>  <homo_energy>
-5.622

>  <homo_lumo_gap>
5.938

>  <logP>
1.704

>  <lumo_energy>
0.316

>  <melting_point>
14.53

>  <molecular_refractivity>
39.43

>  <oscillator_strength_1>
0.0376

>  <oscillator_strength_2>
0.0018

>  <oscillator_strength_3>
0.0088

>  <oscillator_strength_4>
0.0254

>  <open_babel_can_smiles>
COc1cccc(c1)OC

>  <mulliken_charges>
20
1   -0.212879
2   -0.212896
3   -0.140388
4   -0.205503
5   -0.174224
6   -0.256676
7   0.377078
8   0.3795
9   -0.510228
10   -0.509714
11   0.167135
12   0.151469
13   0.151581
14   0.167593
15   0.152501
16   0.152404
17   0.128939
18   0.125311
19   0.132075
20   0.136921

>  <lowdin_charges>
20
1   -0.280664
2   -0.276694
3   -0.137387
4   -0.240169
5   -0.20275
6   -0.243663
7   0.112773
8   0.109447
9   -0.201284
10   -0.198737
11   0.161777
12   0.1459
13   0.145998
14   0.162957
15   0.144307
16   0.145359
17   0.157481
18   0.161424
19   0.164422
20   0.169503

$$$$

