PCCDB-ID:  34677
public computational chemistry database (PCCDB) project, http://pccdb.org

 24 25  0  0  1  0  0  0  0  0999 V2000
    2.4775    0.6928    0.0113 C   0  0  0  0  0  0  0  0  0  0  0  0
    2.4670   -0.7038   -0.0124 C   0  0  0  0  0  0  0  0  0  0  0  0
    1.2709    1.3872    0.0247 C   0  0  0  0  0  0  0  0  0  0  0  0
    1.2506   -1.3808   -0.0256 C   0  0  0  0  0  0  0  0  0  0  0  0
   -1.2515    1.5116    0.0755 C   0  0  0  0  0  0  0  0  0  0  0  0
   -2.4817    0.7002   -0.3510 C   0  0  0  0  0  0  0  0  0  0  0  0
   -1.2699   -1.4761   -0.0732 C   0  0  0  0  0  0  0  0  0  0  0  0
    0.0404    0.7148    0.0154 C   0  0  0  0  0  0  0  0  0  0  0  0
    0.0294   -0.6912   -0.0169 C   0  0  0  0  0  0  0  0  0  0  0  0
   -2.5054   -0.6710    0.3457 C   0  0  2  0  0  0  0  0  0  0  0  0
   -3.7058   -1.4809    0.1050 N   0  0  0  0  0  0  0  0  0  0  0  0
    3.4190    1.2360    0.0185 H   0  0  0  0  0  0  0  0  0  0  0  0
    3.4003   -1.2608   -0.0193 H   0  0  0  0  0  0  0  0  0  0  0  0
    1.2760    2.4755    0.0445 H   0  0  0  0  0  0  0  0  0  0  0  0
    1.2397   -2.4689   -0.0454 H   0  0  0  0  0  0  0  0  0  0  0  0
   -1.4017    1.8657    1.1071 H   0  0  0  0  0  0  0  0  0  0  0  0
   -1.1584    2.4168   -0.5379 H   0  0  0  0  0  0  0  0  0  0  0  0
   -2.4742    0.5445   -1.4405 H   0  0  0  0  0  0  0  0  0  0  0  0
   -3.3976    1.2590   -0.1159 H   0  0  0  0  0  0  0  0  0  0  0  0
   -1.1991   -2.3804    0.5420 H   0  0  0  0  0  0  0  0  0  0  0  0
   -1.4285   -1.8291   -1.1059 H   0  0  0  0  0  0  0  0  0  0  0  0
   -2.4562   -0.5016    1.4316 H   0  0  0  0  0  0  0  0  0  0  0  0
   -3.8158   -1.6279   -0.8996 H   0  0  0  0  0  0  0  0  0  0  0  0
   -4.5324   -0.9624    0.4018 H   0  0  0  0  0  0  0  0  0  0  0  0
  1 12  1  0  0  0  0
  1  3  1  0  0  0  0
  2  1  2  0  0  0  0
  3 14  1  0  0  0  0
  4  9  2  0  0  0  0
  4  2  1  0  0  0  0
  5 16  1  0  0  0  0
  6 19  1  0  0  0  0
  6  5  1  0  0  0  0
  6 10  1  0  0  0  0
  7  9  1  0  0  0  0
  7 10  1  0  0  0  0
  7 20  1  0  0  0  0
  8  3  2  0  0  0  0
  8  5  1  0  0  0  0
  9  8  1  0  0  0  0
 10 22  1  1  0  0  0
 11 10  1  0  0  0  0
 11 24  1  0  0  0  0
 13  2  1  0  0  0  0
 15  4  1  0  0  0  0
 17  5  1  0  0  0  0
 18  6  1  0  0  0  0
 21  7  1  0  0  0  0
 23 11  1  0  0  0  0
M  END
>  <HBA>
1

>  <HBD>
1

>  <TPSA>
26.02

>  <cid>
34677

>  <dipole>
1.48

>  <excitation_energy_1>
5.147

>  <excitation_energy_2>
5.558

>  <excitation_energy_3>
5.672

>  <excitation_energy_4>
5.697

>  <homo_energy>
-6.221

>  <homo_lumo_gap>
6.321

>  <logP>
2.203

>  <lumo_energy>
0.101

>  <melting_point>
87.49

>  <molecular_refractivity>
46.58

>  <oscillator_strength_1>
0.0077

>  <oscillator_strength_2>
0.0227

>  <oscillator_strength_3>
0.0029

>  <oscillator_strength_4>
0.0044

>  <open_babel_can_smiles>
N[C@@H]1CCc2c(C1)cccc2

>  <mulliken_charges>
24
1   -0.129243
2   -0.13056
3   -0.188237
4   -0.189964
5   -0.346106
6   -0.272683
7   -0.33436
8   0.118786
9   0.121247
10   0.016382
11   -0.712392
12   0.124277
13   0.124706
14   0.117957
15   0.120434
16   0.151148
17   0.14505
18   0.127697
19   0.123331
20   0.159865
21   0.139523
22   0.133477
23   0.287203
24   0.292462

>  <lowdin_charges>
24
1   -0.161329
2   -0.161175
3   -0.16222
4   -0.161196
5   -0.275714
6   -0.292854
7   -0.276026
8   -0.016773
9   -0.015792
10   -0.067319
11   -0.545399
12   0.15563
13   0.155939
14   0.150088
15   0.151434
16   0.150523
17   0.152481
18   0.135906
19   0.140479
20   0.160219
21   0.146278
22   0.136953
23   0.246821
24   0.253045

$$$$

