PCCDB-ID:  23769
public computational chemistry database (PCCDB) project, http://pccdb.org

 36 38  0  0  0  0  0  0  0  0999 V2000
    0.9651   -0.2726    0.2602 C   0  0  0  0  0  0  0  0  0  0  0  0
    4.9867    6.2855   -0.1011 C   0  0  0  0  0  0  0  0  0  0  0  0
    2.3466    2.1218    1.0899 C   0  0  0  0  0  0  0  0  0  0  0  0
    3.4786    3.9677   -0.9318 C   0  0  0  0  0  0  0  0  0  0  0  0
    3.1704   -1.2274   -0.4808 C   0  0  0  0  0  0  0  0  0  0  0  0
    6.8373    4.7525    0.6396 C   0  0  0  0  0  0  0  0  0  0  0  0
    4.5473   -1.1830   -0.5586 C   0  0  0  0  0  0  0  0  0  0  0  0
    7.4224    3.5054    0.7161 C   0  0  0  0  0  0  0  0  0  0  0  0
    6.6738   -0.0149   -0.1390 C   0  0  0  0  0  0  0  0  0  0  0  0
    7.3456    1.0805    0.2957 C   0  0  0  0  0  0  0  0  0  0  0  0
    2.4489   -0.1242    0.0089 C   0  0  0  0  0  0  0  0  0  0  0  0
    5.5266    4.8956    0.1504 C   0  0  0  0  0  0  0  0  0  0  0  0
    3.1172    1.0748    0.3103 C   0  0  0  0  0  0  0  0  0  0  0  0
    4.7609    3.7564   -0.1515 C   0  0  0  0  0  0  0  0  0  0  0  0
    5.2424    0.0047   -0.2617 C   0  0  0  0  0  0  0  0  0  0  0  0
    6.6790    2.3474    0.4193 C   0  0  0  0  0  0  0  0  0  0  0  0
    4.5142    1.2019    0.0334 C   0  0  0  0  0  0  0  0  0  0  0  0
    5.2817    2.4535    0.1250 C   0  0  0  0  0  0  0  0  0  0  0  0
    0.5936   -1.2144   -0.1552 H   0  0  0  0  0  0  0  0  0  0  0  0
    0.3851    0.5434   -0.1878 H   0  0  0  0  0  0  0  0  0  0  0  0
    0.7293   -0.2726    1.3335 H   0  0  0  0  0  0  0  0  0  0  0  0
    5.6564    7.0433    0.3170 H   0  0  0  0  0  0  0  0  0  0  0  0
    3.9949    6.4323    0.3437 H   0  0  0  0  0  0  0  0  0  0  0  0
    4.8837    6.4959   -1.1746 H   0  0  0  0  0  0  0  0  0  0  0  0
    1.8631    1.6468    1.9524 H   0  0  0  0  0  0  0  0  0  0  0  0
    1.5475    2.5960    0.5079 H   0  0  0  0  0  0  0  0  0  0  0  0
    2.9981    2.9073    1.4735 H   0  0  0  0  0  0  0  0  0  0  0  0
    3.6820    4.6162   -1.7929 H   0  0  0  0  0  0  0  0  0  0  0  0
    2.6918    4.4624   -0.3501 H   0  0  0  0  0  0  0  0  0  0  0  0
    3.0758    3.0308   -1.3172 H   0  0  0  0  0  0  0  0  0  0  0  0
    2.6395   -2.1445   -0.7245 H   0  0  0  0  0  0  0  0  0  0  0  0
    7.4141    5.6415    0.8835 H   0  0  0  0  0  0  0  0  0  0  0  0
    5.1145   -2.0728   -0.8213 H   0  0  0  0  0  0  0  0  0  0  0  0
    8.4729    3.4035    0.9780 H   0  0  0  0  0  0  0  0  0  0  0  0
    7.1924   -0.9524   -0.3246 H   0  0  0  0  0  0  0  0  0  0  0  0
    8.4166    1.0436    0.4802 H   0  0  0  0  0  0  0  0  0  0  0  0
  1 21  1  0  0  0  0
  2 12  1  0  0  0  0
  2 22  1  0  0  0  0
  2 23  1  0  0  0  0
  3 27  1  0  0  0  0
  3 25  1  0  0  0  0
  4 29  1  0  0  0  0
  4 14  1  0  0  0  0
  5 11  1  0  0  0  0
  6  8  2  0  0  0  0
  6 32  1  0  0  0  0
  7  5  2  0  0  0  0
  7 15  1  0  0  0  0
  8 34  1  0  0  0  0
  9 10  1  0  0  0  0
 10 16  2  0  0  0  0
 10 36  1  0  0  0  0
 11  1  1  0  0  0  0
 11 13  2  0  0  0  0
 12  6  1  0  0  0  0
 13  3  1  0  0  0  0
 14 18  1  0  0  0  0
 14 12  2  0  0  0  0
 15  9  2  0  0  0  0
 15 17  1  0  0  0  0
 16  8  1  0  0  0  0
 17 18  2  0  0  0  0
 17 13  1  0  0  0  0
 18 16  1  0  0  0  0
 19  1  1  0  0  0  0
 20  1  1  0  0  0  0
 24  2  1  0  0  0  0
 26  3  1  0  0  0  0
 28  4  1  0  0  0  0
 30  4  1  0  0  0  0
 31  5  1  0  0  0  0
 33  7  1  0  0  0  0
 35  9  1  0  0  0  0
M  END
>  <HBA>
0

>  <HBD>
0

>  <TPSA>
0.0

>  <cid>
23769

>  <dipole>
0.86

>  <excitation_energy_1>
3.731

>  <excitation_energy_2>
3.896

>  <excitation_energy_3>
4.456

>  <excitation_energy_4>
4.753

>  <homo_energy>
-5.293

>  <homo_lumo_gap>
4.362

>  <logP>
5.227

>  <lumo_energy>
-0.931

>  <melting_point>
112.34

>  <molecular_refractivity>
81.32

>  <oscillator_strength_1>
0.0039

>  <oscillator_strength_2>
0.1538

>  <oscillator_strength_3>
0.1307

>  <oscillator_strength_4>
0.6726

>  <open_babel_can_smiles>
Cc1ccc2c(c1C)c1c(cc2)ccc(c1C)C

>  <mulliken_charges>
36
1   -0.531811
2   -0.531787
3   -0.526778
4   -0.526793
5   -0.177664
6   -0.177517
7   -0.204367
8   -0.204305
9   -0.187867
10   -0.187541
11   0.122156
12   0.121838
13   0.052626
14   0.053033
15   0.141598
16   0.141077
17   -0.012821
18   -0.012033
19   0.153901
20   0.157539
21   0.161142
22   0.15391
23   0.157506
24   0.1612
25   0.156808
26   0.153521
27   0.169284
28   0.156721
29   0.153495
30   0.169289
31   0.119992
32   0.119972
33   0.125882
34   0.125905
35   0.126444
36   0.126443

>  <lowdin_charges>
36
1   -0.441126
2   -0.440262
3   -0.447019
4   -0.446486
5   -0.167578
6   -0.168153
7   -0.165139
8   -0.162349
9   -0.161868
10   -0.159403
11   -0.011723
12   -0.01214
13   -0.015263
14   -0.014344
15   -0.002006
16   -0.002596
17   -0.011676
18   -0.01214
19   0.156748
20   0.158151
21   0.157144
22   0.157705
23   0.156658
24   0.157171
25   0.158618
26   0.156291
27   0.167951
28   0.158282
29   0.156311
30   0.167168
31   0.15434
32   0.15461
33   0.156867
34   0.154695
35   0.157272
36   0.155291

$$$$

