PCCDB-ID:  26368
public computational chemistry database (PCCDB) project, http://pccdb.org

 18 18  0  0  0  0  0  0  0  0999 V2000
    0.7412    1.2814   -0.3060 C   0  0  0  0  0  0  0  0  0  0  0  0
    0.9259   -1.1866   -0.1606 C   0  0  0  0  0  0  0  0  0  0  0  0
   -1.2357   -0.1350   -0.8540 C   0  0  0  0  0  0  0  0  0  0  0  0
    1.8612    0.3225    1.5817 N   0  0  0  0  0  0  0  0  0  0  0  0
   -1.4245    1.9851    0.4325 N   0  0  0  0  0  0  0  0  0  0  0  0
   -1.1287   -2.1296    0.6263 N   0  0  0  0  0  0  0  0  0  0  0  0
    1.3524    0.1245    0.3269 N   0  0  0  0  0  0  0  0  0  0  0  0
   -0.7036    1.1312   -0.3575 N   0  0  0  0  0  0  0  0  0  0  0  0
   -0.5235   -1.2448   -0.2256 N   0  0  0  0  0  0  0  0  0  0  0  0
    2.1746   -0.6886    2.1760 O   0  0  0  0  0  0  0  0  0  0  0  0
   -2.6105    1.7405    0.5098 O   0  0  0  0  0  0  0  0  0  0  0  0
   -2.3398   -2.0636    0.6628 O   0  0  0  0  0  0  0  0  0  0  0  0
    1.1344    1.3841   -1.3248 H   0  0  0  0  0  0  0  0  0  0  0  0
    0.9779    2.1699    0.2819 H   0  0  0  0  0  0  0  0  0  0  0  0
    1.2791   -1.9443    0.5406 H   0  0  0  0  0  0  0  0  0  0  0  0
    1.3577   -1.3543   -1.1542 H   0  0  0  0  0  0  0  0  0  0  0  0
   -1.1248   -0.1854   -1.9432 H   0  0  0  0  0  0  0  0  0  0  0  0
   -2.2893   -0.2007   -0.5762 H   0  0  0  0  0  0  0  0  0  0  0  0
  1 14  1  0  0  0  0
  1  7  1  0  0  0  0
  2  7  1  0  0  0  0
  2 15  1  0  0  0  0
  3 18  1  0  0  0  0
  3  8  1  0  0  0  0
  3  9  1  0  0  0  0
  4 10  2  0  0  0  0
  5 11  2  0  0  0  0
  6 12  2  0  0  0  0
  7  4  1  0  0  0  0
  8  1  1  0  0  0  0
  8  5  1  0  0  0  0
  9  2  1  0  0  0  0
  9  6  1  0  0  0  0
 13  1  1  0  0  0  0
 16  2  1  0  0  0  0
 17  3  1  0  0  0  0
M  END
>  <HBA>
9

>  <HBD>
0

>  <TPSA>
98.01

>  <cid>
26368

>  <dipole>
5.76

>  <excitation_energy_1>
3.222

>  <excitation_energy_2>
3.227

>  <excitation_energy_3>
3.289

>  <excitation_energy_4>
4.247

>  <homo_energy>
-6.939

>  <homo_lumo_gap>
4.787

>  <logP>
-0.364

>  <lumo_energy>
-2.152

>  <melting_point>
63.07

>  <molecular_refractivity>
49.07

>  <oscillator_strength_1>
0.0005

>  <oscillator_strength_2>
0.0001

>  <oscillator_strength_3>
0.0003

>  <oscillator_strength_4>
0.0028

>  <open_babel_can_smiles>
O=NN1CN(N=O)CN(C1)N=O

>  <mulliken_charges>
18
1   -0.023715
2   -0.036703
3   -0.05044
4   0.188999
5   0.18619
6   0.188565
7   -0.248238
8   -0.248447
9   -0.249937
10   -0.326854
11   -0.324732
12   -0.325407
13   0.183698
14   0.223154
15   0.236577
16   0.186811
17   0.190786
18   0.249692

>  <lowdin_charges>
18
1   -0.135639
2   -0.149793
3   -0.16122
4   0.082038
5   0.075671
6   0.077955
7   -0.081593
8   -0.078286
9   -0.075816
10   -0.216336
11   -0.211892
12   -0.212506
13   0.160305
14   0.193688
15   0.199954
16   0.164362
17   0.166702
18   0.202406

$$$$

