PCCDB-ID:  7616
public computational chemistry database (PCCDB) project, http://pccdb.org

 31 30  0  0  0  0  0  0  0  0999 V2000
    0.5908   -1.2200    0.4323 C   0  0  0  0  0  0  0  0  0  0  0  0
    6.0439    1.7854   -0.5155 C   0  0  0  0  0  0  0  0  0  0  0  0
    5.9000   -3.6282    3.7095 C   0  0  0  0  0  0  0  0  0  0  0  0
    1.7553   -0.5601    1.1784 C   0  0  0  0  0  0  0  0  0  0  0  0
    5.5145    0.4115   -0.0903 C   0  0  0  0  0  0  0  0  0  0  0  0
    4.8126   -2.6178    3.3298 C   0  0  0  0  0  0  0  0  0  0  0  0
    3.0721   -1.3262    0.9980 C   0  0  0  0  0  0  0  0  0  0  0  0
    4.7315    0.4832    1.2374 C   0  0  0  0  0  0  0  0  0  0  0  0
    5.2070   -1.7556    2.1228 C   0  0  0  0  0  0  0  0  0  0  0  0
    4.1845   -0.7672    1.7698 N   0  0  0  0  0  0  0  0  0  0  0  0
   -0.3409   -0.6621    0.5774 H   0  0  0  0  0  0  0  0  0  0  0  0
    0.4220   -2.2454    0.7843 H   0  0  0  0  0  0  0  0  0  0  0  0
    0.7832   -1.2694   -0.6467 H   0  0  0  0  0  0  0  0  0  0  0  0
    6.5982    1.7278   -1.4590 H   0  0  0  0  0  0  0  0  0  0  0  0
    6.7192    2.2031    0.2417 H   0  0  0  0  0  0  0  0  0  0  0  0
    5.2242    2.5014   -0.6550 H   0  0  0  0  0  0  0  0  0  0  0  0
    5.6014   -4.2266    4.5774 H   0  0  0  0  0  0  0  0  0  0  0  0
    6.8416   -3.1248    3.9623 H   0  0  0  0  0  0  0  0  0  0  0  0
    6.1085   -4.3211    2.8847 H   0  0  0  0  0  0  0  0  0  0  0  0
    1.5359   -0.5012    2.2517 H   0  0  0  0  0  0  0  0  0  0  0  0
    1.8668    0.4740    0.8278 H   0  0  0  0  0  0  0  0  0  0  0  0
    6.3540   -0.2883    0.0156 H   0  0  0  0  0  0  0  0  0  0  0  0
    4.8733    0.0070   -0.8840 H   0  0  0  0  0  0  0  0  0  0  0  0
    4.6002   -1.9496    4.1735 H   0  0  0  0  0  0  0  0  0  0  0  0
    3.8774   -3.1530    3.1188 H   0  0  0  0  0  0  0  0  0  0  0  0
    3.3063   -1.4078   -0.0813 H   0  0  0  0  0  0  0  0  0  0  0  0
    2.9137   -2.3536    1.3452 H   0  0  0  0  0  0  0  0  0  0  0  0
    3.9052    1.1956    1.1219 H   0  0  0  0  0  0  0  0  0  0  0  0
    5.3886    0.9087    2.0090 H   0  0  0  0  0  0  0  0  0  0  0  0
    5.4685   -2.4137    1.2715 H   0  0  0  0  0  0  0  0  0  0  0  0
    6.1251   -1.2109    2.3776 H   0  0  0  0  0  0  0  0  0  0  0  0
  1 11  1  0  0  0  0
  1 12  1  0  0  0  0
  1  4  1  0  0  0  0
  2  5  1  0  0  0  0
  2 15  1  0  0  0  0
  3 18  1  0  0  0  0
  3 17  1  0  0  0  0
  4 20  1  0  0  0  0
  5 22  1  0  0  0  0
  5  8  1  0  0  0  0
  6  3  1  0  0  0  0
  6 24  1  0  0  0  0
  7  4  1  0  0  0  0
  7 27  1  0  0  0  0
  7 10  1  0  0  0  0
  8 10  1  0  0  0  0
  8 29  1  0  0  0  0
  9 31  1  0  0  0  0
  9  6  1  0  0  0  0
 10  9  1  0  0  0  0
 13  1  1  0  0  0  0
 14  2  1  0  0  0  0
 16  2  1  0  0  0  0
 19  3  1  0  0  0  0
 21  4  1  0  0  0  0
 23  5  1  0  0  0  0
 25  6  1  0  0  0  0
 26  7  1  0  0  0  0
 28  8  1  0  0  0  0
 30  9  1  0  0  0  0
M  END
>  <HBA>
1

>  <HBD>
0

>  <TPSA>
3.24

>  <cid>
7616

>  <dipole>
0.51

>  <excitation_energy_1>
5.01

>  <excitation_energy_2>
5.243

>  <excitation_energy_3>
5.327

>  <excitation_energy_4>
5.335

>  <homo_energy>
-5.312

>  <homo_lumo_gap>
7.557

>  <logP>
2.518

>  <lumo_energy>
2.245

>  <melting_point>
-25.92

>  <molecular_refractivity>
48.27

>  <oscillator_strength_1>
0.0124

>  <oscillator_strength_2>
0.019

>  <oscillator_strength_3>
0.0105

>  <oscillator_strength_4>
0.0042

>  <open_babel_can_smiles>
CCCN(CCC)CCC

>  <mulliken_charges>
31
1   -0.447401
2   -0.444022
3   -0.448103
4   -0.251448
5   -0.263328
6   -0.246012
7   -0.116777
8   -0.134551
9   -0.117033
10   -0.387581
11   0.144344
12   0.141033
13   0.141456
14   0.143864
15   0.141525
16   0.141738
17   0.144385
18   0.140704
19   0.14145
20   0.142466
21   0.133553
22   0.135941
23   0.136363
24   0.14074
25   0.133156
26   0.111302
27   0.133446
28   0.134879
29   0.132376
30   0.11152
31   0.130017

>  <lowdin_charges>
31
1   -0.442411
2   -0.445381
3   -0.447383
4   -0.27615
5   -0.294866
6   -0.280032
7   -0.197894
8   -0.207997
9   -0.201185
10   -0.188783
11   0.151069
12   0.144791
13   0.144229
14   0.1506
15   0.147203
16   0.146781
17   0.151735
18   0.145658
19   0.146717
20   0.144469
21   0.138355
22   0.141901
23   0.142119
24   0.146153
25   0.139612
26   0.114995
27   0.141883
28   0.141652
29   0.140764
30   0.119628
31   0.141767

$$$$

