PCCDB-ID:  19416
public computational chemistry database (PCCDB) project, http://pccdb.org

 18 18  0  0  0  0  0  0  0  0999 V2000
   -0.2614    1.4034    0.0539 C   0  0  0  0  0  0  0  0  0  0  0  0
    1.0623    0.9175    0.2262 C   0  0  0  0  0  0  0  0  0  0  0  0
   -1.0322    0.3048   -0.2109 C   0  0  0  0  0  0  0  0  0  0  0  0
    2.0418   -1.4327    0.1137 C   0  0  0  0  0  0  0  0  0  0  0  0
    0.7240   -3.4771   -0.2074 C   0  0  0  0  0  0  0  0  0  0  0  0
    1.9611   -2.7853   -0.0287 C   0  0  0  0  0  0  0  0  0  0  0  0
    1.0100   -0.4514    0.0546 C   0  0  0  0  0  0  0  0  0  0  0  0
    3.1940   -3.6502    0.0541 C   0  0  0  0  0  0  0  0  0  0  0  0
   -0.2187   -4.1534   -0.3223 N   0  0  0  0  0  0  0  0  0  0  0  0
    4.3941   -3.2920   -0.1690 N   0  0  0  0  0  0  0  0  0  0  0  0
    2.9848   -4.9388    0.4178 O   0  0  0  0  0  0  0  0  0  0  0  0
   -0.2826   -0.8222   -0.2152 O   0  0  0  0  0  0  0  0  0  0  0  0
   -0.6007    2.4274    0.1167 H   0  0  0  0  0  0  0  0  0  0  0  0
    1.9495    1.4939    0.4502 H   0  0  0  0  0  0  0  0  0  0  0  0
   -2.0842    0.1664   -0.4097 H   0  0  0  0  0  0  0  0  0  0  0  0
    3.0263   -1.0195    0.3181 H   0  0  0  0  0  0  0  0  0  0  0  0
    4.4362   -2.3283   -0.4990 H   0  0  0  0  0  0  0  0  0  0  0  0
    2.0393   -5.1060    0.5672 H   0  0  0  0  0  0  0  0  0  0  0  0
  1 13  1  0  0  0  0
  1  2  1  0  0  0  0
  2 14  1  0  0  0  0
  3  1  2  0  0  0  0
  4 16  1  0  0  0  0
  5  6  1  0  0  0  0
  6  8  1  0  0  0  0
  6  4  2  0  0  0  0
  7  4  1  0  0  0  0
  7  2  2  0  0  0  0
  8 11  1  0  0  0  0
  9  5  3  0  0  0  0
 10  8  2  0  0  0  0
 11 18  1  0  0  0  0
 12  3  1  0  0  0  0
 12  7  1  0  0  0  0
 15  3  1  0  0  0  0
 17 10  1  0  0  0  0
M  END
>  <HBA>
4

>  <HBD>
1

>  <TPSA>
80.02

>  <cid>
19416

>  <dipole>
6.81

>  <excitation_energy_1>
3.744

>  <excitation_energy_2>
3.982

>  <excitation_energy_3>
4.392

>  <excitation_energy_4>
5.164

>  <homo_energy>
-6.517

>  <homo_lumo_gap>
3.861

>  <logP>
1.372

>  <lumo_energy>
-2.656

>  <melting_point>
137.7

>  <molecular_refractivity>
41.07

>  <oscillator_strength_1>
0.4555

>  <oscillator_strength_2>
0.0055

>  <oscillator_strength_3>
0.1214

>  <oscillator_strength_4>
0.06

>  <open_babel_can_smiles>
N#C/C(=C\c1ccco1)/C(=N)O

>  <mulliken_charges>
18
1   -0.188818
2   -0.176084
3   0.118127
4   -0.205185
5   0.240637
6   0.084097
7   0.34822
8   0.474268
9   -0.487489
10   -0.581825
11   -0.581431
12   -0.434501
13   0.163545
14   0.165298
15   0.181857
16   0.169151
17   0.287031
18   0.423103

>  <lowdin_charges>
18
1   -0.195765
2   -0.170697
3   -0.03825
4   -0.109564
5   -0.024838
6   -0.080204
7   0.060922
8   0.135914
9   -0.114371
10   -0.385497
11   -0.34725
12   -0.074096
13   0.179353
14   0.180443
15   0.183018
16   0.182145
17   0.255622
18   0.363113

$$$$

