PCCDB-ID:  72490
public computational chemistry database (PCCDB) project, http://pccdb.org

 21 21  0  0  0  0  0  0  0  0999 V2000
   -1.3856   -0.0791   -0.2047 C   0  0  0  0  0  0  0  0  0  0  0  0
   -0.6380    1.0867   -0.1327 C   0  0  0  0  0  0  0  0  0  0  0  0
    0.6278   -1.3532    0.1782 C   0  0  0  0  0  0  0  0  0  0  0  0
   -0.7558   -1.3273   -0.0509 C   0  0  0  0  0  0  0  0  0  0  0  0
    0.7538    1.0868    0.0775 C   0  0  0  0  0  0  0  0  0  0  0  0
    1.3631   -0.1701    0.2465 C   0  0  0  0  0  0  0  0  0  0  0  0
    1.4704    2.3896    0.1299 C   0  0  0  0  0  0  0  0  0  0  0  0
   -1.4951   -2.5069   -0.0624 N   0  0  0  0  0  0  0  0  0  0  0  0
    3.1540    1.9419   -1.3876 N   0  0  0  0  0  0  0  0  0  0  0  0
    2.5268    2.7844   -0.4657 N   0  0  0  0  0  0  0  0  0  0  0  0
    2.7122   -0.1995    0.5045 O   0  0  0  0  0  0  0  0  0  0  0  0
    0.8140    3.3693    0.8557 O   0  0  0  0  0  0  0  0  0  0  0  0
   -2.4570   -0.0323   -0.3808 H   0  0  0  0  0  0  0  0  0  0  0  0
   -1.1326    2.0445   -0.2654 H   0  0  0  0  0  0  0  0  0  0  0  0
    1.1323   -2.3079    0.3235 H   0  0  0  0  0  0  0  0  0  0  0  0
   -2.3843   -2.4536   -0.5428 H   0  0  0  0  0  0  0  0  0  0  0  0
   -0.9830   -3.3439   -0.3103 H   0  0  0  0  0  0  0  0  0  0  0  0
    4.0634    2.3565   -1.5683 H   0  0  0  0  0  0  0  0  0  0  0  0
    3.3025    1.0066   -1.0059 H   0  0  0  0  0  0  0  0  0  0  0  0
    2.9909   -1.1207    0.6261 H   0  0  0  0  0  0  0  0  0  0  0  0
    0.3035    2.9238    1.5493 H   0  0  0  0  0  0  0  0  0  0  0  0
  1  2  2  0  0  0  0
  1  4  1  0  0  0  0
  2  5  1  0  0  0  0
  3  6  1  0  0  0  0
  3 15  1  0  0  0  0
  4  3  2  0  0  0  0
  5  7  1  0  0  0  0
  5  6  2  0  0  0  0
  6 11  1  0  0  0  0
  7 12  1  0  0  0  0
  8  4  1  0  0  0  0
  9 19  1  0  0  0  0
  9 10  1  0  0  0  0
 10  7  2  0  0  0  0
 11 20  1  0  0  0  0
 12 21  1  0  0  0  0
 13  1  1  0  0  0  0
 14  2  1  0  0  0  0
 16  8  1  0  0  0  0
 17  8  1  0  0  0  0
 18  9  1  0  0  0  0
M  END
>  <HBA>
5

>  <HBD>
4

>  <TPSA>
101.37

>  <cid>
72490

>  <dipole>
6.81

>  <excitation_energy_1>
3.992

>  <excitation_energy_2>
4.254

>  <excitation_energy_3>
4.351

>  <excitation_energy_4>
4.64

>  <homo_energy>
-4.993

>  <homo_lumo_gap>
4.68

>  <logP>
1.25

>  <lumo_energy>
-0.313

>  <melting_point>
211.44

>  <molecular_refractivity>
43.77

>  <oscillator_strength_1>
0.0608

>  <oscillator_strength_2>
0.0036

>  <oscillator_strength_3>
0.0873

>  <oscillator_strength_4>
0.0059

>  <open_babel_can_smiles>
N/N=C(\c1ccc(cc1O)N)/O

>  <mulliken_charges>
21
1   -0.173833
2   -0.19979
3   -0.24552
4   0.324447
5   0.039603
6   0.302319
7   0.41786
8   -0.792084
9   -0.593423
10   -0.320928
11   -0.650919
12   -0.598879
13   0.122803
14   0.15306
15   0.110047
16   0.327628
17   0.323893
18   0.316906
19   0.327144
20   0.413623
21   0.396043

>  <lowdin_charges>
21
1   -0.213639
2   -0.134256
3   -0.254753
4   0.075645
5   -0.095817
6   0.112573
7   0.084532
8   -0.479712
9   -0.457024
10   -0.138734
11   -0.373224
12   -0.389373
13   0.155223
14   0.170035
15   0.150624
16   0.280181
17   0.278713
18   0.263038
19   0.255463
20   0.359384
21   0.35112

$$$$

