PCCDB-ID:  61571
public computational chemistry database (PCCDB) project, http://pccdb.org

 32 32  0  0  0  0  0  0  0  0999 V2000
    2.9027    0.3904   -1.7083 C   0  0  0  0  0  0  0  0  0  0  0  0
    0.9584   -2.6193   -0.6838 C   0  0  0  0  0  0  0  0  0  0  0  0
    2.4960   -0.1092   -0.3099 C   0  0  0  0  0  0  0  0  0  0  0  0
    2.4869   -2.5255   -0.6829 C   0  0  0  0  0  0  0  0  0  0  0  0
    4.9782   -1.5571    3.2249 C   0  0  0  0  0  0  0  0  0  0  0  0
    4.4805   -2.7865    2.4496 C   0  0  0  0  0  0  0  0  0  0  0  0
    4.6081   -0.2512    2.5046 C   0  0  0  0  0  0  0  0  0  0  0  0
    4.9618   -2.7522    0.9916 C   0  0  0  0  0  0  0  0  0  0  0  0
    5.0700   -0.2720    1.0380 C   0  0  0  0  0  0  0  0  0  0  0  0
    4.4984   -1.4736    0.2496 C   0  0  0  0  0  0  0  0  0  0  0  0
    3.0224   -1.4149    0.1169 N   0  0  0  0  0  0  0  0  0  0  0  0
    2.4334    1.3608   -1.9094 H   0  0  0  0  0  0  0  0  0  0  0  0
    2.5850   -0.2994   -2.4983 H   0  0  0  0  0  0  0  0  0  0  0  0
    3.9869    0.5213   -1.7970 H   0  0  0  0  0  0  0  0  0  0  0  0
    0.6512   -3.5686   -1.1373 H   0  0  0  0  0  0  0  0  0  0  0  0
    0.4799   -1.8183   -1.2563 H   0  0  0  0  0  0  0  0  0  0  0  0
    0.5715   -2.5876    0.3408 H   0  0  0  0  0  0  0  0  0  0  0  0
    1.4043   -0.1628   -0.2551 H   0  0  0  0  0  0  0  0  0  0  0  0
    2.7818    0.6369    0.4365 H   0  0  0  0  0  0  0  0  0  0  0  0
    2.8531   -2.5007   -1.7285 H   0  0  0  0  0  0  0  0  0  0  0  0
    2.8663   -3.4560   -0.2557 H   0  0  0  0  0  0  0  0  0  0  0  0
    6.0729   -1.6146    3.3246 H   0  0  0  0  0  0  0  0  0  0  0  0
    4.5723   -1.5573    4.2448 H   0  0  0  0  0  0  0  0  0  0  0  0
    3.3837   -2.8073    2.4639 H   0  0  0  0  0  0  0  0  0  0  0  0
    4.8278   -3.7070    2.9365 H   0  0  0  0  0  0  0  0  0  0  0  0
    5.0574    0.6064    3.0222 H   0  0  0  0  0  0  0  0  0  0  0  0
    3.5202   -0.1127    2.5441 H   0  0  0  0  0  0  0  0  0  0  0  0
    4.6580   -3.6617    0.4639 H   0  0  0  0  0  0  0  0  0  0  0  0
    6.0609   -2.7541    0.9711 H   0  0  0  0  0  0  0  0  0  0  0  0
    6.1647   -0.3654    1.0090 H   0  0  0  0  0  0  0  0  0  0  0  0
    4.8428    0.6792    0.5456 H   0  0  0  0  0  0  0  0  0  0  0  0
    4.9737   -1.4782   -0.7514 H   0  0  0  0  0  0  0  0  0  0  0  0
  1  3  1  0  0  0  0
  2  4  1  0  0  0  0
  2 17  1  0  0  0  0
  3 18  1  0  0  0  0
  3 11  1  0  0  0  0
  3 19  1  0  0  0  0
  4 21  1  0  0  0  0
  4 11  1  0  0  0  0
  5 22  1  0  0  0  0
  5 23  1  0  0  0  0
  6 24  1  0  0  0  0
  6 25  1  0  0  0  0
  6  5  1  0  0  0  0
  7 27  1  0  0  0  0
  7 26  1  0  0  0  0
  7  5  1  0  0  0  0
  8  6  1  0  0  0  0
  9  7  1  0  0  0  0
 10  8  1  0  0  0  0
 10  9  1  0  0  0  0
 11 10  1  0  0  0  0
 12  1  1  0  0  0  0
 13  1  1  0  0  0  0
 14  1  1  0  0  0  0
 15  2  1  0  0  0  0
 16  2  1  0  0  0  0
 20  4  1  0  0  0  0
 28  8  1  0  0  0  0
 29  8  1  0  0  0  0
 30  9  1  0  0  0  0
 31  9  1  0  0  0  0
 32 10  1  0  0  0  0
M  END
>  <HBA>
1

>  <HBD>
0

>  <TPSA>
3.24

>  <cid>
61571

>  <dipole>
0.51

>  <excitation_energy_1>
4.925

>  <excitation_energy_2>
5.227

>  <excitation_energy_3>
5.368

>  <excitation_energy_4>
5.411

>  <homo_energy>
-5.412

>  <homo_lumo_gap>
7.475

>  <logP>
2.661

>  <lumo_energy>
2.063

>  <melting_point>
-4.0

>  <molecular_refractivity>
50.97

>  <oscillator_strength_1>
0.0177

>  <oscillator_strength_2>
0.0101

>  <oscillator_strength_3>
0.0039

>  <oscillator_strength_4>
0.0062

>  <open_babel_can_smiles>
CCN(C1CCCCC1)CC

>  <mulliken_charges>
32
1   -0.46042
2   -0.462151
3   -0.138312
4   -0.107066
5   -0.257599
6   -0.249887
7   -0.252999
8   -0.284606
9   -0.294807
10   0.075224
11   -0.398927
12   0.140614
13   0.148005
14   0.149696
15   0.142167
16   0.147929
17   0.15502
18   0.141828
19   0.143531
20   0.109191
21   0.143131
22   0.122075
23   0.127115
24   0.145802
25   0.123184
26   0.124689
27   0.145611
28   0.133538
29   0.125785
30   0.128757
31   0.136039
32   0.097845

>  <lowdin_charges>
32
1   -0.465848
2   -0.452569
3   -0.207336
4   -0.198983
5   -0.272745
6   -0.27775
7   -0.278234
8   -0.283765
9   -0.284967
10   -0.059925
11   -0.197281
12   0.151683
13   0.150007
14   0.147428
15   0.15288
16   0.148619
17   0.153184
18   0.144001
19   0.146525
20   0.113718
21   0.147671
22   0.131807
23   0.140518
24   0.144488
25   0.140423
26   0.141479
27   0.143808
28   0.142881
29   0.138375
30   0.140955
31   0.144011
32   0.114945

$$$$

