PCCDB-ID:  22676
public computational chemistry database (PCCDB) project, http://pccdb.org

 30 30  0  0  0  0  0  0  0  0999 V2000
    2.7138   -2.7101   -1.1876 C   0  0  0  0  0  0  0  0  0  0  0  0
    1.1943   -0.8951   -1.6013 C   0  0  0  0  0  0  0  0  0  0  0  0
    6.9465   -1.7874   -5.8802 C   0  0  0  0  0  0  0  0  0  0  0  0
    7.6430   -0.5540   -1.2687 C   0  0  0  0  0  0  0  0  0  0  0  0
    7.1336   -0.2297   -0.0187 C   0  0  0  0  0  0  0  0  0  0  0  0
    5.3874   -0.8230   -2.1023 C   0  0  0  0  0  0  0  0  0  0  0  0
    3.3543   -0.4471   -0.6189 C   0  0  0  0  0  0  0  0  0  0  0  0
    6.7723   -0.8521   -2.3245 C   0  0  0  0  0  0  0  0  0  0  0  0
    4.8543   -0.5089   -0.8538 C   0  0  0  0  0  0  0  0  0  0  0  0
    5.7488   -0.2041    0.1892 C   0  0  0  0  0  0  0  0  0  0  0  0
    7.3677   -1.1893   -3.6415 C   0  0  0  0  0  0  0  0  0  0  0  0
    2.5927   -1.2979   -1.5333 N   0  0  0  0  0  0  0  0  0  0  0  0
    5.2106    0.1266    1.4019 O   0  0  0  0  0  0  0  0  0  0  0  0
    8.5623   -1.2247   -3.8729 O   0  0  0  0  0  0  0  0  0  0  0  0
    6.4306   -1.4598   -4.5833 O   0  0  0  0  0  0  0  0  0  0  0  0
    2.2033   -3.3184   -1.9420 H   0  0  0  0  0  0  0  0  0  0  0  0
    2.2753   -2.9479   -0.1982 H   0  0  0  0  0  0  0  0  0  0  0  0
    3.7678   -3.0015   -1.1717 H   0  0  0  0  0  0  0  0  0  0  0  0
    0.6699   -1.5210   -2.3317 H   0  0  0  0  0  0  0  0  0  0  0  0
    1.1220    0.1467   -1.9319 H   0  0  0  0  0  0  0  0  0  0  0  0
    0.6632   -0.9868   -0.6331 H   0  0  0  0  0  0  0  0  0  0  0  0
    6.0713   -1.9532   -6.5097 H   0  0  0  0  0  0  0  0  0  0  0  0
    7.5622   -2.6900   -5.8345 H   0  0  0  0  0  0  0  0  0  0  0  0
    7.5528   -0.9669   -6.2737 H   0  0  0  0  0  0  0  0  0  0  0  0
    8.7127   -0.5796   -1.4470 H   0  0  0  0  0  0  0  0  0  0  0  0
    7.8058    0.0074    0.8044 H   0  0  0  0  0  0  0  0  0  0  0  0
    4.6995   -1.0562   -2.9066 H   0  0  0  0  0  0  0  0  0  0  0  0
    3.0202    0.5883   -0.7718 H   0  0  0  0  0  0  0  0  0  0  0  0
    3.1379   -0.6803    0.4391 H   0  0  0  0  0  0  0  0  0  0  0  0
    5.9304    0.2900    2.0315 H   0  0  0  0  0  0  0  0  0  0  0  0
  1 18  1  0  0  0  0
  1 17  1  0  0  0  0
  2 12  1  0  0  0  0
  2 21  1  0  0  0  0
  3 23  1  0  0  0  0
  3 15  1  0  0  0  0
  4  5  2  0  0  0  0
  5 10  1  0  0  0  0
  5 26  1  0  0  0  0
  6  9  1  0  0  0  0
  7 29  1  0  0  0  0
  8  6  2  0  0  0  0
  8  4  1  0  0  0  0
  9  7  1  0  0  0  0
  9 10  2  0  0  0  0
 10 13  1  0  0  0  0
 11  8  1  0  0  0  0
 12  1  1  0  0  0  0
 12  7  1  0  0  0  0
 13 30  1  0  0  0  0
 14 11  2  0  0  0  0
 15 11  1  0  0  0  0
 16  1  1  0  0  0  0
 19  2  1  0  0  0  0
 20  2  1  0  0  0  0
 22  3  1  0  0  0  0
 24  3  1  0  0  0  0
 25  4  1  0  0  0  0
 27  6  1  0  0  0  0
 28  7  1  0  0  0  0
M  END
>  <HBA>
4

>  <HBD>
1

>  <TPSA>
49.77

>  <cid>
22676

>  <dipole>
2.25

>  <excitation_energy_1>
4.192

>  <excitation_energy_2>
4.718

>  <excitation_energy_3>
4.829

>  <excitation_energy_4>
5.012

>  <homo_energy>
-5.812

>  <homo_lumo_gap>
4.999

>  <logP>
1.24

>  <lumo_energy>
-0.814

>  <melting_point>
76.38

>  <molecular_refractivity>
57.22

>  <oscillator_strength_1>
0.0007

>  <oscillator_strength_2>
0.0007

>  <oscillator_strength_3>
0.0365

>  <oscillator_strength_4>
0.0015

>  <open_babel_can_smiles>
COC(=O)c1ccc(c(c1)CN(C)C)O

>  <mulliken_charges>
30
1   -0.303172
2   -0.292823
3   -0.213636
4   -0.161542
5   -0.199132
6   -0.225298
7   -0.178104
8   0.055901
9   0.09361
10   0.304924
11   0.587508
12   -0.372234
13   -0.639805
14   -0.501631
15   -0.466858
16   0.148842
17   0.119016
18   0.160273
19   0.149091
20   0.150396
21   0.118621
22   0.161212
23   0.167661
24   0.168818
25   0.161911
26   0.123203
27   0.172656
28   0.156053
29   0.142691
30   0.41185

>  <lowdin_charges>
30
1   -0.359038
2   -0.355226
3   -0.278324
4   -0.121497
5   -0.215115
6   -0.135081
7   -0.193836
8   -0.065288
9   -0.043878
10   0.107005
11   0.19167
12   -0.18067
13   -0.373755
14   -0.278978
15   -0.192522
16   0.151507
17   0.120911
18   0.154911
19   0.151789
20   0.1488
21   0.121007
22   0.15919
23   0.157919
24   0.159645
25   0.17556
26   0.156201
27   0.18306
28   0.155983
29   0.136757
30   0.361291

$$$$

