PCCDB-ID:  23375
public computational chemistry database (PCCDB) project, http://pccdb.org

 21 20  0  0  0  0  0  0  0  0999 V2000
    0.9250   -0.0729    0.2490 C   0  0  0  0  0  0  0  0  0  0  0  0
    2.8341   -0.2825    1.8824 C   0  0  0  0  0  0  0  0  0  0  0  0
    2.8296   -1.6521   -0.2334 C   0  0  0  0  0  0  0  0  0  0  0  0
    4.0114    1.7184    0.0643 C   0  0  0  0  0  0  0  0  0  0  0  0
    3.1543    0.7962   -0.3938 C   0  0  0  0  0  0  0  0  0  0  0  0
    4.6196    2.8050   -0.7537 C   0  0  0  0  0  0  0  0  0  0  0  0
    2.4503   -0.2891    0.3941 C   0  0  0  0  0  0  0  0  0  0  0  0
    5.0228    3.8355   -0.2681 O   0  0  0  0  0  0  0  0  0  0  0  0
    4.7009    2.6081   -2.1013 O   0  0  0  0  0  0  0  0  0  0  0  0
    0.3775   -0.8722    0.7621 H   0  0  0  0  0  0  0  0  0  0  0  0
    0.6183   -0.0788   -0.8038 H   0  0  0  0  0  0  0  0  0  0  0  0
    0.6195    0.8847    0.6846 H   0  0  0  0  0  0  0  0  0  0  0  0
    2.3024   -1.0818    2.4103 H   0  0  0  0  0  0  0  0  0  0  0  0
    2.5693    0.6664    2.3620 H   0  0  0  0  0  0  0  0  0  0  0  0
    3.9084   -0.4483    2.0214 H   0  0  0  0  0  0  0  0  0  0  0  0
    2.2983   -2.4651    0.2751 H   0  0  0  0  0  0  0  0  0  0  0  0
    3.9052   -1.8422   -0.1468 H   0  0  0  0  0  0  0  0  0  0  0  0
    2.5621   -1.6916   -1.2963 H   0  0  0  0  0  0  0  0  0  0  0  0
    4.2591    1.7894    1.1184 H   0  0  0  0  0  0  0  0  0  0  0  0
    2.8830    0.8071   -1.4534 H   0  0  0  0  0  0  0  0  0  0  0  0
    4.4899    1.6834   -2.3085 H   0  0  0  0  0  0  0  0  0  0  0  0
  1  7  1  0  0  0  0
  1 12  1  0  0  0  0
  1 10  1  0  0  0  0
  2 15  1  0  0  0  0
  2 14  1  0  0  0  0
  2 13  1  0  0  0  0
  3 17  1  0  0  0  0
  3 16  1  0  0  0  0
  3  7  1  0  0  0  0
  4 19  1  0  0  0  0
  5  4  2  0  0  0  0
  5  7  1  0  0  0  0
  6  8  2  0  0  0  0
  6  4  1  0  0  0  0
  7  2  1  0  0  0  0
  9  6  1  0  0  0  0
 11  1  1  0  0  0  0
 18  3  1  0  0  0  0
 20  5  1  0  0  0  0
 21  9  1  0  0  0  0
M  END
>  <HBA>
2

>  <HBD>
1

>  <TPSA>
37.3

>  <cid>
23375

>  <dipole>
5.37

>  <excitation_energy_1>
4.677

>  <excitation_energy_2>
6.1

>  <excitation_energy_3>
6.467

>  <excitation_energy_4>
6.643

>  <homo_energy>
-7.208

>  <homo_lumo_gap>
6.025

>  <logP>
1.673

>  <lumo_energy>
-1.184

>  <melting_point>
78.41

>  <molecular_refractivity>
36.8

>  <oscillator_strength_1>
0.0051

>  <oscillator_strength_2>
0.3968

>  <oscillator_strength_3>
0.0586

>  <oscillator_strength_4>
0.0334

>  <open_babel_can_smiles>
OC(=O)/C=C/C(C)(C)C

>  <mulliken_charges>
21
1   -0.445016
2   -0.456956
3   -0.446741
4   -0.194078
5   -0.10336
6   0.57268
7   0.055781
8   -0.449112
9   -0.573618
10   0.149501
11   0.143947
12   0.157605
13   0.147755
14   0.15468
15   0.150974
16   0.15155
17   0.152587
18   0.141567
19   0.163461
20   0.121749
21   0.405045

>  <lowdin_charges>
21
1   -0.438501
2   -0.442936
3   -0.43699
4   -0.214825
5   -0.125184
6   0.192555
7   0.015374
8   -0.239197
9   -0.363457
10   0.154488
11   0.148588
12   0.156474
13   0.155676
14   0.1551
15   0.151801
16   0.155424
17   0.152082
18   0.146994
19   0.1776
20   0.14566
21   0.353273

$$$$

