PCCDB-ID:  46988
public computational chemistry database (PCCDB) project, http://pccdb.org

 25 24  0  0  0  0  0  0  0  0999 V2000
    5.4955   -3.1306   -4.6863 C   0  0  0  0  0  0  0  0  0  0  0  0
   10.9668    3.2335   -1.7946 C   0  0  0  0  0  0  0  0  0  0  0  0
    5.4122   -1.8251   -4.4221 C   0  0  0  0  0  0  0  0  0  0  0  0
    9.6188    3.0363   -2.4689 C   0  0  0  0  0  0  0  0  0  0  0  0
    6.8223    0.9698   -1.2558 C   0  0  0  0  0  0  0  0  0  0  0  0
    7.5486    1.9262   -2.1954 C   0  0  0  0  0  0  0  0  0  0  0  0
    5.3974    0.6509   -1.6938 C   0  0  0  0  0  0  0  0  0  0  0  0
    5.4666   -1.3289   -3.0232 C   0  0  0  0  0  0  0  0  0  0  0  0
    5.5820   -2.0218   -2.0319 O   0  0  0  0  0  0  0  0  0  0  0  0
    8.8322    2.1805   -1.6581 O   0  0  0  0  0  0  0  0  0  0  0  0
    5.3626    0.0237   -2.9982 O   0  0  0  0  0  0  0  0  0  0  0  0
    5.4562   -3.5116   -5.7022 H   0  0  0  0  0  0  0  0  0  0  0  0
    5.6057   -3.8487   -3.8787 H   0  0  0  0  0  0  0  0  0  0  0  0
   11.6067    3.8852   -2.3997 H   0  0  0  0  0  0  0  0  0  0  0  0
   11.4736    2.2719   -1.6641 H   0  0  0  0  0  0  0  0  0  0  0  0
   10.8393    3.6900   -0.8077 H   0  0  0  0  0  0  0  0  0  0  0  0
    5.3006   -1.0790   -5.2033 H   0  0  0  0  0  0  0  0  0  0  0  0
    9.7475    2.5956   -3.4727 H   0  0  0  0  0  0  0  0  0  0  0  0
    9.1081    4.0056   -2.6055 H   0  0  0  0  0  0  0  0  0  0  0  0
    6.7803    1.4202   -0.2556 H   0  0  0  0  0  0  0  0  0  0  0  0
    7.3939    0.0404   -1.1619 H   0  0  0  0  0  0  0  0  0  0  0  0
    6.9802    2.8689   -2.2974 H   0  0  0  0  0  0  0  0  0  0  0  0
    7.6303    1.4878   -3.2032 H   0  0  0  0  0  0  0  0  0  0  0  0
    4.8028    1.5613   -1.8154 H   0  0  0  0  0  0  0  0  0  0  0  0
    4.9108   -0.0088   -0.9723 H   0  0  0  0  0  0  0  0  0  0  0  0
  1  3  2  0  0  0  0
  1 13  1  0  0  0  0
  2 15  1  0  0  0  0
  2 16  1  0  0  0  0
  3  8  1  0  0  0  0
  4  2  1  0  0  0  0
  4 10  1  0  0  0  0
  5 21  1  0  0  0  0
  5 20  1  0  0  0  0
  6 10  1  0  0  0  0
  6  5  1  0  0  0  0
  7  5  1  0  0  0  0
  7 25  1  0  0  0  0
  8 11  1  0  0  0  0
  8  9  2  0  0  0  0
 11  7  1  0  0  0  0
 12  1  1  0  0  0  0
 14  2  1  0  0  0  0
 17  3  1  0  0  0  0
 18  4  1  0  0  0  0
 19  4  1  0  0  0  0
 22  6  1  0  0  0  0
 23  6  1  0  0  0  0
 24  7  1  0  0  0  0
M  END
>  <HBA>
3

>  <HBD>
0

>  <TPSA>
35.53

>  <cid>
46988

>  <dipole>
2.38

>  <excitation_energy_1>
4.75

>  <excitation_energy_2>
5.017

>  <excitation_energy_3>
6.143

>  <excitation_energy_4>
6.255

>  <homo_energy>
-6.846

>  <homo_lumo_gap>
5.619

>  <logP>
1.142

>  <lumo_energy>
-1.227

>  <melting_point>
-45.0

>  <molecular_refractivity>
42.47

>  <oscillator_strength_1>
0.0002

>  <oscillator_strength_2>
0.0004

>  <oscillator_strength_3>
0.0293

>  <oscillator_strength_4>
0.4369

>  <open_babel_can_smiles>
CCOCCCOC(=O)C=C

>  <mulliken_charges>
25
1   -0.301978
2   -0.453198
3   -0.133596
4   -0.002644
5   -0.29851
6   0.002057
7   -0.061877
8   0.609587
9   -0.490134
10   -0.475539
11   -0.475979
12   0.157603
13   0.181468
14   0.142069
15   0.159154
16   0.157692
17   0.153269
18   0.118169
19   0.116825
20   0.152977
21   0.175185
22   0.111296
23   0.128759
24   0.150593
25   0.176754

>  <lowdin_charges>
25
1   -0.265122
2   -0.449477
3   -0.187454
4   -0.123478
5   -0.290459
6   -0.128878
7   -0.133783
8   0.199214
9   -0.273004
10   -0.274834
11   -0.19969
12   0.168398
13   0.180933
14   0.154934
15   0.157305
16   0.156188
17   0.170829
18   0.12362
19   0.123366
20   0.158292
21   0.164602
22   0.121797
23   0.129056
24   0.15146
25   0.166184

$$$$

