PCCDB-ID:  25738
public computational chemistry database (PCCDB) project, http://pccdb.org

 28 27  0  0  0  0  0  0  0  0999 V2000
    4.3385   -3.5147    3.3357 C   0  0  0  0  0  0  0  0  0  0  0  0
   -2.1774   -2.6856    6.5816 C   0  0  0  0  0  0  0  0  0  0  0  0
    0.7437   -1.2185    1.8648 C   0  0  0  0  0  0  0  0  0  0  0  0
    0.2394   -1.9365    3.1223 C   0  0  0  0  0  0  0  0  0  0  0  0
    2.2349   -0.8203    1.9178 C   0  0  0  0  0  0  0  0  0  0  0  0
   -1.2564   -2.2923    3.0288 C   0  0  0  0  0  0  0  0  0  0  0  0
    3.1694   -2.0143    1.9276 C   0  0  0  0  0  0  0  0  0  0  0  0
   -1.7715   -2.9905    4.2700 C   0  0  0  0  0  0  0  0  0  0  0  0
    3.6133   -2.6760    0.9323 N   0  0  0  0  0  0  0  0  0  0  0  0
   -2.1767   -4.1912    4.4033 N   0  0  0  0  0  0  0  0  0  0  0  0
    3.4879   -2.3707    3.1946 O   0  0  0  0  0  0  0  0  0  0  0  0
   -1.7426   -2.1464    5.3291 O   0  0  0  0  0  0  0  0  0  0  0  0
    4.4900   -3.6345    4.4098 H   0  0  0  0  0  0  0  0  0  0  0  0
    5.2921   -3.3514    2.8256 H   0  0  0  0  0  0  0  0  0  0  0  0
    3.8654   -4.4044    2.9100 H   0  0  0  0  0  0  0  0  0  0  0  0
   -2.0907   -1.8667    7.2981 H   0  0  0  0  0  0  0  0  0  0  0  0
   -1.5472   -3.5285    6.8801 H   0  0  0  0  0  0  0  0  0  0  0  0
   -3.2124   -3.0332    6.5153 H   0  0  0  0  0  0  0  0  0  0  0  0
    0.1533   -0.3055    1.7073 H   0  0  0  0  0  0  0  0  0  0  0  0
    0.5749   -1.8512    0.9820 H   0  0  0  0  0  0  0  0  0  0  0  0
    0.3998   -1.3009    4.0010 H   0  0  0  0  0  0  0  0  0  0  0  0
    0.8199   -2.8509    3.2922 H   0  0  0  0  0  0  0  0  0  0  0  0
    2.4250   -0.2117    2.8086 H   0  0  0  0  0  0  0  0  0  0  0  0
    2.4733   -0.2066    1.0415 H   0  0  0  0  0  0  0  0  0  0  0  0
   -1.4383   -2.9383    2.1619 H   0  0  0  0  0  0  0  0  0  0  0  0
   -1.8407   -1.3745    2.8802 H   0  0  0  0  0  0  0  0  0  0  0  0
    3.2773   -2.2663    0.0592 H   0  0  0  0  0  0  0  0  0  0  0  0
   -2.1295   -4.6797    3.5083 H   0  0  0  0  0  0  0  0  0  0  0  0
  1 13  1  0  0  0  0
  2 17  1  0  0  0  0
  2 16  1  0  0  0  0
  3  5  1  0  0  0  0
  3  4  1  0  0  0  0
  4 22  1  0  0  0  0
  4 21  1  0  0  0  0
  5  7  1  0  0  0  0
  5 23  1  0  0  0  0
  6  4  1  0  0  0  0
  6  8  1  0  0  0  0
  7 11  1  0  0  0  0
  8 10  2  0  0  0  0
  8 12  1  0  0  0  0
  9  7  2  0  0  0  0
 11  1  1  0  0  0  0
 12  2  1  0  0  0  0
 14  1  1  0  0  0  0
 15  1  1  0  0  0  0
 18  2  1  0  0  0  0
 19  3  1  0  0  0  0
 20  3  1  0  0  0  0
 24  5  1  0  0  0  0
 25  6  1  0  0  0  0
 26  6  1  0  0  0  0
 27  9  1  0  0  0  0
 28 10  1  0  0  0  0
M  END
>  <HBA>
4

>  <HBD>
2

>  <TPSA>
66.16

>  <cid>
25738

>  <dipole>
1.67

>  <excitation_energy_1>
6.252

>  <excitation_energy_2>
6.355

>  <excitation_energy_3>
6.473

>  <excitation_energy_4>
6.58

>  <homo_energy>
-7.012

>  <homo_lumo_gap>
7.723

>  <logP>
1.994

>  <lumo_energy>
0.71

>  <melting_point>
16.81

>  <molecular_refractivity>
49.92

>  <oscillator_strength_1>
0.0015

>  <oscillator_strength_2>
0.0015

>  <oscillator_strength_3>
0.0153

>  <oscillator_strength_4>
0.0174

>  <open_babel_can_smiles>
COC(=N)CCCCC(=N)OC

>  <mulliken_charges>
28
1   -0.2033
2   -0.200687
3   -0.261899
4   -0.260868
5   -0.336919
6   -0.325391
7   0.507011
8   0.506903
9   -0.627292
10   -0.632871
11   -0.455038
12   -0.459
13   0.156038
14   0.16777
15   0.165221
16   0.153512
17   0.165368
18   0.166258
19   0.140271
20   0.13756
21   0.159952
22   0.156266
23   0.163124
24   0.148916
25   0.139857
26   0.158882
27   0.284927
28   0.285429

>  <lowdin_charges>
28
1   -0.275815
2   -0.275997
3   -0.269465
4   -0.27518
5   -0.297403
6   -0.292841
7   0.131121
8   0.129167
9   -0.431677
10   -0.427422
11   -0.197057
12   -0.199378
13   0.153625
14   0.157906
15   0.157136
16   0.154794
17   0.157551
18   0.155897
19   0.145904
20   0.142484
21   0.155249
22   0.152427
23   0.163348
24   0.15758
25   0.150291
26   0.160895
27   0.258746
28   0.258116

$$$$

