PCCDB-ID:  15863
public computational chemistry database (PCCDB) project, http://pccdb.org

 17 17  0  0  0  0  0  0  0  0999 V2000
    1.0222   -1.3875    0.7929 C   0  0  0  0  0  0  0  0  0  0  0  0
    0.1264   -0.5563    1.3682 C   0  0  0  0  0  0  0  0  0  0  0  0
   -2.3095    0.1937    1.6955 C   0  0  0  0  0  0  0  0  0  0  0  0
   -3.5242   -0.2898    1.1508 C   0  0  0  0  0  0  0  0  0  0  0  0
    2.4633   -1.2470    1.0819 C   0  0  0  0  0  0  0  0  0  0  0  0
   -1.2934   -0.5856    1.1740 C   0  0  0  0  0  0  0  0  0  0  0  0
   -3.1589   -1.3279    0.3360 C   0  0  0  0  0  0  0  0  0  0  0  0
   -3.9582   -2.1935   -0.4745 N   0  0  0  0  0  0  0  0  0  0  0  0
    2.9326   -0.4098    1.8336 O   0  0  0  0  0  0  0  0  0  0  0  0
   -5.1745   -1.9823   -0.4445 O   0  0  0  0  0  0  0  0  0  0  0  0
   -3.3856   -3.0646   -1.1265 O   0  0  0  0  0  0  0  0  0  0  0  0
   -1.8245   -1.5263    0.3320 O   0  0  0  0  0  0  0  0  0  0  0  0
    0.7100   -2.1727    0.1094 H   0  0  0  0  0  0  0  0  0  0  0  0
    0.4987    0.2108    2.0440 H   0  0  0  0  0  0  0  0  0  0  0  0
   -2.1829    1.0122    2.3904 H   0  0  0  0  0  0  0  0  0  0  0  0
   -4.5311    0.0596    1.3195 H   0  0  0  0  0  0  0  0  0  0  0  0
    3.1227   -1.9701    0.5593 H   0  0  0  0  0  0  0  0  0  0  0  0
  1  5  1  0  0  0  0
  1  2  2  0  0  0  0
  2 14  1  0  0  0  0
  3 15  1  0  0  0  0
  4 16  1  0  0  0  0
  4  3  1  0  0  0  0
  5  9  2  0  0  0  0
  6  2  1  0  0  0  0
  6  3  2  0  0  0  0
  7  4  2  0  0  0  0
  8 10  2  0  0  0  0
  8  7  1  0  0  0  0
 11  8  2  0  0  0  0
 12  7  1  0  0  0  0
 12  6  1  0  0  0  0
 13  1  1  0  0  0  0
 17  5  1  0  0  0  0
M  END
>  <HBA>
2

>  <HBD>
0

>  <TPSA>
76.03

>  <cid>
15863

>  <dipole>
2.55

>  <excitation_energy_1>
2.947

>  <excitation_energy_2>
3.525

>  <excitation_energy_3>
3.618

>  <excitation_energy_4>
4.115

>  <homo_energy>
-6.983

>  <homo_lumo_gap>
3.723

>  <logP>
1.923

>  <lumo_energy>
-3.26

>  <melting_point>
96.93

>  <molecular_refractivity>
42.63

>  <oscillator_strength_1>
0.0

>  <oscillator_strength_2>
0.5554

>  <oscillator_strength_3>
0.0

>  <oscillator_strength_4>
0.0002

>  <open_babel_can_smiles>
O=C/C=C/c1ccc(o1)N(=O)=O

>  <mulliken_charges>
17
1   -0.189685
2   -0.149706
3   -0.200705
4   -0.140111
5   0.225808
6   0.370929
7   0.536359
8   0.334615
9   -0.401684
10   -0.396995
11   -0.383977
12   -0.453741
13   0.170637
14   0.188244
15   0.177527
16   0.196244
17   0.116242

>  <lowdin_charges>
17
1   -0.193467
2   -0.111527
3   -0.175932
4   -0.150781
5   0.043589
6   0.094688
7   0.081019
8   0.301837
9   -0.227926
10   -0.246222
11   -0.232162
12   -0.063045
13   0.176834
14   0.190443
15   0.186485
16   0.198535
17   0.127634

$$$$

