PCCDB-ID:  1742
public computational chemistry database (PCCDB) project, http://pccdb.org

 19 19  0  0  0  0  0  0  0  0999 V2000
   -0.8161    0.7479   -0.0951 C   0  0  0  0  0  0  0  0  0  0  0  0
    1.1380   -0.6408    0.1808 C   0  0  0  0  0  0  0  0  0  0  0  0
   -1.6132   -0.3864   -0.1952 C   0  0  0  0  0  0  0  0  0  0  0  0
    0.3507   -1.7821    0.0861 C   0  0  0  0  0  0  0  0  0  0  0  0
    0.5695    0.6398    0.0805 C   0  0  0  0  0  0  0  0  0  0  0  0
   -1.0304   -1.6574   -0.1086 C   0  0  0  0  0  0  0  0  0  0  0  0
    1.3573    1.9048    0.1743 C   0  0  0  0  0  0  0  0  0  0  0  0
    3.5016    2.9666   -0.1402 N   0  0  0  0  0  0  0  0  0  0  0  0
    2.7176    1.7921   -0.0345 N   0  0  0  0  0  0  0  0  0  0  0  0
   -1.7559   -2.8079   -0.1998 O   0  0  0  0  0  0  0  0  0  0  0  0
    0.8430    2.9934    0.4208 O   0  0  0  0  0  0  0  0  0  0  0  0
   -1.2534    1.7393   -0.1508 H   0  0  0  0  0  0  0  0  0  0  0  0
    2.2020   -0.7542    0.3682 H   0  0  0  0  0  0  0  0  0  0  0  0
   -2.6880   -0.2897   -0.3382 H   0  0  0  0  0  0  0  0  0  0  0  0
    0.7820   -2.7742    0.1720 H   0  0  0  0  0  0  0  0  0  0  0  0
    3.7882    3.2164    0.8074 H   0  0  0  0  0  0  0  0  0  0  0  0
    2.8584    3.7102   -0.4246 H   0  0  0  0  0  0  0  0  0  0  0  0
    3.0483    1.0458   -0.6314 H   0  0  0  0  0  0  0  0  0  0  0  0
   -2.6921   -2.5848   -0.3218 H   0  0  0  0  0  0  0  0  0  0  0  0
  1  5  2  0  0  0  0
  2 13  1  0  0  0  0
  3  6  2  0  0  0  0
  3  1  1  0  0  0  0
  4 15  1  0  0  0  0
  4  2  2  0  0  0  0
  5  7  1  0  0  0  0
  5  2  1  0  0  0  0
  6  4  1  0  0  0  0
  7 11  2  0  0  0  0
  8  9  1  0  0  0  0
  8 16  1  0  0  0  0
  9  7  1  0  0  0  0
 10  6  1  0  0  0  0
 12  1  1  0  0  0  0
 14  3  1  0  0  0  0
 17  8  1  0  0  0  0
 18  9  1  0  0  0  0
 19 10  1  0  0  0  0
M  END
>  <HBA>
4

>  <HBD>
3

>  <TPSA>
75.35

>  <cid>
1742

>  <dipole>
2.36

>  <excitation_energy_1>
4.81

>  <excitation_energy_2>
4.94

>  <excitation_energy_3>
5.045

>  <excitation_energy_4>
5.357

>  <homo_energy>
-6.324

>  <homo_lumo_gap>
5.489

>  <logP>
1.087

>  <lumo_energy>
-0.835

>  <melting_point>
161.28

>  <molecular_refractivity>
39.36

>  <oscillator_strength_1>
0.0326

>  <oscillator_strength_2>
0.0156

>  <oscillator_strength_3>
0.2344

>  <oscillator_strength_4>
0.0312

>  <open_babel_can_smiles>
NNC(=O)c1ccc(cc1)O

>  <mulliken_charges>
19
1   -0.163247
2   -0.189248
3   -0.199374
4   -0.163006
5   0.069544
6   0.359943
7   0.534831
8   -0.567021
9   -0.507377
10   -0.634739
11   -0.52292
12   0.166886
13   0.140392
14   0.128014
15   0.147043
16   0.324249
17   0.325895
18   0.338119
19   0.412015

>  <lowdin_charges>
19
1   -0.119065
2   -0.143038
3   -0.208377
4   -0.184285
5   -0.064752
6   0.111824
7   0.151597
8   -0.461324
9   -0.243425
10   -0.365602
11   -0.314226
12   0.178839
13   0.16075
14   0.155568
15   0.170486
16   0.263963
17   0.266423
18   0.28511
19   0.359536

$$$$

