PCCDB-ID:  69467
public computational chemistry database (PCCDB) project, http://pccdb.org

 13 13  0  0  0  0  0  0  0  0999 V2000
   -1.2638    0.1792    0.1921 C   0  0  0  0  0  0  0  0  0  0  0  0
   -0.4950   -1.0206    0.0879 C   0  0  0  0  0  0  0  0  0  0  0  0
   -0.4877    1.3036    0.1516 C   0  0  0  0  0  0  0  0  0  0  0  0
    1.9613   -1.8057   -0.1257 C   0  0  0  0  0  0  0  0  0  0  0  0
    0.8530   -0.7981   -0.0212 C   0  0  0  0  0  0  0  0  0  0  0  0
    2.8832   -1.5291   -1.1751 O   0  0  0  0  0  0  0  0  0  0  0  0
    1.1971    0.9176   -0.0119 S   0  0  0  0  0  0  0  0  0  0  0  0
   -2.3446    0.1994    0.2821 H   0  0  0  0  0  0  0  0  0  0  0  0
   -0.9264   -2.0170    0.0974 H   0  0  0  0  0  0  0  0  0  0  0  0
   -0.8041    2.3376    0.1885 H   0  0  0  0  0  0  0  0  0  0  0  0
    1.5092   -2.8051   -0.2299 H   0  0  0  0  0  0  0  0  0  0  0  0
    2.5713   -1.8195    0.7844 H   0  0  0  0  0  0  0  0  0  0  0  0
    2.3676   -1.4312   -1.9918 H   0  0  0  0  0  0  0  0  0  0  0  0
  1  8  1  0  0  0  0
  2  9  1  0  0  0  0
  2  1  1  0  0  0  0
  3 10  1  0  0  0  0
  3  1  2  0  0  0  0
  4  5  1  0  0  0  0
  4 12  1  0  0  0  0
  5  7  1  0  0  0  0
  5  2  2  0  0  0  0
  6  4  1  0  0  0  0
  7  3  1  0  0  0  0
 11  4  1  0  0  0  0
 13  6  1  0  0  0  0
M  END
>  <HBA>
2

>  <HBD>
1

>  <TPSA>
48.47

>  <cid>
69467

>  <dipole>
2.11

>  <excitation_energy_1>
5.327

>  <excitation_energy_2>
5.657

>  <excitation_energy_3>
5.737

>  <excitation_energy_4>
5.899

>  <homo_energy>
-6.289

>  <homo_lumo_gap>
5.848

>  <logP>
1.24

>  <lumo_energy>
-0.441

>  <melting_point>
25.0

>  <molecular_refractivity>
30.45

>  <oscillator_strength_1>
0.1372

>  <oscillator_strength_2>
0.09

>  <oscillator_strength_3>
0.0047

>  <oscillator_strength_4>
0.0064

>  <open_babel_can_smiles>
OCc1cccs1

>  <mulliken_charges>
13
1   -0.096295
2   -0.125457
3   -0.345578
4   -0.074298
5   -0.158104
6   -0.604944
7   0.253997
8   0.141232
9   0.137346
10   0.172644
11   0.138976
12   0.169091
13   0.391391

>  <lowdin_charges>
13
1   -0.180997
2   -0.19224
3   -0.317275
4   -0.128396
5   -0.188262
6   -0.458781
7   0.315125
8   0.163423
9   0.162896
10   0.180726
11   0.13926
12   0.160235
13   0.344288

$$$$

