PCCDB-ID:  44390
public computational chemistry database (PCCDB) project, http://pccdb.org

 17 17  0  0  0  0  0  0  0  0999 V2000
   -0.4060    0.6479    0.5632 C   0  0  0  0  0  0  0  0  0  0  0  0
    1.4462   -0.2047   -0.7036 C   0  0  0  0  0  0  0  0  0  0  0  0
   -0.8583   -0.6627    0.6920 C   0  0  0  0  0  0  0  0  0  0  0  0
    0.9027   -1.4733   -0.5148 C   0  0  0  0  0  0  0  0  0  0  0  0
    1.2049    2.2961   -0.2572 C   0  0  0  0  0  0  0  0  0  0  0  0
    3.2920    2.1386   -1.5967 C   0  0  0  0  0  0  0  0  0  0  0  0
    2.4605    4.2803   -0.8211 C   0  0  0  0  0  0  0  0  0  0  0  0
    0.7791    0.9053   -0.1519 C   0  0  0  0  0  0  0  0  0  0  0  0
    2.2837    2.8565   -0.8749 C   0  0  0  0  0  0  0  0  0  0  0  0
    4.1222    1.5771   -2.1874 N   0  0  0  0  0  0  0  0  0  0  0  0
    2.5990    5.4341   -0.7744 N   0  0  0  0  0  0  0  0  0  0  0  0
   -0.2258   -1.7179    0.1655 N   0  0  0  0  0  0  0  0  0  0  0  0
   -0.9656    1.4632    1.0133 H   0  0  0  0  0  0  0  0  0  0  0  0
    2.3644   -0.0985   -1.2667 H   0  0  0  0  0  0  0  0  0  0  0  0
   -1.7722   -0.8751    1.2431 H   0  0  0  0  0  0  0  0  0  0  0  0
    1.4034   -2.3426   -0.9359 H   0  0  0  0  0  0  0  0  0  0  0  0
    0.5481    3.0057    0.2405 H   0  0  0  0  0  0  0  0  0  0  0  0
  1  3  1  0  0  0  0
  1 13  1  0  0  0  0
  2  4  2  0  0  0  0
  2  8  1  0  0  0  0
  3 15  1  0  0  0  0
  4 12  1  0  0  0  0
  5  8  1  0  0  0  0
  5 17  1  0  0  0  0
  6  9  1  0  0  0  0
  7 11  3  0  0  0  0
  8  1  2  0  0  0  0
  9  7  1  0  0  0  0
  9  5  2  0  0  0  0
 10  6  3  0  0  0  0
 12  3  2  0  0  0  0
 14  2  1  0  0  0  0
 16  4  1  0  0  0  0
M  END
>  <HBA>
3

>  <HBD>
0

>  <TPSA>
60.47

>  <cid>
44390

>  <dipole>
3.94

>  <excitation_energy_1>
3.417

>  <excitation_energy_2>
3.941

>  <excitation_energy_3>
4.232

>  <excitation_energy_4>
5.141

>  <homo_energy>
-7.682

>  <homo_lumo_gap>
4.305

>  <logP>
1.512

>  <lumo_energy>
-3.377

>  <melting_point>
112.24

>  <molecular_refractivity>
43.44

>  <oscillator_strength_1>
0.0011

>  <oscillator_strength_2>
0.0217

>  <oscillator_strength_3>
0.6351

>  <oscillator_strength_4>
0.0001

>  <open_babel_can_smiles>
N#CC(=Cc1ccncc1)C#N

>  <mulliken_charges>
17
1   -0.186451
2   -0.187439
3   0.042129
4   0.037541
5   -0.156593
6   0.321762
7   0.293474
8   0.180615
9   0.133327
10   -0.482475
11   -0.451462
12   -0.390667
13   0.154466
14   0.184989
15   0.158636
16   0.163512
17   0.184635

>  <lowdin_charges>
17
1   -0.161127
2   -0.160221
3   -0.081921
4   -0.081351
5   -0.072467
6   0.000322
7   -0.006098
8   0.004897
9   -0.032688
10   -0.085075
11   -0.084099
12   -0.125308
13   0.172008
14   0.188695
15   0.165917
16   0.169268
17   0.189248

$$$$

