PCCDB-ID:  66056
public computational chemistry database (PCCDB) project, http://pccdb.org

 22 22  0  0  1  0  0  0  0  0999 V2000
    1.0157   -0.2822   -0.4102 C   0  0  0  0  0  0  0  0  0  0  0  0
    1.0990    1.3880    2.5309 C   0  0  0  0  0  0  0  0  0  0  0  0
    3.0776   -1.3111    0.6825 C   0  0  0  0  0  0  0  0  0  0  0  0
    3.1378   -0.1257    2.7671 C   0  0  0  0  0  0  0  0  0  0  0  0
    2.5071   -0.0976   -0.0673 C   0  0  2  0  0  0  0  0  0  0  0  0
    2.5697    1.1530    2.1330 C   0  0  1  0  0  0  0  0  0  0  0  0
    2.6003   -1.2946    2.0671 N   0  0  0  0  0  0  0  0  0  0  0  0
    2.8634    1.1131    0.6908 N   0  0  0  0  0  0  0  0  0  0  0  0
    0.8964   -1.0611   -1.1747 H   0  0  0  0  0  0  0  0  0  0  0  0
    0.5903    0.6445   -0.8150 H   0  0  0  0  0  0  0  0  0  0  0  0
    0.4324   -0.5778    0.4652 H   0  0  0  0  0  0  0  0  0  0  0  0
    1.0305    1.6387    3.5976 H   0  0  0  0  0  0  0  0  0  0  0  0
    0.4859    0.5013    2.3536 H   0  0  0  0  0  0  0  0  0  0  0  0
    0.6702    2.2261    1.9675 H   0  0  0  0  0  0  0  0  0  0  0  0
    4.1816   -1.2728    0.6219 H   0  0  0  0  0  0  0  0  0  0  0  0
    2.7432   -2.2362    0.1995 H   0  0  0  0  0  0  0  0  0  0  0  0
    2.8486   -0.1765    3.8229 H   0  0  0  0  0  0  0  0  0  0  0  0
    4.2421   -0.0809    2.7161 H   0  0  0  0  0  0  0  0  0  0  0  0
    3.0524   -0.0215   -1.0191 H   0  0  0  0  0  0  0  0  0  0  0  0
    3.1530    1.9962    2.5303 H   0  0  0  0  0  0  0  0  0  0  0  0
    2.8922   -2.1457    2.5423 H   0  0  0  0  0  0  0  0  0  0  0  0
    2.4760    1.9359    0.2345 H   0  0  0  0  0  0  0  0  0  0  0  0
  1  5  1  0  0  0  0
  1 11  1  0  0  0  0
  2 12  1  0  0  0  0
  3  7  1  0  0  0  0
  4 17  1  0  0  0  0
  5 19  1  6  0  0  0
  5  3  1  0  0  0  0
  5  8  1  0  0  0  0
  6 20  1  1  0  0  0
  6  2  1  0  0  0  0
  6  4  1  0  0  0  0
  7 21  1  0  0  0  0
  7  4  1  0  0  0  0
  8  6  1  0  0  0  0
  9  1  1  0  0  0  0
 10  1  1  0  0  0  0
 13  2  1  0  0  0  0
 14  2  1  0  0  0  0
 15  3  1  0  0  0  0
 16  3  1  0  0  0  0
 18  4  1  0  0  0  0
 22  8  1  0  0  0  0
M  END
>  <HBA>
2

>  <HBD>
2

>  <TPSA>
24.06

>  <cid>
66056

>  <dipole>
0.37

>  <excitation_energy_1>
4.989

>  <excitation_energy_2>
5.316

>  <excitation_energy_3>
5.593

>  <excitation_energy_4>
5.631

>  <homo_energy>
-5.567

>  <homo_lumo_gap>
7.516

>  <logP>
0.614

>  <lumo_energy>
1.948

>  <melting_point>
50.37

>  <molecular_refractivity>
42.28

>  <oscillator_strength_1>
0.0166

>  <oscillator_strength_2>
0.0009

>  <oscillator_strength_3>
0.0007

>  <oscillator_strength_4>
0.0248

>  <open_babel_can_smiles>
C[C@@H]1CNC[C@@H](N1)C

>  <mulliken_charges>
22
1   -0.451947
2   -0.451944
3   -0.133936
4   -0.133777
5   0.058584
6   0.05844
7   -0.556539
8   -0.574828
9   0.131666
10   0.128619
11   0.167004
12   0.131673
13   0.167101
14   0.128584
15   0.119116
16   0.131663
17   0.131582
18   0.119088
19   0.12302
20   0.122954
21   0.296822
22   0.287054

>  <lowdin_charges>
22
1   -0.466357
2   -0.464643
3   -0.205097
4   -0.203509
5   -0.063168
6   -0.063625
7   -0.368799
8   -0.371226
9   0.145953
10   0.143111
11   0.158521
12   0.143929
13   0.158441
14   0.143593
15   0.120084
16   0.144722
17   0.142819
18   0.120023
19   0.138382
20   0.139427
21   0.256131
22   0.251289

$$$$

