PCCDB-ID:  67077
public computational chemistry database (PCCDB) project, http://pccdb.org

 31 31  0  0  0  0  0  0  0  0999 V2000
    4.2785    2.6740   -1.3655 C   0  0  0  0  0  0  0  0  0  0  0  0
    2.2739    0.4727    1.0157 C   0  0  0  0  0  0  0  0  0  0  0  0
    7.0424   -1.6144    0.0551 C   0  0  0  0  0  0  0  0  0  0  0  0
    2.7154    1.5931    0.3081 C   0  0  0  0  0  0  0  0  0  0  0  0
    2.9050   -0.7574    0.8716 C   0  0  0  0  0  0  0  0  0  0  0  0
    8.3362   -1.6543   -0.6296 C   0  0  0  0  0  0  0  0  0  0  0  0
    5.9188   -2.2439   -0.8007 C   0  0  0  0  0  0  0  0  0  0  0  0
    3.7634   -3.3446   -0.3352 C   0  0  0  0  0  0  0  0  0  0  0  0
    4.0136   -4.4016    0.7426 C   0  0  0  0  0  0  0  0  0  0  0  0
    4.4273    0.2381   -0.7181 C   0  0  0  0  0  0  0  0  0  0  0  0
    3.8007    1.4837   -0.5647 C   0  0  0  0  0  0  0  0  0  0  0  0
    3.9914   -0.8958   -0.0150 C   0  0  0  0  0  0  0  0  0  0  0  0
    9.3495   -1.6988   -1.1941 N   0  0  0  0  0  0  0  0  0  0  0  0
    4.6260   -2.1634   -0.1339 N   0  0  0  0  0  0  0  0  0  0  0  0
    3.8156   -3.8703    2.0419 O   0  0  0  0  0  0  0  0  0  0  0  0
    3.9806    3.6164   -0.8949 H   0  0  0  0  0  0  0  0  0  0  0  0
    3.8555    2.6668   -2.3789 H   0  0  0  0  0  0  0  0  0  0  0  0
    5.3691    2.6780   -1.4712 H   0  0  0  0  0  0  0  0  0  0  0  0
    1.4391    0.5631    1.7060 H   0  0  0  0  0  0  0  0  0  0  0  0
    6.7990   -0.5739    0.2961 H   0  0  0  0  0  0  0  0  0  0  0  0
    7.1215   -2.1539    1.0060 H   0  0  0  0  0  0  0  0  0  0  0  0
    2.2218    2.5524    0.4409 H   0  0  0  0  0  0  0  0  0  0  0  0
    2.5824   -1.6112    1.4597 H   0  0  0  0  0  0  0  0  0  0  0  0
    6.1536   -3.3014   -0.9458 H   0  0  0  0  0  0  0  0  0  0  0  0
    5.9100   -1.7864   -1.8023 H   0  0  0  0  0  0  0  0  0  0  0  0
    2.7210   -3.0234   -0.2879 H   0  0  0  0  0  0  0  0  0  0  0  0
    3.9261   -3.7725   -1.3367 H   0  0  0  0  0  0  0  0  0  0  0  0
    5.0283   -4.8221    0.6356 H   0  0  0  0  0  0  0  0  0  0  0  0
    3.3047   -5.2281    0.6260 H   0  0  0  0  0  0  0  0  0  0  0  0
    5.2576    0.1672   -1.4139 H   0  0  0  0  0  0  0  0  0  0  0  0
    4.3730   -3.0737    2.0821 H   0  0  0  0  0  0  0  0  0  0  0  0
  1 16  1  0  0  0  0
  1 11  1  0  0  0  0
  2 19  1  0  0  0  0
  3 20  1  0  0  0  0
  3 21  1  0  0  0  0
  4 22  1  0  0  0  0
  4  2  2  0  0  0  0
  5  2  1  0  0  0  0
  5 23  1  0  0  0  0
  6  3  1  0  0  0  0
  7 14  1  0  0  0  0
  7  3  1  0  0  0  0
  8 26  1  0  0  0  0
  8 14  1  0  0  0  0
  8  9  1  0  0  0  0
  9 15  1  0  0  0  0
 10 11  2  0  0  0  0
 10 12  1  0  0  0  0
 11  4  1  0  0  0  0
 12  5  2  0  0  0  0
 13  6  3  0  0  0  0
 14 12  1  0  0  0  0
 15 31  1  0  0  0  0
 17  1  1  0  0  0  0
 18  1  1  0  0  0  0
 24  7  1  0  0  0  0
 25  7  1  0  0  0  0
 27  8  1  0  0  0  0
 28  9  1  0  0  0  0
 29  9  1  0  0  0  0
 30 10  1  0  0  0  0
M  END
>  <HBA>
3

>  <HBD>
1

>  <TPSA>
47.26

>  <cid>
67077

>  <dipole>
2.81

>  <excitation_energy_1>
4.63

>  <excitation_energy_2>
4.868

>  <excitation_energy_3>
5.233

>  <excitation_energy_4>
5.383

>  <homo_energy>
-5.782

>  <homo_lumo_gap>
5.562

>  <logP>
1.707

>  <lumo_energy>
-0.22

>  <melting_point>
68.03

>  <molecular_refractivity>
60.95

>  <oscillator_strength_1>
0.0264

>  <oscillator_strength_2>
0.0816

>  <oscillator_strength_3>
0.1081

>  <oscillator_strength_4>
0.0552

>  <open_babel_can_smiles>
OCCN(c1cccc(c1)C)CCC#N

>  <mulliken_charges>
31
1   -0.529613
2   -0.135091
3   -0.347975
4   -0.183162
5   -0.194581
6   0.345696
7   -0.140714
8   -0.168408
9   -0.027668
10   -0.24623
11   0.170106
12   0.313386
13   -0.467476
14   -0.511185
15   -0.610354
16   0.158894
17   0.167925
18   0.157854
19   0.132938
20   0.210606
21   0.196792
22   0.120996
23   0.147512
24   0.17018
25   0.163729
26   0.172456
27   0.141179
28   0.121151
29   0.151297
30   0.121934
31   0.397826

>  <lowdin_charges>
31
1   -0.439534
2   -0.143699
3   -0.281843
4   -0.186182
5   -0.203099
6   -0.019491
7   -0.188647
8   -0.212937
9   -0.142487
10   -0.21569
11   0.011214
12   0.047495
13   -0.124371
14   -0.151093
15   -0.464984
16   0.159333
17   0.162482
18   0.156603
19   0.159827
20   0.188441
21   0.182463
22   0.155121
23   0.166207
24   0.160543
25   0.144764
26   0.16355
27   0.143484
28   0.123763
29   0.152893
30   0.155954
31   0.339922

$$$$

