PCCDB-ID:  7342
public computational chemistry database (PCCDB) project, http://pccdb.org

 20 19  0  0  0  0  0  0  0  0999 V2000
    1.9737   -0.1652   -1.5112 C   0  0  0  0  0  0  0  0  0  0  0  0
    7.1822    1.0290    0.3646 C   0  0  0  0  0  0  0  0  0  0  0  0
    5.5641   -0.3597    1.7505 C   0  0  0  0  0  0  0  0  0  0  0  0
    3.2840    0.2050   -2.1896 C   0  0  0  0  0  0  0  0  0  0  0  0
    6.0286    0.0143    0.3302 C   0  0  0  0  0  0  0  0  0  0  0  0
    4.8508    0.6002   -0.4366 C   0  0  0  0  0  0  0  0  0  0  0  0
    4.3456    1.6779   -0.1988 O   0  0  0  0  0  0  0  0  0  0  0  0
    4.4232   -0.2359   -1.4110 O   0  0  0  0  0  0  0  0  0  0  0  0
    1.1300    0.1065   -2.1561 H   0  0  0  0  0  0  0  0  0  0  0  0
    1.8673    0.3704   -0.5635 H   0  0  0  0  0  0  0  0  0  0  0  0
    1.9255   -1.2420   -1.3176 H   0  0  0  0  0  0  0  0  0  0  0  0
    8.0251    0.6262    0.9367 H   0  0  0  0  0  0  0  0  0  0  0  0
    6.8545    1.9614    0.8346 H   0  0  0  0  0  0  0  0  0  0  0  0
    7.5391    1.2647   -0.6442 H   0  0  0  0  0  0  0  0  0  0  0  0
    6.3979   -0.7818    2.3221 H   0  0  0  0  0  0  0  0  0  0  0  0
    4.7591   -1.1028    1.7259 H   0  0  0  0  0  0  0  0  0  0  0  0
    5.1962    0.5268    2.2775 H   0  0  0  0  0  0  0  0  0  0  0  0
    3.3588    1.2845   -2.3411 H   0  0  0  0  0  0  0  0  0  0  0  0
    3.3978   -0.3062   -3.1490 H   0  0  0  0  0  0  0  0  0  0  0  0
    6.3512   -0.8935   -0.1905 H   0  0  0  0  0  0  0  0  0  0  0  0
  1 11  1  0  0  0  0
  1 10  1  0  0  0  0
  2 13  1  0  0  0  0
  2 12  1  0  0  0  0
  3 17  1  0  0  0  0
  3 15  1  0  0  0  0
  4  1  1  0  0  0  0
  4  8  1  0  0  0  0
  5  2  1  0  0  0  0
  5  3  1  0  0  0  0
  6  7  2  0  0  0  0
  6  5  1  0  0  0  0
  8  6  1  0  0  0  0
  9  1  1  0  0  0  0
 14  2  1  0  0  0  0
 16  3  1  0  0  0  0
 18  4  1  0  0  0  0
 19  4  1  0  0  0  0
 20  5  1  0  0  0  0
M  END
>  <HBA>
2

>  <HBD>
0

>  <TPSA>
26.3

>  <cid>
7342

>  <dipole>
1.59

>  <excitation_energy_1>
5.774

>  <excitation_energy_2>
6.91

>  <excitation_energy_3>
7.357

>  <excitation_energy_4>
7.477

>  <homo_energy>
-7.192

>  <homo_lumo_gap>
7.644

>  <logP>
1.206

>  <lumo_energy>
0.452

>  <melting_point>
-14.12

>  <molecular_refractivity>
32.24

>  <oscillator_strength_1>
0.0014

>  <oscillator_strength_2>
0.004

>  <oscillator_strength_3>
0.0025

>  <oscillator_strength_4>
0.001

>  <open_babel_can_smiles>
CCOC(=O)C(C)C

>  <mulliken_charges>
20
1   -0.461841
2   -0.44815
3   -0.451191
4   -0.046066
5   -0.153488
6   0.62353
7   -0.489434
8   -0.459667
9   0.150089
10   0.17593
11   0.156234
12   0.144948
13   0.169562
14   0.149931
15   0.149255
16   0.151546
17   0.166693
18   0.170826
19   0.151413
20   0.149881

>  <lowdin_charges>
20
1   -0.454093
2   -0.439411
3   -0.439939
4   -0.127342
5   -0.144154
6   0.19789
7   -0.275516
8   -0.1941
9   0.15935
10   0.165113
11   0.153799
12   0.152301
13   0.162097
14   0.152448
15   0.154195
16   0.153792
17   0.160543
18   0.156969
19   0.151312
20   0.154746

$$$$

