PCCDB-ID:  19064
public computational chemistry database (PCCDB) project, http://pccdb.org

 41 40  0  0  1  0  0  0  0  0999 V2000
    4.8237    1.8316   -4.9275 C   0  0  0  0  0  0  0  0  0  0  0  0
    8.7840   -0.8798   -0.9926 C   0  0  0  0  0  0  0  0  0  0  0  0
    3.9176   -2.5820    2.3404 C   0  0  0  0  0  0  0  0  0  0  0  0
    4.0902    2.2971    3.5041 C   0  0  0  0  0  0  0  0  0  0  0  0
    2.6607    1.8382    1.5609 C   0  0  0  0  0  0  0  0  0  0  0  0
    4.2586    1.2790   -3.6569 C   0  0  0  0  0  0  0  0  0  0  0  0
    7.2616   -1.0467   -1.0463 C   0  0  0  0  0  0  0  0  0  0  0  0
    4.7793   -1.9752    1.2273 C   0  0  0  0  0  0  0  0  0  0  0  0
    4.9769    0.9145   -2.5866 C   0  0  0  0  0  0  0  0  0  0  0  0
    6.5412    0.0785   -0.2859 C   0  0  0  0  0  0  0  0  0  0  0  0
    4.3815   -0.5272    0.8954 C   0  0  1  0  0  0  0  0  0  0  0  0
    4.2902    0.3797   -1.3748 C   0  0  0  0  0  0  0  0  0  0  0  0
    4.6688    0.4004    2.1011 C   0  0  0  0  0  0  0  0  0  0  0  0
    3.8272    1.4514    2.3461 N   0  0  0  0  0  0  0  0  0  0  0  0
    5.0706   -0.0035   -0.3041 N   0  0  0  0  0  0  0  0  0  0  0  0
    3.0552    0.2999   -1.3391 O   0  0  0  0  0  0  0  0  0  0  0  0
    5.6571    0.1810    2.8073 O   0  0  0  0  0  0  0  0  0  0  0  0
    4.5498    1.1996   -5.7831 H   0  0  0  0  0  0  0  0  0  0  0  0
    5.9152    1.9115   -4.8945 H   0  0  0  0  0  0  0  0  0  0  0  0
    4.4110    2.8280   -5.1360 H   0  0  0  0  0  0  0  0  0  0  0  0
    9.2890   -1.6908   -1.5282 H   0  0  0  0  0  0  0  0  0  0  0  0
    9.1480   -0.8852    0.0418 H   0  0  0  0  0  0  0  0  0  0  0  0
    9.0995    0.0668   -1.4492 H   0  0  0  0  0  0  0  0  0  0  0  0
    4.1888   -3.6299    2.5089 H   0  0  0  0  0  0  0  0  0  0  0  0
    2.8512   -2.5518    2.0840 H   0  0  0  0  0  0  0  0  0  0  0  0
    4.0608   -2.0466    3.2843 H   0  0  0  0  0  0  0  0  0  0  0  0
    4.3250    3.3219    3.1869 H   0  0  0  0  0  0  0  0  0  0  0  0
    4.9338    1.8846    4.0547 H   0  0  0  0  0  0  0  0  0  0  0  0
    3.2047    2.3330    4.1518 H   0  0  0  0  0  0  0  0  0  0  0  0
    2.7152    2.9131    1.3453 H   0  0  0  0  0  0  0  0  0  0  0  0
    1.7363    1.6582    2.1278 H   0  0  0  0  0  0  0  0  0  0  0  0
    2.6075    1.3110    0.6093 H   0  0  0  0  0  0  0  0  0  0  0  0
    3.1777    1.1637   -3.5948 H   0  0  0  0  0  0  0  0  0  0  0  0
    6.9770   -2.0125   -0.6138 H   0  0  0  0  0  0  0  0  0  0  0  0
    6.9235   -1.0649   -2.0900 H   0  0  0  0  0  0  0  0  0  0  0  0
    4.6687   -2.5640    0.3087 H   0  0  0  0  0  0  0  0  0  0  0  0
    5.8311   -2.0113    1.5268 H   0  0  0  0  0  0  0  0  0  0  0  0
    6.0574    1.0071   -2.6065 H   0  0  0  0  0  0  0  0  0  0  0  0
    6.8537    1.0543   -0.6753 H   0  0  0  0  0  0  0  0  0  0  0  0
    6.8420    0.0631    0.7645 H   0  0  0  0  0  0  0  0  0  0  0  0
    3.3249   -0.5234    0.6366 H   0  0  0  0  0  0  0  0  0  0  0  0
  1 19  1  0  0  0  0
  1  6  1  0  0  0  0
  2 22  1  0  0  0  0
  3 24  1  0  0  0  0
  3 26  1  0  0  0  0
  4 28  1  0  0  0  0
  4 29  1  0  0  0  0
  5 31  1  0  0  0  0
  5 14  1  0  0  0  0
  6 33  1  0  0  0  0
  6  9  2  0  0  0  0
  7  2  1  0  0  0  0
  7 34  1  0  0  0  0
  7 10  1  0  0  0  0
  8 37  1  0  0  0  0
  8  3  1  0  0  0  0
  9 12  1  0  0  0  0
 10 40  1  0  0  0  0
 11 41  1  6  0  0  0
 11  8  1  0  0  0  0
 11 13  1  0  0  0  0
 12 16  2  0  0  0  0
 12 15  1  0  0  0  0
 13 14  1  0  0  0  0
 13 17  2  0  0  0  0
 14  4  1  0  0  0  0
 15 10  1  0  0  0  0
 15 11  1  0  0  0  0
 18  1  1  0  0  0  0
 20  1  1  0  0  0  0
 21  2  1  0  0  0  0
 23  2  1  0  0  0  0
 25  3  1  0  0  0  0
 27  4  1  0  0  0  0
 30  5  1  0  0  0  0
 32  5  1  0  0  0  0
 35  7  1  0  0  0  0
 36  8  1  0  0  0  0
 38  9  1  0  0  0  0
 39 10  1  0  0  0  0
M  END
>  <HBA>
4

>  <HBD>
0

>  <TPSA>
40.62

>  <cid>
19064

>  <dipole>
2.22

>  <excitation_energy_1>
4.537

>  <excitation_energy_2>
4.691

>  <excitation_energy_3>
4.987

>  <excitation_energy_4>
5.32

>  <homo_energy>
-6.142

>  <homo_lumo_gap>
5.317

>  <logP>
1.668

>  <lumo_energy>
-0.825

>  <melting_point>
26.63

>  <molecular_refractivity>
70.32

>  <oscillator_strength_1>
0.0003

>  <oscillator_strength_2>
0.1046

>  <oscillator_strength_3>
0.0143

>  <oscillator_strength_4>
0.0119

>  <open_babel_can_smiles>
CCCN([C@H](C(=O)N(C)C)CC)C(=O)/C=C/C

>  <mulliken_charges>
41
1   -0.49919
2   -0.450464
3   -0.460321
4   -0.323226
5   -0.351994
6   -0.060476
7   -0.261363
8   -0.250282
9   -0.191222
10   -0.167185
11   -0.07126
12   0.594733
13   0.613684
14   -0.41345
15   -0.462298
16   -0.553879
17   -0.539384
18   0.167208
19   0.156185
20   0.166496
21   0.149705
22   0.153679
23   0.141518
24   0.146178
25   0.142085
26   0.165498
27   0.15194
28   0.204092
29   0.1516
30   0.153708
31   0.152405
32   0.225387
33   0.168181
34   0.150719
35   0.141468
36   0.139443
37   0.158813
38   0.130871
39   0.149225
40   0.195784
41   0.18539

>  <lowdin_charges>
41
1   -0.438345
2   -0.445623
3   -0.444845
4   -0.357351
5   -0.363957
6   -0.096405
7   -0.28453
8   -0.275422
9   -0.221969
10   -0.208934
11   -0.086427
12   0.158977
13   0.14977
14   -0.093252
15   -0.095861
16   -0.342304
17   -0.33209
18   0.165784
19   0.154311
20   0.164395
21   0.155584
22   0.151469
23   0.146213
24   0.152314
25   0.144594
26   0.157874
27   0.147621
28   0.184543
29   0.149703
30   0.149908
31   0.147659
32   0.187276
33   0.171481
34   0.1501
35   0.14274
36   0.14743
37   0.153563
38   0.156542
39   0.147249
40   0.173662
41   0.176556

$$$$

