PCCDB-ID:  38
public computational chemistry database (PCCDB) project, http://pccdb.org

 20 19  0  0  0  0  0  0  0  0999 V2000
    0.9115   -0.1182    0.0878 C   0  0  0  0  0  0  0  0  0  0  0  0
    3.0867    0.0183    1.3948 C   0  0  0  0  0  0  0  0  0  0  0  0
    2.9254   -1.3796   -0.7297 C   0  0  0  0  0  0  0  0  0  0  0  0
    2.8273    1.1536   -0.8350 C   0  0  0  0  0  0  0  0  0  0  0  0
    4.3035    1.6039   -0.8769 C   0  0  0  0  0  0  0  0  0  0  0  0
    2.4462   -0.0701   -0.0043 C   0  0  0  0  0  0  0  0  0  0  0  0
    4.2891   -1.6930   -0.5983 O   0  0  0  0  0  0  0  0  0  0  0  0
    2.0571    1.7790   -1.5342 O   0  0  0  0  0  0  0  0  0  0  0  0
    4.4446    2.9045   -0.6047 O   0  0  0  0  0  0  0  0  0  0  0  0
    5.2261    0.8796   -1.2011 O   0  0  0  0  0  0  0  0  0  0  0  0
    0.6047   -0.9638    0.7123 H   0  0  0  0  0  0  0  0  0  0  0  0
    0.4552   -0.2291   -0.9003 H   0  0  0  0  0  0  0  0  0  0  0  0
    0.5130    0.7996    0.5314 H   0  0  0  0  0  0  0  0  0  0  0  0
    2.7705   -0.8414    1.9952 H   0  0  0  0  0  0  0  0  0  0  0  0
    2.7760    0.9293    1.9194 H   0  0  0  0  0  0  0  0  0  0  0  0
    4.1780   -0.0108    1.3413 H   0  0  0  0  0  0  0  0  0  0  0  0
    2.6077   -1.3325   -1.7849 H   0  0  0  0  0  0  0  0  0  0  0  0
    2.3815   -2.2088   -0.2640 H   0  0  0  0  0  0  0  0  0  0  0  0
    4.8047   -0.9728   -1.0070 H   0  0  0  0  0  0  0  0  0  0  0  0
    5.3912    3.1212   -0.7202 H   0  0  0  0  0  0  0  0  0  0  0  0
  1 13  1  0  0  0  0
  1 11  1  0  0  0  0
  2 15  1  0  0  0  0
  2 14  1  0  0  0  0
  3  7  1  0  0  0  0
  3 18  1  0  0  0  0
  3  6  1  0  0  0  0
  4  6  1  0  0  0  0
  5  4  1  0  0  0  0
  5  9  1  0  0  0  0
  6  1  1  0  0  0  0
  6  2  1  0  0  0  0
  8  4  2  0  0  0  0
 10  5  2  0  0  0  0
 12  1  1  0  0  0  0
 16  2  1  0  0  0  0
 17  3  1  0  0  0  0
 19  7  1  0  0  0  0
 20  9  1  0  0  0  0
M  END
>  <HBA>
4

>  <HBD>
2

>  <TPSA>
74.6

>  <cid>
38

>  <dipole>
1.9

>  <excitation_energy_1>
3.688

>  <excitation_energy_2>
4.422

>  <excitation_energy_3>
5.325

>  <excitation_energy_4>
5.798

>  <homo_energy>
-7.127

>  <homo_lumo_gap>
5.241

>  <logP>
-0.341

>  <lumo_energy>
-1.886

>  <melting_point>
109.29

>  <molecular_refractivity>
33.83

>  <oscillator_strength_1>
0.0003

>  <oscillator_strength_2>
0.0078

>  <oscillator_strength_3>
0.0022

>  <oscillator_strength_4>
0.0017

>  <open_babel_can_smiles>
OCC(C(=O)C(=O)O)(C)C

>  <mulliken_charges>
20
1   -0.448053
2   -0.463431
3   -0.031306
4   0.407935
5   0.536185
6   -0.039873
7   -0.634519
8   -0.415142
9   -0.527398
10   -0.464622
11   0.147057
12   0.165339
13   0.157957
14   0.16227
15   0.150061
16   0.169284
17   0.131794
18   0.151192
19   0.424007
20   0.421262

>  <lowdin_charges>
20
1   -0.437642
2   -0.445359
3   -0.131123
4   0.143197
5   0.184772
6   -0.039883
7   -0.471553
8   -0.187406
9   -0.31057
10   -0.257569
11   0.154187
12   0.161877
13   0.15991
14   0.16454
15   0.152812
16   0.160892
17   0.131141
18   0.153349
19   0.345979
20   0.36845

$$$$

