PCCDB-ID:  3857
public computational chemistry database (PCCDB) project, http://pccdb.org

 18 17  0  0  1  0  0  0  0  0999 V2000
    1.5191   -0.9514    0.3832 C   0  0  0  0  0  0  0  0  0  0  0  0
    0.7045   -1.3126   -0.8716 C   0  0  1  0  0  0  0  0  0  0  0  0
   -0.0815   -2.6234   -0.6302 C   0  0  0  0  0  0  0  0  0  0  0  0
   -0.2128   -0.2770   -1.3739 N   0  0  0  0  0  0  0  0  0  0  0  0
    0.3599   -3.5440    0.0173 O   0  0  0  0  0  0  0  0  0  0  0  0
   -1.2742   -2.6472   -1.2377 O   0  0  0  0  0  0  0  0  0  0  0  0
    1.5179    1.6887    0.6100 O   0  0  0  0  0  0  0  0  0  0  0  0
    3.6663    0.5275    1.2878 O   0  0  0  0  0  0  0  0  0  0  0  0
    3.1068    0.6816   -1.2548 O   0  0  0  0  0  0  0  0  0  0  0  0
    2.5395    0.5249    0.1112 P   0  0  0  0  0  0  0  0  0  0  0  0
    2.1718   -1.7912    0.6381 H   0  0  0  0  0  0  0  0  0  0  0  0
    0.8670   -0.7824    1.2478 H   0  0  0  0  0  0  0  0  0  0  0  0
    1.4093   -1.5315   -1.6824 H   0  0  0  0  0  0  0  0  0  0  0  0
   -0.5762    0.2924   -0.6106 H   0  0  0  0  0  0  0  0  0  0  0  0
    0.2749    0.3543   -2.0055 H   0  0  0  0  0  0  0  0  0  0  0  0
   -1.3655   -1.7505   -1.6506 H   0  0  0  0  0  0  0  0  0  0  0  0
    1.9022    2.5741    0.4872 H   0  0  0  0  0  0  0  0  0  0  0  0
    4.5470    0.3962    0.8977 H   0  0  0  0  0  0  0  0  0  0  0  0
  1 11  1  0  0  0  0
  1 12  1  0  0  0  0
  2 13  1  6  0  0  0
  2  3  1  0  0  0  0
  2  1  1  0  0  0  0
  3  5  2  0  0  0  0
  4  2  1  0  0  0  0
  4 14  1  0  0  0  0
  6  3  1  0  0  0  0
  9 10  2  0  0  0  0
 10  1  1  0  0  0  0
 10  7  1  0  0  0  0
 10  8  1  0  0  0  0
 15  4  1  0  0  0  0
 16  6  1  0  0  0  0
 17  7  1  0  0  0  0
 18  8  1  0  0  0  0
M  END
>  <HBA>
6

>  <HBD>
4

>  <TPSA>
130.66

>  <cid>
3857

>  <dipole>
4.98

>  <excitation_energy_1>
5.477

>  <excitation_energy_2>
6.084

>  <excitation_energy_3>
6.572

>  <excitation_energy_4>
6.806

>  <homo_energy>
-7.026

>  <homo_lumo_gap>
7.246

>  <logP>
-0.724

>  <lumo_energy>
0.22

>  <melting_point>
193.17

>  <molecular_refractivity>
32.0

>  <oscillator_strength_1>
0.0022

>  <oscillator_strength_2>
0.0059

>  <oscillator_strength_3>
0.0002

>  <oscillator_strength_4>
0.0377

>  <open_babel_can_smiles>
OC(=O)[C@H](CP(=O)(O)O)N

>  <mulliken_charges>
18
1   -0.495455
2   -0.099762
3   0.612
4   -0.773435
5   -0.464574
6   -0.578079
7   -0.657564
8   -0.645584
9   -0.566149
10   1.044302
11   0.221421
12   0.200053
13   0.20803
14   0.330998
15   0.346168
16   0.434294
17   0.441155
18   0.442177

>  <lowdin_charges>
18
1   -0.460943
2   -0.10719
3   0.174871
4   -0.545277
5   -0.258534
6   -0.349175
7   -0.57508
8   -0.575079
9   -0.606617
10   1.037068
11   0.203694
12   0.189941
13   0.184268
14   0.273985
15   0.285249
16   0.360479
17   0.382465
18   0.385875

$$$$

