PCCDB-ID:  59293
public computational chemistry database (PCCDB) project, http://pccdb.org

 40 40  0  0  0  0  0  0  0  0999 V2000
    4.0915    0.3122   -0.3447 C   0  0  0  0  0  0  0  0  0  0  0  0
    1.8634   -0.8961   -0.2004 C   0  0  0  0  0  0  0  0  0  0  0  0
    4.5066   -2.8325    5.4854 C   0  0  0  0  0  0  0  0  0  0  0  0
    5.2830    3.9897    4.1212 C   0  0  0  0  0  0  0  0  0  0  0  0
    4.1279    5.3153    2.4905 C   0  0  0  0  0  0  0  0  0  0  0  0
    4.4447   -2.6159    2.9528 C   0  0  0  0  0  0  0  0  0  0  0  0
    4.0594   -1.9544    1.7921 C   0  0  0  0  0  0  0  0  0  0  0  0
    3.4855    3.0047    2.8187 C   0  0  0  0  0  0  0  0  0  0  0  0
    2.8369    2.0713    3.8455 C   0  0  0  0  0  0  0  0  0  0  0  0
    2.9011   -0.0498    0.5628 C   0  0  0  0  0  0  0  0  0  0  0  0
    4.1190   -2.1101    4.2155 C   0  0  0  0  0  0  0  0  0  0  0  0
    3.3474   -0.7475    1.8414 C   0  0  0  0  0  0  0  0  0  0  0  0
    3.3951   -0.9112    4.2756 C   0  0  0  0  0  0  0  0  0  0  0  0
    3.0301   -0.2181    3.1034 C   0  0  0  0  0  0  0  0  0  0  0  0
    4.0128    4.2181    3.4426 N   0  0  0  0  0  0  0  0  0  0  0  0
    3.0011   -0.3595    5.4708 O   0  0  0  0  0  0  0  0  0  0  0  0
    2.2642    0.9237    3.1943 O   0  0  0  0  0  0  0  0  0  0  0  0
    3.7450    0.8566   -1.2316 H   0  0  0  0  0  0  0  0  0  0  0  0
    4.6228   -0.5818   -0.6925 H   0  0  0  0  0  0  0  0  0  0  0  0
    4.8152    0.9455    0.1810 H   0  0  0  0  0  0  0  0  0  0  0  0
    1.5136   -0.3633   -1.0931 H   0  0  0  0  0  0  0  0  0  0  0  0
    0.9938   -1.1145    0.4287 H   0  0  0  0  0  0  0  0  0  0  0  0
    2.2890   -1.8526   -0.5272 H   0  0  0  0  0  0  0  0  0  0  0  0
    5.0767   -3.7372    5.2562 H   0  0  0  0  0  0  0  0  0  0  0  0
    3.6302   -3.1484    6.0707 H   0  0  0  0  0  0  0  0  0  0  0  0
    5.1363   -2.2149    6.1427 H   0  0  0  0  0  0  0  0  0  0  0  0
    5.5972    4.9077    4.6297 H   0  0  0  0  0  0  0  0  0  0  0  0
    6.0934    3.6860    3.4283 H   0  0  0  0  0  0  0  0  0  0  0  0
    5.1789    3.2089    4.8800 H   0  0  0  0  0  0  0  0  0  0  0  0
    4.4582    6.2203    3.0127 H   0  0  0  0  0  0  0  0  0  0  0  0
    3.1512    5.5210    2.0402 H   0  0  0  0  0  0  0  0  0  0  0  0
    4.8485    5.1147    1.6725 H   0  0  0  0  0  0  0  0  0  0  0  0
    4.9991   -3.5491    2.8857 H   0  0  0  0  0  0  0  0  0  0  0  0
    4.3181   -2.3814    0.8271 H   0  0  0  0  0  0  0  0  0  0  0  0
    2.7134    3.2943    2.0976 H   0  0  0  0  0  0  0  0  0  0  0  0
    4.2635    2.4548    2.2530 H   0  0  0  0  0  0  0  0  0  0  0  0
    2.0094    2.5884    4.3389 H   0  0  0  0  0  0  0  0  0  0  0  0
    3.5426    1.7550    4.6164 H   0  0  0  0  0  0  0  0  0  0  0  0
    2.4090    0.8806    0.8589 H   0  0  0  0  0  0  0  0  0  0  0  0
    3.2904   -0.9392    6.1910 H   0  0  0  0  0  0  0  0  0  0  0  0
  1 20  1  0  0  0  0
  1 10  1  0  0  0  0
  2 22  1  0  0  0  0
  2 10  1  0  0  0  0
  3 25  1  0  0  0  0
  3 26  1  0  0  0  0
  4 27  1  0  0  0  0
  4 29  1  0  0  0  0
  5 30  1  0  0  0  0
  5 15  1  0  0  0  0
  6 11  2  0  0  0  0
  7 12  2  0  0  0  0
  7  6  1  0  0  0  0
  8 15  1  0  0  0  0
  8  9  1  0  0  0  0
  9 37  1  0  0  0  0
  9 38  1  0  0  0  0
 10 39  1  0  0  0  0
 10 12  1  0  0  0  0
 11 13  1  0  0  0  0
 11  3  1  0  0  0  0
 12 14  1  0  0  0  0
 13 16  1  0  0  0  0
 14 17  1  0  0  0  0
 14 13  2  0  0  0  0
 15  4  1  0  0  0  0
 16 40  1  0  0  0  0
 17  9  1  0  0  0  0
 18  1  1  0  0  0  0
 19  1  1  0  0  0  0
 21  2  1  0  0  0  0
 23  2  1  0  0  0  0
 24  3  1  0  0  0  0
 28  4  1  0  0  0  0
 31  5  1  0  0  0  0
 32  5  1  0  0  0  0
 33  6  1  0  0  0  0
 34  7  1  0  0  0  0
 35  8  1  0  0  0  0
 36  8  1  0  0  0  0
M  END
>  <HBA>
3

>  <HBD>
1

>  <TPSA>
32.7

>  <cid>
59293

>  <dipole>
2.21

>  <excitation_energy_1>
4.879

>  <excitation_energy_2>
4.943

>  <excitation_energy_3>
5.179

>  <excitation_energy_4>
5.324

>  <homo_energy>
-5.559

>  <homo_lumo_gap>
5.85

>  <logP>
2.764

>  <lumo_energy>
0.291

>  <melting_point>
58.39

>  <molecular_refractivity>
71.82

>  <oscillator_strength_1>
0.0034

>  <oscillator_strength_2>
0.0156

>  <oscillator_strength_3>
0.0048

>  <oscillator_strength_4>
0.0142

>  <open_babel_can_smiles>
CN(CCOc1c(ccc(c1O)C)C(C)C)C

>  <mulliken_charges>
40
1   -0.444733
2   -0.438128
3   -0.58052
4   -0.302198
5   -0.293594
6   -0.19331
7   -0.205072
8   -0.140489
9   -0.036064
10   -0.157162
11   0.158507
12   0.137214
13   0.236249
14   0.25471
15   -0.371855
16   -0.651463
17   -0.538253
18   0.138731
19   0.139905
20   0.147604
21   0.137443
22   0.152931
23   0.138812
24   0.171653
25   0.161588
26   0.158766
27   0.14916
28   0.118865
29   0.152754
30   0.147135
31   0.150782
32   0.118069
33   0.116264
34   0.12027
35   0.144403
36   0.123904
37   0.153803
38   0.154931
39   0.152783
40   0.415605

>  <lowdin_charges>
40
1   -0.444254
2   -0.44047
3   -0.455243
4   -0.360172
5   -0.355667
6   -0.168544
7   -0.181343
8   -0.218537
9   -0.131074
10   -0.122711
11   -0.053976
12   -0.018103
13   0.068432
14   0.057781
15   -0.183702
16   -0.383302
17   -0.222046
18   0.147595
19   0.145672
20   0.150034
21   0.146685
22   0.154795
23   0.144713
24   0.168423
25   0.155923
26   0.155393
27   0.150902
28   0.121503
29   0.150588
30   0.149278
31   0.150237
32   0.120857
33   0.152686
34   0.154121
35   0.150109
36   0.124793
37   0.154292
38   0.149574
39   0.154674
40   0.360084

$$$$

