PCCDB-ID:  52971
public computational chemistry database (PCCDB) project, http://pccdb.org

 35 36  0  0  0  0  0  0  0  0999 V2000
    1.3136   -1.3867   -1.3280 C   0  0  0  0  0  0  0  0  0  0  0  0
    0.6515    4.3209    0.7060 C   0  0  0  0  0  0  0  0  0  0  0  0
    2.2499    4.8899    2.3978 C   0  0  0  0  0  0  0  0  0  0  0  0
    4.8654   -0.7887   -2.7704 C   0  0  0  0  0  0  0  0  0  0  0  0
    5.7919    0.2084   -3.0157 C   0  0  0  0  0  0  0  0  0  0  0  0
    3.0688    4.0668   -1.2012 C   0  0  0  0  0  0  0  0  0  0  0  0
    3.0200    3.9148    0.3322 C   0  0  0  0  0  0  0  0  0  0  0  0
    3.2770    0.8031   -1.8234 C   0  0  0  0  0  0  0  0  0  0  0  0
    5.3757    3.7386   -2.2863 C   0  0  0  0  0  0  0  0  0  0  0  0
    2.6739   -1.6531   -1.9595 C   0  0  0  0  0  0  0  0  0  0  0  0
    3.6061   -0.5081   -2.1791 C   0  0  0  0  0  0  0  0  0  0  0  0
    4.1724    3.2648   -1.8311 C   0  0  0  0  0  0  0  0  0  0  0  0
    4.1948    1.8365   -2.0568 C   0  0  0  0  0  0  0  0  0  0  0  0
    5.4468    1.5186   -2.6547 C   0  0  0  0  0  0  0  0  0  0  0  0
    6.1453    2.6951   -2.7785 N   0  0  0  0  0  0  0  0  0  0  0  0
    2.0143    4.7683    0.9645 N   0  0  0  0  0  0  0  0  0  0  0  0
    2.9867   -2.7927   -2.2785 O   0  0  0  0  0  0  0  0  0  0  0  0
    0.7214   -0.6955   -1.9395 H   0  0  0  0  0  0  0  0  0  0  0  0
    1.4184   -0.9371   -0.3335 H   0  0  0  0  0  0  0  0  0  0  0  0
    0.7812   -2.3353   -1.2401 H   0  0  0  0  0  0  0  0  0  0  0  0
   -0.0551    5.0112    1.1790 H   0  0  0  0  0  0  0  0  0  0  0  0
    0.4486    3.3030    1.0974 H   0  0  0  0  0  0  0  0  0  0  0  0
    0.4428    4.3192   -0.3676 H   0  0  0  0  0  0  0  0  0  0  0  0
    1.5219    5.5840    2.8321 H   0  0  0  0  0  0  0  0  0  0  0  0
    3.2524    5.2929    2.5768 H   0  0  0  0  0  0  0  0  0  0  0  0
    2.1657    3.9269    2.9405 H   0  0  0  0  0  0  0  0  0  0  0  0
    5.0781   -1.8205   -3.0280 H   0  0  0  0  0  0  0  0  0  0  0  0
    6.7528   -0.0175   -3.4709 H   0  0  0  0  0  0  0  0  0  0  0  0
    3.1949    5.1311   -1.4318 H   0  0  0  0  0  0  0  0  0  0  0  0
    2.1085    3.7660   -1.6392 H   0  0  0  0  0  0  0  0  0  0  0  0
    3.9997    4.2049    0.7292 H   0  0  0  0  0  0  0  0  0  0  0  0
    2.8796    2.8471    0.5983 H   0  0  0  0  0  0  0  0  0  0  0  0
    2.3170    1.0278   -1.3683 H   0  0  0  0  0  0  0  0  0  0  0  0
    5.7528    4.7523   -2.3064 H   0  0  0  0  0  0  0  0  0  0  0  0
    7.0619    2.7905   -3.1872 H   0  0  0  0  0  0  0  0  0  0  0  0
  1 20  1  0  0  0  0
  1 19  1  0  0  0  0
  2 16  1  0  0  0  0
  2 22  1  0  0  0  0
  2 21  1  0  0  0  0
  3 25  1  0  0  0  0
  3 24  1  0  0  0  0
  3 26  1  0  0  0  0
  4 11  1  0  0  0  0
  5  4  2  0  0  0  0
  5 14  1  0  0  0  0
  6  7  1  0  0  0  0
  7 32  1  0  0  0  0
  7 31  1  0  0  0  0
  7 16  1  0  0  0  0
  8 33  1  0  0  0  0
  9 12  2  0  0  0  0
 10  1  1  0  0  0  0
 11 10  1  0  0  0  0
 11  8  2  0  0  0  0
 12  6  1  0  0  0  0
 13 12  1  0  0  0  0
 13  8  1  0  0  0  0
 14 13  2  0  0  0  0
 15 14  1  0  0  0  0
 15  9  1  0  0  0  0
 16  3  1  0  0  0  0
 17 10  2  0  0  0  0
 18  1  1  0  0  0  0
 23  2  1  0  0  0  0
 27  4  1  0  0  0  0
 28  5  1  0  0  0  0
 29  6  1  0  0  0  0
 30  6  1  0  0  0  0
 34  9  1  0  0  0  0
 35 15  1  0  0  0  0
M  END
>  <HBA>
2

>  <HBD>
1

>  <TPSA>
36.1

>  <cid>
52971

>  <dipole>
4.53

>  <excitation_energy_1>
3.86

>  <excitation_energy_2>
3.878

>  <excitation_energy_3>
4.232

>  <excitation_energy_4>
4.449

>  <homo_energy>
-5.587

>  <homo_lumo_gap>
4.566

>  <logP>
2.475

>  <lumo_energy>
-1.02

>  <melting_point>
136.31

>  <molecular_refractivity>
70.78

>  <oscillator_strength_1>
0.0002

>  <oscillator_strength_2>
0.0334

>  <oscillator_strength_3>
0.0002

>  <oscillator_strength_4>
0.0432

>  <open_babel_can_smiles>
CN(CCc1c[nH]c2c1cc(cc2)C(=O)C)C

>  <mulliken_charges>
35
1   -0.540669
2   -0.302174
3   -0.294176
4   -0.189706
5   -0.158422
6   -0.354014
7   -0.106664
8   -0.274763
9   -0.007392
10   0.40431
11   0.072956
12   0.079216
13   0.079689
14   0.327555
15   -0.692803
16   -0.366647
17   -0.466176
18   0.166581
19   0.166333
20   0.177235
21   0.149873
22   0.11489
23   0.153079
24   0.147514
25   0.14852
26   0.117985
27   0.158759
28   0.128142
29   0.150717
30   0.145637
31   0.13747
32   0.113881
33   0.131011
34   0.151938
35   0.330317

>  <lowdin_charges>
35
1   -0.477955
2   -0.357558
3   -0.356034
4   -0.137847
5   -0.183113
6   -0.272271
7   -0.197111
8   -0.151815
9   -0.135507
10   0.159232
11   -0.067851
12   -0.053683
13   -0.039144
14   0.040094
15   -0.191839
16   -0.184859
17   -0.255582
18   0.16848
19   0.166436
20   0.172702
21   0.152682
22   0.117688
23   0.148366
24   0.150497
25   0.14868
26   0.120342
27   0.174752
28   0.158223
29   0.154727
30   0.149208
31   0.145639
32   0.116281
33   0.16
34   0.165521
35   0.292621

$$$$

