PCCDB-ID:  10436
public computational chemistry database (PCCDB) project, http://pccdb.org

 17 17  0  0  0  0  0  0  0  0999 V2000
    1.0353   -0.0534    0.0622 C   0  0  0  0  0  0  0  0  0  0  0  0
    3.2565    1.1522    0.0554 C   0  0  0  0  0  0  0  0  0  0  0  0
    3.2521   -1.2605    0.0576 C   0  0  0  0  0  0  0  0  0  0  0  0
    5.3653   -0.0571    0.0520 C   0  0  0  0  0  0  0  0  0  0  0  0
    2.5469   -0.0510    0.0579 C   0  0  0  0  0  0  0  0  0  0  0  0
    4.6581    1.1431    0.0527 C   0  0  0  0  0  0  0  0  0  0  0  0
    4.6507   -1.2564    0.0544 C   0  0  0  0  0  0  0  0  0  0  0  0
    5.3910    2.2984    0.0503 O   0  0  0  0  0  0  0  0  0  0  0  0
    5.3827   -2.4123    0.0546 O   0  0  0  0  0  0  0  0  0  0  0  0
    0.6330    0.9643    0.0545 H   0  0  0  0  0  0  0  0  0  0  0  0
    0.6395   -0.5621    0.9500 H   0  0  0  0  0  0  0  0  0  0  0  0
    0.6344   -0.5777   -0.8141 H   0  0  0  0  0  0  0  0  0  0  0  0
    2.7201    2.0995    0.0559 H   0  0  0  0  0  0  0  0  0  0  0  0
    2.7118   -2.2061    0.0597 H   0  0  0  0  0  0  0  0  0  0  0  0
    6.4491   -0.0608    0.0495 H   0  0  0  0  0  0  0  0  0  0  0  0
    4.7818    3.0528    0.0525 H   0  0  0  0  0  0  0  0  0  0  0  0
    4.7728   -3.1662    0.0502 H   0  0  0  0  0  0  0  0  0  0  0  0
  1 11  1  0  0  0  0
  2 13  1  0  0  0  0
  2  5  2  0  0  0  0
  3  5  1  0  0  0  0
  3 14  1  0  0  0  0
  4  6  2  0  0  0  0
  4  7  1  0  0  0  0
  5  1  1  0  0  0  0
  6  2  1  0  0  0  0
  7  9  1  0  0  0  0
  7  3  2  0  0  0  0
  8 16  1  0  0  0  0
  8  6  1  0  0  0  0
 10  1  1  0  0  0  0
 12  1  1  0  0  0  0
 15  4  1  0  0  0  0
 17  9  1  0  0  0  0
M  END
>  <HBA>
2

>  <HBD>
2

>  <TPSA>
40.46

>  <cid>
10436

>  <dipole>
2.66

>  <excitation_energy_1>
4.978

>  <excitation_energy_2>
5.035

>  <excitation_energy_3>
5.308

>  <excitation_energy_4>
5.411

>  <homo_energy>
-5.763

>  <homo_lumo_gap>
6.0

>  <logP>
1.406

>  <lumo_energy>
0.237

>  <melting_point>
89.1

>  <molecular_refractivity>
35.45

>  <oscillator_strength_1>
0.0201

>  <oscillator_strength_2>
0.0

>  <oscillator_strength_3>
0.0008

>  <oscillator_strength_4>
0.0029

>  <open_babel_can_smiles>
Cc1cc(O)cc(c1)O

>  <mulliken_charges>
17
1   -0.532196
2   -0.264921
3   -0.256833
4   -0.207617
5   0.177324
6   0.364421
7   0.359949
8   -0.646446
9   -0.645817
10   0.154448
11   0.163232
12   0.162981
13   0.10636
14   0.105121
15   0.146121
16   0.407097
17   0.406776

>  <lowdin_charges>
17
1   -0.441318
2   -0.249688
3   -0.249772
4   -0.221686
5   0.023304
6   0.114425
7   0.115228
8   -0.378281
9   -0.37856
10   0.155576
11   0.16177
12   0.161734
13   0.149042
14   0.148975
15   0.1739
16   0.35774
17   0.35761

$$$$

