PCCDB-ID:  22439
public computational chemistry database (PCCDB) project, http://pccdb.org

 26 25  0  0  0  0  0  0  0  0999 V2000
    2.4203    1.6850    1.8503 C   0  0  0  0  0  0  0  0  0  0  0  0
    7.7490   -3.5674    3.3996 C   0  0  0  0  0  0  0  0  0  0  0  0
    3.2249    0.9162    2.9036 C   0  0  0  0  0  0  0  0  0  0  0  0
    6.9537   -2.9244    2.2603 C   0  0  0  0  0  0  0  0  0  0  0  0
    3.7741   -0.4484    2.4220 C   0  0  0  0  0  0  0  0  0  0  0  0
    6.8137   -1.3977    2.4363 C   0  0  0  0  0  0  0  0  0  0  0  0
    4.7702   -0.3285    1.3079 C   0  0  0  0  0  0  0  0  0  0  0  0
    6.0503   -0.7241    1.3313 C   0  0  0  0  0  0  0  0  0  0  0  0
    6.8308   -0.4904    0.0858 N   0  0  0  0  0  0  0  0  0  0  0  0
    6.2850    0.0512   -0.8757 O   0  0  0  0  0  0  0  0  0  0  0  0
    8.0077   -0.8591    0.0898 O   0  0  0  0  0  0  0  0  0  0  0  0
    2.0113    2.6086    2.2744 H   0  0  0  0  0  0  0  0  0  0  0  0
    1.5776    1.0874    1.4813 H   0  0  0  0  0  0  0  0  0  0  0  0
    3.0340    1.9667    0.9876 H   0  0  0  0  0  0  0  0  0  0  0  0
    7.8316   -4.6508    3.2594 H   0  0  0  0  0  0  0  0  0  0  0  0
    7.2704   -3.3926    4.3714 H   0  0  0  0  0  0  0  0  0  0  0  0
    8.7657   -3.1599    3.4506 H   0  0  0  0  0  0  0  0  0  0  0  0
    2.5887    0.7272    3.7777 H   0  0  0  0  0  0  0  0  0  0  0  0
    4.0611    1.5330    3.2572 H   0  0  0  0  0  0  0  0  0  0  0  0
    5.9526   -3.3720    2.2035 H   0  0  0  0  0  0  0  0  0  0  0  0
    7.4464   -3.1261    1.3032 H   0  0  0  0  0  0  0  0  0  0  0  0
    2.9285   -1.0519    2.0582 H   0  0  0  0  0  0  0  0  0  0  0  0
    4.1992   -0.9890    3.2734 H   0  0  0  0  0  0  0  0  0  0  0  0
    7.8112   -0.9522    2.5029 H   0  0  0  0  0  0  0  0  0  0  0  0
    6.3067   -1.1884    3.3848 H   0  0  0  0  0  0  0  0  0  0  0  0
    4.4251    0.1301    0.3858 H   0  0  0  0  0  0  0  0  0  0  0  0
  1 12  1  0  0  0  0
  1  3  1  0  0  0  0
  2 17  1  0  0  0  0
  2 16  1  0  0  0  0
  3 19  1  0  0  0  0
  3 18  1  0  0  0  0
  4  6  1  0  0  0  0
  4  2  1  0  0  0  0
  5  3  1  0  0  0  0
  5 23  1  0  0  0  0
  6 24  1  0  0  0  0
  6 25  1  0  0  0  0
  7  8  2  0  0  0  0
  7  5  1  0  0  0  0
  8  6  1  0  0  0  0
  9 11  2  0  0  0  0
  9  8  1  0  0  0  0
 10  9  2  0  0  0  0
 13  1  1  0  0  0  0
 14  1  1  0  0  0  0
 15  2  1  0  0  0  0
 20  4  1  0  0  0  0
 21  4  1  0  0  0  0
 22  5  1  0  0  0  0
 26  7  1  0  0  0  0
M  END
>  <HBA>
0

>  <HBD>
0

>  <TPSA>
45.82

>  <cid>
22439

>  <dipole>
4.52

>  <excitation_energy_1>
3.703

>  <excitation_energy_2>
4.244

>  <excitation_energy_3>
4.645

>  <excitation_energy_4>
5.842

>  <homo_energy>
-7.442

>  <homo_lumo_gap>
5.287

>  <logP>
3.27

>  <lumo_energy>
-2.155

>  <melting_point>
16.08

>  <molecular_refractivity>
48.2

>  <oscillator_strength_1>
0.0002

>  <oscillator_strength_2>
0.0008

>  <oscillator_strength_3>
0.1936

>  <oscillator_strength_4>
0.0381

>  <open_babel_can_smiles>
CCC/C=C(/N(=O)=O)\CCC

>  <mulliken_charges>
26
1   -0.450356
2   -0.443843
3   -0.2525
4   -0.254356
5   -0.314603
6   -0.331471
7   -0.148436
8   0.276864
9   0.413844
10   -0.406077
11   -0.394642
12   0.152878
13   0.14636
14   0.157406
15   0.149599
16   0.139749
17   0.151572
18   0.143885
19   0.146915
20   0.134341
21   0.162805
22   0.159793
23   0.151324
24   0.174154
25   0.145874
26   0.188921

>  <lowdin_charges>
26
1   -0.45016
2   -0.440828
3   -0.269717
4   -0.270893
5   -0.276511
6   -0.28135
7   -0.122311
8   -0.005615
9   0.301971
10   -0.256945
11   -0.25019
12   0.156397
13   0.149753
14   0.153516
15   0.152228
16   0.144988
17   0.150743
18   0.148864
19   0.147979
20   0.140207
21   0.154505
22   0.161241
23   0.154331
24   0.168579
25   0.153966
26   0.185253

$$$$

