PCCDB-ID:  25255
public computational chemistry database (PCCDB) project, http://pccdb.org

 31 33  0  0  1  0  0  0  0  0999 V2000
   -3.7621   -0.1424    0.7134 C   0  0  0  0  0  0  0  0  0  0  0  0
    3.7022    0.1330    0.9081 C   0  0  0  0  0  0  0  0  0  0  0  0
   -3.3721   -1.3952    0.2357 C   0  0  0  0  0  0  0  0  0  0  0  0
    3.4325   -1.1433    0.4101 C   0  0  0  0  0  0  0  0  0  0  0  0
   -2.8990    0.9406    0.5896 C   0  0  0  0  0  0  0  0  0  0  0  0
    2.7688    1.1488    0.7360 C   0  0  0  0  0  0  0  0  0  0  0  0
   -2.1274   -1.5391   -0.3755 C   0  0  0  0  0  0  0  0  0  0  0  0
    2.2382   -1.3777   -0.2691 C   0  0  0  0  0  0  0  0  0  0  0  0
   -0.7573    1.9841   -0.0270 C   0  0  0  0  0  0  0  0  0  0  0  0
    0.5934    2.0308    0.0070 C   0  0  0  0  0  0  0  0  0  0  0  0
   -1.6246    0.8079    0.0036 C   0  0  0  0  0  0  0  0  0  0  0  0
    1.5424    0.9213    0.0813 C   0  0  0  0  0  0  0  0  0  0  0  0
   -1.2463   -0.4563   -0.5124 C   0  0  0  0  0  0  0  0  0  0  0  0
    1.2902   -0.3643   -0.4544 C   0  0  0  0  0  0  0  0  0  0  0  0
    0.0521   -0.6434   -1.2835 C   0  0  2  0  0  0  0  0  0  0  0  0
    0.0649    0.1115   -2.6431 C   0  0  0  0  0  0  0  0  0  0  0  0
    1.0757    0.5552   -3.2639 N   0  0  0  0  0  0  0  0  0  0  0  0
   -1.1442    0.1873   -3.2573 O   0  0  0  0  0  0  0  0  0  0  0  0
   -4.7349   -0.0106    1.1788 H   0  0  0  0  0  0  0  0  0  0  0  0
    4.6357    0.3352    1.4259 H   0  0  0  0  0  0  0  0  0  0  0  0
   -4.0363   -2.2503    0.3232 H   0  0  0  0  0  0  0  0  0  0  0  0
    4.1546   -1.9458    0.5314 H   0  0  0  0  0  0  0  0  0  0  0  0
   -3.1982    1.9146    0.9688 H   0  0  0  0  0  0  0  0  0  0  0  0
    2.9724    2.1414    1.1303 H   0  0  0  0  0  0  0  0  0  0  0  0
   -1.8329   -2.5093   -0.7693 H   0  0  0  0  0  0  0  0  0  0  0  0
    2.0424   -2.3640   -0.6834 H   0  0  0  0  0  0  0  0  0  0  0  0
   -1.2797    2.9377    0.0257 H   0  0  0  0  0  0  0  0  0  0  0  0
    1.0428    3.0195    0.0827 H   0  0  0  0  0  0  0  0  0  0  0  0
    0.0900   -1.7035   -1.5691 H   0  0  0  0  0  0  0  0  0  0  0  0
    1.9168    0.4213   -2.7013 H   0  0  0  0  0  0  0  0  0  0  0  0
   -1.8324   -0.0978   -2.6330 H   0  0  0  0  0  0  0  0  0  0  0  0
  1 19  1  0  0  0  0
  2 20  1  0  0  0  0
  3 21  1  0  0  0  0
  3  1  2  0  0  0  0
  4 22  1  0  0  0  0
  4  2  2  0  0  0  0
  5  1  1  0  0  0  0
  5 23  1  0  0  0  0
  6  2  1  0  0  0  0
  6 24  1  0  0  0  0
  7  3  1  0  0  0  0
  8  4  1  0  0  0  0
  9 11  1  0  0  0  0
  9 10  2  0  0  0  0
  9 27  1  0  0  0  0
 10 12  1  0  0  0  0
 10 28  1  0  0  0  0
 11  5  2  0  0  0  0
 12  6  2  0  0  0  0
 13  7  2  0  0  0  0
 13 11  1  0  0  0  0
 14  8  2  0  0  0  0
 14 12  1  0  0  0  0
 15 29  1  6  0  0  0
 15 13  1  0  0  0  0
 15 14  1  0  0  0  0
 16 15  1  0  0  0  0
 17 30  1  0  0  0  0
 17 16  2  0  0  0  0
 18 16  1  0  0  0  0
 18 31  1  0  0  0  0
 25  7  1  0  0  0  0
 26  8  1  0  0  0  0
M  END
>  <HBA>
2

>  <HBD>
1

>  <TPSA>
43.09

>  <cid>
25255

>  <dipole>
4.75

>  <excitation_energy_1>
4.072

>  <excitation_energy_2>
4.388

>  <excitation_energy_3>
4.607

>  <excitation_energy_4>
4.703

>  <homo_energy>
-6.044

>  <homo_lumo_gap>
4.533

>  <logP>
3.488

>  <lumo_energy>
-1.51

>  <melting_point>
175.69

>  <molecular_refractivity>
72.54

>  <oscillator_strength_1>
0.3136

>  <oscillator_strength_2>
0.0034

>  <oscillator_strength_3>
0.0275

>  <oscillator_strength_4>
0.0073

>  <open_babel_can_smiles>
OC(=N)[C@@H]1c2ccccc2C=Cc2c1cccc2

>  <mulliken_charges>
31
1   -0.129295
2   -0.128999
3   -0.122872
4   -0.123745
5   -0.184405
6   -0.184764
7   -0.193196
8   -0.19103
9   -0.193603
10   -0.18488
11   0.152974
12   0.144063
13   0.035717
14   0.097574
15   -0.372508
16   0.507651
17   -0.59646
18   -0.585107
19   0.139095
20   0.13673
21   0.138813
22   0.136624
23   0.138218
24   0.135993
25   0.137243
26   0.133309
27   0.139705
28   0.141166
29   0.17077
30   0.292243
31   0.412975

>  <lowdin_charges>
31
1   -0.15134
2   -0.153174
3   -0.155567
4   -0.153354
5   -0.151237
6   -0.150746
7   -0.17073
8   -0.163437
9   -0.16213
10   -0.15026
11   -0.006106
12   -0.006343
13   -0.026365
14   -0.006924
15   -0.157588
16   0.123817
17   -0.39764
18   -0.363965
19   0.16226
20   0.161611
21   0.163664
22   0.162749
23   0.161255
24   0.159755
25   0.159431
26   0.157917
27   0.163768
28   0.164105
29   0.167658
30   0.261462
31   0.357453

$$$$

