PCCDB-ID:  36164
public computational chemistry database (PCCDB) project, http://pccdb.org

 28 30  0  0  1  0  0  0  0  0999 V2000
    1.9663    0.1046   -0.0576 C   0  0  0  0  0  0  0  0  0  0  0  0
    0.3603   -1.6701    0.6981 C   0  0  0  0  0  0  0  0  0  0  0  0
    0.1921   -0.6885   -1.6606 C   0  0  0  0  0  0  0  0  0  0  0  0
    0.2302    0.7172    1.6598 C   0  0  0  0  0  0  0  0  0  0  0  0
    0.1314    1.6935   -0.6900 C   0  0  0  0  0  0  0  0  0  0  0  0
    1.1394   -0.4134    1.1347 C   0  0  2  0  0  0  0  0  0  0  0  0
    1.0100    0.5312   -1.1874 C   0  0  1  0  0  0  0  0  0  0  0  0
   -0.5575   -1.4410   -0.5312 C   0  0  2  0  0  0  0  0  0  0  0  0
   -0.6821    1.3338    0.5724 C   0  0  1  0  0  0  0  0  0  0  0  0
   -1.8852   -0.7992   -0.1343 C   0  0  0  0  0  0  0  0  0  0  0  0
   -3.0256   -1.3981   -0.1368 N   0  0  0  0  0  0  0  0  0  0  0  0
   -1.8543    0.5194    0.2565 N   0  0  0  0  0  0  0  0  0  0  0  0
    2.6498   -0.6797   -0.4111 H   0  0  0  0  0  0  0  0  0  0  0  0
    2.5900    0.9549    0.2509 H   0  0  0  0  0  0  0  0  0  0  0  0
   -0.2369   -2.0650    1.5300 H   0  0  0  0  0  0  0  0  0  0  0  0
    1.0896   -2.4497    0.4373 H   0  0  0  0  0  0  0  0  0  0  0  0
    0.8865   -1.4001   -2.1285 H   0  0  0  0  0  0  0  0  0  0  0  0
   -0.5214   -0.3914   -2.4398 H   0  0  0  0  0  0  0  0  0  0  0  0
    0.8702    1.5165    2.0599 H   0  0  0  0  0  0  0  0  0  0  0  0
   -0.3917    0.3612    2.4908 H   0  0  0  0  0  0  0  0  0  0  0  0
   -0.5600    2.0251   -1.4736 H   0  0  0  0  0  0  0  0  0  0  0  0
    0.7837    2.5451   -0.4499 H   0  0  0  0  0  0  0  0  0  0  0  0
    1.8171   -0.7063    1.9480 H   0  0  0  0  0  0  0  0  0  0  0  0
    1.5963    0.8915   -2.0437 H   0  0  0  0  0  0  0  0  0  0  0  0
   -0.8289   -2.4279   -0.9236 H   0  0  0  0  0  0  0  0  0  0  0  0
   -1.0977    2.2641    0.9749 H   0  0  0  0  0  0  0  0  0  0  0  0
   -2.9190   -2.3526   -0.4825 H   0  0  0  0  0  0  0  0  0  0  0  0
   -2.7526    0.8477    0.5865 H   0  0  0  0  0  0  0  0  0  0  0  0
  1 14  1  0  0  0  0
  1  6  1  0  0  0  0
  2  6  1  0  0  0  0
  2 15  1  0  0  0  0
  3  7  1  0  0  0  0
  3  8  1  0  0  0  0
  4 19  1  0  0  0  0
  4 20  1  0  0  0  0
  5 22  1  0  0  0  0
  5  9  1  0  0  0  0
  6  4  1  0  0  0  0
  6 23  1  1  0  0  0
  7 24  1  6  0  0  0
  7  5  1  0  0  0  0
  7  1  1  0  0  0  0
  8 25  1  6  0  0  0
  8 10  1  0  0  0  0
  8  2  1  0  0  0  0
  9 26  1  1  0  0  0
  9  4  1  0  0  0  0
 10 12  1  0  0  0  0
 11 10  2  0  0  0  0
 12  9  1  0  0  0  0
 12 28  1  0  0  0  0
 13  1  1  0  0  0  0
 16  2  1  0  0  0  0
 17  3  1  0  0  0  0
 18  3  1  0  0  0  0
 21  5  1  0  0  0  0
 27 11  1  0  0  0  0
M  END
>  <HBA>
2

>  <HBD>
1

>  <TPSA>
38.38

>  <cid>
36164

>  <dipole>
3.04

>  <excitation_energy_1>
4.889

>  <excitation_energy_2>
5.379

>  <excitation_energy_3>
5.646

>  <excitation_energy_4>
5.706

>  <homo_energy>
-5.592

>  <homo_lumo_gap>
6.89

>  <logP>
1.688

>  <lumo_energy>
1.298

>  <melting_point>
110.63

>  <molecular_refractivity>
53.56

>  <oscillator_strength_1>
0.0006

>  <oscillator_strength_2>
0.0086

>  <oscillator_strength_3>
0.004

>  <oscillator_strength_4>
0.0408

>  <open_babel_can_smiles>
N=C1N[C@@H]2C[C@@H]3C[C@H]1C[C@H](C2)C3

>  <mulliken_charges>
28
1   -0.26897
2   -0.273537
3   -0.273731
4   -0.262975
5   -0.255917
6   -0.088376
7   -0.089828
8   -0.159651
9   0.02329
10   0.465713
11   -0.66365
12   -0.587609
13   0.126823
14   0.126462
15   0.143475
16   0.132847
17   0.132041
18   0.144293
19   0.129172
20   0.138441
21   0.140036
22   0.127193
23   0.121667
24   0.121274
25   0.127135
26   0.131123
27   0.270169
28   0.323089

>  <lowdin_charges>
28
1   -0.283862
2   -0.280754
3   -0.281654
4   -0.291787
5   -0.288611
6   -0.13383
7   -0.133629
8   -0.151224
9   -0.063231
10   0.087117
11   -0.464095
12   -0.28876
13   0.141439
14   0.140985
15   0.149971
16   0.145134
17   0.146015
18   0.150754
19   0.145462
20   0.148567
21   0.149901
22   0.143315
23   0.143297
24   0.143051
25   0.150088
26   0.150189
27   0.243633
28   0.28252

$$$$

