PCCDB-ID:  48038
public computational chemistry database (PCCDB) project, http://pccdb.org

 31 30  0  0  0  0  0  0  0  0999 V2000
    8.7435   -0.1226    0.7951 C   0  0  0  0  0  0  0  0  0  0  0  0
    1.7176    5.2517   -0.1921 C   0  0  0  0  0  0  0  0  0  0  0  0
    8.2737    0.9126   -0.2336 C   0  0  0  0  0  0  0  0  0  0  0  0
    2.0390    4.1177    0.7790 C   0  0  0  0  0  0  0  0  0  0  0  0
    6.9121    0.5941   -0.8774 C   0  0  0  0  0  0  0  0  0  0  0  0
    5.7059    0.5643    0.0781 C   0  0  0  0  0  0  0  0  0  0  0  0
    5.3844    1.9098    0.7426 C   0  0  0  0  0  0  0  0  0  0  0  0
    4.1436    1.8572    1.6420 C   0  0  0  0  0  0  0  0  0  0  0  0
    3.7781    3.2119    2.2663 C   0  0  0  0  0  0  0  0  0  0  0  0
    3.4140    4.2207    1.2658 N   0  0  0  0  0  0  0  0  0  0  0  0
    9.7448    0.1197    1.1696 H   0  0  0  0  0  0  0  0  0  0  0  0
    8.7875   -1.1263    0.3534 H   0  0  0  0  0  0  0  0  0  0  0  0
    8.0733   -0.1729    1.6608 H   0  0  0  0  0  0  0  0  0  0  0  0
    0.6963    5.1588   -0.5774 H   0  0  0  0  0  0  0  0  0  0  0  0
    2.4130    5.2431   -1.0377 H   0  0  0  0  0  0  0  0  0  0  0  0
    1.7983    6.2292    0.3011 H   0  0  0  0  0  0  0  0  0  0  0  0
    9.0229    0.9845   -1.0338 H   0  0  0  0  0  0  0  0  0  0  0  0
    8.2414    1.9054    0.2345 H   0  0  0  0  0  0  0  0  0  0  0  0
    1.9274    3.1569    0.2619 H   0  0  0  0  0  0  0  0  0  0  0  0
    1.2993    4.1118    1.6049 H   0  0  0  0  0  0  0  0  0  0  0  0
    6.9847   -0.3800   -1.3828 H   0  0  0  0  0  0  0  0  0  0  0  0
    6.7161    1.3325   -1.6681 H   0  0  0  0  0  0  0  0  0  0  0  0
    5.8626   -0.1996    0.8531 H   0  0  0  0  0  0  0  0  0  0  0  0
    4.8252    0.2324   -0.4907 H   0  0  0  0  0  0  0  0  0  0  0  0
    5.2322    2.6795   -0.0246 H   0  0  0  0  0  0  0  0  0  0  0  0
    6.2406    2.2447    1.3459 H   0  0  0  0  0  0  0  0  0  0  0  0
    4.3051    1.1384    2.4584 H   0  0  0  0  0  0  0  0  0  0  0  0
    3.2884    1.4715    1.0691 H   0  0  0  0  0  0  0  0  0  0  0  0
    4.6502    3.5917    2.8143 H   0  0  0  0  0  0  0  0  0  0  0  0
    2.9744    3.0600    3.0133 H   0  0  0  0  0  0  0  0  0  0  0  0
    3.5407    5.1463    1.6712 H   0  0  0  0  0  0  0  0  0  0  0  0
  1 11  1  0  0  0  0
  1 13  1  0  0  0  0
  2 16  1  0  0  0  0
  2  4  1  0  0  0  0
  3 18  1  0  0  0  0
  3  1  1  0  0  0  0
  4 10  1  0  0  0  0
  4 20  1  0  0  0  0
  5  3  1  0  0  0  0
  5  6  1  0  0  0  0
  6  7  1  0  0  0  0
  6 23  1  0  0  0  0
  7 26  1  0  0  0  0
  7  8  1  0  0  0  0
  8  9  1  0  0  0  0
  8 27  1  0  0  0  0
  9 29  1  0  0  0  0
  9 30  1  0  0  0  0
 10 31  1  0  0  0  0
 10  9  1  0  0  0  0
 12  1  1  0  0  0  0
 14  2  1  0  0  0  0
 15  2  1  0  0  0  0
 17  3  1  0  0  0  0
 19  4  1  0  0  0  0
 21  5  1  0  0  0  0
 22  5  1  0  0  0  0
 24  6  1  0  0  0  0
 25  7  1  0  0  0  0
 28  8  1  0  0  0  0
M  END
>  <HBA>
1

>  <HBD>
1

>  <TPSA>
12.03

>  <cid>
48038

>  <dipole>
1.01

>  <excitation_energy_1>
5.341

>  <excitation_energy_2>
5.763

>  <excitation_energy_3>
5.91

>  <excitation_energy_4>
5.944

>  <homo_energy>
-5.853

>  <homo_lumo_gap>
8.082

>  <logP>
2.957

>  <lumo_energy>
2.229

>  <melting_point>
-1.38

>  <molecular_refractivity>
48.18

>  <oscillator_strength_1>
0.0046

>  <oscillator_strength_2>
0.0204

>  <oscillator_strength_3>
0.0239

>  <oscillator_strength_4>
0.0286

>  <open_babel_can_smiles>
CCCCCCCNCC

>  <mulliken_charges>
31
1   -0.442986
2   -0.451121
3   -0.249623
4   -0.113058
5   -0.250869
6   -0.256219
7   -0.247907
8   -0.253485
9   -0.130618
10   -0.539726
11   0.139928
12   0.139553
13   0.144738
14   0.143878
15   0.158547
16   0.136897
17   0.128647
18   0.135238
19   0.143568
20   0.108192
21   0.123096
22   0.12652
23   0.126667
24   0.124356
25   0.150893
26   0.123565
27   0.124271
28   0.129986
29   0.127759
30   0.108868
31   0.290444

>  <lowdin_charges>
31
1   -0.446438
2   -0.446944
3   -0.276049
4   -0.199708
5   -0.27667
6   -0.279372
7   -0.280437
8   -0.28216
9   -0.204962
10   -0.365105
11   0.148053
12   0.144548
13   0.146743
14   0.151558
15   0.156202
16   0.14357
17   0.1416
18   0.139449
19   0.14119
20   0.114419
21   0.137678
22   0.140341
23   0.136769
24   0.139679
25   0.150061
26   0.136347
27   0.140392
28   0.139102
29   0.1408
30   0.118382
31   0.250961

$$$$

