PCCDB-ID:  19837
public computational chemistry database (PCCDB) project, http://pccdb.org

 32 32  0  0  0  0  0  0  0  0999 V2000
    3.2383   -0.2482   -0.8731 C   0  0  0  0  0  0  0  0  0  0  0  0
    0.9693   -0.2900    0.2659 C   0  0  0  0  0  0  0  0  0  0  0  0
    5.9504   -2.1543    5.5481 C   0  0  0  0  0  0  0  0  0  0  0  0
    4.9445   -1.3335    7.6521 C   0  0  0  0  0  0  0  0  0  0  0  0
    3.4769    2.9222    2.7167 C   0  0  0  0  0  0  0  0  0  0  0  0
    2.9052    2.4405    1.5374 C   0  0  0  0  0  0  0  0  0  0  0  0
    4.0240    2.0493    3.6550 C   0  0  0  0  0  0  0  0  0  0  0  0
    3.4057    0.1905    2.2172 C   0  0  0  0  0  0  0  0  0  0  0  0
    2.2333    0.5442   -0.0165 C   0  0  0  0  0  0  0  0  0  0  0  0
    2.8626    1.0674    1.2682 C   0  0  0  0  0  0  0  0  0  0  0  0
    3.9760    0.6808    3.3883 C   0  0  0  0  0  0  0  0  0  0  0  0
    4.3541   -0.2273    5.5771 C   0  0  0  0  0  0  0  0  0  0  0  0
    5.0756   -1.1993    6.2103 N   0  0  0  0  0  0  0  0  0  0  0  0
    3.6144    0.5681    6.1244 O   0  0  0  0  0  0  0  0  0  0  0  0
    4.5732   -0.2679    4.2170 O   0  0  0  0  0  0  0  0  0  0  0  0
    2.7834   -0.5443   -1.8259 H   0  0  0  0  0  0  0  0  0  0  0  0
    3.5633   -1.1628   -0.3629 H   0  0  0  0  0  0  0  0  0  0  0  0
    4.1311    0.3479   -1.0911 H   0  0  0  0  0  0  0  0  0  0  0  0
    0.5006   -0.6117   -0.6719 H   0  0  0  0  0  0  0  0  0  0  0  0
    0.2332    0.2871    0.8359 H   0  0  0  0  0  0  0  0  0  0  0  0
    1.2083   -1.1896    0.8455 H   0  0  0  0  0  0  0  0  0  0  0  0
    6.9624   -2.0921    5.9701 H   0  0  0  0  0  0  0  0  0  0  0  0
    5.9983   -1.9460    4.4823 H   0  0  0  0  0  0  0  0  0  0  0  0
    5.5830   -3.1790    5.6975 H   0  0  0  0  0  0  0  0  0  0  0  0
    4.5512   -2.3255    7.9119 H   0  0  0  0  0  0  0  0  0  0  0  0
    4.2619   -0.5674    8.0164 H   0  0  0  0  0  0  0  0  0  0  0  0
    5.9219   -1.2127    8.1377 H   0  0  0  0  0  0  0  0  0  0  0  0
    3.5008    3.9917    2.9077 H   0  0  0  0  0  0  0  0  0  0  0  0
    2.4872    3.1394    0.8167 H   0  0  0  0  0  0  0  0  0  0  0  0
    4.4616    2.4140    4.5753 H   0  0  0  0  0  0  0  0  0  0  0  0
    3.3977   -0.8841    2.0596 H   0  0  0  0  0  0  0  0  0  0  0  0
    1.9239    1.4215   -0.6008 H   0  0  0  0  0  0  0  0  0  0  0  0
  1 17  1  0  0  0  0
  1  9  1  0  0  0  0
  2 20  1  0  0  0  0
  2 21  1  0  0  0  0
  3 24  1  0  0  0  0
  3 22  1  0  0  0  0
  3 13  1  0  0  0  0
  4 25  1  0  0  0  0
  4 26  1  0  0  0  0
  4 27  1  0  0  0  0
  5 28  1  0  0  0  0
  5  7  2  0  0  0  0
  6  5  1  0  0  0  0
  7 30  1  0  0  0  0
  8 11  2  0  0  0  0
  9  2  1  0  0  0  0
  9 10  1  0  0  0  0
 10  6  2  0  0  0  0
 10  8  1  0  0  0  0
 11  7  1  0  0  0  0
 11 15  1  0  0  0  0
 12 14  2  0  0  0  0
 12 13  1  0  0  0  0
 13  4  1  0  0  0  0
 15 12  1  0  0  0  0
 16  1  1  0  0  0  0
 18  1  1  0  0  0  0
 19  2  1  0  0  0  0
 23  3  1  0  0  0  0
 29  6  1  0  0  0  0
 31  8  1  0  0  0  0
 32  9  1  0  0  0  0
M  END
>  <HBA>
3

>  <HBD>
0

>  <TPSA>
29.54

>  <cid>
19837

>  <dipole>
2.51

>  <excitation_energy_1>
5.179

>  <excitation_energy_2>
5.722

>  <excitation_energy_3>
5.82

>  <excitation_energy_4>
5.961

>  <homo_energy>
-6.21

>  <homo_lumo_gap>
6.302

>  <logP>
2.87

>  <lumo_energy>
0.093

>  <melting_point>
44.96

>  <molecular_refractivity>
60.61

>  <oscillator_strength_1>
0.0065

>  <oscillator_strength_2>
0.0736

>  <oscillator_strength_3>
0.0085

>  <oscillator_strength_4>
0.0036

>  <open_babel_can_smiles>
O=C(N(C)C)Oc1cccc(c1)C(C)C

>  <mulliken_charges>
32
1   -0.439761
2   -0.437756
3   -0.316088
4   -0.317567
5   -0.141883
6   -0.191112
7   -0.138076
8   -0.228516
9   -0.159031
10   0.177006
11   0.360774
12   0.783111
13   -0.435438
14   -0.510848
15   -0.560501
16   0.141462
17   0.142711
18   0.150045
19   0.140556
20   0.152045
21   0.143927
22   0.15531
23   0.199104
24   0.154818
25   0.153385
26   0.205537
27   0.153023
28   0.132007
29   0.121562
30   0.151487
31   0.129525
32   0.12918

>  <lowdin_charges>
32
1   -0.442497
2   -0.443088
3   -0.349096
4   -0.350003
5   -0.147194
6   -0.180286
7   -0.171365
8   -0.183046
9   -0.118406
10   0.005662
11   0.107175
12   0.217388
13   -0.107127
14   -0.307307
15   -0.180008
16   0.148647
17   0.14719
18   0.153306
19   0.148266
20   0.155365
21   0.148129
22   0.148991
23   0.177845
24   0.147686
25   0.148188
26   0.186447
27   0.148617
28   0.157639
29   0.155735
30   0.174214
31   0.159799
32   0.143134

$$$$

