PCCDB-ID:  27965
public computational chemistry database (PCCDB) project, http://pccdb.org

 31 32  0  0  0  0  0  0  0  0999 V2000
    1.2131   -1.6550   -0.4763 C   0  0  0  0  0  0  0  0  0  0  0  0
    3.1049   -0.9234   -1.7640 C   0  0  0  0  0  0  0  0  0  0  0  0
    4.7903   -6.3697   -0.0657 C   0  0  0  0  0  0  0  0  0  0  0  0
    7.5947   -4.1439    0.6337 C   0  0  0  0  0  0  0  0  0  0  0  0
    7.9153   -2.8177    0.8719 C   0  0  0  0  0  0  0  0  0  0  0  0
    5.2170   -3.6218    0.4107 C   0  0  0  0  0  0  0  0  0  0  0  0
    5.5889   -0.0404    1.0068 C   0  0  0  0  0  0  0  0  0  0  0  0
    3.2261   -0.9776    0.6636 C   0  0  0  0  0  0  0  0  0  0  0  0
    4.7207   -1.0748    0.7509 C   0  0  0  0  0  0  0  0  0  0  0  0
    6.2563   -4.5454    0.4023 C   0  0  0  0  0  0  0  0  0  0  0  0
    5.5251   -2.2694    0.6618 C   0  0  0  0  0  0  0  0  0  0  0  0
    6.8712   -1.8851    0.8843 C   0  0  0  0  0  0  0  0  0  0  0  0
    6.8806   -0.5175    1.0951 N   0  0  0  0  0  0  0  0  0  0  0  0
    2.6655   -1.5920   -0.5464 N   0  0  0  0  0  0  0  0  0  0  0  0
    6.1002   -5.8904    0.1731 O   0  0  0  0  0  0  0  0  0  0  0  0
    0.8238   -2.1770   -1.3574 H   0  0  0  0  0  0  0  0  0  0  0  0
    0.7324   -0.6565   -0.4334 H   0  0  0  0  0  0  0  0  0  0  0  0
    0.9071   -2.2151    0.4145 H   0  0  0  0  0  0  0  0  0  0  0  0
    2.7219   -1.4641   -2.6364 H   0  0  0  0  0  0  0  0  0  0  0  0
    4.1968   -0.9214   -1.8116 H   0  0  0  0  0  0  0  0  0  0  0  0
    2.7538    0.1266   -1.8304 H   0  0  0  0  0  0  0  0  0  0  0  0
    4.8852   -7.4476   -0.2142 H   0  0  0  0  0  0  0  0  0  0  0  0
    4.3495   -5.9172   -0.9648 H   0  0  0  0  0  0  0  0  0  0  0  0
    4.1262   -6.1782    0.7886 H   0  0  0  0  0  0  0  0  0  0  0  0
    8.3644   -4.9087    0.6128 H   0  0  0  0  0  0  0  0  0  0  0  0
    8.9465   -2.5196    1.0432 H   0  0  0  0  0  0  0  0  0  0  0  0
    4.1915   -3.9018    0.2051 H   0  0  0  0  0  0  0  0  0  0  0  0
    5.3805    1.0122    1.1452 H   0  0  0  0  0  0  0  0  0  0  0  0
    2.9244    0.0868    0.7572 H   0  0  0  0  0  0  0  0  0  0  0  0
    2.7722   -1.5014    1.5171 H   0  0  0  0  0  0  0  0  0  0  0  0
    7.6994    0.0437    1.2673 H   0  0  0  0  0  0  0  0  0  0  0  0
  1 17  1  0  0  0  0
  1 18  1  0  0  0  0
  2 14  1  0  0  0  0
  3 15  1  0  0  0  0
  3 24  1  0  0  0  0
  4  5  2  0  0  0  0
  5 12  1  0  0  0  0
  5 26  1  0  0  0  0
  6 11  1  0  0  0  0
  7 13  1  0  0  0  0
  7 28  1  0  0  0  0
  8  9  1  0  0  0  0
  8 29  1  0  0  0  0
  8 30  1  0  0  0  0
  9  7  2  0  0  0  0
 10  6  2  0  0  0  0
 10  4  1  0  0  0  0
 11  9  1  0  0  0  0
 11 12  2  0  0  0  0
 12 13  1  0  0  0  0
 13 31  1  0  0  0  0
 14  1  1  0  0  0  0
 14  8  1  0  0  0  0
 15 10  1  0  0  0  0
 16  1  1  0  0  0  0
 19  2  1  0  0  0  0
 20  2  1  0  0  0  0
 21  2  1  0  0  0  0
 22  3  1  0  0  0  0
 23  3  1  0  0  0  0
 25  4  1  0  0  0  0
 27  6  1  0  0  0  0
M  END
>  <HBA>
2

>  <HBD>
1

>  <TPSA>
28.26

>  <cid>
27965

>  <dipole>
2.15

>  <excitation_energy_1>
4.42

>  <excitation_energy_2>
4.643

>  <excitation_energy_3>
4.746

>  <excitation_energy_4>
4.815

>  <homo_energy>
-5.119

>  <homo_lumo_gap>
5.14

>  <logP>
2.238

>  <lumo_energy>
0.022

>  <melting_point>
107.18

>  <molecular_refractivity>
62.27

>  <oscillator_strength_1>
0.0609

>  <oscillator_strength_2>
0.0003

>  <oscillator_strength_3>
0.0897

>  <oscillator_strength_4>
0.006

>  <open_babel_can_smiles>
COc1ccc2c(c1)c(c[nH]2)CN(C)C

>  <mulliken_charges>
31
1   -0.289974
2   -0.29928
3   -0.206833
4   -0.191392
5   -0.164331
6   -0.28255
7   -0.004625
8   -0.196781
9   0.057944
10   0.370159
11   0.07747
12   0.306943
13   -0.694478
14   -0.362655
15   -0.517207
16   0.147136
17   0.114373
18   0.145764
19   0.144061
20   0.167324
21   0.109398
22   0.161107
23   0.149742
24   0.146013
25   0.130787
26   0.120559
27   0.142286
28   0.144315
29   0.106598
30   0.143923
31   0.324206

>  <lowdin_charges>
31
1   -0.357669
2   -0.357053
3   -0.277026
4   -0.186074
5   -0.178003
6   -0.219083
7   -0.134529
8   -0.189688
9   -0.072842
10   0.089075
11   -0.023557
12   0.017014
13   -0.205339
14   -0.182916
15   -0.209908
16   0.149774
17   0.11812
18   0.148347
19   0.148659
20   0.15813
21   0.115172
22   0.155896
23   0.143996
24   0.142604
25   0.16508
26   0.154585
27   0.168694
28   0.161025
29   0.11743
30   0.149384
31   0.2907

$$$$

