PCCDB-ID:  23766
public computational chemistry database (PCCDB) project, http://pccdb.org

 28 28  0  0  1  0  0  0  0  0999 V2000
    1.9753    0.6757   -1.1072 C   0  0  0  0  0  0  0  0  0  0  0  0
    2.9049   -3.6636    1.3204 C   0  0  0  0  0  0  0  0  0  0  0  0
    2.9787    5.3717    0.6604 C   0  0  0  0  0  0  0  0  0  0  0  0
    1.8221    4.6494    0.9634 C   0  0  0  0  0  0  0  0  0  0  0  0
    4.1008    4.7021    0.1715 C   0  0  0  0  0  0  0  0  0  0  0  0
    1.7876    3.2680    0.7744 C   0  0  0  0  0  0  0  0  0  0  0  0
    4.0648    3.3183   -0.0103 C   0  0  0  0  0  0  0  0  0  0  0  0
    2.8791    1.0809    0.0629 C   0  0  1  0  0  0  0  0  0  0  0  0
    2.9093    2.5841    0.2827 C   0  0  0  0  0  0  0  0  0  0  0  0
    1.6824   -1.6756    1.5731 C   0  0  2  0  0  0  0  0  0  0  0  0
    2.4181    0.4190    1.3099 N   0  0  0  0  0  0  0  0  0  0  0  0
    2.7431   -1.0006    1.2694 N   0  0  0  0  0  0  0  0  0  0  0  0
    0.4924   -1.1580    1.8715 O   0  0  0  0  0  0  0  0  0  0  0  0
    1.6677   -3.0057    1.6268 O   0  0  0  0  0  0  0  0  0  0  0  0
    2.3266    1.1380   -2.0354 H   0  0  0  0  0  0  0  0  0  0  0  0
    0.9424    0.9973   -0.9336 H   0  0  0  0  0  0  0  0  0  0  0  0
    1.9870   -0.4109   -1.2358 H   0  0  0  0  0  0  0  0  0  0  0  0
    2.6955   -4.7286    1.4276 H   0  0  0  0  0  0  0  0  0  0  0  0
    3.6899   -3.3520    2.0146 H   0  0  0  0  0  0  0  0  0  0  0  0
    3.2217   -3.4341    0.2994 H   0  0  0  0  0  0  0  0  0  0  0  0
    3.0045    6.4482    0.8065 H   0  0  0  0  0  0  0  0  0  0  0  0
    0.9446    5.1632    1.3475 H   0  0  0  0  0  0  0  0  0  0  0  0
    5.0068    5.2543   -0.0639 H   0  0  0  0  0  0  0  0  0  0  0  0
    0.8858    2.7121    1.0145 H   0  0  0  0  0  0  0  0  0  0  0  0
    4.9445    2.8006   -0.3864 H   0  0  0  0  0  0  0  0  0  0  0  0
    3.9007    0.7396   -0.1631 H   0  0  0  0  0  0  0  0  0  0  0  0
    2.9783    0.8022    2.0731 H   0  0  0  0  0  0  0  0  0  0  0  0
    0.6753   -0.1858    1.7670 H   0  0  0  0  0  0  0  0  0  0  0  0
  1 16  1  0  0  0  0
  1  8  1  0  0  0  0
  2 18  1  0  0  0  0
  2 14  1  0  0  0  0
  2 19  1  0  0  0  0
  3 21  1  0  0  0  0
  3  4  2  0  0  0  0
  4 22  1  0  0  0  0
  5  3  1  0  0  0  0
  6  4  1  0  0  0  0
  6 24  1  0  0  0  0
  7  5  2  0  0  0  0
  7  9  1  0  0  0  0
  8 26  1  6  0  0  0
  8  9  1  0  0  0  0
  8 11  1  0  0  0  0
  9  6  2  0  0  0  0
 10 12  1  1  0  0  0
 10 14  1  0  0  0  0
 10 13  1  0  0  0  0
 11 27  1  0  0  0  0
 12 11  1  0  0  0  0
 15  1  1  0  0  0  0
 17  1  1  0  0  0  0
 20  2  1  0  0  0  0
 23  5  1  0  0  0  0
 25  7  1  0  0  0  0
 28 13  1  0  0  0  0
M  RAD  2  10   2  12   2
M  END
>  <HBA>
4

>  <HBD>
2

>  <TPSA>
50.36

>  <cid>
23766

>  <dipole>
1.92

>  <excitation_energy_1>
5.266

>  <excitation_energy_2>
5.321

>  <excitation_energy_3>
5.437

>  <excitation_energy_4>
5.783

>  <homo_energy>
-6.231

>  <homo_lumo_gap>
6.087

>  <logP>
2.39

>  <lumo_energy>
-0.144

>  <melting_point>
82.29

>  <molecular_refractivity>
53.11

>  <oscillator_strength_1>
0.0011

>  <oscillator_strength_2>
0.0023

>  <oscillator_strength_3>
0.0096

>  <oscillator_strength_4>
0.0024

>  <open_babel_can_smiles>
CO[C]([N]N[C@H](c1ccccc1)C)O

>  <mulliken_charges>
28
1   -0.442827
2   -0.209747
3   -0.128608
4   -0.129636
5   -0.127616
6   -0.171172
7   -0.190594
8   -0.000551
9   0.133484
10   0.744723
11   -0.524039
12   -0.411296
13   -0.592957
14   -0.451725
15   0.150971
16   0.147212
17   0.1596
18   0.165999
19   0.170721
20   0.169109
21   0.130771
22   0.131482
23   0.131013
24   0.131823
25   0.128661
26   0.134719
27   0.325141
28   0.425339

>  <lowdin_charges>
28
1   -0.445612
2   -0.269107
3   -0.154496
4   -0.155311
5   -0.155996
6   -0.163024
7   -0.16693
8   -0.056917
9   -0.014615
10   0.180146
11   -0.293793
12   -0.269466
13   -0.352839
14   -0.1681
15   0.156846
16   0.149907
17   0.156343
18   0.158891
19   0.160241
20   0.157328
21   0.156331
22   0.15902
23   0.158839
24   0.158558
25   0.157114
26   0.137364
27   0.265517
28   0.35376

$$$$

