PCCDB-ID:  35434
public computational chemistry database (PCCDB) project, http://pccdb.org

 30 30  0  0  1  0  0  0  0  0999 V2000
    2.5356    1.8748   -2.5211 C   0  0  0  0  0  0  0  0  0  0  0  0
    5.2390   -5.6759   -1.0583 C   0  0  0  0  0  0  0  0  0  0  0  0
    6.2748   -5.1391   -0.2930 C   0  0  0  0  0  0  0  0  0  0  0  0
    4.2625   -4.8285   -1.5917 C   0  0  0  0  0  0  0  0  0  0  0  0
    6.3319   -3.7658   -0.0646 C   0  0  0  0  0  0  0  0  0  0  0  0
    4.3207   -3.4577   -1.3644 C   0  0  0  0  0  0  0  0  0  0  0  0
    5.4773   -1.4633   -0.3256 C   0  0  0  0  0  0  0  0  0  0  0  0
    4.7292   -0.4650   -0.8384 C   0  0  0  0  0  0  0  0  0  0  0  0
    4.6287    3.0170   -3.3708 C   0  0  0  0  0  0  0  0  0  0  0  0
    4.0693    1.8385   -2.5561 C   0  0  1  0  0  0  0  0  0  0  0  0
    5.3613   -2.8986   -0.5980 C   0  0  0  0  0  0  0  0  0  0  0  0
    4.9255    0.9615   -0.5044 C   0  0  0  0  0  0  0  0  0  0  0  0
    4.6160    1.9761   -1.2087 N   0  0  0  0  0  0  0  0  0  0  0  0
    6.0419    3.0621   -3.3237 O   0  0  0  0  0  0  0  0  0  0  0  0
    5.5329    1.2248    0.6965 O   0  0  0  0  0  0  0  0  0  0  0  0
    2.1242    1.8794   -3.5374 H   0  0  0  0  0  0  0  0  0  0  0  0
    2.1894    2.7746   -2.0014 H   0  0  0  0  0  0  0  0  0  0  0  0
    2.1265    1.0062   -1.9930 H   0  0  0  0  0  0  0  0  0  0  0  0
    5.1893   -6.7462   -1.2375 H   0  0  0  0  0  0  0  0  0  0  0  0
    7.0381   -5.7885    0.1264 H   0  0  0  0  0  0  0  0  0  0  0  0
    3.4508   -5.2406   -2.1850 H   0  0  0  0  0  0  0  0  0  0  0  0
    7.1426   -3.3514    0.5303 H   0  0  0  0  0  0  0  0  0  0  0  0
    3.5486   -2.8176   -1.7810 H   0  0  0  0  0  0  0  0  0  0  0  0
    6.2938   -1.1998    0.3475 H   0  0  0  0  0  0  0  0  0  0  0  0
    3.9521   -0.6804   -1.5639 H   0  0  0  0  0  0  0  0  0  0  0  0
    4.1839    3.9514   -2.9894 H   0  0  0  0  0  0  0  0  0  0  0  0
    4.3498    2.9126   -4.4250 H   0  0  0  0  0  0  0  0  0  0  0  0
    4.4091    0.9132   -3.0458 H   0  0  0  0  0  0  0  0  0  0  0  0
    6.2593    3.0721   -2.3747 H   0  0  0  0  0  0  0  0  0  0  0  0
    5.4245    0.4512    1.2715 H   0  0  0  0  0  0  0  0  0  0  0  0
  1 17  1  0  0  0  0
  1 18  1  0  0  0  0
  2  3  2  0  0  0  0
  3  5  1  0  0  0  0
  3 20  1  0  0  0  0
  4  6  2  0  0  0  0
  4  2  1  0  0  0  0
  5 22  1  0  0  0  0
  6 11  1  0  0  0  0
  7 24  1  0  0  0  0
  8 12  1  0  0  0  0
  8  7  2  0  0  0  0
  9 14  1  0  0  0  0
  9 26  1  0  0  0  0
  9 10  1  0  0  0  0
 10 28  1  6  0  0  0
 10  1  1  0  0  0  0
 10 13  1  0  0  0  0
 11  7  1  0  0  0  0
 11  5  2  0  0  0  0
 12 15  1  0  0  0  0
 13 12  2  0  0  0  0
 14 29  1  0  0  0  0
 15 30  1  0  0  0  0
 16  1  1  0  0  0  0
 19  2  1  0  0  0  0
 21  4  1  0  0  0  0
 23  6  1  0  0  0  0
 25  8  1  0  0  0  0
 27  9  1  0  0  0  0
M  END
>  <HBA>
3

>  <HBD>
2

>  <TPSA>
49.33

>  <cid>
35434

>  <dipole>
5.6

>  <excitation_energy_1>
3.896

>  <excitation_energy_2>
4.171

>  <excitation_energy_3>
4.461

>  <excitation_energy_4>
4.53

>  <homo_energy>
-6.389

>  <homo_lumo_gap>
4.479

>  <logP>
1.588

>  <lumo_energy>
-1.91

>  <melting_point>
91.37

>  <molecular_refractivity>
59.92

>  <oscillator_strength_1>
0.0029

>  <oscillator_strength_2>
0.6392

>  <oscillator_strength_3>
0.0342

>  <oscillator_strength_4>
0.007

>  <open_babel_can_smiles>
OC[C@@H](/N=C(\C=C\c1ccccc1)/O)C

>  <mulliken_charges>
30
1   -0.452375
2   -0.124183
3   -0.130155
4   -0.129957
5   -0.189934
6   -0.175071
7   -0.195109
8   -0.180596
9   -0.009946
10   0.004387
11   0.171026
12   0.48011
13   -0.458652
14   -0.629294
15   -0.589493
16   0.144942
17   0.161777
18   0.140238
19   0.139463
20   0.139612
21   0.139445
22   0.136083
23   0.135481
24   0.139132
25   0.15701
26   0.119009
27   0.132108
28   0.123719
29   0.399419
30   0.401803

>  <lowdin_charges>
30
1   -0.449532
2   -0.144425
3   -0.153369
4   -0.15053
5   -0.153124
6   -0.150311
7   -0.138532
8   -0.202945
9   -0.136806
10   -0.080995
11   -0.007713
12   0.130505
13   -0.209274
14   -0.468507
15   -0.374027
16   0.151736
17   0.159117
18   0.148044
19   0.16098
20   0.163995
21   0.163319
22   0.160604
23   0.161416
24   0.158674
25   0.16962
26   0.127437
27   0.14054
28   0.130096
29   0.340542
30   0.353464

$$$$

