PCCDB-ID:  8062
public computational chemistry database (PCCDB) project, http://pccdb.org

 10  9  0  0  0  0  0  0  0  0999 V2000
    0.9961    0.0676    0.0802 C   0  0  0  0  0  0  0  0  0  0  0  0
    0.4549   -1.3701   -0.1295 C   0  0  0  0  0  0  0  0  0  0  0  0
    2.4607    0.0896    0.0839 C   0  0  0  0  0  0  0  0  0  0  0  0
   -1.0098   -1.3923   -0.1323 C   0  0  0  0  0  0  0  0  0  0  0  0
    3.6210    0.0880    0.0841 N   0  0  0  0  0  0  0  0  0  0  0  0
   -2.1700   -1.3908   -0.1318 N   0  0  0  0  0  0  0  0  0  0  0  0
    0.6294    0.4725    1.0297 H   0  0  0  0  0  0  0  0  0  0  0  0
    0.6298    0.7267   -0.7143 H   0  0  0  0  0  0  0  0  0  0  0  0
    0.8217   -2.0294    0.6646 H   0  0  0  0  0  0  0  0  0  0  0  0
    0.8210   -1.7747   -1.0794 H   0  0  0  0  0  0  0  0  0  0  0  0
  1  3  1  0  0  0  0
  1  7  1  0  0  0  0
  2  1  1  0  0  0  0
  2  9  1  0  0  0  0
  3  5  3  0  0  0  0
  4  6  3  0  0  0  0
  4  2  1  0  0  0  0
  8  1  1  0  0  0  0
 10  2  1  0  0  0  0
M  END
>  <HBA>
2

>  <HBD>
0

>  <TPSA>
47.58

>  <cid>
8062

>  <dipole>
0.0

>  <excitation_energy_1>
7.474

>  <excitation_energy_2>
7.493

>  <excitation_energy_3>
7.753

>  <excitation_energy_4>
7.781

>  <homo_energy>
-9.241

>  <homo_lumo_gap>
9.189

>  <logP>
0.814

>  <lumo_energy>
-0.052

>  <melting_point>
42.57

>  <molecular_refractivity>
20.84

>  <oscillator_strength_1>
0.0

>  <oscillator_strength_2>
0.0004

>  <oscillator_strength_3>
0.026

>  <oscillator_strength_4>
0.0

>  <open_babel_can_smiles>
N#CCCC#N

>  <mulliken_charges>
10
1   -0.343067
2   -0.343237
3   0.355749
4   0.355802
5   -0.453871
6   -0.453884
7   0.220617
8   0.220629
9   0.220647
10   0.220614

>  <lowdin_charges>
10
1   -0.26155
2   -0.261563
3   -0.022278
4   -0.022278
5   -0.106285
6   -0.106287
7   0.194614
8   0.195507
9   0.195515
10   0.194605

$$$$

