PCCDB-ID:  11126
public computational chemistry database (PCCDB) project, http://pccdb.org

 12 12  0  0  0  0  0  0  0  0999 V2000
    0.8928    0.0827    0.0854 C   0  0  0  0  0  0  0  0  0  0  0  0
    4.6494    0.6708    0.0721 C   0  0  0  0  0  0  0  0  0  0  0  0
    3.2783    1.0778    0.0772 C   0  0  0  0  0  0  0  0  0  0  0  0
    4.7970   -0.6864    0.0747 C   0  0  0  0  0  0  0  0  0  0  0  0
    2.3923    0.0338    0.0839 C   0  0  0  0  0  0  0  0  0  0  0  0
    3.2549   -1.4896    0.0836 S   0  0  0  0  0  0  0  0  0  0  0  0
    0.5579    1.1248    0.0940 H   0  0  0  0  0  0  0  0  0  0  0  0
    0.4654   -0.4136    0.9652 H   0  0  0  0  0  0  0  0  0  0  0  0
    0.4648   -0.3992   -0.8023 H   0  0  0  0  0  0  0  0  0  0  0  0
    5.4849    1.3628    0.0659 H   0  0  0  0  0  0  0  0  0  0  0  0
    2.9575    2.1151    0.0765 H   0  0  0  0  0  0  0  0  0  0  0  0
    5.7104   -1.2658    0.0721 H   0  0  0  0  0  0  0  0  0  0  0  0
  1  7  1  0  0  0  0
  1  8  1  0  0  0  0
  2  4  2  0  0  0  0
  2  3  1  0  0  0  0
  3  5  2  0  0  0  0
  4  6  1  0  0  0  0
  5  1  1  0  0  0  0
  6  5  1  0  0  0  0
  9  1  1  0  0  0  0
 10  2  1  0  0  0  0
 11  3  1  0  0  0  0
 12  4  1  0  0  0  0
M  END
>  <HBA>
1

>  <HBD>
0

>  <TPSA>
28.24

>  <cid>
11126

>  <dipole>
0.73

>  <excitation_energy_1>
5.437

>  <excitation_energy_2>
5.461

>  <excitation_energy_3>
5.664

>  <excitation_energy_4>
5.717

>  <homo_energy>
-6.03

>  <homo_lumo_gap>
5.908

>  <logP>
2.057

>  <lumo_energy>
-0.122

>  <melting_point>
6.38

>  <molecular_refractivity>
29.29

>  <oscillator_strength_1>
0.1295

>  <oscillator_strength_2>
0.001

>  <oscillator_strength_3>
0.0021

>  <oscillator_strength_4>
0.0892

>  <open_babel_can_smiles>
Cc1cccs1

>  <mulliken_charges>
12
1   -0.502027
2   -0.0953
3   -0.124326
4   -0.347396
5   -0.105012
6   0.230451
7   0.165979
8   0.169544
9   0.169841
10   0.137745
11   0.131542
12   0.168959

>  <lowdin_charges>
12
1   -0.43528
2   -0.18309
3   -0.198011
4   -0.324862
5   -0.15216
6   0.294228
7   0.164371
8   0.164664
9   0.164695
10   0.164728
11   0.159889
12   0.180829

$$$$

