PCCDB-ID:  70210
public computational chemistry database (PCCDB) project, http://pccdb.org

 34 33  0  0  0  0  0  0  0  0999 V2000
   11.0024    1.6664   -2.9486 C   0  0  0  0  0  0  0  0  0  0  0  0
    4.5673   -0.4123   -3.5245 C   0  0  0  0  0  0  0  0  0  0  0  0
    8.4872    1.4850   -9.9832 C   0  0  0  0  0  0  0  0  0  0  0  0
   10.6571    2.1872   -4.3472 C   0  0  0  0  0  0  0  0  0  0  0  0
    4.5254    0.1867   -4.9328 C   0  0  0  0  0  0  0  0  0  0  0  0
    8.5942   -0.0222   -9.7310 C   0  0  0  0  0  0  0  0  0  0  0  0
    9.3179    1.6884   -4.8726 C   0  0  0  0  0  0  0  0  0  0  0  0
    5.6463   -0.3077   -5.8388 C   0  0  0  0  0  0  0  0  0  0  0  0
    9.1613   -0.3680   -8.3592 C   0  0  0  0  0  0  0  0  0  0  0  0
    9.3719    0.2458   -4.9846 O   0  0  0  0  0  0  0  0  0  0  0  0
    6.9049    0.1154   -5.2928 O   0  0  0  0  0  0  0  0  0  0  0  0
    8.2882    0.1513   -7.3437 O   0  0  0  0  0  0  0  0  0  0  0  0
    8.2841   -0.6114   -5.8549 P   0  0  0  0  0  0  0  0  0  0  0  0
   11.9733    2.0493   -2.6151 H   0  0  0  0  0  0  0  0  0  0  0  0
   11.0451    0.5731   -2.9405 H   0  0  0  0  0  0  0  0  0  0  0  0
   10.2490    1.9781   -2.2146 H   0  0  0  0  0  0  0  0  0  0  0  0
    3.7517   -0.0220   -2.9058 H   0  0  0  0  0  0  0  0  0  0  0  0
    5.5142   -0.1751   -3.0302 H   0  0  0  0  0  0  0  0  0  0  0  0
    4.4696   -1.5047   -3.5565 H   0  0  0  0  0  0  0  0  0  0  0  0
    8.0695    1.6900  -10.9751 H   0  0  0  0  0  0  0  0  0  0  0  0
    9.4728    1.9637   -9.9293 H   0  0  0  0  0  0  0  0  0  0  0  0
    7.8428    1.9588   -9.2366 H   0  0  0  0  0  0  0  0  0  0  0  0
   11.4420    1.9001   -5.0588 H   0  0  0  0  0  0  0  0  0  0  0  0
   10.6220    3.2857   -4.3421 H   0  0  0  0  0  0  0  0  0  0  0  0
    4.5816    1.2815   -4.8789 H   0  0  0  0  0  0  0  0  0  0  0  0
    3.5711   -0.0564   -5.4201 H   0  0  0  0  0  0  0  0  0  0  0  0
    9.2404   -0.4864  -10.4888 H   0  0  0  0  0  0  0  0  0  0  0  0
    7.6064   -0.4908   -9.8272 H   0  0  0  0  0  0  0  0  0  0  0  0
    9.0964    2.1158   -5.8562 H   0  0  0  0  0  0  0  0  0  0  0  0
    8.5021    1.9517   -4.1903 H   0  0  0  0  0  0  0  0  0  0  0  0
    5.5384    0.1032   -6.8503 H   0  0  0  0  0  0  0  0  0  0  0  0
    5.6193   -1.4063   -5.9156 H   0  0  0  0  0  0  0  0  0  0  0  0
   10.1597    0.0750   -8.2363 H   0  0  0  0  0  0  0  0  0  0  0  0
    9.2644   -1.4573   -8.2491 H   0  0  0  0  0  0  0  0  0  0  0  0
  1 15  1  0  0  0  0
  1 14  1  0  0  0  0
  1 16  1  0  0  0  0
  2 18  1  0  0  0  0
  2 17  1  0  0  0  0
  3 21  1  0  0  0  0
  3  6  1  0  0  0  0
  3 22  1  0  0  0  0
  4 24  1  0  0  0  0
  4  1  1  0  0  0  0
  5 25  1  0  0  0  0
  5  2  1  0  0  0  0
  6  9  1  0  0  0  0
  7  4  1  0  0  0  0
  7 30  1  0  0  0  0
  8 11  1  0  0  0  0
  8  5  1  0  0  0  0
  9 34  1  0  0  0  0
  9 33  1  0  0  0  0
  9 12  1  0  0  0  0
 10  7  1  0  0  0  0
 12 13  1  0  0  0  0
 13 11  1  0  0  0  0
 13 10  1  0  0  0  0
 19  2  1  0  0  0  0
 20  3  1  0  0  0  0
 23  4  1  0  0  0  0
 26  5  1  0  0  0  0
 27  6  1  0  0  0  0
 28  6  1  0  0  0  0
 29  7  1  0  0  0  0
 31  8  1  0  0  0  0
 32  8  1  0  0  0  0
M  END
>  <HBA>
3

>  <HBD>
0

>  <TPSA>
41.28

>  <cid>
70210

>  <dipole>
1.51

>  <excitation_energy_1>
6.086

>  <excitation_energy_2>
6.203

>  <excitation_energy_3>
6.359

>  <excitation_energy_4>
6.541

>  <homo_energy>
-6.485

>  <homo_lumo_gap>
7.538

>  <logP>
3.493

>  <lumo_energy>
1.053

>  <melting_point>
-59.65

>  <molecular_refractivity>
56.61

>  <oscillator_strength_1>
0.0671

>  <oscillator_strength_2>
0.0781

>  <oscillator_strength_3>
0.0381

>  <oscillator_strength_4>
0.071

>  <open_babel_can_smiles>
CCCOP(OCCC)OCCC

>  <mulliken_charges>
34
1   -0.442405
2   -0.443004
3   -0.44285
4   -0.264457
5   -0.264638
6   -0.259825
7   -0.039616
8   -0.029166
9   -0.033253
10   -0.547754
11   -0.572093
12   -0.584252
13   0.890574
14   0.140509
15   0.167284
16   0.13949
17   0.142187
18   0.166603
19   0.139478
20   0.142595
21   0.139121
22   0.164847
23   0.142635
24   0.133029
25   0.147443
26   0.133396
27   0.133735
28   0.143043
29   0.150649
30   0.151202
31   0.147547
32   0.13165
33   0.137065
34   0.13923

>  <lowdin_charges>
34
1   -0.445316
2   -0.44561
3   -0.447189
4   -0.276967
5   -0.276712
6   -0.280088
7   -0.130574
8   -0.123993
9   -0.127859
10   -0.410954
11   -0.428246
12   -0.43985
13   0.745248
14   0.14887
15   0.157126
16   0.146978
17   0.150927
18   0.158609
19   0.144012
20   0.149577
21   0.145503
22   0.158863
23   0.147677
24   0.143638
25   0.147177
26   0.146108
27   0.147315
28   0.14662
29   0.148467
30   0.147959
31   0.143211
32   0.133922
33   0.135933
34   0.139618

$$$$

