PCCDB-ID:  1935
public computational chemistry database (PCCDB) project, http://pccdb.org

 29 31  0  0  0  0  0  0  0  0999 V2000
    3.7374   -0.5895   -0.0096 C   0  0  0  0  0  0  0  0  0  0  0  0
   -3.7217   -0.6502    0.3576 C   0  0  0  0  0  0  0  0  0  0  0  0
    3.6602    0.8108   -0.0036 C   0  0  0  0  0  0  0  0  0  0  0  0
   -3.6784    0.6867   -0.3900 C   0  0  0  0  0  0  0  0  0  0  0  0
    2.5707   -1.3405   -0.0261 C   0  0  0  0  0  0  0  0  0  0  0  0
   -2.5098   -1.5211    0.0019 C   0  0  0  0  0  0  0  0  0  0  0  0
    2.4250    1.4380   -0.0087 C   0  0  0  0  0  0  0  0  0  0  0  0
   -2.4207    1.4709    0.0031 C   0  0  0  0  0  0  0  0  0  0  0  0
    1.2991   -0.7412   -0.0375 C   0  0  0  0  0  0  0  0  0  0  0  0
   -1.2068   -0.7554   -0.0173 C   0  0  0  0  0  0  0  0  0  0  0  0
    1.2447    0.6718   -0.0233 C   0  0  0  0  0  0  0  0  0  0  0  0
   -1.1827    0.6051   -0.0172 C   0  0  0  0  0  0  0  0  0  0  0  0
    0.0382   -1.5322   -0.0656 C   0  0  0  0  0  0  0  0  0  0  0  0
   -0.0581   -2.8226   -0.1260 N   0  0  0  0  0  0  0  0  0  0  0  0
    0.0141    1.2969   -0.0254 N   0  0  0  0  0  0  0  0  0  0  0  0
    4.7040   -1.0844    0.0002 H   0  0  0  0  0  0  0  0  0  0  0  0
   -4.6489   -1.1887    0.1281 H   0  0  0  0  0  0  0  0  0  0  0  0
   -3.7323   -0.4539    1.4395 H   0  0  0  0  0  0  0  0  0  0  0  0
    4.5670    1.4091    0.0074 H   0  0  0  0  0  0  0  0  0  0  0  0
   -4.5699    1.2890   -0.1786 H   0  0  0  0  0  0  0  0  0  0  0  0
   -3.6670    0.5001   -1.4724 H   0  0  0  0  0  0  0  0  0  0  0  0
    2.6435   -2.4246   -0.0272 H   0  0  0  0  0  0  0  0  0  0  0  0
   -2.6567   -1.9970   -0.9790 H   0  0  0  0  0  0  0  0  0  0  0  0
   -2.4106   -2.3581    0.7018 H   0  0  0  0  0  0  0  0  0  0  0  0
    2.3564    2.5239    0.0004 H   0  0  0  0  0  0  0  0  0  0  0  0
   -2.5459    1.8954    1.0114 H   0  0  0  0  0  0  0  0  0  0  0  0
   -2.2769    2.3269   -0.6724 H   0  0  0  0  0  0  0  0  0  0  0  0
    0.8649   -3.2631   -0.1638 H   0  0  0  0  0  0  0  0  0  0  0  0
   -0.0110    2.3065   -0.0387 H   0  0  0  0  0  0  0  0  0  0  0  0
  1  3  2  0  0  0  0
  1 16  1  0  0  0  0
  2 18  1  0  0  0  0
  3 19  1  0  0  0  0
  4 20  1  0  0  0  0
  4  8  1  0  0  0  0
  4  2  1  0  0  0  0
  5  1  1  0  0  0  0
  6  2  1  0  0  0  0
  6 24  1  0  0  0  0
  7  3  1  0  0  0  0
  7 25  1  0  0  0  0
  8 26  1  0  0  0  0
  9  5  2  0  0  0  0
  9 11  1  0  0  0  0
 10 12  2  0  0  0  0
 10  6  1  0  0  0  0
 11  7  2  0  0  0  0
 12  8  1  0  0  0  0
 13  9  1  0  0  0  0
 13 10  1  0  0  0  0
 14 13  2  0  0  0  0
 15 11  1  0  0  0  0
 15 12  1  0  0  0  0
 17  2  1  0  0  0  0
 21  4  1  0  0  0  0
 22  5  1  0  0  0  0
 23  6  1  0  0  0  0
 27  8  1  0  0  0  0
 28 14  1  0  0  0  0
 29 15  1  0  0  0  0
M  END
>  <HBA>
2

>  <HBD>
1

>  <TPSA>
38.91

>  <cid>
1935

>  <dipole>
4.35

>  <excitation_energy_1>
3.709

>  <excitation_energy_2>
4.219

>  <excitation_energy_3>
4.319

>  <excitation_energy_4>
4.516

>  <homo_energy>
-5.056

>  <homo_lumo_gap>
4.264

>  <logP>
3.277

>  <lumo_energy>
-0.792

>  <melting_point>
144.24

>  <molecular_refractivity>
63.58

>  <oscillator_strength_1>
0.0908

>  <oscillator_strength_2>
0.0657

>  <oscillator_strength_3>
0.0044

>  <oscillator_strength_4>
0.0013

>  <open_babel_can_smiles>
N=c1c2CCCCc2[nH]c2c1cccc2

>  <mulliken_charges>
29
1   -0.133878
2   -0.272816
3   -0.135144
4   -0.260825
5   -0.217
6   -0.318426
7   -0.179048
8   -0.351754
9   0.117071
10   0.066267
11   0.339899
12   0.316546
13   0.217895
14   -0.671579
15   -0.795434
16   0.130254
17   0.134874
18   0.133482
19   0.133084
20   0.133938
21   0.143982
22   0.133708
23   0.151828
24   0.168102
25   0.123039
26   0.159226
27   0.141214
28   0.270946
29   0.320549

>  <lowdin_charges>
29
1   -0.173492
2   -0.275289
3   -0.143494
4   -0.271288
5   -0.139481
6   -0.266808
7   -0.188666
8   -0.279798
9   -0.051765
10   -0.067648
11   0.059231
12   0.036649
13   0.045834
14   -0.426171
15   -0.208072
16   0.159362
17   0.146929
18   0.137872
19   0.160967
20   0.146338
21   0.143615
22   0.155849
23   0.153734
24   0.167212
25   0.152446
26   0.154135
27   0.149022
28   0.23846
29   0.284316

$$$$

