PCCDB-ID:  40588
public computational chemistry database (PCCDB) project, http://pccdb.org

 26 25  0  0  0  0  0  0  0  0999 V2000
    1.3407    0.8852    1.5445 C   0  0  0  0  0  0  0  0  0  0  0  0
    2.7089    2.3717   -2.0365 C   0  0  0  0  0  0  0  0  0  0  0  0
    6.4871   -0.7707   -1.4933 C   0  0  0  0  0  0  0  0  0  0  0  0
    2.4173    0.0962    1.5397 C   0  0  0  0  0  0  0  0  0  0  0  0
    3.7803    1.5973   -1.8539 C   0  0  0  0  0  0  0  0  0  0  0  0
    5.0646   -1.1030   -1.0306 C   0  0  0  0  0  0  0  0  0  0  0  0
    3.0049   -0.5727    0.3266 C   0  0  0  0  0  0  0  0  0  0  0  0
    4.4595    1.3565   -0.5327 C   0  0  0  0  0  0  0  0  0  0  0  0
    4.4486   -0.1121   -0.0252 C   0  0  0  0  0  0  0  0  0  0  0  0
    5.2845   -0.1962    1.1415 O   0  0  0  0  0  0  0  0  0  0  0  0
    0.9574    1.3260    2.4613 H   0  0  0  0  0  0  0  0  0  0  0  0
    0.7943    1.1106    0.6309 H   0  0  0  0  0  0  0  0  0  0  0  0
    2.2705    2.5196   -3.0201 H   0  0  0  0  0  0  0  0  0  0  0  0
    2.2331    2.8929   -1.2083 H   0  0  0  0  0  0  0  0  0  0  0  0
    6.8898   -1.5867   -2.1037 H   0  0  0  0  0  0  0  0  0  0  0  0
    7.1473   -0.6307   -0.6323 H   0  0  0  0  0  0  0  0  0  0  0  0
    6.5242    0.1403   -2.1018 H   0  0  0  0  0  0  0  0  0  0  0  0
    2.9201   -0.1126    2.4853 H   0  0  0  0  0  0  0  0  0  0  0  0
    4.2210    1.1018   -2.7198 H   0  0  0  0  0  0  0  0  0  0  0  0
    5.0690   -2.0854   -0.5419 H   0  0  0  0  0  0  0  0  0  0  0  0
    4.3938   -1.1893   -1.8951 H   0  0  0  0  0  0  0  0  0  0  0  0
    2.3559   -0.4089   -0.5414 H   0  0  0  0  0  0  0  0  0  0  0  0
    3.0446   -1.6558    0.5089 H   0  0  0  0  0  0  0  0  0  0  0  0
    3.9887    1.9870    0.2335 H   0  0  0  0  0  0  0  0  0  0  0  0
    5.5114    1.6640   -0.5987 H   0  0  0  0  0  0  0  0  0  0  0  0
    5.0254    0.5235    1.7384 H   0  0  0  0  0  0  0  0  0  0  0  0
  1 11  1  0  0  0  0
  2  5  2  0  0  0  0
  2 14  1  0  0  0  0
  3  6  1  0  0  0  0
  3 16  1  0  0  0  0
  4  1  2  0  0  0  0
  4 18  1  0  0  0  0
  5  8  1  0  0  0  0
  6 20  1  0  0  0  0
  6  9  1  0  0  0  0
  7 23  1  0  0  0  0
  7  4  1  0  0  0  0
  8  9  1  0  0  0  0
  8 24  1  0  0  0  0
  9  7  1  0  0  0  0
  9 10  1  0  0  0  0
 10 26  1  0  0  0  0
 12  1  1  0  0  0  0
 13  2  1  0  0  0  0
 15  3  1  0  0  0  0
 17  3  1  0  0  0  0
 19  5  1  0  0  0  0
 21  6  1  0  0  0  0
 22  7  1  0  0  0  0
 25  8  1  0  0  0  0
M  END
>  <HBA>
1

>  <HBD>
1

>  <TPSA>
20.23

>  <cid>
40588

>  <dipole>
1.02

>  <excitation_energy_1>
5.921

>  <excitation_energy_2>
6.124

>  <excitation_energy_3>
6.221

>  <excitation_energy_4>
6.438

>  <homo_energy>
-6.612

>  <homo_lumo_gap>
6.942

>  <logP>
2.28

>  <lumo_energy>
0.329

>  <melting_point>
-40.11

>  <molecular_refractivity>
45.63

>  <oscillator_strength_1>
0.02

>  <oscillator_strength_2>
0.0434

>  <oscillator_strength_3>
0.0085

>  <oscillator_strength_4>
0.0025

>  <open_babel_can_smiles>
C=CCC(CC=C)(CC)O

>  <mulliken_charges>
26
1   -0.34027
2   -0.346396
3   -0.45843
4   -0.07424
5   -0.04621
6   -0.26401
7   -0.30544
8   -0.347376
9   0.309567
10   -0.647876
11   0.138899
12   0.142189
13   0.139761
14   0.140353
15   0.141149
16   0.169155
17   0.139445
18   0.127432
19   0.131018
20   0.144054
21   0.133402
22   0.145867
23   0.145237
24   0.135677
25   0.157537
26   0.389506

>  <lowdin_charges>
26
1   -0.341648
2   -0.342754
3   -0.451013
4   -0.154972
5   -0.148426
6   -0.279935
7   -0.287571
8   -0.295214
9   0.121418
10   -0.462532
11   0.158158
12   0.157071
13   0.157991
14   0.156823
15   0.151821
16   0.161016
17   0.144053
18   0.148971
19   0.152385
20   0.150654
21   0.145339
22   0.155997
23   0.153684
24   0.150239
25   0.15735
26   0.341095

$$$$

