PCCDB-ID:  57834
public computational chemistry database (PCCDB) project, http://pccdb.org

 26 28  0  0  0  0  0  0  0  0999 V2000
    2.5156    0.8262    0.1584 C   0  0  0  0  0  0  0  0  0  0  0  0
    2.4985   -0.5715   -0.0477 C   0  0  0  0  0  0  0  0  0  0  0  0
   -2.3288    0.9587   -0.1973 C   0  0  0  0  0  0  0  0  0  0  0  0
    1.3325    1.5280    0.1720 C   0  0  0  0  0  0  0  0  0  0  0  0
   -1.1332    1.6105   -0.0133 C   0  0  0  0  0  0  0  0  0  0  0  0
    1.3032   -1.2354   -0.2205 C   0  0  0  0  0  0  0  0  0  0  0  0
   -2.3822   -0.4425   -0.3609 C   0  0  0  0  0  0  0  0  0  0  0  0
   -4.1220   -4.4067   -1.1341 C   0  0  0  0  0  0  0  0  0  0  0  0
   -3.1851   -5.3690   -0.9947 C   0  0  0  0  0  0  0  0  0  0  0  0
    0.0823    0.8771   -0.0072 C   0  0  0  0  0  0  0  0  0  0  0  0
    0.0601   -0.5458   -0.1936 C   0  0  0  0  0  0  0  0  0  0  0  0
   -1.2173   -1.1914   -0.3482 C   0  0  0  0  0  0  0  0  0  0  0  0
   -2.2938   -3.4147   -0.7196 C   0  0  0  0  0  0  0  0  0  0  0  0
   -3.5471   -3.1485   -0.9547 N   0  0  0  0  0  0  0  0  0  0  0  0
   -1.2306   -2.5898   -0.4821 N   0  0  0  0  0  0  0  0  0  0  0  0
   -1.9793   -4.7404   -0.7226 O   0  0  0  0  0  0  0  0  0  0  0  0
    3.4616    1.3423    0.2966 H   0  0  0  0  0  0  0  0  0  0  0  0
    3.4322   -1.1261   -0.0788 H   0  0  0  0  0  0  0  0  0  0  0  0
   -3.2597    1.5191   -0.2101 H   0  0  0  0  0  0  0  0  0  0  0  0
    1.3344    2.6056    0.3181 H   0  0  0  0  0  0  0  0  0  0  0  0
   -1.0987    2.6880    0.1236 H   0  0  0  0  0  0  0  0  0  0  0  0
    1.3418   -2.3052   -0.4084 H   0  0  0  0  0  0  0  0  0  0  0  0
   -3.3320   -0.9431   -0.4957 H   0  0  0  0  0  0  0  0  0  0  0  0
   -5.1756   -4.5138   -1.3491 H   0  0  0  0  0  0  0  0  0  0  0  0
   -3.1626   -6.4448   -1.0443 H   0  0  0  0  0  0  0  0  0  0  0  0
   -0.3783   -3.0841   -0.2692 H   0  0  0  0  0  0  0  0  0  0  0  0
  1  4  1  0  0  0  0
  1 17  1  0  0  0  0
  2  1  2  0  0  0  0
  3  5  2  0  0  0  0
  4 20  1  0  0  0  0
  5 10  1  0  0  0  0
  5 21  1  0  0  0  0
  6 11  2  0  0  0  0
  6  2  1  0  0  0  0
  7 12  2  0  0  0  0
  7  3  1  0  0  0  0
  8  9  2  0  0  0  0
  8 14  1  0  0  0  0
  9 16  1  0  0  0  0
 10  4  2  0  0  0  0
 11 10  1  0  0  0  0
 12 11  1  0  0  0  0
 13 15  1  0  0  0  0
 14 13  2  0  0  0  0
 15 12  1  0  0  0  0
 15 26  1  0  0  0  0
 16 13  1  0  0  0  0
 18  2  1  0  0  0  0
 19  3  1  0  0  0  0
 22  6  1  0  0  0  0
 23  7  1  0  0  0  0
 24  8  1  0  0  0  0
 25  9  1  0  0  0  0
M  END
>  <HBA>
2

>  <HBD>
1

>  <TPSA>
38.06

>  <cid>
57834

>  <dipole>
1.77

>  <excitation_energy_1>
3.667

>  <excitation_energy_2>
4.173

>  <excitation_energy_3>
4.662

>  <excitation_energy_4>
4.709

>  <homo_energy>
-5.181

>  <homo_lumo_gap>
4.185

>  <logP>
3.644

>  <lumo_energy>
-0.996

>  <melting_point>
137.51

>  <molecular_refractivity>
63.55

>  <oscillator_strength_1>
0.1981

>  <oscillator_strength_2>
0.0183

>  <oscillator_strength_3>
0.006

>  <oscillator_strength_4>
0.0148

>  <open_babel_can_smiles>
c1coc(n1)Nc1cccc2c1cccc2

>  <mulliken_charges>
26
1   -0.132017
2   -0.134214
3   -0.147825
4   -0.196407
5   -0.188799
6   -0.20021
7   -0.176013
8   -0.009345
9   0.052173
10   0.126525
11   0.083549
12   0.290432
13   0.773559
14   -0.497229
15   -0.800681
16   -0.463727
17   0.131199
18   0.130373
19   0.132394
20   0.132065
21   0.125326
22   0.116601
23   0.188002
24   0.150323
25   0.164213
26   0.349731

>  <lowdin_charges>
26
1   -0.159572
2   -0.157532
3   -0.146966
4   -0.149413
5   -0.174318
6   -0.167716
7   -0.195802
8   -0.133334
9   -0.108109
10   0.006916
11   -0.022214
12   0.059449
13   0.157206
14   -0.221349
15   -0.228321
16   -0.130579
17   0.159599
18   0.159285
19   0.160487
20   0.156928
21   0.154992
22   0.147918
23   0.188314
24   0.169967
25   0.176477
26   0.29769

$$$$

