PCCDB-ID:  48371
public computational chemistry database (PCCDB) project, http://pccdb.org

 32 32  0  0  0  0  0  0  0  0999 V2000
    1.4621   -1.8035   -2.0582 C   0  0  0  0  0  0  0  0  0  0  0  0
    9.3464   -3.2144    1.2948 C   0  0  0  0  0  0  0  0  0  0  0  0
    3.1210    0.0257    1.8664 C   0  0  0  0  0  0  0  0  0  0  0  0
    1.7526   -2.4647   -0.7094 C   0  0  0  0  0  0  0  0  0  0  0  0
    8.9369   -3.4886   -0.1485 C   0  0  0  0  0  0  0  0  0  0  0  0
    4.7293   -2.9808    0.5195 C   0  0  0  0  0  0  0  0  0  0  0  0
    4.8437   -0.9939   -0.8341 C   0  0  0  0  0  0  0  0  0  0  0  0
    6.0952   -3.2017    0.3316 C   0  0  0  0  0  0  0  0  0  0  0  0
    6.2047   -1.1982   -1.0229 C   0  0  0  0  0  0  0  0  0  0  0  0
    2.1445   -0.7417    0.9861 C   0  0  0  0  0  0  0  0  0  0  0  0
    4.0869   -1.8801   -0.0530 C   0  0  0  0  0  0  0  0  0  0  0  0
    6.8437   -2.3062   -0.4448 C   0  0  0  0  0  0  0  0  0  0  0  0
    2.6794   -1.6882    0.1320 N   0  0  0  0  0  0  0  0  0  0  0  0
    0.9358   -0.5426    1.0425 O   0  0  0  0  0  0  0  0  0  0  0  0
    8.1754   -2.4182   -0.7165 O   0  0  0  0  0  0  0  0  0  0  0  0
    0.7795   -2.4271   -2.6476 H   0  0  0  0  0  0  0  0  0  0  0  0
    2.3802   -1.6642   -2.6402 H   0  0  0  0  0  0  0  0  0  0  0  0
    0.9900   -0.8282   -1.9058 H   0  0  0  0  0  0  0  0  0  0  0  0
    9.9749   -4.0314    1.6677 H   0  0  0  0  0  0  0  0  0  0  0  0
    8.4773   -3.1232    1.9534 H   0  0  0  0  0  0  0  0  0  0  0  0
    9.9191   -2.2836    1.3550 H   0  0  0  0  0  0  0  0  0  0  0  0
    3.8094   -0.6425    2.3933 H   0  0  0  0  0  0  0  0  0  0  0  0
    2.5349    0.5981    2.5868 H   0  0  0  0  0  0  0  0  0  0  0  0
    3.7310    0.7170    1.2750 H   0  0  0  0  0  0  0  0  0  0  0  0
    2.1941   -3.4564   -0.8543 H   0  0  0  0  0  0  0  0  0  0  0  0
    0.8263   -2.5774   -0.1424 H   0  0  0  0  0  0  0  0  0  0  0  0
    8.3898   -4.4354   -0.2439 H   0  0  0  0  0  0  0  0  0  0  0  0
    9.8218   -3.5557   -0.7877 H   0  0  0  0  0  0  0  0  0  0  0  0
    4.1525   -3.6716    1.1285 H   0  0  0  0  0  0  0  0  0  0  0  0
    4.3541   -0.1401   -1.2938 H   0  0  0  0  0  0  0  0  0  0  0  0
    6.5584   -4.0624    0.7996 H   0  0  0  0  0  0  0  0  0  0  0  0
    6.7972   -0.5166   -1.6250 H   0  0  0  0  0  0  0  0  0  0  0  0
  1 18  1  0  0  0  0
  1  4  1  0  0  0  0
  2 21  1  0  0  0  0
  2 19  1  0  0  0  0
  2 20  1  0  0  0  0
  3 22  1  0  0  0  0
  3 23  1  0  0  0  0
  4 26  1  0  0  0  0
  4 13  1  0  0  0  0
  5  2  1  0  0  0  0
  6 29  1  0  0  0  0
  7 11  1  0  0  0  0
  8  6  1  0  0  0  0
  8 31  1  0  0  0  0
  9  7  2  0  0  0  0
  9 12  1  0  0  0  0
 10 14  2  0  0  0  0
 10  3  1  0  0  0  0
 11 13  1  0  0  0  0
 11  6  2  0  0  0  0
 12  8  2  0  0  0  0
 13 10  1  0  0  0  0
 15 12  1  0  0  0  0
 15  5  1  0  0  0  0
 16  1  1  0  0  0  0
 17  1  1  0  0  0  0
 24  3  1  0  0  0  0
 25  4  1  0  0  0  0
 27  5  1  0  0  0  0
 28  5  1  0  0  0  0
 30  7  1  0  0  0  0
 32  9  1  0  0  0  0
M  END
>  <HBA>
3

>  <HBD>
0

>  <TPSA>
29.54

>  <cid>
48371

>  <dipole>
4.99

>  <excitation_energy_1>
4.799

>  <excitation_energy_2>
5.114

>  <excitation_energy_3>
5.192

>  <excitation_energy_4>
5.305

>  <homo_energy>
-5.968

>  <homo_lumo_gap>
5.603

>  <logP>
2.458

>  <lumo_energy>
-0.365

>  <melting_point>
38.17

>  <molecular_refractivity>
61.76

>  <oscillator_strength_1>
0.0218

>  <oscillator_strength_2>
0.0544

>  <oscillator_strength_3>
0.0792

>  <oscillator_strength_4>
0.0081

>  <open_babel_can_smiles>
CCOc1ccc(cc1)N(C(=O)C)CC

>  <mulliken_charges>
32
1   -0.446891
2   -0.46348
3   -0.537282
4   -0.134601
5   -0.039555
6   -0.148888
7   -0.140789
8   -0.205434
9   -0.190737
10   0.567751
11   0.234746
12   0.390549
13   -0.499261
14   -0.510074
15   -0.52046
16   0.14396
17   0.144987
18   0.170109
19   0.151117
20   0.163197
21   0.166447
22   0.167462
23   0.179783
24   0.170369
25   0.139429
26   0.178953
27   0.144319
28   0.160056
29   0.140171
30   0.141444
31   0.138317
32   0.144286

>  <lowdin_charges>
32
1   -0.454488
2   -0.460973
3   -0.476368
4   -0.190712
5   -0.127082
6   -0.154728
7   -0.156688
8   -0.213038
9   -0.181859
10   0.16098
11   0.019403
12   0.108884
13   -0.100351
14   -0.313074
15   -0.200006
16   0.154417
17   0.148988
18   0.161421
19   0.159782
20   0.158753
21   0.161548
22   0.16919
23   0.175789
24   0.171362
25   0.144878
26   0.168072
27   0.140008
28   0.156891
29   0.166359
30   0.166474
31   0.165075
32   0.171096

$$$$

