PCCDB-ID:  25678
public computational chemistry database (PCCDB) project, http://pccdb.org

 23 23  0  0  0  0  0  0  0  0999 V2000
    1.9933   -1.8756    0.3554 C   0  0  0  0  0  0  0  0  0  0  0  0
    2.1413   -0.5230   -0.3405 C   0  0  0  0  0  0  0  0  0  0  0  0
    0.5942   -1.7061   -4.9741 C   0  0  0  0  0  0  0  0  0  0  0  0
    1.3895   -2.6578   -4.3327 C   0  0  0  0  0  0  0  0  0  0  0  0
    0.5732   -0.3885   -4.5110 C   0  0  0  0  0  0  0  0  0  0  0  0
    2.1621   -2.2975   -3.2278 C   0  0  0  0  0  0  0  0  0  0  0  0
    1.3473   -0.0201   -3.4104 C   0  0  0  0  0  0  0  0  0  0  0  0
    2.1451   -0.9750   -2.7700 C   0  0  0  0  0  0  0  0  0  0  0  0
    4.2579   -0.4251   -1.6068 C   0  0  0  0  0  0  0  0  0  0  0  0
    2.9082   -0.6013   -1.6073 N   0  0  0  0  0  0  0  0  0  0  0  0
    5.1985   -0.1891   -0.2463 S   0  0  0  0  0  0  0  0  0  0  0  0
    5.1491   -0.4104   -3.1536 S   0  0  0  0  0  0  0  0  0  0  0  0
    1.4173   -1.7518    1.2794 H   0  0  0  0  0  0  0  0  0  0  0  0
    2.9751   -2.2812    0.6150 H   0  0  0  0  0  0  0  0  0  0  0  0
    1.4653   -2.5964   -0.2784 H   0  0  0  0  0  0  0  0  0  0  0  0
    2.6597    0.1855    0.3077 H   0  0  0  0  0  0  0  0  0  0  0  0
    1.1606   -0.1109   -0.5971 H   0  0  0  0  0  0  0  0  0  0  0  0
   -0.0069   -1.9898   -5.8333 H   0  0  0  0  0  0  0  0  0  0  0  0
    1.4078   -3.6838   -4.6889 H   0  0  0  0  0  0  0  0  0  0  0  0
   -0.0421    0.3555   -5.0088 H   0  0  0  0  0  0  0  0  0  0  0  0
    2.7858   -3.0282   -2.7223 H   0  0  0  0  0  0  0  0  0  0  0  0
    1.3463    1.0037   -3.0475 H   0  0  0  0  0  0  0  0  0  0  0  0
    4.1226   -0.5009   -4.0308 H   0  0  0  0  0  0  0  0  0  0  0  0
  1 14  1  0  0  0  0
  1 13  1  0  0  0  0
  2 16  1  0  0  0  0
  2  1  1  0  0  0  0
  3  5  2  0  0  0  0
  3  4  1  0  0  0  0
  4  6  2  0  0  0  0
  5  7  1  0  0  0  0
  6  8  1  0  0  0  0
  6 21  1  0  0  0  0
  7 22  1  0  0  0  0
  7  8  2  0  0  0  0
  8 10  1  0  0  0  0
  9 11  2  0  0  0  0
 10  9  1  0  0  0  0
 10  2  1  0  0  0  0
 12  9  1  0  0  0  0
 15  1  1  0  0  0  0
 17  2  1  0  0  0  0
 18  3  1  0  0  0  0
 19  4  1  0  0  0  0
 20  5  1  0  0  0  0
 23 12  1  0  0  0  0
M  END
>  <HBA>
3

>  <HBD>
1

>  <TPSA>
74.13

>  <cid>
25678

>  <dipole>
6.32

>  <excitation_energy_1>
3.452

>  <excitation_energy_2>
4.097

>  <excitation_energy_3>
4.245

>  <excitation_energy_4>
4.292

>  <homo_energy>
-5.679

>  <homo_lumo_gap>
4.653

>  <logP>
2.728

>  <lumo_energy>
-1.026

>  <melting_point>
62.62

>  <molecular_refractivity>
61.18

>  <oscillator_strength_1>
0.0002

>  <oscillator_strength_2>
0.0003

>  <oscillator_strength_3>
0.0009

>  <oscillator_strength_4>
0.0475

>  <open_babel_can_smiles>
CCN(c1ccccc1)C(=S)S

>  <mulliken_charges>
23
1   -0.448427
2   -0.148763
3   -0.117872
4   -0.142185
5   -0.140623
6   -0.118583
7   -0.127098
8   0.155872
9   -0.031195
10   -0.391802
11   -0.221774
12   0.046277
13   0.154135
14   0.184943
15   0.14907
16   0.199673
17   0.153542
18   0.143522
19   0.147325
20   0.146185
21   0.160477
22   0.153184
23   0.094117

>  <lowdin_charges>
23
1   -0.453162
2   -0.19125
3   -0.14773
4   -0.147861
5   -0.150396
6   -0.160625
7   -0.16046
8   0.026124
9   -0.15131
10   -0.061858
11   -0.206483
12   0.029108
13   0.159674
14   0.169759
15   0.152748
16   0.179901
17   0.152647
18   0.165464
19   0.165443
20   0.167286
21   0.176003
22   0.170027
23   0.116951

$$$$

