PCCDB-ID:  25142
public computational chemistry database (PCCDB) project, http://pccdb.org

 22 22  0  0  0  0  0  0  0  0999 V2000
    1.9141   -0.6104    0.5044 C   0  0  0  0  0  0  0  0  0  0  0  0
    4.5120    4.0643   -4.4777 C   0  0  0  0  0  0  0  0  0  0  0  0
    3.6724    4.1396   -3.3632 C   0  0  0  0  0  0  0  0  0  0  0  0
    5.3536    2.9626   -4.6328 C   0  0  0  0  0  0  0  0  0  0  0  0
    3.6795    3.1238   -2.4082 C   0  0  0  0  0  0  0  0  0  0  0  0
    5.3553    1.9444   -3.6768 C   0  0  0  0  0  0  0  0  0  0  0  0
    4.5475    0.9244   -1.5004 C   0  0  0  0  0  0  0  0  0  0  0  0
    4.5245    2.0140   -2.5530 C   0  0  0  0  0  0  0  0  0  0  0  0
    3.2171   -0.4935   -0.1368 N   0  0  0  0  0  0  0  0  0  0  0  0
    3.1894    0.5218   -1.1357 N   0  0  0  0  0  0  0  0  0  0  0  0
    1.9601   -1.4188    1.2425 H   0  0  0  0  0  0  0  0  0  0  0  0
    1.0831   -0.8250   -0.1926 H   0  0  0  0  0  0  0  0  0  0  0  0
    1.6887    0.3270    1.0199 H   0  0  0  0  0  0  0  0  0  0  0  0
    4.5070    4.8574   -5.2209 H   0  0  0  0  0  0  0  0  0  0  0  0
    3.0133    4.9948   -3.2361 H   0  0  0  0  0  0  0  0  0  0  0  0
    6.0059    2.8913   -5.4995 H   0  0  0  0  0  0  0  0  0  0  0  0
    3.0227    3.1740   -1.5447 H   0  0  0  0  0  0  0  0  0  0  0  0
    6.0103    1.0850   -3.8048 H   0  0  0  0  0  0  0  0  0  0  0  0
    5.0228    1.2813   -0.5786 H   0  0  0  0  0  0  0  0  0  0  0  0
    5.1643    0.0797   -1.8616 H   0  0  0  0  0  0  0  0  0  0  0  0
    3.4763   -1.3965   -0.5481 H   0  0  0  0  0  0  0  0  0  0  0  0
    2.6967    0.2019   -1.9774 H   0  0  0  0  0  0  0  0  0  0  0  0
  1 13  1  0  0  0  0
  1 11  1  0  0  0  0
  2  3  1  0  0  0  0
  3 15  1  0  0  0  0
  3  5  2  0  0  0  0
  4  2  2  0  0  0  0
  4  6  1  0  0  0  0
  5 17  1  0  0  0  0
  6  8  2  0  0  0  0
  7 10  1  0  0  0  0
  7 19  1  0  0  0  0
  8  5  1  0  0  0  0
  8  7  1  0  0  0  0
  9  1  1  0  0  0  0
 10  9  1  0  0  0  0
 12  1  1  0  0  0  0
 14  2  1  0  0  0  0
 16  4  1  0  0  0  0
 18  6  1  0  0  0  0
 20  7  1  0  0  0  0
 21  9  1  0  0  0  0
 22 10  1  0  0  0  0
M  END
>  <HBA>
2

>  <HBD>
2

>  <TPSA>
24.06

>  <cid>
25142

>  <dipole>
1.7

>  <excitation_energy_1>
5.077

>  <excitation_energy_2>
5.203

>  <excitation_energy_3>
5.325

>  <excitation_energy_4>
5.408

>  <homo_energy>
-5.959

>  <homo_lumo_gap>
6.011

>  <logP>
1.692

>  <lumo_energy>
0.052

>  <melting_point>
60.84

>  <molecular_refractivity>
41.82

>  <oscillator_strength_1>
0.0063

>  <oscillator_strength_2>
0.004

>  <oscillator_strength_3>
0.0085

>  <oscillator_strength_4>
0.0052

>  <open_babel_can_smiles>
CNNCc1ccccc1

>  <mulliken_charges>
22
1   -0.282445
2   -0.129088
3   -0.131135
4   -0.128599
5   -0.162356
6   -0.186845
7   -0.167291
8   0.124667
9   -0.418123
10   -0.444314
11   0.144295
12   0.117016
13   0.167297
14   0.12685
15   0.128028
16   0.126851
17   0.145193
18   0.12128
19   0.170128
20   0.111713
21   0.283015
22   0.283864

>  <lowdin_charges>
22
1   -0.362315
2   -0.160472
3   -0.15629
4   -0.157647
5   -0.157331
6   -0.168941
7   -0.201396
8   -0.01586
9   -0.29552
10   -0.298192
11   0.150058
12   0.121605
13   0.157949
14   0.156891
15   0.156885
16   0.156484
17   0.166466
18   0.153485
19   0.161076
20   0.121538
21   0.234647
22   0.23688

$$$$

