PCCDB-ID:  15615
public computational chemistry database (PCCDB) project, http://pccdb.org

 17 16  0  0  0  0  0  0  0  0999 V2000
    0.8569    0.0569   -0.1924 C   0  0  0  0  0  0  0  0  0  0  0  0
    2.8844    0.9295   -1.1396 C   0  0  0  0  0  0  0  0  0  0  0  0
    2.5721   -0.4821    2.3286 C   0  0  0  0  0  0  0  0  0  0  0  0
    3.0896   -0.0467    3.6279 C   0  0  0  0  0  0  0  0  0  0  0  0
    2.7343    0.6099    1.2477 C   0  0  0  0  0  0  0  0  0  0  0  0
    3.5077    0.3168    4.6481 N   0  0  0  0  0  0  0  0  0  0  0  0
    2.3080    0.1313   -0.0625 N   0  0  0  0  0  0  0  0  0  0  0  0
    0.6009   -0.3610   -1.1715 H   0  0  0  0  0  0  0  0  0  0  0  0
    0.3630    1.0440   -0.0991 H   0  0  0  0  0  0  0  0  0  0  0  0
    0.4329   -0.6066    0.5676 H   0  0  0  0  0  0  0  0  0  0  0  0
    2.6063    0.4919   -2.1043 H   0  0  0  0  0  0  0  0  0  0  0  0
    3.9767    0.9202   -1.0654 H   0  0  0  0  0  0  0  0  0  0  0  0
    2.5461    1.9838   -1.1346 H   0  0  0  0  0  0  0  0  0  0  0  0
    1.5195   -0.7599    2.4545 H   0  0  0  0  0  0  0  0  0  0  0  0
    3.1067   -1.3835    2.0082 H   0  0  0  0  0  0  0  0  0  0  0  0
    3.7957    0.8711    1.1874 H   0  0  0  0  0  0  0  0  0  0  0  0
    2.1967    1.5242    1.5636 H   0  0  0  0  0  0  0  0  0  0  0  0
  1  9  1  0  0  0  0
  1  7  1  0  0  0  0
  1 10  1  0  0  0  0
  2 13  1  0  0  0  0
  2 12  1  0  0  0  0
  2  7  1  0  0  0  0
  3 14  1  0  0  0  0
  3  4  1  0  0  0  0
  4  6  3  0  0  0  0
  5 17  1  0  0  0  0
  5  3  1  0  0  0  0
  7  5  1  0  0  0  0
  8  1  1  0  0  0  0
 11  2  1  0  0  0  0
 15  3  1  0  0  0  0
 16  5  1  0  0  0  0
M  END
>  <HBA>
2

>  <HBD>
0

>  <TPSA>
27.03

>  <cid>
15615

>  <dipole>
4.14

>  <excitation_energy_1>
5.48

>  <excitation_energy_2>
5.959

>  <excitation_energy_3>
6.16

>  <excitation_energy_4>
6.302

>  <homo_energy>
-6.231

>  <homo_lumo_gap>
7.178

>  <logP>
0.462

>  <lumo_energy>
0.947

>  <melting_point>
10.64

>  <molecular_refractivity>
28.79

>  <oscillator_strength_1>
0.0113

>  <oscillator_strength_2>
0.0314

>  <oscillator_strength_3>
0.0376

>  <oscillator_strength_4>
0.0428

>  <open_babel_can_smiles>
N#CCCN(C)C

>  <mulliken_charges>
17
1   -0.307018
2   -0.300156
3   -0.343785
4   0.345574
5   -0.117129
6   -0.472347
7   -0.369841
8   0.157719
9   0.126484
10   0.151188
11   0.154531
12   0.155201
13   0.125661
14   0.19281
15   0.204281
16   0.160909
17   0.135918

>  <lowdin_charges>
17
1   -0.359399
2   -0.35136
3   -0.277662
4   -0.017712
5   -0.190071
6   -0.129112
7   -0.184608
8   0.155204
9   0.124881
10   0.150456
11   0.15304
12   0.150728
13   0.123338
14   0.178092
15   0.187092
16   0.155964
17   0.131129

$$$$

