PCCDB-ID:  13387
public computational chemistry database (PCCDB) project, http://pccdb.org

 16 16  0  0  0  0  0  0  0  0999 V2000
    1.0809    0.1083    0.2527 C   0  0  0  0  0  0  0  0  0  0  0  0
    4.6670   -0.7667   -0.5627 C   0  0  0  0  0  0  0  0  0  0  0  0
    4.6331    0.7679   -0.7173 C   0  0  0  0  0  0  0  0  0  0  0  0
    3.2204   -1.1818   -0.1694 C   0  0  0  0  0  0  0  0  0  0  0  0
    3.2021    1.1945   -0.3911 C   0  0  0  0  0  0  0  0  0  0  0  0
    2.4822    0.0659   -0.0964 N   0  0  0  0  0  0  0  0  0  0  0  0
    2.7661    2.3360   -0.3912 O   0  0  0  0  0  0  0  0  0  0  0  0
    0.4772   -0.4640   -0.4647 H   0  0  0  0  0  0  0  0  0  0  0  0
    0.7684    1.1543    0.2359 H   0  0  0  0  0  0  0  0  0  0  0  0
    0.9108   -0.3070    1.2552 H   0  0  0  0  0  0  0  0  0  0  0  0
    5.3775   -1.0766    0.2082 H   0  0  0  0  0  0  0  0  0  0  0  0
    4.9679   -1.2588   -1.4912 H   0  0  0  0  0  0  0  0  0  0  0  0
    4.8759    1.1060   -1.7300 H   0  0  0  0  0  0  0  0  0  0  0  0
    5.3179    1.2873   -0.0394 H   0  0  0  0  0  0  0  0  0  0  0  0
    3.1880   -1.7036    0.7978 H   0  0  0  0  0  0  0  0  0  0  0  0
    2.7665   -1.8545   -0.9115 H   0  0  0  0  0  0  0  0  0  0  0  0
  1 10  1  0  0  0  0
  2  4  1  0  0  0  0
  2 11  1  0  0  0  0
  3  2  1  0  0  0  0
  3  5  1  0  0  0  0
  3 14  1  0  0  0  0
  4  6  1  0  0  0  0
  4 15  1  0  0  0  0
  5  6  1  0  0  0  0
  6  1  1  0  0  0  0
  7  5  2  0  0  0  0
  8  1  1  0  0  0  0
  9  1  1  0  0  0  0
 12  2  1  0  0  0  0
 13  3  1  0  0  0  0
 16  4  1  0  0  0  0
M  END
>  <HBA>
2

>  <HBD>
0

>  <TPSA>
20.31

>  <cid>
13387

>  <dipole>
3.77

>  <excitation_energy_1>
5.763

>  <excitation_energy_2>
5.79

>  <excitation_energy_3>
6.114

>  <excitation_energy_4>
6.343

>  <homo_energy>
-6.373

>  <homo_lumo_gap>
7.434

>  <logP>
0.176

>  <lumo_energy>
1.061

>  <melting_point>
20.71

>  <molecular_refractivity>
31.05

>  <oscillator_strength_1>
0.0

>  <oscillator_strength_2>
0.0204

>  <oscillator_strength_3>
0.0012

>  <oscillator_strength_4>
0.0046

>  <open_babel_can_smiles>
O=C1CCCN1C

>  <mulliken_charges>
16
1   -0.319065
2   -0.30911
3   -0.372538
4   -0.113473
5   0.583963
6   -0.410002
7   -0.517907
8   0.151702
9   0.198912
10   0.15177
11   0.157127
12   0.15674
13   0.175256
14   0.175363
15   0.145754
16   0.145509

>  <lowdin_charges>
16
1   -0.353132
2   -0.287632
3   -0.307311
4   -0.19394
5   0.146943
6   -0.105071
7   -0.312553
8   0.15014
9   0.180985
10   0.148143
11   0.156155
12   0.155481
13   0.168714
14   0.170798
15   0.140645
16   0.141637

$$$$

