PCCDB-ID:  22632
public computational chemistry database (PCCDB) project, http://pccdb.org

 22 22  0  0  0  0  0  0  0  0999 V2000
    4.4439    2.5096    1.1099 C   0  0  0  0  0  0  0  0  0  0  0  0
    4.9938    1.2628    6.1065 C   0  0  0  0  0  0  0  0  0  0  0  0
    4.6644   -0.0076    5.6263 C   0  0  0  0  0  0  0  0  0  0  0  0
    4.5358    2.3883    5.4231 C   0  0  0  0  0  0  0  0  0  0  0  0
    3.9011   -0.1537    4.4721 C   0  0  0  0  0  0  0  0  0  0  0  0
    3.7557    2.2562    4.2733 C   0  0  0  0  0  0  0  0  0  0  0  0
    3.4454    0.9807    3.7844 C   0  0  0  0  0  0  0  0  0  0  0  0
    2.2631    1.8891    1.8104 C   0  0  0  0  0  0  0  0  0  0  0  0
    3.0085    2.7039    1.1780 N   0  0  0  0  0  0  0  0  0  0  0  0
    2.6862    0.7957    2.5933 N   0  0  0  0  0  0  0  0  0  0  0  0
    0.9154    1.9943    1.7277 O   0  0  0  0  0  0  0  0  0  0  0  0
    1.6949   -0.2143    2.7572 O   0  0  0  0  0  0  0  0  0  0  0  0
    4.8044    2.9182    0.1601 H   0  0  0  0  0  0  0  0  0  0  0  0
    4.7433    1.4540    1.1804 H   0  0  0  0  0  0  0  0  0  0  0  0
    4.9585    3.0501    1.9161 H   0  0  0  0  0  0  0  0  0  0  0  0
    5.5949    1.3716    7.0046 H   0  0  0  0  0  0  0  0  0  0  0  0
    5.0063   -0.8948    6.1527 H   0  0  0  0  0  0  0  0  0  0  0  0
    4.7696    3.3837    5.7910 H   0  0  0  0  0  0  0  0  0  0  0  0
    3.6376   -1.1390    4.1054 H   0  0  0  0  0  0  0  0  0  0  0  0
    3.3809    3.1385    3.7656 H   0  0  0  0  0  0  0  0  0  0  0  0
    0.7727    2.7178    1.0904 H   0  0  0  0  0  0  0  0  0  0  0  0
    1.8767   -0.8264    2.0235 H   0  0  0  0  0  0  0  0  0  0  0  0
  1  9  1  0  0  0  0
  1 14  1  0  0  0  0
  1 15  1  0  0  0  0
  2 16  1  0  0  0  0
  3  2  1  0  0  0  0
  3 17  1  0  0  0  0
  4 18  1  0  0  0  0
  4  2  2  0  0  0  0
  5  3  2  0  0  0  0
  6  4  1  0  0  0  0
  7  6  2  0  0  0  0
  7  5  1  0  0  0  0
  8 10  1  0  0  0  0
  9  8  2  0  0  0  0
 10 12  1  0  0  0  0
 10  7  1  0  0  0  0
 11  8  1  0  0  0  0
 13  1  1  0  0  0  0
 19  5  1  0  0  0  0
 20  6  1  0  0  0  0
 21 11  1  0  0  0  0
 22 12  1  0  0  0  0
M  END
>  <HBA>
4

>  <HBD>
2

>  <TPSA>
52.57

>  <cid>
22632

>  <dipole>
1.51

>  <excitation_energy_1>
4.675

>  <excitation_energy_2>
4.82

>  <excitation_energy_3>
5.366

>  <excitation_energy_4>
5.623

>  <homo_energy>
-5.826

>  <homo_lumo_gap>
5.546

>  <logP>
1.613

>  <lumo_energy>
-0.28

>  <melting_point>
125.47

>  <molecular_refractivity>
44.77

>  <oscillator_strength_1>
0.1534

>  <oscillator_strength_2>
0.0306

>  <oscillator_strength_3>
0.0585

>  <oscillator_strength_4>
0.0083

>  <open_babel_can_smiles>
C/N=C(\N(c1ccccc1)O)/O

>  <mulliken_charges>
22
1   -0.325621
2   -0.125466
3   -0.138771
4   -0.145163
5   -0.147549
6   -0.174244
7   0.328968
8   0.632141
9   -0.448373
10   -0.373612
11   -0.571751
12   -0.480095
13   0.155372
14   0.145892
15   0.155574
16   0.129296
17   0.132319
18   0.133893
19   0.130646
20   0.155892
21   0.414155
22   0.416498

>  <lowdin_charges>
22
1   -0.358304
2   -0.166896
3   -0.149739
4   -0.148831
5   -0.169298
6   -0.184859
7   0.05126
8   0.145015
9   -0.258053
10   -0.01651
11   -0.356919
12   -0.365415
13   0.152725
14   0.139787
15   0.152029
16   0.158508
17   0.160091
18   0.159543
19   0.162568
20   0.172299
21   0.365082
22   0.355917

$$$$

