PCCDB-ID:  20231
public computational chemistry database (PCCDB) project, http://pccdb.org

 26 27  0  0  0  0  0  0  0  0999 V2000
    0.9889    0.3148    0.7234 C   0  0  0  0  0  0  0  0  0  0  0  0
    0.7755   -4.8342   -0.0779 C   0  0  0  0  0  0  0  0  0  0  0  0
    0.3483   -3.7326   -0.8215 C   0  0  0  0  0  0  0  0  0  0  0  0
    1.9180   -4.7281    0.7168 C   0  0  0  0  0  0  0  0  0  0  0  0
    1.0570   -2.5327   -0.7699 C   0  0  0  0  0  0  0  0  0  0  0  0
    2.6262   -3.5278    0.7687 C   0  0  0  0  0  0  0  0  0  0  0  0
    4.3689   -1.1952   -0.1893 C   0  0  0  0  0  0  0  0  0  0  0  0
    6.5410   -0.0192   -0.4222 C   0  0  0  0  0  0  0  0  0  0  0  0
    2.4428    0.1200    0.3713 C   0  0  0  0  0  0  0  0  0  0  0  0
    2.2056   -2.4106    0.0284 C   0  0  0  0  0  0  0  0  0  0  0  0
    5.1388   -0.0283   -0.1642 C   0  0  0  0  0  0  0  0  0  0  0  0
    2.9970   -1.1496    0.0663 C   0  0  0  0  0  0  0  0  0  0  0  0
    4.4731    1.1885    0.1249 C   0  0  0  0  0  0  0  0  0  0  0  0
    7.6857    0.0732   -0.6213 N   0  0  0  0  0  0  0  0  0  0  0  0
    3.1779    1.2419    0.3896 N   0  0  0  0  0  0  0  0  0  0  0  0
    5.1173    2.3720    0.1579 O   0  0  0  0  0  0  0  0  0  0  0  0
    0.5568   -0.5707    1.1954 H   0  0  0  0  0  0  0  0  0  0  0  0
    0.3967    0.5346   -0.1744 H   0  0  0  0  0  0  0  0  0  0  0  0
    0.8968    1.1755    1.3898 H   0  0  0  0  0  0  0  0  0  0  0  0
    0.2224   -5.7685   -0.1184 H   0  0  0  0  0  0  0  0  0  0  0  0
   -0.5347   -3.8085   -1.4503 H   0  0  0  0  0  0  0  0  0  0  0  0
    2.2569   -5.5787    1.3021 H   0  0  0  0  0  0  0  0  0  0  0  0
    0.7292   -1.6888   -1.3700 H   0  0  0  0  0  0  0  0  0  0  0  0
    3.5061   -3.4466    1.4017 H   0  0  0  0  0  0  0  0  0  0  0  0
    4.8459   -2.1414   -0.4249 H   0  0  0  0  0  0  0  0  0  0  0  0
    6.0606    2.2381   -0.0428 H   0  0  0  0  0  0  0  0  0  0  0  0
  1 17  1  0  0  0  0
  1 19  1  0  0  0  0
  2  4  2  0  0  0  0
  3  5  2  0  0  0  0
  3  2  1  0  0  0  0
  4  6  1  0  0  0  0
  4 22  1  0  0  0  0
  5 10  1  0  0  0  0
  6 24  1  0  0  0  0
  7 11  2  0  0  0  0
  7 12  1  0  0  0  0
  8 11  1  0  0  0  0
  9 15  1  0  0  0  0
  9  1  1  0  0  0  0
 10 12  1  0  0  0  0
 10  6  2  0  0  0  0
 11 13  1  0  0  0  0
 12  9  2  0  0  0  0
 13 16  1  0  0  0  0
 13 15  2  0  0  0  0
 14  8  3  0  0  0  0
 18  1  1  0  0  0  0
 20  2  1  0  0  0  0
 21  3  1  0  0  0  0
 23  5  1  0  0  0  0
 25  7  1  0  0  0  0
 26 16  1  0  0  0  0
M  END
>  <HBA>
2

>  <HBD>
1

>  <TPSA>
56.65

>  <cid>
20231

>  <dipole>
4.23

>  <excitation_energy_1>
4.188

>  <excitation_energy_2>
4.63

>  <excitation_energy_3>
4.787

>  <excitation_energy_4>
4.922

>  <homo_energy>
-6.487

>  <homo_lumo_gap>
4.8

>  <logP>
2.222

>  <lumo_energy>
-1.687

>  <melting_point>
166.88

>  <molecular_refractivity>
62.18

>  <oscillator_strength_1>
0.0717

>  <oscillator_strength_2>
0.037

>  <oscillator_strength_3>
0.0019

>  <oscillator_strength_4>
0.3135

>  <open_babel_can_smiles>
N#Cc1cc(c2ccccc2)c(nc1O)C

>  <mulliken_charges>
26
1   -0.51406
2   -0.124546
3   -0.13319
4   -0.132969
5   -0.162325
6   -0.166049
7   -0.153617
8   0.202353
9   0.278284
10   0.059604
11   0.109685
12   0.021258
13   0.478045
14   -0.482131
15   -0.505723
16   -0.589248
17   0.172638
18   0.173797
19   0.184044
20   0.136585
21   0.137267
22   0.137744
23   0.136407
24   0.136695
25   0.170766
26   0.428685

>  <lowdin_charges>
26
1   -0.450566
2   -0.152949
3   -0.151835
4   -0.15279
5   -0.1588
6   -0.160558
7   -0.102572
8   -0.027572
9   0.085054
10   -0.007395
11   -0.091432
12   -0.045494
13   0.1505
14   -0.120086
15   -0.155903
16   -0.330929
17   0.169142
18   0.170466
19   0.176756
20   0.16144
21   0.161465
22   0.162506
23   0.161849
24   0.160906
25   0.179938
26   0.368859

$$$$

