PCCDB-ID:  18724
public computational chemistry database (PCCDB) project, http://pccdb.org

 33 34  0  0  0  0  0  0  0  0999 V2000
    0.8864    1.2407   -1.4094 C   0  0  0  0  0  0  0  0  0  0  0  0
   -1.7970    0.5819    3.9786 C   0  0  0  0  0  0  0  0  0  0  0  0
    1.5395   -0.0181   -0.8201 C   0  0  0  0  0  0  0  0  0  0  0  0
   -0.2672    1.7390   -0.5249 C   0  0  0  0  0  0  0  0  0  0  0  0
   -2.5674   -0.4489    3.1398 C   0  0  0  0  0  0  0  0  0  0  0  0
   -0.6800    1.2343    3.1485 C   0  0  0  0  0  0  0  0  0  0  0  0
    0.5019   -1.1254   -0.5721 C   0  0  0  0  0  0  0  0  0  0  0  0
   -1.3106    0.6345   -0.2822 C   0  0  0  0  0  0  0  0  0  0  0  0
   -1.5839   -1.4520    2.5064 C   0  0  0  0  0  0  0  0  0  0  0  0
    0.2101    0.1595    2.4882 C   0  0  0  0  0  0  0  0  0  0  0  0
   -0.7385   -0.7071    0.2651 C   0  0  0  0  0  0  0  0  0  0  0  0
   -0.5184   -0.8436    1.7139 N   0  0  0  0  0  0  0  0  0  0  0  0
    0.4971    1.0082   -2.4122 H   0  0  0  0  0  0  0  0  0  0  0  0
    1.6335    2.0337   -1.5419 H   0  0  0  0  0  0  0  0  0  0  0  0
   -1.3481    0.0716    4.8445 H   0  0  0  0  0  0  0  0  0  0  0  0
   -2.4754    1.3438    4.3827 H   0  0  0  0  0  0  0  0  0  0  0  0
    2.0580    0.2384    0.1133 H   0  0  0  0  0  0  0  0  0  0  0  0
    2.3151   -0.3936   -1.5007 H   0  0  0  0  0  0  0  0  0  0  0  0
   -0.7557    2.6027   -0.9947 H   0  0  0  0  0  0  0  0  0  0  0  0
    0.1385    2.1022    0.4280 H   0  0  0  0  0  0  0  0  0  0  0  0
   -3.1377    0.0602    2.3506 H   0  0  0  0  0  0  0  0  0  0  0  0
   -3.2956   -0.9858    3.7631 H   0  0  0  0  0  0  0  0  0  0  0  0
   -0.0600    1.8824    3.7830 H   0  0  0  0  0  0  0  0  0  0  0  0
   -1.1243    1.8766    2.3770 H   0  0  0  0  0  0  0  0  0  0  0  0
    0.9662   -1.9927   -0.0903 H   0  0  0  0  0  0  0  0  0  0  0  0
    0.1350   -1.4629   -1.5536 H   0  0  0  0  0  0  0  0  0  0  0  0
   -1.7853    0.4087   -1.2494 H   0  0  0  0  0  0  0  0  0  0  0  0
   -2.1126    0.9946    0.3724 H   0  0  0  0  0  0  0  0  0  0  0  0
   -2.1186   -2.1802    1.8865 H   0  0  0  0  0  0  0  0  0  0  0  0
   -1.1123   -2.0227    3.3249 H   0  0  0  0  0  0  0  0  0  0  0  0
    0.7514   -0.3677    3.2923 H   0  0  0  0  0  0  0  0  0  0  0  0
    0.9726    0.6252    1.8615 H   0  0  0  0  0  0  0  0  0  0  0  0
   -1.5015   -1.4649    0.0520 H   0  0  0  0  0  0  0  0  0  0  0  0
  1  3  1  0  0  0  0
  1  4  1  0  0  0  0
  2 16  1  0  0  0  0
  2 15  1  0  0  0  0
  3  7  1  0  0  0  0
  3 17  1  0  0  0  0
  4  8  1  0  0  0  0
  4 20  1  0  0  0  0
  5 22  1  0  0  0  0
  5  2  1  0  0  0  0
  6 23  1  0  0  0  0
  6  2  1  0  0  0  0
  7 25  1  0  0  0  0
  7 11  1  0  0  0  0
  8 11  1  0  0  0  0
  8 28  1  0  0  0  0
  9  5  1  0  0  0  0
  9 30  1  0  0  0  0
 10  6  1  0  0  0  0
 10 31  1  0  0  0  0
 11 12  1  0  0  0  0
 12 10  1  0  0  0  0
 12  9  1  0  0  0  0
 13  1  1  0  0  0  0
 14  1  1  0  0  0  0
 18  3  1  0  0  0  0
 19  4  1  0  0  0  0
 21  5  1  0  0  0  0
 24  6  1  0  0  0  0
 26  7  1  0  0  0  0
 27  8  1  0  0  0  0
 29  9  1  0  0  0  0
 32 10  1  0  0  0  0
 33 11  1  0  0  0  0
M  END
>  <HBA>
1

>  <HBD>
0

>  <TPSA>
3.24

>  <cid>
18724

>  <dipole>
0.51

>  <excitation_energy_1>
4.464

>  <excitation_energy_2>
4.752

>  <excitation_energy_3>
4.85

>  <excitation_energy_4>
4.963

>  <homo_energy>
-4.963

>  <homo_lumo_gap>
6.944

>  <logP>
2.743

>  <lumo_energy>
1.981

>  <melting_point>
17.91

>  <molecular_refractivity>
57.57

>  <oscillator_strength_1>
0.0065

>  <oscillator_strength_2>
0.0236

>  <oscillator_strength_3>
0.0125

>  <oscillator_strength_4>
0.0104

>  <open_babel_can_smiles>
C1CCN(CC1)C1CCCCC1

>  <mulliken_charges>
33
1   -0.256402
2   -0.261288
3   -0.266411
4   -0.266907
5   -0.257449
6   -0.263554
7   -0.254313
8   -0.270719
9   -0.138988
10   -0.144431
11   0.04167
12   -0.383066
13   0.125295
14   0.127965
15   0.125984
16   0.130455
17   0.136613
18   0.128685
19   0.128935
20   0.13728
21   0.131592
22   0.124623
23   0.124462
24   0.136655
25   0.137508
26   0.120593
27   0.124435
28   0.133986
29   0.132845
30   0.126074
31   0.126997
32   0.141628
33   0.119247

>  <lowdin_charges>
33
1   -0.278337
2   -0.281038
3   -0.283311
4   -0.284402
5   -0.297235
6   -0.298397
7   -0.286441
8   -0.29732
9   -0.203289
10   -0.208756
11   -0.06056
12   -0.189777
13   0.13523
14   0.142843
15   0.136966
16   0.143809
17   0.13859
18   0.143815
19   0.143671
20   0.14046
21   0.139094
22   0.14316
23   0.143445
24   0.14187
25   0.149614
26   0.13741
27   0.14082
28   0.14333
29   0.144279
30   0.133667
31   0.13574
32   0.147695
33   0.143355

$$$$

