PCCDB-ID:  69642
public computational chemistry database (PCCDB) project, http://pccdb.org

 25 24  0  0  0  0  0  0  0  0999 V2000
    1.1913    2.7613   -0.9101 C   0  0  0  0  0  0  0  0  0  0  0  0
    5.8356   -3.4125   -0.7732 C   0  0  0  0  0  0  0  0  0  0  0  0
    8.3796    3.3114   -3.7164 C   0  0  0  0  0  0  0  0  0  0  0  0
    2.7069    2.5711   -0.9544 C   0  0  0  0  0  0  0  0  0  0  0  0
    5.4178   -1.9516   -0.6116 C   0  0  0  0  0  0  0  0  0  0  0  0
    7.6958    2.3676   -2.7282 C   0  0  0  0  0  0  0  0  0  0  0  0
    5.2340    0.9512   -1.5743 P   0  0  0  0  0  0  0  0  0  0  0  0
    3.1085    1.0417   -1.9214 S   0  0  0  0  0  0  0  0  0  0  0  0
    5.6431   -1.0634   -2.2230 S   0  0  0  0  0  0  0  0  0  0  0  0
    5.9526    2.0582   -3.2784 S   0  0  0  0  0  0  0  0  0  0  0  0
    0.9492    3.6686   -0.3446 H   0  0  0  0  0  0  0  0  0  0  0  0
    0.6973    1.9143   -0.4230 H   0  0  0  0  0  0  0  0  0  0  0  0
    0.7739    2.8684   -1.9165 H   0  0  0  0  0  0  0  0  0  0  0  0
    5.6929   -3.9445    0.1746 H   0  0  0  0  0  0  0  0  0  0  0  0
    6.8899   -3.4969   -1.0560 H   0  0  0  0  0  0  0  0  0  0  0  0
    5.2347   -3.9162   -1.5374 H   0  0  0  0  0  0  0  0  0  0  0  0
    9.4143    3.4900   -3.4013 H   0  0  0  0  0  0  0  0  0  0  0  0
    7.8666    4.2774   -3.7653 H   0  0  0  0  0  0  0  0  0  0  0  0
    8.4022    2.8844   -4.7244 H   0  0  0  0  0  0  0  0  0  0  0  0
    3.1170    2.4671    0.0549 H   0  0  0  0  0  0  0  0  0  0  0  0
    3.1896    3.4257   -1.4372 H   0  0  0  0  0  0  0  0  0  0  0  0
    6.0236   -1.4541    0.1521 H   0  0  0  0  0  0  0  0  0  0  0  0
    4.3660   -1.8798   -0.3203 H   0  0  0  0  0  0  0  0  0  0  0  0
    7.6755    2.8013   -1.7236 H   0  0  0  0  0  0  0  0  0  0  0  0
    8.2214    1.4096   -2.6812 H   0  0  0  0  0  0  0  0  0  0  0  0
  1 12  1  0  0  0  0
  1 11  1  0  0  0  0
  2  5  1  0  0  0  0
  2 14  1  0  0  0  0
  3 17  1  0  0  0  0
  3  6  1  0  0  0  0
  4  1  1  0  0  0  0
  4 20  1  0  0  0  0
  5 23  1  0  0  0  0
  5 22  1  0  0  0  0
  6 25  1  0  0  0  0
  6 24  1  0  0  0  0
  8  7  1  0  0  0  0
  8  4  1  0  0  0  0
  9  7  1  0  0  0  0
  9  5  1  0  0  0  0
 10  6  1  0  0  0  0
 10  7  1  0  0  0  0
 13  1  1  0  0  0  0
 15  2  1  0  0  0  0
 16  2  1  0  0  0  0
 18  3  1  0  0  0  0
 19  3  1  0  0  0  0
 21  4  1  0  0  0  0
M  END
>  <HBA>
3

>  <HBD>
0

>  <TPSA>
89.49

>  <cid>
69642

>  <dipole>
3.01

>  <excitation_energy_1>
4.265

>  <excitation_energy_2>
4.269

>  <excitation_energy_3>
4.515

>  <excitation_energy_4>
4.866

>  <homo_energy>
-5.84

>  <homo_lumo_gap>
5.336

>  <logP>
4.473

>  <lumo_energy>
-0.503

>  <melting_point>
-10.94

>  <molecular_refractivity>
61.71

>  <oscillator_strength_1>
0.0269

>  <oscillator_strength_2>
0.0266

>  <oscillator_strength_3>
0.0104

>  <oscillator_strength_4>
0.0001

>  <open_babel_can_smiles>
CCSP(SCC)SCC

>  <mulliken_charges>
25
1   -0.450349
2   -0.450136
3   -0.450243
4   -0.413363
5   -0.414342
6   -0.413345
7   0.098599
8   -0.032134
9   -0.031495
10   -0.03185
11   0.157071
12   0.165919
13   0.169321
14   0.157056
15   0.165939
16   0.169247
17   0.157096
18   0.165969
19   0.169282
20   0.181196
21   0.189039
22   0.181354
23   0.18965
24   0.181402
25   0.189118

>  <lowdin_charges>
25
1   -0.444405
2   -0.443516
3   -0.442166
4   -0.367396
5   -0.367869
6   -0.365936
7   0.145468
8   -0.044095
9   -0.043461
10   -0.042993
11   0.158919
12   0.160595
13   0.160872
14   0.158599
15   0.15839
16   0.162617
17   0.157599
18   0.159463
19   0.160725
20   0.161147
21   0.16534
22   0.163222
23   0.163328
24   0.161233
25   0.164321

$$$$

