PCCDB-ID:  35017
public computational chemistry database (PCCDB) project, http://pccdb.org

 22 22  0  0  0  0  0  0  0  0999 V2000
    1.2224    0.2645    0.0515 C   0  0  0  0  0  0  0  0  0  0  0  0
    7.2499    1.7521    0.9409 C   0  0  0  0  0  0  0  0  0  0  0  0
    0.8991    4.7112    1.6770 C   0  0  0  0  0  0  0  0  0  0  0  0
    3.1653    1.4432    0.5998 C   0  0  0  0  0  0  0  0  0  0  0  0
    5.0746    2.6210    1.1445 C   0  0  0  0  0  0  0  0  0  0  0  0
    2.9604    3.6120    1.3917 C   0  0  0  0  0  0  0  0  0  0  0  0
    2.6686    0.3508    0.1659 N   0  0  0  0  0  0  0  0  0  0  0  0
    4.5735    1.5302    0.7125 N   0  0  0  0  0  0  0  0  0  0  0  0
    2.3662    2.5606    0.9679 N   0  0  0  0  0  0  0  0  0  0  0  0
    4.3283    3.7288    1.5146 N   0  0  0  0  0  0  0  0  0  0  0  0
    6.3861    2.8453    1.3004 O   0  0  0  0  0  0  0  0  0  0  0  0
    2.3344    4.7331    1.7702 O   0  0  0  0  0  0  0  0  0  0  0  0
    0.9583   -0.7235   -0.3392 H   0  0  0  0  0  0  0  0  0  0  0  0
    0.8093    1.0252   -0.6268 H   0  0  0  0  0  0  0  0  0  0  0  0
    0.7177    0.3977    1.0196 H   0  0  0  0  0  0  0  0  0  0  0  0
    8.2603    2.1172    1.1266 H   0  0  0  0  0  0  0  0  0  0  0  0
    7.1151    1.4904   -0.1112 H   0  0  0  0  0  0  0  0  0  0  0  0
    7.0311    0.8760    1.5558 H   0  0  0  0  0  0  0  0  0  0  0  0
    0.5786    5.6972    2.0141 H   0  0  0  0  0  0  0  0  0  0  0  0
    0.4878    3.9274    2.3174 H   0  0  0  0  0  0  0  0  0  0  0  0
    0.5872    4.5305    0.6457 H   0  0  0  0  0  0  0  0  0  0  0  0
    4.7633    4.5773    1.8493 H   0  0  0  0  0  0  0  0  0  0  0  0
  1  7  1  0  0  0  0
  1 15  1  0  0  0  0
  2 16  1  0  0  0  0
  2 11  1  0  0  0  0
  2 18  1  0  0  0  0
  3 12  1  0  0  0  0
  3 19  1  0  0  0  0
  3 20  1  0  0  0  0
  4  8  2  0  0  0  0
  4  9  2  0  0  0  0
  5 11  1  0  0  0  0
  5 10  1  0  0  0  0
  6 10  1  0  0  0  0
  6 12  1  0  0  0  0
  7  4  1  0  0  0  0
  8  5  2  0  0  0  0
  9  6  2  0  0  0  0
 10 22  1  0  0  0  0
 13  1  1  0  0  0  0
 14  1  1  0  0  0  0
 17  2  1  0  0  0  0
 21  3  1  0  0  0  0
M  RAD  1   7   2
M  END
>  <HBA>
6

>  <HBD>
1

>  <TPSA>
69.16

>  <cid>
35017

>  <dipole>
4.94

>  <excitation_energy_1>
4.848

>  <excitation_energy_2>
4.987

>  <excitation_energy_3>
5.129

>  <excitation_energy_4>
5.307

>  <homo_energy>
-5.701

>  <homo_lumo_gap>
5.766

>  <logP>
0.003

>  <lumo_energy>
0.065

>  <melting_point>
96.6

>  <molecular_refractivity>
42.12

>  <oscillator_strength_1>
0.0058

>  <oscillator_strength_2>
0.0006

>  <oscillator_strength_3>
0.0

>  <oscillator_strength_4>
0.0

>  <open_babel_can_smiles>
COC1=[N]=[C](=[N]=C(N1)OC)[N]C

>  <mulliken_charges>
22
1   -0.30334
2   -0.212931
3   -0.212258
4   0.553375
5   0.764354
6   0.767692
7   -0.454612
8   -0.503896
9   -0.538395
10   -0.701598
11   -0.497585
12   -0.492637
13   0.141789
14   0.136426
15   0.136513
16   0.165412
17   0.182977
18   0.182689
19   0.168635
20   0.179864
21   0.180294
22   0.357232

>  <lowdin_charges>
22
1   -0.360191
2   -0.268556
3   -0.267794
4   0.104188
5   0.173581
6   0.18287
7   -0.211974
8   -0.213163
9   -0.248022
10   -0.239446
11   -0.188314
12   -0.185626
13   0.143891
14   0.141417
15   0.140371
16   0.160238
17   0.165058
18   0.166797
19   0.162413
20   0.165937
21   0.164061
22   0.312264

$$$$

