PCCDB-ID:  58271
public computational chemistry database (PCCDB) project, http://pccdb.org

 35 35  0  0  0  0  0  0  0  0999 V2000
    3.7349   -0.9047   -0.5920 C   0  0  0  0  0  0  0  0  0  0  0  0
    1.4457   -1.1301    0.4815 C   0  0  0  0  0  0  0  0  0  0  0  0
    4.9629    1.5506    5.4092 C   0  0  0  0  0  0  0  0  0  0  0  0
    3.9356   -4.3866    6.1537 C   0  0  0  0  0  0  0  0  0  0  0  0
    6.0762   -3.1506    6.3103 C   0  0  0  0  0  0  0  0  0  0  0  0
    3.8534    2.0042    3.1773 C   0  0  0  0  0  0  0  0  0  0  0  0
    3.2982    1.5884    1.9639 C   0  0  0  0  0  0  0  0  0  0  0  0
    3.7775   -0.6869    2.5487 C   0  0  0  0  0  0  0  0  0  0  0  0
    4.2575   -2.3018    4.9197 C   0  0  0  0  0  0  0  0  0  0  0  0
    2.6764   -0.2228    0.2950 C   0  0  0  0  0  0  0  0  0  0  0  0
    4.3732    1.0956    4.0983 C   0  0  0  0  0  0  0  0  0  0  0  0
    3.2561    0.2328    1.6286 C   0  0  0  0  0  0  0  0  0  0  0  0
    4.3183   -0.2829    3.7798 C   0  0  0  0  0  0  0  0  0  0  0  0
    4.8671   -1.1930    4.6980 N   0  0  0  0  0  0  0  0  0  0  0  0
    4.7830   -3.3147    5.6690 N   0  0  0  0  0  0  0  0  0  0  0  0
    3.3089   -1.1776   -1.5653 H   0  0  0  0  0  0  0  0  0  0  0  0
    4.1143   -1.8220   -0.1259 H   0  0  0  0  0  0  0  0  0  0  0  0
    4.5898   -0.2423   -0.7660 H   0  0  0  0  0  0  0  0  0  0  0  0
    1.0061   -1.3942   -0.4882 H   0  0  0  0  0  0  0  0  0  0  0  0
    0.6758   -0.6336    1.0823 H   0  0  0  0  0  0  0  0  0  0  0  0
    1.7144   -2.0642    0.9894 H   0  0  0  0  0  0  0  0  0  0  0  0
    5.0346    2.6426    5.4492 H   0  0  0  0  0  0  0  0  0  0  0  0
    5.9619    1.1268    5.5608 H   0  0  0  0  0  0  0  0  0  0  0  0
    4.3558    1.2203    6.2619 H   0  0  0  0  0  0  0  0  0  0  0  0
    4.4588   -5.3475    6.0767 H   0  0  0  0  0  0  0  0  0  0  0  0
    3.0255   -4.4410    5.5498 H   0  0  0  0  0  0  0  0  0  0  0  0
    3.6438   -4.2406    7.2054 H   0  0  0  0  0  0  0  0  0  0  0  0
    6.5889   -4.1182    6.3509 H   0  0  0  0  0  0  0  0  0  0  0  0
    5.9759   -2.7641    7.3356 H   0  0  0  0  0  0  0  0  0  0  0  0
    6.6668   -2.4407    5.7306 H   0  0  0  0  0  0  0  0  0  0  0  0
    3.8836    3.0662    3.4129 H   0  0  0  0  0  0  0  0  0  0  0  0
    2.9096    2.3287    1.2680 H   0  0  0  0  0  0  0  0  0  0  0  0
    3.8022   -1.7451    2.2986 H   0  0  0  0  0  0  0  0  0  0  0  0
    3.2634   -2.5311    4.5130 H   0  0  0  0  0  0  0  0  0  0  0  0
    2.3397    0.6808   -0.2316 H   0  0  0  0  0  0  0  0  0  0  0  0
  1 17  1  0  0  0  0
  1 10  1  0  0  0  0
  2 21  1  0  0  0  0
  2 20  1  0  0  0  0
  3 22  1  0  0  0  0
  3 23  1  0  0  0  0
  3 24  1  0  0  0  0
  4 27  1  0  0  0  0
  5 28  1  0  0  0  0
  5 29  1  0  0  0  0
  6 31  1  0  0  0  0
  6 11  2  0  0  0  0
  7  6  1  0  0  0  0
  8 13  2  0  0  0  0
  9 15  1  0  0  0  0
 10  2  1  0  0  0  0
 10 12  1  0  0  0  0
 11  3  1  0  0  0  0
 12  7  2  0  0  0  0
 12  8  1  0  0  0  0
 13 11  1  0  0  0  0
 13 14  1  0  0  0  0
 14  9  2  0  0  0  0
 15  4  1  0  0  0  0
 15  5  1  0  0  0  0
 16  1  1  0  0  0  0
 18  1  1  0  0  0  0
 19  2  1  0  0  0  0
 25  4  1  0  0  0  0
 26  4  1  0  0  0  0
 30  5  1  0  0  0  0
 32  7  1  0  0  0  0
 33  8  1  0  0  0  0
 34  9  1  0  0  0  0
 35 10  1  0  0  0  0
M  END
>  <HBA>
2

>  <HBD>
0

>  <TPSA>
15.6

>  <cid>
58271

>  <dipole>
3.33

>  <excitation_energy_1>
4.513

>  <excitation_energy_2>
4.709

>  <excitation_energy_3>
4.771

>  <excitation_energy_4>
5.148

>  <homo_energy>
-5.2

>  <homo_lumo_gap>
5.265

>  <logP>
3.34

>  <lumo_energy>
0.065

>  <melting_point>
38.21

>  <molecular_refractivity>
67.71

>  <oscillator_strength_1>
0.2625

>  <oscillator_strength_2>
0.0046

>  <oscillator_strength_3>
0.0973

>  <oscillator_strength_4>
0.0066

>  <open_babel_can_smiles>
CN(/C=N/c1cc(ccc1C)C(C)C)C

>  <mulliken_charges>
35
1   -0.437029
2   -0.436591
3   -0.513488
4   -0.309791
5   -0.310133
6   -0.196796
7   -0.199294
8   -0.230204
9   0.25852
10   -0.157472
11   0.148233
12   0.181802
13   0.22377
14   -0.531066
15   -0.369743
16   0.136123
17   0.141833
18   0.1494
19   0.137003
20   0.147215
21   0.137224
22   0.139132
23   0.165413
24   0.152295
25   0.160222
26   0.164692
27   0.156024
28   0.148937
29   0.152722
30   0.199873
31   0.113697
32   0.11166
33   0.112378
34   0.127685
35   0.125752

>  <lowdin_charges>
35
1   -0.442142
2   -0.443052
3   -0.436805
4   -0.345586
5   -0.352577
6   -0.165176
7   -0.188688
8   -0.200611
9   -0.025915
10   -0.11778
11   -0.017546
12   -0.003377
13   0.038859
14   -0.222337
15   -0.092243
16   0.145277
17   0.146759
18   0.153271
19   0.145781
20   0.152601
21   0.144357
22   0.14681
23   0.162666
24   0.156894
25   0.152878
26   0.161144
27   0.14415
28   0.150666
29   0.146034
30   0.182414
31   0.149111
32   0.151053
33   0.147483
34   0.134399
35   0.141226

$$$$

