PCCDB-ID:  67327
public computational chemistry database (PCCDB) project, http://pccdb.org

 30 29  0  0  0  0  0  0  0  0999 V2000
    2.6288   -0.7248    4.6879 C   0  0  0  0  0  0  0  0  0  0  0  0
    4.1649    3.0031    2.9479 C   0  0  0  0  0  0  0  0  0  0  0  0
    3.3163   -0.6889    3.3198 C   0  0  0  0  0  0  0  0  0  0  0  0
    4.3471    1.5263    3.3030 C   0  0  0  0  0  0  0  0  0  0  0  0
    3.2685    0.6432    1.2620 C   0  0  0  0  0  0  0  0  0  0  0  0
    4.8460   -0.0730   -3.1279 C   0  0  0  0  0  0  0  0  0  0  0  0
    4.4946    0.0828    0.5232 C   0  0  0  0  0  0  0  0  0  0  0  0
    5.2615   -0.3467   -1.6906 C   0  0  0  0  0  0  0  0  0  0  0  0
    3.3261    0.6505    2.7209 N   0  0  0  0  0  0  0  0  0  0  0  0
    4.6324    1.3111   -3.3439 O   0  0  0  0  0  0  0  0  0  0  0  0
    4.2058    0.1256   -0.8655 O   0  0  0  0  0  0  0  0  0  0  0  0
    2.6019   -1.7512    5.0724 H   0  0  0  0  0  0  0  0  0  0  0  0
    1.6019   -0.3540    4.6065 H   0  0  0  0  0  0  0  0  0  0  0  0
    3.1507   -0.1109    5.4298 H   0  0  0  0  0  0  0  0  0  0  0  0
    4.8650    3.6152    3.5273 H   0  0  0  0  0  0  0  0  0  0  0  0
    3.1452    3.3285    3.1802 H   0  0  0  0  0  0  0  0  0  0  0  0
    4.3548    3.2062    1.8886 H   0  0  0  0  0  0  0  0  0  0  0  0
    2.7679   -1.3509    2.6393 H   0  0  0  0  0  0  0  0  0  0  0  0
    4.3352   -1.1125    3.4088 H   0  0  0  0  0  0  0  0  0  0  0  0
    4.2735    1.4255    4.3909 H   0  0  0  0  0  0  0  0  0  0  0  0
    5.3748    1.2066    3.0394 H   0  0  0  0  0  0  0  0  0  0  0  0
    2.3953    0.0539    0.9580 H   0  0  0  0  0  0  0  0  0  0  0  0
    3.0910    1.6626    0.9029 H   0  0  0  0  0  0  0  0  0  0  0  0
    3.9425   -0.6604   -3.3600 H   0  0  0  0  0  0  0  0  0  0  0  0
    5.6397   -0.3888   -3.8131 H   0  0  0  0  0  0  0  0  0  0  0  0
    4.7005   -0.9540    0.8357 H   0  0  0  0  0  0  0  0  0  0  0  0
    5.3981    0.6757    0.7392 H   0  0  0  0  0  0  0  0  0  0  0  0
    6.1937    0.1939   -1.4603 H   0  0  0  0  0  0  0  0  0  0  0  0
    5.4365   -1.4231   -1.5262 H   0  0  0  0  0  0  0  0  0  0  0  0
    4.0547    1.5958   -2.6160 H   0  0  0  0  0  0  0  0  0  0  0  0
  1 12  1  0  0  0  0
  1 14  1  0  0  0  0
  2 16  1  0  0  0  0
  2  4  1  0  0  0  0
  2 15  1  0  0  0  0
  3 19  1  0  0  0  0
  3  1  1  0  0  0  0
  4 20  1  0  0  0  0
  5  9  1  0  0  0  0
  6  8  1  0  0  0  0
  7 27  1  0  0  0  0
  7 26  1  0  0  0  0
  7  5  1  0  0  0  0
  8 29  1  0  0  0  0
  8 28  1  0  0  0  0
  8 11  1  0  0  0  0
  9  4  1  0  0  0  0
  9  3  1  0  0  0  0
 10  6  1  0  0  0  0
 10 30  1  0  0  0  0
 11  7  1  0  0  0  0
 13  1  1  0  0  0  0
 17  2  1  0  0  0  0
 18  3  1  0  0  0  0
 21  4  1  0  0  0  0
 22  5  1  0  0  0  0
 23  5  1  0  0  0  0
 24  6  1  0  0  0  0
 25  6  1  0  0  0  0
M  END
>  <HBA>
3

>  <HBD>
1

>  <TPSA>
32.7

>  <cid>
67327

>  <dipole>
2.53

>  <excitation_energy_1>
5.144

>  <excitation_energy_2>
5.426

>  <excitation_energy_3>
5.495

>  <excitation_energy_4>
5.568

>  <homo_energy>
-5.614

>  <homo_lumo_gap>
7.695

>  <logP>
0.337

>  <lumo_energy>
2.082

>  <melting_point>
-15.59

>  <molecular_refractivity>
45.71

>  <oscillator_strength_1>
0.0168

>  <oscillator_strength_2>
0.0126

>  <oscillator_strength_3>
0.0178

>  <oscillator_strength_4>
0.0032

>  <open_babel_can_smiles>
OCCOCCN(CC)CC

>  <mulliken_charges>
30
1   -0.439314
2   -0.455507
3   -0.12014
4   -0.115997
5   -0.163499
6   -0.034461
7   -0.018042
8   -0.031282
9   -0.376203
10   -0.622102
11   -0.49576
12   0.138965
13   0.154968
14   0.146376
15   0.144475
16   0.158148
17   0.148472
18   0.137176
19   0.114114
20   0.141606
21   0.111135
22   0.150931
23   0.150167
24   0.129894
25   0.144092
26   0.124718
27   0.126558
28   0.130944
29   0.120488
30   0.399081

>  <lowdin_charges>
30
1   -0.449034
2   -0.450282
3   -0.198186
4   -0.195243
5   -0.213705
6   -0.140397
7   -0.144532
8   -0.146794
9   -0.188131
10   -0.470489
11   -0.282695
12   0.149194
13   0.15355
14   0.149134
15   0.155371
16   0.155362
17   0.147096
18   0.146491
19   0.118068
20   0.144128
21   0.113341
22   0.150948
23   0.148897
24   0.132577
25   0.150817
26   0.128092
27   0.129678
28   0.133297
29   0.129302
30   0.344146

$$$$

