PCCDB-ID:  73238
public computational chemistry database (PCCDB) project, http://pccdb.org

 16 16  0  0  0  0  0  0  0  0999 V2000
    1.0854    0.2127    0.0414 C   0  0  0  0  0  0  0  0  0  0  0  0
    2.7701   -2.5712   -0.0303 C   0  0  0  0  0  0  0  0  0  0  0  0
    2.5674   -0.0027    0.0241 C   0  0  0  0  0  0  0  0  0  0  0  0
    3.2632   -1.1588   -0.0068 C   0  0  0  0  0  0  0  0  0  0  0  0
    4.7635    0.9311    0.0300 C   0  0  0  0  0  0  0  0  0  0  0  0
    5.7356    1.7582    0.0407 N   0  0  0  0  0  0  0  0  0  0  0  0
    3.3895    1.1334    0.0448 N   0  0  0  0  0  0  0  0  0  0  0  0
    5.0186   -0.8430   -0.0115 S   0  0  0  0  0  0  0  0  0  0  0  0
    0.5477   -0.7367    0.0100 H   0  0  0  0  0  0  0  0  0  0  0  0
    0.7599    0.8099   -0.8209 H   0  0  0  0  0  0  0  0  0  0  0  0
    0.7708    0.7454    0.9489 H   0  0  0  0  0  0  0  0  0  0  0  0
    1.6769   -2.6061   -0.0522 H   0  0  0  0  0  0  0  0  0  0  0  0
    3.1033   -3.1297    0.8540 H   0  0  0  0  0  0  0  0  0  0  0  0
    3.1375   -3.1108   -0.9126 H   0  0  0  0  0  0  0  0  0  0  0  0
    5.4056    2.7265    0.0642 H   0  0  0  0  0  0  0  0  0  0  0  0
    3.0121    2.0706    0.0603 H   0  0  0  0  0  0  0  0  0  0  0  0
  1 11  1  0  0  0  0
  2  4  1  0  0  0  0
  2 13  1  0  0  0  0
  3  1  1  0  0  0  0
  3  7  1  0  0  0  0
  4  3  2  0  0  0  0
  5  6  2  0  0  0  0
  5  7  1  0  0  0  0
  6 15  1  0  0  0  0
  7 16  1  0  0  0  0
  8  4  1  0  0  0  0
  8  5  1  0  0  0  0
  9  1  1  0  0  0  0
 10  1  1  0  0  0  0
 12  2  1  0  0  0  0
 14  2  1  0  0  0  0
M  END
>  <HBA>
3

>  <HBD>
1

>  <TPSA>
67.15

>  <cid>
73238

>  <dipole>
4.98

>  <excitation_energy_1>
4.032

>  <excitation_energy_2>
4.471

>  <excitation_energy_3>
4.824

>  <excitation_energy_4>
5.022

>  <homo_energy>
-5.067

>  <homo_lumo_gap>
5.638

>  <logP>
1.923

>  <lumo_energy>
0.571

>  <melting_point>
76.88

>  <molecular_refractivity>
36.45

>  <oscillator_strength_1>
0.0014

>  <oscillator_strength_2>
0.0008

>  <oscillator_strength_3>
0.0008

>  <oscillator_strength_4>
0.1724

>  <open_babel_can_smiles>
N=c1[nH]c(c(s1)C)C

>  <mulliken_charges>
16
1   -0.531517
2   -0.512412
3   0.385086
4   -0.188194
5   0.315045
6   -0.638495
7   -0.643849
8   0.207795
9   0.175034
10   0.166811
11   0.167868
12   0.160913
13   0.171505
14   0.171249
15   0.270024
16   0.323135

>  <lowdin_charges>
16
1   -0.443107
2   -0.432555
3   0.017398
4   -0.183396
5   -0.011717
6   -0.448349
7   -0.254614
8   0.233366
9   0.1707
10   0.162849
11   0.163055
12   0.159551
13   0.164677
14   0.164897
15   0.250007
16   0.28724

$$$$

