PCCDB-ID:  27470
public computational chemistry database (PCCDB) project, http://pccdb.org

 25 24  0  0  1  0  0  0  0  0999 V2000
    3.2199    3.6493    1.2321 C   0  0  0  0  0  0  0  0  0  0  0  0
    4.7811   -0.5955   -2.5411 C   0  0  0  0  0  0  0  0  0  0  0  0
    6.6905   -0.8435    0.8818 C   0  0  0  0  0  0  0  0  0  0  0  0
    3.4243    2.3281    0.4856 C   0  0  0  0  0  0  0  0  0  0  0  0
    5.5624   -1.2074   -1.3736 C   0  0  0  0  0  0  0  0  0  0  0  0
    4.2238    1.2969    1.3105 C   0  0  0  0  0  0  0  0  0  0  0  0
    5.7099   -0.2698   -0.1662 C   0  0  1  0  0  0  0  0  0  0  0  0
    4.3722   -0.0080    0.5346 C   0  0  0  0  0  0  0  0  0  0  0  0
    3.4509   -0.8040    0.4808 O   0  0  0  0  0  0  0  0  0  0  0  0
    2.6416    4.3574    0.6278 H   0  0  0  0  0  0  0  0  0  0  0  0
    4.1788    4.1230    1.4752 H   0  0  0  0  0  0  0  0  0  0  0  0
    2.6785    3.4921    2.1726 H   0  0  0  0  0  0  0  0  0  0  0  0
    4.7344   -1.2898   -3.3876 H   0  0  0  0  0  0  0  0  0  0  0  0
    5.2538    0.3290   -2.8970 H   0  0  0  0  0  0  0  0  0  0  0  0
    3.7525   -0.3615   -2.2480 H   0  0  0  0  0  0  0  0  0  0  0  0
    7.6823   -0.9816    0.4375 H   0  0  0  0  0  0  0  0  0  0  0  0
    6.3392   -1.8173    1.2413 H   0  0  0  0  0  0  0  0  0  0  0  0
    6.8009   -0.1825    1.7490 H   0  0  0  0  0  0  0  0  0  0  0  0
    3.9418    2.5191   -0.4648 H   0  0  0  0  0  0  0  0  0  0  0  0
    2.4542    1.8855    0.2300 H   0  0  0  0  0  0  0  0  0  0  0  0
    6.5666   -1.4929   -1.7144 H   0  0  0  0  0  0  0  0  0  0  0  0
    5.0642   -2.1249   -1.0396 H   0  0  0  0  0  0  0  0  0  0  0  0
    3.6829    1.0816    2.2393 H   0  0  0  0  0  0  0  0  0  0  0  0
    5.2053    1.7124    1.5719 H   0  0  0  0  0  0  0  0  0  0  0  0
    6.1075    0.7005   -0.5013 H   0  0  0  0  0  0  0  0  0  0  0  0
  1 11  1  0  0  0  0
  1 12  1  0  0  0  0
  2 15  1  0  0  0  0
  2  5  1  0  0  0  0
  3 17  1  0  0  0  0
  3 18  1  0  0  0  0
  4  1  1  0  0  0  0
  4  6  1  0  0  0  0
  5 22  1  0  0  0  0
  5  7  1  0  0  0  0
  6 24  1  0  0  0  0
  6 23  1  0  0  0  0
  7 25  1  6  0  0  0
  7  8  1  0  0  0  0
  7  3  1  0  0  0  0
  8  6  1  0  0  0  0
  9  8  2  0  0  0  0
 10  1  1  0  0  0  0
 13  2  1  0  0  0  0
 14  2  1  0  0  0  0
 16  3  1  0  0  0  0
 19  4  1  0  0  0  0
 20  4  1  0  0  0  0
 21  5  1  0  0  0  0
M  END
>  <HBA>
1

>  <HBD>
0

>  <TPSA>
17.07

>  <cid>
27470

>  <dipole>
2.5

>  <excitation_energy_1>
4.237

>  <excitation_energy_2>
6.011

>  <excitation_energy_3>
6.447

>  <excitation_energy_4>
6.542

>  <homo_energy>
-6.422

>  <homo_lumo_gap>
6.079

>  <logP>
2.402

>  <lumo_energy>
-0.343

>  <melting_point>
-6.5

>  <molecular_refractivity>
40.77

>  <oscillator_strength_1>
0.0004

>  <oscillator_strength_2>
0.0055

>  <oscillator_strength_3>
0.0078

>  <oscillator_strength_4>
0.0205

>  <open_babel_can_smiles>
CCCC(=O)[C@H](CC)C

>  <mulliken_charges>
25
1   -0.441131
2   -0.455705
3   -0.461305
4   -0.262134
5   -0.242383
6   -0.326761
7   -0.157956
8   0.4553
9   -0.460985
10   0.148535
11   0.143233
12   0.14824
13   0.144624
14   0.133903
15   0.161342
16   0.154941
17   0.162801
18   0.148791
19   0.138535
20   0.160165
21   0.125661
22   0.156227
23   0.160888
24   0.136338
25   0.128835

>  <lowdin_charges>
25
1   -0.444502
2   -0.447958
3   -0.438129
4   -0.265776
5   -0.271282
6   -0.306624
7   -0.156835
8   0.168197
9   -0.24477
10   0.1545
11   0.147296
12   0.149955
13   0.152311
14   0.142088
15   0.154546
16   0.15514
17   0.157327
18   0.151381
19   0.141839
20   0.153607
21   0.140148
22   0.155213
23   0.162847
24   0.146088
25   0.143392

$$$$

