PCCDB-ID:  34695
public computational chemistry database (PCCDB) project, http://pccdb.org

 18 18  0  0  0  0  0  0  0  0999 V2000
    3.4315    3.2678   -0.0090 C   0  0  0  0  0  0  0  0  0  0  0  0
    4.7903    3.3376   -0.0644 C   0  0  0  0  0  0  0  0  0  0  0  0
    2.7016    2.3733   -0.9393 C   0  0  0  0  0  0  0  0  0  0  0  0
    5.5211    2.6172   -1.1344 C   0  0  0  0  0  0  0  0  0  0  0  0
    2.9950    2.3450   -2.2548 C   0  0  0  0  0  0  0  0  0  0  0  0
    5.2308    1.3360   -1.4370 C   0  0  0  0  0  0  0  0  0  0  0  0
    3.3143    1.0830   -3.0009 C   0  0  0  0  0  0  0  0  0  0  0  0
    4.9129    0.8699   -2.8273 C   0  0  0  0  0  0  0  0  0  0  0  0
    2.9062    3.7970    0.7870 H   0  0  0  0  0  0  0  0  0  0  0  0
    5.3147    4.0042    0.6214 H   0  0  0  0  0  0  0  0  0  0  0  0
    2.1962    1.5149   -0.4875 H   0  0  0  0  0  0  0  0  0  0  0  0
    6.0241    3.2401   -1.8797 H   0  0  0  0  0  0  0  0  0  0  0  0
    3.4819    3.2328   -2.6619 H   0  0  0  0  0  0  0  0  0  0  0  0
    4.7469    0.7502   -0.6539 H   0  0  0  0  0  0  0  0  0  0  0  0
    3.0853    1.1071   -4.0726 H   0  0  0  0  0  0  0  0  0  0  0  0
    2.8000    0.2212   -2.5597 H   0  0  0  0  0  0  0  0  0  0  0  0
    5.1427   -0.1831   -3.0273 H   0  0  0  0  0  0  0  0  0  0  0  0
    5.4270    1.4818   -3.5776 H   0  0  0  0  0  0  0  0  0  0  0  0
  1  9  1  0  0  0  0
  2  1  2  0  0  0  0
  2 10  1  0  0  0  0
  3 11  1  0  0  0  0
  3  1  1  0  0  0  0
  4  2  1  0  0  0  0
  5  3  1  0  0  0  0
  6  4  1  0  0  0  0
  6 14  1  0  0  0  0
  7  8  1  0  0  0  0
  7 16  1  0  0  0  0
  7  5  1  0  0  0  0
  8  6  1  0  0  0  0
 12  4  1  0  0  0  0
 13  5  1  0  0  0  0
 15  7  1  0  0  0  0
 17  8  1  0  0  0  0
 18  8  1  0  0  0  0
M  RAD  4   3   2   4   2   5   2   6   2
M  END
>  <HBA>
0

>  <HBD>
0

>  <TPSA>
0.0

>  <cid>
34695

>  <dipole>
0.38

>  <excitation_energy_1>
3.765

>  <excitation_energy_2>
4.234

>  <excitation_energy_3>
5.133

>  <excitation_energy_4>
5.338

>  <homo_energy>
-5.353

>  <homo_lumo_gap>
4.661

>  <logP>
2.449

>  <lumo_energy>
-0.691

>  <melting_point>
24.06

>  <molecular_refractivity>
37.03

>  <oscillator_strength_1>
0.0194

>  <oscillator_strength_2>
0.0241

>  <oscillator_strength_3>
0.0165

>  <oscillator_strength_4>
0.0389

>  <open_babel_can_smiles>
C1C[CH][CH]C=C[CH][CH]1

>  <mulliken_charges>
18
1   -0.131962
2   -0.132081
3   -0.145556
4   -0.145786
5   -0.08979
6   -0.089631
7   -0.305019
8   -0.305111
9   0.130626
10   0.130671
11   0.12691
12   0.126917
13   0.126369
14   0.126309
15   0.143982
16   0.144574
17   0.144008
18   0.144569

>  <lowdin_charges>
18
1   -0.150612
2   -0.150925
3   -0.177752
4   -0.178257
5   -0.153295
6   -0.1538
7   -0.26999
8   -0.271033
9   0.154768
10   0.155002
11   0.149289
12   0.149863
13   0.14925
14   0.14987
15   0.148675
16   0.149672
17   0.149074
18   0.1502

$$$$

