PCCDB-ID:  25674
public computational chemistry database (PCCDB) project, http://pccdb.org

 23 22  0  0  1  0  0  0  0  0999 V2000
    1.7993   -0.5767    0.3155 C   0  0  0  0  0  0  0  0  0  0  0  0
    3.1018   -0.0273   -0.2619 C   0  0  0  0  0  0  0  0  0  0  0  0
    5.0916   -2.1772   -2.8506 C   0  0  0  0  0  0  0  0  0  0  0  0
    3.6800   -1.9574   -2.2864 C   0  0  0  0  0  0  0  0  0  0  0  0
    6.2582   -1.6035   -2.0248 C   0  0  1  0  0  0  0  0  0  0  0  0
    6.4502   -2.3077   -0.6629 C   0  0  0  0  0  0  0  0  0  0  0  0
    7.5526   -1.6102   -2.7400 N   0  0  0  0  0  0  0  0  0  0  0  0
    5.5322   -2.6210    0.0660 O   0  0  0  0  0  0  0  0  0  0  0  0
    7.7318   -2.5091   -0.3364 O   0  0  0  0  0  0  0  0  0  0  0  0
    3.2325   -0.1745   -2.0976 S   0  0  0  0  0  0  0  0  0  0  0  0
    1.7011   -1.6506    0.1241 H   0  0  0  0  0  0  0  0  0  0  0  0
    0.9300   -0.0738   -0.1202 H   0  0  0  0  0  0  0  0  0  0  0  0
    1.7770   -0.4299    1.4029 H   0  0  0  0  0  0  0  0  0  0  0  0
    3.9687   -0.5253    0.1812 H   0  0  0  0  0  0  0  0  0  0  0  0
    3.1916    1.0462   -0.0638 H   0  0  0  0  0  0  0  0  0  0  0  0
    5.1499   -1.7211   -3.8478 H   0  0  0  0  0  0  0  0  0  0  0  0
    5.2433   -3.2585   -2.9877 H   0  0  0  0  0  0  0  0  0  0  0  0
    3.5832   -2.4372   -1.3118 H   0  0  0  0  0  0  0  0  0  0  0  0
    2.9514   -2.4100   -2.9658 H   0  0  0  0  0  0  0  0  0  0  0  0
    6.0189   -0.5592   -1.7873 H   0  0  0  0  0  0  0  0  0  0  0  0
    7.5991   -2.3947   -3.3894 H   0  0  0  0  0  0  0  0  0  0  0  0
    7.6724   -0.7629   -3.2893 H   0  0  0  0  0  0  0  0  0  0  0  0
    8.2424   -2.1611   -1.1144 H   0  0  0  0  0  0  0  0  0  0  0  0
  1 13  1  0  0  0  0
  2 15  1  0  0  0  0
  2 14  1  0  0  0  0
  2  1  1  0  0  0  0
  3  4  1  0  0  0  0
  3  5  1  0  0  0  0
  4 10  1  0  0  0  0
  4 18  1  0  0  0  0
  5 20  1  1  0  0  0
  5  6  1  0  0  0  0
  6  9  1  0  0  0  0
  6  8  2  0  0  0  0
  7  5  1  0  0  0  0
 10  2  1  0  0  0  0
 11  1  1  0  0  0  0
 12  1  1  0  0  0  0
 16  3  1  0  0  0  0
 17  3  1  0  0  0  0
 19  4  1  0  0  0  0
 21  7  1  0  0  0  0
 22  7  1  0  0  0  0
 23  9  1  0  0  0  0
M  END
>  <HBA>
4

>  <HBD>
2

>  <TPSA>
88.62

>  <cid>
25674

>  <dipole>
3.76

>  <excitation_energy_1>
4.874

>  <excitation_energy_2>
5.19

>  <excitation_energy_3>
5.446

>  <excitation_energy_4>
5.557

>  <homo_energy>
-5.94

>  <homo_lumo_gap>
6.248

>  <logP>
1.242

>  <lumo_energy>
0.307

>  <melting_point>
113.81

>  <molecular_refractivity>
43.03

>  <oscillator_strength_1>
0.0306

>  <oscillator_strength_2>
0.0015

>  <oscillator_strength_3>
0.0028

>  <oscillator_strength_4>
0.0046

>  <open_babel_can_smiles>
CCSCC[C@@H](C(=O)O)N

>  <mulliken_charges>
23
1   -0.429753
2   -0.421489
3   -0.264961
4   -0.430786
5   -0.085225
6   0.612438
7   -0.77802
8   -0.472753
9   -0.576249
10   0.052784
11   0.156682
12   0.157209
13   0.149337
14   0.197888
15   0.169049
16   0.145166
17   0.144747
18   0.21736
19   0.171335
20   0.198539
21   0.322767
22   0.329608
23   0.434327

>  <lowdin_charges>
23
1   -0.443597
2   -0.372708
3   -0.280834
4   -0.382958
5   -0.113329
6   0.18117
7   -0.545016
8   -0.270816
9   -0.353234
10   0.064238
11   0.152274
12   0.156028
13   0.151586
14   0.17042
15   0.161667
16   0.14788
17   0.147608
18   0.182619
19   0.164819
20   0.177023
21   0.268552
22   0.275874
23   0.360734

$$$$

