PCCDB-ID:  7694
public computational chemistry database (PCCDB) project, http://pccdb.org

 26 26  0  0  0  0  0  0  0  0999 V2000
    0.8730    0.3381   -0.7873 C   0  0  0  0  0  0  0  0  0  0  0  0
    2.4034    0.4013   -0.8178 C   0  0  0  0  0  0  0  0  0  0  0  0
    2.9659    0.7469   -2.2020 C   0  0  0  0  0  0  0  0  0  0  0  0
    4.5055    0.8240   -2.2336 C   0  0  0  0  0  0  0  0  0  0  0  0
    5.3824    0.2138   -4.5412 C   0  0  0  0  0  0  0  0  0  0  0  0
    5.2424    2.5314   -3.9661 C   0  0  0  0  0  0  0  0  0  0  0  0
    5.8568    0.5479   -5.8072 C   0  0  0  0  0  0  0  0  0  0  0  0
    5.7157    2.8822   -5.2278 C   0  0  0  0  0  0  0  0  0  0  0  0
    5.0623    1.1932   -3.5920 C   0  0  0  0  0  0  0  0  0  0  0  0
    6.0314    1.8923   -6.1724 C   0  0  0  0  0  0  0  0  0  0  0  0
    6.5679    2.2344   -7.4215 N   0  0  0  0  0  0  0  0  0  0  0  0
    0.5016    0.0908    0.2140 H   0  0  0  0  0  0  0  0  0  0  0  0
    0.4932   -0.4228   -1.4803 H   0  0  0  0  0  0  0  0  0  0  0  0
    0.4307    1.2989   -1.0783 H   0  0  0  0  0  0  0  0  0  0  0  0
    2.8163   -0.5632   -0.4887 H   0  0  0  0  0  0  0  0  0  0  0  0
    2.7539    1.1456   -0.0885 H   0  0  0  0  0  0  0  0  0  0  0  0
    2.5518    1.7081   -2.5387 H   0  0  0  0  0  0  0  0  0  0  0  0
    2.6294   -0.0009   -2.9342 H   0  0  0  0  0  0  0  0  0  0  0  0
    4.9157   -0.1450   -1.9174 H   0  0  0  0  0  0  0  0  0  0  0  0
    4.8387    1.5576   -1.4865 H   0  0  0  0  0  0  0  0  0  0  0  0
    5.2602   -0.8372   -4.2860 H   0  0  0  0  0  0  0  0  0  0  0  0
    5.0093    3.3206   -3.2537 H   0  0  0  0  0  0  0  0  0  0  0  0
    6.1051   -0.2374   -6.5185 H   0  0  0  0  0  0  0  0  0  0  0  0
    5.8534    3.9309   -5.4837 H   0  0  0  0  0  0  0  0  0  0  0  0
    6.4116    1.5447   -8.1468 H   0  0  0  0  0  0  0  0  0  0  0  0
    6.3172    3.1611   -7.7451 H   0  0  0  0  0  0  0  0  0  0  0  0
  1 12  1  0  0  0  0
  2  1  1  0  0  0  0
  2 15  1  0  0  0  0
  2 16  1  0  0  0  0
  3  2  1  0  0  0  0
  4  3  1  0  0  0  0
  4 19  1  0  0  0  0
  4 20  1  0  0  0  0
  5 21  1  0  0  0  0
  5  9  2  0  0  0  0
  6  9  1  0  0  0  0
  6 22  1  0  0  0  0
  7  5  1  0  0  0  0
  8  6  2  0  0  0  0
  9  4  1  0  0  0  0
 10  7  2  0  0  0  0
 10  8  1  0  0  0  0
 11 10  1  0  0  0  0
 13  1  1  0  0  0  0
 14  1  1  0  0  0  0
 17  3  1  0  0  0  0
 18  3  1  0  0  0  0
 23  7  1  0  0  0  0
 24  8  1  0  0  0  0
 25 11  1  0  0  0  0
 26 11  1  0  0  0  0
M  END
>  <HBA>
1

>  <HBD>
1

>  <TPSA>
26.02

>  <cid>
7694

>  <dipole>
1.58

>  <excitation_energy_1>
4.613

>  <excitation_energy_2>
4.637

>  <excitation_energy_3>
5.108

>  <excitation_energy_4>
5.328

>  <homo_energy>
-5.233

>  <homo_lumo_gap>
5.499

>  <logP>
3.193

>  <lumo_energy>
0.267

>  <melting_point>
55.32

>  <molecular_refractivity>
50.23

>  <oscillator_strength_1>
0.0311

>  <oscillator_strength_2>
0.0038

>  <oscillator_strength_3>
0.0789

>  <oscillator_strength_4>
0.0004

>  <open_babel_can_smiles>
CCCCc1ccc(cc1)N

>  <mulliken_charges>
26
1   -0.441074
2   -0.245604
3   -0.238793
4   -0.349174
5   -0.190233
6   -0.189824
7   -0.171427
8   -0.171446
9   0.171752
10   0.303076
11   -0.786908
12   0.140772
13   0.141406
14   0.14139
15   0.12958
16   0.129458
17   0.131159
18   0.130986
19   0.134913
20   0.135032
21   0.117379
22   0.117376
23   0.113381
24   0.113416
25   0.316727
26   0.316681

>  <lowdin_charges>
26
1   -0.444785
2   -0.274159
3   -0.274076
4   -0.273009
5   -0.155598
6   -0.158504
7   -0.201816
8   -0.199121
9   -0.025833
10   0.057578
11   -0.4942
12   0.148207
13   0.147307
14   0.146215
15   0.138306
16   0.13929
17   0.139975
18   0.141027
19   0.144702
20   0.145762
21   0.150832
22   0.153262
23   0.15194
24   0.149604
25   0.274192
26   0.272901

$$$$

