PCCDB-ID:  41636
public computational chemistry database (PCCDB) project, http://pccdb.org

 35 37  0  0  0  0  0  0  0  0999 V2000
    1.3211    1.0909    3.1457 C   0  0  0  0  0  0  0  0  0  0  0  0
    0.7083    1.7388    2.0782 C   0  0  0  0  0  0  0  0  0  0  0  0
    0.0210   -2.8895   -1.8235 C   0  0  0  0  0  0  0  0  0  0  0  0
   -1.0071   -4.7275   -0.4484 C   0  0  0  0  0  0  0  0  0  0  0  0
    1.0315   -3.9134   -2.3500 C   0  0  0  0  0  0  0  0  0  0  0  0
    0.0394   -5.6858   -1.0273 C   0  0  0  0  0  0  0  0  0  0  0  0
   -1.5714   -2.3069    0.1032 C   0  0  0  0  0  0  0  0  0  0  0  0
    0.3819   -1.0605    2.4792 C   0  0  0  0  0  0  0  0  0  0  0  0
   -1.4104    0.2075   -0.4274 C   0  0  0  0  0  0  0  0  0  0  0  0
   -0.4896   -3.2777   -0.4248 C   0  0  0  0  0  0  0  0  0  0  0  0
   -1.1038   -0.8967    0.3305 C   0  0  0  0  0  0  0  0  0  0  0  0
    1.1566   -0.2968    3.3446 C   0  0  0  0  0  0  0  0  0  0  0  0
   -0.2425   -0.4277    1.3911 C   0  0  0  0  0  0  0  0  0  0  0  0
   -0.0698    0.9728    1.2090 C   0  0  0  0  0  0  0  0  0  0  0  0
    0.4212   -5.2446   -2.3699 N   0  0  0  0  0  0  0  0  0  0  0  0
   -0.7959    1.3324    0.0883 N   0  0  0  0  0  0  0  0  0  0  0  0
    1.7558   -0.9461    4.3999 O   0  0  0  0  0  0  0  0  0  0  0  0
    1.9349    1.6617    3.8403 H   0  0  0  0  0  0  0  0  0  0  0  0
    0.8361    2.8087    1.9355 H   0  0  0  0  0  0  0  0  0  0  0  0
   -0.8284   -2.8463   -2.5201 H   0  0  0  0  0  0  0  0  0  0  0  0
    0.4773   -1.8931   -1.7990 H   0  0  0  0  0  0  0  0  0  0  0  0
   -1.2830   -5.0496    0.5647 H   0  0  0  0  0  0  0  0  0  0  0  0
   -1.9134   -4.7816   -1.0674 H   0  0  0  0  0  0  0  0  0  0  0  0
    1.9430   -3.8739   -1.7189 H   0  0  0  0  0  0  0  0  0  0  0  0
    1.3353   -3.6559   -3.3718 H   0  0  0  0  0  0  0  0  0  0  0  0
   -0.3720   -6.6999   -1.0977 H   0  0  0  0  0  0  0  0  0  0  0  0
    0.9039   -5.7315   -0.3333 H   0  0  0  0  0  0  0  0  0  0  0  0
   -1.9702   -2.7140    1.0443 H   0  0  0  0  0  0  0  0  0  0  0  0
   -2.4125   -2.3019   -0.6042 H   0  0  0  0  0  0  0  0  0  0  0  0
    0.2745   -2.1247    2.6634 H   0  0  0  0  0  0  0  0  0  0  0  0
   -2.0358    0.2802   -1.3073 H   0  0  0  0  0  0  0  0  0  0  0  0
    0.3676   -3.2384    0.2657 H   0  0  0  0  0  0  0  0  0  0  0  0
    1.0712   -5.9136   -2.7776 H   0  0  0  0  0  0  0  0  0  0  0  0
   -0.8695    2.2631   -0.2898 H   0  0  0  0  0  0  0  0  0  0  0  0
    2.2566   -0.2984    4.9181 H   0  0  0  0  0  0  0  0  0  0  0  0
  1 12  1  0  0  0  0
  1 18  1  0  0  0  0
  2  1  2  0  0  0  0
  3 21  1  0  0  0  0
  3 10  1  0  0  0  0
  4 10  1  0  0  0  0
  4 22  1  0  0  0  0
  5  3  1  0  0  0  0
  5 24  1  0  0  0  0
  6  4  1  0  0  0  0
  6 27  1  0  0  0  0
  7 11  1  0  0  0  0
  7 28  1  0  0  0  0
  8 30  1  0  0  0  0
  8 12  2  0  0  0  0
  9 16  1  0  0  0  0
  9 11  2  0  0  0  0
 10  7  1  0  0  0  0
 10 32  1  0  0  0  0
 11 13  1  0  0  0  0
 12 17  1  0  0  0  0
 13  8  1  0  0  0  0
 14 13  2  0  0  0  0
 14  2  1  0  0  0  0
 15  5  1  0  0  0  0
 15  6  1  0  0  0  0
 16 14  1  0  0  0  0
 17 35  1  0  0  0  0
 19  2  1  0  0  0  0
 20  3  1  0  0  0  0
 23  4  1  0  0  0  0
 25  5  1  0  0  0  0
 26  6  1  0  0  0  0
 29  7  1  0  0  0  0
 31  9  1  0  0  0  0
 33 15  1  0  0  0  0
 34 16  1  0  0  0  0
M  END
>  <HBA>
2

>  <HBD>
3

>  <TPSA>
48.05

>  <cid>
41636

>  <dipole>
2.73

>  <excitation_energy_1>
4.292

>  <excitation_energy_2>
4.565

>  <excitation_energy_3>
4.653

>  <excitation_energy_4>
4.698

>  <homo_energy>
-5.097

>  <homo_lumo_gap>
4.982

>  <logP>
2.744

>  <lumo_energy>
-0.114

>  <melting_point>
187.18

>  <molecular_refractivity>
73.93

>  <oscillator_strength_1>
0.0583

>  <oscillator_strength_2>
0.0001

>  <oscillator_strength_3>
0.0803

>  <oscillator_strength_4>
0.0005

>  <open_babel_can_smiles>
Oc1ccc2c(c1)c(CC1CCNCC1)c[nH]2

>  <mulliken_charges>
35
1   -0.218875
2   -0.167168
3   -0.25117
4   -0.250861
5   -0.134702
6   -0.132727
7   -0.347929
8   -0.258895
9   -0.004713
10   -0.085477
11   0.075397
12   0.353892
13   0.081032
14   0.312947
15   -0.545258
16   -0.696416
17   -0.656228
18   0.11057
19   0.122557
20   0.128552
21   0.137432
22   0.124724
23   0.135312
24   0.108081
25   0.130949
26   0.132054
27   0.106679
28   0.138136
29   0.130604
30   0.132731
31   0.145192
32   0.125638
33   0.292328
34   0.3236
35   0.402013

>  <lowdin_charges>
35
1   -0.21942
2   -0.175256
3   -0.283315
4   -0.281363
5   -0.202841
6   -0.20369
7   -0.26784
8   -0.198785
9   -0.136072
10   -0.130345
11   -0.06282
12   0.090459
13   -0.023599
14   0.016621
15   -0.370932
16   -0.203967
17   -0.394406
18   0.151848
19   0.15438
20   0.140719
21   0.148289
22   0.141067
23   0.143425
24   0.113705
25   0.14163
26   0.142011
27   0.113549
28   0.148668
29   0.146263
30   0.163318
31   0.162719
32   0.137834
33   0.253911
34   0.289153
35   0.355081

$$$$

