PCCDB-ID:  70641
public computational chemistry database (PCCDB) project, http://pccdb.org

 19 20  0  0  0  0  0  0  0  0999 V2000
   -1.4123   -0.0384    0.1369 C   0  0  0  0  0  0  0  0  0  0  0  0
   -0.7494    1.1916    0.2087 C   0  0  0  0  0  0  0  0  0  0  0  0
   -0.6862   -1.2049   -0.1033 C   0  0  0  0  0  0  0  0  0  0  0  0
    0.6292    1.2567    0.0425 C   0  0  0  0  0  0  0  0  0  0  0  0
    0.6970   -1.1448   -0.2714 C   0  0  0  0  0  0  0  0  0  0  0  0
    3.7334   -1.0216   -0.6418 C   0  0  0  0  0  0  0  0  0  0  0  0
    1.3692    0.0849   -0.2000 C   0  0  0  0  0  0  0  0  0  0  0  0
    2.8262    0.1421   -0.3751 C   0  0  0  0  0  0  0  0  0  0  0  0
    5.0840   -0.3279   -0.7152 C   0  0  0  0  0  0  0  0  0  0  0  0
    3.4668    1.2621   -0.3073 N   0  0  0  0  0  0  0  0  0  0  0  0
    6.1811   -0.7730   -0.9061 O   0  0  0  0  0  0  0  0  0  0  0  0
    4.8532    1.0175   -0.5118 O   0  0  0  0  0  0  0  0  0  0  0  0
   -2.4898   -0.0848    0.2678 H   0  0  0  0  0  0  0  0  0  0  0  0
   -1.3117    2.1023    0.3947 H   0  0  0  0  0  0  0  0  0  0  0  0
   -1.1943   -2.1634   -0.1599 H   0  0  0  0  0  0  0  0  0  0  0  0
    1.1494    2.2072    0.0979 H   0  0  0  0  0  0  0  0  0  0  0  0
    1.2523   -2.0595   -0.4588 H   0  0  0  0  0  0  0  0  0  0  0  0
    3.5176   -1.5397   -1.5831 H   0  0  0  0  0  0  0  0  0  0  0  0
    3.7307   -1.7741    0.1546 H   0  0  0  0  0  0  0  0  0  0  0  0
  1  2  1  0  0  0  0
  1 13  1  0  0  0  0
  2 14  1  0  0  0  0
  3  1  2  0  0  0  0
  4 16  1  0  0  0  0
  4  2  2  0  0  0  0
  5  7  2  0  0  0  0
  5  3  1  0  0  0  0
  6  8  1  0  0  0  0
  6 19  1  0  0  0  0
  7  4  1  0  0  0  0
  8 10  2  0  0  0  0
  8  7  1  0  0  0  0
  9  6  1  0  0  0  0
  9 12  1  0  0  0  0
 11  9  2  0  0  0  0
 12 10  1  0  0  0  0
 15  3  1  0  0  0  0
 17  5  1  0  0  0  0
 18  6  1  0  0  0  0
M  END
>  <HBA>
3

>  <HBD>
0

>  <TPSA>
38.66

>  <cid>
70641

>  <dipole>
5.47

>  <excitation_energy_1>
4.575

>  <excitation_energy_2>
4.694

>  <excitation_energy_3>
4.696

>  <excitation_energy_4>
5.634

>  <homo_energy>
-6.797

>  <homo_lumo_gap>
4.977

>  <logP>
0.773

>  <lumo_energy>
-1.82

>  <melting_point>
61.05

>  <molecular_refractivity>
47.2

>  <oscillator_strength_1>
0.3271

>  <oscillator_strength_2>
0.0029

>  <oscillator_strength_3>
0.0748

>  <oscillator_strength_4>
0.0497

>  <open_babel_can_smiles>
O=C1ON=C(C1)c1ccccc1

>  <mulliken_charges>
19
1   -0.119751
2   -0.133971
3   -0.132766
4   -0.163096
5   -0.190647
6   -0.490472
7   0.126312
8   0.286361
9   0.660854
10   -0.203686
11   -0.442867
12   -0.365929
13   0.141581
14   0.143834
15   0.140902
16   0.171285
17   0.135518
18   0.218375
19   0.218164

>  <lowdin_charges>
19
1   -0.139788
2   -0.149658
3   -0.152093
4   -0.135757
5   -0.157282
6   -0.325368
7   -0.017537
8   0.02845
9   0.198428
10   -0.039297
11   -0.21186
12   -0.125101
13   0.161857
14   0.165253
15   0.163442
16   0.178659
17   0.160855
18   0.198253
19   0.198545

$$$$

