PCCDB-ID:  32981
public computational chemistry database (PCCDB) project, http://pccdb.org

 16 16  0  0  1  0  0  0  0  0999 V2000
    3.8789    0.5589   -1.6895 C   0  0  0  0  0  0  0  0  0  0  0  0
    4.4458   -2.2705    1.3620 C   0  0  0  0  0  0  0  0  0  0  0  0
    6.8930   -3.0450    1.7548 C   0  0  0  0  0  0  0  0  0  0  0  0
    4.0985   -0.0971   -0.3416 C   0  0  0  0  0  0  0  0  0  0  0  0
    5.8335   -2.0221    1.9041 C   0  0  2  0  0  0  0  0  0  0  0  0
    4.1093    0.5005    0.7108 O   0  0  0  0  0  0  0  0  0  0  0  0
    4.3168   -1.8929   -0.4396 S   0  0  0  0  0  0  0  0  0  0  0  0
    6.2796   -2.8791    3.4812 S   0  0  0  0  0  0  0  0  0  0  0  0
    4.0062    1.6384   -1.5828 H   0  0  0  0  0  0  0  0  0  0  0  0
    2.8594    0.3512   -2.0354 H   0  0  0  0  0  0  0  0  0  0  0  0
    4.5726    0.1693   -2.4410 H   0  0  0  0  0  0  0  0  0  0  0  0
    3.7116   -1.6440    1.8726 H   0  0  0  0  0  0  0  0  0  0  0  0
    4.1617   -3.3200    1.4731 H   0  0  0  0  0  0  0  0  0  0  0  0
    7.9156   -2.7137    1.5921 H   0  0  0  0  0  0  0  0  0  0  0  0
    6.6378   -3.9796    1.2595 H   0  0  0  0  0  0  0  0  0  0  0  0
    6.1424   -0.9803    1.8759 H   0  0  0  0  0  0  0  0  0  0  0  0
  1  9  1  0  0  0  0
  1  4  1  0  0  0  0
  2 13  1  0  0  0  0
  2 12  1  0  0  0  0
  2  5  1  0  0  0  0
  3  5  1  0  0  0  0
  3  8  1  0  0  0  0
  4  6  2  0  0  0  0
  5 16  1  6  0  0  0
  5  8  1  0  0  0  0
  7  4  1  0  0  0  0
  7  2  1  0  0  0  0
 10  1  1  0  0  0  0
 11  1  1  0  0  0  0
 14  3  1  0  0  0  0
 15  3  1  0  0  0  0
M  END
>  <HBA>
3

>  <HBD>
0

>  <TPSA>
67.67

>  <cid>
32981

>  <dipole>
3.06

>  <excitation_energy_1>
4.584

>  <excitation_energy_2>
4.772

>  <excitation_energy_3>
4.79

>  <excitation_energy_4>
5.514

>  <homo_energy>
-6.226

>  <homo_lumo_gap>
5.527

>  <logP>
1.381

>  <lumo_energy>
-0.699

>  <melting_point>
36.01

>  <molecular_refractivity>
39.42

>  <oscillator_strength_1>
0.0042

>  <oscillator_strength_2>
0.0006

>  <oscillator_strength_3>
0.0018

>  <oscillator_strength_4>
0.0561

>  <open_babel_can_smiles>
CC(=O)SC[C@@H]1CS1

>  <mulliken_charges>
16
1   -0.522949
2   -0.420841
3   -0.375472
4   0.276646
5   -0.185051
6   -0.411938
7   0.098417
8   -0.021189
9   0.191257
10   0.194912
11   0.184387
12   0.213433
13   0.191946
14   0.192707
15   0.187478
16   0.206256

>  <lowdin_charges>
16
1   -0.464512
2   -0.365584
3   -0.347951
4   0.052049
5   -0.196541
6   -0.236044
7   0.118565
8   0.003919
9   0.178129
10   0.184134
11   0.179222
12   0.187042
13   0.178838
14   0.175588
15   0.17248
16   0.180667

$$$$

