PCCDB-ID:  53142
public computational chemistry database (PCCDB) project, http://pccdb.org

 19 19  0  0  0  0  0  0  0  0999 V2000
   -1.3346   -0.0677    0.0165 C   0  0  0  0  0  0  0  0  0  0  0  0
   -0.7617    1.1988    0.0419 C   0  0  0  0  0  0  0  0  0  0  0  0
    0.8379   -1.0665   -0.1661 C   0  0  0  0  0  0  0  0  0  0  0  0
   -1.1922   -2.5915   -0.1467 C   0  0  0  0  0  0  0  0  0  0  0  0
    2.9183    0.3018   -0.2306 C   0  0  0  0  0  0  0  0  0  0  0  0
   -0.5422   -1.2230   -0.0925 C   0  0  0  0  0  0  0  0  0  0  0  0
    1.4445    0.1994   -0.1484 C   0  0  0  0  0  0  0  0  0  0  0  0
    0.6288    1.3426   -0.0449 C   0  0  0  0  0  0  0  0  0  0  0  0
   -2.3096   -2.7191    0.7267 O   0  0  0  0  0  0  0  0  0  0  0  0
    3.6577   -0.6650   -0.3093 O   0  0  0  0  0  0  0  0  0  0  0  0
    1.2321    2.5658   -0.0248 O   0  0  0  0  0  0  0  0  0  0  0  0
   -2.4128   -0.1750    0.0940 H   0  0  0  0  0  0  0  0  0  0  0  0
   -1.3912    2.0831    0.1270 H   0  0  0  0  0  0  0  0  0  0  0  0
    1.4971   -1.9278   -0.2399 H   0  0  0  0  0  0  0  0  0  0  0  0
   -0.4359   -3.3681    0.0464 H   0  0  0  0  0  0  0  0  0  0  0  0
   -1.5978   -2.7846   -1.1469 H   0  0  0  0  0  0  0  0  0  0  0  0
    3.3296    1.3283   -0.2176 H   0  0  0  0  0  0  0  0  0  0  0  0
   -1.9883   -2.5648    1.6294 H   0  0  0  0  0  0  0  0  0  0  0  0
    0.5524    3.2543    0.0438 H   0  0  0  0  0  0  0  0  0  0  0  0
  1  2  1  0  0  0  0
  1 12  1  0  0  0  0
  2 13  1  0  0  0  0
  3  7  2  0  0  0  0
  3  6  1  0  0  0  0
  4  6  1  0  0  0  0
  4 15  1  0  0  0  0
  4  9  1  0  0  0  0
  5 17  1  0  0  0  0
  5  7  1  0  0  0  0
  6  1  2  0  0  0  0
  7  8  1  0  0  0  0
  8 11  1  0  0  0  0
  8  2  2  0  0  0  0
  9 18  1  0  0  0  0
 10  5  2  0  0  0  0
 11 19  1  0  0  0  0
 14  3  1  0  0  0  0
 16  4  1  0  0  0  0
M  END
>  <HBA>
3

>  <HBD>
2

>  <TPSA>
57.53

>  <cid>
53142

>  <dipole>
3.98

>  <excitation_energy_1>
3.575

>  <excitation_energy_2>
4.096

>  <excitation_energy_3>
5.063

>  <excitation_energy_4>
5.284

>  <homo_energy>
-6.425

>  <homo_lumo_gap>
4.773

>  <logP>
0.697

>  <lumo_energy>
-1.652

>  <melting_point>
101.52

>  <molecular_refractivity>
39.98

>  <oscillator_strength_1>
0.0001

>  <oscillator_strength_2>
0.0751

>  <oscillator_strength_3>
0.1302

>  <oscillator_strength_4>
0.0315

>  <open_babel_can_smiles>
OCc1ccc(c(c1)C=O)O

>  <mulliken_charges>
19
1   -0.167281
2   -0.188323
3   -0.238583
4   -0.099292
5   0.198536
6   0.112301
7   0.060927
8   0.297887
9   -0.608263
10   -0.41553
11   -0.636876
12   0.155688
13   0.127857
14   0.16134
15   0.13813
16   0.165853
17   0.130114
18   0.389623
19   0.415893

>  <lowdin_charges>
19
1   -0.126366
2   -0.211983
3   -0.126594
4   -0.133021
5   0.050261
6   -0.050518
7   -0.086047
8   0.11374
9   -0.460474
10   -0.238745
11   -0.369404
12   0.169496
13   0.158027
14   0.175928
15   0.13842
16   0.157396
17   0.13294
18   0.342441
19   0.364502

$$$$

