PCCDB-ID:  8209
public computational chemistry database (PCCDB) project, http://pccdb.org

 45 44  0  0  0  0  0  0  0  0999 V2000
    8.1108   10.4868    9.4613 C   0  0  0  0  0  0  0  0  0  0  0  0
    8.0373    9.3237   10.4581 C   0  0  0  0  0  0  0  0  0  0  0  0
    8.2325    7.9330    9.8313 C   0  0  0  0  0  0  0  0  0  0  0  0
    7.1227    7.5035    8.8612 C   0  0  0  0  0  0  0  0  0  0  0  0
    7.3204    6.0875    8.3031 C   0  0  0  0  0  0  0  0  0  0  0  0
    6.2108    5.6585    7.3327 C   0  0  0  0  0  0  0  0  0  0  0  0
    6.3195    4.2069    6.8321 C   0  0  0  0  0  0  0  0  0  0  0  0
    7.5741    3.8680    6.0070 C   0  0  0  0  0  0  0  0  0  0  0  0
    7.6807    4.6311    4.6777 C   0  0  0  0  0  0  0  0  0  0  0  0
    8.8421    4.1794    3.7727 C   0  0  0  0  0  0  0  0  0  0  0  0
   10.2603    4.4213    4.3284 C   0  0  0  0  0  0  0  0  0  0  0  0
   10.6934    5.8958    4.4961 C   0  0  0  0  0  0  0  0  0  0  0  0
   11.3777    6.5444    3.2801 C   0  0  0  0  0  0  0  0  0  0  0  0
   10.5069    6.7281    2.0422 C   0  0  0  0  0  0  0  0  0  0  0  0
   11.2650    7.4817    1.0983 O   0  0  0  0  0  0  0  0  0  0  0  0
    8.0170   11.4512    9.9735 H   0  0  0  0  0  0  0  0  0  0  0  0
    7.3129   10.4343    8.7121 H   0  0  0  0  0  0  0  0  0  0  0  0
    9.0684   10.4866    8.9252 H   0  0  0  0  0  0  0  0  0  0  0  0
    7.0701    9.3515   10.9804 H   0  0  0  0  0  0  0  0  0  0  0  0
    8.8035    9.4699   11.2315 H   0  0  0  0  0  0  0  0  0  0  0  0
    8.3019    7.1893   10.6382 H   0  0  0  0  0  0  0  0  0  0  0  0
    9.2010    7.9050    9.3095 H   0  0  0  0  0  0  0  0  0  0  0  0
    7.0626    8.2118    8.0232 H   0  0  0  0  0  0  0  0  0  0  0  0
    6.1517    7.5584    9.3764 H   0  0  0  0  0  0  0  0  0  0  0  0
    7.3692    5.3714    9.1376 H   0  0  0  0  0  0  0  0  0  0  0  0
    8.2972    6.0359    7.8020 H   0  0  0  0  0  0  0  0  0  0  0  0
    6.1904    6.3489    6.4777 H   0  0  0  0  0  0  0  0  0  0  0  0
    5.2394    5.7766    7.8338 H   0  0  0  0  0  0  0  0  0  0  0  0
    5.4296    3.9766    6.2285 H   0  0  0  0  0  0  0  0  0  0  0  0
    6.2780    3.5330    7.6999 H   0  0  0  0  0  0  0  0  0  0  0  0
    7.5649    2.7892    5.7932 H   0  0  0  0  0  0  0  0  0  0  0  0
    8.4715    4.0439    6.6140 H   0  0  0  0  0  0  0  0  0  0  0  0
    7.7603    5.7090    4.8715 H   0  0  0  0  0  0  0  0  0  0  0  0
    6.7410    4.4984    4.1218 H   0  0  0  0  0  0  0  0  0  0  0  0
    8.7366    4.6723    2.7978 H   0  0  0  0  0  0  0  0  0  0  0  0
    8.7301    3.1032    3.5761 H   0  0  0  0  0  0  0  0  0  0  0  0
   10.9849    3.9127    3.6765 H   0  0  0  0  0  0  0  0  0  0  0  0
   10.3403    3.9178    5.3002 H   0  0  0  0  0  0  0  0  0  0  0  0
   11.4051    5.9537    5.3296 H   0  0  0  0  0  0  0  0  0  0  0  0
    9.8345    6.5092    4.8028 H   0  0  0  0  0  0  0  0  0  0  0  0
   12.2631    5.9596    2.9965 H   0  0  0  0  0  0  0  0  0  0  0  0
   11.7442    7.5392    3.5651 H   0  0  0  0  0  0  0  0  0  0  0  0
    9.5755    7.2541    2.3138 H   0  0  0  0  0  0  0  0  0  0  0  0
   10.2220    5.7523    1.6192 H   0  0  0  0  0  0  0  0  0  0  0  0
   10.7332    7.5708    0.2933 H   0  0  0  0  0  0  0  0  0  0  0  0
  1 16  1  0  0  0  0
  1  2  1  0  0  0  0
  2 19  1  0  0  0  0
  2 20  1  0  0  0  0
  3  2  1  0  0  0  0
  3 21  1  0  0  0  0
  4 24  1  0  0  0  0
  4  3  1  0  0  0  0
  5  4  1  0  0  0  0
  5 25  1  0  0  0  0
  6 28  1  0  0  0  0
  6  5  1  0  0  0  0
  7  6  1  0  0  0  0
  7 30  1  0  0  0  0
  8 32  1  0  0  0  0
  8  7  1  0  0  0  0
  9 33  1  0  0  0  0
  9  8  1  0  0  0  0
 10 11  1  0  0  0  0
 10  9  1  0  0  0  0
 11 12  1  0  0  0  0
 11 38  1  0  0  0  0
 12 40  1  0  0  0  0
 12 39  1  0  0  0  0
 13 42  1  0  0  0  0
 13 12  1  0  0  0  0
 14 43  1  0  0  0  0
 14 13  1  0  0  0  0
 15 14  1  0  0  0  0
 17  1  1  0  0  0  0
 18  1  1  0  0  0  0
 22  3  1  0  0  0  0
 23  4  1  0  0  0  0
 26  5  1  0  0  0  0
 27  6  1  0  0  0  0
 29  7  1  0  0  0  0
 31  8  1  0  0  0  0
 34  9  1  0  0  0  0
 35 10  1  0  0  0  0
 36 10  1  0  0  0  0
 37 11  1  0  0  0  0
 41 13  1  0  0  0  0
 44 14  1  0  0  0  0
 45 15  1  0  0  0  0
M  END
>  <HBA>
1

>  <HBD>
1

>  <TPSA>
20.23

>  <cid>
8209

>  <dipole>
1.5

>  <excitation_energy_1>
6.296

>  <excitation_energy_2>
6.995

>  <excitation_energy_3>
7.231

>  <excitation_energy_4>
7.303

>  <homo_energy>
-7.097

>  <homo_lumo_gap>
9.034

>  <logP>
4.68

>  <lumo_energy>
1.937

>  <melting_point>
-13.26

>  <molecular_refractivity>
70.57

>  <oscillator_strength_1>
0.0006

>  <oscillator_strength_2>
0.0028

>  <oscillator_strength_3>
0.0127

>  <oscillator_strength_4>
0.0102

>  <open_babel_can_smiles>
CCCCCCCCCCCCCCO

>  <mulliken_charges>
45
1   -0.443244
2   -0.247889
3   -0.249345
4   -0.253029
5   -0.254685
6   -0.256633
7   -0.258075
8   -0.257912
9   -0.257644
10   -0.264869
11   -0.262639
12   -0.271017
13   -0.261056
14   -0.028447
15   -0.622272
16   0.141449
17   0.145765
18   0.140444
19   0.128796
20   0.129829
21   0.126308
22   0.125325
23   0.130807
24   0.125409
25   0.125547
26   0.131903
27   0.130504
28   0.126864
29   0.125392
30   0.125912
31   0.125917
32   0.137351
33   0.13551
34   0.126301
35   0.129739
36   0.127386
37   0.130415
38   0.135566
39   0.134704
40   0.133921
41   0.141282
42   0.145339
43   0.11352
44   0.122444
45   0.389106

>  <lowdin_charges>
45
1   -0.447496
2   -0.273261
3   -0.276037
4   -0.276311
5   -0.276696
6   -0.278452
7   -0.276401
8   -0.279258
9   -0.278864
10   -0.277418
11   -0.283499
12   -0.281855
13   -0.280757
14   -0.138097
15   -0.474674
16   0.149139
17   0.147437
18   0.14554
19   0.137917
20   0.141891
21   0.140054
22   0.136284
23   0.139256
24   0.136205
25   0.1372
26   0.138102
27   0.138393
28   0.140103
29   0.139498
30   0.139943
31   0.138032
32   0.140284
33   0.136493
34   0.140071
35   0.138768
36   0.13843
37   0.143348
38   0.14281
39   0.147418
40   0.140459
41   0.145971
42   0.150206
43   0.121686
44   0.1251
45   0.343035

$$$$

