PCCDB-ID:  27134
public computational chemistry database (PCCDB) project, http://pccdb.org

 22 21  0  0  0  0  0  0  0  0999 V2000
    3.2731   -2.3566   -1.0687 C   0  0  0  0  0  0  0  0  0  0  0  0
   10.4710    1.4235    0.2073 C   0  0  0  0  0  0  0  0  0  0  0  0
    3.7376   -1.2440   -0.4963 C   0  0  0  0  0  0  0  0  0  0  0  0
    9.3884    1.6646   -0.8442 C   0  0  0  0  0  0  0  0  0  0  0  0
    5.2258    2.0416   -1.2058 C   0  0  0  0  0  0  0  0  0  0  0  0
    6.6951    1.8578   -1.5652 C   0  0  0  0  0  0  0  0  0  0  0  0
    4.2723   -0.1337   -1.3234 C   0  0  0  0  0  0  0  0  0  0  0  0
    4.3432   -0.1225   -2.5368 O   0  0  0  0  0  0  0  0  0  0  0  0
    4.6738    0.8936   -0.5332 O   0  0  0  0  0  0  0  0  0  0  0  0
    7.7234    1.5566   -0.0717 S   0  0  0  0  0  0  0  0  0  0  0  0
    2.8783   -3.1793   -0.4804 H   0  0  0  0  0  0  0  0  0  0  0  0
    3.2814   -2.4633   -2.1497 H   0  0  0  0  0  0  0  0  0  0  0  0
   11.4636    1.4998   -0.2506 H   0  0  0  0  0  0  0  0  0  0  0  0
   10.3773    0.4269    0.6510 H   0  0  0  0  0  0  0  0  0  0  0  0
   10.4121    2.1624    1.0135 H   0  0  0  0  0  0  0  0  0  0  0  0
    3.7468   -1.1012    0.5799 H   0  0  0  0  0  0  0  0  0  0  0  0
    9.4565    0.9172   -1.6428 H   0  0  0  0  0  0  0  0  0  0  0  0
    9.5072    2.6557   -1.2977 H   0  0  0  0  0  0  0  0  0  0  0  0
    4.6513    2.2325   -2.1168 H   0  0  0  0  0  0  0  0  0  0  0  0
    5.0920    2.8659   -0.5020 H   0  0  0  0  0  0  0  0  0  0  0  0
    7.0400    2.7759   -2.0570 H   0  0  0  0  0  0  0  0  0  0  0  0
    6.8024    1.0293   -2.2714 H   0  0  0  0  0  0  0  0  0  0  0  0
  1  3  2  0  0  0  0
  1 11  1  0  0  0  0
  2 14  1  0  0  0  0
  2 15  1  0  0  0  0
  3 16  1  0  0  0  0
  4 10  1  0  0  0  0
  4  2  1  0  0  0  0
  5  9  1  0  0  0  0
  5 20  1  0  0  0  0
  6  5  1  0  0  0  0
  6 10  1  0  0  0  0
  7  9  1  0  0  0  0
  7  3  1  0  0  0  0
  8  7  2  0  0  0  0
 12  1  1  0  0  0  0
 13  2  1  0  0  0  0
 17  4  1  0  0  0  0
 18  4  1  0  0  0  0
 19  5  1  0  0  0  0
 21  6  1  0  0  0  0
 22  6  1  0  0  0  0
M  END
>  <HBA>
3

>  <HBD>
0

>  <TPSA>
51.6

>  <cid>
27134

>  <dipole>
0.7

>  <excitation_energy_1>
3.852

>  <excitation_energy_2>
4.774

>  <excitation_energy_3>
5.091

>  <excitation_energy_4>
5.331

>  <homo_energy>
-5.919

>  <homo_lumo_gap>
4.686

>  <logP>
1.469

>  <lumo_energy>
-1.233

>  <melting_point>
-26.41

>  <molecular_refractivity>
44.16

>  <oscillator_strength_1>
0.0001

>  <oscillator_strength_2>
0.0001

>  <oscillator_strength_3>
0.0003

>  <oscillator_strength_4>
0.0045

>  <open_babel_can_smiles>
CCSCCOC(=O)C=C

>  <mulliken_charges>
22
1   -0.302533
2   -0.454743
3   -0.130814
4   -0.394268
5   -0.058686
6   -0.425785
7   0.613264
8   -0.495047
9   -0.463894
10   0.089468
11   0.15846
12   0.180122
13   0.153311
14   0.165657
15   0.164389
16   0.159031
17   0.168357
18   0.164084
19   0.176892
20   0.170181
21   0.167228
22   0.195328

>  <lowdin_charges>
22
1   -0.263295
2   -0.444194
3   -0.181336
4   -0.367509
5   -0.133226
6   -0.386569
7   0.195709
8   -0.273769
9   -0.184328
10   0.080295
11   0.170447
12   0.177451
13   0.156016
14   0.159019
15   0.159313
16   0.171117
17   0.154893
18   0.151236
19   0.164714
20   0.162716
21   0.161665
22   0.169636

$$$$

