PCCDB-ID:  17088
public computational chemistry database (PCCDB) project, http://pccdb.org

 20 21  0  0  0  0  0  0  0  0999 V2000
    0.9906    0.0052    0.0232 C   0  0  0  0  0  0  0  0  0  0  0  0
    6.6501   -2.3952   -0.1875 C   0  0  0  0  0  0  0  0  0  0  0  0
    7.3094   -1.1521   -0.1963 C   0  0  0  0  0  0  0  0  0  0  0  0
    5.2657   -2.4439   -0.1421 C   0  0  0  0  0  0  0  0  0  0  0  0
    6.5888    0.0315   -0.1611 C   0  0  0  0  0  0  0  0  0  0  0  0
    3.1972    1.1258   -0.0389 C   0  0  0  0  0  0  0  0  0  0  0  0
    4.5239   -1.2519   -0.1054 C   0  0  0  0  0  0  0  0  0  0  0  0
    5.1814    0.0009   -0.1145 C   0  0  0  0  0  0  0  0  0  0  0  0
    3.0595   -1.3019   -0.0566 C   0  0  0  0  0  0  0  0  0  0  0  0
    4.4842    1.2021   -0.0793 N   0  0  0  0  0  0  0  0  0  0  0  0
    2.4518   -0.0307   -0.0274 N   0  0  0  0  0  0  0  0  0  0  0  0
    2.3715   -2.3157   -0.0407 O   0  0  0  0  0  0  0  0  0  0  0  0
    0.6607    1.0456    0.0126 H   0  0  0  0  0  0  0  0  0  0  0  0
    0.6342   -0.4884    0.9311 H   0  0  0  0  0  0  0  0  0  0  0  0
    0.5751   -0.5260   -0.8365 H   0  0  0  0  0  0  0  0  0  0  0  0
    7.2273   -3.3149   -0.2160 H   0  0  0  0  0  0  0  0  0  0  0  0
    8.3951   -1.1198   -0.2317 H   0  0  0  0  0  0  0  0  0  0  0  0
    4.7274   -3.3862   -0.1339 H   0  0  0  0  0  0  0  0  0  0  0  0
    7.0798    0.9994   -0.1681 H   0  0  0  0  0  0  0  0  0  0  0  0
    2.6130    2.0441   -0.0107 H   0  0  0  0  0  0  0  0  0  0  0  0
  1 14  1  0  0  0  0
  2  4  1  0  0  0  0
  3  2  2  0  0  0  0
  3  5  1  0  0  0  0
  4 18  1  0  0  0  0
  4  7  2  0  0  0  0
  5  8  2  0  0  0  0
  6 11  1  0  0  0  0
  6 20  1  0  0  0  0
  7  9  1  0  0  0  0
  8  7  1  0  0  0  0
  8 10  1  0  0  0  0
  9 12  2  0  0  0  0
  9 11  1  0  0  0  0
 10  6  2  0  0  0  0
 11  1  1  0  0  0  0
 13  1  1  0  0  0  0
 15  1  1  0  0  0  0
 16  2  1  0  0  0  0
 17  3  1  0  0  0  0
 19  5  1  0  0  0  0
M  END
>  <HBA>
3

>  <HBD>
0

>  <TPSA>
34.89

>  <cid>
17088

>  <dipole>
1.46

>  <excitation_energy_1>
4.46

>  <excitation_energy_2>
4.68

>  <excitation_energy_3>
4.785

>  <excitation_energy_4>
5.182

>  <homo_energy>
-6.231

>  <homo_lumo_gap>
5.138

>  <logP>
0.933

>  <lumo_energy>
-1.094

>  <melting_point>
101.77

>  <molecular_refractivity>
47.27

>  <oscillator_strength_1>
0.0527

>  <oscillator_strength_2>
0.1328

>  <oscillator_strength_3>
0.0002

>  <oscillator_strength_4>
0.0008

>  <open_babel_can_smiles>
Cn1cnc2c(c1=O)cccc2

>  <mulliken_charges>
20
1   -0.315107
2   -0.136537
3   -0.127644
4   -0.174609
5   -0.154454
6   0.223294
7   0.058869
8   0.23348
9   0.574198
10   -0.500482
11   -0.453654
12   -0.522548
13   0.162344
14   0.19149
15   0.193145
16   0.138331
17   0.138826
18   0.164576
19   0.146425
20   0.160055

>  <lowdin_charges>
20
1   -0.342484
2   -0.158715
3   -0.136024
4   -0.129081
5   -0.157193
6   -0.032794
7   -0.062876
8   0.046772
9   0.160456
10   -0.180928
11   -0.054576
12   -0.299187
13   0.160123
14   0.173436
15   0.175205
16   0.162833
17   0.160643
18   0.177865
19   0.170557
20   0.165967

$$$$

