PCCDB-ID:  41406
public computational chemistry database (PCCDB) project, http://pccdb.org

 25 24  0  0  0  0  0  0  0  0999 V2000
    1.0145   -0.0444   -1.1261 C   0  0  0  0  0  0  0  0  0  0  0  0
    2.9989   -1.5750   -1.2211 C   0  0  0  0  0  0  0  0  0  0  0  0
    3.1970    0.8058   -2.0182 C   0  0  0  0  0  0  0  0  0  0  0  0
    4.3898    0.3170    0.8541 C   0  0  0  0  0  0  0  0  0  0  0  0
    4.6158    0.7967    2.2892 C   0  0  0  0  0  0  0  0  0  0  0  0
    2.9041    0.3304    0.4678 C   0  0  0  0  0  0  0  0  0  0  0  0
    6.0629    0.7991    2.7259 C   0  0  0  0  0  0  0  0  0  0  0  0
    2.5468   -0.1223   -0.9733 C   0  0  0  0  0  0  0  0  0  0  0  0
    6.9970    0.4611    2.0322 O   0  0  0  0  0  0  0  0  0  0  0  0
    0.7026   -0.3517   -2.1317 H   0  0  0  0  0  0  0  0  0  0  0  0
    0.6512    0.9778   -0.9614 H   0  0  0  0  0  0  0  0  0  0  0  0
    0.5099   -0.6992   -0.4046 H   0  0  0  0  0  0  0  0  0  0  0  0
    2.6823   -1.9146   -2.2149 H   0  0  0  0  0  0  0  0  0  0  0  0
    2.5616   -2.2583   -0.4820 H   0  0  0  0  0  0  0  0  0  0  0  0
    4.0884   -1.6782   -1.1711 H   0  0  0  0  0  0  0  0  0  0  0  0
    2.8810    0.5283   -3.0312 H   0  0  0  0  0  0  0  0  0  0  0  0
    4.2909    0.7523   -1.9904 H   0  0  0  0  0  0  0  0  0  0  0  0
    2.9064    1.8513   -1.8542 H   0  0  0  0  0  0  0  0  0  0  0  0
    4.8076   -0.6911    0.7534 H   0  0  0  0  0  0  0  0  0  0  0  0
    4.9731    0.9529    0.1786 H   0  0  0  0  0  0  0  0  0  0  0  0
    4.0581    0.1807    3.0136 H   0  0  0  0  0  0  0  0  0  0  0  0
    4.2289    1.8180    2.4391 H   0  0  0  0  0  0  0  0  0  0  0  0
    2.5107    1.3481    0.6130 H   0  0  0  0  0  0  0  0  0  0  0  0
    2.3506   -0.3082    1.1732 H   0  0  0  0  0  0  0  0  0  0  0  0
    6.2333    1.1454    3.7718 H   0  0  0  0  0  0  0  0  0  0  0  0
  1  8  1  0  0  0  0
  1 11  1  0  0  0  0
  1 12  1  0  0  0  0
  2 15  1  0  0  0  0
  2  8  1  0  0  0  0
  2 14  1  0  0  0  0
  3 17  1  0  0  0  0
  3 18  1  0  0  0  0
  3  8  1  0  0  0  0
  4  5  1  0  0  0  0
  5 22  1  0  0  0  0
  5  7  1  0  0  0  0
  5 21  1  0  0  0  0
  6 23  1  0  0  0  0
  6  4  1  0  0  0  0
  6 24  1  0  0  0  0
  7 25  1  0  0  0  0
  8  6  1  0  0  0  0
  9  7  2  0  0  0  0
 10  1  1  0  0  0  0
 13  2  1  0  0  0  0
 16  3  1  0  0  0  0
 19  4  1  0  0  0  0
 20  4  1  0  0  0  0
M  END
>  <HBA>
1

>  <HBD>
0

>  <TPSA>
17.07

>  <cid>
41406

>  <dipole>
2.46

>  <excitation_energy_1>
4.33

>  <excitation_energy_2>
6.461

>  <excitation_energy_3>
6.769

>  <excitation_energy_4>
6.981

>  <homo_energy>
-6.846

>  <homo_lumo_gap>
6.346

>  <logP>
2.402

>  <lumo_energy>
-0.501

>  <melting_point>
22.52

>  <molecular_refractivity>
40.51

>  <oscillator_strength_1>
0.0002

>  <oscillator_strength_2>
0.0166

>  <oscillator_strength_3>
0.0568

>  <oscillator_strength_4>
0.0002

>  <open_babel_can_smiles>
O=CCCCC(C)(C)C

>  <mulliken_charges>
25
1   -0.440798
2   -0.447573
3   -0.447303
4   -0.259557
5   -0.351498
6   -0.251807
7   0.253606
8   0.101747
9   -0.383465
10   0.138256
11   0.136438
12   0.136491
13   0.138745
14   0.135637
15   0.147232
16   0.138883
17   0.146758
18   0.135616
19   0.153431
20   0.153111
21   0.160172
22   0.16032
23   0.121289
24   0.121452
25   0.102816

>  <lowdin_charges>
25
1   -0.441811
2   -0.443792
3   -0.440492
4   -0.276606
5   -0.313118
6   -0.2757
7   0.059351
8   0.01544
9   -0.221213
10   0.146382
11   0.144845
12   0.14691
13   0.147613
14   0.146765
15   0.147829
16   0.147285
17   0.147441
18   0.144336
19   0.151831
20   0.153784
21   0.163897
22   0.16189
23   0.136109
24   0.138427
25   0.112597

$$$$

