PCCDB-ID:  13622
public computational chemistry database (PCCDB) project, http://pccdb.org

 18 18  0  0  0  0  0  0  0  0999 V2000
    1.6527    0.9608   -0.3590 C   0  0  0  0  0  0  0  0  0  0  0  0
    3.3342   -3.2327   -1.5016 C   0  0  0  0  0  0  0  0  0  0  0  0
    4.0190   -2.8334   -2.6527 C   0  0  0  0  0  0  0  0  0  0  0  0
    2.8434   -2.2802   -0.6122 C   0  0  0  0  0  0  0  0  0  0  0  0
    4.2148   -1.4760   -2.8878 C   0  0  0  0  0  0  0  0  0  0  0  0
    3.0390   -0.9145   -0.8491 C   0  0  0  0  0  0  0  0  0  0  0  0
    3.7428   -0.5053   -1.9911 C   0  0  0  0  0  0  0  0  0  0  0  0
    4.8826   -0.9610   -3.9810 O   0  0  0  0  0  0  0  0  0  0  0  0
    3.9777    0.8215   -2.2266 O   0  0  0  0  0  0  0  0  0  0  0  0
    2.5923   -0.0197    0.0902 O   0  0  0  0  0  0  0  0  0  0  0  0
    1.3573    1.5195    0.5321 H   0  0  0  0  0  0  0  0  0  0  0  0
    0.7666    0.4793   -0.7941 H   0  0  0  0  0  0  0  0  0  0  0  0
    2.0966    1.6409   -1.0912 H   0  0  0  0  0  0  0  0  0  0  0  0
    3.1784   -4.2896   -1.3075 H   0  0  0  0  0  0  0  0  0  0  0  0
    4.3983   -3.5678   -3.3602 H   0  0  0  0  0  0  0  0  0  0  0  0
    2.3044   -2.5664    0.2850 H   0  0  0  0  0  0  0  0  0  0  0  0
    5.2405   -1.6871   -4.5127 H   0  0  0  0  0  0  0  0  0  0  0  0
    4.4880    0.8753   -3.0531 H   0  0  0  0  0  0  0  0  0  0  0  0
  1 10  1  0  0  0  0
  1 11  1  0  0  0  0
  2 14  1  0  0  0  0
  2  4  2  0  0  0  0
  3  2  1  0  0  0  0
  4 16  1  0  0  0  0
  5  3  2  0  0  0  0
  5  7  1  0  0  0  0
  6  4  1  0  0  0  0
  6 10  1  0  0  0  0
  7  6  2  0  0  0  0
  8  5  1  0  0  0  0
  9  7  1  0  0  0  0
 12  1  1  0  0  0  0
 13  1  1  0  0  0  0
 15  3  1  0  0  0  0
 17  8  1  0  0  0  0
 18  9  1  0  0  0  0
M  END
>  <HBA>
3

>  <HBD>
2

>  <TPSA>
49.69

>  <cid>
13622

>  <dipole>
2.83

>  <excitation_energy_1>
4.742

>  <excitation_energy_2>
4.996

>  <excitation_energy_3>
5.115

>  <excitation_energy_4>
5.504

>  <homo_energy>
-5.636

>  <homo_lumo_gap>
5.978

>  <logP>
1.106

>  <lumo_energy>
0.343

>  <melting_point>
90.37

>  <molecular_refractivity>
36.98

>  <oscillator_strength_1>
0.0008

>  <oscillator_strength_2>
0.0137

>  <oscillator_strength_3>
0.0007

>  <oscillator_strength_4>
0.0035

>  <open_babel_can_smiles>
COc1cccc(c1O)O

>  <mulliken_charges>
18
1   -0.216033
2   -0.147419
3   -0.194132
4   -0.179916
5   0.304694
6   0.320549
7   0.274785
8   -0.683236
9   -0.656413
10   -0.520184
11   0.157119
12   0.138144
13   0.174607
14   0.128837
15   0.117377
16   0.133901
17   0.417818
18   0.4295

>  <lowdin_charges>
18
1   -0.279309
2   -0.160961
3   -0.218016
4   -0.18779
5   0.061849
6   0.073128
7   0.050702
8   -0.404949
9   -0.379515
10   -0.219855
11   0.156206
12   0.13916
13   0.156629
14   0.157903
15   0.155498
16   0.166815
17   0.366694
18   0.365809

$$$$

