PCCDB-ID:  73269
public computational chemistry database (PCCDB) project, http://pccdb.org

 21 21  0  0  0  0  0  0  0  0999 V2000
    1.0116   -2.5000   -1.0243 C   0  0  0  0  0  0  0  0  0  0  0  0
    2.5416   -2.5648   -1.0115 C   0  0  0  0  0  0  0  0  0  0  0  0
    3.1909   -1.1727   -0.8723 C   0  0  0  0  0  0  0  0  0  0  0  0
    5.4914   -0.8529   -1.9344 C   0  0  0  0  0  0  0  0  0  0  0  0
    4.6981   -1.2052   -0.8499 C   0  0  0  0  0  0  0  0  0  0  0  0
    5.4395   -1.6142    0.2778 C   0  0  0  0  0  0  0  0  0  0  0  0
    7.3930   -1.3046   -0.8023 C   0  0  0  0  0  0  0  0  0  0  0  0
    6.8345   -0.8933   -1.9402 N   0  0  0  0  0  0  0  0  0  0  0  0
    6.7661   -1.6680    0.3186 N   0  0  0  0  0  0  0  0  0  0  0  0
    4.7787   -1.9708    1.3974 O   0  0  0  0  0  0  0  0  0  0  0  0
    8.7362   -1.3650   -0.7581 O   0  0  0  0  0  0  0  0  0  0  0  0
    0.5733   -3.4991   -1.1261 H   0  0  0  0  0  0  0  0  0  0  0  0
    0.6449   -1.8889   -1.8585 H   0  0  0  0  0  0  0  0  0  0  0  0
    0.6262   -2.0599   -0.0965 H   0  0  0  0  0  0  0  0  0  0  0  0
    2.9031   -3.0374   -1.9345 H   0  0  0  0  0  0  0  0  0  0  0  0
    2.8793   -3.1994   -0.1832 H   0  0  0  0  0  0  0  0  0  0  0  0
    2.8209   -0.7004    0.0470 H   0  0  0  0  0  0  0  0  0  0  0  0
    2.8629   -0.5370   -1.7056 H   0  0  0  0  0  0  0  0  0  0  0  0
    5.0239   -0.5122   -2.8578 H   0  0  0  0  0  0  0  0  0  0  0  0
    5.4634   -2.2073    2.0506 H   0  0  0  0  0  0  0  0  0  0  0  0
    9.0408   -1.0727   -1.6355 H   0  0  0  0  0  0  0  0  0  0  0  0
  1  2  1  0  0  0  0
  1 14  1  0  0  0  0
  2  3  1  0  0  0  0
  2 16  1  0  0  0  0
  3  5  1  0  0  0  0
  3 17  1  0  0  0  0
  4  5  2  0  0  0  0
  5  6  1  0  0  0  0
  6  9  2  0  0  0  0
  6 10  1  0  0  0  0
  7 11  1  0  0  0  0
  7  9  2  0  0  0  0
  8  4  1  0  0  0  0
  8  7  2  0  0  0  0
 10 20  1  0  0  0  0
 12  1  1  0  0  0  0
 13  1  1  0  0  0  0
 15  2  1  0  0  0  0
 18  3  1  0  0  0  0
 19  4  1  0  0  0  0
 21 11  1  0  0  0  0
M  END
>  <HBA>
2

>  <HBD>
2

>  <TPSA>
65.72

>  <cid>
73269

>  <dipole>
1.37

>  <excitation_energy_1>
5.08

>  <excitation_energy_2>
5.103

>  <excitation_energy_3>
5.789

>  <excitation_energy_4>
5.953

>  <homo_energy>
-6.493

>  <homo_lumo_gap>
5.807

>  <logP>
0.016

>  <lumo_energy>
-0.686

>  <melting_point>
171.26

>  <molecular_refractivity>
42.26

>  <oscillator_strength_1>
0.0083

>  <oscillator_strength_2>
0.087

>  <oscillator_strength_3>
0.0007

>  <oscillator_strength_4>
0.0457

>  <open_babel_can_smiles>
CCCC1=CN=[C](=[N]=C1O)O

>  <mulliken_charges>
21
1   -0.442587
2   -0.249457
3   -0.336974
4   -0.002541
5   0.111108
6   0.491717
7   0.63347
8   -0.485412
9   -0.524662
10   -0.610068
11   -0.58671
12   0.146479
13   0.141575
14   0.145816
15   0.134734
16   0.153067
17   0.156894
18   0.139312
19   0.147354
20   0.418588
21   0.418297

>  <lowdin_charges>
21
1   -0.445522
2   -0.273201
3   -0.268651
4   -0.06526
5   -0.08086
6   0.153054
7   0.160962
8   -0.22321
9   -0.209408
10   -0.348246
11   -0.340844
12   0.151756
13   0.147043
14   0.14891
15   0.141793
16   0.150656
17   0.157666
18   0.149344
19   0.161155
20   0.367532
21   0.365329

$$$$

