PCCDB-ID:  8375
public computational chemistry database (PCCDB) project, http://pccdb.org

 18 18  0  0  0  0  0  0  0  0999 V2000
    1.7544    0.5308    1.2915 C   0  0  0  0  0  0  0  0  0  0  0  0
    4.5692    0.8774   -2.9145 C   0  0  0  0  0  0  0  0  0  0  0  0
    4.3374    2.2500   -3.0422 C   0  0  0  0  0  0  0  0  0  0  0  0
    3.9955    0.1904   -1.8533 C   0  0  0  0  0  0  0  0  0  0  0  0
    3.5416    2.9110   -2.1130 C   0  0  0  0  0  0  0  0  0  0  0  0
    2.6291   -0.0472    0.1967 C   0  0  0  0  0  0  0  0  0  0  0  0
    3.1849    0.8270   -0.8961 C   0  0  0  0  0  0  0  0  0  0  0  0
    2.9647    2.2133   -1.0430 C   0  0  0  0  0  0  0  0  0  0  0  0
    2.8899   -1.2427    0.1963 O   0  0  0  0  0  0  0  0  0  0  0  0
    2.1825    2.8718   -0.1353 O   0  0  0  0  0  0  0  0  0  0  0  0
    0.8483    0.9811    0.8728 H   0  0  0  0  0  0  0  0  0  0  0  0
    2.2727    1.3291    1.8323 H   0  0  0  0  0  0  0  0  0  0  0  0
    1.4897   -0.2780    1.9754 H   0  0  0  0  0  0  0  0  0  0  0  0
    5.1896    0.3543   -3.6358 H   0  0  0  0  0  0  0  0  0  0  0  0
    4.7743    2.8090   -3.8654 H   0  0  0  0  0  0  0  0  0  0  0  0
    4.1534   -0.8751   -1.7237 H   0  0  0  0  0  0  0  0  0  0  0  0
    3.3578    3.9800   -2.2109 H   0  0  0  0  0  0  0  0  0  0  0  0
    2.1371    3.8077   -0.3872 H   0  0  0  0  0  0  0  0  0  0  0  0
  1 12  1  0  0  0  0
  1 13  1  0  0  0  0
  2  4  1  0  0  0  0
  3  2  2  0  0  0  0
  3  5  1  0  0  0  0
  4 16  1  0  0  0  0
  4  7  2  0  0  0  0
  5  8  2  0  0  0  0
  6  1  1  0  0  0  0
  7  6  1  0  0  0  0
  8  7  1  0  0  0  0
  8 10  1  0  0  0  0
  9  6  2  0  0  0  0
 11  1  1  0  0  0  0
 14  2  1  0  0  0  0
 15  3  1  0  0  0  0
 17  5  1  0  0  0  0
 18 10  1  0  0  0  0
M  END
>  <HBA>
2

>  <HBD>
1

>  <TPSA>
37.3

>  <cid>
8375

>  <dipole>
4.49

>  <excitation_energy_1>
3.785

>  <excitation_energy_2>
4.39

>  <excitation_energy_3>
5.214

>  <excitation_energy_4>
5.388

>  <homo_energy>
-6.387

>  <homo_lumo_gap>
5.083

>  <logP>
1.595

>  <lumo_energy>
-1.303

>  <melting_point>
79.19

>  <molecular_refractivity>
38.66

>  <oscillator_strength_1>
0.0001

>  <oscillator_strength_2>
0.0767

>  <oscillator_strength_3>
0.1759

>  <oscillator_strength_4>
0.0

>  <open_babel_can_smiles>
CC(=O)c1ccccc1O

>  <mulliken_charges>
18
1   -0.515426
2   -0.131408
3   -0.126042
4   -0.173922
5   -0.190806
6   0.408928
7   0.051598
8   0.284624
9   -0.458458
10   -0.642777
11   0.173605
12   0.173256
13   0.167371
14   0.135645
15   0.138952
16   0.169772
17   0.1217
18   0.413389

>  <lowdin_charges>
18
1   -0.472527
2   -0.178248
3   -0.130275
4   -0.114203
5   -0.21384
6   0.166178
7   -0.083299
8   0.110504
9   -0.251813
10   -0.36508
11   0.173639
12   0.173778
13   0.167778
14   0.163174
15   0.163549
16   0.178718
17   0.152824
18   0.359142

$$$$

