PCCDB-ID:  22765
public computational chemistry database (PCCDB) project, http://pccdb.org

 36 37  0  0  0  0  0  0  0  0999 V2000
   -0.1933   -3.4047   -0.7168 C   0  0  0  0  0  0  0  0  0  0  0  0
    9.8095   -2.5886   -0.9455 C   0  0  0  0  0  0  0  0  0  0  0  0
    4.2533    0.3625   -1.4323 C   0  0  0  0  0  0  0  0  0  0  0  0
    5.3645   -6.2643    0.1523 C   0  0  0  0  0  0  0  0  0  0  0  0
    0.7256   -1.0812   -1.1801 C   0  0  0  0  0  0  0  0  0  0  0  0
    8.8909   -4.8713   -0.3134 C   0  0  0  0  0  0  0  0  0  0  0  0
    1.7877   -0.1927   -1.3478 C   0  0  0  0  0  0  0  0  0  0  0  0
    7.8296   -5.7366   -0.0491 C   0  0  0  0  0  0  0  0  0  0  0  0
    2.2754   -2.8670   -0.7962 C   0  0  0  0  0  0  0  0  0  0  0  0
    7.3405   -3.1022   -0.7660 C   0  0  0  0  0  0  0  0  0  0  0  0
    0.9532   -2.4361   -0.9004 C   0  0  0  0  0  0  0  0  0  0  0  0
    8.6624   -3.5358   -0.6754 C   0  0  0  0  0  0  0  0  0  0  0  0
    3.1163   -0.6132   -1.2457 C   0  0  0  0  0  0  0  0  0  0  0  0
    6.5007   -5.3125   -0.1351 C   0  0  0  0  0  0  0  0  0  0  0  0
    3.3487   -1.9784   -0.9634 C   0  0  0  0  0  0  0  0  0  0  0  0
    6.2676   -3.9676   -0.5007 C   0  0  0  0  0  0  0  0  0  0  0  0
    4.7095   -2.3658   -0.8719 N   0  0  0  0  0  0  0  0  0  0  0  0
    4.9069   -3.5781   -0.5828 N   0  0  0  0  0  0  0  0  0  0  0  0
   -1.1600   -2.9101   -0.8549 H   0  0  0  0  0  0  0  0  0  0  0  0
   -0.1862   -3.8475    0.2869 H   0  0  0  0  0  0  0  0  0  0  0  0
   -0.1361   -4.2329   -1.4336 H   0  0  0  0  0  0  0  0  0  0  0  0
   10.7537   -3.1289   -1.0692 H   0  0  0  0  0  0  0  0  0  0  0  0
    9.9429   -1.8772   -0.1200 H   0  0  0  0  0  0  0  0  0  0  0  0
    9.6370   -1.9993   -1.8533 H   0  0  0  0  0  0  0  0  0  0  0  0
    3.8676    1.3684   -1.6267 H   0  0  0  0  0  0  0  0  0  0  0  0
    4.8964    0.0747   -2.2711 H   0  0  0  0  0  0  0  0  0  0  0  0
    4.8961    0.4067   -0.5468 H   0  0  0  0  0  0  0  0  0  0  0  0
    5.7505   -7.2561    0.4090 H   0  0  0  0  0  0  0  0  0  0  0  0
    4.6990   -6.3683   -0.7113 H   0  0  0  0  0  0  0  0  0  0  0  0
    4.7445   -5.9126    0.9840 H   0  0  0  0  0  0  0  0  0  0  0  0
   -0.2956   -0.7169   -1.2675 H   0  0  0  0  0  0  0  0  0  0  0  0
    9.9119   -5.2393   -0.2407 H   0  0  0  0  0  0  0  0  0  0  0  0
    1.5800    0.8527   -1.5639 H   0  0  0  0  0  0  0  0  0  0  0  0
    8.0377   -6.7674    0.2278 H   0  0  0  0  0  0  0  0  0  0  0  0
    2.5048   -3.9061   -0.5827 H   0  0  0  0  0  0  0  0  0  0  0  0
    7.1106   -2.0795   -1.0474 H   0  0  0  0  0  0  0  0  0  0  0  0
  1 20  1  0  0  0  0
  2 12  1  0  0  0  0
  2 23  1  0  0  0  0
  3 13  1  0  0  0  0
  3 27  1  0  0  0  0
  4 28  1  0  0  0  0
  4 30  1  0  0  0  0
  5 11  2  0  0  0  0
  6 32  1  0  0  0  0
  6  8  2  0  0  0  0
  7 13  2  0  0  0  0
  7  5  1  0  0  0  0
  8 34  1  0  0  0  0
  9 35  1  0  0  0  0
 10 12  2  0  0  0  0
 10 16  1  0  0  0  0
 11  9  1  0  0  0  0
 11  1  1  0  0  0  0
 12  6  1  0  0  0  0
 13 15  1  0  0  0  0
 14  8  1  0  0  0  0
 14  4  1  0  0  0  0
 15 17  1  0  0  0  0
 15  9  2  0  0  0  0
 16 14  2  0  0  0  0
 17 18  2  0  0  0  0
 18 16  1  0  0  0  0
 19  1  1  0  0  0  0
 21  1  1  0  0  0  0
 22  2  1  0  0  0  0
 24  2  1  0  0  0  0
 25  3  1  0  0  0  0
 26  3  1  0  0  0  0
 29  4  1  0  0  0  0
 31  5  1  0  0  0  0
 33  7  1  0  0  0  0
 36 10  1  0  0  0  0
M  END
>  <HBA>
2

>  <HBD>
0

>  <TPSA>
24.72

>  <cid>
22765

>  <dipole>
0.02

>  <excitation_energy_1>
2.438

>  <excitation_energy_2>
3.352

>  <excitation_energy_3>
3.566

>  <excitation_energy_4>
3.642

>  <homo_energy>
-5.861

>  <homo_lumo_gap>
3.752

>  <logP>
5.336

>  <lumo_energy>
-2.109

>  <melting_point>
80.17

>  <molecular_refractivity>
76.92

>  <oscillator_strength_1>
0.0004

>  <oscillator_strength_2>
0.6048

>  <oscillator_strength_3>
0.0002

>  <oscillator_strength_4>
0.126

>  <open_babel_can_smiles>
Cc1ccc(cc1/N=N/c1cc(C)ccc1C)C

>  <mulliken_charges>
36
1   -0.52825
2   -0.527985
3   -0.515673
4   -0.515771
5   -0.165258
6   -0.164254
7   -0.196169
8   -0.196189
9   -0.184894
10   -0.185529
11   0.163528
12   0.163391
13   0.15886
14   0.158346
15   0.222313
16   0.222762
17   -0.313846
18   -0.313944
19   0.153245
20   0.164309
21   0.16389
22   0.153694
23   0.165774
24   0.161885
25   0.144872
26   0.16867
27   0.169338
28   0.144893
29   0.169211
30   0.169027
31   0.123481
32   0.123398
33   0.124102
34   0.124161
35   0.147379
36   0.147235

>  <lowdin_charges>
36
1   -0.441675
2   -0.442655
3   -0.440375
4   -0.440871
5   -0.15569
6   -0.155311
7   -0.167282
8   -0.167243
9   -0.157183
10   -0.157816
11   -0.002798
12   -0.002856
13   0.005671
14   0.00569
15   0.002096
16   0.001963
17   -0.082266
18   -0.082207
19   0.155545
20   0.161095
21   0.162015
22   0.156102
23   0.162678
24   0.16099
25   0.151126
26   0.166171
27   0.166249
28   0.151334
29   0.166204
30   0.166567
31   0.154749
32   0.15476
33   0.154403
34   0.154596
35   0.168022
36   0.1682

$$$$

