PCCDB-ID:  47390
public computational chemistry database (PCCDB) project, http://pccdb.org

 41 41  0  0  0  0  0  0  0  0999 V2000
    0.8017   -0.3748   -0.0411 C   0  0  0  0  0  0  0  0  0  0  0  0
    5.4705   -1.9733    2.9542 C   0  0  0  0  0  0  0  0  0  0  0  0
    6.8229    1.8597   -2.5050 C   0  0  0  0  0  0  0  0  0  0  0  0
    2.3281   -0.2961   -0.1679 C   0  0  0  0  0  0  0  0  0  0  0  0
    4.6407   -0.7650    2.5021 C   0  0  0  0  0  0  0  0  0  0  0  0
    6.4644    1.5092   -1.0563 C   0  0  0  0  0  0  0  0  0  0  0  0
    4.5789    4.0597    2.4423 C   0  0  0  0  0  0  0  0  0  0  0  0
    2.9118    0.9100    0.5877 C   0  0  0  0  0  0  0  0  0  0  0  0
    5.1765   -0.1661    1.1900 C   0  0  0  0  0  0  0  0  0  0  0  0
    4.9551    1.2947   -0.8674 C   0  0  0  0  0  0  0  0  0  0  0  0
    4.5462    2.5476    2.7630 C   0  0  0  0  0  0  0  0  0  0  0  0
    4.4646    3.6419    0.9577 C   0  0  0  0  0  0  0  0  0  0  0  0
    4.4607    1.0781    0.5909 C   0  0  0  0  0  0  0  0  0  0  0  0
    4.8782    2.2782    1.3480 N   0  0  0  0  0  0  0  0  0  0  0  0
    0.3983   -1.2324   -0.5919 H   0  0  0  0  0  0  0  0  0  0  0  0
    0.3236    0.5300   -0.4366 H   0  0  0  0  0  0  0  0  0  0  0  0
    0.4951   -0.4775    1.0073 H   0  0  0  0  0  0  0  0  0  0  0  0
    5.0838   -2.3964    3.8885 H   0  0  0  0  0  0  0  0  0  0  0  0
    6.5182   -1.6950    3.1222 H   0  0  0  0  0  0  0  0  0  0  0  0
    5.4585   -2.7685    2.1982 H   0  0  0  0  0  0  0  0  0  0  0  0
    7.9035    1.9990   -2.6259 H   0  0  0  0  0  0  0  0  0  0  0  0
    6.3305    2.7871   -2.8237 H   0  0  0  0  0  0  0  0  0  0  0  0
    6.5110    1.0677   -3.1978 H   0  0  0  0  0  0  0  0  0  0  0  0
    2.5934   -0.2409   -1.2308 H   0  0  0  0  0  0  0  0  0  0  0  0
    2.7672   -1.2294    0.2076 H   0  0  0  0  0  0  0  0  0  0  0  0
    4.6433   -0.0139    3.2995 H   0  0  0  0  0  0  0  0  0  0  0  0
    3.5961   -1.0779    2.3806 H   0  0  0  0  0  0  0  0  0  0  0  0
    6.8064    2.3026   -0.3821 H   0  0  0  0  0  0  0  0  0  0  0  0
    7.0093    0.6032   -0.7626 H   0  0  0  0  0  0  0  0  0  0  0  0
    5.5410    4.5211    2.6787 H   0  0  0  0  0  0  0  0  0  0  0  0
    3.7703    4.6715    2.8493 H   0  0  0  0  0  0  0  0  0  0  0  0
    2.5606    0.8630    1.6269 H   0  0  0  0  0  0  0  0  0  0  0  0
    2.4666    1.8209    0.1641 H   0  0  0  0  0  0  0  0  0  0  0  0
    5.1661   -0.9618    0.4315 H   0  0  0  0  0  0  0  0  0  0  0  0
    6.2296    0.1021    1.3359 H   0  0  0  0  0  0  0  0  0  0  0  0
    4.6438    0.4359   -1.4750 H   0  0  0  0  0  0  0  0  0  0  0  0
    4.4217    2.1623   -1.2838 H   0  0  0  0  0  0  0  0  0  0  0  0
    3.5426    2.2154    3.0760 H   0  0  0  0  0  0  0  0  0  0  0  0
    5.2779    2.1689    3.4872 H   0  0  0  0  0  0  0  0  0  0  0  0
    5.1276    4.1344    0.2348 H   0  0  0  0  0  0  0  0  0  0  0  0
    3.4286    3.7235    0.5892 H   0  0  0  0  0  0  0  0  0  0  0  0
  1 17  1  0  0  0  0
  2 19  1  0  0  0  0
  2 18  1  0  0  0  0
  3  6  1  0  0  0  0
  4  1  1  0  0  0  0
  4 25  1  0  0  0  0
  4  8  1  0  0  0  0
  5  2  1  0  0  0  0
  5 26  1  0  0  0  0
  6 10  1  0  0  0  0
  6 29  1  0  0  0  0
  6 28  1  0  0  0  0
  7 30  1  0  0  0  0
  7 11  1  0  0  0  0
  7 31  1  0  0  0  0
  8 13  1  0  0  0  0
  8 32  1  0  0  0  0
  9 35  1  0  0  0  0
  9  5  1  0  0  0  0
 10 13  1  0  0  0  0
 11 38  1  0  0  0  0
 11 39  1  0  0  0  0
 12 14  1  0  0  0  0
 12  7  1  0  0  0  0
 13  9  1  0  0  0  0
 13 14  1  0  0  0  0
 14 11  1  0  0  0  0
 15  1  1  0  0  0  0
 16  1  1  0  0  0  0
 20  2  1  0  0  0  0
 21  3  1  0  0  0  0
 22  3  1  0  0  0  0
 23  3  1  0  0  0  0
 24  4  1  0  0  0  0
 27  5  1  0  0  0  0
 33  8  1  0  0  0  0
 34  9  1  0  0  0  0
 36 10  1  0  0  0  0
 37 10  1  0  0  0  0
 40 12  1  0  0  0  0
 41 12  1  0  0  0  0
M  END
>  <HBA>
1

>  <HBD>
0

>  <TPSA>
3.24

>  <cid>
47390

>  <dipole>
0.65

>  <excitation_energy_1>
4.989

>  <excitation_energy_2>
5.179

>  <excitation_energy_3>
5.249

>  <excitation_energy_4>
5.257

>  <homo_energy>
-5.366

>  <homo_lumo_gap>
7.549

>  <logP>
3.769

>  <lumo_energy>
2.182

>  <melting_point>
5.03

>  <molecular_refractivity>
69.34

>  <oscillator_strength_1>
0.0054

>  <oscillator_strength_2>
0.0015

>  <oscillator_strength_3>
0.0141

>  <oscillator_strength_4>
0.0014

>  <open_babel_can_smiles>
CCCC(N1CCC1)(CCC)CCC

>  <mulliken_charges>
41
1   -0.442831
2   -0.44283
3   -0.444311
4   -0.25966
5   -0.268653
6   -0.252534
7   -0.319479
8   -0.278019
9   -0.269148
10   -0.276306
11   -0.108322
12   -0.112936
13   0.22305
14   -0.425925
15   0.140812
16   0.141271
17   0.140712
18   0.14001
19   0.142435
20   0.140029
21   0.139906
22   0.138089
23   0.137583
24   0.136633
25   0.136783
26   0.141409
27   0.135406
28   0.151783
29   0.132069
30   0.150399
31   0.140353
32   0.130529
33   0.124153
34   0.125762
35   0.143966
36   0.131009
37   0.125428
38   0.119441
39   0.137293
40   0.135261
41   0.119377

>  <lowdin_charges>
41
1   -0.443951
2   -0.442718
3   -0.44377
4   -0.275723
5   -0.279804
6   -0.277878
7   -0.288689
8   -0.291579
9   -0.280562
10   -0.281089
11   -0.19935
12   -0.199413
13   0.060519
14   -0.199785
15   0.149407
16   0.146391
17   0.144201
18   0.148451
19   0.145183
20   0.14577
21   0.14637
22   0.144102
23   0.144634
24   0.139696
25   0.141151
26   0.14552
27   0.138991
28   0.150788
29   0.14089
30   0.152245
31   0.147087
32   0.139427
33   0.139823
34   0.141322
35   0.148924
36   0.143231
37   0.140148
38   0.123204
39   0.137716
40   0.136924
41   0.122196

$$$$

