PCCDB-ID:  65294
public computational chemistry database (PCCDB) project, http://pccdb.org

 36 35  0  0  0  0  0  0  0  0999 V2000
    5.5187   -3.1269   -5.1048 C   0  0  0  0  0  0  0  0  0  0  0  0
    8.7552   -0.2362   -8.3777 C   0  0  0  0  0  0  0  0  0  0  0  0
    4.9808    3.6621   -5.7187 C   0  0  0  0  0  0  0  0  0  0  0  0
    7.4890    3.6469   -5.4825 C   0  0  0  0  0  0  0  0  0  0  0  0
    6.6032   -2.1304   -4.6787 C   0  0  0  0  0  0  0  0  0  0  0  0
    7.7110    0.5814   -8.2969 C   0  0  0  0  0  0  0  0  0  0  0  0
    6.2367   -1.2810   -3.4488 C   0  0  0  0  0  0  0  0  0  0  0  0
    4.9962   -0.3795   -3.5992 C   0  0  0  0  0  0  0  0  0  0  0  0
    5.0424    0.6511   -4.7426 C   0  0  0  0  0  0  0  0  0  0  0  0
    6.1673    1.6867   -4.6006 C   0  0  0  0  0  0  0  0  0  0  0  0
    6.3617    2.1011   -7.0828 C   0  0  0  0  0  0  0  0  0  0  0  0
    6.2340    2.7712   -5.7143 C   0  0  0  0  0  0  0  0  0  0  0  0
    5.6311    2.2682   -8.0310 O   0  0  0  0  0  0  0  0  0  0  0  0
    7.4495    1.2604   -7.1192 O   0  0  0  0  0  0  0  0  0  0  0  0
    5.8621   -3.7494   -5.9390 H   0  0  0  0  0  0  0  0  0  0  0  0
    4.6027   -2.6206   -5.4307 H   0  0  0  0  0  0  0  0  0  0  0  0
    5.2497   -3.7969   -4.2783 H   0  0  0  0  0  0  0  0  0  0  0  0
    8.9532   -0.7668   -9.3018 H   0  0  0  0  0  0  0  0  0  0  0  0
    9.4255   -0.3941   -7.5392 H   0  0  0  0  0  0  0  0  0  0  0  0
    4.8591    4.1326   -4.7365 H   0  0  0  0  0  0  0  0  0  0  0  0
    4.0753    3.0949   -5.9478 H   0  0  0  0  0  0  0  0  0  0  0  0
    5.0674    4.4521   -6.4707 H   0  0  0  0  0  0  0  0  0  0  0  0
    7.4131    4.1469   -4.5101 H   0  0  0  0  0  0  0  0  0  0  0  0
    7.5788    4.4222   -6.2521 H   0  0  0  0  0  0  0  0  0  0  0  0
    8.4030    3.0465   -5.4905 H   0  0  0  0  0  0  0  0  0  0  0  0
    6.8521   -1.4769   -5.5254 H   0  0  0  0  0  0  0  0  0  0  0  0
    7.5242   -2.6833   -4.4491 H   0  0  0  0  0  0  0  0  0  0  0  0
    7.0068    0.7846   -9.0952 H   0  0  0  0  0  0  0  0  0  0  0  0
    7.1048   -0.6667   -3.1748 H   0  0  0  0  0  0  0  0  0  0  0  0
    6.0663   -1.9526   -2.5950 H   0  0  0  0  0  0  0  0  0  0  0  0
    4.8400    0.1523   -2.6496 H   0  0  0  0  0  0  0  0  0  0  0  0
    4.1065   -1.0077   -3.7379 H   0  0  0  0  0  0  0  0  0  0  0  0
    4.0722    1.1621   -4.7778 H   0  0  0  0  0  0  0  0  0  0  0  0
    5.1419    0.1285   -5.7036 H   0  0  0  0  0  0  0  0  0  0  0  0
    7.1347    1.1746   -4.5655 H   0  0  0  0  0  0  0  0  0  0  0  0
    6.0577    2.2122   -3.6411 H   0  0  0  0  0  0  0  0  0  0  0  0
  1  5  1  0  0  0  0
  1 17  1  0  0  0  0
  2  6  2  0  0  0  0
  2 19  1  0  0  0  0
  3 12  1  0  0  0  0
  3 20  1  0  0  0  0
  4 23  1  0  0  0  0
  5 27  1  0  0  0  0
  5  7  1  0  0  0  0
  6 14  1  0  0  0  0
  7 29  1  0  0  0  0
  7 30  1  0  0  0  0
  8  7  1  0  0  0  0
  8 31  1  0  0  0  0
  9 10  1  0  0  0  0
  9  8  1  0  0  0  0
 10 35  1  0  0  0  0
 10 36  1  0  0  0  0
 11 12  1  0  0  0  0
 12  4  1  0  0  0  0
 12 10  1  0  0  0  0
 13 11  2  0  0  0  0
 14 11  1  0  0  0  0
 15  1  1  0  0  0  0
 16  1  1  0  0  0  0
 18  2  1  0  0  0  0
 21  3  1  0  0  0  0
 22  3  1  0  0  0  0
 24  4  1  0  0  0  0
 25  4  1  0  0  0  0
 26  5  1  0  0  0  0
 28  6  1  0  0  0  0
 32  8  1  0  0  0  0
 33  9  1  0  0  0  0
 34  9  1  0  0  0  0
M  END
>  <HBA>
2

>  <HBD>
0

>  <TPSA>
26.3

>  <cid>
65294

>  <dipole>
1.64

>  <excitation_energy_1>
5.525

>  <excitation_energy_2>
5.891

>  <excitation_energy_3>
6.396

>  <excitation_energy_4>
6.722

>  <homo_energy>
-6.759

>  <homo_lumo_gap>
6.506

>  <logP>
3.67

>  <lumo_energy>
-0.253

>  <melting_point>
-20.02

>  <molecular_refractivity>
60.35

>  <oscillator_strength_1>
0.003

>  <oscillator_strength_2>
0.2688

>  <oscillator_strength_3>
0.0363

>  <oscillator_strength_4>
0.0227

>  <open_babel_can_smiles>
CCCCCCC(C(=O)OC=C)(C)C

>  <mulliken_charges>
36
1   -0.444086
2   -0.391029
3   -0.44273
4   -0.45651
5   -0.257975
6   0.156034
7   -0.254336
8   -0.261702
9   -0.276046
10   -0.262094
11   0.649585
12   -0.01899
13   -0.473738
14   -0.471477
15   0.142878
16   0.146348
17   0.139469
18   0.154757
19   0.155115
20   0.137728
21   0.162177
22   0.155854
23   0.150271
24   0.15234
25   0.163652
26   0.14471
27   0.129292
28   0.183692
29   0.130053
30   0.127018
31   0.127188
32   0.134807
33   0.137237
34   0.144884
35   0.154262
36   0.131361

>  <lowdin_charges>
36
1   -0.449099
2   -0.366461
3   -0.439192
4   -0.438623
5   -0.279618
6   -0.03672
7   -0.281239
8   -0.278392
9   -0.283474
10   -0.273941
11   0.208264
12   -0.011964
13   -0.24661
14   -0.156288
15   0.151109
16   0.147253
17   0.145997
18   0.172991
19   0.169847
20   0.148577
21   0.159701
22   0.15901
23   0.153785
24   0.154549
25   0.158955
26   0.144749
27   0.142026
28   0.17543
29   0.140374
30   0.141093
31   0.140406
32   0.14377
33   0.145451
34   0.143823
35   0.151337
36   0.143129

$$$$

