PCCDB-ID:  59652
public computational chemistry database (PCCDB) project, http://pccdb.org

 32 34  0  0  1  0  0  0  0  0999 V2000
    1.3879    0.7702    0.7172 C   0  0  0  0  0  0  0  0  0  0  0  0
    1.2848   -0.7787    0.7507 C   0  0  0  0  0  0  0  0  0  0  0  0
    0.2787    0.8682   -1.5467 C   0  0  0  0  0  0  0  0  0  0  0  0
    0.3129   -0.6917   -1.5903 C   0  0  0  0  0  0  0  0  0  0  0  0
   -4.6919   -0.3090   -1.9636 C   0  0  0  0  0  0  0  0  0  0  0  0
   -4.6340    1.2215   -1.7091 C   0  0  0  0  0  0  0  0  0  0  0  0
   -1.1382    1.2775    0.5464 C   0  0  0  0  0  0  0  0  0  0  0  0
   -1.2365   -1.2149    0.3772 C   0  0  0  0  0  0  0  0  0  0  0  0
    0.2651    1.4252   -0.1085 C   0  0  1  0  0  0  0  0  0  0  0  0
    0.1990   -1.3379   -0.1940 C   0  0  2  0  0  0  0  0  0  0  0  0
   -2.9613    0.1344   -0.6727 C   0  0  0  0  0  0  0  0  0  0  0  0
   -3.5995   -0.8659   -1.1683 N   0  0  0  0  0  0  0  0  0  0  0  0
   -1.8605    0.0813    0.1302 N   0  0  0  0  0  0  0  0  0  0  0  0
   -3.4142    1.4015   -0.9568 O   0  0  0  0  0  0  0  0  0  0  0  0
    2.3487    1.0680    0.2778 H   0  0  0  0  0  0  0  0  0  0  0  0
    1.3827    1.1794    1.7354 H   0  0  0  0  0  0  0  0  0  0  0  0
    1.0853   -1.1301    1.7710 H   0  0  0  0  0  0  0  0  0  0  0  0
    2.2506   -1.2153    0.4669 H   0  0  0  0  0  0  0  0  0  0  0  0
   -0.5932    1.2477   -2.0916 H   0  0  0  0  0  0  0  0  0  0  0  0
    1.1605    1.2690   -2.0619 H   0  0  0  0  0  0  0  0  0  0  0  0
    1.2554   -1.0252   -2.0425 H   0  0  0  0  0  0  0  0  0  0  0  0
   -0.4893   -1.0707   -2.2332 H   0  0  0  0  0  0  0  0  0  0  0  0
   -4.5587   -0.5511   -3.0276 H   0  0  0  0  0  0  0  0  0  0  0  0
   -5.6562   -0.7343   -1.6579 H   0  0  0  0  0  0  0  0  0  0  0  0
   -5.4677    1.5898   -1.1010 H   0  0  0  0  0  0  0  0  0  0  0  0
   -4.5642    1.8253   -2.6183 H   0  0  0  0  0  0  0  0  0  0  0  0
   -1.7565    2.1370    0.2912 H   0  0  0  0  0  0  0  0  0  0  0  0
   -1.0334    1.2639    1.6421 H   0  0  0  0  0  0  0  0  0  0  0  0
   -1.2188   -1.4049    1.4613 H   0  0  0  0  0  0  0  0  0  0  0  0
   -1.8869   -1.9611   -0.0805 H   0  0  0  0  0  0  0  0  0  0  0  0
    0.4721    2.5035   -0.1492 H   0  0  0  0  0  0  0  0  0  0  0  0
    0.3827   -2.4164   -0.2965 H   0  0  0  0  0  0  0  0  0  0  0  0
  1  2  1  0  0  0  0
  1 16  1  0  0  0  0
  2 17  1  0  0  0  0
  3  9  1  0  0  0  0
  4  3  1  0  0  0  0
  4 10  1  0  0  0  0
  5  6  1  0  0  0  0
  5 24  1  0  0  0  0
  5 12  1  0  0  0  0
  6 25  1  0  0  0  0
  6 14  1  0  0  0  0
  7 28  1  0  0  0  0
  8 29  1  0  0  0  0
  9 31  1  6  0  0  0
  9  7  1  0  0  0  0
  9  1  1  0  0  0  0
 10 32  1  6  0  0  0
 10  8  1  0  0  0  0
 10  2  1  0  0  0  0
 11 13  1  0  0  0  0
 12 11  2  0  0  0  0
 13  8  1  0  0  0  0
 13  7  1  0  0  0  0
 14 11  1  0  0  0  0
 15  1  1  0  0  0  0
 18  2  1  0  0  0  0
 19  3  1  0  0  0  0
 20  3  1  0  0  0  0
 21  4  1  0  0  0  0
 22  4  1  0  0  0  0
 23  5  1  0  0  0  0
 26  6  1  0  0  0  0
 27  7  1  0  0  0  0
 30  8  1  0  0  0  0
M  END
>  <HBA>
3

>  <HBD>
0

>  <TPSA>
24.83

>  <cid>
59652

>  <dipole>
1.44

>  <excitation_energy_1>
4.856

>  <excitation_energy_2>
5.273

>  <excitation_energy_3>
5.485

>  <excitation_energy_4>
5.491

>  <homo_energy>
-5.38

>  <homo_lumo_gap>
7.127

>  <logP>
0.868

>  <lumo_energy>
1.747

>  <melting_point>
49.4

>  <molecular_refractivity>
63.56

>  <oscillator_strength_1>
0.0083

>  <oscillator_strength_2>
0.0056

>  <oscillator_strength_3>
0.0117

>  <oscillator_strength_4>
0.0314

>  <open_babel_can_smiles>
C1CN=C(O1)N1C[C@@H]2CC[C@H](C1)CC2

>  <mulliken_charges>
32
1   -0.271475
2   -0.271807
3   -0.271891
4   -0.272511
5   -0.16032
6   -0.055249
7   -0.154657
8   -0.151826
9   -0.095188
10   -0.098884
11   0.750794
12   -0.522939
13   -0.471965
14   -0.517356
15   0.132494
16   0.131423
17   0.131168
18   0.133565
19   0.143947
20   0.130799
21   0.130196
22   0.151254
23   0.141242
24   0.143774
25   0.150879
26   0.151517
27   0.182312
28   0.135109
29   0.132313
30   0.195686
31   0.122238
32   0.125358

>  <lowdin_charges>
32
1   -0.284963
2   -0.286773
3   -0.286388
4   -0.285461
5   -0.205941
6   -0.140124
7   -0.202698
8   -0.201128
9   -0.14002
10   -0.137909
11   0.157855
12   -0.303924
13   -0.103798
14   -0.230281
15   0.142906
16   0.141039
17   0.140557
18   0.144201
19   0.149271
20   0.144001
21   0.142996
22   0.154455
23   0.138188
24   0.143954
25   0.14685
26   0.149435
27   0.17153
28   0.137377
29   0.136258
30   0.180777
31   0.142658
32   0.145097

$$$$

