PCCDB-ID:  5641
public computational chemistry database (PCCDB) project, http://pccdb.org

 13 12  0  0  0  0  0  0  0  0999 V2000
    1.0503   -0.8220   -0.5084 C   0  0  0  0  0  0  0  0  0  0  0  0
    2.2714   -0.0329   -0.0743 C   0  0  0  0  0  0  0  0  0  0  0  0
    2.7414    1.8767    1.2297 C   0  0  0  0  0  0  0  0  0  0  0  0
    3.9872    1.7232    1.0105 N   0  0  0  0  0  0  0  0  0  0  0  0
    2.1012    2.8297    1.9614 O   0  0  0  0  0  0  0  0  0  0  0  0
    1.8034    1.0632    0.7375 O   0  0  0  0  0  0  0  0  0  0  0  0
    1.3594   -1.6683   -1.1316 H   0  0  0  0  0  0  0  0  0  0  0  0
    0.3662   -0.1960   -1.0903 H   0  0  0  0  0  0  0  0  0  0  0  0
    0.5074   -1.2114    0.3587 H   0  0  0  0  0  0  0  0  0  0  0  0
    2.8279    0.3706   -0.9265 H   0  0  0  0  0  0  0  0  0  0  0  0
    2.9674   -0.6381    0.5155 H   0  0  0  0  0  0  0  0  0  0  0  0
    4.5530    2.4393    1.4652 H   0  0  0  0  0  0  0  0  0  0  0  0
    2.7688    3.4296    2.3273 H   0  0  0  0  0  0  0  0  0  0  0  0
  1  2  1  0  0  0  0
  1  9  1  0  0  0  0
  2 11  1  0  0  0  0
  2  6  1  0  0  0  0
  3  5  1  0  0  0  0
  4  3  2  0  0  0  0
  4 12  1  0  0  0  0
  5 13  1  0  0  0  0
  6  3  1  0  0  0  0
  7  1  1  0  0  0  0
  8  1  1  0  0  0  0
 10  2  1  0  0  0  0
M  END
>  <HBA>
3

>  <HBD>
1

>  <TPSA>
52.32

>  <cid>
5641

>  <dipole>
1.05

>  <excitation_energy_1>
5.936

>  <excitation_energy_2>
6.443

>  <excitation_energy_3>
7.169

>  <excitation_energy_4>
7.279

>  <homo_energy>
-7.034

>  <homo_lumo_gap>
8.34

>  <logP>
0.802

>  <lumo_energy>
1.306

>  <melting_point>
52.45

>  <molecular_refractivity>
20.92

>  <oscillator_strength_1>
0.0058

>  <oscillator_strength_2>
0.0436

>  <oscillator_strength_3>
0.0148

>  <oscillator_strength_4>
0.0003

>  <open_babel_can_smiles>
CCOC(=N)O

>  <mulliken_charges>
13
1   -0.460036
2   -0.017033
3   0.645428
4   -0.630273
5   -0.570547
6   -0.4431
7   0.150093
8   0.162046
9   0.162019
10   0.159759
11   0.160306
12   0.274444
13   0.406894

>  <lowdin_charges>
13
1   -0.451996
2   -0.117608
3   0.183773
4   -0.472548
5   -0.366745
6   -0.179423
7   0.158821
8   0.160396
9   0.159782
10   0.153075
11   0.154148
12   0.256663
13   0.361663

$$$$

