PCCDB-ID:  68140
public computational chemistry database (PCCDB) project, http://pccdb.org

 26 26  0  0  0  0  0  0  0  0999 V2000
    2.0606    0.2834    1.3784 C   0  0  0  0  0  0  0  0  0  0  0  0
    2.1281   -1.3560   -0.4799 C   0  0  0  0  0  0  0  0  0  0  0  0
    5.9871    3.9879   -1.5008 C   0  0  0  0  0  0  0  0  0  0  0  0
    5.2694    1.6390   -1.9847 C   0  0  0  0  0  0  0  0  0  0  0  0
    3.5477    3.4246   -1.4588 C   0  0  0  0  0  0  0  0  0  0  0  0
    4.5918    0.6964   -0.9687 C   0  0  0  0  0  0  0  0  0  0  0  0
    2.8913    2.4813   -0.4298 C   0  0  0  0  0  0  0  0  0  0  0  0
    2.4029    0.0060    0.1156 C   0  0  0  0  0  0  0  0  0  0  0  0
    5.0094    3.0906   -1.6528 C   0  0  0  0  0  0  0  0  0  0  0  0
    3.0803    1.0032   -0.8159 C   0  0  0  0  0  0  0  0  0  0  0  0
    1.5922   -0.4664    2.0113 H   0  0  0  0  0  0  0  0  0  0  0  0
    2.2268    1.2548    1.8336 H   0  0  0  0  0  0  0  0  0  0  0  0
    1.6982   -2.0400    0.2583 H   0  0  0  0  0  0  0  0  0  0  0  0
    3.0400   -1.8200   -0.8777 H   0  0  0  0  0  0  0  0  0  0  0  0
    1.4257   -1.2793   -1.3217 H   0  0  0  0  0  0  0  0  0  0  0  0
    7.0338    3.7211   -1.6294 H   0  0  0  0  0  0  0  0  0  0  0  0
    5.7780    5.0253   -1.2494 H   0  0  0  0  0  0  0  0  0  0  0  0
    4.8627    1.4192   -2.9851 H   0  0  0  0  0  0  0  0  0  0  0  0
    6.3463    1.4391   -2.0296 H   0  0  0  0  0  0  0  0  0  0  0  0
    3.4286    4.4690   -1.1486 H   0  0  0  0  0  0  0  0  0  0  0  0
    3.0194    3.3157   -2.4197 H   0  0  0  0  0  0  0  0  0  0  0  0
    5.0716    0.8073    0.0126 H   0  0  0  0  0  0  0  0  0  0  0  0
    4.7436   -0.3440   -1.2803 H   0  0  0  0  0  0  0  0  0  0  0  0
    1.8231    2.7113   -0.3358 H   0  0  0  0  0  0  0  0  0  0  0  0
    3.3461    2.6666    0.5521 H   0  0  0  0  0  0  0  0  0  0  0  0
    2.6260    0.8675   -1.8125 H   0  0  0  0  0  0  0  0  0  0  0  0
  1 12  1  0  0  0  0
  1 11  1  0  0  0  0
  2  8  1  0  0  0  0
  2 13  1  0  0  0  0
  3 17  1  0  0  0  0
  4  9  1  0  0  0  0
  4  6  1  0  0  0  0
  5 20  1  0  0  0  0
  5  7  1  0  0  0  0
  6 10  1  0  0  0  0
  6 22  1  0  0  0  0
  7 24  1  0  0  0  0
  7 25  1  0  0  0  0
  8  1  2  0  0  0  0
  9  3  2  0  0  0  0
  9  5  1  0  0  0  0
 10  7  1  0  0  0  0
 10  8  1  0  0  0  0
 14  2  1  0  0  0  0
 15  2  1  0  0  0  0
 16  3  1  0  0  0  0
 18  4  1  0  0  0  0
 19  4  1  0  0  0  0
 21  5  1  0  0  0  0
 23  6  1  0  0  0  0
 26 10  1  0  0  0  0
M  END
>  <HBA>
0

>  <HBD>
0

>  <TPSA>
0.0

>  <cid>
68140

>  <dipole>
0.64

>  <excitation_energy_1>
5.895

>  <excitation_energy_2>
6.021

>  <excitation_energy_3>
6.222

>  <excitation_energy_4>
6.3

>  <homo_energy>
-6.485

>  <homo_lumo_gap>
7.159

>  <logP>
3.309

>  <lumo_energy>
0.675

>  <melting_point>
-41.0

>  <molecular_refractivity>
47.12

>  <oscillator_strength_1>
0.0162

>  <oscillator_strength_2>
0.0849

>  <oscillator_strength_3>
0.0237

>  <oscillator_strength_4>
0.0256

>  <open_babel_can_smiles>
C=C1CCC(CC1)C(=C)C

>  <mulliken_charges>
26
1   -0.406041
2   -0.516021
3   -0.417303
4   -0.328326
5   -0.331393
6   -0.262519
7   -0.268969
8   0.227666
9   0.241268
10   -0.146916
11   0.128758
12   0.136069
13   0.152349
14   0.154273
15   0.152806
16   0.130124
17   0.130255
18   0.137926
19   0.138622
20   0.13782
21   0.137758
22   0.142605
23   0.132901
24   0.138471
25   0.139663
26   0.118154

>  <lowdin_charges>
26
1   -0.369311
2   -0.443676
3   -0.362743
4   -0.272549
5   -0.272849
6   -0.271596
7   -0.273072
8   0.008306
9   0.0047
10   -0.128324
11   0.154965
12   0.155573
13   0.157439
14   0.154399
15   0.155162
16   0.151527
17   0.151685
18   0.144914
19   0.148138
20   0.148297
21   0.145068
22   0.145562
23   0.142644
24   0.146151
25   0.143231
26   0.136358

$$$$

