PCCDB-ID:  40062
public computational chemistry database (PCCDB) project, http://pccdb.org

 32 32  0  0  1  0  0  0  0  0999 V2000
    5.8716   -5.7462    1.9735 C   0  0  0  0  0  0  0  0  0  0  0  0
    5.8818   -4.5029    1.0781 C   0  0  0  0  0  0  0  0  0  0  0  0
    7.2636   -3.8384    1.0040 C   0  0  0  0  0  0  0  0  0  0  0  0
   10.0125    2.9140   -1.8722 C   0  0  0  0  0  0  0  0  0  0  0  0
    9.3750    2.8732   -0.6291 C   0  0  0  0  0  0  0  0  0  0  0  0
   10.7475    1.8112   -2.3075 C   0  0  0  0  0  0  0  0  0  0  0  0
    9.4768    1.7390    0.1747 C   0  0  0  0  0  0  0  0  0  0  0  0
   10.8457    0.6743   -1.5021 C   0  0  0  0  0  0  0  0  0  0  0  0
    7.2587   -2.5996    0.1152 C   0  0  0  0  0  0  0  0  0  0  0  0
   10.2164    0.6268   -0.2537 C   0  0  0  0  0  0  0  0  0  0  0  0
   10.3673   -0.6065    0.6437 C   0  0  2  0  0  0  0  0  0  0  0  0
    8.9824   -1.1809    0.9390 C   0  0  0  0  0  0  0  0  0  0  0  0
   11.0310   -0.3766    1.9293 N   0  0  0  0  0  0  0  0  0  0  0  0
    8.3116   -0.8596    1.8995 O   0  0  0  0  0  0  0  0  0  0  0  0
    8.5889   -2.0376   -0.0182 O   0  0  0  0  0  0  0  0  0  0  0  0
    4.8750   -6.1998    2.0124 H   0  0  0  0  0  0  0  0  0  0  0  0
    6.1658   -5.4958    2.9997 H   0  0  0  0  0  0  0  0  0  0  0  0
    6.5708   -6.5060    1.6040 H   0  0  0  0  0  0  0  0  0  0  0  0
    5.1481   -3.7763    1.4540 H   0  0  0  0  0  0  0  0  0  0  0  0
    5.5521   -4.7784    0.0662 H   0  0  0  0  0  0  0  0  0  0  0  0
    8.0025   -4.5518    0.6156 H   0  0  0  0  0  0  0  0  0  0  0  0
    7.5915   -3.5485    2.0093 H   0  0  0  0  0  0  0  0  0  0  0  0
    9.9344    3.7998   -2.4970 H   0  0  0  0  0  0  0  0  0  0  0  0
    8.7962    3.7269   -0.2860 H   0  0  0  0  0  0  0  0  0  0  0  0
   11.2466    1.8340   -3.2728 H   0  0  0  0  0  0  0  0  0  0  0  0
    8.9707    1.7069    1.1361 H   0  0  0  0  0  0  0  0  0  0  0  0
   11.4185   -0.1845   -1.8453 H   0  0  0  0  0  0  0  0  0  0  0  0
    6.5895   -1.8311    0.5111 H   0  0  0  0  0  0  0  0  0  0  0  0
    6.9650   -2.8439   -0.9093 H   0  0  0  0  0  0  0  0  0  0  0  0
   10.9281   -1.3628    0.0839 H   0  0  0  0  0  0  0  0  0  0  0  0
   10.3614    0.0470    2.5697 H   0  0  0  0  0  0  0  0  0  0  0  0
   11.7967    0.2824    1.8052 H   0  0  0  0  0  0  0  0  0  0  0  0
  1 16  1  0  0  0  0
  1 17  1  0  0  0  0
  2 19  1  0  0  0  0
  2  1  1  0  0  0  0
  3  2  1  0  0  0  0
  3 22  1  0  0  0  0
  4  5  1  0  0  0  0
  5 24  1  0  0  0  0
  5  7  2  0  0  0  0
  6  4  2  0  0  0  0
  6  8  1  0  0  0  0
  7 26  1  0  0  0  0
  8 10  2  0  0  0  0
  9 28  1  0  0  0  0
  9  3  1  0  0  0  0
 10  7  1  0  0  0  0
 10 11  1  0  0  0  0
 11 30  1  6  0  0  0
 11 12  1  0  0  0  0
 11 13  1  0  0  0  0
 12 14  2  0  0  0  0
 13 31  1  0  0  0  0
 15  9  1  0  0  0  0
 15 12  1  0  0  0  0
 18  1  1  0  0  0  0
 20  2  1  0  0  0  0
 21  3  1  0  0  0  0
 23  4  1  0  0  0  0
 25  6  1  0  0  0  0
 27  8  1  0  0  0  0
 29  9  1  0  0  0  0
 32 13  1  0  0  0  0
M  END
>  <HBA>
3

>  <HBD>
1

>  <TPSA>
52.32

>  <cid>
40062

>  <dipole>
1.83

>  <excitation_energy_1>
5.028

>  <excitation_energy_2>
5.159

>  <excitation_energy_3>
5.519

>  <excitation_energy_4>
5.582

>  <homo_energy>
-6.237

>  <homo_lumo_gap>
5.886

>  <logP>
2.73

>  <lumo_energy>
-0.351

>  <melting_point>
70.52

>  <molecular_refractivity>
59.44

>  <oscillator_strength_1>
0.0327

>  <oscillator_strength_2>
0.0076

>  <oscillator_strength_3>
0.0431

>  <oscillator_strength_4>
0.0212

>  <open_babel_can_smiles>
CCCCOC(=O)[C@@H](c1ccccc1)N

>  <mulliken_charges>
32
1   -0.44113
2   -0.259153
3   -0.273585
4   -0.128638
5   -0.129129
6   -0.127956
7   -0.18133
8   -0.187614
9   -0.048893
10   0.147737
11   -0.139011
12   0.650943
13   -0.707153
14   -0.492094
15   -0.466411
16   0.144962
17   0.148657
18   0.144559
19   0.140116
20   0.132712
21   0.143544
22   0.163831
23   0.130923
24   0.132468
25   0.131321
26   0.144472
27   0.130261
28   0.16773
29   0.151789
30   0.158641
31   0.317599
32   0.299835

>  <lowdin_charges>
32
1   -0.441883
2   -0.272131
3   -0.287674
4   -0.157528
5   -0.154071
6   -0.153507
7   -0.162389
8   -0.165823
9   -0.130084
10   -0.022883
11   -0.087869
12   0.202451
13   -0.544152
14   -0.275646
15   -0.179814
16   0.150684
17   0.14924
18   0.149071
19   0.144457
20   0.138975
21   0.148231
22   0.156708
23   0.158812
24   0.159436
25   0.158035
26   0.163413
27   0.157874
28   0.159014
29   0.151618
30   0.161203
31   0.267164
32   0.259066

$$$$

