PCCDB-ID:  13382
public computational chemistry database (PCCDB) project, http://pccdb.org

 33 32  0  0  0  0  0  0  0  0999 V2000
    3.7372    0.8401   -5.3433 C   0  0  0  0  0  0  0  0  0  0  0  0
   11.9591    2.8395   -6.1707 C   0  0  0  0  0  0  0  0  0  0  0  0
    3.1493    1.9849   -4.5096 C   0  0  0  0  0  0  0  0  0  0  0  0
   10.6529    3.3789   -6.7660 C   0  0  0  0  0  0  0  0  0  0  0  0
    4.0989    2.6450   -3.4928 C   0  0  0  0  0  0  0  0  0  0  0  0
    9.3968    2.5816   -6.3762 C   0  0  0  0  0  0  0  0  0  0  0  0
    4.5943    1.7428   -2.3442 C   0  0  0  0  0  0  0  0  0  0  0  0
    9.0529    2.6358   -4.8794 C   0  0  0  0  0  0  0  0  0  0  0  0
    5.8870    0.9470   -2.5908 C   0  0  0  0  0  0  0  0  0  0  0  0
    7.7553    1.8898   -4.5566 C   0  0  0  0  0  0  0  0  0  0  0  0
    7.4108    1.9817   -2.7493 S   0  0  0  0  0  0  0  0  0  0  0  0
    3.0165    0.4959   -6.0943 H   0  0  0  0  0  0  0  0  0  0  0  0
    3.9981   -0.0260   -4.7248 H   0  0  0  0  0  0  0  0  0  0  0  0
    4.6433    1.1559   -5.8755 H   0  0  0  0  0  0  0  0  0  0  0  0
   12.8207    3.4120   -6.5325 H   0  0  0  0  0  0  0  0  0  0  0  0
   12.1163    1.7901   -6.4506 H   0  0  0  0  0  0  0  0  0  0  0  0
   11.9650    2.8953   -5.0766 H   0  0  0  0  0  0  0  0  0  0  0  0
    2.2610    1.6181   -3.9754 H   0  0  0  0  0  0  0  0  0  0  0  0
    2.7872    2.7659   -5.1922 H   0  0  0  0  0  0  0  0  0  0  0  0
   10.7359    3.3834   -7.8611 H   0  0  0  0  0  0  0  0  0  0  0  0
   10.5199    4.4285   -6.4674 H   0  0  0  0  0  0  0  0  0  0  0  0
    3.5619    3.4947   -3.0515 H   0  0  0  0  0  0  0  0  0  0  0  0
    4.9632    3.0824   -4.0103 H   0  0  0  0  0  0  0  0  0  0  0  0
    9.5239    1.5328   -6.6836 H   0  0  0  0  0  0  0  0  0  0  0  0
    8.5423    2.9669   -6.9506 H   0  0  0  0  0  0  0  0  0  0  0  0
    3.8022    1.0259   -2.0770 H   0  0  0  0  0  0  0  0  0  0  0  0
    4.7549    2.3584   -1.4508 H   0  0  0  0  0  0  0  0  0  0  0  0
    8.9565    3.6839   -4.5647 H   0  0  0  0  0  0  0  0  0  0  0  0
    9.8687    2.2048   -4.2865 H   0  0  0  0  0  0  0  0  0  0  0  0
    5.8205    0.3164   -3.4817 H   0  0  0  0  0  0  0  0  0  0  0  0
    6.0672    0.2795   -1.7415 H   0  0  0  0  0  0  0  0  0  0  0  0
    7.8406    0.8357   -4.8459 H   0  0  0  0  0  0  0  0  0  0  0  0
    6.9186    2.3273   -5.1127 H   0  0  0  0  0  0  0  0  0  0  0  0
  1 13  1  0  0  0  0
  1  3  1  0  0  0  0
  2 17  1  0  0  0  0
  3 18  1  0  0  0  0
  3  5  1  0  0  0  0
  4 21  1  0  0  0  0
  4  6  1  0  0  0  0
  4  2  1  0  0  0  0
  5 22  1  0  0  0  0
  5  7  1  0  0  0  0
  6  8  1  0  0  0  0
  7 26  1  0  0  0  0
  7 27  1  0  0  0  0
  8 28  1  0  0  0  0
  8 10  1  0  0  0  0
  8 29  1  0  0  0  0
  9  7  1  0  0  0  0
  9 31  1  0  0  0  0
 10 11  1  0  0  0  0
 11  9  1  0  0  0  0
 12  1  1  0  0  0  0
 14  1  1  0  0  0  0
 15  2  1  0  0  0  0
 16  2  1  0  0  0  0
 19  3  1  0  0  0  0
 20  4  1  0  0  0  0
 23  5  1  0  0  0  0
 24  6  1  0  0  0  0
 25  6  1  0  0  0  0
 30  9  1  0  0  0  0
 32 10  1  0  0  0  0
 33 10  1  0  0  0  0
M  END
>  <HBA>
1

>  <HBD>
0

>  <TPSA>
25.3

>  <cid>
13382

>  <dipole>
1.69

>  <excitation_energy_1>
5.068

>  <excitation_energy_2>
5.3

>  <excitation_energy_3>
5.615

>  <excitation_energy_4>
5.729

>  <homo_energy>
-5.747

>  <homo_lumo_gap>
6.887

>  <logP>
4.1

>  <lumo_energy>
1.14

>  <melting_point>
-20.25

>  <molecular_refractivity>
57.77

>  <oscillator_strength_1>
0.0022

>  <oscillator_strength_2>
0.0075

>  <oscillator_strength_3>
0.0117

>  <oscillator_strength_4>
0.0113

>  <open_babel_can_smiles>
CCCCCSCCCCC

>  <mulliken_charges>
33
1   -0.446921
2   -0.444719
3   -0.250353
4   -0.2488
5   -0.256092
6   -0.25227
7   -0.24831
8   -0.268193
9   -0.428787
10   -0.411774
11   0.072566
12   0.143508
13   0.144441
14   0.141344
15   0.143538
16   0.141131
17   0.149686
18   0.130623
19   0.131875
20   0.132451
21   0.132555
22   0.133097
23   0.145492
24   0.129008
25   0.129179
26   0.131315
27   0.147558
28   0.1481
29   0.155516
30   0.171503
31   0.171155
32   0.162171
33   0.168406

>  <lowdin_charges>
33
1   -0.451465
2   -0.444885
3   -0.274528
4   -0.268532
5   -0.282176
6   -0.27461
7   -0.281198
8   -0.279356
9   -0.378746
10   -0.370192
11   0.067307
12   0.151417
13   0.14616
14   0.145087
15   0.15131
16   0.144912
17   0.14695
18   0.138848
19   0.143008
20   0.140485
21   0.138698
22   0.146779
23   0.148575
24   0.136991
25   0.141375
26   0.142567
27   0.151295
28   0.147518
29   0.152551
30   0.160233
31   0.164085
32   0.149632
33   0.149904

$$$$

