PCCDB-ID:  38044
public computational chemistry database (PCCDB) project, http://pccdb.org

 21 22  0  0  0  0  0  0  0  0999 V2000
   -2.4373   -0.7244    0.0136 C   0  0  0  0  0  0  0  0  0  0  0  0
   -2.4169    0.6779    0.0602 C   0  0  0  0  0  0  0  0  0  0  0  0
   -1.2458   -1.4290   -0.0482 C   0  0  0  0  0  0  0  0  0  0  0  0
   -1.2109    1.3616    0.0425 C   0  0  0  0  0  0  0  0  0  0  0  0
   -0.0041   -0.7608   -0.0652 C   0  0  0  0  0  0  0  0  0  0  0  0
   -0.0113    0.6427   -0.0217 C   0  0  0  0  0  0  0  0  0  0  0  0
    1.2906   -1.4426   -0.1086 C   0  0  0  0  0  0  0  0  0  0  0  0
    2.4523   -0.6533   -0.0644 C   0  0  0  0  0  0  0  0  0  0  0  0
    2.4131    0.8071   -0.1123 C   0  0  0  0  0  0  0  0  0  0  0  0
    1.3156   -2.7794   -0.1604 N   0  0  0  0  0  0  0  0  0  0  0  0
    3.7596   -1.2657    0.0235 N   0  0  0  0  0  0  0  0  0  0  0  0
    3.3256    1.5807   -0.2191 O   0  0  0  0  0  0  0  0  0  0  0  0
    4.7116   -0.5979    0.4005 O   0  0  0  0  0  0  0  0  0  0  0  0
    3.8694   -2.4799   -0.2760 O   0  0  0  0  0  0  0  0  0  0  0  0
    1.1271    1.3733   -0.0540 O   0  0  0  0  0  0  0  0  0  0  0  0
   -3.3817   -1.2589    0.0260 H   0  0  0  0  0  0  0  0  0  0  0  0
   -3.3488    1.2336    0.1072 H   0  0  0  0  0  0  0  0  0  0  0  0
   -1.2924   -2.5134   -0.0798 H   0  0  0  0  0  0  0  0  0  0  0  0
   -1.1619    2.4446    0.0734 H   0  0  0  0  0  0  0  0  0  0  0  0
    0.4670   -3.3205   -0.1604 H   0  0  0  0  0  0  0  0  0  0  0  0
    2.2265   -3.2230   -0.2508 H   0  0  0  0  0  0  0  0  0  0  0  0
  1 16  1  0  0  0  0
  1  2  2  0  0  0  0
  2 17  1  0  0  0  0
  3  1  1  0  0  0  0
  4  2  1  0  0  0  0
  4 19  1  0  0  0  0
  5  3  2  0  0  0  0
  5  6  1  0  0  0  0
  6  4  2  0  0  0  0
  7  5  1  0  0  0  0
  7  8  2  0  0  0  0
  8 11  1  0  0  0  0
  9  8  1  0  0  0  0
  9 15  1  0  0  0  0
 10  7  1  0  0  0  0
 11 13  2  0  0  0  0
 12  9  2  0  0  0  0
 14 11  2  0  0  0  0
 15  6  1  0  0  0  0
 18  3  1  0  0  0  0
 20 10  1  0  0  0  0
 21 10  1  0  0  0  0
M  END
>  <HBA>
3

>  <HBD>
1

>  <TPSA>
102.05

>  <cid>
38044

>  <dipole>
9.1

>  <excitation_energy_1>
3.591

>  <excitation_energy_2>
3.755

>  <excitation_energy_3>
4.127

>  <excitation_energy_4>
4.286

>  <homo_energy>
-6.876

>  <homo_lumo_gap>
4.376

>  <logP>
2.388

>  <lumo_energy>
-2.501

>  <melting_point>
172.28

>  <molecular_refractivity>
55.71

>  <oscillator_strength_1>
0.0013

>  <oscillator_strength_2>
0.1542

>  <oscillator_strength_3>
0.0342

>  <oscillator_strength_4>
0.1152

>  <open_babel_can_smiles>
O=N(=O)c1c(=O)oc2c(c1N)cccc2

>  <mulliken_charges>
21
1   -0.132228
2   -0.124849
3   -0.195899
4   -0.170278
5   0.102429
6   0.311265
7   0.359515
8   0.125597
9   0.585471
10   -0.811458
11   0.359145
12   -0.425373
13   -0.35388
14   -0.464053
15   -0.524952
16   0.147781
17   0.154158
18   0.133141
19   0.168688
20   0.353898
21   0.401881

>  <lowdin_charges>
21
1   -0.162119
2   -0.125128
3   -0.141361
4   -0.164441
5   -0.058074
6   0.121282
7   0.120301
8   -0.121372
9   0.202807
10   -0.410701
11   0.316249
12   -0.210054
13   -0.207852
14   -0.311189
15   -0.137093
16   0.168273
17   0.171217
18   0.156068
19   0.180053
20   0.293325
21   0.319807

$$$$

