PCCDB-ID:  7678
public computational chemistry database (PCCDB) project, http://pccdb.org

 20 20  0  0  0  0  0  0  0  0999 V2000
    2.3082    0.3777   -1.7853 C   0  0  0  0  0  0  0  0  0  0  0  0
    0.5652    4.7938    1.1131 C   0  0  0  0  0  0  0  0  0  0  0  0
    1.8866    4.8861    0.6686 C   0  0  0  0  0  0  0  0  0  0  0  0
    0.0160    3.5411    1.3871 C   0  0  0  0  0  0  0  0  0  0  0  0
    2.6530    3.7335    0.5014 C   0  0  0  0  0  0  0  0  0  0  0  0
    0.7847    2.3872    1.2186 C   0  0  0  0  0  0  0  0  0  0  0  0
    2.9571    1.2211    0.5841 C   0  0  0  0  0  0  0  0  0  0  0  0
    3.3350    1.0477   -0.8921 C   0  0  0  0  0  0  0  0  0  0  0  0
    2.1112    2.4700    0.7794 C   0  0  0  0  0  0  0  0  0  0  0  0
    4.3979    1.4575   -1.3175 O   0  0  0  0  0  0  0  0  0  0  0  0
    1.3246    0.8453   -1.6581 H   0  0  0  0  0  0  0  0  0  0  0  0
    2.2012   -0.6781   -1.5036 H   0  0  0  0  0  0  0  0  0  0  0  0
    2.6211    0.4421   -2.8292 H   0  0  0  0  0  0  0  0  0  0  0  0
   -0.0309    5.6926    1.2454 H   0  0  0  0  0  0  0  0  0  0  0  0
    2.3220    5.8581    0.4522 H   0  0  0  0  0  0  0  0  0  0  0  0
   -1.0105    3.4590    1.7349 H   0  0  0  0  0  0  0  0  0  0  0  0
    3.6776    3.8049    0.1456 H   0  0  0  0  0  0  0  0  0  0  0  0
    0.3523    1.4136    1.4390 H   0  0  0  0  0  0  0  0  0  0  0  0
    3.8913    1.2995    1.1497 H   0  0  0  0  0  0  0  0  0  0  0  0
    2.4080    0.3416    0.9400 H   0  0  0  0  0  0  0  0  0  0  0  0
  1 11  1  0  0  0  0
  1 12  1  0  0  0  0
  1  8  1  0  0  0  0
  2 14  1  0  0  0  0
  2  4  2  0  0  0  0
  3  2  1  0  0  0  0
  4 16  1  0  0  0  0
  5  3  2  0  0  0  0
  5  9  1  0  0  0  0
  6  4  1  0  0  0  0
  6 18  1  0  0  0  0
  7  9  1  0  0  0  0
  7 20  1  0  0  0  0
  7 19  1  0  0  0  0
  8  7  1  0  0  0  0
  9  6  2  0  0  0  0
 10  8  2  0  0  0  0
 13  1  1  0  0  0  0
 15  3  1  0  0  0  0
 17  5  1  0  0  0  0
M  END
>  <HBA>
1

>  <HBD>
0

>  <TPSA>
17.07

>  <cid>
7678

>  <dipole>
2.6

>  <excitation_energy_1>
4.232

>  <excitation_energy_2>
5.117

>  <excitation_energy_3>
5.408

>  <excitation_energy_4>
5.606

>  <homo_energy>
-6.373

>  <homo_lumo_gap>
5.766

>  <logP>
1.818

>  <lumo_energy>
-0.607

>  <melting_point>
27.21

>  <molecular_refractivity>
41.22

>  <oscillator_strength_1>
0.01

>  <oscillator_strength_2>
0.0008

>  <oscillator_strength_3>
0.0573

>  <oscillator_strength_4>
0.0405

>  <open_babel_can_smiles>
CC(=O)Cc1ccccc1

>  <mulliken_charges>
20
1   -0.530514
2   -0.129324
3   -0.128394
4   -0.126997
5   -0.172711
6   -0.187631
7   -0.41751
8   0.45879
9   0.14884
10   -0.43635
11   0.175973
12   0.168911
13   0.180324
14   0.131221
15   0.134106
16   0.131031
17   0.15108
18   0.123707
19   0.177332
20   0.148114

>  <lowdin_charges>
20
1   -0.472326
2   -0.158803
3   -0.151317
4   -0.152659
5   -0.159072
6   -0.171303
7   -0.304535
8   0.170111
9   -0.00465
10   -0.236357
11   0.172744
12   0.169543
13   0.171839
14   0.159126
15   0.159569
16   0.157192
17   0.166488
18   0.154064
19   0.172851
20   0.157493

$$$$

