PCCDB-ID:  65784
public computational chemistry database (PCCDB) project, http://pccdb.org

 23 23  0  0  1  0  0  0  0  0999 V2000
    1.5186   -1.1996    0.6438 C   0  0  0  0  0  0  0  0  0  0  0  0
    4.1934   -2.1164   -2.7236 C   0  0  0  0  0  0  0  0  0  0  0  0
    3.7060    0.1560   -2.1937 C   0  0  0  0  0  0  0  0  0  0  0  0
    2.1892   -0.2032   -0.2852 C   0  0  0  0  0  0  0  0  0  0  0  0
    3.7418   -0.8131   -3.3805 C   0  0  2  0  0  0  0  0  0  0  0  0
    3.4351   -2.1207   -1.3708 C   0  0  1  0  0  0  0  0  0  0  0  0
    4.2419   -2.8748   -0.3067 C   0  0  0  0  0  0  0  0  0  0  0  0
    3.2407   -0.6840   -1.0689 N   0  0  0  0  0  0  0  0  0  0  0  0
    1.8570    0.9712   -0.3326 O   0  0  0  0  0  0  0  0  0  0  0  0
    2.4422   -1.0556   -3.9086 O   0  0  0  0  0  0  0  0  0  0  0  0
    4.3081   -4.0783   -0.2818 O   0  0  0  0  0  0  0  0  0  0  0  0
    4.9142   -2.0944    0.5672 O   0  0  0  0  0  0  0  0  0  0  0  0
    0.9238   -1.9248    0.0757 H   0  0  0  0  0  0  0  0  0  0  0  0
    2.2432   -1.7610    1.2422 H   0  0  0  0  0  0  0  0  0  0  0  0
    0.8533   -0.6446    1.3060 H   0  0  0  0  0  0  0  0  0  0  0  0
    5.2763   -2.0927   -2.5583 H   0  0  0  0  0  0  0  0  0  0  0  0
    3.9544   -2.9948   -3.3252 H   0  0  0  0  0  0  0  0  0  0  0  0
    3.0182    0.9949   -2.3198 H   0  0  0  0  0  0  0  0  0  0  0  0
    4.7047    0.5640   -1.9911 H   0  0  0  0  0  0  0  0  0  0  0  0
    4.4355   -0.4774   -4.1646 H   0  0  0  0  0  0  0  0  0  0  0  0
    2.4783   -2.6357   -1.4868 H   0  0  0  0  0  0  0  0  0  0  0  0
    2.0842   -0.2154   -4.2357 H   0  0  0  0  0  0  0  0  0  0  0  0
    4.6782   -1.1660    0.3620 H   0  0  0  0  0  0  0  0  0  0  0  0
  1 14  1  0  0  0  0
  1 15  1  0  0  0  0
  2 16  1  0  0  0  0
  2  6  1  0  0  0  0
  3 19  1  0  0  0  0
  3  8  1  0  0  0  0
  4  1  1  0  0  0  0
  5 20  1  6  0  0  0
  5  2  1  0  0  0  0
  5  3  1  0  0  0  0
  6 21  1  6  0  0  0
  6  8  1  0  0  0  0
  6  7  1  0  0  0  0
  7 11  2  0  0  0  0
  7 12  1  0  0  0  0
  8  4  1  0  0  0  0
  9  4  2  0  0  0  0
 10  5  1  0  0  0  0
 13  1  1  0  0  0  0
 17  2  1  0  0  0  0
 18  3  1  0  0  0  0
 22 10  1  0  0  0  0
 23 12  1  0  0  0  0
M  END
>  <HBA>
5

>  <HBD>
2

>  <TPSA>
77.84

>  <cid>
65784

>  <dipole>
3.56

>  <excitation_energy_1>
5.436

>  <excitation_energy_2>
5.509

>  <excitation_energy_3>
6.032

>  <excitation_energy_4>
6.292

>  <homo_energy>
-7.021

>  <homo_lumo_gap>
7.072

>  <logP>
-1.009

>  <lumo_energy>
0.052

>  <melting_point>
115.15

>  <molecular_refractivity>
43.59

>  <oscillator_strength_1>
0.0013

>  <oscillator_strength_2>
0.0009

>  <oscillator_strength_3>
0.009

>  <oscillator_strength_4>
0.0082

>  <open_babel_can_smiles>
O[C@@H]1C[C@H](N(C1)C(=O)C)C(=O)O

>  <mulliken_charges>
23
1   -0.554774
2   -0.301251
3   -0.145218
4   0.56961
5   0.101591
6   -0.044442
7   0.591932
8   -0.49869
9   -0.482835
10   -0.622253
11   -0.449199
12   -0.57399
13   0.184476
14   0.182291
15   0.194788
16   0.163057
17   0.193065
18   0.188436
19   0.150949
20   0.137021
21   0.192554
22   0.398948
23   0.423935

>  <lowdin_charges>
23
1   -0.479761
2   -0.273768
3   -0.215954
4   0.163827
5   -0.011276
6   -0.096196
7   0.17153
8   -0.147023
9   -0.285125
10   -0.460166
11   -0.239283
12   -0.349957
13   0.177923
14   0.175525
15   0.184808
16   0.159065
17   0.179617
18   0.174303
19   0.149344
20   0.140623
21   0.175359
22   0.348874
23   0.357714

$$$$

