PCCDB-ID:  23562
public computational chemistry database (PCCDB) project, http://pccdb.org

 16 16  0  0  0  0  0  0  0  0999 V2000
    0.9110    0.0469    0.1607 C   0  0  0  0  0  0  0  0  0  0  0  0
    7.7707    0.0247   -0.4704 C   0  0  0  0  0  0  0  0  0  0  0  0
    3.1292   -1.1678   -0.0435 C   0  0  0  0  0  0  0  0  0  0  0  0
    3.1373    1.2366   -0.0373 C   0  0  0  0  0  0  0  0  0  0  0  0
    4.5163   -1.1828   -0.1720 C   0  0  0  0  0  0  0  0  0  0  0  0
    4.5217    1.2438   -0.1655 C   0  0  0  0  0  0  0  0  0  0  0  0
    2.4151    0.0349    0.0261 C   0  0  0  0  0  0  0  0  0  0  0  0
    5.2150    0.0276   -0.2331 C   0  0  0  0  0  0  0  0  0  0  0  0
    6.5944    0.0254   -0.3606 N   0  0  0  0  0  0  0  0  0  0  0  0
    0.5111   -0.9653    0.2736 H   0  0  0  0  0  0  0  0  0  0  0  0
    0.4354    0.4967   -0.7199 H   0  0  0  0  0  0  0  0  0  0  0  0
    0.5927    0.6325    1.0316 H   0  0  0  0  0  0  0  0  0  0  0  0
    2.5922   -2.1118    0.0032 H   0  0  0  0  0  0  0  0  0  0  0  0
    2.6059    2.1838    0.0148 H   0  0  0  0  0  0  0  0  0  0  0  0
    5.0631   -2.1185   -0.2241 H   0  0  0  0  0  0  0  0  0  0  0  0
    5.0749    2.1760   -0.2138 H   0  0  0  0  0  0  0  0  0  0  0  0
  1 10  1  0  0  0  0
  1 12  1  0  0  0  0
  2  9  3  0  0  0  0
  3 13  1  0  0  0  0
  3  7  2  0  0  0  0
  4 14  1  0  0  0  0
  4  7  1  0  0  0  0
  5  3  1  0  0  0  0
  6  4  2  0  0  0  0
  7  1  1  0  0  0  0
  8  5  2  0  0  0  0
  8  6  1  0  0  0  0
  9  8  1  0  0  0  0
 11  1  1  0  0  0  0
 15  5  1  0  0  0  0
 16  6  1  0  0  0  0
M  RAD  1   2   2
M  END
>  <HBA>
0

>  <HBD>
0

>  <TPSA>
0.0

>  <cid>
23562

>  <dipole>
4.38

>  <excitation_energy_1>
5.017

>  <excitation_energy_2>
5.327

>  <excitation_energy_3>
6.159

>  <excitation_energy_4>
6.172

>  <homo_energy>
-6.746

>  <homo_lumo_gap>
5.723

>  <logP>
1.776

>  <lumo_energy>
-1.023

>  <melting_point>
61.7

>  <molecular_refractivity>
36.45

>  <oscillator_strength_1>
0.0023

>  <oscillator_strength_2>
0.3281

>  <oscillator_strength_3>
0.0

>  <oscillator_strength_4>
0.0003

>  <open_babel_can_smiles>
Cc1ccc(cc1)[N]#[C]

>  <mulliken_charges>
16
1   -0.533354
2   -0.080677
3   -0.196731
4   -0.190922
5   -0.115747
6   -0.116688
7   0.18923
8   0.280053
9   -0.319258
10   0.160645
11   0.170194
12   0.168282
13   0.136379
14   0.136359
15   0.15607
16   0.156164

>  <lowdin_charges>
16
1   -0.442831
2   -0.095394
3   -0.159887
4   -0.156888
5   -0.150174
6   -0.149742
7   0.009666
8   0.03937
9   -0.056097
10   0.159305
11   0.165876
12   0.164987
13   0.16207
14   0.162204
15   0.173815
16   0.173718

$$$$

