PCCDB-ID:  174
public computational chemistry database (PCCDB) project, http://pccdb.org

 10  9  0  0  0  0  0  0  0  0999 V2000
    1.0408   -0.0536   -0.0525 C   0  0  0  0  0  0  0  0  0  0  0  0
    0.4994   -1.0338    0.9919 C   0  0  0  0  0  0  0  0  0  0  0  0
    2.4605   -0.0450   -0.1001 O   0  0  0  0  0  0  0  0  0  0  0  0
   -0.9200   -1.0893    0.9955 O   0  0  0  0  0  0  0  0  0  0  0  0
    0.6339    0.9558    0.1380 H   0  0  0  0  0  0  0  0  0  0  0  0
    0.7009   -0.3589   -1.0463 H   0  0  0  0  0  0  0  0  0  0  0  0
    0.8991   -0.7741    1.9888 H   0  0  0  0  0  0  0  0  0  0  0  0
    0.8467   -2.0436    0.7555 H   0  0  0  0  0  0  0  0  0  0  0  0
    2.7838    0.2990    0.7471 H   0  0  0  0  0  0  0  0  0  0  0  0
   -1.2503   -0.2233    1.2818 H   0  0  0  0  0  0  0  0  0  0  0  0
  1  5  1  0  0  0  0
  1  2  1  0  0  0  0
  2  4  1  0  0  0  0
  2  7  1  0  0  0  0
  3  1  1  0  0  0  0
  3  9  1  0  0  0  0
  4 10  1  0  0  0  0
  6  1  1  0  0  0  0
  8  2  1  0  0  0  0
M  END
>  <HBA>
2

>  <HBD>
2

>  <TPSA>
40.46

>  <cid>
174

>  <dipole>
2.48

>  <excitation_energy_1>
6.266

>  <excitation_energy_2>
6.415

>  <excitation_energy_3>
7.187

>  <excitation_energy_4>
7.332

>  <homo_energy>
-7.037

>  <homo_lumo_gap>
8.743

>  <logP>
-1.029

>  <lumo_energy>
1.706

>  <melting_point>
13.33

>  <molecular_refractivity>
14.05

>  <oscillator_strength_1>
0.0031

>  <oscillator_strength_2>
0.0206

>  <oscillator_strength_3>
0.0183

>  <oscillator_strength_4>
0.0189

>  <open_babel_can_smiles>
OCCO

>  <mulliken_charges>
10
1   -0.052514
2   -0.052877
3   -0.607219
4   -0.607195
5   0.107737
6   0.163283
7   0.107772
8   0.163344
9   0.388832
10   0.388837

>  <lowdin_charges>
10
1   -0.152058
2   -0.152116
3   -0.462108
4   -0.461816
5   0.118199
6   0.154672
7   0.118393
8   0.154462
9   0.341324
10   0.341046

$$$$

