PCCDB-ID:  66735
public computational chemistry database (PCCDB) project, http://pccdb.org

 23 23  0  0  0  0  0  0  0  0999 V2000
    0.8417   -0.0038    0.1656 C   0  0  0  0  0  0  0  0  0  0  0  0
    6.6586   -0.0941   -0.5942 C   0  0  0  0  0  0  0  0  0  0  0  0
    3.0793    1.1576   -0.1238 C   0  0  0  0  0  0  0  0  0  0  0  0
    4.4640    1.1197   -0.2974 C   0  0  0  0  0  0  0  0  0  0  0  0
    3.0329   -1.2333   -0.1746 C   0  0  0  0  0  0  0  0  0  0  0  0
    5.0897   -2.6387   -0.4994 C   0  0  0  0  0  0  0  0  0  0  0  0
    2.3368   -0.0231   -0.0550 C   0  0  0  0  0  0  0  0  0  0  0  0
    5.1590   -0.0876   -0.4125 C   0  0  0  0  0  0  0  0  0  0  0  0
    4.4181   -1.2883   -0.3505 C   0  0  0  0  0  0  0  0  0  0  0  0
    5.5550   -2.8477   -1.8827 N   0  0  0  0  0  0  0  0  0  0  0  0
    0.4019    0.9461   -0.1566 H   0  0  0  0  0  0  0  0  0  0  0  0
    0.5908   -0.1351    1.2271 H   0  0  0  0  0  0  0  0  0  0  0  0
    0.3429   -0.8097   -0.3845 H   0  0  0  0  0  0  0  0  0  0  0  0
    7.0428    0.9233   -0.7190 H   0  0  0  0  0  0  0  0  0  0  0  0
    6.9427   -0.6931   -1.4648 H   0  0  0  0  0  0  0  0  0  0  0  0
    7.1667   -0.5322    0.2765 H   0  0  0  0  0  0  0  0  0  0  0  0
    2.5746    2.1179   -0.0406 H   0  0  0  0  0  0  0  0  0  0  0  0
    5.0192    2.0540   -0.3490 H   0  0  0  0  0  0  0  0  0  0  0  0
    2.4751   -2.1682   -0.1300 H   0  0  0  0  0  0  0  0  0  0  0  0
    4.3939   -3.4186   -0.1447 H   0  0  0  0  0  0  0  0  0  0  0  0
    5.9744   -2.6927    0.1482 H   0  0  0  0  0  0  0  0  0  0  0  0
    4.7509   -2.8447   -2.5091 H   0  0  0  0  0  0  0  0  0  0  0  0
    5.9812   -3.7703   -1.9636 H   0  0  0  0  0  0  0  0  0  0  0  0
  1 12  1  0  0  0  0
  2  8  1  0  0  0  0
  2 16  1  0  0  0  0
  3  7  1  0  0  0  0
  3 17  1  0  0  0  0
  4  3  2  0  0  0  0
  5 19  1  0  0  0  0
  5  7  2  0  0  0  0
  6  9  1  0  0  0  0
  6 20  1  0  0  0  0
  6 21  1  0  0  0  0
  7  1  1  0  0  0  0
  8  9  2  0  0  0  0
  8  4  1  0  0  0  0
  9  5  1  0  0  0  0
 10  6  1  0  0  0  0
 11  1  1  0  0  0  0
 13  1  1  0  0  0  0
 14  2  1  0  0  0  0
 15  2  1  0  0  0  0
 18  4  1  0  0  0  0
 22 10  1  0  0  0  0
 23 10  1  0  0  0  0
M  END
>  <HBA>
1

>  <HBD>
1

>  <TPSA>
26.02

>  <cid>
66735

>  <dipole>
1.44

>  <excitation_energy_1>
5.083

>  <excitation_energy_2>
5.399

>  <excitation_energy_3>
5.521

>  <excitation_energy_4>
5.763

>  <homo_energy>
-6.019

>  <homo_lumo_gap>
6.163

>  <logP>
2.462

>  <lumo_energy>
0.144

>  <melting_point>
71.08

>  <molecular_refractivity>
44.05

>  <oscillator_strength_1>
0.0075

>  <oscillator_strength_2>
0.0036

>  <oscillator_strength_3>
0.0367

>  <oscillator_strength_4>
0.0126

>  <open_babel_can_smiles>
NCc1cc(C)ccc1C

>  <mulliken_charges>
23
1   -0.529749
2   -0.541126
3   -0.179902
4   -0.186454
5   -0.246764
6   -0.225315
7   0.185334
8   0.144241
9   0.121697
10   -0.705947
11   0.154054
12   0.16248
13   0.15373
14   0.144497
15   0.194914
16   0.14967
17   0.116554
18   0.118225
19   0.109636
20   0.121284
21   0.146412
22   0.297335
23   0.29519

>  <lowdin_charges>
23
1   -0.442087
2   -0.44995
3   -0.169243
4   -0.167428
5   -0.179554
6   -0.203367
7   -0.005375
8   0.002073
9   -0.019661
10   -0.554714
11   0.15645
12   0.158362
13   0.157177
14   0.151428
15   0.176489
16   0.154659
17   0.152148
18   0.152691
19   0.148014
20   0.125891
21   0.14833
22   0.255144
23   0.252523

$$$$

