PCCDB-ID:  15947
public computational chemistry database (PCCDB) project, http://pccdb.org

 17 17  0  0  0  0  0  0  0  0999 V2000
    0.9664    0.0886    0.5326 C   0  0  0  0  0  0  0  0  0  0  0  0
    3.1113    1.2661    0.3813 C   0  0  0  0  0  0  0  0  0  0  0  0
    3.0632   -1.1072    0.2848 C   0  0  0  0  0  0  0  0  0  0  0  0
    3.8333    0.0571    2.2407 C   0  0  0  0  0  0  0  0  0  0  0  0
    3.7045    1.2171    1.7196 N   0  0  0  0  0  0  0  0  0  0  0  0
    3.4031   -1.1422    1.7195 N   0  0  0  0  0  0  0  0  0  0  0  0
    2.3228    0.0942   -0.0225 N   0  0  0  0  0  0  0  0  0  0  0  0
    4.4083   -0.0971    3.4620 O   0  0  0  0  0  0  0  0  0  0  0  0
    0.4422    0.9872    0.1927 H   0  0  0  0  0  0  0  0  0  0  0  0
    0.9286    0.0583    1.6326 H   0  0  0  0  0  0  0  0  0  0  0  0
    0.4259   -0.7826    0.1463 H   0  0  0  0  0  0  0  0  0  0  0  0
    3.9163    1.4095   -0.3538 H   0  0  0  0  0  0  0  0  0  0  0  0
    2.4608    2.1444    0.3185 H   0  0  0  0  0  0  0  0  0  0  0  0
    2.4647   -1.9919    0.0480 H   0  0  0  0  0  0  0  0  0  0  0  0
    3.9720   -1.1246   -0.3352 H   0  0  0  0  0  0  0  0  0  0  0  0
    3.8462   -1.9705    2.0968 H   0  0  0  0  0  0  0  0  0  0  0  0
    4.6391    0.8067    3.7423 H   0  0  0  0  0  0  0  0  0  0  0  0
  1 10  1  0  0  0  0
  2  5  1  0  0  0  0
  3  6  1  0  0  0  0
  4  8  1  0  0  0  0
  5  4  2  0  0  0  0
  6 16  1  0  0  0  0
  6  4  1  0  0  0  0
  7  3  1  0  0  0  0
  7  2  1  0  0  0  0
  7  1  1  0  0  0  0
  8 17  1  0  0  0  0
  9  1  1  0  0  0  0
 11  1  1  0  0  0  0
 12  2  1  0  0  0  0
 13  2  1  0  0  0  0
 14  3  1  0  0  0  0
 15  3  1  0  0  0  0
M  END
>  <HBA>
4

>  <HBD>
2

>  <TPSA>
44.37

>  <cid>
15947

>  <dipole>
1.6

>  <excitation_energy_1>
5.345

>  <excitation_energy_2>
5.48

>  <excitation_energy_3>
5.812

>  <excitation_energy_4>
5.856

>  <homo_energy>
-5.87

>  <homo_lumo_gap>
7.358

>  <logP>
-0.259

>  <lumo_energy>
1.488

>  <melting_point>
86.06

>  <molecular_refractivity>
40.06

>  <oscillator_strength_1>
0.0115

>  <oscillator_strength_2>
0.0022

>  <oscillator_strength_3>
0.011

>  <oscillator_strength_4>
0.0189

>  <open_babel_can_smiles>
CN1CNC(=NC1)O

>  <mulliken_charges>
17
1   -0.302942
2   -0.034935
3   -0.012936
4   0.660167
5   -0.501669
6   -0.606011
7   -0.377911
8   -0.614322
9   0.153273
10   0.150851
11   0.145508
12   0.147654
13   0.146572
14   0.151768
15   0.153093
16   0.327844
17   0.413995

>  <lowdin_charges>
17
1   -0.356526
2   -0.140873
3   -0.128987
4   0.153278
5   -0.31067
6   -0.325541
7   -0.185561
8   -0.379027
9   0.153196
10   0.136361
11   0.149791
12   0.142343
13   0.149315
14   0.152049
15   0.140372
16   0.286973
17   0.363506

$$$$

