PCCDB-ID:  10366
public computational chemistry database (PCCDB) project, http://pccdb.org

 17 17  0  0  0  0  0  0  0  0999 V2000
   -0.4743    1.0769    0.0545 C   0  0  0  0  0  0  0  0  0  0  0  0
   -0.5762   -1.3163   -0.0114 C   0  0  0  0  0  0  0  0  0  0  0  0
    1.4626   -0.3069   -0.2029 C   0  0  0  0  0  0  0  0  0  0  0  0
   -1.2408   -0.0838    0.1188 C   0  0  0  0  0  0  0  0  0  0  0  0
    0.9091    0.9760   -0.1288 C   0  0  0  0  0  0  0  0  0  0  0  0
   -2.7347   -0.1037    0.2768 C   0  0  0  0  0  0  0  0  0  0  0  0
    1.7028    2.2491   -0.1853 C   0  0  0  0  0  0  0  0  0  0  0  0
    0.7449   -1.4350   -0.1502 N   0  0  0  0  0  0  0  0  0  0  0  0
   -3.4060   -1.0579   -0.0320 O   0  0  0  0  0  0  0  0  0  0  0  0
   -3.3166    1.0106    0.7854 O   0  0  0  0  0  0  0  0  0  0  0  0
    1.2590    3.3029    0.2039 O   0  0  0  0  0  0  0  0  0  0  0  0
    2.9582    2.1787   -0.6901 O   0  0  0  0  0  0  0  0  0  0  0  0
   -0.9018    2.0744    0.1154 H   0  0  0  0  0  0  0  0  0  0  0  0
   -1.1570   -2.2345    0.0084 H   0  0  0  0  0  0  0  0  0  0  0  0
    2.5402   -0.4522   -0.2861 H   0  0  0  0  0  0  0  0  0  0  0  0
   -2.6502    1.6362    1.1132 H   0  0  0  0  0  0  0  0  0  0  0  0
    3.1261    1.3109   -1.0921 H   0  0  0  0  0  0  0  0  0  0  0  0
  1 13  1  0  0  0  0
  1  4  1  0  0  0  0
  2 14  1  0  0  0  0
  2  4  2  0  0  0  0
  3  8  2  0  0  0  0
  3  5  1  0  0  0  0
  4  6  1  0  0  0  0
  5  1  2  0  0  0  0
  6 10  1  0  0  0  0
  7  5  1  0  0  0  0
  7 11  2  0  0  0  0
  8  2  1  0  0  0  0
  9  6  2  0  0  0  0
 10 16  1  0  0  0  0
 12  7  1  0  0  0  0
 15  3  1  0  0  0  0
 17 12  1  0  0  0  0
M  END
>  <HBA>
5

>  <HBD>
2

>  <TPSA>
87.49

>  <cid>
10366

>  <dipole>
2.58

>  <excitation_energy_1>
4.145

>  <excitation_energy_2>
4.367

>  <excitation_energy_3>
4.604

>  <excitation_energy_4>
4.726

>  <homo_energy>
-7.78

>  <homo_lumo_gap>
5.377

>  <logP>
0.478

>  <lumo_energy>
-2.403

>  <melting_point>
202.48

>  <molecular_refractivity>
38.16

>  <oscillator_strength_1>
0.0002

>  <oscillator_strength_2>
0.0035

>  <oscillator_strength_3>
0.0032

>  <oscillator_strength_4>
0.002

>  <open_babel_can_smiles>
OC(=O)c1cncc(c1)C(=O)O

>  <mulliken_charges>
17
1   -0.181998
2   0.041416
3   -0.007883
4   0.021213
5   0.033236
6   0.568791
7   0.570499
8   -0.406784
9   -0.433491
10   -0.567442
11   -0.440055
12   -0.567778
13   0.181866
14   0.19653
15   0.151043
16   0.42101
17   0.419828

>  <lowdin_charges>
17
1   -0.109432
2   -0.046048
3   -0.078309
4   -0.068633
5   -0.071917
6   0.198444
7   0.19775
8   -0.12892
9   -0.226449
10   -0.344957
11   -0.232813
12   -0.341721
13   0.181783
14   0.186711
15   0.158351
16   0.364575
17   0.361585

$$$$

