PCCDB-ID:  39595
public computational chemistry database (PCCDB) project, http://pccdb.org

 39 39  0  0  0  0  0  0  0  0999 V2000
    4.0032    2.6946   -3.8989 C   0  0  0  0  0  0  0  0  0  0  0  0
    3.4744    0.4796    3.6556 C   0  0  0  0  0  0  0  0  0  0  0  0
    7.9821   -0.3026    1.4793 C   0  0  0  0  0  0  0  0  0  0  0  0
    2.1664    0.1955   -0.6155 C   0  0  0  0  0  0  0  0  0  0  0  0
    3.7222    2.1588   -2.4907 C   0  0  0  0  0  0  0  0  0  0  0  0
    6.7768    2.3794    3.9154 C   0  0  0  0  0  0  0  0  0  0  0  0
    5.4468    2.0044    4.0982 C   0  0  0  0  0  0  0  0  0  0  0  0
    7.5877    1.6321    3.0628 C   0  0  0  0  0  0  0  0  0  0  0  0
    3.7587    0.6219   -2.4467 C   0  0  0  0  0  0  0  0  0  0  0  0
    4.5519    0.2443   -0.1349 C   0  0  0  0  0  0  0  0  0  0  0  0
    4.9073    0.8995    3.4323 C   0  0  0  0  0  0  0  0  0  0  0  0
    7.0880    0.5220    2.3746 C   0  0  0  0  0  0  0  0  0  0  0  0
    4.7102   -0.9787    0.7825 C   0  0  0  0  0  0  0  0  0  0  0  0
    5.7318    0.1680    2.5489 C   0  0  0  0  0  0  0  0  0  0  0  0
    5.2298   -1.0029    1.9409 N   0  0  0  0  0  0  0  0  0  0  0  0
    3.5186   -0.0132   -1.1418 N   0  0  0  0  0  0  0  0  0  0  0  0
    4.2549   -2.1177    0.2297 O   0  0  0  0  0  0  0  0  0  0  0  0
    3.9718    3.7890   -3.9199 H   0  0  0  0  0  0  0  0  0  0  0  0
    3.2626    2.3266   -4.6196 H   0  0  0  0  0  0  0  0  0  0  0  0
    4.9934    2.3833   -4.2536 H   0  0  0  0  0  0  0  0  0  0  0  0
    3.4069   -0.5964    3.8529 H   0  0  0  0  0  0  0  0  0  0  0  0
    2.8426    0.6752    2.7779 H   0  0  0  0  0  0  0  0  0  0  0  0
    3.0356    1.0196    4.5007 H   0  0  0  0  0  0  0  0  0  0  0  0
    9.0307   -0.0127    1.6010 H   0  0  0  0  0  0  0  0  0  0  0  0
    7.7330   -0.1843    0.4155 H   0  0  0  0  0  0  0  0  0  0  0  0
    7.8866   -1.3709    1.7041 H   0  0  0  0  0  0  0  0  0  0  0  0
    1.4325   -0.0659   -1.3844 H   0  0  0  0  0  0  0  0  0  0  0  0
    1.9790    1.2315   -0.2901 H   0  0  0  0  0  0  0  0  0  0  0  0
    2.0067   -0.4633    0.2441 H   0  0  0  0  0  0  0  0  0  0  0  0
    2.7419    2.5180   -2.1526 H   0  0  0  0  0  0  0  0  0  0  0  0
    4.4620    2.5657   -1.7884 H   0  0  0  0  0  0  0  0  0  0  0  0
    7.1824    3.2365    4.4461 H   0  0  0  0  0  0  0  0  0  0  0  0
    4.8116    2.5703    4.7765 H   0  0  0  0  0  0  0  0  0  0  0  0
    8.6322    1.9058    2.9293 H   0  0  0  0  0  0  0  0  0  0  0  0
    4.7363    0.2721   -2.8034 H   0  0  0  0  0  0  0  0  0  0  0  0
    3.0103    0.2205   -3.1427 H   0  0  0  0  0  0  0  0  0  0  0  0
    5.5078    0.4049   -0.6479 H   0  0  0  0  0  0  0  0  0  0  0  0
    4.3637    1.1377    0.4762 H   0  0  0  0  0  0  0  0  0  0  0  0
    3.8696   -1.8275   -0.6339 H   0  0  0  0  0  0  0  0  0  0  0  0
  1  5  1  0  0  0  0
  2 21  1  0  0  0  0
  2 23  1  0  0  0  0
  3 24  1  0  0  0  0
  3 26  1  0  0  0  0
  3 12  1  0  0  0  0
  4 28  1  0  0  0  0
  4 29  1  0  0  0  0
  5  9  1  0  0  0  0
  5 30  1  0  0  0  0
  5 31  1  0  0  0  0
  6  7  1  0  0  0  0
  6 32  1  0  0  0  0
  7 33  1  0  0  0  0
  8  6  2  0  0  0  0
  9 16  1  0  0  0  0
 10 38  1  0  0  0  0
 10 13  1  0  0  0  0
 11  2  1  0  0  0  0
 11  7  2  0  0  0  0
 12 14  2  0  0  0  0
 12  8  1  0  0  0  0
 13 15  2  0  0  0  0
 14 11  1  0  0  0  0
 15 14  1  0  0  0  0
 16  4  1  0  0  0  0
 16 10  1  0  0  0  0
 17 13  1  0  0  0  0
 18  1  1  0  0  0  0
 19  1  1  0  0  0  0
 20  1  1  0  0  0  0
 22  2  1  0  0  0  0
 25  3  1  0  0  0  0
 27  4  1  0  0  0  0
 34  8  1  0  0  0  0
 35  9  1  0  0  0  0
 36  9  1  0  0  0  0
 37 10  1  0  0  0  0
 39 17  1  0  0  0  0
M  END
>  <HBA>
3

>  <HBD>
1

>  <TPSA>
32.34

>  <cid>
39595

>  <dipole>
5.16

>  <excitation_energy_1>
4.675

>  <excitation_energy_2>
4.904

>  <excitation_energy_3>
4.937

>  <excitation_energy_4>
5.293

>  <homo_energy>
-5.404

>  <homo_lumo_gap>
5.861

>  <logP>
2.657

>  <lumo_energy>
0.457

>  <melting_point>
68.25

>  <molecular_refractivity>
72.81

>  <oscillator_strength_1>
0.0028

>  <oscillator_strength_2>
0.0192

>  <oscillator_strength_3>
0.0133

>  <oscillator_strength_4>
0.0341

>  <open_babel_can_smiles>
CCCN(C/C(=N\c1c(C)cccc1C)/O)C

>  <mulliken_charges>
39
1   -0.446656
2   -0.531313
3   -0.5319
4   -0.317711
5   -0.268536
6   -0.120488
7   -0.208453
8   -0.207734
9   -0.128666
10   -0.21831
11   0.175536
12   0.175587
13   0.491925
14   0.088927
15   -0.481698
16   -0.439607
17   -0.59061
18   0.153102
19   0.146653
20   0.147242
21   0.177825
22   0.14151
23   0.146922
24   0.147639
25   0.141896
26   0.178514
27   0.159106
28   0.146359
29   0.174106
30   0.143386
31   0.146405
32   0.117316
33   0.114315
34   0.114285
35   0.144579
36   0.14329
37   0.180146
38   0.174254
39   0.420854

>  <lowdin_charges>
39
1   -0.441802
2   -0.442101
3   -0.437355
4   -0.363923
5   -0.292187
6   -0.175603
7   -0.172872
8   -0.169742
9   -0.204658
10   -0.239068
11   -0.025171
12   -0.025066
13   0.125497
14   0.027566
15   -0.180557
16   -0.187968
17   -0.35869
18   0.154019
19   0.150053
20   0.148868
21   0.166489
22   0.148362
23   0.153918
24   0.15213
25   0.145855
26   0.16683
27   0.15748
28   0.13597
29   0.161211
30   0.145097
31   0.147198
32   0.153764
33   0.152275
34   0.149464
35   0.145168
36   0.146868
37   0.169603
38   0.160705
39   0.352373

$$$$

