PCCDB-ID:  65865
public computational chemistry database (PCCDB) project, http://pccdb.org

 28 29  0  0  0  0  0  0  0  0999 V2000
    3.7231    0.7241   -2.7135 C   0  0  0  0  0  0  0  0  0  0  0  0
   -1.2824    3.5595    1.9379 C   0  0  0  0  0  0  0  0  0  0  0  0
   -0.1446    4.5055    1.5262 C   0  0  0  0  0  0  0  0  0  0  0  0
   -0.8351    2.0932    1.8387 C   0  0  0  0  0  0  0  0  0  0  0  0
    0.4185    4.1396    0.1469 C   0  0  0  0  0  0  0  0  0  0  0  0
   -0.2593    1.7981    0.4481 C   0  0  0  0  0  0  0  0  0  0  0  0
    2.4429    0.0536    0.6657 C   0  0  0  0  0  0  0  0  0  0  0  0
    3.2509    0.3506   -1.3528 C   0  0  0  0  0  0  0  0  0  0  0  0
    2.4871    0.9951   -0.4089 C   0  0  0  0  0  0  0  0  0  0  0  0
    2.0001    2.3996   -0.5121 C   0  0  0  0  0  0  0  0  0  0  0  0
    3.0943   -1.0505    0.4023 N   0  0  0  0  0  0  0  0  0  0  0  0
    0.8240    2.7301    0.1229 N   0  0  0  0  0  0  0  0  0  0  0  0
    2.6739    3.2385   -1.1130 O   0  0  0  0  0  0  0  0  0  0  0  0
    3.5995   -0.8659   -0.8957 O   0  0  0  0  0  0  0  0  0  0  0  0
    3.4777    1.7692   -2.9044 H   0  0  0  0  0  0  0  0  0  0  0  0
    3.2609    0.0863   -3.4764 H   0  0  0  0  0  0  0  0  0  0  0  0
    4.8085    0.5945   -2.7867 H   0  0  0  0  0  0  0  0  0  0  0  0
   -2.1444    3.7166    1.2727 H   0  0  0  0  0  0  0  0  0  0  0  0
   -1.6252    3.7884    2.9540 H   0  0  0  0  0  0  0  0  0  0  0  0
    0.6670    4.4502    2.2639 H   0  0  0  0  0  0  0  0  0  0  0  0
   -0.4940    5.5452    1.5081 H   0  0  0  0  0  0  0  0  0  0  0  0
   -1.6760    1.4162    2.0334 H   0  0  0  0  0  0  0  0  0  0  0  0
   -0.0673    1.8864    2.5969 H   0  0  0  0  0  0  0  0  0  0  0  0
    1.2907    4.7394   -0.1120 H   0  0  0  0  0  0  0  0  0  0  0  0
   -0.3444    4.3112   -0.6298 H   0  0  0  0  0  0  0  0  0  0  0  0
   -1.0572    1.9148   -0.3044 H   0  0  0  0  0  0  0  0  0  0  0  0
    0.0986    0.7722    0.3717 H   0  0  0  0  0  0  0  0  0  0  0  0
    1.9759    0.1590    1.6372 H   0  0  0  0  0  0  0  0  0  0  0  0
  1  8  1  0  0  0  0
  2 19  1  0  0  0  0
  3  2  1  0  0  0  0
  3 20  1  0  0  0  0
  4  2  1  0  0  0  0
  4 22  1  0  0  0  0
  4 23  1  0  0  0  0
  5  3  1  0  0  0  0
  6  4  1  0  0  0  0
  7 28  1  0  0  0  0
  8 14  1  0  0  0  0
  8  9  2  0  0  0  0
  9  7  1  0  0  0  0
 10  9  1  0  0  0  0
 10 12  1  0  0  0  0
 11  7  2  0  0  0  0
 12  5  1  0  0  0  0
 12  6  1  0  0  0  0
 13 10  2  0  0  0  0
 14 11  1  0  0  0  0
 15  1  1  0  0  0  0
 16  1  1  0  0  0  0
 17  1  1  0  0  0  0
 18  2  1  0  0  0  0
 21  3  1  0  0  0  0
 24  5  1  0  0  0  0
 25  5  1  0  0  0  0
 26  6  1  0  0  0  0
 27  6  1  0  0  0  0
M  END
>  <HBA>
4

>  <HBD>
0

>  <TPSA>
46.34

>  <cid>
65865

>  <dipole>
3.63

>  <excitation_energy_1>
4.882

>  <excitation_energy_2>
5.267

>  <excitation_energy_3>
5.622

>  <excitation_energy_4>
5.718

>  <homo_energy>
-6.55

>  <homo_lumo_gap>
5.889

>  <logP>
1.547

>  <lumo_energy>
-0.661

>  <melting_point>
80.34

>  <molecular_refractivity>
55.59

>  <oscillator_strength_1>
0.0023

>  <oscillator_strength_2>
0.0667

>  <oscillator_strength_3>
0.1097

>  <oscillator_strength_4>
0.1371

>  <open_babel_can_smiles>
O=C(c1cnoc1C)N1CCCCC1

>  <mulliken_charges>
28
1   -0.531043
2   -0.268494
3   -0.264265
4   -0.261418
5   -0.142482
6   -0.151714
7   0.023587
8   0.404614
9   -0.087298
10   0.538442
11   -0.165712
12   -0.436146
13   -0.526386
14   -0.366867
15   0.211599
16   0.177564
17   0.185121
18   0.133832
19   0.142721
20   0.144179
21   0.141893
22   0.142309
23   0.140635
24   0.192059
25   0.138788
26   0.145419
27   0.166755
28   0.172308

>  <lowdin_charges>
28
1   -0.446086
2   -0.279929
3   -0.281699
4   -0.285319
5   -0.199949
6   -0.199999
7   -0.130613
8   0.122142
9   -0.122709
10   0.165383
11   -0.06975
12   -0.111705
13   -0.316623
14   -0.068722
15   0.191431
16   0.17464
17   0.177188
18   0.140944
19   0.148711
20   0.147448
21   0.150046
22   0.15178
23   0.144188
24   0.178315
25   0.139321
26   0.141026
27   0.163264
28   0.177276

$$$$

