PCCDB-ID:  70235
public computational chemistry database (PCCDB) project, http://pccdb.org

 17 16  0  0  0  0  0  0  0  0999 V2000
    0.8369    0.0761   -0.0532 C   0  0  0  0  0  0  0  0  0  0  0  0
    2.2979    0.0442   -0.0398 C   0  0  0  0  0  0  0  0  0  0  0  0
    3.5078    0.0312   -0.0350 C   0  0  0  0  0  0  0  0  0  0  0  0
    4.9738    0.0031   -0.0225 C   0  0  0  0  0  0  0  0  0  0  0  0
    5.5708   -1.3811    0.3133 C   0  0  0  0  0  0  0  0  0  0  0  0
    5.2418   -1.8626    1.7278 C   0  0  0  0  0  0  0  0  0  0  0  0
    5.8489   -3.1148    2.0289 O   0  0  0  0  0  0  0  0  0  0  0  0
    0.4478    0.8352    0.6365 H   0  0  0  0  0  0  0  0  0  0  0  0
    0.4119   -0.8899    0.2460 H   0  0  0  0  0  0  0  0  0  0  0  0
    0.4516    0.3103   -1.0533 H   0  0  0  0  0  0  0  0  0  0  0  0
    5.3480    0.7421    0.7012 H   0  0  0  0  0  0  0  0  0  0  0  0
    5.3529    0.3239   -1.0021 H   0  0  0  0  0  0  0  0  0  0  0  0
    6.6610   -1.3375    0.2022 H   0  0  0  0  0  0  0  0  0  0  0  0
    5.2025   -2.1166   -0.4155 H   0  0  0  0  0  0  0  0  0  0  0  0
    4.1509   -1.9004    1.8676 H   0  0  0  0  0  0  0  0  0  0  0  0
    5.6412   -1.1583    2.4664 H   0  0  0  0  0  0  0  0  0  0  0  0
    5.4389   -3.7809    1.4557 H   0  0  0  0  0  0  0  0  0  0  0  0
  1  2  1  0  0  0  0
  1  9  1  0  0  0  0
  1  8  1  0  0  0  0
  2  3  3  0  0  0  0
  3  4  1  0  0  0  0
  4  5  1  0  0  0  0
  4 11  1  0  0  0  0
  5  6  1  0  0  0  0
  6 15  1  0  0  0  0
  6  7  1  0  0  0  0
  6 16  1  0  0  0  0
 10  1  1  0  0  0  0
 12  4  1  0  0  0  0
 13  5  1  0  0  0  0
 14  5  1  0  0  0  0
 17  7  1  0  0  0  0
M  END
>  <HBA>
1

>  <HBD>
1

>  <TPSA>
20.23

>  <cid>
70235

>  <dipole>
1.81

>  <excitation_energy_1>
6.047

>  <excitation_energy_2>
6.176

>  <excitation_energy_3>
6.309

>  <excitation_energy_4>
6.374

>  <homo_energy>
-6.577

>  <homo_lumo_gap>
8.09

>  <logP>
0.782

>  <lumo_energy>
1.513

>  <melting_point>
9.4

>  <molecular_refractivity>
30.28

>  <oscillator_strength_1>
0.0104

>  <oscillator_strength_2>
0.0213

>  <oscillator_strength_3>
0.0042

>  <oscillator_strength_4>
0.0031

>  <open_babel_can_smiles>
CC#CCCCO

>  <mulliken_charges>
17
1   -0.574109
2   0.013613
3   0.075423
4   -0.408762
5   -0.271957
6   -0.029256
7   -0.615608
8   0.178453
9   0.17629
10   0.17777
11   0.165336
12   0.167806
13   0.1486
14   0.132507
15   0.135139
16   0.142525
17   0.38623

>  <lowdin_charges>
17
1   -0.424698
2   -0.088307
3   -0.092599
4   -0.260383
5   -0.286334
6   -0.136148
7   -0.46989
8   0.173292
9   0.171304
10   0.171383
11   0.163754
12   0.167037
13   0.148773
14   0.142777
15   0.132096
16   0.146105
17   0.341837

$$$$

