PCCDB-ID:  23652
public computational chemistry database (PCCDB) project, http://pccdb.org

 44 43  0  0  1  0  0  0  0  0999 V2000
   -0.7570    2.4815    0.3125 C   0  0  0  0  0  0  0  0  0  0  0  0
    1.2009    3.2599   -1.7751 C   0  0  0  0  0  0  0  0  0  0  0  0
    3.1143    2.8643   -0.2404 C   0  0  0  0  0  0  0  0  0  0  0  0
    1.7073    0.9289   -1.0087 C   0  0  0  0  0  0  0  0  0  0  0  0
   -0.0948    0.4955    4.5900 C   0  0  0  0  0  0  0  0  0  0  0  0
    2.3430    0.2807    4.1061 C   0  0  0  0  0  0  0  0  0  0  0  0
    1.5523    1.9052    5.8162 C   0  0  0  0  0  0  0  0  0  0  0  0
    2.2840    3.4076    3.3960 C   0  0  0  0  0  0  0  0  0  0  0  0
   -0.1953    3.2512    3.5303 C   0  0  0  0  0  0  0  0  0  0  0  0
    1.1017    1.7614    1.8924 C   0  0  0  0  0  0  0  0  0  0  0  0
    0.7359    2.6473    0.6627 C   0  0  1  0  0  0  0  0  0  0  0  0
    1.6776    2.4098   -0.5765 C   0  0  0  0  0  0  0  0  0  0  0  0
    1.2205    1.2945    4.4338 C   0  0  0  0  0  0  0  0  0  0  0  0
    1.0927    2.4255    3.3104 C   0  0  0  0  0  0  0  0  0  0  0  0
   -1.3819    2.6217    1.1983 H   0  0  0  0  0  0  0  0  0  0  0  0
   -0.9676    1.4771   -0.0744 H   0  0  0  0  0  0  0  0  0  0  0  0
   -1.0910    3.2056   -0.4368 H   0  0  0  0  0  0  0  0  0  0  0  0
    1.9345    3.2152   -2.5893 H   0  0  0  0  0  0  0  0  0  0  0  0
    1.0828    4.3144   -1.4943 H   0  0  0  0  0  0  0  0  0  0  0  0
    0.2458    2.9093   -2.1787 H   0  0  0  0  0  0  0  0  0  0  0  0
    3.7716    2.7247   -1.1073 H   0  0  0  0  0  0  0  0  0  0  0  0
    3.5513    2.3033    0.5922 H   0  0  0  0  0  0  0  0  0  0  0  0
    3.1395    3.9285    0.0260 H   0  0  0  0  0  0  0  0  0  0  0  0
    2.3555    0.8021   -1.8846 H   0  0  0  0  0  0  0  0  0  0  0  0
    0.7114    0.5647   -1.2855 H   0  0  0  0  0  0  0  0  0  0  0  0
    2.0951    0.2774   -0.2180 H   0  0  0  0  0  0  0  0  0  0  0  0
    0.0675   -0.3571    5.2604 H   0  0  0  0  0  0  0  0  0  0  0  0
   -0.4581    0.0946    3.6375 H   0  0  0  0  0  0  0  0  0  0  0  0
   -0.8955    1.1015    5.0261 H   0  0  0  0  0  0  0  0  0  0  0  0
    2.4907   -0.3930    4.9588 H   0  0  0  0  0  0  0  0  0  0  0  0
    3.3033    0.7708    3.9108 H   0  0  0  0  0  0  0  0  0  0  0  0
    2.1000   -0.3432    3.2402 H   0  0  0  0  0  0  0  0  0  0  0  0
    1.5139    1.1226    6.5837 H   0  0  0  0  0  0  0  0  0  0  0  0
    0.8407    2.6833    6.1125 H   0  0  0  0  0  0  0  0  0  0  0  0
    2.5571    2.3387    5.8460 H   0  0  0  0  0  0  0  0  0  0  0  0
    2.2634    4.1123    2.5578 H   0  0  0  0  0  0  0  0  0  0  0  0
    3.2504    2.8923    3.3620 H   0  0  0  0  0  0  0  0  0  0  0  0
    2.2534    4.0030    4.3141 H   0  0  0  0  0  0  0  0  0  0  0  0
   -0.2421    4.0885    2.8264 H   0  0  0  0  0  0  0  0  0  0  0  0
   -0.2257    3.6822    4.5369 H   0  0  0  0  0  0  0  0  0  0  0  0
   -1.1036    2.6566    3.3985 H   0  0  0  0  0  0  0  0  0  0  0  0
    2.1020    1.3442    1.7500 H   0  0  0  0  0  0  0  0  0  0  0  0
    0.4241    0.8988    1.8935 H   0  0  0  0  0  0  0  0  0  0  0  0
    0.8856    3.7030    0.9312 H   0  0  0  0  0  0  0  0  0  0  0  0
  1 11  1  0  0  0  0
  1 15  1  0  0  0  0
  2 19  1  0  0  0  0
  2 12  1  0  0  0  0
  3 23  1  0  0  0  0
  3 22  1  0  0  0  0
  4 12  1  0  0  0  0
  4 26  1  0  0  0  0
  5 29  1  0  0  0  0
  5 27  1  0  0  0  0
  6 13  1  0  0  0  0
  6 30  1  0  0  0  0
  7 35  1  0  0  0  0
  7 34  1  0  0  0  0
  7 33  1  0  0  0  0
  8 38  1  0  0  0  0
  9 40  1  0  0  0  0
 10 43  1  0  0  0  0
 10 14  1  0  0  0  0
 11 44  1  1  0  0  0
 11 10  1  0  0  0  0
 12  3  1  0  0  0  0
 12 11  1  0  0  0  0
 13  5  1  0  0  0  0
 13  7  1  0  0  0  0
 14  8  1  0  0  0  0
 14  9  1  0  0  0  0
 14 13  1  0  0  0  0
 16  1  1  0  0  0  0
 17  1  1  0  0  0  0
 18  2  1  0  0  0  0
 20  2  1  0  0  0  0
 21  3  1  0  0  0  0
 24  4  1  0  0  0  0
 25  4  1  0  0  0  0
 28  5  1  0  0  0  0
 31  6  1  0  0  0  0
 32  6  1  0  0  0  0
 36  8  1  0  0  0  0
 37  8  1  0  0  0  0
 39  9  1  0  0  0  0
 41  9  1  0  0  0  0
 42 10  1  0  0  0  0
M  END
>  <HBA>
0

>  <HBD>
0

>  <TPSA>
0.0

>  <cid>
23652

>  <dipole>
0.05

>  <excitation_energy_1>
7.086

>  <excitation_energy_2>
7.266

>  <excitation_energy_3>
7.421

>  <excitation_energy_4>
7.431

>  <homo_energy>
-7.617

>  <homo_lumo_gap>
9.47

>  <logP>
5.131

>  <lumo_energy>
1.853

>  <melting_point>
24.18

>  <molecular_refractivity>
68.63

>  <oscillator_strength_1>
0.0068

>  <oscillator_strength_2>
0.0021

>  <oscillator_strength_3>
0.0048

>  <oscillator_strength_4>
0.0232

>  <open_babel_can_smiles>
C[C@H](C(C)(C)C)CC(C(C)(C)C)(C)C

>  <mulliken_charges>
44
1   -0.473528
2   -0.451107
3   -0.449687
4   -0.451129
5   -0.459716
6   -0.459972
7   -0.459022
8   -0.467939
9   -0.470111
10   -0.301424
11   -0.056796
12   0.095304
13   0.113257
14   0.108538
15   0.147647
16   0.14037
17   0.143272
18   0.135731
19   0.135543
20   0.143615
21   0.136072
22   0.143004
23   0.136743
24   0.136527
25   0.139794
26   0.142211
27   0.136208
28   0.141876
29   0.143163
30   0.136052
31   0.139703
32   0.143902
33   0.136196
34   0.140038
35   0.143493
36   0.142998
37   0.139441
38   0.142872
39   0.143868
40   0.138917
41   0.147615
42   0.139065
43   0.130548
44   0.116851

>  <lowdin_charges>
44
1   -0.454304
2   -0.443078
3   -0.445312
4   -0.448066
5   -0.448624
6   -0.448091
7   -0.447118
8   -0.449127
9   -0.449383
10   -0.283989
11   -0.125094
12   0.014376
13   0.013998
14   0.014693
15   0.152387
16   0.14413
17   0.149521
18   0.14689
19   0.143551
20   0.148292
21   0.146748
22   0.147731
23   0.143705
24   0.14763
25   0.146059
26   0.148698
27   0.147524
28   0.146143
29   0.14927
30   0.147687
31   0.145324
32   0.148949
33   0.147579
34   0.14664
35   0.14795
36   0.148691
37   0.144958
38   0.14892
39   0.149785
40   0.145885
41   0.148896
42   0.144761
43   0.141715
44   0.133098

$$$$

