PCCDB-ID:  20429
public computational chemistry database (PCCDB) project, http://pccdb.org

 12 12  0  0  1  0  0  0  0  0999 V2000
    1.0588   -0.2483    0.2810 C   0  0  0  0  0  0  0  0  0  0  0  0
    3.2209    0.1000    2.6199 C   0  0  0  0  0  0  0  0  0  0  0  0
    2.5495   -0.0468    0.1099 C   0  0  0  0  0  0  0  0  0  0  0  0
    3.3036    0.6158    1.2349 C   0  0  1  0  0  0  0  0  0  0  0  0
    3.1570   -0.3776   -0.8915 O   0  0  0  0  0  0  0  0  0  0  0  0
    2.5441    1.2942    2.2457 O   0  0  0  0  0  0  0  0  0  0  0  0
    0.5595    0.7269    0.3235 H   0  0  0  0  0  0  0  0  0  0  0  0
    0.8216   -0.7593    1.2209 H   0  0  0  0  0  0  0  0  0  0  0  0
    0.6746   -0.8245   -0.5625 H   0  0  0  0  0  0  0  0  0  0  0  0
    4.0821    0.2263    3.2757 H   0  0  0  0  0  0  0  0  0  0  0  0
    2.5834   -0.7549    2.8452 H   0  0  0  0  0  0  0  0  0  0  0  0
    4.2238    1.1089    0.9219 H   0  0  0  0  0  0  0  0  0  0  0  0
  1  7  1  0  0  0  0
  1  8  1  0  0  0  0
  2 11  1  0  0  0  0
  2 10  1  0  0  0  0
  3  1  1  0  0  0  0
  3  4  1  0  0  0  0
  4 12  1  6  0  0  0
  4  6  1  0  0  0  0
  4  2  1  0  0  0  0
  5  3  2  0  0  0  0
  6  2  1  0  0  0  0
  9  1  1  0  0  0  0
M  END
>  <HBA>
2

>  <HBD>
0

>  <TPSA>
29.6

>  <cid>
20429

>  <dipole>
2.12

>  <excitation_energy_1>
4.262

>  <excitation_energy_2>
6.053

>  <excitation_energy_3>
6.525

>  <excitation_energy_4>
6.85

>  <homo_energy>
-6.876

>  <homo_lumo_gap>
6.06

>  <logP>
-0.026

>  <lumo_energy>
-0.816

>  <melting_point>
9.78

>  <molecular_refractivity>
20.51

>  <oscillator_strength_1>
0.0002

>  <oscillator_strength_2>
0.0104

>  <oscillator_strength_3>
0.0411

>  <oscillator_strength_4>
0.0073

>  <open_babel_can_smiles>
CC(=O)[C@@H]1CO1

>  <mulliken_charges>
12
1   -0.529682
2   -0.1052
3   0.443319
4   0.019528
5   -0.440481
6   -0.429043
7   0.191071
8   0.168961
9   0.180276
10   0.168972
11   0.161009
12   0.171271

>  <lowdin_charges>
12
1   -0.473104
2   -0.150966
3   0.156154
4   -0.053453
5   -0.228346
6   -0.268233
7   0.183116
8   0.170566
9   0.174887
10   0.163436
11   0.156421
12   0.169522

$$$$

