PCCDB-ID:  48865
public computational chemistry database (PCCDB) project, http://pccdb.org

 32 32  0  0  0  0  0  0  0  0999 V2000
    2.6990   -2.3642   -0.7067 C   0  0  0  0  0  0  0  0  0  0  0  0
    2.9567   -3.7949   -0.2360 C   0  0  0  0  0  0  0  0  0  0  0  0
   10.6622   -2.7609   -1.2490 C   0  0  0  0  0  0  0  0  0  0  0  0
    9.6850   -3.6406   -1.7130 C   0  0  0  0  0  0  0  0  0  0  0  0
   11.9897   -2.9356   -1.6335 C   0  0  0  0  0  0  0  0  0  0  0  0
    5.7229   -5.3303   -2.1282 C   0  0  0  0  0  0  0  0  0  0  0  0
    5.0740   -4.2810   -1.2302 C   0  0  0  0  0  0  0  0  0  0  0  0
   11.4549   -4.7688   -2.8861 C   0  0  0  0  0  0  0  0  0  0  0  0
    8.1142   -7.7896   -4.3968 C   0  0  0  0  0  0  0  0  0  0  0  0
   10.0887   -4.6814   -2.5585 C   0  0  0  0  0  0  0  0  0  0  0  0
    7.8858   -5.8205   -2.9465 C   0  0  0  0  0  0  0  0  0  0  0  0
    8.7969   -8.4908   -5.0339 N   0  0  0  0  0  0  0  0  0  0  0  0
   12.3847   -3.9282   -2.4430 N   0  0  0  0  0  0  0  0  0  0  0  0
    7.1441   -5.0587   -2.2431 N   0  0  0  0  0  0  0  0  0  0  0  0
    7.3808   -6.9560   -3.6540 N   0  0  0  0  0  0  0  0  0  0  0  0
    9.2403   -5.6536   -3.1136 N   0  0  0  0  0  0  0  0  0  0  0  0
    3.6940   -4.5797   -1.1651 O   0  0  0  0  0  0  0  0  0  0  0  0
    2.0507   -1.8445    0.0085 H   0  0  0  0  0  0  0  0  0  0  0  0
    2.2026   -2.3680   -1.6829 H   0  0  0  0  0  0  0  0  0  0  0  0
    3.6257   -1.7870   -0.7945 H   0  0  0  0  0  0  0  0  0  0  0  0
    2.0054   -4.3224   -0.1085 H   0  0  0  0  0  0  0  0  0  0  0  0
    3.4685   -3.7920    0.7406 H   0  0  0  0  0  0  0  0  0  0  0  0
   10.3865   -1.9411   -0.5918 H   0  0  0  0  0  0  0  0  0  0  0  0
    8.6442   -3.5392   -1.4406 H   0  0  0  0  0  0  0  0  0  0  0  0
   12.7679   -2.2607   -1.2835 H   0  0  0  0  0  0  0  0  0  0  0  0
    5.2120   -5.2952   -3.1057 H   0  0  0  0  0  0  0  0  0  0  0  0
    5.5210   -6.3222   -1.6899 H   0  0  0  0  0  0  0  0  0  0  0  0
    5.2634   -3.2816   -1.6497 H   0  0  0  0  0  0  0  0  0  0  0  0
    5.5339   -4.3150   -0.2290 H   0  0  0  0  0  0  0  0  0  0  0  0
   11.8012   -5.5692   -3.5433 H   0  0  0  0  0  0  0  0  0  0  0  0
    6.3860   -7.1237   -3.5887 H   0  0  0  0  0  0  0  0  0  0  0  0
    9.7056   -6.3278   -3.7089 H   0  0  0  0  0  0  0  0  0  0  0  0
  1  2  1  0  0  0  0
  1 18  1  0  0  0  0
  2 21  1  0  0  0  0
  2 22  1  0  0  0  0
  3 23  1  0  0  0  0
  4 24  1  0  0  0  0
  4  3  2  0  0  0  0
  5 25  1  0  0  0  0
  5  3  1  0  0  0  0
  6 27  1  0  0  0  0
  6  7  1  0  0  0  0
  7 17  1  0  0  0  0
  7 29  1  0  0  0  0
  8 10  2  0  0  0  0
  8 13  1  0  0  0  0
  9 15  1  0  0  0  0
 10  4  1  0  0  0  0
 11 14  2  0  0  0  0
 12  9  3  0  0  0  0
 13  5  2  0  0  0  0
 14  6  1  0  0  0  0
 15 31  1  0  0  0  0
 15 11  1  0  0  0  0
 16 11  1  0  0  0  0
 16 10  1  0  0  0  0
 17  2  1  0  0  0  0
 19  1  1  0  0  0  0
 20  1  1  0  0  0  0
 26  6  1  0  0  0  0
 28  7  1  0  0  0  0
 30  8  1  0  0  0  0
 32 16  1  0  0  0  0
M  END
>  <HBA>
6

>  <HBD>
2

>  <TPSA>
82.33

>  <cid>
48865

>  <dipole>
4.79

>  <excitation_energy_1>
4.759

>  <excitation_energy_2>
4.948

>  <excitation_energy_3>
5.067

>  <excitation_energy_4>
5.129

>  <homo_energy>
-6.136

>  <homo_lumo_gap>
5.48

>  <logP>
1.421

>  <lumo_energy>
-0.656

>  <melting_point>
120.05

>  <molecular_refractivity>
64.9

>  <oscillator_strength_1>
0.058

>  <oscillator_strength_2>
0.0038

>  <oscillator_strength_3>
0.433

>  <oscillator_strength_4>
0.0002

>  <open_babel_can_smiles>
CCOCC/N=C(/Nc1cccnc1)\NC#N

>  <mulliken_charges>
32
1   -0.461916
2   -0.013999
3   -0.154568
4   -0.117624
5   0.03521
6   -0.180815
7   -0.012237
8   -0.028124
9   0.524638
10   0.348273
11   0.792118
12   -0.437884
13   -0.409336
14   -0.508962
15   -0.733302
16   -0.797807
17   -0.480495
18   0.146721
19   0.158762
20   0.152215
21   0.146516
22   0.122343
23   0.138295
24   0.187575
25   0.140753
26   0.146832
27   0.146709
28   0.135373
29   0.129465
30   0.14102
31   0.383154
32   0.361093

>  <lowdin_charges>
32
1   -0.463191
2   -0.127036
3   -0.165242
4   -0.160188
5   -0.108291
6   -0.211717
7   -0.129355
8   -0.121639
9   0.001776
10   0.043979
11   0.158757
12   -0.144788
13   -0.136853
14   -0.254008
15   -0.241728
16   -0.235103
17   -0.277293
18   0.157827
19   0.156426
20   0.151801
21   0.147858
22   0.127326
23   0.165346
24   0.186585
25   0.158388
26   0.139857
27   0.139315
28   0.133105
29   0.131529
30   0.154898
31   0.319177
32   0.302481

$$$$

