PCCDB-ID:  68830
public computational chemistry database (PCCDB) project, http://pccdb.org

 26 28  0  0  0  0  0  0  0  0999 V2000
   -3.6034   -0.7189   -0.0037 C   0  0  0  0  0  0  0  0  0  0  0  0
   -3.6098    0.7086    0.0118 C   0  0  0  0  0  0  0  0  0  0  0  0
   -2.4189   -1.3941   -0.0125 C   0  0  0  0  0  0  0  0  0  0  0  0
    3.5657   -0.7556   -0.0021 C   0  0  0  0  0  0  0  0  0  0  0  0
    2.3567   -1.4177   -0.0031 C   0  0  0  0  0  0  0  0  0  0  0  0
   -2.4279    1.3768    0.0176 C   0  0  0  0  0  0  0  0  0  0  0  0
    2.4445    1.3860    0.0229 C   0  0  0  0  0  0  0  0  0  0  0  0
    3.6289    0.6615    0.0003 C   0  0  0  0  0  0  0  0  0  0  0  0
    1.2055    0.7269    0.0098 C   0  0  0  0  0  0  0  0  0  0  0  0
    1.1386   -0.6934   -0.0053 C   0  0  0  0  0  0  0  0  0  0  0  0
   -1.1612   -0.7052   -0.0058 C   0  0  0  0  0  0  0  0  0  0  0  0
   -0.0196    1.5079    0.0152 C   0  0  0  0  0  0  0  0  0  0  0  0
    4.9167    1.4247    0.0137 C   0  0  0  0  0  0  0  0  0  0  0  0
   -0.0365   -1.3861   -0.0143 N   0  0  0  0  0  0  0  0  0  0  0  0
   -1.2204    0.7010    0.0090 N   0  0  0  0  0  0  0  0  0  0  0  0
   -0.1104    2.7245    0.0239 O   0  0  0  0  0  0  0  0  0  0  0  0
    5.0099    2.5709    0.3835 O   0  0  0  0  0  0  0  0  0  0  0  0
    6.0262    0.7614   -0.4212 O   0  0  0  0  0  0  0  0  0  0  0  0
   -4.5432   -1.2630   -0.0073 H   0  0  0  0  0  0  0  0  0  0  0  0
   -4.5393    1.2659    0.0187 H   0  0  0  0  0  0  0  0  0  0  0  0
   -2.3614   -2.4761   -0.0234 H   0  0  0  0  0  0  0  0  0  0  0  0
    4.4794   -1.3450    0.0384 H   0  0  0  0  0  0  0  0  0  0  0  0
    2.3027   -2.5013    0.0087 H   0  0  0  0  0  0  0  0  0  0  0  0
   -2.3219    2.4533    0.0292 H   0  0  0  0  0  0  0  0  0  0  0  0
    2.4740    2.4699    0.0475 H   0  0  0  0  0  0  0  0  0  0  0  0
    5.7737   -0.0757   -0.8423 H   0  0  0  0  0  0  0  0  0  0  0  0
  1  2  1  0  0  0  0
  2  6  2  0  0  0  0
  2 20  1  0  0  0  0
  3 11  1  0  0  0  0
  3  1  2  0  0  0  0
  4  8  2  0  0  0  0
  4 22  1  0  0  0  0
  5  4  1  0  0  0  0
  5 23  1  0  0  0  0
  6 24  1  0  0  0  0
  7 25  1  0  0  0  0
  8 13  1  0  0  0  0
  8  7  1  0  0  0  0
  9 12  1  0  0  0  0
  9  7  2  0  0  0  0
 10  5  2  0  0  0  0
 10  9  1  0  0  0  0
 11 15  1  0  0  0  0
 12 16  2  0  0  0  0
 13 17  2  0  0  0  0
 14 11  2  0  0  0  0
 14 10  1  0  0  0  0
 15 12  1  0  0  0  0
 15  6  1  0  0  0  0
 18 13  1  0  0  0  0
 19  1  1  0  0  0  0
 21  3  1  0  0  0  0
 26 18  1  0  0  0  0
M  END
>  <HBA>
5

>  <HBD>
1

>  <TPSA>
71.67

>  <cid>
68830

>  <dipole>
7.31

>  <excitation_energy_1>
3.313

>  <excitation_energy_2>
3.706

>  <excitation_energy_3>
4.309

>  <excitation_energy_4>
4.389

>  <homo_energy>
-6.014

>  <homo_lumo_gap>
3.769

>  <logP>
1.546

>  <lumo_energy>
-2.245

>  <melting_point>
229.49

>  <molecular_refractivity>
65.93

>  <oscillator_strength_1>
0.1356

>  <oscillator_strength_2>
0.2994

>  <oscillator_strength_3>
0.0364

>  <oscillator_strength_4>
0.0031

>  <open_babel_can_smiles>
OC(=O)c1ccc2c(c1)c(=O)n1c(n2)cccc1

>  <mulliken_charges>
26
1   -0.089159
2   -0.195965
3   -0.182265
4   -0.190203
5   -0.165936
6   0.0995
7   -0.204861
8   0.040091
9   0.029438
10   0.273163
11   0.559633
12   0.587952
13   0.556217
14   -0.59855
15   -0.605852
16   -0.500943
17   -0.443578
18   -0.57807
19   0.160071
20   0.162371
21   0.169913
22   0.138322
23   0.15299
24   0.217981
25   0.197631
26   0.410107

>  <lowdin_charges>
26
1   -0.121091
2   -0.180314
3   -0.155692
4   -0.149582
5   -0.154702
6   -0.065828
7   -0.08972
8   -0.069406
9   -0.075566
10   0.062348
11   0.110638
12   0.167646
13   0.189586
14   -0.20609
15   -0.014682
16   -0.27045
17   -0.236657
18   -0.357564
19   0.1738
20   0.178064
21   0.183304
22   0.160357
23   0.172433
24   0.198374
25   0.194207
26   0.356588

$$$$

