PCCDB-ID:  57434
public computational chemistry database (PCCDB) project, http://pccdb.org

 34 34  0  0  0  0  0  0  0  0999 V2000
    1.5914   -1.7499    2.4047 C   0  0  0  0  0  0  0  0  0  0  0  0
    3.8348   -0.7584    6.9305 C   0  0  0  0  0  0  0  0  0  0  0  0
    8.5535    3.1599    5.4459 C   0  0  0  0  0  0  0  0  0  0  0  0
    3.0669   -1.7118    2.7978 C   0  0  0  0  0  0  0  0  0  0  0  0
    5.2870    1.7142    4.2179 C   0  0  0  0  0  0  0  0  0  0  0  0
    6.6541   -0.0853    5.3357 C   0  0  0  0  0  0  0  0  0  0  0  0
    6.2656    2.7420    4.8010 C   0  0  0  0  0  0  0  0  0  0  0  0
    7.5327    1.0257    5.9159 C   0  0  0  0  0  0  0  0  0  0  0  0
    4.4231    0.5096    6.3327 C   0  0  0  0  0  0  0  0  0  0  0  0
    3.3871   -0.6020    3.7813 C   0  0  0  0  0  0  0  0  0  0  0  0
    5.2227    0.3994    5.0161 C   0  0  0  0  0  0  0  0  0  0  0  0
    7.5956    2.1599    4.9980 N   0  0  0  0  0  0  0  0  0  0  0  0
    4.3380    1.5752    6.9115 O   0  0  0  0  0  0  0  0  0  0  0  0
    2.6000    0.2326    4.1762 O   0  0  0  0  0  0  0  0  0  0  0  0
    4.6807   -0.6699    4.1744 O   0  0  0  0  0  0  0  0  0  0  0  0
    1.4085   -2.5596    1.6910 H   0  0  0  0  0  0  0  0  0  0  0  0
    1.2837   -0.8066    1.9446 H   0  0  0  0  0  0  0  0  0  0  0  0
    0.9544   -1.9111    3.2797 H   0  0  0  0  0  0  0  0  0  0  0  0
    4.3799   -1.6608    6.6403 H   0  0  0  0  0  0  0  0  0  0  0  0
    2.8021   -0.8586    6.5785 H   0  0  0  0  0  0  0  0  0  0  0  0
    3.8154   -0.6577    8.0182 H   0  0  0  0  0  0  0  0  0  0  0  0
    8.6141    3.9677    4.7081 H   0  0  0  0  0  0  0  0  0  0  0  0
    9.5472    2.7064    5.5352 H   0  0  0  0  0  0  0  0  0  0  0  0
    8.2926    3.6102    6.4238 H   0  0  0  0  0  0  0  0  0  0  0  0
    3.7104   -1.5678    1.9199 H   0  0  0  0  0  0  0  0  0  0  0  0
    3.3913   -2.6605    3.2436 H   0  0  0  0  0  0  0  0  0  0  0  0
    5.6216    1.4488    3.2079 H   0  0  0  0  0  0  0  0  0  0  0  0
    4.2896    2.1534    4.1445 H   0  0  0  0  0  0  0  0  0  0  0  0
    6.6249   -0.9436    6.0176 H   0  0  0  0  0  0  0  0  0  0  0  0
    7.0914   -0.4306    4.3925 H   0  0  0  0  0  0  0  0  0  0  0  0
    5.8570    3.1547    5.7380 H   0  0  0  0  0  0  0  0  0  0  0  0
    6.3604    3.5715    4.0894 H   0  0  0  0  0  0  0  0  0  0  0  0
    8.5475    0.6336    6.0535 H   0  0  0  0  0  0  0  0  0  0  0  0
    7.1648    1.3235    6.9178 H   0  0  0  0  0  0  0  0  0  0  0  0
  1  4  1  0  0  0  0
  1 18  1  0  0  0  0
  2 21  1  0  0  0  0
  3 23  1  0  0  0  0
  3 24  1  0  0  0  0
  4 26  1  0  0  0  0
  4 10  1  0  0  0  0
  5  7  1  0  0  0  0
  5 11  1  0  0  0  0
  6  8  1  0  0  0  0
  6 29  1  0  0  0  0
  7 12  1  0  0  0  0
  7 31  1  0  0  0  0
  8 33  1  0  0  0  0
  8 34  1  0  0  0  0
  9 13  2  0  0  0  0
  9  2  1  0  0  0  0
 10 15  1  0  0  0  0
 10 14  2  0  0  0  0
 11  6  1  0  0  0  0
 11  9  1  0  0  0  0
 12  3  1  0  0  0  0
 12  8  1  0  0  0  0
 15 11  1  0  0  0  0
 16  1  1  0  0  0  0
 17  1  1  0  0  0  0
 19  2  1  0  0  0  0
 20  2  1  0  0  0  0
 22  3  1  0  0  0  0
 25  4  1  0  0  0  0
 27  5  1  0  0  0  0
 28  5  1  0  0  0  0
 30  6  1  0  0  0  0
 32  7  1  0  0  0  0
M  END
>  <HBA>
4

>  <HBD>
0

>  <TPSA>
46.61

>  <cid>
57434

>  <dipole>
3.16

>  <excitation_energy_1>
4.194

>  <excitation_energy_2>
4.523

>  <excitation_energy_3>
5.148

>  <excitation_energy_4>
5.264

>  <homo_energy>
-5.728

>  <homo_lumo_gap>
5.255

>  <logP>
0.931

>  <lumo_energy>
-0.473

>  <melting_point>
40.19

>  <molecular_refractivity>
61.21

>  <oscillator_strength_1>
0.0005

>  <oscillator_strength_2>
0.0002

>  <oscillator_strength_3>
0.0001

>  <oscillator_strength_4>
0.0046

>  <open_babel_can_smiles>
CCC(=O)OC1(CCN(CC1)C)C(=O)C

>  <mulliken_charges>
34
1   -0.436266
2   -0.544452
3   -0.291674
4   -0.356577
5   -0.291221
6   -0.303293
7   -0.135152
8   -0.127695
9   0.466218
10   0.641002
11   0.233587
12   -0.385825
13   -0.443927
14   -0.479935
15   -0.515692
16   0.145818
17   0.166445
18   0.160639
19   0.163193
20   0.197674
21   0.178967
22   0.148494
23   0.14533
24   0.122559
25   0.176686
26   0.172647
27   0.14523
28   0.176594
29   0.143961
30   0.166693
31   0.153963
32   0.135374
33   0.140471
34   0.130163

>  <lowdin_charges>
34
1   -0.440625
2   -0.478499
3   -0.355206
4   -0.30068
5   -0.284564
6   -0.280393
7   -0.205773
8   -0.200441
9   0.166039
10   0.204505
11   0.096602
12   -0.191459
13   -0.229363
14   -0.261431
15   -0.193484
16   0.154224
17   0.16174
18   0.159086
19   0.162942
20   0.185884
21   0.173242
22   0.150786
23   0.147572
24   0.122971
25   0.17184
26   0.169008
27   0.152518
28   0.169882
29   0.151992
30   0.163408
31   0.138609
32   0.14616
33   0.148038
34   0.12487

$$$$

