PCCDB-ID:  68398
public computational chemistry database (PCCDB) project, http://pccdb.org

 22 21  0  0  0  0  0  0  0  0999 V2000
    1.6016    2.3069   -1.6632 C   0  0  0  0  0  0  0  0  0  0  0  0
    3.0062    2.5415   -1.0982 C   0  0  0  0  0  0  0  0  0  0  0  0
    3.2253    1.8699    0.2632 C   0  0  0  0  0  0  0  0  0  0  0  0
    4.6360    2.0997    0.8212 C   0  0  0  0  0  0  0  0  0  0  0  0
    4.8795    1.4875    2.1905 C   0  0  0  0  0  0  0  0  0  0  0  0
    3.6911   -0.5618    4.2448 O   0  0  0  0  0  0  0  0  0  0  0  0
    4.9773   -2.2379    2.9010 O   0  0  0  0  0  0  0  0  0  0  0  0
    6.1313   -0.3148    4.1241 O   0  0  0  0  0  0  0  0  0  0  0  0
    4.7658    0.0338    2.0440 O   0  0  0  0  0  0  0  0  0  0  0  0
    5.0329   -0.8643    3.3582 S   0  0  0  0  0  0  0  0  0  0  0  0
    1.4740    2.8015   -2.6325 H   0  0  0  0  0  0  0  0  0  0  0  0
    0.8311    2.6968   -0.9866 H   0  0  0  0  0  0  0  0  0  0  0  0
    1.4062    1.2372   -1.8064 H   0  0  0  0  0  0  0  0  0  0  0  0
    3.1888    3.6215   -1.0043 H   0  0  0  0  0  0  0  0  0  0  0  0
    3.7541    2.1659   -1.8105 H   0  0  0  0  0  0  0  0  0  0  0  0
    3.0427    0.7916    0.1730 H   0  0  0  0  0  0  0  0  0  0  0  0
    2.4848    2.2520    0.9819 H   0  0  0  0  0  0  0  0  0  0  0  0
    4.8278    3.1777    0.9182 H   0  0  0  0  0  0  0  0  0  0  0  0
    5.3882    1.7110    0.1228 H   0  0  0  0  0  0  0  0  0  0  0  0
    4.1333    1.8166    2.9222 H   0  0  0  0  0  0  0  0  0  0  0  0
    5.8799    1.7135    2.5673 H   0  0  0  0  0  0  0  0  0  0  0  0
    2.9969   -1.1763    3.9393 H   0  0  0  0  0  0  0  0  0  0  0  0
  1  2  1  0  0  0  0
  1 12  1  0  0  0  0
  2 14  1  0  0  0  0
  2  3  1  0  0  0  0
  3  4  1  0  0  0  0
  3 17  1  0  0  0  0
  4 18  1  0  0  0  0
  4  5  1  0  0  0  0
  5 21  1  0  0  0  0
  5 20  1  0  0  0  0
  7 10  2  0  0  0  0
  9  5  1  0  0  0  0
  9 10  1  0  0  0  0
 10  8  2  0  0  0  0
 10  6  1  0  0  0  0
 11  1  1  0  0  0  0
 13  1  1  0  0  0  0
 15  2  1  0  0  0  0
 16  3  1  0  0  0  0
 19  4  1  0  0  0  0
 22  6  1  0  0  0  0
M  END
>  <HBA>
4

>  <HBD>
1

>  <TPSA>
71.98

>  <cid>
68398

>  <dipole>
4.15

>  <excitation_energy_1>
7.24

>  <excitation_energy_2>
7.449

>  <excitation_energy_3>
7.696

>  <excitation_energy_4>
7.927

>  <homo_energy>
-8.656

>  <homo_lumo_gap>
9.119

>  <logP>
2.077

>  <lumo_energy>
0.463

>  <melting_point>
48.48

>  <molecular_refractivity>
37.77

>  <oscillator_strength_1>
0.0029

>  <oscillator_strength_2>
0.0021

>  <oscillator_strength_3>
0.0024

>  <oscillator_strength_4>
0.0012

>  <open_babel_can_smiles>
CCCCCOS(=O)(=O)O

>  <mulliken_charges>
22
1   -0.443239
2   -0.249353
3   -0.251518
4   -0.285036
5   -0.067067
6   -0.631479
7   -0.481579
8   -0.492572
9   -0.508934
10   1.32436
11   0.146352
12   0.14249
13   0.145537
14   0.131919
15   0.136885
16   0.152644
17   0.128081
18   0.147854
19   0.159927
20   0.166733
21   0.184497
22   0.443497

>  <lowdin_charges>
22
1   -0.443281
2   -0.270695
3   -0.277097
4   -0.279521
5   -0.123858
6   -0.56984
7   -0.545213
8   -0.541421
9   -0.404518
10   1.422675
11   0.151626
12   0.14793
13   0.147015
14   0.137521
15   0.143227
16   0.147698
17   0.139591
18   0.153397
19   0.157288
20   0.155456
21   0.165528
22   0.386491

$$$$

