PCCDB-ID:  40592
public computational chemistry database (PCCDB) project, http://pccdb.org

 31 31  0  0  1  0  0  0  0  0999 V2000
    1.1566   -0.0351    0.0190 C   0  0  0  0  0  0  0  0  0  0  0  0
    5.5603   -1.0077   -0.7896 C   0  0  0  0  0  0  0  0  0  0  0  0
    4.1242   -0.2130   -4.4034 C   0  0  0  0  0  0  0  0  0  0  0  0
    2.6423    0.1862   -0.2825 C   0  0  0  0  0  0  0  0  0  0  0  0
    3.1329   -0.6518   -1.4758 C   0  0  0  0  0  0  0  0  0  0  0  0
    4.6152   -0.4093   -1.8450 C   0  0  2  0  0  0  0  0  0  0  0  0
    4.9545   -2.3973   -3.4553 C   0  0  0  0  0  0  0  0  0  0  0  0
    6.4638   -0.4667   -3.5696 C   0  0  0  0  0  0  0  0  0  0  0  0
    7.2586   -2.6442   -3.6292 C   0  0  0  0  0  0  0  0  0  0  0  0
    5.0106   -0.8749   -3.3094 C   0  0  1  0  0  0  0  0  0  0  0  0
    5.9462   -3.1814   -3.5988 N   0  0  0  0  0  0  0  0  0  0  0  0
    7.4595   -1.2425   -3.7230 N   0  0  0  0  0  0  0  0  0  0  0  0
    3.7308   -2.9752   -3.4348 O   0  0  0  0  0  0  0  0  0  0  0  0
    6.7165    0.8616   -3.6308 O   0  0  0  0  0  0  0  0  0  0  0  0
    8.2132   -3.3866   -3.5908 O   0  0  0  0  0  0  0  0  0  0  0  0
    0.8333    0.5717    0.8715 H   0  0  0  0  0  0  0  0  0  0  0  0
    0.9528   -1.0849    0.2618 H   0  0  0  0  0  0  0  0  0  0  0  0
    0.5295    0.2359   -0.8392 H   0  0  0  0  0  0  0  0  0  0  0  0
    5.3137   -0.6291    0.2061 H   0  0  0  0  0  0  0  0  0  0  0  0
    6.6058   -0.7529   -0.9857 H   0  0  0  0  0  0  0  0  0  0  0  0
    5.4802   -2.1003   -0.7604 H   0  0  0  0  0  0  0  0  0  0  0  0
    3.1016   -0.5978   -4.4100 H   0  0  0  0  0  0  0  0  0  0  0  0
    4.5448   -0.3929   -5.3973 H   0  0  0  0  0  0  0  0  0  0  0  0
    4.0424    0.8704   -4.2573 H   0  0  0  0  0  0  0  0  0  0  0  0
    3.2307   -0.0539    0.6108 H   0  0  0  0  0  0  0  0  0  0  0  0
    2.8217    1.2499   -0.4935 H   0  0  0  0  0  0  0  0  0  0  0  0
    2.4812   -0.4086   -2.3275 H   0  0  0  0  0  0  0  0  0  0  0  0
    2.9819   -1.7150   -1.2435 H   0  0  0  0  0  0  0  0  0  0  0  0
    4.7602    0.6821   -1.8450 H   0  0  0  0  0  0  0  0  0  0  0  0
    3.0445   -2.3095   -3.2781 H   0  0  0  0  0  0  0  0  0  0  0  0
    5.8966    1.3674   -3.5220 H   0  0  0  0  0  0  0  0  0  0  0  0
  1 17  1  0  0  0  0
  1 16  1  0  0  0  0
  2 21  1  0  0  0  0
  2 19  1  0  0  0  0
  3 24  1  0  0  0  0
  4  1  1  0  0  0  0
  4 25  1  0  0  0  0
  5 28  1  0  0  0  0
  5  4  1  0  0  0  0
  6 29  1  1  0  0  0
  6  5  1  0  0  0  0
  6  2  1  0  0  0  0
  7 13  1  0  0  0  0
  7 10  1  0  0  0  0
  8 10  1  0  0  0  0
  9 11  2  0  0  0  0
  9 15  2  0  0  0  0
 10  3  1  6  0  0  0
 10  6  1  0  0  0  0
 11  7  2  0  0  0  0
 12  9  1  0  0  0  0
 12  8  2  0  0  0  0
 13 30  1  0  0  0  0
 14  8  1  0  0  0  0
 14 31  1  0  0  0  0
 18  1  1  0  0  0  0
 20  2  1  0  0  0  0
 22  3  1  0  0  0  0
 23  3  1  0  0  0  0
 26  4  1  0  0  0  0
 27  5  1  0  0  0  0
M  END
>  <HBA>
5

>  <HBD>
2

>  <TPSA>
75.27

>  <cid>
40592

>  <dipole>
10.34

>  <excitation_energy_1>
4.001

>  <excitation_energy_2>
4.191

>  <excitation_energy_3>
5.235

>  <excitation_energy_4>
5.553

>  <homo_energy>
-6.865

>  <homo_lumo_gap>
5.393

>  <logP>
1.452

>  <lumo_energy>
-1.472

>  <melting_point>
140.91

>  <molecular_refractivity>
62.23

>  <oscillator_strength_1>
0.0002

>  <oscillator_strength_2>
0.0001

>  <oscillator_strength_3>
0.0001

>  <oscillator_strength_4>
0.0234

>  <open_babel_can_smiles>
CCC[C@H]([C@@]1(C)C(=N[C](=[N]=C1O)=O)O)C

>  <mulliken_charges>
31
1   -0.446859
2   -0.487415
3   -0.481561
4   -0.259233
5   -0.303809
6   -0.069759
7   0.534111
8   0.545723
9   0.617488
10   -0.14059
11   -0.463156
12   -0.468561
13   -0.578389
14   -0.577794
15   -0.431063
16   0.155573
17   0.151801
18   0.143962
19   0.162189
20   0.184357
21   0.176695
22   0.160186
23   0.19752
24   0.150308
25   0.152247
26   0.136877
27   0.12673
28   0.157288
29   0.117938
30   0.420977
31   0.416216

>  <lowdin_charges>
31
1   -0.444165
2   -0.452836
3   -0.441011
4   -0.270592
5   -0.294488
6   -0.116015
7   0.149336
8   0.149566
9   0.176323
10   -0.062002
11   -0.185531
12   -0.186304
13   -0.333269
14   -0.333064
15   -0.21148
16   0.157929
17   0.150624
18   0.148068
19   0.160128
20   0.168459
21   0.162527
22   0.156339
23   0.177156
24   0.150925
25   0.149253
26   0.140141
27   0.138126
28   0.14901
29   0.133299
30   0.357125
31   0.356421

$$$$

