PCCDB-ID:  37545
public computational chemistry database (PCCDB) project, http://pccdb.org

 21 20  0  0  0  0  0  0  0  0999 V2000
    1.0350    0.4909   -1.3772 C   0  0  0  0  0  0  0  0  0  0  0  0
    1.1241   -3.9178   -0.1741 C   0  0  0  0  0  0  0  0  0  0  0  0
    4.5738   -2.1563   -1.2034 C   0  0  0  0  0  0  0  0  0  0  0  0
    2.0164   -0.5292   -1.9669 C   0  0  0  0  0  0  0  0  0  0  0  0
    0.9781   -2.7086   -1.1030 C   0  0  0  0  0  0  0  0  0  0  0  0
    2.2071   -1.7953   -1.1133 C   0  0  0  0  0  0  0  0  0  0  0  0
    3.2927   -2.5822   -1.6145 O   0  0  0  0  0  0  0  0  0  0  0  0
    0.9919    1.3927   -1.9978 H   0  0  0  0  0  0  0  0  0  0  0  0
    1.3394    0.7982   -0.3686 H   0  0  0  0  0  0  0  0  0  0  0  0
    0.0170    0.0920   -1.3088 H   0  0  0  0  0  0  0  0  0  0  0  0
    0.2355   -4.5575   -0.2181 H   0  0  0  0  0  0  0  0  0  0  0  0
    1.2559   -3.6032    0.8690 H   0  0  0  0  0  0  0  0  0  0  0  0
    1.9936   -4.5172   -0.4581 H   0  0  0  0  0  0  0  0  0  0  0  0
    5.2934   -2.8687   -1.6166 H   0  0  0  0  0  0  0  0  0  0  0  0
    4.6679   -2.1525   -0.1052 H   0  0  0  0  0  0  0  0  0  0  0  0
    4.8284   -1.1516   -1.5741 H   0  0  0  0  0  0  0  0  0  0  0  0
    2.9933   -0.0458   -2.0937 H   0  0  0  0  0  0  0  0  0  0  0  0
    1.6922   -0.8339   -2.9708 H   0  0  0  0  0  0  0  0  0  0  0  0
    0.1002   -2.1198   -0.8105 H   0  0  0  0  0  0  0  0  0  0  0  0
    0.8026   -3.0478   -2.1329 H   0  0  0  0  0  0  0  0  0  0  0  0
    2.4366   -1.4940   -0.0745 H   0  0  0  0  0  0  0  0  0  0  0  0
  1 10  1  0  0  0  0
  1  9  1  0  0  0  0
  2 12  1  0  0  0  0
  3 15  1  0  0  0  0
  4  1  1  0  0  0  0
  4  6  1  0  0  0  0
  5 19  1  0  0  0  0
  5  2  1  0  0  0  0
  6  5  1  0  0  0  0
  6 21  1  0  0  0  0
  7  3  1  0  0  0  0
  7  6  1  0  0  0  0
  8  1  1  0  0  0  0
 11  2  1  0  0  0  0
 13  2  1  0  0  0  0
 14  3  1  0  0  0  0
 16  3  1  0  0  0  0
 17  4  1  0  0  0  0
 18  4  1  0  0  0  0
 20  5  1  0  0  0  0
M  END
>  <HBA>
1

>  <HBD>
0

>  <TPSA>
9.23

>  <cid>
37545

>  <dipole>
1.14

>  <excitation_energy_1>
6.332

>  <excitation_energy_2>
6.712

>  <excitation_energy_3>
6.769

>  <excitation_energy_4>
6.926

>  <homo_energy>
-6.664

>  <homo_lumo_gap>
9.105

>  <logP>
1.821

>  <lumo_energy>
2.441

>  <melting_point>
-35.51

>  <molecular_refractivity>
32.04

>  <oscillator_strength_1>
0.0105

>  <oscillator_strength_2>
0.0053

>  <oscillator_strength_3>
0.0027

>  <oscillator_strength_4>
0.0125

>  <open_babel_can_smiles>
CCC(OC)CC

>  <mulliken_charges>
21
1   -0.454083
2   -0.446605
3   -0.195349
4   -0.26566
5   -0.262561
6   0.16574
7   -0.476846
8   0.1467
9   0.142394
10   0.149127
11   0.138715
12   0.134318
13   0.163767
14   0.155699
15   0.1285
16   0.12932
17   0.134449
18   0.139553
19   0.13277
20   0.141005
21   0.099047

>  <lowdin_charges>
21
1   -0.44598
2   -0.445829
3   -0.278443
4   -0.286149
5   -0.279857
6   0.003997
7   -0.273599
8   0.153026
9   0.145835
10   0.147379
11   0.148681
12   0.141962
13   0.157949
14   0.155136
15   0.127868
16   0.128589
17   0.144306
18   0.145344
19   0.145195
20   0.146409
21   0.118182

$$$$

