PCCDB-ID:  23471
public computational chemistry database (PCCDB) project, http://pccdb.org

 20 19  0  0  0  0  0  0  0  0999 V2000
    0.4341   -0.0990   -0.1223 C   0  0  0  0  0  0  0  0  0  0  0  0
    5.4262   -1.1449    2.3783 C   0  0  0  0  0  0  0  0  0  0  0  0
    1.9236    0.0208   -0.4599 C   0  0  0  0  0  0  0  0  0  0  0  0
    2.8168   -0.8040    0.4760 C   0  0  0  0  0  0  0  0  0  0  0  0
    4.3049   -0.6753    0.1230 C   0  0  0  0  0  0  0  0  0  0  0  0
    5.7277   -2.5564    0.4322 N   0  0  0  0  0  0  0  0  0  0  0  0
    5.1807   -1.4657    0.9785 N   0  0  0  0  0  0  0  0  0  0  0  0
    6.4176   -3.2186    1.2069 O   0  0  0  0  0  0  0  0  0  0  0  0
   -0.1781    0.4943   -0.8105 H   0  0  0  0  0  0  0  0  0  0  0  0
    0.2284    0.2534    0.8958 H   0  0  0  0  0  0  0  0  0  0  0  0
    0.0960   -1.1401   -0.1876 H   0  0  0  0  0  0  0  0  0  0  0  0
    4.9991   -0.1634    2.5906 H   0  0  0  0  0  0  0  0  0  0  0  0
    6.5036   -1.1365    2.5675 H   0  0  0  0  0  0  0  0  0  0  0  0
    4.9783   -1.8967    3.0374 H   0  0  0  0  0  0  0  0  0  0  0  0
    2.2259    1.0768   -0.4158 H   0  0  0  0  0  0  0  0  0  0  0  0
    2.0916   -0.3020   -1.4969 H   0  0  0  0  0  0  0  0  0  0  0  0
    2.5359   -1.8643    0.4267 H   0  0  0  0  0  0  0  0  0  0  0  0
    2.6523   -0.4836    1.5145 H   0  0  0  0  0  0  0  0  0  0  0  0
    4.6196    0.3761    0.1712 H   0  0  0  0  0  0  0  0  0  0  0  0
    4.4866   -1.0323   -0.8951 H   0  0  0  0  0  0  0  0  0  0  0  0
  1 10  1  0  0  0  0
  2 13  1  0  0  0  0
  2 12  1  0  0  0  0
  2 14  1  0  0  0  0
  3 15  1  0  0  0  0
  3  1  1  0  0  0  0
  3  4  1  0  0  0  0
  4 18  1  0  0  0  0
  5 19  1  0  0  0  0
  5  4  1  0  0  0  0
  5  7  1  0  0  0  0
  6  7  1  0  0  0  0
  6  8  1  0  0  0  0
  7  2  1  0  0  0  0
  9  1  1  0  0  0  0
 11  1  1  0  0  0  0
 16  3  1  0  0  0  0
 17  4  1  0  0  0  0
 20  5  1  0  0  0  0
M  RAD  2   6   2   8   2
M  END
>  <HBA>
3

>  <HBD>
0

>  <TPSA>
32.67

>  <cid>
23471

>  <dipole>
4.31

>  <excitation_energy_1>
3.433

>  <excitation_energy_2>
5.628

>  <excitation_energy_3>
5.906

>  <excitation_energy_4>
6.127

>  <homo_energy>
-5.935

>  <homo_lumo_gap>
5.298

>  <logP>
1.4

>  <lumo_energy>
-0.637

>  <melting_point>
-4.21

>  <molecular_refractivity>
33.78

>  <oscillator_strength_1>
0.0014

>  <oscillator_strength_2>
0.008

>  <oscillator_strength_3>
0.1887

>  <oscillator_strength_4>
0.0039

>  <open_babel_can_smiles>
CN([N][O])CCCC

>  <mulliken_charges>
20
1   -0.442547
2   -0.316837
3   -0.253565
4   -0.256758
5   -0.137141
6   0.138776
7   -0.203941
8   -0.387275
9   0.148018
10   0.144224
11   0.14829
12   0.159599
13   0.189096
14   0.182099
15   0.134477
16   0.140243
17   0.151555
18   0.136626
19   0.149046
20   0.176016

>  <lowdin_charges>
20
1   -0.44243
2   -0.368421
3   -0.269433
4   -0.28204
5   -0.201004
6   0.047539
7   -0.039983
8   -0.279904
9   0.154228
10   0.147134
11   0.148958
12   0.161021
13   0.171997
14   0.168965
15   0.139291
16   0.142497
17   0.149192
18   0.140914
19   0.145736
20   0.165745

$$$$

