PCCDB-ID:  8361
public computational chemistry database (PCCDB) project, http://pccdb.org

 26 27  0  0  0  0  0  0  0  0999 V2000
    3.6465    2.7307    2.6496 C   0  0  0  0  0  0  0  0  0  0  0  0
    2.8208    1.8615    3.3649 C   0  0  0  0  0  0  0  0  0  0  0  0
    3.9171    2.4754    1.3038 C   0  0  0  0  0  0  0  0  0  0  0  0
    1.5710   -4.5471   -1.9065 C   0  0  0  0  0  0  0  0  0  0  0  0
    0.2292   -4.7334   -1.5637 C   0  0  0  0  0  0  0  0  0  0  0  0
    2.2730    0.7417    2.7399 C   0  0  0  0  0  0  0  0  0  0  0  0
    3.3743    1.3602    0.6637 C   0  0  0  0  0  0  0  0  0  0  0  0
    2.2588   -3.4665   -1.3715 C   0  0  0  0  0  0  0  0  0  0  0  0
   -0.3994   -3.8455   -0.6985 C   0  0  0  0  0  0  0  0  0  0  0  0
    2.5575    0.4985    1.3969 C   0  0  0  0  0  0  0  0  0  0  0  0
    1.6502   -2.5519   -0.4935 C   0  0  0  0  0  0  0  0  0  0  0  0
    0.2920   -2.7526   -0.1535 C   0  0  0  0  0  0  0  0  0  0  0  0
    2.5334   -1.4512   -0.0100 C   0  0  0  0  0  0  0  0  0  0  0  0
   -0.3411   -1.8967    0.6925 O   0  0  0  0  0  0  0  0  0  0  0  0
    3.6969   -1.3385   -0.3359 O   0  0  0  0  0  0  0  0  0  0  0  0
    1.8980   -0.5948    0.8355 O   0  0  0  0  0  0  0  0  0  0  0  0
    4.0752    3.6021    3.1365 H   0  0  0  0  0  0  0  0  0  0  0  0
    2.5997    2.0528    4.4114 H   0  0  0  0  0  0  0  0  0  0  0  0
    4.5575    3.1489    0.7407 H   0  0  0  0  0  0  0  0  0  0  0  0
    2.0701   -5.2349   -2.5817 H   0  0  0  0  0  0  0  0  0  0  0  0
   -0.3318   -5.5711   -1.9691 H   0  0  0  0  0  0  0  0  0  0  0  0
    1.6239    0.0534    3.2717 H   0  0  0  0  0  0  0  0  0  0  0  0
    3.5900    1.1567   -0.3769 H   0  0  0  0  0  0  0  0  0  0  0  0
    3.3010   -3.2933   -1.6162 H   0  0  0  0  0  0  0  0  0  0  0  0
   -1.4449   -3.9923   -0.4317 H   0  0  0  0  0  0  0  0  0  0  0  0
   -1.2582   -2.1973    0.7970 H   0  0  0  0  0  0  0  0  0  0  0  0
  1 17  1  0  0  0  0
  1  2  2  0  0  0  0
  2 18  1  0  0  0  0
  3  1  1  0  0  0  0
  4  5  2  0  0  0  0
  4  8  1  0  0  0  0
  5  9  1  0  0  0  0
  6 22  1  0  0  0  0
  6  2  1  0  0  0  0
  7  3  2  0  0  0  0
  7 10  1  0  0  0  0
  8 11  2  0  0  0  0
  9 25  1  0  0  0  0
  9 12  2  0  0  0  0
 10  6  2  0  0  0  0
 11 12  1  0  0  0  0
 11 13  1  0  0  0  0
 12 14  1  0  0  0  0
 13 16  1  0  0  0  0
 14 26  1  0  0  0  0
 15 13  2  0  0  0  0
 16 10  1  0  0  0  0
 19  3  1  0  0  0  0
 20  4  1  0  0  0  0
 21  5  1  0  0  0  0
 23  7  1  0  0  0  0
 24  8  1  0  0  0  0
M  END
>  <HBA>
3

>  <HBD>
1

>  <TPSA>
46.53

>  <cid>
8361

>  <dipole>
3.5

>  <excitation_energy_1>
4.343

>  <excitation_energy_2>
4.489

>  <excitation_energy_3>
4.647

>  <excitation_energy_4>
4.965

>  <homo_energy>
-6.299

>  <homo_lumo_gap>
5.034

>  <logP>
2.611

>  <lumo_energy>
-1.265

>  <melting_point>
111.51

>  <molecular_refractivity>
59.87

>  <oscillator_strength_1>
0.176

>  <oscillator_strength_2>
0.0432

>  <oscillator_strength_3>
0.0013

>  <oscillator_strength_4>
0.0013

>  <open_babel_can_smiles>
O=C(c1ccccc1O)Oc1ccccc1

>  <mulliken_charges>
26
1   -0.123426
2   -0.139432
3   -0.145478
4   -0.13943
5   -0.121465
6   -0.164409
7   -0.136873
8   -0.166295
9   -0.197752
10   0.344353
11   0.022404
12   0.305793
13   0.597235
14   -0.615332
15   -0.47933
16   -0.517456
17   0.12901
18   0.132092
19   0.134214
20   0.136938
21   0.140066
22   0.143266
23   0.157282
24   0.17056
25   0.123367
26   0.410099

>  <lowdin_charges>
26
1   -0.164698
2   -0.150179
3   -0.151385
4   -0.180222
5   -0.128319
6   -0.172002
7   -0.167012
8   -0.115536
9   -0.214161
10   0.105221
11   -0.079848
12   0.11933
13   0.205594
14   -0.350518
15   -0.260551
16   -0.138378
17   0.15884
18   0.157844
19   0.161495
20   0.164062
21   0.164113
22   0.170089
23   0.174728
24   0.180055
25   0.154144
26   0.357293

$$$$

