PCCDB-ID:  22591
public computational chemistry database (PCCDB) project, http://pccdb.org

 21 20  0  0  0  0  0  0  0  0999 V2000
    0.9247    0.2798    0.0912 C   0  0  0  0  0  0  0  0  0  0  0  0
    5.3463   -4.1638   -0.3675 C   0  0  0  0  0  0  0  0  0  0  0  0
    2.4352    0.0242    0.0949 C   0  0  0  0  0  0  0  0  0  0  0  0
    2.8579   -1.0861   -0.8746 C   0  0  0  0  0  0  0  0  0  0  0  0
    4.3809   -1.3335   -0.8798 C   0  0  0  0  0  0  0  0  0  0  0  0
    4.8010   -2.4042   -1.8738 C   0  0  0  0  0  0  0  0  0  0  0  0
    5.2048   -3.5875   -1.6838 N   0  0  0  0  0  0  0  0  0  0  0  0
    4.6846   -2.0174   -3.1884 O   0  0  0  0  0  0  0  0  0  0  0  0
    0.6545    1.0748    0.7950 H   0  0  0  0  0  0  0  0  0  0  0  0
    0.3690   -0.6214    0.3770 H   0  0  0  0  0  0  0  0  0  0  0  0
    0.5754    0.5821   -0.9036 H   0  0  0  0  0  0  0  0  0  0  0  0
    4.7052   -5.0517   -0.2949 H   0  0  0  0  0  0  0  0  0  0  0  0
    5.1036   -3.5067    0.4826 H   0  0  0  0  0  0  0  0  0  0  0  0
    6.3787   -4.5123   -0.2380 H   0  0  0  0  0  0  0  0  0  0  0  0
    2.7607   -0.2401    1.1108 H   0  0  0  0  0  0  0  0  0  0  0  0
    2.9656    0.9523   -0.1622 H   0  0  0  0  0  0  0  0  0  0  0  0
    2.5183   -0.8335   -1.8892 H   0  0  0  0  0  0  0  0  0  0  0  0
    2.3473   -2.0222   -0.6122 H   0  0  0  0  0  0  0  0  0  0  0  0
    4.7102   -1.6019    0.1277 H   0  0  0  0  0  0  0  0  0  0  0  0
    4.9050   -0.3990   -1.1316 H   0  0  0  0  0  0  0  0  0  0  0  0
    4.4325   -1.0823   -3.2210 H   0  0  0  0  0  0  0  0  0  0  0  0
  1  3  1  0  0  0  0
  1 10  1  0  0  0  0
  1  9  1  0  0  0  0
  2 12  1  0  0  0  0
  2 14  1  0  0  0  0
  2 13  1  0  0  0  0
  3 15  1  0  0  0  0
  4 18  1  0  0  0  0
  4  3  1  0  0  0  0
  5  4  1  0  0  0  0
  5 19  1  0  0  0  0
  6  7  2  0  0  0  0
  6  5  1  0  0  0  0
  7  2  1  0  0  0  0
  8  6  1  0  0  0  0
 11  1  1  0  0  0  0
 16  3  1  0  0  0  0
 17  4  1  0  0  0  0
 20  5  1  0  0  0  0
 21  8  1  0  0  0  0
M  END
>  <HBA>
2

>  <HBD>
1

>  <TPSA>
29.1

>  <cid>
22591

>  <dipole>
3.78

>  <excitation_energy_1>
5.595

>  <excitation_energy_2>
5.931

>  <excitation_energy_3>
5.955

>  <excitation_energy_4>
6.265

>  <homo_energy>
-6.43

>  <homo_lumo_gap>
7.268

>  <logP>
1.313

>  <lumo_energy>
0.838

>  <melting_point>
22.01

>  <molecular_refractivity>
33.96

>  <oscillator_strength_1>
0.0003

>  <oscillator_strength_2>
0.0095

>  <oscillator_strength_3>
0.0067

>  <oscillator_strength_4>
0.0145

>  <open_babel_can_smiles>
CCCC/C(=N\C)/O

>  <mulliken_charges>
21
1   -0.443071
2   -0.321518
3   -0.248042
4   -0.251026
5   -0.371082
6   0.492373
7   -0.405976
8   -0.584672
9   0.147322
10   0.147157
11   0.144478
12   0.158085
13   0.119213
14   0.158737
15   0.137238
16   0.132155
17   0.130169
18   0.151523
19   0.161517
20   0.144356
21   0.401065

>  <lowdin_charges>
21
1   -0.44483
2   -0.355024
3   -0.272074
4   -0.271871
5   -0.311468
6   0.122851
7   -0.201588
8   -0.374889
9   0.153339
10   0.149936
11   0.147593
12   0.15394
13   0.124245
14   0.152736
15   0.141406
16   0.139716
17   0.137243
18   0.150217
19   0.159801
20   0.150356
21   0.348365

$$$$

