PCCDB-ID:  29509
public computational chemistry database (PCCDB) project, http://pccdb.org

 30 30  0  0  0  0  0  0  0  0999 V2000
    1.6195   -0.6380   -2.2415 C   0  0  0  0  0  0  0  0  0  0  0  0
   -0.1989    0.5091    0.8128 C   0  0  0  0  0  0  0  0  0  0  0  0
    2.2068    0.2921   -1.1714 C   0  0  0  0  0  0  0  0  0  0  0  0
    0.8189   -0.6375    0.8029 C   0  0  0  0  0  0  0  0  0  0  0  0
    7.3521   -0.5097   -0.3173 C   0  0  0  0  0  0  0  0  0  0  0  0
    6.6318   -1.2887   -1.2229 C   0  0  0  0  0  0  0  0  0  0  0  0
    6.7232   -0.0439    0.8398 C   0  0  0  0  0  0  0  0  0  0  0  0
    5.2928   -1.5973   -0.9726 C   0  0  0  0  0  0  0  0  0  0  0  0
    5.3859   -0.3550    1.0837 C   0  0  0  0  0  0  0  0  0  0  0  0
    3.1908   -1.4539    0.4551 C   0  0  0  0  0  0  0  0  0  0  0  0
    2.2175   -0.2580    0.2734 C   0  0  0  0  0  0  0  0  0  0  0  0
    4.6461   -1.1337    0.1806 C   0  0  0  0  0  0  0  0  0  0  0  0
    1.6762   -0.1667   -3.2293 H   0  0  0  0  0  0  0  0  0  0  0  0
    0.5658   -0.8717   -2.0510 H   0  0  0  0  0  0  0  0  0  0  0  0
    2.1619   -1.5884   -2.3036 H   0  0  0  0  0  0  0  0  0  0  0  0
   -1.1380    0.1928    1.2812 H   0  0  0  0  0  0  0  0  0  0  0  0
   -0.4382    0.8567   -0.1982 H   0  0  0  0  0  0  0  0  0  0  0  0
    0.1800    1.3700    1.3780 H   0  0  0  0  0  0  0  0  0  0  0  0
    1.6512    1.2385   -1.1824 H   0  0  0  0  0  0  0  0  0  0  0  0
    3.2367    0.5490   -1.4478 H   0  0  0  0  0  0  0  0  0  0  0  0
    0.4180   -1.4776    0.2190 H   0  0  0  0  0  0  0  0  0  0  0  0
    0.9327   -1.0163    1.8282 H   0  0  0  0  0  0  0  0  0  0  0  0
    8.3950   -0.2707   -0.5076 H   0  0  0  0  0  0  0  0  0  0  0  0
    7.1113   -1.6610   -2.1247 H   0  0  0  0  0  0  0  0  0  0  0  0
    7.2770    0.5576    1.5563 H   0  0  0  0  0  0  0  0  0  0  0  0
    4.7420   -2.2115   -1.6817 H   0  0  0  0  0  0  0  0  0  0  0  0
    4.9078    0.0065    1.9921 H   0  0  0  0  0  0  0  0  0  0  0  0
    2.8715   -2.2868   -0.1839 H   0  0  0  0  0  0  0  0  0  0  0  0
    3.0936   -1.8116    1.4895 H   0  0  0  0  0  0  0  0  0  0  0  0
    2.5940    0.5568    0.9117 H   0  0  0  0  0  0  0  0  0  0  0  0
  1 14  1  0  0  0  0
  1  3  1  0  0  0  0
  2 16  1  0  0  0  0
  2 18  1  0  0  0  0
  3 11  1  0  0  0  0
  4  2  1  0  0  0  0
  4 22  1  0  0  0  0
  5  7  2  0  0  0  0
  6  8  2  0  0  0  0
  6  5  1  0  0  0  0
  7  9  1  0  0  0  0
  7 25  1  0  0  0  0
  8 12  1  0  0  0  0
  9 27  1  0  0  0  0
 10 29  1  0  0  0  0
 11 10  1  0  0  0  0
 11  4  1  0  0  0  0
 11 30  1  0  0  0  0
 12 10  1  0  0  0  0
 12  9  2  0  0  0  0
 13  1  1  0  0  0  0
 15  1  1  0  0  0  0
 17  2  1  0  0  0  0
 19  3  1  0  0  0  0
 20  3  1  0  0  0  0
 21  4  1  0  0  0  0
 23  5  1  0  0  0  0
 24  6  1  0  0  0  0
 26  8  1  0  0  0  0
 28 10  1  0  0  0  0
M  END
>  <HBA>
0

>  <HBD>
0

>  <TPSA>
0.0

>  <cid>
29509

>  <dipole>
0.26

>  <excitation_energy_1>
5.278

>  <excitation_energy_2>
5.831

>  <excitation_energy_3>
5.96

>  <excitation_energy_4>
6.172

>  <homo_energy>
-6.387

>  <homo_lumo_gap>
6.474

>  <logP>
3.665

>  <lumo_energy>
0.087

>  <melting_point>
3.83

>  <molecular_refractivity>
55.44

>  <oscillator_strength_1>
0.0014

>  <oscillator_strength_2>
0.0466

>  <oscillator_strength_3>
0.0036

>  <oscillator_strength_4>
0.0033

>  <open_babel_can_smiles>
CCC(Cc1ccccc1)CC

>  <mulliken_charges>
30
1   -0.452688
2   -0.450035
3   -0.263928
4   -0.252275
5   -0.132027
6   -0.127545
7   -0.128458
8   -0.188062
9   -0.180536
10   -0.357382
11   -0.065676
12   0.176401
13   0.143385
14   0.145034
15   0.142233
16   0.142044
17   0.148148
18   0.141386
19   0.133015
20   0.14556
21   0.132458
22   0.127405
23   0.126296
24   0.12682
25   0.126698
26   0.123225
27   0.121696
28   0.137704
29   0.140049
30   0.119053

>  <lowdin_charges>
30
1   -0.447676
2   -0.446966
3   -0.280277
4   -0.276556
5   -0.161215
6   -0.156639
7   -0.156879
8   -0.171716
9   -0.167832
10   -0.276766
11   -0.125694
12   0.000335
13   0.150932
14   0.1453
15   0.144268
16   0.150284
17   0.147676
18   0.14708
19   0.142239
20   0.149233
21   0.140573
22   0.139174
23   0.154837
24   0.156635
25   0.157455
26   0.154854
27   0.153582
28   0.147139
29   0.149157
30   0.137463

$$$$

