PCCDB-ID:  24286
public computational chemistry database (PCCDB) project, http://pccdb.org

 20 21  0  0  0  0  0  0  0  0999 V2000
   -2.1868    0.2095    0.2835 C   0  0  0  0  0  0  0  0  0  0  0  0
   -1.5353    0.3686   -0.9417 C   0  0  0  0  0  0  0  0  0  0  0  0
   -1.4425    0.0756    1.4589 C   0  0  0  0  0  0  0  0  0  0  0  0
   -0.1424    0.4019   -0.9936 C   0  0  0  0  0  0  0  0  0  0  0  0
   -0.0513    0.1038    1.4090 C   0  0  0  0  0  0  0  0  0  0  0  0
    3.9959    1.3468   -1.0064 C   0  0  0  0  0  0  0  0  0  0  0  0
    2.7725    2.0846   -1.4541 C   0  0  0  0  0  0  0  0  0  0  0  0
    0.6086    0.2754    0.1837 C   0  0  0  0  0  0  0  0  0  0  0  0
    2.1036    0.3041    0.1914 C   0  0  0  0  0  0  0  0  0  0  0  0
    2.7066    0.6880   -1.0201 N   0  0  0  0  0  0  0  0  0  0  0  0
    2.7638   -0.0321    1.1625 O   0  0  0  0  0  0  0  0  0  0  0  0
   -3.2727    0.1844    0.3219 H   0  0  0  0  0  0  0  0  0  0  0  0
   -2.1126    0.4607   -1.8577 H   0  0  0  0  0  0  0  0  0  0  0  0
   -1.9479   -0.0526    2.4122 H   0  0  0  0  0  0  0  0  0  0  0  0
    0.3669    0.5066   -1.9458 H   0  0  0  0  0  0  0  0  0  0  0  0
    0.5475   -0.0059    2.3073 H   0  0  0  0  0  0  0  0  0  0  0  0
    4.4113    1.5834   -0.0292 H   0  0  0  0  0  0  0  0  0  0  0  0
    4.7118    0.9922   -1.7442 H   0  0  0  0  0  0  0  0  0  0  0  0
    2.5890    2.2612   -2.5119 H   0  0  0  0  0  0  0  0  0  0  0  0
    2.3651    2.8400   -0.7841 H   0  0  0  0  0  0  0  0  0  0  0  0
  1 12  1  0  0  0  0
  1  3  2  0  0  0  0
  2  1  1  0  0  0  0
  3 14  1  0  0  0  0
  4  2  2  0  0  0  0
  4  8  1  0  0  0  0
  5  3  1  0  0  0  0
  5 16  1  0  0  0  0
  6 17  1  0  0  0  0
  7 10  1  0  0  0  0
  7  6  1  0  0  0  0
  7 20  1  0  0  0  0
  8  9  1  0  0  0  0
  8  5  2  0  0  0  0
  9 11  2  0  0  0  0
 10  6  1  0  0  0  0
 10  9  1  0  0  0  0
 13  2  1  0  0  0  0
 15  4  1  0  0  0  0
 18  6  1  0  0  0  0
 19  7  1  0  0  0  0
M  END
>  <HBA>
2

>  <HBD>
0

>  <TPSA>
20.08

>  <cid>
24286

>  <dipole>
3.05

>  <excitation_energy_1>
4.261

>  <excitation_energy_2>
4.843

>  <excitation_energy_3>
5.096

>  <excitation_energy_4>
5.495

>  <homo_energy>
-6.735

>  <homo_lumo_gap>
5.497

>  <logP>
1.08

>  <lumo_energy>
-1.238

>  <melting_point>
48.84

>  <molecular_refractivity>
46.14

>  <oscillator_strength_1>
0.0054

>  <oscillator_strength_2>
0.0133

>  <oscillator_strength_3>
0.2424

>  <oscillator_strength_4>
0.0562

>  <open_babel_can_smiles>
O=C(c1ccccc1)N1CC1

>  <mulliken_charges>
20
1   -0.118939
2   -0.135535
3   -0.13737
4   -0.169812
5   -0.156308
6   -0.187713
7   -0.198921
8   0.081651
9   0.494472
10   -0.396003
11   -0.481199
12   0.135831
13   0.134583
14   0.136964
15   0.150847
16   0.16222
17   0.181295
18   0.167075
19   0.165418
20   0.171446

>  <lowdin_charges>
20
1   -0.139407
2   -0.158718
3   -0.156262
4   -0.145877
5   -0.132445
6   -0.22244
7   -0.220857
8   -0.04384
9   0.164571
10   -0.161104
11   -0.266832
12   0.158463
13   0.160406
14   0.161193
15   0.169229
16   0.17664
17   0.16819
18   0.166216
19   0.160224
20   0.162651

$$$$

