PCCDB-ID:  332
public computational chemistry database (PCCDB) project, http://pccdb.org

 21 21  0  0  0  0  0  0  0  0999 V2000
    2.4265    1.2594   -0.4054 C   0  0  0  0  0  0  0  0  0  0  0  0
    2.7101   -5.7998   -0.5814 C   0  0  0  0  0  0  0  0  0  0  0  0
    2.2268   -0.0185   -0.0577 C   0  0  0  0  0  0  0  0  0  0  0  0
    4.3215   -1.0768   -1.0108 C   0  0  0  0  0  0  0  0  0  0  0  0
    5.1017   -2.2060   -1.2366 C   0  0  0  0  0  0  0  0  0  0  0  0
    2.6871   -2.4488    0.0933 C   0  0  0  0  0  0  0  0  0  0  0  0
    3.0952   -1.1730   -0.3329 C   0  0  0  0  0  0  0  0  0  0  0  0
    4.6887   -3.4665   -0.7939 C   0  0  0  0  0  0  0  0  0  0  0  0
    3.4560   -3.5884   -0.1256 C   0  0  0  0  0  0  0  0  0  0  0  0
    5.4393   -4.5974   -0.9726 O   0  0  0  0  0  0  0  0  0  0  0  0
    3.0181   -4.7878    0.3807 O   0  0  0  0  0  0  0  0  0  0  0  0
    1.7068    2.0279   -0.1407 H   0  0  0  0  0  0  0  0  0  0  0  0
    3.3004    1.5915   -0.9598 H   0  0  0  0  0  0  0  0  0  0  0  0
    2.3235   -6.6476   -0.0111 H   0  0  0  0  0  0  0  0  0  0  0  0
    3.5983   -6.1086   -1.1409 H   0  0  0  0  0  0  0  0  0  0  0  0
    1.9381   -5.4512   -1.2807 H   0  0  0  0  0  0  0  0  0  0  0  0
    1.3195   -0.2610    0.4959 H   0  0  0  0  0  0  0  0  0  0  0  0
    4.6783   -0.1137   -1.3620 H   0  0  0  0  0  0  0  0  0  0  0  0
    6.0546   -2.1124   -1.7559 H   0  0  0  0  0  0  0  0  0  0  0  0
    1.7467   -2.5769    0.6223 H   0  0  0  0  0  0  0  0  0  0  0  0
    6.2590   -4.3552   -1.4310 H   0  0  0  0  0  0  0  0  0  0  0  0
  1 12  1  0  0  0  0
  1  3  2  0  0  0  0
  2 14  1  0  0  0  0
  2 11  1  0  0  0  0
  3 17  1  0  0  0  0
  4  7  1  0  0  0  0
  5  4  2  0  0  0  0
  5  8  1  0  0  0  0
  6 20  1  0  0  0  0
  7  3  1  0  0  0  0
  7  6  2  0  0  0  0
  8  9  2  0  0  0  0
  9  6  1  0  0  0  0
  9 11  1  0  0  0  0
 10  8  1  0  0  0  0
 13  1  1  0  0  0  0
 15  2  1  0  0  0  0
 16  2  1  0  0  0  0
 18  4  1  0  0  0  0
 19  5  1  0  0  0  0
 21 10  1  0  0  0  0
M  END
>  <HBA>
2

>  <HBD>
1

>  <TPSA>
29.46

>  <cid>
332

>  <dipole>
2.23

>  <excitation_energy_1>
4.548

>  <excitation_energy_2>
4.572

>  <excitation_energy_3>
4.807

>  <excitation_energy_4>
5.426

>  <homo_energy>
-5.529

>  <homo_lumo_gap>
4.92

>  <logP>
2.044

>  <lumo_energy>
-0.61

>  <melting_point>
43.53

>  <molecular_refractivity>
45.05

>  <oscillator_strength_1>
0.2444

>  <oscillator_strength_2>
0.0644

>  <oscillator_strength_3>
0.0008

>  <oscillator_strength_4>
0.0263

>  <open_babel_can_smiles>
COc1cc(C=C)ccc1O

>  <mulliken_charges>
21
1   -0.356363
2   -0.214371
3   -0.114612
4   -0.188444
5   -0.198566
6   -0.257143
7   0.172282
8   0.3143
9   0.336078
10   -0.640107
11   -0.521723
12   0.142037
13   0.137179
14   0.158988
15   0.167788
16   0.139064
17   0.127454
18   0.128403
19   0.120673
20   0.136756
21   0.410329

>  <lowdin_charges>
21
1   -0.34232
2   -0.279162
3   -0.143995
4   -0.153533
5   -0.204072
6   -0.170101
7   -0.016898
8   0.076361
9   0.067581
10   -0.372584
11   -0.222695
12   0.163051
13   0.154675
14   0.157252
15   0.152865
16   0.139631
17   0.154619
18   0.159458
19   0.153448
20   0.166089
21   0.36033

$$$$

