PCCDB-ID:  13567
public computational chemistry database (PCCDB) project, http://pccdb.org

 17 16  0  0  0  0  0  0  0  0999 V2000
    0.8974   -0.6609   -0.6903 C   0  0  0  0  0  0  0  0  0  0  0  0
    2.3523   -0.6239   -0.2125 C   0  0  0  0  0  0  0  0  0  0  0  0
    2.6947    0.6760    0.5306 C   0  0  0  0  0  0  0  0  0  0  0  0
    4.1439    0.6921    0.9978 C   0  0  0  0  0  0  0  0  0  0  0  0
    5.6330    2.1522    2.1861 N   0  0  0  0  0  0  0  0  0  0  0  0
    5.7655    3.2162    2.7419 O   0  0  0  0  0  0  0  0  0  0  0  0
    6.4423    1.2607    2.0170 O   0  0  0  0  0  0  0  0  0  0  0  0
    4.3313    1.9604    1.6736 O   0  0  0  0  0  0  0  0  0  0  0  0
    0.6781   -1.5962   -1.2167 H   0  0  0  0  0  0  0  0  0  0  0  0
    0.6845    0.1670   -1.3770 H   0  0  0  0  0  0  0  0  0  0  0  0
    0.2011   -0.5807    0.1529 H   0  0  0  0  0  0  0  0  0  0  0  0
    3.0243   -0.7400   -1.0739 H   0  0  0  0  0  0  0  0  0  0  0  0
    2.5441   -1.4827    0.4456 H   0  0  0  0  0  0  0  0  0  0  0  0
    2.0357    0.7961    1.3995 H   0  0  0  0  0  0  0  0  0  0  0  0
    2.5190    1.5390   -0.1238 H   0  0  0  0  0  0  0  0  0  0  0  0
    4.8456    0.6237    0.1604 H   0  0  0  0  0  0  0  0  0  0  0  0
    4.3593   -0.1232    1.6957 H   0  0  0  0  0  0  0  0  0  0  0  0
  1  2  1  0  0  0  0
  1 11  1  0  0  0  0
  2 13  1  0  0  0  0
  2  3  1  0  0  0  0
  3  4  1  0  0  0  0
  3 14  1  0  0  0  0
  4  8  1  0  0  0  0
  4 17  1  0  0  0  0
  5  6  2  0  0  0  0
  7  5  2  0  0  0  0
  8  5  1  0  0  0  0
  9  1  1  0  0  0  0
 10  1  1  0  0  0  0
 12  2  1  0  0  0  0
 15  3  1  0  0  0  0
 16  4  1  0  0  0  0
M  END
>  <HBA>
0

>  <HBD>
0

>  <TPSA>
55.05

>  <cid>
13567

>  <dipole>
3.69

>  <excitation_energy_1>
4.705

>  <excitation_energy_2>
5.602

>  <excitation_energy_3>
6.174

>  <excitation_energy_4>
6.821

>  <homo_energy>
-8.43

>  <homo_lumo_gap>
6.773

>  <logP>
1.518

>  <lumo_energy>
-1.657

>  <melting_point>
-1.08

>  <molecular_refractivity>
30.53

>  <oscillator_strength_1>
0.0

>  <oscillator_strength_2>
0.0004

>  <oscillator_strength_3>
0.0749

>  <oscillator_strength_4>
0.005

>  <open_babel_can_smiles>
CCCCON(=O)=O

>  <mulliken_charges>
17
1   -0.44241
2   -0.260481
3   -0.279853
4   -0.031804
5   0.751289
6   -0.358311
7   -0.372162
8   -0.385639
9   0.150544
10   0.148649
11   0.148635
12   0.140857
13   0.14086
14   0.157476
15   0.157506
16   0.167252
17   0.167592

>  <lowdin_charges>
17
1   -0.443564
2   -0.272303
3   -0.281088
4   -0.138379
5   0.374516
6   -0.197868
7   -0.224089
8   -0.18361
9   0.15445
10   0.150978
11   0.150871
12   0.144386
13   0.144446
14   0.15492
15   0.154937
16   0.155396
17   0.156

$$$$

