PCCDB-ID:  61812
public computational chemistry database (PCCDB) project, http://pccdb.org

 29 28  0  0  1  0  0  0  0  0999 V2000
    5.3813   -6.9224    0.6258 C   0  0  0  0  0  0  0  0  0  0  0  0
    8.6234   -1.5771   -1.0510 C   0  0  0  0  0  0  0  0  0  0  0  0
    8.1192    0.5578    2.2115 C   0  0  0  0  0  0  0  0  0  0  0  0
    5.0226   -5.6863    1.4569 C   0  0  0  0  0  0  0  0  0  0  0  0
    8.9531   -0.7059    0.1652 C   0  0  0  0  0  0  0  0  0  0  0  0
    5.7226   -4.4136    0.9612 C   0  0  0  0  0  0  0  0  0  0  0  0
    5.3598   -3.1927    1.8004 C   0  0  0  0  0  0  0  0  0  0  0  0
    7.7428   -0.4112    1.0773 C   0  0  1  0  0  0  0  0  0  0  0  0
    7.2268   -1.7098    1.6816 C   0  0  0  0  0  0  0  0  0  0  0  0
    7.8640   -2.4151    2.4375 O   0  0  0  0  0  0  0  0  0  0  0  0
    5.9646   -1.9853    1.2783 O   0  0  0  0  0  0  0  0  0  0  0  0
    4.8709   -7.8163    1.0013 H   0  0  0  0  0  0  0  0  0  0  0  0
    6.4601   -7.1175    0.6532 H   0  0  0  0  0  0  0  0  0  0  0  0
    5.0948   -6.7905   -0.4246 H   0  0  0  0  0  0  0  0  0  0  0  0
    9.5095   -1.7220   -1.6790 H   0  0  0  0  0  0  0  0  0  0  0  0
    7.8449   -1.1176   -1.6721 H   0  0  0  0  0  0  0  0  0  0  0  0
    8.2668   -2.5694   -0.7513 H   0  0  0  0  0  0  0  0  0  0  0  0
    8.5210    1.4893    1.7980 H   0  0  0  0  0  0  0  0  0  0  0  0
    8.8778    0.1089    2.8605 H   0  0  0  0  0  0  0  0  0  0  0  0
    7.2493    0.8089    2.8287 H   0  0  0  0  0  0  0  0  0  0  0  0
    5.2906   -5.8627    2.5079 H   0  0  0  0  0  0  0  0  0  0  0  0
    3.9336   -5.5368    1.4390 H   0  0  0  0  0  0  0  0  0  0  0  0
    9.3629    0.2552   -0.1723 H   0  0  0  0  0  0  0  0  0  0  0  0
    9.7317   -1.1870    0.7705 H   0  0  0  0  0  0  0  0  0  0  0  0
    5.4503   -4.2203   -0.0852 H   0  0  0  0  0  0  0  0  0  0  0  0
    6.8098   -4.5526    0.9944 H   0  0  0  0  0  0  0  0  0  0  0  0
    5.6727   -3.3243    2.8399 H   0  0  0  0  0  0  0  0  0  0  0  0
    4.2845   -2.9949    1.7679 H   0  0  0  0  0  0  0  0  0  0  0  0
    6.9375    0.0249    0.4752 H   0  0  0  0  0  0  0  0  0  0  0  0
  1 13  1  0  0  0  0
  1 12  1  0  0  0  0
  1  4  1  0  0  0  0
  2 17  1  0  0  0  0
  2  5  1  0  0  0  0
  3 20  1  0  0  0  0
  3 19  1  0  0  0  0
  4 21  1  0  0  0  0
  5 24  1  0  0  0  0
  5  8  1  0  0  0  0
  6 26  1  0  0  0  0
  6  4  1  0  0  0  0
  6  7  1  0  0  0  0
  7 27  1  0  0  0  0
  8 29  1  6  0  0  0
  8  9  1  0  0  0  0
  8  3  1  0  0  0  0
  9 10  2  0  0  0  0
 11  9  1  0  0  0  0
 11  7  1  0  0  0  0
 14  1  1  0  0  0  0
 15  2  1  0  0  0  0
 16  2  1  0  0  0  0
 18  3  1  0  0  0  0
 22  4  1  0  0  0  0
 23  5  1  0  0  0  0
 25  6  1  0  0  0  0
 28  7  1  0  0  0  0
M  END
>  <HBA>
2

>  <HBD>
0

>  <TPSA>
26.3

>  <cid>
61812

>  <dipole>
1.52

>  <excitation_energy_1>
5.763

>  <excitation_energy_2>
6.932

>  <excitation_energy_3>
7.28

>  <excitation_energy_4>
7.331

>  <homo_energy>
-7.168

>  <homo_lumo_gap>
7.619

>  <logP>
2.376

>  <lumo_energy>
0.452

>  <melting_point>
-16.11

>  <molecular_refractivity>
46.66

>  <oscillator_strength_1>
0.0015

>  <oscillator_strength_2>
0.0035

>  <oscillator_strength_3>
0.0001

>  <oscillator_strength_4>
0.0041

>  <open_babel_can_smiles>
CCCCOC(=O)[C@H](CC)C

>  <mulliken_charges>
29
1   -0.44124
2   -0.454222
3   -0.455288
4   -0.258716
5   -0.255533
6   -0.274288
7   -0.045993
8   -0.151985
9   0.624367
10   -0.493066
11   -0.466438
12   0.144958
13   0.147568
14   0.143612
15   0.1467
16   0.145061
17   0.154373
18   0.146138
19   0.169302
20   0.149999
21   0.140621
22   0.132359
23   0.134852
24   0.15587
25   0.141108
26   0.160722
27   0.165918
28   0.147509
29   0.14573

>  <lowdin_charges>
29
1   -0.439962
2   -0.44893
3   -0.440093
4   -0.268204
5   -0.269333
6   -0.284792
7   -0.129999
8   -0.148353
9   0.201411
10   -0.278215
11   -0.19342
12   0.151581
13   0.147857
14   0.146219
15   0.153215
16   0.149447
17   0.150877
18   0.152074
19   0.162806
20   0.153711
21   0.142223
22   0.137471
23   0.144093
24   0.154035
25   0.144204
26   0.152985
27   0.155284
28   0.148138
29   0.153667

$$$$

