PCCDB-ID:  9265
public computational chemistry database (PCCDB) project, http://pccdb.org

 21 21  0  0  0  0  0  0  0  0999 V2000
   -1.5435    0.7595    0.1225 C   0  0  0  0  0  0  0  0  0  0  0  0
   -0.3176    1.5303   -0.3998 C   0  0  0  0  0  0  0  0  0  0  0  0
   -1.5445   -0.7588   -0.1096 C   0  0  0  0  0  0  0  0  0  0  0  0
    0.9719    1.2544    0.3966 C   0  0  0  0  0  0  0  0  0  0  0  0
   -0.3148   -1.5298    0.4034 C   0  0  0  0  0  0  0  0  0  0  0  0
    1.7756    0.0001   -0.0062 C   0  0  0  0  0  0  0  0  0  0  0  0
    0.9689   -1.2543   -0.4024 C   0  0  0  0  0  0  0  0  0  0  0  0
   -2.4505    1.1757   -0.3376 H   0  0  0  0  0  0  0  0  0  0  0  0
   -1.6349    0.9576    1.2012 H   0  0  0  0  0  0  0  0  0  0  0  0
   -0.5441    2.6028   -0.3336 H   0  0  0  0  0  0  0  0  0  0  0  0
   -0.1623    1.3215   -1.4686 H   0  0  0  0  0  0  0  0  0  0  0  0
   -1.6441   -0.9569   -1.1876 H   0  0  0  0  0  0  0  0  0  0  0  0
   -2.4480   -1.1749    0.3573 H   0  0  0  0  0  0  0  0  0  0  0  0
    0.7034    1.1909    1.4604 H   0  0  0  0  0  0  0  0  0  0  0  0
    1.6423    2.1202    0.3161 H   0  0  0  0  0  0  0  0  0  0  0  0
   -0.5420   -2.6023    0.3391 H   0  0  0  0  0  0  0  0  0  0  0  0
   -0.1515   -1.3209    1.4710 H   0  0  0  0  0  0  0  0  0  0  0  0
    2.4435   -0.2518    0.8288 H   0  0  0  0  0  0  0  0  0  0  0  0
    2.4365    0.2522   -0.8468 H   0  0  0  0  0  0  0  0  0  0  0  0
    0.6927   -1.1916   -1.4644 H   0  0  0  0  0  0  0  0  0  0  0  0
    1.6398   -2.1202   -0.3263 H   0  0  0  0  0  0  0  0  0  0  0  0
  1  9  1  0  0  0  0
  2 10  1  0  0  0  0
  2  1  1  0  0  0  0
  2  4  1  0  0  0  0
  3  1  1  0  0  0  0
  3 13  1  0  0  0  0
  3  5  1  0  0  0  0
  4 14  1  0  0  0  0
  5 17  1  0  0  0  0
  6  4  1  0  0  0  0
  6 18  1  0  0  0  0
  7 21  1  0  0  0  0
  7  6  1  0  0  0  0
  7  5  1  0  0  0  0
  8  1  1  0  0  0  0
 11  2  1  0  0  0  0
 12  3  1  0  0  0  0
 15  4  1  0  0  0  0
 16  5  1  0  0  0  0
 19  6  1  0  0  0  0
 20  7  1  0  0  0  0
M  END
>  <HBA>
0

>  <HBD>
0

>  <TPSA>
0.0

>  <cid>
9265

>  <dipole>
0.0

>  <excitation_energy_1>
7.562

>  <excitation_energy_2>
7.565

>  <excitation_energy_3>
7.707

>  <excitation_energy_4>
7.959

>  <homo_energy>
-8.082

>  <homo_lumo_gap>
10.259

>  <logP>
2.731

>  <lumo_energy>
2.177

>  <melting_point>
-4.65

>  <molecular_refractivity>
33.65

>  <oscillator_strength_1>
0.0001

>  <oscillator_strength_2>
0.0055

>  <oscillator_strength_3>
0.0042

>  <oscillator_strength_4>
0.0023

>  <open_babel_can_smiles>
C1CCCCCC1

>  <mulliken_charges>
21
1   -0.253802
2   -0.253486
3   -0.25385
4   -0.258818
5   -0.253553
6   -0.25738
7   -0.258808
8   0.126452
9   0.125819
10   0.128277
11   0.127691
12   0.125822
13   0.126464
14   0.12888
15   0.128943
16   0.12828
17   0.127699
18   0.128775
19   0.128775
20   0.128874
21   0.128947

>  <lowdin_charges>
21
1   -0.275833
2   -0.276768
3   -0.275889
4   -0.281023
5   -0.276801
6   -0.282007
7   -0.28106
8   0.14175
9   0.13406
10   0.141694
11   0.136448
12   0.134077
13   0.141783
14   0.135695
15   0.144005
16   0.141699
17   0.136469
18   0.140994
19   0.140975
20   0.135726
21   0.144005

$$$$

