PCCDB-ID:  66078
public computational chemistry database (PCCDB) project, http://pccdb.org

 27 28  0  0  1  0  0  0  0  0999 V2000
    2.3684    0.3114   -0.6019 C   0  0  0  0  0  0  0  0  0  0  0  0
    2.1084   -1.1981   -0.4931 C   0  0  0  0  0  0  0  0  0  0  0  0
   -2.1665    1.1007   -0.4407 C   0  0  0  0  0  0  0  0  0  0  0  0
    1.6422    1.0784    0.5151 C   0  0  0  0  0  0  0  0  0  0  0  0
   -0.6753    1.4497   -0.5524 C   0  0  0  0  0  0  0  0  0  0  0  0
    0.6017   -1.5006   -0.4935 C   0  0  0  0  0  0  0  0  0  0  0  0
   -2.3601   -0.4176   -0.3984 C   0  0  0  0  0  0  0  0  0  0  0  0
    0.1296    0.7839    0.5814 C   0  0  1  0  0  0  0  0  0  0  0  0
   -0.1332   -0.7409    0.6356 C   0  0  1  0  0  0  0  0  0  0  0  0
   -1.5832   -0.9794    0.7105 N   0  0  0  0  0  0  0  0  0  0  0  0
    3.4455    0.5168   -0.5531 H   0  0  0  0  0  0  0  0  0  0  0  0
    2.0314    0.6689   -1.5850 H   0  0  0  0  0  0  0  0  0  0  0  0
    2.5537   -1.5740    0.4404 H   0  0  0  0  0  0  0  0  0  0  0  0
    2.6045   -1.7338   -1.3126 H   0  0  0  0  0  0  0  0  0  0  0  0
   -2.7284    1.5251   -1.2824 H   0  0  0  0  0  0  0  0  0  0  0  0
   -2.5768    1.5328    0.4814 H   0  0  0  0  0  0  0  0  0  0  0  0
    1.8013    2.1593    0.4010 H   0  0  0  0  0  0  0  0  0  0  0  0
    2.0944    0.7996    1.4783 H   0  0  0  0  0  0  0  0  0  0  0  0
   -0.5314    2.5378   -0.5120 H   0  0  0  0  0  0  0  0  0  0  0  0
   -0.3024    1.1264   -1.5339 H   0  0  0  0  0  0  0  0  0  0  0  0
    0.4297   -2.5791   -0.3688 H   0  0  0  0  0  0  0  0  0  0  0  0
    0.1817   -1.2311   -1.4713 H   0  0  0  0  0  0  0  0  0  0  0  0
   -2.0957   -0.8398   -1.3872 H   0  0  0  0  0  0  0  0  0  0  0  0
   -3.4152   -0.6609   -0.2244 H   0  0  0  0  0  0  0  0  0  0  0  0
   -0.2565    1.1973    1.5238 H   0  0  0  0  0  0  0  0  0  0  0  0
    0.2834   -1.1062    1.5867 H   0  0  0  0  0  0  0  0  0  0  0  0
   -1.7580   -1.9802    0.7817 H   0  0  0  0  0  0  0  0  0  0  0  0
  1 11  1  0  0  0  0
  1  2  1  0  0  0  0
  1  4  1  0  0  0  0
  2 13  1  0  0  0  0
  3  7  1  0  0  0  0
  3 16  1  0  0  0  0
  4  8  1  0  0  0  0
  4 18  1  0  0  0  0
  5 19  1  0  0  0  0
  5  3  1  0  0  0  0
  5  8  1  0  0  0  0
  6  2  1  0  0  0  0
  6 21  1  0  0  0  0
  6  9  1  0  0  0  0
  7 24  1  0  0  0  0
  7 10  1  0  0  0  0
  8  9  1  0  0  0  0
  8 25  1  1  0  0  0
  9 10  1  0  0  0  0
  9 26  1  1  0  0  0
 10 27  1  0  0  0  0
 12  1  1  0  0  0  0
 14  2  1  0  0  0  0
 15  3  1  0  0  0  0
 17  4  1  0  0  0  0
 20  5  1  0  0  0  0
 22  6  1  0  0  0  0
 23  7  1  0  0  0  0
M  END
>  <HBA>
1

>  <HBD>
1

>  <TPSA>
12.03

>  <cid>
66078

>  <dipole>
0.88

>  <excitation_energy_1>
5.118

>  <excitation_energy_2>
5.52

>  <excitation_energy_3>
5.579

>  <excitation_energy_4>
5.76

>  <homo_energy>
-5.655

>  <homo_lumo_gap>
7.791

>  <logP>
2.257

>  <lumo_energy>
2.136

>  <melting_point>
43.78

>  <molecular_refractivity>
47.87

>  <oscillator_strength_1>
0.0041

>  <oscillator_strength_2>
0.0196

>  <oscillator_strength_3>
0.0009

>  <oscillator_strength_4>
0.0079

>  <open_babel_can_smiles>
C1CC[C@@H]2[C@H](C1)NCCC2

>  <mulliken_charges>
27
1   -0.260112
2   -0.259177
3   -0.253732
4   -0.267284
5   -0.27462
6   -0.271919
7   -0.126857
8   -0.075993
9   0.032917
10   -0.561121
11   0.12969
12   0.131437
13   0.126204
14   0.129137
15   0.125626
16   0.138698
17   0.126974
18   0.126218
19   0.128907
20   0.128756
21   0.119322
22   0.133246
23   0.10979
24   0.132734
25   0.126504
26   0.116641
27   0.288012

>  <lowdin_charges>
27
1   -0.27768
2   -0.278548
3   -0.281123
4   -0.276602
5   -0.280697
6   -0.295601
7   -0.202884
8   -0.13387
9   -0.072511
10   -0.364121
11   0.141863
12   0.137738
13   0.13673
14   0.144125
15   0.14357
16   0.144817
17   0.140299
18   0.138948
19   0.140607
20   0.136194
21   0.136379
22   0.139118
23   0.113193
24   0.142016
25   0.143587
26   0.135981
27   0.248469

$$$$

