PCCDB-ID:  18635
public computational chemistry database (PCCDB) project, http://pccdb.org

 14 13  0  0  0  0  0  0  0  0999 V2000
    0.9639   -0.0713   -0.1991 C   0  0  0  0  0  0  0  0  0  0  0  0
    4.8598   -1.3586   -1.0182 C   0  0  0  0  0  0  0  0  0  0  0  0
    5.4127   -2.4782   -1.8721 C   0  0  0  0  0  0  0  0  0  0  0  0
    3.3357   -1.2838   -1.0408 C   0  0  0  0  0  0  0  0  0  0  0  0
    4.7389   -3.2531   -2.5144 O   0  0  0  0  0  0  0  0  0  0  0  0
    2.7683    0.0938    0.0294 S   0  0  0  0  0  0  0  0  0  0  0  0
    0.4926    0.7121    0.4001 H   0  0  0  0  0  0  0  0  0  0  0  0
    0.6075   -1.0451    0.1505 H   0  0  0  0  0  0  0  0  0  0  0  0
    0.6827    0.0693   -1.2472 H   0  0  0  0  0  0  0  0  0  0  0  0
    5.3126   -0.4172   -1.3647 H   0  0  0  0  0  0  0  0  0  0  0  0
    5.2385   -1.5007    0.0055 H   0  0  0  0  0  0  0  0  0  0  0  0
    6.5236   -2.5528   -1.8759 H   0  0  0  0  0  0  0  0  0  0  0  0
    2.9088   -2.2274   -0.6863 H   0  0  0  0  0  0  0  0  0  0  0  0
    2.9835   -1.1251   -2.0650 H   0  0  0  0  0  0  0  0  0  0  0  0
  1  6  1  0  0  0  0
  1  8  1  0  0  0  0
  1  7  1  0  0  0  0
  2 11  1  0  0  0  0
  3  2  1  0  0  0  0
  4  2  1  0  0  0  0
  4 13  1  0  0  0  0
  4  6  1  0  0  0  0
  5  3  2  0  0  0  0
  9  1  1  0  0  0  0
 10  2  1  0  0  0  0
 12  3  1  0  0  0  0
 14  4  1  0  0  0  0
M  END
>  <HBA>
2

>  <HBD>
0

>  <TPSA>
42.37

>  <cid>
18635

>  <dipole>
0.87

>  <excitation_energy_1>
4.361

>  <excitation_energy_2>
4.411

>  <excitation_energy_3>
5.117

>  <excitation_energy_4>
5.522

>  <homo_energy>
-6.057

>  <homo_lumo_gap>
5.333

>  <logP>
0.938

>  <lumo_energy>
-0.724

>  <melting_point>
15.46

>  <molecular_refractivity>
29.13

>  <oscillator_strength_1>
0.0002

>  <oscillator_strength_2>
0.0057

>  <oscillator_strength_3>
0.0003

>  <oscillator_strength_4>
0.008

>  <open_babel_can_smiles>
CSCCC=O

>  <mulliken_charges>
14
1   -0.583749
2   -0.362069
3   0.253074
4   -0.39323
5   -0.378695
6   0.084623
7   0.184656
8   0.178856
9   0.17879
10   0.181887
11   0.182148
12   0.111671
13   0.181223
14   0.180815

>  <lowdin_charges>
14
1   -0.544644
2   -0.316084
3   0.061991
4   -0.36775
5   -0.216846
6   0.090132
7   0.178074
8   0.162552
9   0.161559
10   0.174701
11   0.173936
12   0.117243
13   0.163188
14   0.161948

$$$$

