PCCDB-ID:  67126
public computational chemistry database (PCCDB) project, http://pccdb.org

 10 10  0  0  0  0  0  0  0  0999 V2000
    1.0047    0.5820   -0.0197 C   0  0  0  0  0  0  0  0  0  0  0  0
   -0.4039    1.1641   -0.0103 C   0  0  0  0  0  0  0  0  0  0  0  0
   -0.3133   -1.1206    0.0489 C   0  0  0  0  0  0  0  0  0  0  0  0
    1.0476   -0.7009    0.0134 N   0  0  0  0  0  0  0  0  0  0  0  0
   -1.1643    0.0341    0.0338 N   0  0  0  0  0  0  0  0  0  0  0  0
    2.0364    1.4021   -0.0605 O   0  0  0  0  0  0  0  0  0  0  0  0
   -0.6810    2.3471   -0.0376 O   0  0  0  0  0  0  0  0  0  0  0  0
   -0.7213   -2.2496    0.0860 O   0  0  0  0  0  0  0  0  0  0  0  0
   -2.1740   -0.0163    0.0528 H   0  0  0  0  0  0  0  0  0  0  0  0
    1.6766    2.3132   -0.0776 H   0  0  0  0  0  0  0  0  0  0  0  0
  1  2  1  0  0  0  0
  1  4  2  0  0  0  0
  2  5  1  0  0  0  0
  3  8  2  0  0  0  0
  4  3  1  0  0  0  0
  5  3  1  0  0  0  0
  5  9  1  0  0  0  0
  6  1  1  0  0  0  0
  7  2  2  0  0  0  0
 10  6  1  0  0  0  0
M  END
>  <HBA>
5

>  <HBD>
2

>  <TPSA>
75.27

>  <cid>
67126

>  <dipole>
3.19

>  <excitation_energy_1>
3.55

>  <excitation_energy_2>
4.43

>  <excitation_energy_3>
4.806

>  <excitation_energy_4>
5.443

>  <homo_energy>
-7.815

>  <homo_lumo_gap>
4.933

>  <logP>
-0.99

>  <lumo_energy>
-2.882

>  <melting_point>
126.87

>  <molecular_refractivity>
28.84

>  <oscillator_strength_1>
0.0

>  <oscillator_strength_2>
0.0001

>  <oscillator_strength_3>
0.0053

>  <oscillator_strength_4>
0.0009

>  <open_babel_can_smiles>
O=C1N=C(C(=O)N1)O

>  <mulliken_charges>
10
1   0.50591
2   0.592764
3   0.721397
4   -0.477962
5   -0.67196
6   -0.564771
7   -0.477796
8   -0.434238
9   0.36251
10   0.444145

>  <lowdin_charges>
10
1   0.115863
2   0.127563
3   0.201518
4   -0.17822
5   -0.247531
6   -0.277971
7   -0.240712
8   -0.196103
9   0.312183
10   0.383411

$$$$

