PCCDB-ID:  8909
public computational chemistry database (PCCDB) project, http://pccdb.org

 27 26  0  0  0  0  0  0  0  0999 V2000
    6.4442    0.7699   -3.1673 C   0  0  0  0  0  0  0  0  0  0  0  0
    6.3086   -0.7671    4.7990 C   0  0  0  0  0  0  0  0  0  0  0  0
    5.6977    0.2666   -1.9276 C   0  0  0  0  0  0  0  0  0  0  0  0
    6.3414    0.7642    4.8712 C   0  0  0  0  0  0  0  0  0  0  0  0
    6.4510    0.5395   -0.6189 C   0  0  0  0  0  0  0  0  0  0  0  0
    7.1151    1.4588    3.7365 C   0  0  0  0  0  0  0  0  0  0  0  0
    5.6904    0.0305    0.6098 C   0  0  0  0  0  0  0  0  0  0  0  0
    6.4351    1.4696    2.3694 C   0  0  0  0  0  0  0  0  0  0  0  0
    6.4100    0.1572    1.8279 O   0  0  0  0  0  0  0  0  0  0  0  0
    5.8837    0.5570   -4.0847 H   0  0  0  0  0  0  0  0  0  0  0  0
    7.4274    0.2927   -3.2582 H   0  0  0  0  0  0  0  0  0  0  0  0
    6.6063    1.8537   -3.1193 H   0  0  0  0  0  0  0  0  0  0  0  0
    5.7831   -1.1867    5.6652 H   0  0  0  0  0  0  0  0  0  0  0  0
    7.3258   -1.1785    4.7950 H   0  0  0  0  0  0  0  0  0  0  0  0
    5.8142   -1.1119    3.8879 H   0  0  0  0  0  0  0  0  0  0  0  0
    5.5167   -0.8135   -2.0238 H   0  0  0  0  0  0  0  0  0  0  0  0
    4.7053    0.7379   -1.8834 H   0  0  0  0  0  0  0  0  0  0  0  0
    6.7960    1.0642    5.8255 H   0  0  0  0  0  0  0  0  0  0  0  0
    5.3137    1.1560    4.8927 H   0  0  0  0  0  0  0  0  0  0  0  0
    6.6373    1.6181   -0.5268 H   0  0  0  0  0  0  0  0  0  0  0  0
    7.4348    0.0519   -0.6425 H   0  0  0  0  0  0  0  0  0  0  0  0
    8.1091    1.0042    3.6264 H   0  0  0  0  0  0  0  0  0  0  0  0
    7.2826    2.5092    4.0131 H   0  0  0  0  0  0  0  0  0  0  0  0
    5.4917   -1.0422    0.4990 H   0  0  0  0  0  0  0  0  0  0  0  0
    4.7143    0.5395    0.6914 H   0  0  0  0  0  0  0  0  0  0  0  0
    6.9800    2.1545    1.7000 H   0  0  0  0  0  0  0  0  0  0  0  0
    5.4044    1.8576    2.4603 H   0  0  0  0  0  0  0  0  0  0  0  0
  1 12  1  0  0  0  0
  1  3  1  0  0  0  0
  2  4  1  0  0  0  0
  2 13  1  0  0  0  0
  3 17  1  0  0  0  0
  3  5  1  0  0  0  0
  4 19  1  0  0  0  0
  4 18  1  0  0  0  0
  5 20  1  0  0  0  0
  5  7  1  0  0  0  0
  6 23  1  0  0  0  0
  6  4  1  0  0  0  0
  7 25  1  0  0  0  0
  7  9  1  0  0  0  0
  8 27  1  0  0  0  0
  8  6  1  0  0  0  0
  9  8  1  0  0  0  0
 10  1  1  0  0  0  0
 11  1  1  0  0  0  0
 14  2  1  0  0  0  0
 15  2  1  0  0  0  0
 16  3  1  0  0  0  0
 21  5  1  0  0  0  0
 22  6  1  0  0  0  0
 24  7  1  0  0  0  0
 26  8  1  0  0  0  0
M  END
>  <HBA>
1

>  <HBD>
0

>  <TPSA>
9.23

>  <cid>
8909

>  <dipole>
1.28

>  <excitation_energy_1>
6.306

>  <excitation_energy_2>
6.632

>  <excitation_energy_3>
6.692

>  <excitation_energy_4>
6.838

>  <homo_energy>
-6.645

>  <homo_lumo_gap>
9.061

>  <logP>
2.603

>  <lumo_energy>
2.416

>  <melting_point>
-36.84

>  <molecular_refractivity>
41.66

>  <oscillator_strength_1>
0.0094

>  <oscillator_strength_2>
0.0134

>  <oscillator_strength_3>
0.0057

>  <oscillator_strength_4>
0.0222

>  <open_babel_can_smiles>
CCCCOCCCC

>  <mulliken_charges>
27
1   -0.439766
2   -0.434757
3   -0.255207
4   -0.247083
5   -0.271091
6   -0.269986
7   -0.013282
8   -0.012012
9   -0.471712
10   0.143198
11   0.1444
12   0.142362
13   0.129993
14   0.136703
15   0.165487
16   0.133608
17   0.132349
18   0.128904
19   0.125616
20   0.133925
21   0.142468
22   0.14335
23   0.128381
24   0.138693
25   0.114413
26   0.119278
27   0.111766

>  <lowdin_charges>
27
1   -0.440805
2   -0.449519
3   -0.269394
4   -0.27011
5   -0.29017
6   -0.279834
7   -0.130453
8   -0.130602
9   -0.272842
10   0.150173
11   0.147437
12   0.144973
13   0.143617
14   0.144107
15   0.158285
16   0.138354
17   0.1387
18   0.139979
19   0.13573
20   0.138826
21   0.145998
22   0.147633
23   0.144787
24   0.142409
25   0.123739
26   0.127937
27   0.121045

$$$$

