PCCDB-ID:  31264
public computational chemistry database (PCCDB) project, http://pccdb.org

 21 21  0  0  1  0  0  0  0  0999 V2000
    0.8910    0.1282    0.1155 C   0  0  0  0  0  0  0  0  0  0  0  0
    3.1486    1.6095   -3.4345 C   0  0  0  0  0  0  0  0  0  0  0  0
    3.1054   -2.9787   -2.1933 C   0  0  0  0  0  0  0  0  0  0  0  0
    2.3838    0.0279   -0.2052 C   0  0  2  0  0  0  0  0  0  0  0  0
    2.4931    0.6113   -2.5075 C   0  0  2  0  0  0  0  0  0  0  0  0
    2.4723   -1.6379   -1.8987 C   0  0  1  0  0  0  0  0  0  0  0  0
    2.8035    0.9790   -1.1749 O   0  0  0  0  0  0  0  0  0  0  0  0
    2.7833   -1.2891   -0.5612 O   0  0  0  0  0  0  0  0  0  0  0  0
    2.9964   -0.6797   -2.8003 O   0  0  0  0  0  0  0  0  0  0  0  0
    0.6604    1.1416    0.4587 H   0  0  0  0  0  0  0  0  0  0  0  0
    0.6422   -0.5793    0.9126 H   0  0  0  0  0  0  0  0  0  0  0  0
    0.2546   -0.0922   -0.7462 H   0  0  0  0  0  0  0  0  0  0  0  0
    2.7759    2.6161   -3.2247 H   0  0  0  0  0  0  0  0  0  0  0  0
    2.9296    1.3524   -4.4748 H   0  0  0  0  0  0  0  0  0  0  0  0
    4.2309    1.5901   -3.2805 H   0  0  0  0  0  0  0  0  0  0  0  0
    2.7198   -3.7345   -1.5033 H   0  0  0  0  0  0  0  0  0  0  0  0
    4.1892   -2.9024   -2.0698 H   0  0  0  0  0  0  0  0  0  0  0  0
    2.8818   -3.2796   -3.2208 H   0  0  0  0  0  0  0  0  0  0  0  0
    2.9655    0.2648    0.6892 H   0  0  0  0  0  0  0  0  0  0  0  0
    1.3968    0.5977   -2.6442 H   0  0  0  0  0  0  0  0  0  0  0  0
    1.3758   -1.6761   -2.0282 H   0  0  0  0  0  0  0  0  0  0  0  0
  1 10  1  0  0  0  0
  1 11  1  0  0  0  0
  2 15  1  0  0  0  0
  2 13  1  0  0  0  0
  2  5  1  0  0  0  0
  3 17  1  0  0  0  0
  3  6  1  0  0  0  0
  3 16  1  0  0  0  0
  4  1  1  0  0  0  0
  4 19  1  1  0  0  0
  5 20  1  6  0  0  0
  5  7  1  0  0  0  0
  6 21  1  6  0  0  0
  6  8  1  0  0  0  0
  7  4  1  0  0  0  0
  8  4  1  0  0  0  0
  9  5  1  0  0  0  0
  9  6  1  0  0  0  0
 12  1  1  0  0  0  0
 14  2  1  0  0  0  0
 18  3  1  0  0  0  0
M  END
>  <HBA>
3

>  <HBD>
0

>  <TPSA>
27.69

>  <cid>
31264

>  <dipole>
1.76

>  <excitation_energy_1>
6.745

>  <excitation_energy_2>
7.171

>  <excitation_energy_3>
7.296

>  <excitation_energy_4>
7.345

>  <homo_energy>
-7.1

>  <homo_lumo_gap>
9.358

>  <logP>
1.088

>  <lumo_energy>
2.259

>  <melting_point>
-30.83

>  <molecular_refractivity>
32.1

>  <oscillator_strength_1>
0.021

>  <oscillator_strength_2>
0.0251

>  <oscillator_strength_3>
0.0032

>  <oscillator_strength_4>
0.0137

>  <open_babel_can_smiles>
C[C@@H]1O[C@H](C)O[C@H](O1)C

>  <mulliken_charges>
21
1   -0.471606
2   -0.464976
3   -0.465051
4   0.34146
5   0.352486
6   0.352514
7   -0.484542
8   -0.484535
9   -0.481611
10   0.159779
11   0.159817
12   0.152098
13   0.15761
14   0.157019
15   0.171864
16   0.157671
17   0.171846
18   0.156934
19   0.148188
20   0.106513
21   0.106521

>  <lowdin_charges>
21
1   -0.474009
2   -0.444441
3   -0.446241
4   0.104608
5   0.106991
6   0.105444
7   -0.26422
8   -0.264985
9   -0.26078
10   0.16236
11   0.163766
12   0.154305
13   0.162307
14   0.161355
15   0.166081
16   0.163996
17   0.166042
18   0.161512
19   0.153132
20   0.111376
21   0.111399

$$$$

