PCCDB-ID:  15613
public computational chemistry database (PCCDB) project, http://pccdb.org

 24 23  0  0  0  0  0  0  0  0999 V2000
    0.6253   -0.5717    0.7246 C   0  0  0  0  0  0  0  0  0  0  0  0
    2.2381    0.2896   -1.0628 C   0  0  0  0  0  0  0  0  0  0  0  0
    7.3276   -1.0388    1.5001 C   0  0  0  0  0  0  0  0  0  0  0  0
    6.9634   -3.5620    1.4776 C   0  0  0  0  0  0  0  0  0  0  0  0
    3.0063   -1.2350    0.8014 C   0  0  0  0  0  0  0  0  0  0  0  0
    2.0292   -0.5430    0.1807 C   0  0  0  0  0  0  0  0  0  0  0  0
    6.5552   -2.2120    0.9029 C   0  0  0  0  0  0  0  0  0  0  0  0
    4.4111   -1.2755    0.3614 C   0  0  0  0  0  0  0  0  0  0  0  0
    4.8867   -0.7034   -0.6063 O   0  0  0  0  0  0  0  0  0  0  0  0
    5.1396   -2.0622    1.1972 O   0  0  0  0  0  0  0  0  0  0  0  0
   -0.0738   -0.9482   -0.0346 H   0  0  0  0  0  0  0  0  0  0  0  0
    0.2902    0.4444    0.9747 H   0  0  0  0  0  0  0  0  0  0  0  0
    0.5357   -1.1957    1.6185 H   0  0  0  0  0  0  0  0  0  0  0  0
    1.3026    0.7637   -1.3766 H   0  0  0  0  0  0  0  0  0  0  0  0
    2.6196   -0.3205   -1.8876 H   0  0  0  0  0  0  0  0  0  0  0  0
    2.9916    1.0659   -0.8976 H   0  0  0  0  0  0  0  0  0  0  0  0
    8.4002   -1.1534    1.3057 H   0  0  0  0  0  0  0  0  0  0  0  0
    7.1768   -0.9908    2.5846 H   0  0  0  0  0  0  0  0  0  0  0  0
    6.9975   -0.0968    1.0540 H   0  0  0  0  0  0  0  0  0  0  0  0
    8.0217   -3.7554    1.2706 H   0  0  0  0  0  0  0  0  0  0  0  0
    6.3713   -4.3686    1.0336 H   0  0  0  0  0  0  0  0  0  0  0  0
    6.8153   -3.5836    2.5630 H   0  0  0  0  0  0  0  0  0  0  0  0
    2.7788   -1.8127    1.6925 H   0  0  0  0  0  0  0  0  0  0  0  0
    6.6674   -2.2062   -0.1853 H   0  0  0  0  0  0  0  0  0  0  0  0
  1 12  1  0  0  0  0
  1 13  1  0  0  0  0
  2 16  1  0  0  0  0
  2  6  1  0  0  0  0
  3 18  1  0  0  0  0
  4 22  1  0  0  0  0
  5 23  1  0  0  0  0
  6  1  1  0  0  0  0
  6  5  2  0  0  0  0
  7 10  1  0  0  0  0
  7  4  1  0  0  0  0
  7  3  1  0  0  0  0
  8  5  1  0  0  0  0
  8 10  1  0  0  0  0
  9  8  2  0  0  0  0
 11  1  1  0  0  0  0
 14  2  1  0  0  0  0
 15  2  1  0  0  0  0
 17  3  1  0  0  0  0
 19  3  1  0  0  0  0
 20  4  1  0  0  0  0
 21  4  1  0  0  0  0
 24  7  1  0  0  0  0
M  END
>  <HBA>
2

>  <HBD>
0

>  <TPSA>
26.3

>  <cid>
15613

>  <dipole>
1.38

>  <excitation_energy_1>
4.796

>  <excitation_energy_2>
5.78

>  <excitation_energy_3>
6.348

>  <excitation_energy_4>
6.403

>  <homo_energy>
-6.863

>  <homo_lumo_gap>
6.038

>  <logP>
1.904

>  <lumo_energy>
-0.825

>  <melting_point>
-2.24

>  <molecular_refractivity>
41.38

>  <oscillator_strength_1>
0.0004

>  <oscillator_strength_2>
0.5492

>  <oscillator_strength_3>
0.0289

>  <oscillator_strength_4>
0.0006

>  <open_babel_can_smiles>
CC(OC(=O)C=C(C)C)C

>  <mulliken_charges>
24
1   -0.518088
2   -0.500701
3   -0.457817
4   -0.450865
5   -0.24172
6   0.2015
7   0.135359
8   0.622832
9   -0.515697
10   -0.490919
11   0.165234
12   0.16547
13   0.160398
14   0.139633
15   0.184767
16   0.185062
17   0.144336
18   0.148503
19   0.172065
20   0.146364
21   0.155921
22   0.15293
23   0.136648
24   0.158788

>  <lowdin_charges>
24
1   -0.440133
2   -0.448717
3   -0.451014
4   -0.445429
5   -0.236304
6   0.058027
7   0.014745
8   0.195888
9   -0.288396
10   -0.201645
11   0.164255
12   0.162771
13   0.158651
14   0.149399
15   0.17871
16   0.178654
17   0.153341
18   0.150577
19   0.165369
20   0.153854
21   0.15877
22   0.152851
23   0.165049
24   0.150729

$$$$

