PCCDB-ID:  10020
public computational chemistry database (PCCDB) project, http://pccdb.org

 14 13  0  0  0  0  0  0  0  0999 V2000
    1.1342    0.2498    0.2092 C   0  0  0  0  0  0  0  0  0  0  0  0
    0.1698    0.7111    1.3121 C   0  0  0  0  0  0  0  0  0  0  0  0
    3.5302    0.8989   -0.1863 C   0  0  0  0  0  0  0  0  0  0  0  0
    4.7888    0.7045   -0.1577 N   0  0  0  0  0  0  0  0  0  0  0  0
    2.5399    0.3293    0.6183 N   0  0  0  0  0  0  0  0  0  0  0  0
   -1.0093    0.4633    1.2784 O   0  0  0  0  0  0  0  0  0  0  0  0
    0.7386    1.4327    2.2959 O   0  0  0  0  0  0  0  0  0  0  0  0
    3.0045    1.8091   -1.0399 O   0  0  0  0  0  0  0  0  0  0  0  0
    0.9851    0.9009   -0.6544 H   0  0  0  0  0  0  0  0  0  0  0  0
    0.8463   -0.7637   -0.0885 H   0  0  0  0  0  0  0  0  0  0  0  0
    5.0646   -0.0062    0.5192 H   0  0  0  0  0  0  0  0  0  0  0  0
    2.8739   -0.4886    1.1143 H   0  0  0  0  0  0  0  0  0  0  0  0
    1.6972    1.4790    2.0949 H   0  0  0  0  0  0  0  0  0  0  0  0
    3.7675    2.1703   -1.5250 H   0  0  0  0  0  0  0  0  0  0  0  0
  1  5  1  0  0  0  0
  1  2  1  0  0  0  0
  2  7  1  0  0  0  0
  3  4  2  0  0  0  0
  3  5  1  0  0  0  0
  4 11  1  0  0  0  0
  5 12  1  0  0  0  0
  6  2  2  0  0  0  0
  8  3  1  0  0  0  0
  9  1  1  0  0  0  0
 10  1  1  0  0  0  0
 13  7  1  0  0  0  0
 14  8  1  0  0  0  0
M  END
>  <HBA>
5

>  <HBD>
3

>  <TPSA>
92.42

>  <cid>
10020

>  <dipole>
3.68

>  <excitation_energy_1>
5.583

>  <excitation_energy_2>
5.712

>  <excitation_energy_3>
6.384

>  <excitation_energy_4>
6.578

>  <homo_energy>
-6.996

>  <homo_lumo_gap>
7.203

>  <logP>
-0.17

>  <lumo_energy>
0.207

>  <melting_point>
165.74

>  <molecular_refractivity>
24.4

>  <oscillator_strength_1>
0.0019

>  <oscillator_strength_2>
0.0078

>  <oscillator_strength_3>
0.008

>  <oscillator_strength_4>
0.0115

>  <open_babel_can_smiles>
OC(=N)NCC(=O)O

>  <mulliken_charges>
14
1   -0.247567
2   0.588702
3   0.651007
4   -0.641305
5   -0.655712
6   -0.446668
7   -0.563489
8   -0.588847
9   0.235139
10   0.191858
11   0.281916
12   0.336853
13   0.426492
14   0.431621

>  <lowdin_charges>
14
1   -0.242574
2   0.173607
3   0.157322
4   -0.466967
5   -0.31957
6   -0.242089
7   -0.346001
8   -0.368293
9   0.200695
10   0.173663
11   0.260476
12   0.286189
13   0.357077
14   0.376466

$$$$

