PCCDB-ID:  45070
public computational chemistry database (PCCDB) project, http://pccdb.org

 28 29  0  0  0  0  0  0  0  0999 V2000
    1.2073    0.3288    0.5681 C   0  0  0  0  0  0  0  0  0  0  0  0
    2.7340   -1.6738    0.8794 C   0  0  0  0  0  0  0  0  0  0  0  0
    3.1609    0.0576   -0.9232 C   0  0  0  0  0  0  0  0  0  0  0  0
    4.4125   -0.5296   -1.5153 C   0  0  0  0  0  0  0  0  0  0  0  0
    4.6422    1.8572   -5.0517 C   0  0  0  0  0  0  0  0  0  0  0  0
    3.9080   -2.0870   -3.3912 C   0  0  0  0  0  0  0  0  0  0  0  0
    2.4356   -0.4162    0.1009 C   0  0  0  0  0  0  0  0  0  0  0  0
    4.1691   -0.1771   -5.2752 C   0  0  0  0  0  0  0  0  0  0  0  0
    3.8338   -1.4902   -5.6198 C   0  0  0  0  0  0  0  0  0  0  0  0
    4.3711    0.1338   -3.9087 C   0  0  0  0  0  0  0  0  0  0  0  0
    3.6328   -1.8834   -6.8957 N   0  0  0  0  0  0  0  0  0  0  0  0
    4.3521    0.9665   -6.0066 N   0  0  0  0  0  0  0  0  0  0  0  0
    4.6712    1.4233   -3.7491 N   0  0  0  0  0  0  0  0  0  0  0  0
    3.7075   -2.4348   -4.6416 N   0  0  0  0  0  0  0  0  0  0  0  0
    4.2446   -0.8491   -2.9531 N   0  0  0  0  0  0  0  0  0  0  0  0
    1.2943    0.6072    1.6274 H   0  0  0  0  0  0  0  0  0  0  0  0
    0.3110   -0.3010    0.4836 H   0  0  0  0  0  0  0  0  0  0  0  0
    1.0395    1.2413   -0.0112 H   0  0  0  0  0  0  0  0  0  0  0  0
    1.8717   -2.3534    0.8513 H   0  0  0  0  0  0  0  0  0  0  0  0
    2.9089   -1.4388    1.9380 H   0  0  0  0  0  0  0  0  0  0  0  0
    3.6056   -2.2250    0.5170 H   0  0  0  0  0  0  0  0  0  0  0  0
    2.8470    0.9829   -1.4036 H   0  0  0  0  0  0  0  0  0  0  0  0
    4.7381   -1.4439   -1.0152 H   0  0  0  0  0  0  0  0  0  0  0  0
    5.2295    0.1972   -1.4697 H   0  0  0  0  0  0  0  0  0  0  0  0
    4.8491    2.8956   -5.2863 H   0  0  0  0  0  0  0  0  0  0  0  0
    3.8035   -2.8455   -2.6204 H   0  0  0  0  0  0  0  0  0  0  0  0
    3.6436   -1.1932   -7.6313 H   0  0  0  0  0  0  0  0  0  0  0  0
    3.3141   -2.8214   -7.0834 H   0  0  0  0  0  0  0  0  0  0  0  0
  1 16  1  0  0  0  0
  2 20  1  0  0  0  0
  3  7  2  0  0  0  0
  4 24  1  0  0  0  0
  4 23  1  0  0  0  0
  4  3  1  0  0  0  0
  5 13  1  0  0  0  0
  6 15  1  0  0  0  0
  6 26  1  0  0  0  0
  7  1  1  0  0  0  0
  7  2  1  0  0  0  0
  8 10  1  0  0  0  0
  9  8  2  0  0  0  0
  9 14  1  0  0  0  0
 10 13  2  0  0  0  0
 10 15  1  0  0  0  0
 11  9  1  0  0  0  0
 12  8  1  0  0  0  0
 12  5  2  0  0  0  0
 14  6  2  0  0  0  0
 15  4  1  0  0  0  0
 17  1  1  0  0  0  0
 18  1  1  0  0  0  0
 19  2  1  0  0  0  0
 21  2  1  0  0  0  0
 22  3  1  0  0  0  0
 25  5  1  0  0  0  0
 27 11  1  0  0  0  0
 28 11  1  0  0  0  0
M  END
>  <HBA>
5

>  <HBD>
1

>  <TPSA>
69.62

>  <cid>
45070

>  <dipole>
4.53

>  <excitation_energy_1>
4.306

>  <excitation_energy_2>
4.664

>  <excitation_energy_3>
4.781

>  <excitation_energy_4>
5.032

>  <homo_energy>
-5.66

>  <homo_lumo_gap>
4.738

>  <logP>
1.956

>  <lumo_energy>
-0.922

>  <melting_point>
158.05

>  <molecular_refractivity>
59.74

>  <oscillator_strength_1>
0.0954

>  <oscillator_strength_2>
0.0947

>  <oscillator_strength_3>
0.0008

>  <oscillator_strength_4>
0.0082

>  <open_babel_can_smiles>
CC(=CCn1cnc(c2c1ncn2)N)C

>  <mulliken_charges>
28
1   -0.507671
2   -0.515923
3   -0.166898
4   -0.223347
5   0.161434
6   0.221105
7   0.192854
8   0.232809
9   0.474822
10   0.475479
11   -0.775294
12   -0.537253
13   -0.529928
14   -0.520574
15   -0.46063
16   0.155837
17   0.155843
18   0.163417
19   0.160748
20   0.163837
21   0.147694
22   0.158634
23   0.160976
24   0.205132
25   0.130586
26   0.164311
27   0.364569
28   0.347428

>  <lowdin_charges>
28
1   -0.437661
2   -0.445524
3   -0.204872
4   -0.186941
5   -0.068751
6   -0.029968
7   0.006686
8   -0.064612
9   0.124909
10   0.033686
11   -0.429385
12   -0.23394
13   -0.252274
14   -0.206676
15   0.009796
16   0.155575
17   0.157291
18   0.161154
19   0.160739
20   0.160643
21   0.152091
22   0.168566
23   0.159178
24   0.183916
25   0.152504
26   0.170244
27   0.307076
28   0.296552

$$$$

