PCCDB-ID:  55022
public computational chemistry database (PCCDB) project, http://pccdb.org

 27 28  0  0  1  0  0  0  0  0999 V2000
    0.4856   -0.8961    0.5585 C   0  0  0  0  0  0  0  0  0  0  0  0
    8.6680    3.5314   -0.7080 C   0  0  0  0  0  0  0  0  0  0  0  0
    2.9583   -1.4599    0.5749 C   0  0  0  0  0  0  0  0  0  0  0  0
    2.2722    0.6202   -0.4074 C   0  0  0  0  0  0  0  0  0  0  0  0
    4.2871   -1.1657    0.2623 C   0  0  0  0  0  0  0  0  0  0  0  0
    3.5934    0.9167   -0.7213 C   0  0  0  0  0  0  0  0  0  0  0  0
    7.4228    2.0802   -2.3994 C   0  0  0  0  0  0  0  0  0  0  0  0
    1.9279   -0.5753    0.2442 C   0  0  0  0  0  0  0  0  0  0  0  0
    8.0403    2.1673   -1.0013 C   0  0  2  0  0  0  0  0  0  0  0  0
    4.6234    0.0245   -0.3890 C   0  0  0  0  0  0  0  0  0  0  0  0
    6.0708    0.3195   -0.7032 C   0  0  1  0  0  0  0  0  0  0  0  0
    6.4007    0.5578   -2.5360 S   0  0  0  0  0  0  0  0  0  0  0  0
    6.6775    1.8161    0.1874 S   0  0  0  0  0  0  0  0  0  0  0  0
    0.4049   -1.7305    1.2625 H   0  0  0  0  0  0  0  0  0  0  0  0
   -0.0671   -1.1752   -0.3483 H   0  0  0  0  0  0  0  0  0  0  0  0
   -0.0309   -0.0338    0.9961 H   0  0  0  0  0  0  0  0  0  0  0  0
    9.4641    3.7410   -1.4319 H   0  0  0  0  0  0  0  0  0  0  0  0
    9.1102    3.5560    0.2931 H   0  0  0  0  0  0  0  0  0  0  0  0
    7.9231    4.3316   -0.7747 H   0  0  0  0  0  0  0  0  0  0  0  0
    2.7228   -2.3917    1.0841 H   0  0  0  0  0  0  0  0  0  0  0  0
    1.4895    1.3279   -0.6726 H   0  0  0  0  0  0  0  0  0  0  0  0
    5.0702   -1.8707    0.5324 H   0  0  0  0  0  0  0  0  0  0  0  0
    3.8371    1.8449   -1.2295 H   0  0  0  0  0  0  0  0  0  0  0  0
    8.2043    2.0258   -3.1658 H   0  0  0  0  0  0  0  0  0  0  0  0
    6.8026    2.9606   -2.5938 H   0  0  0  0  0  0  0  0  0  0  0  0
    8.7969    1.3818   -0.8921 H   0  0  0  0  0  0  0  0  0  0  0  0
    6.6807   -0.5314   -0.3923 H   0  0  0  0  0  0  0  0  0  0  0  0
  1 16  1  0  0  0  0
  1 14  1  0  0  0  0
  2 18  1  0  0  0  0
  3 20  1  0  0  0  0
  4  8  1  0  0  0  0
  5 22  1  0  0  0  0
  5  3  1  0  0  0  0
  6  4  2  0  0  0  0
  6 10  1  0  0  0  0
  7  9  1  0  0  0  0
  8  1  1  0  0  0  0
  8  3  2  0  0  0  0
  9 26  1  1  0  0  0
  9  2  1  0  0  0  0
  9 13  1  0  0  0  0
 10  5  2  0  0  0  0
 11 27  1  1  0  0  0
 11 10  1  0  0  0  0
 11 13  1  0  0  0  0
 12  7  1  0  0  0  0
 12 11  1  0  0  0  0
 15  1  1  0  0  0  0
 17  2  1  0  0  0  0
 19  2  1  0  0  0  0
 21  4  1  0  0  0  0
 23  6  1  0  0  0  0
 24  7  1  0  0  0  0
 25  7  1  0  0  0  0
M  END
>  <HBA>
2

>  <HBD>
0

>  <TPSA>
50.6

>  <cid>
55022

>  <dipole>
0.82

>  <excitation_energy_1>
4.559

>  <excitation_energy_2>
4.681

>  <excitation_energy_3>
4.694

>  <excitation_energy_4>
4.937

>  <homo_energy>
-5.916

>  <homo_lumo_gap>
5.584

>  <logP>
3.862

>  <lumo_energy>
-0.332

>  <melting_point>
50.52

>  <molecular_refractivity>
63.86

>  <oscillator_strength_1>
0.0016

>  <oscillator_strength_2>
0.0207

>  <oscillator_strength_3>
0.0074

>  <oscillator_strength_4>
0.0156

>  <open_babel_can_smiles>
C[C@@H]1CS[C@@H](S1)c1ccc(cc1)C

>  <mulliken_charges>
27
1   -0.530614
2   -0.458184
3   -0.180448
4   -0.183297
5   -0.174765
6   -0.141135
7   -0.412272
8   0.181392
9   -0.236354
10   0.1626
11   -0.4953
12   0.107725
13   0.126992
14   0.155712
15   0.166282
16   0.160771
17   0.156408
18   0.168116
19   0.165977
20   0.123184
21   0.124306
22   0.128534
23   0.147162
24   0.178206
25   0.183112
26   0.176204
27   0.199687

>  <lowdin_charges>
27
1   -0.44385
2   -0.44447
3   -0.168022
4   -0.165435
5   -0.160628
6   -0.13983
7   -0.379439
8   0.00538
9   -0.220134
10   -0.023641
11   -0.311073
12   0.083811
13   0.106071
14   0.15768
15   0.162967
16   0.161009
17   0.158502
18   0.16295
19   0.161056
20   0.155192
21   0.156696
22   0.157726
23   0.16843
24   0.169319
25   0.162437
26   0.158615
27   0.168684

$$$$

