PCCDB-ID:  53151
public computational chemistry database (PCCDB) project, http://pccdb.org

 16 15  0  0  0  0  0  0  0  0999 V2000
    3.7298    0.1322   -1.5242 C   0  0  0  0  0  0  0  0  0  0  0  0
    3.0404   -0.0219   -0.1662 C   0  0  0  0  0  0  0  0  0  0  0  0
    3.4156    2.2350    0.9769 C   0  0  0  0  0  0  0  0  0  0  0  0
    4.4573    0.1614    1.7470 N   0  0  0  0  0  0  0  0  0  0  0  0
    3.6339    0.8058    0.8857 N   0  0  0  0  0  0  0  0  0  0  0  0
    4.9706    0.8668    2.6036 O   0  0  0  0  0  0  0  0  0  0  0  0
    1.1430    2.1809    1.3582 O   0  0  0  0  0  0  0  0  0  0  0  0
    2.4234    2.6127    1.9103 O   0  0  0  0  0  0  0  0  0  0  0  0
    3.2462   -0.5156   -2.2638 H   0  0  0  0  0  0  0  0  0  0  0  0
    4.7855   -0.1498   -1.4558 H   0  0  0  0  0  0  0  0  0  0  0  0
    3.6718    1.1613   -1.8961 H   0  0  0  0  0  0  0  0  0  0  0  0
    3.1239   -1.0537    0.1865 H   0  0  0  0  0  0  0  0  0  0  0  0
    1.9787    0.2328   -0.2329 H   0  0  0  0  0  0  0  0  0  0  0  0
    3.1675    2.6169   -0.0171 H   0  0  0  0  0  0  0  0  0  0  0  0
    4.3216    2.7021    1.3699 H   0  0  0  0  0  0  0  0  0  0  0  0
    0.8572    1.5797    2.0696 H   0  0  0  0  0  0  0  0  0  0  0  0
  1 10  1  0  0  0  0
  1  2  1  0  0  0  0
  2 12  1  0  0  0  0
  2  5  1  0  0  0  0
  3 15  1  0  0  0  0
  3  8  1  0  0  0  0
  4  6  2  0  0  0  0
  5  3  1  0  0  0  0
  5  4  1  0  0  0  0
  7  8  1  0  0  0  0
  7 16  1  0  0  0  0
  9  1  1  0  0  0  0
 11  1  1  0  0  0  0
 13  2  1  0  0  0  0
 14  3  1  0  0  0  0
M  END
>  <HBA>
5

>  <HBD>
1

>  <TPSA>
62.13

>  <cid>
53151

>  <dipole>
3.38

>  <excitation_energy_1>
3.206

>  <excitation_energy_2>
5.171

>  <excitation_energy_3>
5.377

>  <excitation_energy_4>
5.759

>  <homo_energy>
-6.283

>  <homo_lumo_gap>
5.059

>  <logP>
0.437

>  <lumo_energy>
-1.225

>  <melting_point>
26.63

>  <molecular_refractivity>
26.83

>  <oscillator_strength_1>
0.0009

>  <oscillator_strength_2>
0.0067

>  <oscillator_strength_3>
0.0403

>  <oscillator_strength_4>
0.0951

>  <open_babel_can_smiles>
CCN(N=O)COO

>  <mulliken_charges>
16
1   -0.450009
2   -0.143563
3   0.109534
4   0.163217
5   -0.240744
6   -0.362818
7   -0.413211
8   -0.272898
9   0.158068
10   0.167001
11   0.155037
12   0.176839
13   0.170369
14   0.164356
15   0.196513
16   0.422308

>  <lowdin_charges>
16
1   -0.451848
2   -0.200962
3   -0.097006
4   0.061114
5   -0.062971
6   -0.251324
7   -0.345374
8   -0.141397
9   0.161926
10   0.159112
11   0.151756
12   0.165548
13   0.156737
14   0.155515
15   0.181116
16   0.35806

$$$$

