PCCDB-ID:  2292
public computational chemistry database (PCCDB) project, http://pccdb.org

 34 34  0  0  1  0  0  0  0  0999 V2000
    7.4241    1.2034   -5.1584 C   0  0  0  0  0  0  0  0  0  0  0  0
    8.1405    0.8942   -3.8377 C   0  0  0  0  0  0  0  0  0  0  0  0
    7.6278    1.6953   -2.6283 C   0  0  0  0  0  0  0  0  0  0  0  0
    9.9030    5.3846    2.0906 C   0  0  0  0  0  0  0  0  0  0  0  0
    8.1643    4.0082    3.0180 C   0  0  0  0  0  0  0  0  0  0  0  0
   10.6553    5.2178    3.2531 C   0  0  0  0  0  0  0  0  0  0  0  0
    8.9069    3.8270    4.1811 C   0  0  0  0  0  0  0  0  0  0  0  0
    7.9241    3.2031   -2.7031 C   0  0  0  0  0  0  0  0  0  0  0  0
    8.0898    3.7166   -0.2705 C   0  0  0  0  0  0  0  0  0  0  0  0
    8.6494    4.7812    1.9549 C   0  0  0  0  0  0  0  0  0  0  0  0
   10.1610    4.4347    4.3006 C   0  0  0  0  0  0  0  0  0  0  0  0
    7.8523    4.9171    0.6742 C   0  0  1  0  0  0  0  0  0  0  0  0
    7.4634    4.0062   -1.5644 N   0  0  0  0  0  0  0  0  0  0  0  0
   10.8524    4.2336    5.4661 O   0  0  0  0  0  0  0  0  0  0  0  0
    8.2051    6.1068   -0.0071 O   0  0  0  0  0  0  0  0  0  0  0  0
    7.7968    0.5623   -5.9653 H   0  0  0  0  0  0  0  0  0  0  0  0
    7.5701    2.2425   -5.4739 H   0  0  0  0  0  0  0  0  0  0  0  0
    6.3439    1.0318   -5.0704 H   0  0  0  0  0  0  0  0  0  0  0  0
    9.2192    1.0711   -3.9563 H   0  0  0  0  0  0  0  0  0  0  0  0
    8.0337   -0.1760   -3.6176 H   0  0  0  0  0  0  0  0  0  0  0  0
    8.0799    1.2861   -1.7154 H   0  0  0  0  0  0  0  0  0  0  0  0
    6.5412    1.5488   -2.5274 H   0  0  0  0  0  0  0  0  0  0  0  0
   10.2765    6.0028    1.2813 H   0  0  0  0  0  0  0  0  0  0  0  0
    7.1831    3.5434    2.9401 H   0  0  0  0  0  0  0  0  0  0  0  0
   11.6262    5.7022    3.3482 H   0  0  0  0  0  0  0  0  0  0  0  0
    8.5296    3.2313    5.0065 H   0  0  0  0  0  0  0  0  0  0  0  0
    7.4678    3.6318   -3.6034 H   0  0  0  0  0  0  0  0  0  0  0  0
    9.0071    3.3602   -2.7974 H   0  0  0  0  0  0  0  0  0  0  0  0
    7.7441    2.7868    0.2085 H   0  0  0  0  0  0  0  0  0  0  0  0
    9.1695    3.6200   -0.4377 H   0  0  0  0  0  0  0  0  0  0  0  0
    6.7763    4.9337    0.9336 H   0  0  0  0  0  0  0  0  0  0  0  0
    6.4502    3.9246   -1.4788 H   0  0  0  0  0  0  0  0  0  0  0  0
   11.6907    4.7188    5.4185 H   0  0  0  0  0  0  0  0  0  0  0  0
    7.9818    5.9088   -0.9406 H   0  0  0  0  0  0  0  0  0  0  0  0
  1 18  1  0  0  0  0
  1  2  1  0  0  0  0
  2 20  1  0  0  0  0
  2  3  1  0  0  0  0
  3 22  1  0  0  0  0
  3 21  1  0  0  0  0
  4  6  1  0  0  0  0
  5  7  2  0  0  0  0
  6 25  1  0  0  0  0
  6 11  2  0  0  0  0
  7 11  1  0  0  0  0
  7 26  1  0  0  0  0
  8  3  1  0  0  0  0
  8 13  1  0  0  0  0
  9 29  1  0  0  0  0
  9 12  1  0  0  0  0
 10  4  2  0  0  0  0
 10  5  1  0  0  0  0
 11 14  1  0  0  0  0
 12 31  1  1  0  0  0
 12 10  1  0  0  0  0
 13 32  1  0  0  0  0
 13  9  1  0  0  0  0
 15 12  1  0  0  0  0
 16  1  1  0  0  0  0
 17  1  1  0  0  0  0
 19  2  1  0  0  0  0
 23  4  1  0  0  0  0
 24  5  1  0  0  0  0
 27  8  1  0  0  0  0
 28  8  1  0  0  0  0
 30  9  1  0  0  0  0
 33 14  1  0  0  0  0
 34 15  1  0  0  0  0
M  END
>  <HBA>
3

>  <HBD>
3

>  <TPSA>
52.49

>  <cid>
2292

>  <dipole>
2.72

>  <excitation_energy_1>
4.936

>  <excitation_energy_2>
5.092

>  <excitation_energy_3>
5.325

>  <excitation_energy_4>
5.567

>  <homo_energy>
-5.66

>  <homo_lumo_gap>
5.81

>  <logP>
2.206

>  <lumo_energy>
0.15

>  <melting_point>
90.6

>  <molecular_refractivity>
61.43

>  <oscillator_strength_1>
0.0284

>  <oscillator_strength_2>
0.0001

>  <oscillator_strength_3>
0.007

>  <oscillator_strength_4>
0.0666

>  <open_babel_can_smiles>
CCCCNC[C@@H](c1ccc(cc1)O)O

>  <mulliken_charges>
34
1   -0.446031
2   -0.252369
3   -0.264399
4   -0.17707
5   -0.187468
6   -0.198133
7   -0.162142
8   -0.130774
9   -0.149099
10   0.135041
11   0.350712
12   0.086448
13   -0.582325
14   -0.645855
15   -0.651922
16   0.146654
17   0.147384
18   0.142339
19   0.133884
20   0.136662
21   0.140692
22   0.122776
23   0.150845
24   0.119387
25   0.115646
26   0.135746
27   0.144195
28   0.143691
29   0.129303
30   0.150417
31   0.107055
32   0.299145
33   0.40578
34   0.403785

>  <lowdin_charges>
34
1   -0.445743
2   -0.269215
3   -0.293033
4   -0.146627
5   -0.15535
6   -0.213292
7   -0.188269
8   -0.205385
9   -0.224654
10   -0.032472
11   0.099568
12   -0.000567
13   -0.357057
14   -0.382291
15   -0.468853
16   0.153119
17   0.146233
18   0.144864
19   0.138965
20   0.143468
21   0.145865
22   0.133636
23   0.171151
24   0.15254
25   0.150883
26   0.166265
27   0.145606
28   0.142128
29   0.13239
30   0.148544
31   0.120207
32   0.252763
33   0.356495
34   0.338119

$$$$

