PCCDB-ID:  6924
public computational chemistry database (PCCDB) project, http://pccdb.org

 20 20  0  0  0  0  0  0  0  0999 V2000
    0.9057   -0.3952    0.5512 C   0  0  0  0  0  0  0  0  0  0  0  0
    4.5002   -1.2644   -0.3966 C   0  0  0  0  0  0  0  0  0  0  0  0
    5.0843   -0.0139   -0.5872 C   0  0  0  0  0  0  0  0  0  0  0  0
    3.1570   -1.3631   -0.0311 C   0  0  0  0  0  0  0  0  0  0  0  0
    4.3132    1.1338   -0.4129 C   0  0  0  0  0  0  0  0  0  0  0  0
    2.3529   -0.2314    0.1562 C   0  0  0  0  0  0  0  0  0  0  0  0
    2.9689    1.0201   -0.0512 C   0  0  0  0  0  0  0  0  0  0  0  0
    0.8610    2.4987   -0.9919 N   0  0  0  0  0  0  0  0  0  0  0  0
    1.3888    2.5529    1.4786 O   0  0  0  0  0  0  0  0  0  0  0  0
    3.0128    3.6570   -0.1504 O   0  0  0  0  0  0  0  0  0  0  0  0
    2.0872    2.5698    0.1888 S   0  0  0  0  0  0  0  0  0  0  0  0
    0.6651   -1.4536    0.6856 H   0  0  0  0  0  0  0  0  0  0  0  0
    0.2436    0.0135   -0.2204 H   0  0  0  0  0  0  0  0  0  0  0  0
    0.6852    0.1373    1.4807 H   0  0  0  0  0  0  0  0  0  0  0  0
    5.0884   -2.1685   -0.5293 H   0  0  0  0  0  0  0  0  0  0  0  0
    6.1293    0.0730   -0.8695 H   0  0  0  0  0  0  0  0  0  0  0  0
    2.7132   -2.3439    0.1186 H   0  0  0  0  0  0  0  0  0  0  0  0
    4.7389    2.1211   -0.5519 H   0  0  0  0  0  0  0  0  0  0  0  0
    0.0088    2.8766   -0.5797 H   0  0  0  0  0  0  0  0  0  0  0  0
    1.1373    3.0500   -1.8032 H   0  0  0  0  0  0  0  0  0  0  0  0
  1 12  1  0  0  0  0
  1 14  1  0  0  0  0
  2  4  2  0  0  0  0
  3  5  2  0  0  0  0
  3  2  1  0  0  0  0
  4 17  1  0  0  0  0
  4  6  1  0  0  0  0
  5  7  1  0  0  0  0
  6  1  1  0  0  0  0
  7  6  2  0  0  0  0
  7 11  1  0  0  0  0
  8 19  1  0  0  0  0
  8 11  1  0  0  0  0
 10 11  2  0  0  0  0
 11  9  2  0  0  0  0
 13  1  1  0  0  0  0
 15  2  1  0  0  0  0
 16  3  1  0  0  0  0
 18  5  1  0  0  0  0
 20  8  1  0  0  0  0
M  END
>  <HBA>
3

>  <HBD>
1

>  <TPSA>
68.54

>  <cid>
6924

>  <dipole>
3.71

>  <excitation_energy_1>
5.106

>  <excitation_energy_2>
5.639

>  <excitation_energy_3>
6.128

>  <excitation_energy_4>
6.304

>  <homo_energy>
-6.999

>  <homo_lumo_gap>
6.025

>  <logP>
2.424

>  <lumo_energy>
-0.974

>  <melting_point>
96.55

>  <molecular_refractivity>
42.4

>  <oscillator_strength_1>
0.0234

>  <oscillator_strength_2>
0.0931

>  <oscillator_strength_3>
0.0446

>  <oscillator_strength_4>
0.0068

>  <open_babel_can_smiles>
Cc1ccccc1S(=O)(=O)N

>  <mulliken_charges>
20
1   -0.54831
2   -0.115356
3   -0.126931
4   -0.175571
5   -0.152097
6   0.181838
7   -0.218756
8   -0.828601
9   -0.547974
10   -0.52365
11   1.199757
12   0.152209
13   0.185231
14   0.202602
15   0.14124
16   0.142468
17   0.135568
18   0.18712
19   0.356465
20   0.352748

>  <lowdin_charges>
20
1   -0.452748
2   -0.137642
3   -0.156114
4   -0.162635
5   -0.138452
6   0.030491
7   -0.194094
8   -0.695856
9   -0.590467
10   -0.592571
11   1.305849
12   0.155762
13   0.173938
14   0.18177
15   0.164114
16   0.163368
17   0.161047
18   0.186684
19   0.300312
20   0.297242

$$$$

