PCCDB-ID:  11602
public computational chemistry database (PCCDB) project, http://pccdb.org

 16 15  0  0  0  0  0  0  0  0999 V2000
    2.1555   -1.0495   -0.7642 C   0  0  0  0  0  0  0  0  0  0  0  0
    6.1692    2.9266    1.2201 C   0  0  0  0  0  0  0  0  0  0  0  0
    3.1979   -0.6924    0.0002 C   0  0  0  0  0  0  0  0  0  0  0  0
    4.8044    2.4077    1.7067 C   0  0  0  0  0  0  0  0  0  0  0  0
    3.4609    0.6644    0.4587 C   0  0  0  0  0  0  0  0  0  0  0  0
    4.5050    1.0158    1.2275 C   0  0  0  0  0  0  0  0  0  0  0  0
    2.0035   -2.0772   -1.0801 H   0  0  0  0  0  0  0  0  0  0  0  0
    1.4181   -0.3225   -1.0978 H   0  0  0  0  0  0  0  0  0  0  0  0
    6.3714    3.9286    1.6154 H   0  0  0  0  0  0  0  0  0  0  0  0
    6.2017    2.9772    0.1263 H   0  0  0  0  0  0  0  0  0  0  0  0
    6.9821    2.2673    1.5472 H   0  0  0  0  0  0  0  0  0  0  0  0
    3.9138   -1.4536    0.3130 H   0  0  0  0  0  0  0  0  0  0  0  0
    4.0088    3.0895    1.3805 H   0  0  0  0  0  0  0  0  0  0  0  0
    4.7955    2.4231    2.8073 H   0  0  0  0  0  0  0  0  0  0  0  0
    2.7493    1.4303    0.1454 H   0  0  0  0  0  0  0  0  0  0  0  0
    5.2135    0.2420    1.5323 H   0  0  0  0  0  0  0  0  0  0  0  0
  1  3  2  0  0  0  0
  2 11  1  0  0  0  0
  2  9  1  0  0  0  0
  2  4  1  0  0  0  0
  3 12  1  0  0  0  0
  3  5  1  0  0  0  0
  4 14  1  0  0  0  0
  5  6  2  0  0  0  0
  6 16  1  0  0  0  0
  6  4  1  0  0  0  0
  7  1  1  0  0  0  0
  8  1  1  0  0  0  0
 10  2  1  0  0  0  0
 13  4  1  0  0  0  0
 15  5  1  0  0  0  0
M  END
>  <HBA>
0

>  <HBD>
0

>  <TPSA>
0.0

>  <cid>
11602

>  <dipole>
0.55

>  <excitation_energy_1>
5.437

>  <excitation_energy_2>
5.784

>  <excitation_energy_3>
5.948

>  <excitation_energy_4>
6.015

>  <homo_energy>
-5.927

>  <homo_lumo_gap>
5.486

>  <logP>
2.139

>  <lumo_energy>
-0.441

>  <melting_point>
-37.37

>  <molecular_refractivity>
30.01

>  <oscillator_strength_1>
0.7581

>  <oscillator_strength_2>
0.0326

>  <oscillator_strength_3>
0.0042

>  <oscillator_strength_4>
0.0258

>  <open_babel_can_smiles>
CC/C=C/C=C

>  <mulliken_charges>
16
1   -0.359067
2   -0.439687
3   -0.058558
4   -0.299548
5   -0.108251
6   -0.102047
7   0.140775
8   0.137671
9   0.144625
10   0.152246
11   0.144531
12   0.122832
13   0.141151
14   0.145466
15   0.117339
16   0.120523

>  <lowdin_charges>
16
1   -0.340599
2   -0.440505
3   -0.141919
4   -0.266857
5   -0.16692
6   -0.155534
7   0.159169
8   0.156593
9   0.149859
10   0.149753
11   0.148958
12   0.15311
13   0.147813
14   0.147615
15   0.150914
16   0.148551

$$$$

