PCCDB-ID:  1527
public computational chemistry database (PCCDB) project, http://pccdb.org

 30 30  0  0  1  0  0  0  0  0999 V2000
    0.4063   -0.2126   -0.6159 C   0  0  0  0  0  0  0  0  0  0  0  0
    2.2593   -2.5804   -0.5773 C   0  0  0  0  0  0  0  0  0  0  0  0
    5.6620   -4.0545   -1.1811 C   0  0  0  0  0  0  0  0  0  0  0  0
    1.9125   -0.2305   -0.7700 C   0  0  0  0  0  0  0  0  0  0  0  0
    3.2978   -3.5287   -1.1863 C   0  0  2  0  0  0  0  0  0  0  0  0
    5.3972   -5.5481   -0.9544 C   0  0  2  0  0  0  0  0  0  0  0  0
    2.9160   -5.0096   -1.0029 C   0  0  1  0  0  0  0  0  0  0  0  0
    4.0278   -5.9332   -1.5491 C   0  0  2  0  0  0  0  0  0  0  0  0
    2.7113   -1.2102   -0.7503 N   0  0  0  0  0  0  0  0  0  0  0  0
    4.5955   -3.2831   -0.5584 N   0  0  0  0  0  0  0  0  0  0  0  0
    2.4755    1.0077   -0.9417 O   0  0  0  0  0  0  0  0  0  0  0  0
    5.3560   -5.8648    0.4492 O   0  0  0  0  0  0  0  0  0  0  0  0
    2.6378   -5.3491    0.3549 O   0  0  0  0  0  0  0  0  0  0  0  0
    3.7074   -7.2893   -1.3154 O   0  0  0  0  0  0  0  0  0  0  0  0
   -0.0098   -1.2159   -0.5191 H   0  0  0  0  0  0  0  0  0  0  0  0
   -0.0642    0.2748   -1.4793 H   0  0  0  0  0  0  0  0  0  0  0  0
    0.1279    0.3556    0.2808 H   0  0  0  0  0  0  0  0  0  0  0  0
    2.1738   -2.8172    0.4902 H   0  0  0  0  0  0  0  0  0  0  0  0
    1.2823   -2.7859   -1.0416 H   0  0  0  0  0  0  0  0  0  0  0  0
    5.7620   -3.8807   -2.2716 H   0  0  0  0  0  0  0  0  0  0  0  0
    6.6222   -3.7716   -0.7273 H   0  0  0  0  0  0  0  0  0  0  0  0
    3.3343   -3.3358   -2.2791 H   0  0  0  0  0  0  0  0  0  0  0  0
    6.1796   -6.1501   -1.4386 H   0  0  0  0  0  0  0  0  0  0  0  0
    1.9902   -5.2158   -1.5529 H   0  0  0  0  0  0  0  0  0  0  0  0
    4.0964   -5.8073   -2.6375 H   0  0  0  0  0  0  0  0  0  0  0  0
    4.7763   -2.2816   -0.5932 H   0  0  0  0  0  0  0  0  0  0  0  0
    1.7769    1.6795   -0.9304 H   0  0  0  0  0  0  0  0  0  0  0  0
    5.9918   -5.2891    0.9016 H   0  0  0  0  0  0  0  0  0  0  0  0
    3.4976   -5.2744    0.8155 H   0  0  0  0  0  0  0  0  0  0  0  0
    3.3496   -7.3069   -0.4095 H   0  0  0  0  0  0  0  0  0  0  0  0
  1 15  1  0  0  0  0
  1 17  1  0  0  0  0
  2 18  1  0  0  0  0
  3  6  1  0  0  0  0
  3 21  1  0  0  0  0
  3 10  1  0  0  0  0
  4  9  2  0  0  0  0
  4  1  1  0  0  0  0
  5 22  1  6  0  0  0
  5  7  1  0  0  0  0
  5  2  1  0  0  0  0
  5 10  1  0  0  0  0
  6 23  1  6  0  0  0
  6 12  1  0  0  0  0
  7 24  1  6  0  0  0
  7 13  1  0  0  0  0
  8 25  1  6  0  0  0
  8 14  1  0  0  0  0
  8  7  1  0  0  0  0
  8  6  1  0  0  0  0
  9  2  1  0  0  0  0
 11 27  1  0  0  0  0
 11  4  1  0  0  0  0
 12 28  1  0  0  0  0
 13 29  1  0  0  0  0
 14 30  1  0  0  0  0
 16  1  1  0  0  0  0
 19  2  1  0  0  0  0
 20  3  1  0  0  0  0
 26 10  1  0  0  0  0
M  END
>  <HBA>
6

>  <HBD>
5

>  <TPSA>
101.82

>  <cid>
1527

>  <dipole>
4.7

>  <excitation_energy_1>
5.473

>  <excitation_energy_2>
5.544

>  <excitation_energy_3>
5.616

>  <excitation_energy_4>
5.834

>  <homo_energy>
-6.071

>  <homo_lumo_gap>
6.525

>  <logP>
-2.103

>  <lumo_energy>
0.454

>  <melting_point>
126.29

>  <molecular_refractivity>
51.66

>  <oscillator_strength_1>
0.001

>  <oscillator_strength_2>
0.0095

>  <oscillator_strength_3>
0.0012

>  <oscillator_strength_4>
0.0041

>  <open_babel_can_smiles>
O[C@@H]1CN[C@@H]([C@@H]([C@@H]1O)O)C/N=C(/O)\C

>  <mulliken_charges>
30
1   -0.562295
2   -0.142569
3   -0.174046
4   0.497495
5   0.026634
6   0.135432
7   0.102521
8   0.112096
9   -0.433502
10   -0.581241
11   -0.580235
12   -0.644144
13   -0.657564
14   -0.635238
15   0.189076
16   0.172283
17   0.178558
18   0.167142
19   0.121872
20   0.122176
21   0.133432
22   0.102754
23   0.130757
24   0.134379
25   0.127615
26   0.327437
27   0.404821
28   0.401449
29   0.418995
30   0.403911

>  <lowdin_charges>
30
1   -0.48472
2   -0.202643
3   -0.221074
4   0.135463
5   -0.081185
6   -0.024087
7   -0.025056
8   -0.031886
9   -0.213265
10   -0.369524
11   -0.374078
12   -0.464769
13   -0.472724
14   -0.453593
15   0.176332
16   0.168783
17   0.172126
18   0.157132
19   0.132405
20   0.123962
21   0.142086
22   0.115858
23   0.141451
24   0.14684
25   0.143083
26   0.26823
27   0.354778
28   0.350823
29   0.344078
30   0.345176

$$$$

