PCCDB-ID:  11944
public computational chemistry database (PCCDB) project, http://pccdb.org

 19 20  0  0  0  0  0  0  0  0999 V2000
    2.4305    0.7389   -0.0027 C   0  0  0  0  0  0  0  0  0  0  0  0
    2.4525   -0.6778    0.0104 C   0  0  0  0  0  0  0  0  0  0  0  0
    1.2326    1.4181   -0.0107 C   0  0  0  0  0  0  0  0  0  0  0  0
    1.2754   -1.3905    0.0146 C   0  0  0  0  0  0  0  0  0  0  0  0
   -2.4349    0.6790   -0.0092 C   0  0  0  0  0  0  0  0  0  0  0  0
   -1.2557    1.3817   -0.0140 C   0  0  0  0  0  0  0  0  0  0  0  0
   -1.2053   -1.4262    0.0118 C   0  0  0  0  0  0  0  0  0  0  0  0
   -3.6476   -1.4748    0.0101 C   0  0  0  0  0  0  0  0  0  0  0  0
   -2.4126   -0.7466    0.0041 C   0  0  0  0  0  0  0  0  0  0  0  0
   -0.0001    0.7142   -0.0060 C   0  0  0  0  0  0  0  0  0  0  0  0
    0.0221   -0.7195    0.0071 C   0  0  0  0  0  0  0  0  0  0  0  0
   -4.6539   -2.0592    0.0152 N   0  0  0  0  0  0  0  0  0  0  0  0
    3.3673    1.2892   -0.0062 H   0  0  0  0  0  0  0  0  0  0  0  0
    3.4052   -1.1997    0.0165 H   0  0  0  0  0  0  0  0  0  0  0  0
    1.2150    2.5051   -0.0202 H   0  0  0  0  0  0  0  0  0  0  0  0
    1.2874   -2.4775    0.0247 H   0  0  0  0  0  0  0  0  0  0  0  0
   -3.3904    1.1929   -0.0152 H   0  0  0  0  0  0  0  0  0  0  0  0
   -1.2708    2.4685   -0.0235 H   0  0  0  0  0  0  0  0  0  0  0  0
   -1.1956   -2.5122    0.0224 H   0  0  0  0  0  0  0  0  0  0  0  0
  1  2  2  0  0  0  0
  2  4  1  0  0  0  0
  2 14  1  0  0  0  0
  3 10  2  0  0  0  0
  3  1  1  0  0  0  0
  4 16  1  0  0  0  0
  5  9  1  0  0  0  0
  6  5  2  0  0  0  0
  6 10  1  0  0  0  0
  7 19  1  0  0  0  0
  8 12  3  0  0  0  0
  9  8  1  0  0  0  0
  9  7  2  0  0  0  0
 10 11  1  0  0  0  0
 11  7  1  0  0  0  0
 11  4  2  0  0  0  0
 13  1  1  0  0  0  0
 15  3  1  0  0  0  0
 17  5  1  0  0  0  0
 18  6  1  0  0  0  0
M  END
>  <HBA>
1

>  <HBD>
0

>  <TPSA>
23.79

>  <cid>
11944

>  <dipole>
5.11

>  <excitation_energy_1>
4.105

>  <excitation_energy_2>
4.323

>  <excitation_energy_3>
5.432

>  <excitation_energy_4>
5.488

>  <homo_energy>
-6.392

>  <homo_lumo_gap>
4.585

>  <logP>
2.711

>  <lumo_energy>
-1.807

>  <melting_point>
86.39

>  <molecular_refractivity>
48.66

>  <oscillator_strength_1>
0.0494

>  <oscillator_strength_2>
0.0227

>  <oscillator_strength_3>
1.1266

>  <oscillator_strength_4>
0.0007

>  <open_babel_can_smiles>
N#Cc1ccc2c(c1)cccc2

>  <mulliken_charges>
19
1   -0.129752
2   -0.135322
3   -0.191146
4   -0.183303
5   -0.141891
6   -0.194979
7   -0.211775
8   0.235894
9   0.130264
10   0.145241
11   0.132536
12   -0.479572
13   0.140618
14   0.140762
15   0.139354
16   0.141801
17   0.157545
18   0.144399
19   0.159326

>  <lowdin_charges>
19
1   -0.147482
2   -0.151958
3   -0.151237
4   -0.146325
5   -0.141888
6   -0.14587
7   -0.125371
8   -0.01305
9   -0.023592
10   0.007597
11   -0.000229
12   -0.119755
13   0.164025
14   0.163997
15   0.160207
16   0.161369
17   0.174417
18   0.163383
19   0.171765

$$$$

