PCCDB-ID:  18491
public computational chemistry database (PCCDB) project, http://pccdb.org

 37 37  0  0  0  0  0  0  0  0999 V2000
    2.7569   -0.2468   -3.7621 C   0  0  0  0  0  0  0  0  0  0  0  0
    3.5908    0.5261    1.2903 C   0  0  0  0  0  0  0  0  0  0  0  0
    5.3121    7.4065   -1.6054 C   0  0  0  0  0  0  0  0  0  0  0  0
    3.6297   -0.4760   -2.5249 C   0  0  0  0  0  0  0  0  0  0  0  0
    4.1040    0.0443   -0.0718 C   0  0  0  0  0  0  0  0  0  0  0  0
    7.4485    4.6898   -3.2177 C   0  0  0  0  0  0  0  0  0  0  0  0
    7.0100    5.9425   -2.7839 C   0  0  0  0  0  0  0  0  0  0  0  0
    6.6848    3.5506   -2.9845 C   0  0  0  0  0  0  0  0  0  0  0  0
    5.0236    4.9160   -1.8688 C   0  0  0  0  0  0  0  0  0  0  0  0
    5.7913    6.0619   -2.1047 C   0  0  0  0  0  0  0  0  0  0  0  0
    5.4612    3.6598   -2.3042 C   0  0  0  0  0  0  0  0  0  0  0  0
    2.6718    1.6539   -1.3919 C   0  0  0  0  0  0  0  0  0  0  0  0
    3.0875    0.1702   -1.2280 C   0  0  0  0  0  0  0  0  0  0  0  0
    4.7357    2.4835   -2.0236 N   0  0  0  0  0  0  0  0  0  0  0  0
    3.3843    2.6615   -1.7236 N   0  0  0  0  0  0  0  0  0  0  0  0
    1.3804    1.9203   -1.0862 O   0  0  0  0  0  0  0  0  0  0  0  0
    1.8574   -0.5208   -0.8963 O   0  0  0  0  0  0  0  0  0  0  0  0
    3.1529   -0.7979   -4.6216 H   0  0  0  0  0  0  0  0  0  0  0  0
    2.7109    0.8139   -4.0330 H   0  0  0  0  0  0  0  0  0  0  0  0
    1.7345   -0.5913   -3.5789 H   0  0  0  0  0  0  0  0  0  0  0  0
    4.3592    0.3797    2.0564 H   0  0  0  0  0  0  0  0  0  0  0  0
    2.6945   -0.0169    1.6114 H   0  0  0  0  0  0  0  0  0  0  0  0
    3.3432    1.5920    1.2641 H   0  0  0  0  0  0  0  0  0  0  0  0
    5.7758    8.2286   -2.1608 H   0  0  0  0  0  0  0  0  0  0  0  0
    5.5590    7.5481   -0.5445 H   0  0  0  0  0  0  0  0  0  0  0  0
    4.2249    7.5036   -1.6986 H   0  0  0  0  0  0  0  0  0  0  0  0
    4.6598   -0.1467   -2.7108 H   0  0  0  0  0  0  0  0  0  0  0  0
    3.7040   -1.5528   -2.3211 H   0  0  0  0  0  0  0  0  0  0  0  0
    4.4099   -1.0116   -0.0105 H   0  0  0  0  0  0  0  0  0  0  0  0
    4.9964    0.6150   -0.3472 H   0  0  0  0  0  0  0  0  0  0  0  0
    8.3921    4.6002   -3.7504 H   0  0  0  0  0  0  0  0  0  0  0  0
    7.6124    6.8270   -2.9756 H   0  0  0  0  0  0  0  0  0  0  0  0
    7.0316    2.5771   -3.3265 H   0  0  0  0  0  0  0  0  0  0  0  0
    4.0701    4.9840   -1.3572 H   0  0  0  0  0  0  0  0  0  0  0  0
    4.9273    1.7496   -2.6983 H   0  0  0  0  0  0  0  0  0  0  0  0
    0.9860    1.0640   -0.8279 H   0  0  0  0  0  0  0  0  0  0  0  0
    2.0724   -1.2662   -0.3150 H   0  0  0  0  0  0  0  0  0  0  0  0
  1 20  1  0  0  0  0
  1  4  1  0  0  0  0
  2 22  1  0  0  0  0
  2 21  1  0  0  0  0
  3 25  1  0  0  0  0
  4 28  1  0  0  0  0
  4 13  1  0  0  0  0
  5 29  1  0  0  0  0
  5  2  1  0  0  0  0
  6  8  2  0  0  0  0
  6  7  1  0  0  0  0
  7 10  2  0  0  0  0
  8 11  1  0  0  0  0
  9 34  1  0  0  0  0
 10  9  1  0  0  0  0
 10  3  1  0  0  0  0
 11 14  1  0  0  0  0
 11  9  2  0  0  0  0
 12 13  1  0  0  0  0
 12 16  1  0  0  0  0
 13 17  1  0  0  0  0
 13  5  1  0  0  0  0
 14 15  1  0  0  0  0
 15 12  2  0  0  0  0
 16 36  1  0  0  0  0
 17 37  1  0  0  0  0
 18  1  1  0  0  0  0
 19  1  1  0  0  0  0
 23  2  1  0  0  0  0
 24  3  1  0  0  0  0
 26  3  1  0  0  0  0
 27  4  1  0  0  0  0
 30  5  1  0  0  0  0
 31  6  1  0  0  0  0
 32  7  1  0  0  0  0
 33  8  1  0  0  0  0
 35 14  1  0  0  0  0
M  END
>  <HBA>
4

>  <HBD>
3

>  <TPSA>
61.36

>  <cid>
18491

>  <dipole>
4.96

>  <excitation_energy_1>
4.091

>  <excitation_energy_2>
4.321

>  <excitation_energy_3>
4.549

>  <excitation_energy_4>
4.691

>  <homo_energy>
-4.901

>  <homo_lumo_gap>
5.203

>  <logP>
2.453

>  <lumo_energy>
0.302

>  <melting_point>
117.6

>  <molecular_refractivity>
68.95

>  <oscillator_strength_1>
0.019

>  <oscillator_strength_2>
0.0438

>  <oscillator_strength_3>
0.0038

>  <oscillator_strength_4>
0.302

>  <open_babel_can_smiles>
CCC(/C(=N\Nc1cccc(c1)C)/O)(CC)O

>  <mulliken_charges>
37
1   -0.463155
2   -0.458188
3   -0.527141
4   -0.263389
5   -0.301609
6   -0.134142
7   -0.185525
8   -0.194978
9   -0.210563
10   0.167264
11   0.342742
12   0.497764
13   0.238603
14   -0.563427
15   -0.320085
16   -0.605828
17   -0.67998
18   0.149258
19   0.166082
20   0.167068
21   0.154871
22   0.133425
23   0.18197
24   0.150054
25   0.16114
26   0.159271
27   0.13298
28   0.13724
29   0.12758
30   0.183
31   0.120002
32   0.110473
33   0.106164
34   0.148535
35   0.326311
36   0.436815
37   0.409399

>  <lowdin_charges>
37
1   -0.451145
2   -0.44997
3   -0.439338
4   -0.279545
5   -0.291506
6   -0.148399
7   -0.197584
8   -0.206798
9   -0.198012
10   0.011122
11   0.052397
12   0.096738
13   0.094443
14   -0.229732
15   -0.147845
16   -0.363697
17   -0.460889
18   0.155962
19   0.156757
20   0.159748
21   0.1589
22   0.142758
23   0.165485
24   0.155218
25   0.158248
26   0.157251
27   0.141547
28   0.146351
29   0.137646
30   0.170706
31   0.153304
32   0.150869
33   0.146772
34   0.170423
35   0.263257
36   0.362557
37   0.356001

$$$$

