PCCDB-ID:  16277
public computational chemistry database (PCCDB) project, http://pccdb.org

 15 15  0  0  0  0  0  0  0  0999 V2000
    1.0584    0.0896    0.0068 C   0  0  0  0  0  0  0  0  0  0  0  0
    5.2774    0.1349   -0.2791 C   0  0  0  0  0  0  0  0  0  0  0  0
    4.5482    1.3503   -0.2272 C   0  0  0  0  0  0  0  0  0  0  0  0
    4.6120   -1.0611   -0.2390 C   0  0  0  0  0  0  0  0  0  0  0  0
    3.1879    1.2796   -0.1360 C   0  0  0  0  0  0  0  0  0  0  0  0
    3.1835   -1.1474   -0.1453 C   0  0  0  0  0  0  0  0  0  0  0  0
    2.5210    0.0847   -0.0939 N   0  0  0  0  0  0  0  0  0  0  0  0
    2.3486   -2.6104   -0.0994 S   0  0  0  0  0  0  0  0  0  0  0  0
    0.7111    1.1239    0.0363 H   0  0  0  0  0  0  0  0  0  0  0  0
    0.7493   -0.4433    0.9093 H   0  0  0  0  0  0  0  0  0  0  0  0
    0.6276   -0.4336   -0.8502 H   0  0  0  0  0  0  0  0  0  0  0  0
    6.3614    0.1541   -0.3512 H   0  0  0  0  0  0  0  0  0  0  0  0
    5.0383    2.3161   -0.2573 H   0  0  0  0  0  0  0  0  0  0  0  0
    5.1433   -2.0044   -0.2781 H   0  0  0  0  0  0  0  0  0  0  0  0
    2.5627    2.1637   -0.0924 H   0  0  0  0  0  0  0  0  0  0  0  0
  1  9  1  0  0  0  0
  1 10  1  0  0  0  0
  2  4  2  0  0  0  0
  2  3  1  0  0  0  0
  3  5  2  0  0  0  0
  4  6  1  0  0  0  0
  5  7  1  0  0  0  0
  5 15  1  0  0  0  0
  6  8  2  0  0  0  0
  6  7  1  0  0  0  0
  7  1  1  0  0  0  0
 11  1  1  0  0  0  0
 12  2  1  0  0  0  0
 13  3  1  0  0  0  0
 14  4  1  0  0  0  0
M  END
>  <HBA>
2

>  <HBD>
0

>  <TPSA>
37.02

>  <cid>
16277

>  <dipole>
5.58

>  <excitation_energy_1>
2.895

>  <excitation_energy_2>
3.437

>  <excitation_energy_3>
3.68

>  <excitation_energy_4>
4.445

>  <homo_energy>
-5.35

>  <homo_lumo_gap>
3.948

>  <logP>
1.755

>  <lumo_energy>
-1.401

>  <melting_point>
48.67

>  <molecular_refractivity>
36.53

>  <oscillator_strength_1>
0.0

>  <oscillator_strength_2>
0.0562

>  <oscillator_strength_3>
0.0001

>  <oscillator_strength_4>
0.3118

>  <open_babel_can_smiles>
S=c1ccccn1C

>  <mulliken_charges>
15
1   -0.321945
2   -0.076954
3   -0.187476
4   -0.18126
5   0.093318
6   0.169143
7   -0.409032
8   -0.302217
9   0.155263
10   0.207223
11   0.20733
12   0.152731
13   0.151247
14   0.171999
15   0.17063

>  <lowdin_charges>
15
1   -0.346452
2   -0.12243
3   -0.197278
4   -0.161249
5   -0.080902
6   -0.056034
7   0.009037
8   -0.264092
9   0.155218
10   0.183016
11   0.183446
12   0.167362
13   0.172697
14   0.184111
15   0.173551

$$$$

