PCCDB-ID:  20970
public computational chemistry database (PCCDB) project, http://pccdb.org

 11 11  0  0  0  0  0  0  0  0999 V2000
   -0.7407   -1.1385   -0.3489 C   0  0  0  0  0  0  0  0  0  0  0  0
    0.6900   -1.1351    0.1761 C   0  0  0  0  0  0  0  0  0  0  0  0
    0.0053    1.4921   -0.2050 C   0  0  0  0  0  0  0  0  0  0  0  0
   -1.5023    0.4714    0.0967 S   0  0  0  0  0  0  0  0  0  0  0  0
    1.4925    0.4144   -0.3949 S   0  0  0  0  0  0  0  0  0  0  0  0
   -1.3421   -1.9187    0.1296 H   0  0  0  0  0  0  0  0  0  0  0  0
   -0.7626   -1.2861   -1.4322 H   0  0  0  0  0  0  0  0  0  0  0  0
    1.2712   -1.9659   -0.2380 H   0  0  0  0  0  0  0  0  0  0  0  0
    0.7087   -1.1963    1.2676 H   0  0  0  0  0  0  0  0  0  0  0  0
    0.1222    2.1687    0.6442 H   0  0  0  0  0  0  0  0  0  0  0  0
   -0.0986    2.0774   -1.1211 H   0  0  0  0  0  0  0  0  0  0  0  0
  1  4  1  0  0  0  0
  1  6  1  0  0  0  0
  1  2  1  0  0  0  0
  2  9  1  0  0  0  0
  3  4  1  0  0  0  0
  3 10  1  0  0  0  0
  5  3  1  0  0  0  0
  5  2  1  0  0  0  0
  7  1  1  0  0  0  0
  8  2  1  0  0  0  0
 11  3  1  0  0  0  0
M  END
>  <HBA>
2

>  <HBD>
0

>  <TPSA>
50.6

>  <cid>
20970

>  <dipole>
1.14

>  <excitation_energy_1>
4.577

>  <excitation_energy_2>
4.831

>  <excitation_energy_3>
5.448

>  <excitation_energy_4>
5.71

>  <homo_energy>
-6.131

>  <homo_lumo_gap>
6.025

>  <logP>
1.424

>  <lumo_energy>
-0.106

>  <melting_point>
15.95

>  <molecular_refractivity>
29.6

>  <oscillator_strength_1>
0.0017

>  <oscillator_strength_2>
0.0003

>  <oscillator_strength_3>
0.0194

>  <oscillator_strength_4>
0.0044

>  <open_babel_can_smiles>
C1SCCS1

>  <mulliken_charges>
11
1   -0.413894
2   -0.41377
3   -0.566423
4   0.112763
5   0.111994
6   0.185432
7   0.191243
8   0.185377
9   0.191447
10   0.207951
11   0.207881

>  <lowdin_charges>
11
1   -0.37452
2   -0.374019
3   -0.483523
4   0.100948
5   0.099608
6   0.175282
7   0.163893
8   0.174942
9   0.163803
10   0.177219
11   0.176366

$$$$

