PCCDB-ID:  10189
public computational chemistry database (PCCDB) project, http://pccdb.org

 25 26  0  0  0  0  0  0  0  0999 V2000
    0.9840   -0.0977    0.0453 C   0  0  0  0  0  0  0  0  0  0  0  0
    6.5563   -4.6430   -0.3839 C   0  0  0  0  0  0  0  0  0  0  0  0
    3.0546    1.3707    0.1772 C   0  0  0  0  0  0  0  0  0  0  0  0
    7.2962   -1.0894   -0.0556 C   0  0  0  0  0  0  0  0  0  0  0  0
    5.1462   -2.2097   -0.1486 C   0  0  0  0  0  0  0  0  0  0  0  0
    2.4550    0.1700    0.0704 C   0  0  0  0  0  0  0  0  0  0  0  0
    6.5379   -2.2665   -0.1591 C   0  0  0  0  0  0  0  0  0  0  0  0
    4.5135    1.5316    0.1931 C   0  0  0  0  0  0  0  0  0  0  0  0
    6.6732    0.1478    0.0587 C   0  0  0  0  0  0  0  0  0  0  0  0
    4.5418   -0.9546   -0.0331 C   0  0  0  0  0  0  0  0  0  0  0  0
    5.2534    0.2526    0.0732 C   0  0  0  0  0  0  0  0  0  0  0  0
    5.0374    2.6375    0.2967 O   0  0  0  0  0  0  0  0  0  0  0  0
    7.3991    1.2871    0.1572 O   0  0  0  0  0  0  0  0  0  0  0  0
    7.2588   -3.4127   -0.2663 O   0  0  0  0  0  0  0  0  0  0  0  0
    3.1701   -0.9889   -0.0316 O   0  0  0  0  0  0  0  0  0  0  0  0
    0.4231    0.8355    0.1294 H   0  0  0  0  0  0  0  0  0  0  0  0
    0.6986   -0.7596    0.8717 H   0  0  0  0  0  0  0  0  0  0  0  0
    0.6997   -0.6000   -0.8871 H   0  0  0  0  0  0  0  0  0  0  0  0
    7.3222   -5.4159   -0.4643 H   0  0  0  0  0  0  0  0  0  0  0  0
    5.9255   -4.6590   -1.2815 H   0  0  0  0  0  0  0  0  0  0  0  0
    5.9352   -4.8352    0.5000 H   0  0  0  0  0  0  0  0  0  0  0  0
    2.4583    2.2725    0.2570 H   0  0  0  0  0  0  0  0  0  0  0  0
    8.3798   -1.1694   -0.0667 H   0  0  0  0  0  0  0  0  0  0  0  0
    4.5165   -3.0857   -0.2253 H   0  0  0  0  0  0  0  0  0  0  0  0
    8.3408    1.0517    0.1330 H   0  0  0  0  0  0  0  0  0  0  0  0
  1  6  1  0  0  0  0
  1 16  1  0  0  0  0
  1 17  1  0  0  0  0
  2 14  1  0  0  0  0
  2 21  1  0  0  0  0
  3  8  1  0  0  0  0
  3 22  1  0  0  0  0
  4  9  2  0  0  0  0
  5 10  1  0  0  0  0
  6  3  2  0  0  0  0
  7  5  2  0  0  0  0
  7  4  1  0  0  0  0
  8 12  2  0  0  0  0
  9 11  1  0  0  0  0
  9 13  1  0  0  0  0
 10 15  1  0  0  0  0
 10 11  2  0  0  0  0
 11  8  1  0  0  0  0
 14  7  1  0  0  0  0
 15  6  1  0  0  0  0
 18  1  1  0  0  0  0
 19  2  1  0  0  0  0
 20  2  1  0  0  0  0
 23  4  1  0  0  0  0
 24  5  1  0  0  0  0
 25 13  1  0  0  0  0
M  END
>  <HBA>
4

>  <HBD>
1

>  <TPSA>
59.67

>  <cid>
10189

>  <dipole>
5.35

>  <excitation_energy_1>
3.746

>  <excitation_energy_2>
4.435

>  <excitation_energy_3>
4.706

>  <excitation_energy_4>
4.828

>  <homo_energy>
-6.016

>  <homo_lumo_gap>
5.119

>  <logP>
1.816

>  <lumo_energy>
-0.898

>  <melting_point>
134.25

>  <molecular_refractivity>
55.97

>  <oscillator_strength_1>
0.0

>  <oscillator_strength_2>
0.0469

>  <oscillator_strength_3>
0.0391

>  <oscillator_strength_4>
0.0

>  <open_babel_can_smiles>
COc1cc(O)c2c(c1)oc(cc2=O)C

>  <mulliken_charges>
25
1   -0.521553
2   -0.21773
3   -0.264941
4   -0.259236
5   -0.274073
6   0.377337
7   0.397733
8   0.435944
9   0.312971
10   0.290423
11   0.014398
12   -0.505299
13   -0.600761
14   -0.50947
15   -0.531569
16   0.175756
17   0.178143
18   0.178154
19   0.175207
20   0.15855
21   0.158529
22   0.147146
23   0.131234
24   0.143598
25   0.40951

>  <lowdin_charges>
25
1   -0.44194
2   -0.278128
3   -0.243455
4   -0.252659
5   -0.261933
6   0.118548
7   0.126611
8   0.138424
9   0.134033
10   0.127031
11   -0.108012
12   -0.273132
13   -0.331777
14   -0.188422
15   -0.122608
16   0.171868
17   0.172713
18   0.172166
19   0.166766
20   0.149623
21   0.149861
22   0.178232
23   0.163875
24   0.174977
25   0.357339

$$$$

