PCCDB-ID:  70703
public computational chemistry database (PCCDB) project, http://pccdb.org

 19 18  0  0  0  0  0  0  0  0999 V2000
    0.6798   -0.4782   -2.3337 C   0  0  0  0  0  0  0  0  0  0  0  0
    4.3534   -0.4261   -1.2970 C   0  0  0  0  0  0  0  0  0  0  0  0
    5.0084   -0.9624   -2.5923 C   0  0  0  0  0  0  0  0  0  0  0  0
    2.8374   -0.6460   -1.1785 C   0  0  0  0  0  0  0  0  0  0  0  0
    4.6644   -2.4147   -2.9338 C   0  0  0  0  0  0  0  0  0  0  0  0
    2.1366   -0.3484   -2.4386 N   0  0  0  0  0  0  0  0  0  0  0  0
    5.4540   -3.3257   -2.8348 O   0  0  0  0  0  0  0  0  0  0  0  0
    3.4038   -2.6159   -3.3675 O   0  0  0  0  0  0  0  0  0  0  0  0
    0.2196   -0.2010   -3.2866 H   0  0  0  0  0  0  0  0  0  0  0  0
    0.2438    0.1437   -1.5351 H   0  0  0  0  0  0  0  0  0  0  0  0
    0.4286   -1.5236   -2.1267 H   0  0  0  0  0  0  0  0  0  0  0  0
    4.5756    0.6474   -1.2280 H   0  0  0  0  0  0  0  0  0  0  0  0
    4.8289   -0.8939   -0.4271 H   0  0  0  0  0  0  0  0  0  0  0  0
    6.0949   -0.9005   -2.4965 H   0  0  0  0  0  0  0  0  0  0  0  0
    4.7142   -0.3299   -3.4392 H   0  0  0  0  0  0  0  0  0  0  0  0
    2.4451   -0.0495   -0.3376 H   0  0  0  0  0  0  0  0  0  0  0  0
    2.6301   -1.6971   -0.9457 H   0  0  0  0  0  0  0  0  0  0  0  0
    2.3698    0.5978   -2.7389 H   0  0  0  0  0  0  0  0  0  0  0  0
    2.8914   -1.7610   -3.2981 H   0  0  0  0  0  0  0  0  0  0  0  0
  1 11  1  0  0  0  0
  1 10  1  0  0  0  0
  2 12  1  0  0  0  0
  2  4  1  0  0  0  0
  2 13  1  0  0  0  0
  3 14  1  0  0  0  0
  3  2  1  0  0  0  0
  4 17  1  0  0  0  0
  4 16  1  0  0  0  0
  5  7  2  0  0  0  0
  5  3  1  0  0  0  0
  6  1  1  0  0  0  0
  6  4  1  0  0  0  0
  8 19  1  0  0  0  0
  8  5  1  0  0  0  0
  9  1  1  0  0  0  0
 15  3  1  0  0  0  0
 18  6  1  0  0  0  0
M  END
>  <HBA>
3

>  <HBD>
2

>  <TPSA>
49.33

>  <cid>
70703

>  <dipole>
6.45

>  <excitation_energy_1>
5.482

>  <excitation_energy_2>
5.988

>  <excitation_energy_3>
6.255

>  <excitation_energy_4>
6.629

>  <homo_energy>
-6.634

>  <homo_lumo_gap>
7.363

>  <logP>
0.462

>  <lumo_energy>
0.729

>  <melting_point>
78.44

>  <molecular_refractivity>
30.72

>  <oscillator_strength_1>
0.0016

>  <oscillator_strength_2>
0.002

>  <oscillator_strength_3>
0.0036

>  <oscillator_strength_4>
0.0109

>  <open_babel_can_smiles>
CNCCCC(=O)O

>  <mulliken_charges>
19
1   -0.303221
2   -0.288054
3   -0.365361
4   -0.140883
5   0.58097
6   -0.597763
7   -0.45875
8   -0.602372
9   0.163237
10   0.141843
11   0.173001
12   0.143796
13   0.16616
14   0.173354
15   0.149958
16   0.136087
17   0.170587
18   0.313383
19   0.444029

>  <lowdin_charges>
19
1   -0.360295
2   -0.27806
3   -0.318636
4   -0.214677
5   0.188196
6   -0.354642
7   -0.262338
8   -0.386622
9   0.158947
10   0.137453
11   0.159222
12   0.14523
13   0.162101
14   0.169568
15   0.155129
16   0.136019
17   0.15305
18   0.260103
19   0.350253

$$$$

