PCCDB-ID:  53462
public computational chemistry database (PCCDB) project, http://pccdb.org

 25 27  0  0  0  0  0  0  0  0999 V2000
    0.9502    0.0094   -0.1086 C   0  0  0  0  0  0  0  0  0  0  0  0
    7.8519    2.5030    0.0489 C   0  0  0  0  0  0  0  0  0  0  0  0
    6.9399    1.4769    0.0064 C   0  0  0  0  0  0  0  0  0  0  0  0
    3.8001    3.5359    0.0435 C   0  0  0  0  0  0  0  0  0  0  0  0
    2.7993    2.5829    0.0018 C   0  0  0  0  0  0  0  0  0  0  0  0
    7.3764    3.8398    0.0883 C   0  0  0  0  0  0  0  0  0  0  0  0
    5.5542    1.7821    0.0024 C   0  0  0  0  0  0  0  0  0  0  0  0
    5.1727    3.1722    0.0446 C   0  0  0  0  0  0  0  0  0  0  0  0
    3.1703    1.2270   -0.0402 C   0  0  0  0  0  0  0  0  0  0  0  0
    4.5089    0.8397   -0.0396 C   0  0  0  0  0  0  0  0  0  0  0  0
    3.2117   -1.0591   -0.1211 C   0  0  0  0  0  0  0  0  0  0  0  0
    2.7588   -2.2578   -0.1713 N   0  0  0  0  0  0  0  0  0  0  0  0
    6.1022    4.1717    0.0867 N   0  0  0  0  0  0  0  0  0  0  0  0
    4.5165   -0.5520   -0.0870 N   0  0  0  0  0  0  0  0  0  0  0  0
    2.3959    0.0762   -0.0891 N   0  0  0  0  0  0  0  0  0  0  0  0
    0.5469    0.5298   -0.9853 H   0  0  0  0  0  0  0  0  0  0  0  0
    0.5261    0.4563    0.7985 H   0  0  0  0  0  0  0  0  0  0  0  0
    0.6762   -1.0454   -0.1537 H   0  0  0  0  0  0  0  0  0  0  0  0
    8.9200    2.3071    0.0542 H   0  0  0  0  0  0  0  0  0  0  0  0
    7.2743    0.4422   -0.0242 H   0  0  0  0  0  0  0  0  0  0  0  0
    3.5664    4.5944    0.0773 H   0  0  0  0  0  0  0  0  0  0  0  0
    1.7527    2.8713    0.0012 H   0  0  0  0  0  0  0  0  0  0  0  0
    8.0903    4.6624    0.1219 H   0  0  0  0  0  0  0  0  0  0  0  0
    3.5119   -2.9441   -0.1866 H   0  0  0  0  0  0  0  0  0  0  0  0
    5.3309   -1.1436   -0.1066 H   0  0  0  0  0  0  0  0  0  0  0  0
  1 15  1  0  0  0  0
  1 17  1  0  0  0  0
  2 19  1  0  0  0  0
  2  6  1  0  0  0  0
  3  2  2  0  0  0  0
  4  8  2  0  0  0  0
  4 21  1  0  0  0  0
  5  4  1  0  0  0  0
  6 23  1  0  0  0  0
  7  3  1  0  0  0  0
  7  8  1  0  0  0  0
  8 13  1  0  0  0  0
  9 10  1  0  0  0  0
  9  5  2  0  0  0  0
 10  7  2  0  0  0  0
 11 15  1  0  0  0  0
 11 14  1  0  0  0  0
 12 11  2  0  0  0  0
 13  6  2  0  0  0  0
 14 10  1  0  0  0  0
 15  9  1  0  0  0  0
 16  1  1  0  0  0  0
 18  1  1  0  0  0  0
 20  3  1  0  0  0  0
 22  5  1  0  0  0  0
 24 12  1  0  0  0  0
 25 14  1  0  0  0  0
M  END
>  <HBA>
4

>  <HBD>
1

>  <TPSA>
56.73

>  <cid>
53462

>  <dipole>
1.86

>  <excitation_energy_1>
3.041

>  <excitation_energy_2>
3.988

>  <excitation_energy_3>
4.059

>  <excitation_energy_4>
4.303

>  <homo_energy>
-4.966

>  <homo_lumo_gap>
3.63

>  <logP>
2.285

>  <lumo_energy>
-1.336

>  <melting_point>
177.32

>  <molecular_refractivity>
60.7

>  <oscillator_strength_1>
0.0329

>  <oscillator_strength_2>
0.0564

>  <oscillator_strength_3>
0.0005

>  <oscillator_strength_4>
0.0019

>  <open_babel_can_smiles>
N=c1[nH]c2c(n1C)ccc1c2cccn1

>  <mulliken_charges>
25
1   -0.330811
2   -0.161587
3   -0.135742
4   -0.15761
5   -0.188333
6   0.042815
7   0.147112
8   0.228637
9   0.359803
10   0.224672
11   0.702944
12   -0.690617
13   -0.49975
14   -0.795916
15   -0.574546
16   0.163606
17   0.163652
18   0.216636
19   0.136283
20   0.125376
21   0.143449
22   0.14041
23   0.13854
24   0.273294
25   0.327682

>  <lowdin_charges>
25
1   -0.349222
2   -0.177138
3   -0.137908
4   -0.161077
5   -0.174655
6   -0.096317
7   -0.035577
8   0.036782
9   0.026359
10   0.024257
11   0.128772
12   -0.49248
13   -0.144027
14   -0.251882
15   -0.05914
16   0.156733
17   0.156459
18   0.191804
19   0.162464
20   0.152943
21   0.170114
22   0.165019
23   0.156674
24   0.2564
25   0.294642

$$$$

