PCCDB-ID:  70912
public computational chemistry database (PCCDB) project, http://pccdb.org

 27 26  0  0  1  0  0  0  0  0999 V2000
    1.2956   -1.3144    0.4156 C   0  0  0  0  0  0  0  0  0  0  0  0
    2.8591    0.6323    0.8772 C   0  0  0  0  0  0  0  0  0  0  0  0
    6.7680    0.1471   -1.9933 C   0  0  0  0  0  0  0  0  0  0  0  0
    3.3083   -0.8872   -1.1535 C   0  0  0  0  0  0  0  0  0  0  0  0
    2.2478   -0.2762   -0.2010 C   0  0  0  0  0  0  0  0  0  0  0  0
    6.3347   -1.2781   -2.2537 C   0  0  0  0  0  0  0  0  0  0  0  0
    4.6292   -1.4661   -0.5701 C   0  0  1  0  0  0  0  0  0  0  0  0
    4.4017   -2.6533    0.3885 C   0  0  0  0  0  0  0  0  0  0  0  0
    5.4395   -1.9640   -1.6741 N   0  0  0  0  0  0  0  0  0  0  0  0
    7.0052   -1.9020   -3.2635 O   0  0  0  0  0  0  0  0  0  0  0  0
    4.1031   -2.5147    1.5537 O   0  0  0  0  0  0  0  0  0  0  0  0
    4.5501   -3.8581   -0.1808 O   0  0  0  0  0  0  0  0  0  0  0  0
    1.8085   -1.9641    1.1287 H   0  0  0  0  0  0  0  0  0  0  0  0
    0.4808   -0.8090    0.9480 H   0  0  0  0  0  0  0  0  0  0  0  0
    0.8429   -1.9434   -0.3610 H   0  0  0  0  0  0  0  0  0  0  0  0
    3.5339    1.3818    0.4416 H   0  0  0  0  0  0  0  0  0  0  0  0
    3.4197    0.0442    1.6110 H   0  0  0  0  0  0  0  0  0  0  0  0
    2.0705    1.1736    1.4126 H   0  0  0  0  0  0  0  0  0  0  0  0
    6.2351    0.5980   -1.1560 H   0  0  0  0  0  0  0  0  0  0  0  0
    6.5871    0.7626   -2.8832 H   0  0  0  0  0  0  0  0  0  0  0  0
    7.8425    0.1818   -1.7745 H   0  0  0  0  0  0  0  0  0  0  0  0
    3.6308   -0.1041   -1.8536 H   0  0  0  0  0  0  0  0  0  0  0  0
    2.8446   -1.6690   -1.7688 H   0  0  0  0  0  0  0  0  0  0  0  0
    1.6338    0.3620   -0.8542 H   0  0  0  0  0  0  0  0  0  0  0  0
    5.1289   -0.6942    0.0266 H   0  0  0  0  0  0  0  0  0  0  0  0
    7.6622   -1.2963   -3.6399 H   0  0  0  0  0  0  0  0  0  0  0  0
    4.9078   -3.6804   -1.0848 H   0  0  0  0  0  0  0  0  0  0  0  0
  1 14  1  0  0  0  0
  1 13  1  0  0  0  0
  2 18  1  0  0  0  0
  2 17  1  0  0  0  0
  3 21  1  0  0  0  0
  3 19  1  0  0  0  0
  4  7  1  0  0  0  0
  4  5  1  0  0  0  0
  5  1  1  0  0  0  0
  5  2  1  0  0  0  0
  6  3  1  0  0  0  0
  6  9  2  0  0  0  0
  7 25  1  1  0  0  0
  7  8  1  0  0  0  0
  8 11  2  0  0  0  0
  9  7  1  0  0  0  0
 10  6  1  0  0  0  0
 12  8  1  0  0  0  0
 15  1  1  0  0  0  0
 16  2  1  0  0  0  0
 20  3  1  0  0  0  0
 22  4  1  0  0  0  0
 23  4  1  0  0  0  0
 24  5  1  0  0  0  0
 26 10  1  0  0  0  0
 27 12  1  0  0  0  0
M  END
>  <HBA>
4

>  <HBD>
2

>  <TPSA>
66.4

>  <cid>
70912

>  <dipole>
7.09

>  <excitation_energy_1>
5.507

>  <excitation_energy_2>
5.851

>  <excitation_energy_3>
5.894

>  <excitation_energy_4>
6.209

>  <homo_energy>
-6.814

>  <homo_lumo_gap>
6.653

>  <logP>
1.013

>  <lumo_energy>
-0.161

>  <melting_point>
97.84

>  <molecular_refractivity>
45.34

>  <oscillator_strength_1>
0.0052

>  <oscillator_strength_2>
0.0024

>  <oscillator_strength_3>
0.0138

>  <oscillator_strength_4>
0.0537

>  <open_babel_can_smiles>
CC(C[C@@H](C(=O)O)/N=C(/O)\C)C

>  <mulliken_charges>
27
1   -0.462989
2   -0.461934
3   -0.562161
4   -0.25585
5   -0.062005
6   0.507438
7   -0.099336
8   0.61649
9   -0.462885
10   -0.570214
11   -0.471183
12   -0.575704
13   0.187297
14   0.136239
15   0.133482
16   0.120686
17   0.177742
18   0.142061
19   0.194766
20   0.185189
21   0.182878
22   0.129115
23   0.149549
24   0.122729
25   0.154655
26   0.412832
27   0.431113

>  <lowdin_charges>
27
1   -0.459744
2   -0.458537
3   -0.481292
4   -0.277646
5   -0.120946
6   0.147031
7   -0.103114
8   0.181468
9   -0.219222
10   -0.358754
11   -0.261038
12   -0.347423
13   0.169553
14   0.148396
15   0.14556
16   0.137959
17   0.164053
18   0.151825
19   0.180549
20   0.175995
21   0.172819
22   0.143894
23   0.153889
24   0.140252
25   0.154048
26   0.361191
27   0.359234

$$$$

