PCCDB-ID:  21783
public computational chemistry database (PCCDB) project, http://pccdb.org

 32 32  0  0  0  0  0  0  0  0999 V2000
    1.4745    1.0937    1.6258 C   0  0  0  0  0  0  0  0  0  0  0  0
    5.1483    6.1112   -0.5776 C   0  0  0  0  0  0  0  0  0  0  0  0
    1.0009    4.8625    0.3323 C   0  0  0  0  0  0  0  0  0  0  0  0
    5.4994    1.2954   -2.5236 C   0  0  0  0  0  0  0  0  0  0  0  0
    6.6913    1.6839   -3.0136 C   0  0  0  0  0  0  0  0  0  0  0  0
    3.4998    1.3724   -1.0928 C   0  0  0  0  0  0  0  0  0  0  0  0
    4.8159    3.3941   -1.3035 C   0  0  0  0  0  0  0  0  0  0  0  0
    4.6044    2.0402   -1.6358 C   0  0  0  0  0  0  0  0  0  0  0  0
    2.6135    2.0307   -0.2367 C   0  0  0  0  0  0  0  0  0  0  0  0
    3.9371    4.0565   -0.4498 C   0  0  0  0  0  0  0  0  0  0  0  0
    7.5057    0.8440   -3.9252 C   0  0  0  0  0  0  0  0  0  0  0  0
    2.8205    3.3761    0.0915 C   0  0  0  0  0  0  0  0  0  0  0  0
    7.1055    0.0234   -4.8134 N   0  0  0  0  0  0  0  0  0  0  0  0
    8.8582    1.0027   -3.7938 O   0  0  0  0  0  0  0  0  0  0  0  0
    1.5121    1.3499    0.2169 O   0  0  0  0  0  0  0  0  0  0  0  0
    4.0484    5.3641   -0.0803 O   0  0  0  0  0  0  0  0  0  0  0  0
    1.9701    4.0129    0.9581 O   0  0  0  0  0  0  0  0  0  0  0  0
    1.4656    2.0247    2.1991 H   0  0  0  0  0  0  0  0  0  0  0  0
    2.3314    0.4783    1.9300 H   0  0  0  0  0  0  0  0  0  0  0  0
    0.5507    0.5388    1.8041 H   0  0  0  0  0  0  0  0  0  0  0  0
    5.1275    6.1808   -1.6731 H   0  0  0  0  0  0  0  0  0  0  0  0
    6.1049    5.6760   -0.2604 H   0  0  0  0  0  0  0  0  0  0  0  0
    5.0468    7.1100   -0.1498 H   0  0  0  0  0  0  0  0  0  0  0  0
    0.3955    5.2772    1.1412 H   0  0  0  0  0  0  0  0  0  0  0  0
    0.3609    4.2865   -0.3469 H   0  0  0  0  0  0  0  0  0  0  0  0
    1.4883    5.6769   -0.2141 H   0  0  0  0  0  0  0  0  0  0  0  0
    5.1479    0.2994   -2.7931 H   0  0  0  0  0  0  0  0  0  0  0  0
    7.1183    2.6472   -2.7343 H   0  0  0  0  0  0  0  0  0  0  0  0
    3.3053    0.3312   -1.3310 H   0  0  0  0  0  0  0  0  0  0  0  0
    5.6562    3.9256   -1.7322 H   0  0  0  0  0  0  0  0  0  0  0  0
    6.0867    0.0516   -4.8730 H   0  0  0  0  0  0  0  0  0  0  0  0
    9.0418    1.4881   -2.9752 H   0  0  0  0  0  0  0  0  0  0  0  0
  1 20  1  0  0  0  0
  1 19  1  0  0  0  0
  1 18  1  0  0  0  0
  2 22  1  0  0  0  0
  2 23  1  0  0  0  0
  2 16  1  0  0  0  0
  3 17  1  0  0  0  0
  3 24  1  0  0  0  0
  4  8  1  0  0  0  0
  5 28  1  0  0  0  0
  5  4  2  0  0  0  0
  6  9  2  0  0  0  0
  7 10  1  0  0  0  0
  8  7  2  0  0  0  0
  8  6  1  0  0  0  0
  9 12  1  0  0  0  0
  9 15  1  0  0  0  0
 10 16  1  0  0  0  0
 10 12  2  0  0  0  0
 11 14  1  0  0  0  0
 11  5  1  0  0  0  0
 12 17  1  0  0  0  0
 13 11  2  0  0  0  0
 14 32  1  0  0  0  0
 15  1  1  0  0  0  0
 21  2  1  0  0  0  0
 25  3  1  0  0  0  0
 26  3  1  0  0  0  0
 27  4  1  0  0  0  0
 29  6  1  0  0  0  0
 30  7  1  0  0  0  0
 31 13  1  0  0  0  0
M  END
>  <HBA>
5

>  <HBD>
1

>  <TPSA>
70.78

>  <cid>
21783

>  <dipole>
5.69

>  <excitation_energy_1>
3.969

>  <excitation_energy_2>
4.079

>  <excitation_energy_3>
4.503

>  <excitation_energy_4>
4.775

>  <homo_energy>
-5.965

>  <homo_lumo_gap>
4.321

>  <logP>
1.911

>  <lumo_energy>
-1.644

>  <melting_point>
120.14

>  <molecular_refractivity>
63.72

>  <oscillator_strength_1>
0.3772

>  <oscillator_strength_2>
0.1929

>  <oscillator_strength_3>
0.0021

>  <oscillator_strength_4>
0.0424

>  <open_babel_can_smiles>
COc1cc(/C=C/C(=N)O)cc(c1OC)OC

>  <mulliken_charges>
32
1   -0.218086
2   -0.216402
3   -0.210493
4   -0.162922
5   -0.222361
6   -0.263788
7   -0.273964
8   0.175466
9   0.335745
10   0.364645
11   0.474309
12   0.265032
13   -0.585846
14   -0.584571
15   -0.527275
16   -0.508722
17   -0.519463
18   0.1742
19   0.142403
20   0.160587
21   0.15579
22   0.154227
23   0.175469
24   0.161809
25   0.154412
26   0.158353
27   0.144642
28   0.133667
29   0.140675
30   0.133381
31   0.285134
32   0.403946

>  <lowdin_charges>
32
1   -0.276046
2   -0.273825
3   -0.27485
4   -0.122789
5   -0.222016
6   -0.187043
7   -0.220335
8   -0.002243
9   0.081368
10   0.0889
11   0.12701
12   0.048756
13   -0.391627
14   -0.36872
15   -0.225108
16   -0.190951
17   -0.217782
18   0.156296
19   0.141382
20   0.157482
21   0.144616
22   0.146636
23   0.165159
24   0.159384
25   0.148528
26   0.149688
27   0.162969
28   0.154971
29   0.167657
30   0.164018
31   0.255013
32   0.353505

$$$$

