PCCDB-ID:  25581
public computational chemistry database (PCCDB) project, http://pccdb.org

 18 17  0  0  0  0  0  0  0  0999 V2000
    0.8823   -0.5105    0.6566 C   0  0  0  0  0  0  0  0  0  0  0  0
    2.3751   -2.0594   -0.6931 C   0  0  0  0  0  0  0  0  0  0  0  0
    2.8177    0.3945   -0.7092 C   0  0  0  0  0  0  0  0  0  0  0  0
    2.3028   -0.7672    0.1352 C   0  0  0  0  0  0  0  0  0  0  0  0
    3.2859    2.7277   -0.3797 C   0  0  0  0  0  0  0  0  0  0  0  0
    2.8883    1.5691    0.1437 O   0  0  0  0  0  0  0  0  0  0  0  0
    3.7305    3.0293   -1.9366 S   0  0  0  0  0  0  0  0  0  0  0  0
    3.2988    4.0153    0.8432 S   0  0  0  0  0  0  0  0  0  0  0  0
    0.5491   -1.3357    1.2957 H   0  0  0  0  0  0  0  0  0  0  0  0
    0.1710   -0.4235   -0.1749 H   0  0  0  0  0  0  0  0  0  0  0  0
    0.8319    0.4130    1.2416 H   0  0  0  0  0  0  0  0  0  0  0  0
    2.0215   -2.9125   -0.1043 H   0  0  0  0  0  0  0  0  0  0  0  0
    3.3996   -2.2769   -1.0168 H   0  0  0  0  0  0  0  0  0  0  0  0
    1.7458   -1.9915   -1.5895 H   0  0  0  0  0  0  0  0  0  0  0  0
    2.1539    0.6187   -1.5512 H   0  0  0  0  0  0  0  0  0  0  0  0
    3.8195    0.2049   -1.1074 H   0  0  0  0  0  0  0  0  0  0  0  0
    2.9783   -0.8706    0.9959 H   0  0  0  0  0  0  0  0  0  0  0  0
    2.8691    3.2612    1.8813 H   0  0  0  0  0  0  0  0  0  0  0  0
  1 11  1  0  0  0  0
  1  9  1  0  0  0  0
  2 12  1  0  0  0  0
  2  4  1  0  0  0  0
  3  4  1  0  0  0  0
  3  6  1  0  0  0  0
  4  1  1  0  0  0  0
  4 17  1  0  0  0  0
  5  6  1  0  0  0  0
  5  8  1  0  0  0  0
  7  5  2  0  0  0  0
  8 18  1  0  0  0  0
 10  1  1  0  0  0  0
 13  2  1  0  0  0  0
 14  2  1  0  0  0  0
 15  3  1  0  0  0  0
 16  3  1  0  0  0  0
M  END
>  <HBA>
3

>  <HBD>
1

>  <TPSA>
80.12

>  <cid>
25581

>  <dipole>
3.95

>  <excitation_energy_1>
3.537

>  <excitation_energy_2>
4.918

>  <excitation_energy_3>
5.365

>  <excitation_energy_4>
5.519

>  <homo_energy>
-6.324

>  <homo_lumo_gap>
4.972

>  <logP>
1.874

>  <lumo_energy>
-1.352

>  <melting_point>
15.77

>  <molecular_refractivity>
42.95

>  <oscillator_strength_1>
0.0002

>  <oscillator_strength_2>
0.1347

>  <oscillator_strength_3>
0.0096

>  <oscillator_strength_4>
0.0

>  <open_babel_can_smiles>
CC(COC(=S)S)C

>  <mulliken_charges>
18
1   -0.445785
2   -0.452827
3   -0.039328
4   -0.101391
5   0.06374
6   -0.408991
7   -0.170574
8   0.049331
9   0.148676
10   0.144794
11   0.157059
12   0.154832
13   0.150402
14   0.149491
15   0.174076
16   0.174931
17   0.143013
18   0.108551

>  <lowdin_charges>
18
1   -0.448287
2   -0.443694
3   -0.124693
4   -0.129963
5   -0.115339
6   -0.168365
7   -0.138261
8   0.050236
9   0.154262
10   0.149792
11   0.155716
12   0.157846
13   0.15217
14   0.15135
15   0.161876
16   0.162152
17   0.147399
18   0.125802

$$$$

