PCCDB-ID:  70954
public computational chemistry database (PCCDB) project, http://pccdb.org

 28 28  0  0  1  0  0  0  0  0999 V2000
    1.0065   -0.6085   -0.4331 C   0  0  0  0  0  0  0  0  0  0  0  0
    2.2802    1.4236    0.3163 C   0  0  0  0  0  0  0  0  0  0  0  0
    1.2132   -4.8172    1.3623 C   0  0  0  0  0  0  0  0  0  0  0  0
    1.7150   -2.5344    2.2326 C   0  0  0  0  0  0  0  0  0  0  0  0
    2.9689   -3.3248    0.2343 C   0  0  0  0  0  0  0  0  0  0  0  0
    2.4059   -1.1929    2.2686 C   0  0  0  0  0  0  0  0  0  0  0  0
    3.9030   -2.1267    0.4653 C   0  0  0  0  0  0  0  0  0  0  0  0
    2.4007   -0.0580   -0.0854 C   0  0  0  0  0  0  0  0  0  0  0  0
    1.9504   -3.5029    1.3378 C   0  0  0  0  0  0  0  0  0  0  0  0
    3.2053   -0.8525    0.9886 C   0  0  1  0  0  0  0  0  0  0  0  0
    1.0412   -1.6244   -0.8349 H   0  0  0  0  0  0  0  0  0  0  0  0
    0.3485   -0.6218    0.4430 H   0  0  0  0  0  0  0  0  0  0  0  0
    0.5324    0.0290   -1.1895 H   0  0  0  0  0  0  0  0  0  0  0  0
    1.7899    2.0049   -0.4736 H   0  0  0  0  0  0  0  0  0  0  0  0
    3.2639    1.8716    0.5008 H   0  0  0  0  0  0  0  0  0  0  0  0
    1.6823    1.5454    1.2285 H   0  0  0  0  0  0  0  0  0  0  0  0
    0.4738   -4.8541    2.1691 H   0  0  0  0  0  0  0  0  0  0  0  0
    1.9056   -5.6604    1.4959 H   0  0  0  0  0  0  0  0  0  0  0  0
    0.6873   -4.9956    0.4133 H   0  0  0  0  0  0  0  0  0  0  0  0
    0.9777   -2.7128    3.0165 H   0  0  0  0  0  0  0  0  0  0  0  0
    3.5713   -4.2411    0.1442 H   0  0  0  0  0  0  0  0  0  0  0  0
    2.4482   -3.2352   -0.7313 H   0  0  0  0  0  0  0  0  0  0  0  0
    3.0855   -1.1714    3.1354 H   0  0  0  0  0  0  0  0  0  0  0  0
    1.6649   -0.4084    2.4760 H   0  0  0  0  0  0  0  0  0  0  0  0
    4.4573   -1.8986   -0.4546 H   0  0  0  0  0  0  0  0  0  0  0  0
    4.6535   -2.4215    1.2117 H   0  0  0  0  0  0  0  0  0  0  0  0
    3.0058   -0.0914   -1.0050 H   0  0  0  0  0  0  0  0  0  0  0  0
    4.0167   -0.1739    1.2876 H   0  0  0  0  0  0  0  0  0  0  0  0
  1  8  1  0  0  0  0
  1 12  1  0  0  0  0
  2 15  1  0  0  0  0
  2 16  1  0  0  0  0
  3 18  1  0  0  0  0
  3 17  1  0  0  0  0
  4  6  1  0  0  0  0
  4 20  1  0  0  0  0
  5  7  1  0  0  0  0
  5  9  1  0  0  0  0
  6 24  1  0  0  0  0
  6 23  1  0  0  0  0
  7 10  1  0  0  0  0
  7 26  1  0  0  0  0
  8  2  1  0  0  0  0
  8 10  1  0  0  0  0
  9  3  1  0  0  0  0
  9  4  2  0  0  0  0
 10 28  1  1  0  0  0
 10  6  1  0  0  0  0
 11  1  1  0  0  0  0
 13  1  1  0  0  0  0
 14  2  1  0  0  0  0
 19  3  1  0  0  0  0
 21  5  1  0  0  0  0
 22  5  1  0  0  0  0
 25  7  1  0  0  0  0
 27  8  1  0  0  0  0
M  END
>  <HBA>
0

>  <HBD>
0

>  <TPSA>
0.0

>  <cid>
70954

>  <dipole>
0.23

>  <excitation_energy_1>
5.524

>  <excitation_energy_2>
5.992

>  <excitation_energy_3>
6.099

>  <excitation_energy_4>
6.136

>  <homo_energy>
-6.093

>  <homo_lumo_gap>
7.091

>  <logP>
3.389

>  <lumo_energy>
0.999

>  <melting_point>
6.57

>  <molecular_refractivity>
47.6

>  <oscillator_strength_1>
0.003

>  <oscillator_strength_2>
0.0003

>  <oscillator_strength_3>
0.0102

>  <oscillator_strength_4>
0.0292

>  <open_babel_can_smiles>
CC1=CC[C@@H](CC1)C(C)C

>  <mulliken_charges>
28
1   -0.445928
2   -0.449584
3   -0.513541
4   -0.169755
5   -0.328899
6   -0.310544
7   -0.275862
8   -0.070441
9   0.191232
10   -0.074918
11   0.146797
12   0.145519
13   0.134108
14   0.139026
15   0.138215
16   0.141114
17   0.149838
18   0.148331
19   0.148312
20   0.107703
21   0.13475
22   0.143668
23   0.141027
24   0.139143
25   0.12618
26   0.133408
27   0.116053
28   0.115048

>  <lowdin_charges>
28
1   -0.448414
2   -0.447805
3   -0.440145
4   -0.194705
5   -0.279445
6   -0.280624
7   -0.276622
8   -0.121798
9   -0.01896
10   -0.12912
11   0.149509
12   0.149911
13   0.146519
14   0.148432
15   0.145169
16   0.14488
17   0.154499
18   0.152488
19   0.152134
20   0.145759
21   0.146486
22   0.144497
23   0.149586
24   0.147597
25   0.141383
26   0.143885
27   0.134704
28   0.140201

$$$$

