PCCDB-ID:  47819
public computational chemistry database (PCCDB) project, http://pccdb.org

 23 23  0  0  0  0  0  0  0  0999 V2000
   -1.1251    0.9707    0.0170 C   0  0  0  0  0  0  0  0  0  0  0  0
   -1.6163   -0.2837    0.0195 C   0  0  0  0  0  0  0  0  0  0  0  0
    0.1724    3.6185   -0.2841 C   0  0  0  0  0  0  0  0  0  0  0  0
    1.1915    4.7219    0.0236 C   0  0  0  0  0  0  0  0  0  0  0  0
    0.3110    1.2275   -0.1537 C   0  0  0  0  0  0  0  0  0  0  0  0
   -0.7392   -1.4375   -0.1434 C   0  0  0  0  0  0  0  0  0  0  0  0
   -2.3633   -3.0162    0.2821 N   0  0  0  0  0  0  0  0  0  0  0  0
    0.8954    2.3564   -0.3318 N   0  0  0  0  0  0  0  0  0  0  0  0
   -1.0270   -2.6839    0.0170 N   0  0  0  0  0  0  0  0  0  0  0  0
    1.1213    0.0897   -0.0379 N   0  0  0  0  0  0  0  0  0  0  0  0
    0.5724   -1.1422   -0.5750 N   0  0  0  0  0  0  0  0  0  0  0  0
    2.2655    4.6816   -0.8949 O   0  0  0  0  0  0  0  0  0  0  0  0
   -1.7829    1.8222    0.1481 H   0  0  0  0  0  0  0  0  0  0  0  0
   -2.6695   -0.4618    0.2069 H   0  0  0  0  0  0  0  0  0  0  0  0
   -0.2758    3.8229   -1.2680 H   0  0  0  0  0  0  0  0  0  0  0  0
   -0.6349    3.6420    0.4648 H   0  0  0  0  0  0  0  0  0  0  0  0
    1.5452    4.6038    1.0620 H   0  0  0  0  0  0  0  0  0  0  0  0
    0.7226    5.7083   -0.0623 H   0  0  0  0  0  0  0  0  0  0  0  0
   -2.4312   -4.0244    0.1809 H   0  0  0  0  0  0  0  0  0  0  0  0
   -3.0072   -2.5995   -0.3930 H   0  0  0  0  0  0  0  0  0  0  0  0
    2.0155    0.2642   -0.4898 H   0  0  0  0  0  0  0  0  0  0  0  0
    1.1868   -1.9042   -0.2930 H   0  0  0  0  0  0  0  0  0  0  0  0
    2.5045    3.7375   -0.9393 H   0  0  0  0  0  0  0  0  0  0  0  0
  1  2  2  0  0  0  0
  1 13  1  0  0  0  0
  2 14  1  0  0  0  0
  3  4  1  0  0  0  0
  3 16  1  0  0  0  0
  4 17  1  0  0  0  0
  5 10  1  0  0  0  0
  5  1  1  0  0  0  0
  6  9  2  0  0  0  0
  6  2  1  0  0  0  0
  8  3  1  0  0  0  0
  8  5  2  0  0  0  0
  9  7  1  0  0  0  0
 11 22  1  0  0  0  0
 11  6  1  0  0  0  0
 11 10  1  0  0  0  0
 12  4  1  0  0  0  0
 15  3  1  0  0  0  0
 18  4  1  0  0  0  0
 19  7  1  0  0  0  0
 20  7  1  0  0  0  0
 21 10  1  0  0  0  0
 23 12  1  0  0  0  0
M  END
>  <HBA>
6

>  <HBD>
4

>  <TPSA>
96.09

>  <cid>
47819

>  <dipole>
3.94

>  <excitation_energy_1>
2.716

>  <excitation_energy_2>
3.689

>  <excitation_energy_3>
3.999

>  <excitation_energy_4>
4.441

>  <homo_energy>
-5.323

>  <homo_lumo_gap>
3.366

>  <logP>
0.013

>  <lumo_energy>
-1.957

>  <melting_point>
177.3

>  <molecular_refractivity>
44.51

>  <oscillator_strength_1>
0.0229

>  <oscillator_strength_2>
0.1745

>  <oscillator_strength_3>
0.0016

>  <oscillator_strength_4>
0.0029

>  <open_babel_can_smiles>
N/N=c/1\cc/c(=N\CCO)/[nH][nH]1

>  <mulliken_charges>
23
1   -0.146239
2   -0.134924
3   -0.158232
4   -0.012981
5   0.493293
6   0.477302
7   -0.568185
8   -0.51995
9   -0.386641
10   -0.485765
11   -0.492557
12   -0.628646
13   0.158236
14   0.160544
15   0.152063
16   0.125585
17   0.118777
18   0.13434
19   0.331597
20   0.305195
21   0.337375
22   0.340832
23   0.398982

>  <lowdin_charges>
23
1   -0.163337
2   -0.147039
3   -0.221612
4   -0.134134
5   0.088252
6   0.045565
7   -0.446101
8   -0.240385
9   -0.162047
10   -0.231151
11   -0.240783
12   -0.472226
13   0.175621
14   0.17408
15   0.148144
16   0.133706
17   0.123199
18   0.142409
19   0.270413
20   0.253606
21   0.282695
22   0.284292
23   0.336832

$$$$

