PCCDB-ID:  38208
public computational chemistry database (PCCDB) project, http://pccdb.org

 35 36  0  0  1  0  0  0  0  0999 V2000
    3.7557   -0.6838    4.3226 C   0  0  0  0  0  0  0  0  0  0  0  0
    2.8286   -2.2122    2.5118 C   0  0  0  0  0  0  0  0  0  0  0  0
    3.9945    2.2650   -0.0901 C   0  0  0  0  0  0  0  0  0  0  0  0
    6.4361    2.3762   -0.9119 C   0  0  0  0  0  0  0  0  0  0  0  0
    6.9133    1.2604   -1.8655 C   0  0  0  0  0  0  0  0  0  0  0  0
    6.1811   -2.6267   -1.9090 C   0  0  0  0  0  0  0  0  0  0  0  0
    6.9162   -3.3712   -2.7693 C   0  0  0  0  0  0  0  0  0  0  0  0
    4.5851   -0.4536    2.0007 C   0  0  0  0  0  0  0  0  0  0  0  0
    7.6869   -1.3368   -2.9440 C   0  0  0  0  0  0  0  0  0  0  0  0
    3.7650   -1.0871    2.8702 C   0  0  0  0  0  0  0  0  0  0  0  0
    5.4251    1.7152    0.0642 C   0  0  2  0  0  0  0  0  0  0  0  0
    6.6807   -1.2700   -2.0056 C   0  0  0  0  0  0  0  0  0  0  0  0
    6.3020   -0.0290   -1.3347 C   0  0  0  0  0  0  0  0  0  0  0  0
    4.7371   -0.7624    0.5587 C   0  0  0  0  0  0  0  0  0  0  0  0
    5.5079    0.2223   -0.2559 C   0  0  0  0  0  0  0  0  0  0  0  0
    4.2490   -1.7837    0.0649 O   0  0  0  0  0  0  0  0  0  0  0  0
    7.8461   -2.5961   -3.4129 O   0  0  0  0  0  0  0  0  0  0  0  0
    2.7608   -0.3223    4.6169 H   0  0  0  0  0  0  0  0  0  0  0  0
    4.4877    0.0984    4.5442 H   0  0  0  0  0  0  0  0  0  0  0  0
    3.9703   -1.5504    4.9632 H   0  0  0  0  0  0  0  0  0  0  0  0
    3.3531   -3.1748    2.5857 H   0  0  0  0  0  0  0  0  0  0  0  0
    2.4693   -2.1384    1.4854 H   0  0  0  0  0  0  0  0  0  0  0  0
    1.9828   -2.2462    3.2084 H   0  0  0  0  0  0  0  0  0  0  0  0
    3.9675    3.3393    0.1289 H   0  0  0  0  0  0  0  0  0  0  0  0
    3.2966    1.7651    0.5908 H   0  0  0  0  0  0  0  0  0  0  0  0
    3.6305    2.1163   -1.1138 H   0  0  0  0  0  0  0  0  0  0  0  0
    5.9721    3.2032   -1.4594 H   0  0  0  0  0  0  0  0  0  0  0  0
    7.2816    2.8004   -0.3608 H   0  0  0  0  0  0  0  0  0  0  0  0
    8.0086    1.1928   -1.8915 H   0  0  0  0  0  0  0  0  0  0  0  0
    6.5966    1.4264   -2.9044 H   0  0  0  0  0  0  0  0  0  0  0  0
    5.3651   -2.9536   -1.2871 H   0  0  0  0  0  0  0  0  0  0  0  0
    6.9104   -4.4142   -3.0464 H   0  0  0  0  0  0  0  0  0  0  0  0
    5.2020    0.3518    2.3905 H   0  0  0  0  0  0  0  0  0  0  0  0
    8.3579   -0.6011   -3.3592 H   0  0  0  0  0  0  0  0  0  0  0  0
    5.7390    1.9068    1.0992 H   0  0  0  0  0  0  0  0  0  0  0  0
  1 19  1  0  0  0  0
  1 18  1  0  0  0  0
  1 20  1  0  0  0  0
  2 21  1  0  0  0  0
  2 10  1  0  0  0  0
  2 23  1  0  0  0  0
  3 11  1  0  0  0  0
  3 24  1  0  0  0  0
  3 25  1  0  0  0  0
  4 28  1  0  0  0  0
  4 11  1  0  0  0  0
  5 13  1  0  0  0  0
  5  4  1  0  0  0  0
  6 31  1  0  0  0  0
  7  6  2  0  0  0  0
  8 33  1  0  0  0  0
  8 10  2  0  0  0  0
  9 12  2  0  0  0  0
 10  1  1  0  0  0  0
 11 35  1  1  0  0  0
 12  6  1  0  0  0  0
 12 13  1  0  0  0  0
 13 15  2  0  0  0  0
 14  8  1  0  0  0  0
 15 11  1  0  0  0  0
 15 14  1  0  0  0  0
 16 14  2  0  0  0  0
 17  9  1  0  0  0  0
 17  7  1  0  0  0  0
 22  2  1  0  0  0  0
 26  3  1  0  0  0  0
 27  4  1  0  0  0  0
 29  5  1  0  0  0  0
 30  5  1  0  0  0  0
 32  7  1  0  0  0  0
 34  9  1  0  0  0  0
M  END
>  <HBA>
2

>  <HBD>
0

>  <TPSA>
30.21

>  <cid>
38208

>  <dipole>
2.57

>  <excitation_energy_1>
3.278

>  <excitation_energy_2>
3.633

>  <excitation_energy_3>
4.169

>  <excitation_energy_4>
4.776

>  <homo_energy>
-5.712

>  <homo_lumo_gap>
4.095

>  <logP>
3.998

>  <lumo_energy>
-1.616

>  <melting_point>
73.2

>  <molecular_refractivity>
69.67

>  <oscillator_strength_1>
0.008

>  <oscillator_strength_2>
0.2281

>  <oscillator_strength_3>
0.0928

>  <oscillator_strength_4>
0.2019

>  <open_babel_can_smiles>
CC(=CC(=O)C1=C(CC[C@H]1C)c1cocc1)C

>  <mulliken_charges>
35
1   -0.515699
2   -0.502611
3   -0.446826
4   -0.292564
5   -0.350809
6   -0.201503
7   0.060752
8   -0.235107
9   0.03754
10   0.198326
11   -0.147088
12   0.049532
13   0.07008
14   0.383623
15   0.013215
16   -0.506509
17   -0.401697
18   0.16362
19   0.157678
20   0.164923
21   0.172593
22   0.195096
23   0.138688
24   0.141516
25   0.149742
26   0.148641
27   0.143727
28   0.14307
29   0.149471
30   0.157056
31   0.194071
32   0.156614
33   0.123307
34   0.154556
35   0.132979

>  <lowdin_charges>
35
1   -0.441678
2   -0.447948
3   -0.446149
4   -0.280655
5   -0.274198
6   -0.201617
7   -0.086636
8   -0.240833
9   -0.085122
10   0.061504
11   -0.122174
12   -0.050543
13   0.025599
14   0.153667
15   -0.069746
16   -0.272869
17   -0.089888
18   0.162112
19   0.157699
20   0.163535
21   0.172414
22   0.180637
23   0.149384
24   0.146455
25   0.153688
26   0.149664
27   0.149983
28   0.149409
29   0.148178
30   0.152853
31   0.196072
32   0.169296
33   0.156031
34   0.172602
35   0.139276

$$$$

