PCCDB-ID:  42143
public computational chemistry database (PCCDB) project, http://pccdb.org

 36 37  0  0  1  0  0  0  0  0999 V2000
    1.6924   -0.1341   -0.7560 C   0  0  0  0  0  0  0  0  0  0  0  0
    4.6550    4.8220    1.8289 C   0  0  0  0  0  0  0  0  0  0  0  0
    9.0059    0.8064    0.6462 C   0  0  0  0  0  0  0  0  0  0  0  0
    8.1122    0.6598   -0.4166 C   0  0  0  0  0  0  0  0  0  0  0  0
    8.5350    0.7127    1.9561 C   0  0  0  0  0  0  0  0  0  0  0  0
    6.7609    0.4181   -0.1688 C   0  0  0  0  0  0  0  0  0  0  0  0
    7.1815    0.4721    2.1992 C   0  0  0  0  0  0  0  0  0  0  0  0
    4.2660   -1.2146    0.7469 C   0  0  0  0  0  0  0  0  0  0  0  0
    2.7686   -1.4161    1.0400 C   0  0  0  0  0  0  0  0  0  0  0  0
    2.4081    0.9441    1.3231 C   0  0  0  0  0  0  0  0  0  0  0  0
    6.2734    0.3170    1.1433 C   0  0  0  0  0  0  0  0  0  0  0  0
    4.8005    0.0635    1.4294 C   0  0  1  0  0  0  0  0  0  0  0  0
    3.9090    1.2779    1.0505 C   0  0  2  0  0  0  0  0  0  0  0  0
    4.2799    2.4960    1.8709 C   0  0  0  0  0  0  0  0  0  0  0  0
    1.9342   -0.2697    0.6743 N   0  0  0  0  0  0  0  0  0  0  0  0
    4.4467    2.4942    3.0742 O   0  0  0  0  0  0  0  0  0  0  0  0
    4.3506    3.6133    1.1130 O   0  0  0  0  0  0  0  0  0  0  0  0
    2.5888    0.0621   -1.3727 H   0  0  0  0  0  0  0  0  0  0  0  0
    0.9883    0.6885   -0.9245 H   0  0  0  0  0  0  0  0  0  0  0  0
    1.2286   -1.0541   -1.1294 H   0  0  0  0  0  0  0  0  0  0  0  0
    4.6707    5.6115    1.0768 H   0  0  0  0  0  0  0  0  0  0  0  0
    5.6278    4.7400    2.3206 H   0  0  0  0  0  0  0  0  0  0  0  0
    3.8913    5.0251    2.5844 H   0  0  0  0  0  0  0  0  0  0  0  0
   10.0590    0.9936    0.4537 H   0  0  0  0  0  0  0  0  0  0  0  0
    8.4673    0.7335   -1.4414 H   0  0  0  0  0  0  0  0  0  0  0  0
    9.2201    0.8279    2.7921 H   0  0  0  0  0  0  0  0  0  0  0  0
    6.0804    0.3073   -1.0097 H   0  0  0  0  0  0  0  0  0  0  0  0
    6.8191    0.4127    3.2223 H   0  0  0  0  0  0  0  0  0  0  0  0
    4.4279   -1.1595   -0.3371 H   0  0  0  0  0  0  0  0  0  0  0  0
    4.8360   -2.0822    1.1022 H   0  0  0  0  0  0  0  0  0  0  0  0
    2.6350   -1.5927    2.1172 H   0  0  0  0  0  0  0  0  0  0  0  0
    2.3894   -2.3036    0.5199 H   0  0  0  0  0  0  0  0  0  0  0  0
    1.7791    1.7842    1.0065 H   0  0  0  0  0  0  0  0  0  0  0  0
    2.2832    0.8287    2.4081 H   0  0  0  0  0  0  0  0  0  0  0  0
    4.6918   -0.0667    2.5142 H   0  0  0  0  0  0  0  0  0  0  0  0
    4.0394    1.5207   -0.0093 H   0  0  0  0  0  0  0  0  0  0  0  0
  1 15  1  0  0  0  0
  2 22  1  0  0  0  0
  2 23  1  0  0  0  0
  3  5  2  0  0  0  0
  4  6  2  0  0  0  0
  4  3  1  0  0  0  0
  5  7  1  0  0  0  0
  5 26  1  0  0  0  0
  6 11  1  0  0  0  0
  7 28  1  0  0  0  0
  8  9  1  0  0  0  0
  8 30  1  0  0  0  0
  8 12  1  0  0  0  0
  9 31  1  0  0  0  0
 10 34  1  0  0  0  0
 11 12  1  0  0  0  0
 11  7  2  0  0  0  0
 12 35  1  1  0  0  0
 13 36  1  6  0  0  0
 13 10  1  0  0  0  0
 13 12  1  0  0  0  0
 13 14  1  0  0  0  0
 14 16  2  0  0  0  0
 15  9  1  0  0  0  0
 15 10  1  0  0  0  0
 17  2  1  0  0  0  0
 17 14  1  0  0  0  0
 18  1  1  0  0  0  0
 19  1  1  0  0  0  0
 20  1  1  0  0  0  0
 21  2  1  0  0  0  0
 24  3  1  0  0  0  0
 25  4  1  0  0  0  0
 27  6  1  0  0  0  0
 29  8  1  0  0  0  0
 32  9  1  0  0  0  0
 33 10  1  0  0  0  0
M  END
>  <HBA>
3

>  <HBD>
0

>  <TPSA>
29.54

>  <cid>
42143

>  <dipole>
1.77

>  <excitation_energy_1>
4.862

>  <excitation_energy_2>
4.98

>  <excitation_energy_3>
5.016

>  <excitation_energy_4>
5.142

>  <homo_energy>
-5.587

>  <homo_lumo_gap>
5.625

>  <logP>
1.833

>  <lumo_energy>
0.038

>  <melting_point>
40.16

>  <molecular_refractivity>
71.04

>  <oscillator_strength_1>
0.009

>  <oscillator_strength_2>
0.0051

>  <oscillator_strength_3>
0.0092

>  <oscillator_strength_4>
0.0478

>  <open_babel_can_smiles>
COC(=O)[C@@H]1CN(C)CC[C@H]1c1ccccc1

>  <mulliken_charges>
36
1   -0.304956
2   -0.219467
3   -0.130131
4   -0.131438
5   -0.129173
6   -0.18236
7   -0.186724
8   -0.277413
9   -0.147611
10   -0.153969
11   0.167141
12   -0.181058
13   -0.183479
14   0.631653
15   -0.359308
16   -0.495913
17   -0.452938
18   0.123234
19   0.151382
20   0.150975
21   0.162888
22   0.173573
23   0.168187
24   0.126842
25   0.126829
26   0.128754
27   0.122796
28   0.13984
29   0.137987
30   0.142696
31   0.141036
32   0.138404
33   0.146195
34   0.158988
35   0.146373
36   0.150167

>  <lowdin_charges>
36
1   -0.36001
2   -0.280385
3   -0.158594
4   -0.155283
5   -0.157294
6   -0.169091
7   -0.161938
8   -0.291304
9   -0.203392
10   -0.201549
11   -0.00494
12   -0.121607
13   -0.165654
14   0.195592
15   -0.177612
16   -0.273567
17   -0.188733
18   0.121076
19   0.152112
20   0.151688
21   0.160453
22   0.160826
23   0.1591
24   0.154927
25   0.155174
26   0.158184
27   0.153351
28   0.16099
29   0.140026
30   0.153286
31   0.141057
32   0.147267
33   0.150773
34   0.1499
35   0.150971
36   0.154198

$$$$

