PCCDB-ID:  56430
public computational chemistry database (PCCDB) project, http://pccdb.org

 20 19  0  0  0  0  0  0  0  0999 V2000
    1.0844   -0.0130   -0.2373 C   0  0  0  0  0  0  0  0  0  0  0  0
    2.8705    1.5736   -0.4706 C   0  0  0  0  0  0  0  0  0  0  0  0
    4.9724   -1.4539    0.3820 C   0  0  0  0  0  0  0  0  0  0  0  0
    4.4977   -0.3450    1.3434 C   0  0  0  0  0  0  0  0  0  0  0  0
    6.4259   -1.6327    0.3980 C   0  0  0  0  0  0  0  0  0  0  0  0
    2.9806   -0.1331    1.2574 C   0  0  0  0  0  0  0  0  0  0  0  0
    7.5798   -1.7603    0.4214 N   0  0  0  0  0  0  0  0  0  0  0  0
    2.5177    0.2107   -0.0878 N   0  0  0  0  0  0  0  0  0  0  0  0
    0.7886    0.1862   -1.2729 H   0  0  0  0  0  0  0  0  0  0  0  0
    0.4698    0.6316    0.4213 H   0  0  0  0  0  0  0  0  0  0  0  0
    0.8451   -1.0574   -0.0105 H   0  0  0  0  0  0  0  0  0  0  0  0
    2.5475    1.7582   -1.5004 H   0  0  0  0  0  0  0  0  0  0  0  0
    3.9543    1.7172   -0.4331 H   0  0  0  0  0  0  0  0  0  0  0  0
    2.4007    2.3379    0.1794 H   0  0  0  0  0  0  0  0  0  0  0  0
    4.6454   -1.2151   -0.6360 H   0  0  0  0  0  0  0  0  0  0  0  0
    4.5009   -2.4096    0.6458 H   0  0  0  0  0  0  0  0  0  0  0  0
    5.0355    0.5829    1.1200 H   0  0  0  0  0  0  0  0  0  0  0  0
    4.7585   -0.6107    2.3743 H   0  0  0  0  0  0  0  0  0  0  0  0
    2.6805    0.6293    2.0038 H   0  0  0  0  0  0  0  0  0  0  0  0
    2.4820   -1.0665    1.5481 H   0  0  0  0  0  0  0  0  0  0  0  0
  1  8  1  0  0  0  0
  1 11  1  0  0  0  0
  1 10  1  0  0  0  0
  2 13  1  0  0  0  0
  2  8  1  0  0  0  0
  2 14  1  0  0  0  0
  3  5  1  0  0  0  0
  3 16  1  0  0  0  0
  3  4  1  0  0  0  0
  4 18  1  0  0  0  0
  5  7  3  0  0  0  0
  6  4  1  0  0  0  0
  6 20  1  0  0  0  0
  6 19  1  0  0  0  0
  8  6  1  0  0  0  0
  9  1  1  0  0  0  0
 12  2  1  0  0  0  0
 15  3  1  0  0  0  0
 17  4  1  0  0  0  0
M  END
>  <HBA>
2

>  <HBD>
0

>  <TPSA>
27.03

>  <cid>
56430

>  <dipole>
4.77

>  <excitation_energy_1>
5.388

>  <excitation_energy_2>
5.889

>  <excitation_energy_3>
5.967

>  <excitation_energy_4>
5.997

>  <homo_energy>
-6.144

>  <homo_lumo_gap>
7.268

>  <logP>
0.852

>  <lumo_energy>
1.124

>  <melting_point>
9.97

>  <molecular_refractivity>
33.6

>  <oscillator_strength_1>
0.0172

>  <oscillator_strength_2>
0.0512

>  <oscillator_strength_3>
0.0136

>  <oscillator_strength_4>
0.0582

>  <open_babel_can_smiles>
N#CCCCN(C)C

>  <mulliken_charges>
20
1   -0.296472
2   -0.305648
3   -0.334875
4   -0.278722
5   0.345215
6   -0.11993
7   -0.477836
8   -0.369711
9   0.152771
10   0.122661
11   0.150728
12   0.154977
13   0.155279
14   0.123336
15   0.212033
16   0.18476
17   0.161833
18   0.15857
19   0.12273
20   0.138303

>  <lowdin_charges>
20
1   -0.355047
2   -0.357945
3   -0.274196
4   -0.272579
5   -0.019788
6   -0.201349
7   -0.136044
8   -0.186274
9   0.151129
10   0.124783
11   0.149308
12   0.152886
13   0.149835
14   0.125022
15   0.188481
16   0.17707
17   0.154896
18   0.157352
19   0.12691
20   0.145549

$$$$

