PCCDB-ID:  7943
public computational chemistry database (PCCDB) project, http://pccdb.org

 17 16  0  0  0  0  0  0  0  0999 V2000
    4.5177   -0.2896   -0.7548 C   0  0  0  0  0  0  0  0  0  0  0  0
   -1.1200   -0.1056    2.5923 C   0  0  0  0  0  0  0  0  0  0  0  0
    1.9577   -1.7886    1.4446 C   0  0  0  0  0  0  0  0  0  0  0  0
    2.5373   -0.8617    0.3845 C   0  0  0  0  0  0  0  0  0  0  0  0
    0.4721   -1.5470    1.6335 C   0  0  0  0  0  0  0  0  0  0  0  0
    1.9185   -0.0337   -0.2435 O   0  0  0  0  0  0  0  0  0  0  0  0
   -0.4051   -2.2277    1.1537 O   0  0  0  0  0  0  0  0  0  0  0  0
    3.8562   -1.0990    0.2346 O   0  0  0  0  0  0  0  0  0  0  0  0
    0.2595   -0.4687    2.4121 O   0  0  0  0  0  0  0  0  0  0  0  0
    4.4389    0.7697   -0.4970 H   0  0  0  0  0  0  0  0  0  0  0  0
    4.0732   -0.4510   -1.7402 H   0  0  0  0  0  0  0  0  0  0  0  0
    5.5591   -0.6116   -0.7449 H   0  0  0  0  0  0  0  0  0  0  0  0
   -1.1087    0.7724    3.2384 H   0  0  0  0  0  0  0  0  0  0  0  0
   -1.6737   -0.9232    3.0611 H   0  0  0  0  0  0  0  0  0  0  0  0
   -1.5779    0.1310    1.6286 H   0  0  0  0  0  0  0  0  0  0  0  0
    2.4990   -1.6275    2.3826 H   0  0  0  0  0  0  0  0  0  0  0  0
    2.1125   -2.8256    1.1347 H   0  0  0  0  0  0  0  0  0  0  0  0
  1 12  1  0  0  0  0
  1 10  1  0  0  0  0
  1  8  1  0  0  0  0
  2 14  1  0  0  0  0
  2 13  1  0  0  0  0
  3  5  1  0  0  0  0
  3 16  1  0  0  0  0
  4  3  1  0  0  0  0
  5  9  1  0  0  0  0
  6  4  2  0  0  0  0
  7  5  2  0  0  0  0
  8  4  1  0  0  0  0
  9  2  1  0  0  0  0
 11  1  1  0  0  0  0
 15  2  1  0  0  0  0
 17  3  1  0  0  0  0
M  END
>  <HBA>
4

>  <HBD>
0

>  <TPSA>
52.6

>  <cid>
7943

>  <dipole>
2.47

>  <excitation_energy_1>
5.747

>  <excitation_energy_2>
5.89

>  <excitation_energy_3>
6.685

>  <excitation_energy_4>
6.81

>  <homo_energy>
-7.47

>  <homo_lumo_gap>
7.589

>  <logP>
-0.278

>  <lumo_energy>
0.12

>  <melting_point>
-1.02

>  <molecular_refractivity>
28.72

>  <oscillator_strength_1>
0.0012

>  <oscillator_strength_2>
0.0007

>  <oscillator_strength_3>
0.0014

>  <oscillator_strength_4>
0.0077

>  <open_babel_can_smiles>
COC(=O)CC(=O)OC

>  <mulliken_charges>
17
1   -0.22097
2   -0.219867
3   -0.440118
4   0.628694
5   0.622064
6   -0.460901
7   -0.463406
8   -0.448799
9   -0.437388
10   0.174234
11   0.175397
12   0.168378
13   0.16536
14   0.170429
15   0.178853
16   0.200846
17   0.207193

>  <lowdin_charges>
17
1   -0.274261
2   -0.278039
3   -0.322126
4   0.204673
5   0.204145
6   -0.252301
7   -0.253818
8   -0.191424
9   -0.186849
10   0.159875
11   0.161528
12   0.161455
13   0.161694
14   0.160747
15   0.164291
16   0.189445
17   0.190966

$$$$

