PCCDB-ID:  8200
public computational chemistry database (PCCDB) project, http://pccdb.org

 31 30  0  0  0  0  0  0  0  0999 V2000
   -2.2137    7.0833    1.7166 C   0  0  0  0  0  0  0  0  0  0  0  0
   -5.6577   -2.2786    6.8453 C   0  0  0  0  0  0  0  0  0  0  0  0
   -2.9969    6.1373    0.8110 C   0  0  0  0  0  0  0  0  0  0  0  0
   -6.0426   -0.8575    6.4637 C   0  0  0  0  0  0  0  0  0  0  0  0
   -3.7691    4.3924    2.2627 C   0  0  0  0  0  0  0  0  0  0  0  0
   -5.2857    0.8993    5.0530 C   0  0  0  0  0  0  0  0  0  0  0  0
   -3.5072    2.9231    2.5611 C   0  0  0  0  0  0  0  0  0  0  0  0
   -4.2687    1.1745    3.9547 C   0  0  0  0  0  0  0  0  0  0  0  0
   -0.8510    6.7008    1.7792 O   0  0  0  0  0  0  0  0  0  0  0  0
   -4.3185   -2.3430    7.3032 O   0  0  0  0  0  0  0  0  0  0  0  0
   -2.8551    4.7852    1.2493 O   0  0  0  0  0  0  0  0  0  0  0  0
   -5.1507   -0.4581    5.4309 O   0  0  0  0  0  0  0  0  0  0  0  0
   -4.4057    2.5314    3.5804 O   0  0  0  0  0  0  0  0  0  0  0  0
   -2.6684    7.1136    2.7216 H   0  0  0  0  0  0  0  0  0  0  0  0
   -2.2488    8.1009    1.3116 H   0  0  0  0  0  0  0  0  0  0  0  0
   -5.8205   -2.9409    5.9794 H   0  0  0  0  0  0  0  0  0  0  0  0
   -6.2951   -2.6295    7.6636 H   0  0  0  0  0  0  0  0  0  0  0  0
   -2.5711    6.1644   -0.1973 H   0  0  0  0  0  0  0  0  0  0  0  0
   -4.0592    6.4201    0.7545 H   0  0  0  0  0  0  0  0  0  0  0  0
   -5.9346   -0.1919    7.3347 H   0  0  0  0  0  0  0  0  0  0  0  0
   -7.0880   -0.8094    6.1168 H   0  0  0  0  0  0  0  0  0  0  0  0
   -3.6442    4.9798    3.1839 H   0  0  0  0  0  0  0  0  0  0  0  0
   -4.8065    4.5238    1.9191 H   0  0  0  0  0  0  0  0  0  0  0  0
   -6.3009    1.1042    4.6787 H   0  0  0  0  0  0  0  0  0  0  0  0
   -5.1026    1.5684    5.9083 H   0  0  0  0  0  0  0  0  0  0  0  0
   -2.4614    2.7882    2.8819 H   0  0  0  0  0  0  0  0  0  0  0  0
   -3.6553    2.3249    1.6481 H   0  0  0  0  0  0  0  0  0  0  0  0
   -4.4533    0.5059    3.0989 H   0  0  0  0  0  0  0  0  0  0  0  0
   -3.2524    0.9675    4.3273 H   0  0  0  0  0  0  0  0  0  0  0  0
   -0.8605    5.7353    1.8959 H   0  0  0  0  0  0  0  0  0  0  0  0
   -3.7931   -1.8836    6.6273 H   0  0  0  0  0  0  0  0  0  0  0  0
  1  9  1  0  0  0  0
  1 14  1  0  0  0  0
  2 10  1  0  0  0  0
  2 17  1  0  0  0  0
  3 11  1  0  0  0  0
  3  1  1  0  0  0  0
  4  2  1  0  0  0  0
  4 20  1  0  0  0  0
  5  7  1  0  0  0  0
  5 22  1  0  0  0  0
  6 12  1  0  0  0  0
  6 25  1  0  0  0  0
  7 26  1  0  0  0  0
  7 13  1  0  0  0  0
  8 29  1  0  0  0  0
  8  6  1  0  0  0  0
  9 30  1  0  0  0  0
 11  5  1  0  0  0  0
 12  4  1  0  0  0  0
 13  8  1  0  0  0  0
 15  1  1  0  0  0  0
 16  2  1  0  0  0  0
 18  3  1  0  0  0  0
 19  3  1  0  0  0  0
 21  4  1  0  0  0  0
 23  5  1  0  0  0  0
 24  6  1  0  0  0  0
 27  7  1  0  0  0  0
 28  8  1  0  0  0  0
 31 10  1  0  0  0  0
M  END
>  <HBA>
5

>  <HBD>
2

>  <TPSA>
68.15

>  <cid>
8200

>  <dipole>
2.96

>  <excitation_energy_1>
6.485

>  <excitation_energy_2>
6.722

>  <excitation_energy_3>
6.763

>  <excitation_energy_4>
6.827

>  <homo_energy>
-6.947

>  <homo_lumo_gap>
8.675

>  <logP>
-0.979

>  <lumo_energy>
1.728

>  <melting_point>
-17.5

>  <molecular_refractivity>
46.15

>  <oscillator_strength_1>
0.0092

>  <oscillator_strength_2>
0.0164

>  <oscillator_strength_3>
0.0145

>  <oscillator_strength_4>
0.0083

>  <open_babel_can_smiles>
OCCOCCOCCOCCO

>  <mulliken_charges>
31
1   -0.033908
2   -0.035521
3   -0.052378
4   -0.032029
5   -0.038096
6   -0.021985
7   -0.019553
8   -0.022406
9   -0.618364
10   -0.620193
11   -0.491939
12   -0.499273
13   -0.490735
14   0.123269
15   0.145342
16   0.130833
17   0.146412
18   0.159366
19   0.126186
20   0.134777
21   0.123795
22   0.1413
23   0.139191
24   0.136016
25   0.138235
26   0.1313
27   0.13748
28   0.136164
29   0.131996
30   0.395839
31   0.398878

>  <lowdin_charges>
31
1   -0.147424
2   -0.14022
3   -0.147462
4   -0.146219
5   -0.135753
6   -0.131776
7   -0.130523
8   -0.131542
9   -0.466425
10   -0.469514
11   -0.280313
12   -0.282551
13   -0.272319
14   0.125962
15   0.149443
16   0.132925
17   0.152323
18   0.154039
19   0.135037
20   0.135904
21   0.1317
22   0.136535
23   0.135826
24   0.135054
25   0.137397
26   0.131346
27   0.13615
28   0.136134
29   0.132469
30   0.339008
31   0.344789

$$$$

