PCCDB-ID:  27808
public computational chemistry database (PCCDB) project, http://pccdb.org

 22 23  0  0  0  0  0  0  0  0999 V2000
   -2.4306    0.8906   -0.0716 C   0  0  0  0  0  0  0  0  0  0  0  0
   -1.3085    1.7099   -0.0915 C   0  0  0  0  0  0  0  0  0  0  0  0
    1.9479   -2.1251    0.1032 C   0  0  0  0  0  0  0  0  0  0  0  0
   -1.0401   -1.1050    0.0326 C   0  0  0  0  0  0  0  0  0  0  0  0
    2.3362    0.3849    0.0093 C   0  0  0  0  0  0  0  0  0  0  0  0
    1.4960   -0.6905    0.0363 C   0  0  0  0  0  0  0  0  0  0  0  0
   -2.2979   -0.5113   -0.0092 C   0  0  0  0  0  0  0  0  0  0  0  0
    0.1019   -0.2889    0.0071 C   0  0  0  0  0  0  0  0  0  0  0  0
   -0.0446    1.1179   -0.0535 C   0  0  0  0  0  0  0  0  0  0  0  0
    1.7400   -2.8054    1.4670 C   0  0  0  0  0  0  0  0  0  0  0  0
   -3.3845   -1.3399    0.0131 O   0  0  0  0  0  0  0  0  0  0  0  0
    1.4887   -3.9774    1.5883 O   0  0  0  0  0  0  0  0  0  0  0  0
    1.9106   -2.0095    2.5491 O   0  0  0  0  0  0  0  0  0  0  0  0
    1.5186    1.9273   -0.0649 S   0  0  0  0  0  0  0  0  0  0  0  0
   -3.4233    1.3354   -0.1032 H   0  0  0  0  0  0  0  0  0  0  0  0
   -1.4219    2.7889   -0.1371 H   0  0  0  0  0  0  0  0  0  0  0  0
    3.0208   -2.1893   -0.1198 H   0  0  0  0  0  0  0  0  0  0  0  0
    1.4339   -2.7451   -0.6370 H   0  0  0  0  0  0  0  0  0  0  0  0
   -0.9665   -2.1864    0.0912 H   0  0  0  0  0  0  0  0  0  0  0  0
    3.4193    0.3620   -0.0036 H   0  0  0  0  0  0  0  0  0  0  0  0
   -4.1940   -0.8067   -0.0068 H   0  0  0  0  0  0  0  0  0  0  0  0
    2.0458   -1.0908    2.2511 H   0  0  0  0  0  0  0  0  0  0  0  0
  1  7  1  0  0  0  0
  2  1  2  0  0  0  0
  2  9  1  0  0  0  0
  3 10  1  0  0  0  0
  4 19  1  0  0  0  0
  5  6  2  0  0  0  0
  6  3  1  0  0  0  0
  7 11  1  0  0  0  0
  7  4  2  0  0  0  0
  8  4  1  0  0  0  0
  8  6  1  0  0  0  0
  9  8  2  0  0  0  0
 10 12  2  0  0  0  0
 10 13  1  0  0  0  0
 14  9  1  0  0  0  0
 14  5  1  0  0  0  0
 15  1  1  0  0  0  0
 16  2  1  0  0  0  0
 17  3  1  0  0  0  0
 18  3  1  0  0  0  0
 20  5  1  0  0  0  0
 21 11  1  0  0  0  0
 22 13  1  0  0  0  0
M  END
>  <HBA>
4

>  <HBD>
2

>  <TPSA>
85.77

>  <cid>
27808

>  <dipole>
5.04

>  <excitation_energy_1>
4.215

>  <excitation_energy_2>
4.765

>  <excitation_energy_3>
4.932

>  <excitation_energy_4>
5.142

>  <homo_energy>
-6.008

>  <homo_lumo_gap>
4.841

>  <logP>
2.234

>  <lumo_energy>
-1.167

>  <melting_point>
169.19

>  <molecular_refractivity>
55.39

>  <oscillator_strength_1>
0.0693

>  <oscillator_strength_2>
0.0548

>  <oscillator_strength_3>
0.0008

>  <oscillator_strength_4>
0.0137

>  <open_babel_can_smiles>
OC(=O)Cc1csc2c1cc(O)cc2

>  <mulliken_charges>
22
1   -0.181272
2   -0.169833
3   -0.448859
4   -0.223251
5   -0.411257
6   0.08569
7   0.351537
8   0.136873
9   -0.156936
10   0.602705
11   -0.639707
12   -0.444319
13   -0.563237
14   0.24086
15   0.127089
16   0.148436
17   0.186363
18   0.194474
19   0.162055
20   0.179476
21   0.41004
22   0.413074

>  <lowdin_charges>
22
1   -0.204458
2   -0.144648
3   -0.309331
4   -0.189897
5   -0.317702
6   -0.051513
7   0.104688
8   -0.015526
9   -0.152607
10   0.185603
11   -0.37361
12   -0.238283
13   -0.350282
14   0.292457
15   0.15819
16   0.16677
17   0.178776
18   0.184355
19   0.176526
20   0.182093
21   0.360027
22   0.358373

$$$$

