PCCDB-ID:  11605
public computational chemistry database (PCCDB) project, http://pccdb.org

 14 14  0  0  0  0  0  0  0  0999 V2000
    1.0753    0.9313    0.1175 C   0  0  0  0  0  0  0  0  0  0  0  0
   -0.2983    1.3884   -0.1213 C   0  0  0  0  0  0  0  0  0  0  0  0
    1.3771   -0.3775    0.0914 C   0  0  0  0  0  0  0  0  0  0  0  0
   -1.3241    0.5215   -0.0946 C   0  0  0  0  0  0  0  0  0  0  0  0
    0.3115   -1.4028   -0.2258 C   0  0  0  0  0  0  0  0  0  0  0  0
   -1.0850   -0.9372    0.2250 C   0  0  0  0  0  0  0  0  0  0  0  0
    1.8473    1.6761    0.2972 H   0  0  0  0  0  0  0  0  0  0  0  0
   -0.4698    2.4472   -0.3020 H   0  0  0  0  0  0  0  0  0  0  0  0
    2.4010   -0.7162    0.2339 H   0  0  0  0  0  0  0  0  0  0  0  0
   -2.3467    0.8635   -0.2388 H   0  0  0  0  0  0  0  0  0  0  0  0
    0.5503   -2.3687    0.2345 H   0  0  0  0  0  0  0  0  0  0  0  0
    0.3085   -1.5783   -1.3154 H   0  0  0  0  0  0  0  0  0  0  0  0
   -1.8562   -1.5686   -0.2316 H   0  0  0  0  0  0  0  0  0  0  0  0
   -1.1852   -1.0760    1.3153 H   0  0  0  0  0  0  0  0  0  0  0  0
  1  7  1  0  0  0  0
  2  4  2  0  0  0  0
  2  1  1  0  0  0  0
  3  1  2  0  0  0  0
  3  9  1  0  0  0  0
  4  6  1  0  0  0  0
  5  3  1  0  0  0  0
  5  6  1  0  0  0  0
  5 11  1  0  0  0  0
  6 14  1  0  0  0  0
  8  2  1  0  0  0  0
 10  4  1  0  0  0  0
 12  5  1  0  0  0  0
 13  6  1  0  0  0  0
M  END
>  <HBA>
0

>  <HBD>
0

>  <TPSA>
0.0

>  <cid>
11605

>  <dipole>
0.38

>  <excitation_energy_1>
4.638

>  <excitation_energy_2>
5.226

>  <excitation_energy_3>
5.786

>  <excitation_energy_4>
5.804

>  <homo_energy>
-5.595

>  <homo_lumo_gap>
5.129

>  <logP>
1.893

>  <lumo_energy>
-0.465

>  <melting_point>
15.6

>  <molecular_refractivity>
27.89

>  <oscillator_strength_1>
0.1271

>  <oscillator_strength_2>
0.0043

>  <oscillator_strength_3>
0.0169

>  <oscillator_strength_4>
0.004

>  <open_babel_can_smiles>
C1CC=CC=C1

>  <mulliken_charges>
14
1   -0.115952
2   -0.115934
3   -0.123153
4   -0.123238
5   -0.298612
6   -0.298632
7   0.122755
8   0.122751
9   0.126027
10   0.126058
11   0.139528
12   0.149433
13   0.139481
14   0.149489

>  <lowdin_charges>
14
1   -0.174807
2   -0.171312
3   -0.161583
4   -0.161341
5   -0.270382
6   -0.272351
7   0.155212
8   0.152525
9   0.152744
10   0.152649
11   0.150318
12   0.14829
13   0.151711
14   0.148329

$$$$

