PCCDB-ID:  71545
public computational chemistry database (PCCDB) project, http://pccdb.org

 27 29  0  0  0  0  0  0  0  0999 V2000
   -1.4562   -0.0795    0.1137 C   0  0  0  0  0  0  0  0  0  0  0  0
   -0.6165   -1.1233    0.5115 C   0  0  0  0  0  0  0  0  0  0  0  0
   -0.8999    1.0909   -0.4035 C   0  0  0  0  0  0  0  0  0  0  0  0
    7.6794   -0.8040   -0.4649 C   0  0  0  0  0  0  0  0  0  0  0  0
    6.9625   -2.0206   -0.3427 C   0  0  0  0  0  0  0  0  0  0  0  0
    0.7649   -0.9954    0.3984 C   0  0  0  0  0  0  0  0  0  0  0  0
    0.4842    1.2212   -0.5134 C   0  0  0  0  0  0  0  0  0  0  0  0
    7.0074    0.3982   -0.4919 C   0  0  0  0  0  0  0  0  0  0  0  0
    5.5887   -2.0193   -0.2504 C   0  0  0  0  0  0  0  0  0  0  0  0
    4.8301    1.6263   -0.4083 C   0  0  0  0  0  0  0  0  0  0  0  0
    3.4630    1.5643   -0.3140 C   0  0  0  0  0  0  0  0  0  0  0  0
    1.3389    0.1824   -0.1099 C   0  0  0  0  0  0  0  0  0  0  0  0
    5.5927    0.4312   -0.3986 C   0  0  0  0  0  0  0  0  0  0  0  0
    4.8666   -0.7958   -0.2764 C   0  0  0  0  0  0  0  0  0  0  0  0
    2.8198    0.2924   -0.2126 C   0  0  0  0  0  0  0  0  0  0  0  0
    3.5094   -0.8397   -0.1879 N   0  0  0  0  0  0  0  0  0  0  0  0
   -2.5347   -0.1797    0.2026 H   0  0  0  0  0  0  0  0  0  0  0  0
   -1.0409   -2.0400    0.9125 H   0  0  0  0  0  0  0  0  0  0  0  0
   -1.5435    1.9043   -0.7280 H   0  0  0  0  0  0  0  0  0  0  0  0
    8.7633   -0.8241   -0.5369 H   0  0  0  0  0  0  0  0  0  0  0  0
    7.5068   -2.9610   -0.3231 H   0  0  0  0  0  0  0  0  0  0  0  0
    1.4249   -1.8017    0.6984 H   0  0  0  0  0  0  0  0  0  0  0  0
    0.8932    2.1307   -0.9427 H   0  0  0  0  0  0  0  0  0  0  0  0
    7.5512    1.3357   -0.5840 H   0  0  0  0  0  0  0  0  0  0  0  0
    5.0196   -2.9391   -0.1575 H   0  0  0  0  0  0  0  0  0  0  0  0
    5.3384    2.5854   -0.4796 H   0  0  0  0  0  0  0  0  0  0  0  0
    2.8777    2.4765   -0.2904 H   0  0  0  0  0  0  0  0  0  0  0  0
  1 17  1  0  0  0  0
  1  2  2  0  0  0  0
  2 18  1  0  0  0  0
  3  1  1  0  0  0  0
  4  5  1  0  0  0  0
  5 21  1  0  0  0  0
  5  9  2  0  0  0  0
  6  2  1  0  0  0  0
  6 22  1  0  0  0  0
  7  3  2  0  0  0  0
  7 12  1  0  0  0  0
  8  4  2  0  0  0  0
  8 13  1  0  0  0  0
  9 25  1  0  0  0  0
 10 13  2  0  0  0  0
 10 11  1  0  0  0  0
 11 27  1  0  0  0  0
 11 15  2  0  0  0  0
 12  6  2  0  0  0  0
 13 14  1  0  0  0  0
 14  9  1  0  0  0  0
 14 16  2  0  0  0  0
 15 16  1  0  0  0  0
 15 12  1  0  0  0  0
 19  3  1  0  0  0  0
 20  4  1  0  0  0  0
 23  7  1  0  0  0  0
 24  8  1  0  0  0  0
 26 10  1  0  0  0  0
M  END
>  <HBA>
1

>  <HBD>
0

>  <TPSA>
12.89

>  <cid>
71545

>  <dipole>
1.54

>  <excitation_energy_1>
3.976

>  <excitation_energy_2>
4.125

>  <excitation_energy_3>
4.167

>  <excitation_energy_4>
4.521

>  <homo_energy>
-6.003

>  <homo_lumo_gap>
4.465

>  <logP>
3.902

>  <lumo_energy>
-1.537

>  <melting_point>
101.43

>  <molecular_refractivity>
67.18

>  <oscillator_strength_1>
0.2277

>  <oscillator_strength_2>
0.004

>  <oscillator_strength_3>
0.0193

>  <oscillator_strength_4>
0.0148

>  <open_babel_can_smiles>
c1ccc(cc1)c1ccc2c(n1)cccc2

>  <mulliken_charges>
27
1   -0.122591
2   -0.134604
3   -0.137376
4   -0.133366
5   -0.136952
6   -0.156142
7   -0.180475
8   -0.196994
9   -0.146789
10   -0.154047
11   -0.174582
12   0.09856
13   0.155119
14   0.253627
15   0.253662
16   -0.5851
17   0.129963
18   0.131164
19   0.129525
20   0.13356
21   0.13461
22   0.155699
23   0.128806
24   0.132219
25   0.142378
26   0.139659
27   0.140467

>  <lowdin_charges>
27
1   -0.149945
2   -0.155891
3   -0.158834
4   -0.154055
5   -0.152415
6   -0.142492
7   -0.16069
8   -0.15715
9   -0.153023
10   -0.126906
11   -0.182332
12   -0.01352
13   -0.017326
14   0.044486
15   0.058249
16   -0.157362
17   0.156101
18   0.158643
19   0.158682
20   0.158179
21   0.161148
22   0.174175
23   0.156946
24   0.158673
25   0.168933
26   0.162208
27   0.165516

$$$$

