PCCDB-ID:  68910
public computational chemistry database (PCCDB) project, http://pccdb.org

 20 21  0  0  0  0  0  0  0  0999 V2000
    0.9848   -0.1826   -0.0137 C   0  0  0  0  0  0  0  0  0  0  0  0
    3.2151    1.1993   -0.0562 C   0  0  0  0  0  0  0  0  0  0  0  0
    2.4736   -0.0209   -0.0155 C   0  0  0  0  0  0  0  0  0  0  0  0
    4.5268    0.7918   -0.0393 C   0  0  0  0  0  0  0  0  0  0  0  0
    6.9616    0.8101   -0.0365 C   0  0  0  0  0  0  0  0  0  0  0  0
    5.6897   -1.3715    0.0308 C   0  0  0  0  0  0  0  0  0  0  0  0
    8.1325    1.3241   -0.0490 N   0  0  0  0  0  0  0  0  0  0  0  0
    5.6212   -2.6392    0.0707 N   0  0  0  0  0  0  0  0  0  0  0  0
    5.7353    1.4637   -0.0562 N   0  0  0  0  0  0  0  0  0  0  0  0
    6.8425   -0.5789    0.0036 N   0  0  0  0  0  0  0  0  0  0  0  0
    3.2567   -1.0890    0.0231 N   0  0  0  0  0  0  0  0  0  0  0  0
    4.5296   -0.5788    0.0089 N   0  0  0  0  0  0  0  0  0  0  0  0
    0.5310    0.3192    0.8493 H   0  0  0  0  0  0  0  0  0  0  0  0
    0.7300   -1.2443    0.0275 H   0  0  0  0  0  0  0  0  0  0  0  0
    0.5365    0.2490   -0.9168 H   0  0  0  0  0  0  0  0  0  0  0  0
    2.8376    2.2110   -0.0910 H   0  0  0  0  0  0  0  0  0  0  0  0
    8.1025    2.3430   -0.0785 H   0  0  0  0  0  0  0  0  0  0  0  0
    6.5528   -3.0574    0.0802 H   0  0  0  0  0  0  0  0  0  0  0  0
    5.7318    2.4714   -0.0972 H   0  0  0  0  0  0  0  0  0  0  0  0
    7.7352   -1.0531    0.0235 H   0  0  0  0  0  0  0  0  0  0  0  0
  1 14  1  0  0  0  0
  1 13  1  0  0  0  0
  2  4  2  0  0  0  0
  2  3  1  0  0  0  0
  3  1  1  0  0  0  0
  3 11  2  0  0  0  0
  4 12  1  0  0  0  0
  5 10  1  0  0  0  0
  6  8  2  0  0  0  0
  7  5  2  0  0  0  0
  8 18  1  0  0  0  0
  9  4  1  0  0  0  0
  9  5  1  0  0  0  0
 10 20  1  0  0  0  0
 10  6  1  0  0  0  0
 12 11  1  0  0  0  0
 12  6  1  0  0  0  0
 15  1  1  0  0  0  0
 16  2  1  0  0  0  0
 17  7  1  0  0  0  0
 19  9  1  0  0  0  0
M  END
>  <HBA>
6

>  <HBD>
2

>  <TPSA>
95.12

>  <cid>
68910

>  <dipole>
4.34

>  <excitation_energy_1>
4.809

>  <excitation_energy_2>
5.021

>  <excitation_energy_3>
5.56

>  <excitation_energy_4>
5.587

>  <homo_energy>
-5.989

>  <homo_lumo_gap>
5.777

>  <logP>
0.759

>  <lumo_energy>
-0.212

>  <melting_point>
192.54

>  <molecular_refractivity>
44.56

>  <oscillator_strength_1>
0.0026

>  <oscillator_strength_2>
0.0253

>  <oscillator_strength_3>
0.0513

>  <oscillator_strength_4>
0.0071

>  <open_babel_can_smiles>
Cc1cc2n(n1)c(=N)[nH]c(=N)[nH]2

>  <mulliken_charges>
20
1   -0.526838
2   -0.333325
3   0.349972
4   0.653841
5   0.68698
6   0.7038
7   -0.654491
8   -0.595331
9   -0.755768
10   -0.701384
11   -0.31426
12   -0.419804
13   0.162413
14   0.184497
15   0.162639
16   0.13289
17   0.279822
18   0.283333
19   0.346261
20   0.354753

>  <lowdin_charges>
20
1   -0.442661
2   -0.279709
3   0.034278
4   0.083948
5   0.141007
6   0.135288
7   -0.459046
8   -0.397803
9   -0.242355
10   -0.256677
11   -0.137662
12   0.028154
13   0.163401
14   0.174659
15   0.163244
16   0.167785
17   0.255015
18   0.259046
19   0.302038
20   0.30805

$$$$

