PCCDB-ID:  51621
public computational chemistry database (PCCDB) project, http://pccdb.org

 28 28  0  0  1  0  0  0  0  0999 V2000
    1.0326    2.8967   -0.6938 C   0  0  0  0  0  0  0  0  0  0  0  0
    2.4442    0.2214   -1.6743 C   0  0  0  0  0  0  0  0  0  0  0  0
    5.2788    1.5477   -2.0380 C   0  0  0  0  0  0  0  0  0  0  0  0
    8.8497   -0.1163   -0.2336 C   0  0  0  0  0  0  0  0  0  0  0  0
    2.5205    2.7042   -1.0099 C   0  0  0  0  0  0  0  0  0  0  0  0
    3.0389    1.2774   -0.7276 C   0  0  2  0  0  0  0  0  0  0  0  0
    5.2208    0.3990    0.3137 C   0  0  2  0  0  0  0  0  0  0  0  0
    6.5407   -0.2998    0.1547 C   0  0  0  0  0  0  0  0  0  0  0  0
    4.5715    1.2366   -0.7340 C   0  0  1  0  0  0  0  0  0  0  0  0
    6.6404   -1.5063    0.2431 O   0  0  0  0  0  0  0  0  0  0  0  0
    7.5732    0.5300   -0.0837 O   0  0  0  0  0  0  0  0  0  0  0  0
    5.1685    1.8201    0.4390 O   0  0  0  0  0  0  0  0  0  0  0  0
    0.7327    3.9378   -0.8577 H   0  0  0  0  0  0  0  0  0  0  0  0
    0.8159    2.6504    0.3529 H   0  0  0  0  0  0  0  0  0  0  0  0
    0.3931    2.2686   -1.3240 H   0  0  0  0  0  0  0  0  0  0  0  0
    1.3597    0.1471   -1.5472 H   0  0  0  0  0  0  0  0  0  0  0  0
    2.8681   -0.7704   -1.4783 H   0  0  0  0  0  0  0  0  0  0  0  0
    2.6366    0.4683   -2.7253 H   0  0  0  0  0  0  0  0  0  0  0  0
    5.0285    0.8073   -2.8056 H   0  0  0  0  0  0  0  0  0  0  0  0
    6.3602    1.5578   -1.8963 H   0  0  0  0  0  0  0  0  0  0  0  0
    4.9745    2.5324   -2.4081 H   0  0  0  0  0  0  0  0  0  0  0  0
    9.5642    0.6892   -0.4036 H   0  0  0  0  0  0  0  0  0  0  0  0
    8.8349   -0.8058   -1.0818 H   0  0  0  0  0  0  0  0  0  0  0  0
    9.1035   -0.6725    0.6723 H   0  0  0  0  0  0  0  0  0  0  0  0
    3.1080    3.4067   -0.4052 H   0  0  0  0  0  0  0  0  0  0  0  0
    2.7029    2.9651   -2.0614 H   0  0  0  0  0  0  0  0  0  0  0  0
    2.7360    1.0239    0.2981 H   0  0  0  0  0  0  0  0  0  0  0  0
    4.5660   -0.1582    0.9843 H   0  0  0  0  0  0  0  0  0  0  0  0
  1 14  1  0  0  0  0
  2 16  1  0  0  0  0
  2 17  1  0  0  0  0
  2  6  1  0  0  0  0
  3 20  1  0  0  0  0
  4 11  1  0  0  0  0
  4 24  1  0  0  0  0
  5  6  1  0  0  0  0
  5  1  1  0  0  0  0
  5 25  1  0  0  0  0
  6 27  1  1  0  0  0
  7 12  1  0  0  0  0
  7 28  1  1  0  0  0
  8 10  2  0  0  0  0
  8  7  1  0  0  0  0
  9  3  1  6  0  0  0
  9  6  1  0  0  0  0
  9  7  1  0  0  0  0
  9 12  1  0  0  0  0
 11  8  1  0  0  0  0
 13  1  1  0  0  0  0
 15  1  1  0  0  0  0
 18  2  1  0  0  0  0
 19  3  1  0  0  0  0
 21  3  1  0  0  0  0
 22  4  1  0  0  0  0
 23  4  1  0  0  0  0
 26  5  1  0  0  0  0
M  END
>  <HBA>
3

>  <HBD>
0

>  <TPSA>
38.83

>  <cid>
51621

>  <dipole>
1.7

>  <excitation_energy_1>
5.468

>  <excitation_energy_2>
6.194

>  <excitation_energy_3>
6.814

>  <excitation_energy_4>
6.916

>  <homo_energy>
-7.154

>  <homo_lumo_gap>
7.031

>  <logP>
1.363

>  <lumo_energy>
-0.122

>  <melting_point>
8.54

>  <molecular_refractivity>
45.67

>  <oscillator_strength_1>
0.0019

>  <oscillator_strength_2>
0.0349

>  <oscillator_strength_3>
0.0177

>  <oscillator_strength_4>
0.205

>  <open_babel_can_smiles>
CC[C@H]([C@@]1(C)O[C@@H]1C(=O)OC)C

>  <mulliken_charges>
28
1   -0.450462
2   -0.462699
3   -0.506083
4   -0.221355
5   -0.263683
6   -0.095433
7   -0.021161
8   0.609814
9   0.318478
10   -0.485016
11   -0.437483
12   -0.469314
13   0.147039
14   0.146161
15   0.145689
16   0.153567
17   0.153031
18   0.146158
19   0.157608
20   0.179034
21   0.162679
22   0.168842
23   0.170839
24   0.174913
25   0.154453
26   0.13133
27   0.131669
28   0.161388

>  <lowdin_charges>
28
1   -0.444386
2   -0.444881
3   -0.455769
4   -0.278482
5   -0.27585
6   -0.126477
7   -0.056709
8   0.179192
9   0.116954
10   -0.261502
11   -0.174813
12   -0.266559
13   0.151808
14   0.147457
15   0.148793
16   0.153693
17   0.153943
18   0.147396
19   0.160986
20   0.170304
21   0.161833
22   0.163756
23   0.160065
24   0.162645
25   0.154007
26   0.137997
27   0.145474
28   0.169127

$$$$

