PCCDB-ID:  4511
public computational chemistry database (PCCDB) project, http://pccdb.org

 20 20  0  0  0  0  0  0  0  0999 V2000
   -0.6674    1.2021    0.0240 C   0  0  0  0  0  0  0  0  0  0  0  0
   -0.6540   -1.2141    0.0644 C   0  0  0  0  0  0  0  0  0  0  0  0
    1.4577    0.0054   -0.0035 C   0  0  0  0  0  0  0  0  0  0  0  0
   -1.3698   -0.0099    0.0556 C   0  0  0  0  0  0  0  0  0  0  0  0
    0.7244    1.1851   -0.0110 C   0  0  0  0  0  0  0  0  0  0  0  0
    0.7359   -1.1827    0.0369 C   0  0  0  0  0  0  0  0  0  0  0  0
   -2.8702   -0.0251    0.0532 C   0  0  0  0  0  0  0  0  0  0  0  0
   -3.6175   -0.8474   -0.5597 N   0  0  0  0  0  0  0  0  0  0  0  0
    1.4518    2.4718   -0.0552 N   0  0  0  0  0  0  0  0  0  0  0  0
    1.4786   -2.4617    0.0552 N   0  0  0  0  0  0  0  0  0  0  0  0
   -3.4688    0.9807    0.7487 O   0  0  0  0  0  0  0  0  0  0  0  0
    0.7773    3.4985   -0.0406 O   0  0  0  0  0  0  0  0  0  0  0  0
    2.6772    2.4248   -0.0996 O   0  0  0  0  0  0  0  0  0  0  0  0
    0.8161   -3.4954    0.0862 O   0  0  0  0  0  0  0  0  0  0  0  0
    2.7042   -2.4006    0.0362 O   0  0  0  0  0  0  0  0  0  0  0  0
   -1.1829    2.1552   -0.0026 H   0  0  0  0  0  0  0  0  0  0  0  0
   -1.1628   -2.1699    0.1077 H   0  0  0  0  0  0  0  0  0  0  0  0
    2.5391    0.0103   -0.0257 H   0  0  0  0  0  0  0  0  0  0  0  0
   -3.0637   -1.5015   -1.1140 H   0  0  0  0  0  0  0  0  0  0  0  0
   -2.8481    1.3543    1.3937 H   0  0  0  0  0  0  0  0  0  0  0  0
  1  4  2  0  0  0  0
  2 17  1  0  0  0  0
  3  6  1  0  0  0  0
  4  2  1  0  0  0  0
  5  3  2  0  0  0  0
  5  1  1  0  0  0  0
  6 10  1  0  0  0  0
  6  2  2  0  0  0  0
  7  4  1  0  0  0  0
  7 11  1  0  0  0  0
  8  7  2  0  0  0  0
  9 12  2  0  0  0  0
  9  5  1  0  0  0  0
 10 14  2  0  0  0  0
 11 20  1  0  0  0  0
 13  9  2  0  0  0  0
 15 10  2  0  0  0  0
 16  1  1  0  0  0  0
 18  3  1  0  0  0  0
 19  8  1  0  0  0  0
M  END
>  <HBA>
2

>  <HBD>
1

>  <TPSA>
134.73

>  <cid>
4511

>  <dipole>
0.97

>  <excitation_energy_1>
3.691

>  <excitation_energy_2>
3.706

>  <excitation_energy_3>
3.719

>  <excitation_energy_4>
3.856

>  <homo_energy>
-7.938

>  <homo_lumo_gap>
4.4

>  <logP>
2.349

>  <lumo_energy>
-3.538

>  <melting_point>
172.72

>  <molecular_refractivity>
52.18

>  <oscillator_strength_1>
0.0045

>  <oscillator_strength_2>
0.0041

>  <oscillator_strength_3>
0.0048

>  <oscillator_strength_4>
0.0019

>  <open_babel_can_smiles>
OC(=N)c1cc(cc(c1)N(=O)=O)N(=O)=O

>  <mulliken_charges>
20
1   -0.195317
2   -0.177319
3   -0.168969
4   0.039817
5   0.272298
6   0.266435
7   0.446709
8   -0.558883
9   0.391156
10   0.392428
11   -0.566873
12   -0.380806
13   -0.372771
14   -0.379357
15   -0.373267
16   0.209149
17   0.208852
18   0.235174
19   0.297957
20   0.413585

>  <lowdin_charges>
20
1   -0.130085
2   -0.116166
3   -0.111069
4   -0.034898
5   0.013345
6   0.013354
7   0.126232
8   -0.36308
9   0.305838
10   0.30584
11   -0.352271
12   -0.230345
13   -0.220695
14   -0.228613
15   -0.221197
16   0.199123
17   0.200352
18   0.21529
19   0.266626
20   0.362417

$$$$

