PCCDB-ID:  33514
public computational chemistry database (PCCDB) project, http://pccdb.org

 31 31  0  0  0  0  0  0  0  0999 V2000
    7.2995    3.1337    2.1507 C   0  0  0  0  0  0  0  0  0  0  0  0
    7.4859    1.7089    1.6196 C   0  0  0  0  0  0  0  0  0  0  0  0
    6.3195    0.7766    1.9704 C   0  0  0  0  0  0  0  0  0  0  0  0
    6.5044   -0.6572    1.4376 C   0  0  0  0  0  0  0  0  0  0  0  0
    5.3370   -1.5551    1.7445 C   0  0  0  0  0  0  0  0  0  0  0  0
    3.3867   -3.9527    7.0460 C   0  0  0  0  0  0  0  0  0  0  0  0
    5.3861   -2.6603    2.4939 C   0  0  0  0  0  0  0  0  0  0  0  0
    3.4538   -2.6873    6.4574 C   0  0  0  0  0  0  0  0  0  0  0  0
    3.5950   -5.0870    6.2616 C   0  0  0  0  0  0  0  0  0  0  0  0
    4.2072   -3.5489    2.8049 C   0  0  0  0  0  0  0  0  0  0  0  0
    3.7257   -2.5608    5.0958 C   0  0  0  0  0  0  0  0  0  0  0  0
    3.8655   -4.9550    4.8976 C   0  0  0  0  0  0  0  0  0  0  0  0
    3.9309   -3.6935    4.2952 C   0  0  0  0  0  0  0  0  0  0  0  0
    8.1496    3.7734    1.8875 H   0  0  0  0  0  0  0  0  0  0  0  0
    7.2036    3.1400    3.2434 H   0  0  0  0  0  0  0  0  0  0  0  0
    6.3943    3.5956    1.7374 H   0  0  0  0  0  0  0  0  0  0  0  0
    8.4189    1.2875    2.0200 H   0  0  0  0  0  0  0  0  0  0  0  0
    7.6103    1.7373    0.5275 H   0  0  0  0  0  0  0  0  0  0  0  0
    5.3853    1.1962    1.5687 H   0  0  0  0  0  0  0  0  0  0  0  0
    6.1916    0.7388    3.0613 H   0  0  0  0  0  0  0  0  0  0  0  0
    7.4244   -1.0886    1.8545 H   0  0  0  0  0  0  0  0  0  0  0  0
    6.6516   -0.6069    0.3473 H   0  0  0  0  0  0  0  0  0  0  0  0
    4.3775   -1.2523    1.3179 H   0  0  0  0  0  0  0  0  0  0  0  0
    3.1762   -4.0520    8.1076 H   0  0  0  0  0  0  0  0  0  0  0  0
    6.3383   -2.9642    2.9327 H   0  0  0  0  0  0  0  0  0  0  0  0
    3.2946   -1.7972    7.0610 H   0  0  0  0  0  0  0  0  0  0  0  0
    3.5481   -6.0765    6.7093 H   0  0  0  0  0  0  0  0  0  0  0  0
    4.3788   -4.5498    2.3840 H   0  0  0  0  0  0  0  0  0  0  0  0
    3.3161   -3.1509    2.2999 H   0  0  0  0  0  0  0  0  0  0  0  0
    3.7877   -1.5737    4.6438 H   0  0  0  0  0  0  0  0  0  0  0  0
    4.0261   -5.8444    4.2918 H   0  0  0  0  0  0  0  0  0  0  0  0
  1 15  1  0  0  0  0
  2  3  1  0  0  0  0
  2 17  1  0  0  0  0
  2  1  1  0  0  0  0
  3 20  1  0  0  0  0
  4  5  1  0  0  0  0
  4 21  1  0  0  0  0
  4  3  1  0  0  0  0
  5  7  2  0  0  0  0
  6 24  1  0  0  0  0
  7 10  1  0  0  0  0
  7 25  1  0  0  0  0
  8  6  1  0  0  0  0
  8 26  1  0  0  0  0
  9 27  1  0  0  0  0
  9  6  2  0  0  0  0
 10 13  1  0  0  0  0
 11  8  2  0  0  0  0
 12  9  1  0  0  0  0
 13 12  2  0  0  0  0
 13 11  1  0  0  0  0
 14  1  1  0  0  0  0
 16  1  1  0  0  0  0
 18  2  1  0  0  0  0
 19  3  1  0  0  0  0
 22  4  1  0  0  0  0
 23  5  1  0  0  0  0
 28 10  1  0  0  0  0
 29 10  1  0  0  0  0
 30 11  1  0  0  0  0
 31 12  1  0  0  0  0
M  END
>  <HBA>
0

>  <HBD>
0

>  <TPSA>
0.0

>  <cid>
33514

>  <dipole>
0.41

>  <excitation_energy_1>
5.237

>  <excitation_energy_2>
5.582

>  <excitation_energy_3>
5.805

>  <excitation_energy_4>
5.927

>  <homo_energy>
-6.286

>  <homo_lumo_gap>
6.378

>  <logP>
3.975

>  <lumo_energy>
0.093

>  <melting_point>
12.96

>  <molecular_refractivity>
59.78

>  <oscillator_strength_1>
0.0116

>  <oscillator_strength_2>
0.0382

>  <oscillator_strength_3>
0.1284

>  <oscillator_strength_4>
0.0077

>  <open_babel_can_smiles>
CCCC/C=C/Cc1ccccc1

>  <mulliken_charges>
31
1   -0.44149
2   -0.246949
3   -0.246396
4   -0.30237
5   -0.098775
6   -0.13154
7   -0.082496
8   -0.129138
9   -0.125744
10   -0.393904
11   -0.172527
12   -0.192601
13   0.171603
14   0.14226
15   0.142516
16   0.141381
17   0.131641
18   0.130383
19   0.127692
20   0.135435
21   0.136532
22   0.137701
23   0.114917
24   0.126132
25   0.122328
26   0.126742
27   0.126527
28   0.147547
29   0.153406
30   0.128368
31   0.120816

>  <lowdin_charges>
31
1   -0.443345
2   -0.270512
3   -0.271679
4   -0.268766
5   -0.168762
6   -0.159458
7   -0.167074
8   -0.156521
9   -0.156144
10   -0.26838
11   -0.162472
12   -0.171119
13   -0.001967
14   0.150224
15   0.144889
16   0.146735
17   0.13962
18   0.136689
19   0.137976
20   0.139441
21   0.14532
22   0.144013
23   0.144305
24   0.154361
25   0.149125
26   0.156619
27   0.155766
28   0.152944
29   0.15676
30   0.157776
31   0.153634

$$$$

