PCCDB-ID:  23219
public computational chemistry database (PCCDB) project, http://pccdb.org

 28 28  0  0  0  0  0  0  0  0999 V2000
   -2.4765   -1.1656   -0.3728 C   0  0  0  0  0  0  0  0  0  0  0  0
   -1.9370   -0.5973    0.7825 C   0  0  0  0  0  0  0  0  0  0  0  0
   -1.6273   -1.5492   -1.4124 C   0  0  0  0  0  0  0  0  0  0  0  0
   -0.5577   -0.4174    0.8957 C   0  0  0  0  0  0  0  0  0  0  0  0
   -0.2489   -1.3671   -1.2936 C   0  0  0  0  0  0  0  0  0  0  0  0
    1.8056   -0.6472    0.0062 C   0  0  0  0  0  0  0  0  0  0  0  0
    2.4696   -1.8979    0.6086 C   0  0  0  0  0  0  0  0  0  0  0  0
    0.3076   -0.8002   -0.1384 C   0  0  0  0  0  0  0  0  0  0  0  0
    4.9813   -4.8976    2.2260 C   0  0  0  0  0  0  0  0  0  0  0  0
    4.6380   -2.6129    1.2153 C   0  0  0  0  0  0  0  0  0  0  0  0
    6.2211   -5.0214    2.4570 N   0  0  0  0  0  0  0  0  0  0  0  0
    3.9046   -1.6954    0.7265 N   0  0  0  0  0  0  0  0  0  0  0  0
    4.2289   -3.8513    1.6770 N   0  0  0  0  0  0  0  0  0  0  0  0
    4.1123   -5.9021    2.5233 O   0  0  0  0  0  0  0  0  0  0  0  0
    5.9773   -2.4212    1.3234 O   0  0  0  0  0  0  0  0  0  0  0  0
   -3.5505   -1.3031   -0.4647 H   0  0  0  0  0  0  0  0  0  0  0  0
   -2.5904   -0.2886    1.5945 H   0  0  0  0  0  0  0  0  0  0  0  0
   -2.0383   -1.9854   -2.3192 H   0  0  0  0  0  0  0  0  0  0  0  0
   -0.1450    0.0320    1.7968 H   0  0  0  0  0  0  0  0  0  0  0  0
    0.4060   -1.6619   -2.1112 H   0  0  0  0  0  0  0  0  0  0  0  0
    2.2690   -0.4516   -0.9679 H   0  0  0  0  0  0  0  0  0  0  0  0
    2.0450    0.2079    0.6490 H   0  0  0  0  0  0  0  0  0  0  0  0
    2.2370   -2.7645   -0.0342 H   0  0  0  0  0  0  0  0  0  0  0  0
    2.0081   -2.1021    1.5903 H   0  0  0  0  0  0  0  0  0  0  0  0
    6.7446   -4.1937    2.1850 H   0  0  0  0  0  0  0  0  0  0  0  0
    3.2369   -4.0362    1.6184 H   0  0  0  0  0  0  0  0  0  0  0  0
    4.6661   -6.6073    2.9017 H   0  0  0  0  0  0  0  0  0  0  0  0
    6.1232   -1.5253    0.9687 H   0  0  0  0  0  0  0  0  0  0  0  0
  1  2  2  0  0  0  0
  2  4  1  0  0  0  0
  2 17  1  0  0  0  0
  3  5  2  0  0  0  0
  3  1  1  0  0  0  0
  4 19  1  0  0  0  0
  5  8  1  0  0  0  0
  6  7  1  0  0  0  0
  6 22  1  0  0  0  0
  7 12  1  0  0  0  0
  7 24  1  0  0  0  0
  8  6  1  0  0  0  0
  8  4  2  0  0  0  0
  9 11  2  0  0  0  0
  9 14  1  0  0  0  0
 10 15  1  0  0  0  0
 10 13  1  0  0  0  0
 12 10  2  0  0  0  0
 13  9  1  0  0  0  0
 14 27  1  0  0  0  0
 16  1  1  0  0  0  0
 18  3  1  0  0  0  0
 20  5  1  0  0  0  0
 21  6  1  0  0  0  0
 23  7  1  0  0  0  0
 25 11  1  0  0  0  0
 26 13  1  0  0  0  0
 28 15  1  0  0  0  0
M  END
>  <HBA>
5

>  <HBD>
3

>  <TPSA>
84.22

>  <cid>
23219

>  <dipole>
1.33

>  <excitation_energy_1>
5.307

>  <excitation_energy_2>
5.738

>  <excitation_energy_3>
5.887

>  <excitation_energy_4>
5.94

>  <homo_energy>
-6.493

>  <homo_lumo_gap>
6.493

>  <logP>
2.089

>  <lumo_energy>
0.0

>  <melting_point>
177.21

>  <molecular_refractivity>
55.32

>  <oscillator_strength_1>
0.0005

>  <oscillator_strength_2>
0.0001

>  <oscillator_strength_3>
0.0108

>  <oscillator_strength_4>
0.0087

>  <open_babel_can_smiles>
O/C(=N/CCc1ccccc1)/NC(=N)O

>  <mulliken_charges>
28
1   -0.131145
2   -0.127753
3   -0.127897
4   -0.181668
5   -0.181314
6   -0.348277
7   -0.156539
8   0.163355
9   0.659015
10   0.73458
11   -0.643098
12   -0.496317
13   -0.696173
14   -0.609162
15   -0.612675
16   0.128477
17   0.128885
18   0.128887
19   0.123898
20   0.123866
21   0.152779
22   0.152407
23   0.137736
24   0.13692
25   0.32602
26   0.36467
27   0.426282
28   0.424241

>  <lowdin_charges>
28
1   -0.158459
2   -0.156638
3   -0.155473
4   -0.168217
5   -0.169307
6   -0.272726
7   -0.202381
8   -0.003512
9   0.166068
10   0.174642
11   -0.453411
12   -0.280286
13   -0.25931
14   -0.381191
15   -0.366334
16   0.155371
17   0.158222
18   0.157565
19   0.154886
20   0.155421
21   0.155096
22   0.155711
23   0.135196
24   0.134021
25   0.276448
26   0.305236
27   0.372774
28   0.370589

$$$$

