PCCDB-ID:  23361
public computational chemistry database (PCCDB) project, http://pccdb.org

 31 31  0  0  0  0  0  0  0  0999 V2000
    0.9503    0.6139   -0.2063 C   0  0  0  0  0  0  0  0  0  0  0  0
    7.2443   -1.4207   -0.9787 C   0  0  0  0  0  0  0  0  0  0  0  0
    7.5659    0.7547    0.1900 C   0  0  0  0  0  0  0  0  0  0  0  0
    7.0857   -1.2764    1.5498 C   0  0  0  0  0  0  0  0  0  0  0  0
    3.3485    1.2468   -0.0849 C   0  0  0  0  0  0  0  0  0  0  0  0
    4.7197    0.9863    0.0118 C   0  0  0  0  0  0  0  0  0  0  0  0
    2.4086    0.2267   -0.0972 C   0  0  0  0  0  0  0  0  0  0  0  0
    5.2430   -0.2983    0.1061 C   0  0  0  0  0  0  0  0  0  0  0  0
    2.8904   -1.1135   -0.0049 C   0  0  0  0  0  0  0  0  0  0  0  0
    4.2978   -1.3589    0.1000 C   0  0  0  0  0  0  0  0  0  0  0  0
    2.0143   -2.2929   -0.0117 C   0  0  0  0  0  0  0  0  0  0  0  0
    6.7601   -0.5608    0.2152 C   0  0  0  0  0  0  0  0  0  0  0  0
    4.7778   -2.6116    0.1960 O   0  0  0  0  0  0  0  0  0  0  0  0
    2.4010   -3.4658    0.0727 O   0  0  0  0  0  0  0  0  0  0  0  0
    0.6898   -2.0631   -0.1215 O   0  0  0  0  0  0  0  0  0  0  0  0
    0.8658    1.7038   -0.2461 H   0  0  0  0  0  0  0  0  0  0  0  0
    0.3634    0.2552    0.6444 H   0  0  0  0  0  0  0  0  0  0  0  0
    0.4808    0.2010   -1.1044 H   0  0  0  0  0  0  0  0  0  0  0  0
    8.3269   -1.5820   -0.9047 H   0  0  0  0  0  0  0  0  0  0  0  0
    7.0457   -0.9107   -1.9290 H   0  0  0  0  0  0  0  0  0  0  0  0
    6.7531   -2.3945   -1.0013 H   0  0  0  0  0  0  0  0  0  0  0  0
    8.6339    0.5226    0.2663 H   0  0  0  0  0  0  0  0  0  0  0  0
    7.3134    1.4120    1.0302 H   0  0  0  0  0  0  0  0  0  0  0  0
    7.4183    1.3129   -0.7420 H   0  0  0  0  0  0  0  0  0  0  0  0
    8.1652   -1.4598    1.6188 H   0  0  0  0  0  0  0  0  0  0  0  0
    6.5696   -2.2341    1.6314 H   0  0  0  0  0  0  0  0  0  0  0  0
    6.7967   -0.6522    2.4039 H   0  0  0  0  0  0  0  0  0  0  0  0
    3.0113    2.2772   -0.1507 H   0  0  0  0  0  0  0  0  0  0  0  0
    5.3923    1.8359    0.0129 H   0  0  0  0  0  0  0  0  0  0  0  0
    4.0034   -3.2348    0.1761 H   0  0  0  0  0  0  0  0  0  0  0  0
    0.2786   -2.9485   -0.1096 H   0  0  0  0  0  0  0  0  0  0  0  0
  1  7  1  0  0  0  0
  1 17  1  0  0  0  0
  2 19  1  0  0  0  0
  2 12  1  0  0  0  0
  3 12  1  0  0  0  0
  3 22  1  0  0  0  0
  3 23  1  0  0  0  0
  4 25  1  0  0  0  0
  4 26  1  0  0  0  0
  4 27  1  0  0  0  0
  5  6  1  0  0  0  0
  6 29  1  0  0  0  0
  6  8  2  0  0  0  0
  7  5  2  0  0  0  0
  7  9  1  0  0  0  0
  8 12  1  0  0  0  0
  9 10  2  0  0  0  0
 10  8  1  0  0  0  0
 10 13  1  0  0  0  0
 11  9  1  0  0  0  0
 11 14  2  0  0  0  0
 12  4  1  0  0  0  0
 15 31  1  0  0  0  0
 15 11  1  0  0  0  0
 16  1  1  0  0  0  0
 18  1  1  0  0  0  0
 20  2  1  0  0  0  0
 21  2  1  0  0  0  0
 24  3  1  0  0  0  0
 28  5  1  0  0  0  0
 30 13  1  0  0  0  0
M  END
>  <HBA>
3

>  <HBD>
2

>  <TPSA>
57.53

>  <cid>
23361

>  <dipole>
2.03

>  <excitation_energy_1>
3.943

>  <excitation_energy_2>
5.05

>  <excitation_energy_3>
5.104

>  <excitation_energy_4>
5.457

>  <homo_energy>
-5.946

>  <homo_lumo_gap>
4.582

>  <logP>
2.696

>  <lumo_energy>
-1.363

>  <melting_point>
150.25

>  <molecular_refractivity>
59.66

>  <oscillator_strength_1>
0.1075

>  <oscillator_strength_2>
0.1559

>  <oscillator_strength_3>
0.0003

>  <oscillator_strength_4>
0.0

>  <open_babel_can_smiles>
OC(=O)c1c(C)ccc(c1O)C(C)(C)C

>  <mulliken_charges>
31
1   -0.507297
2   -0.45127
3   -0.458768
4   -0.451175
5   -0.198382
6   -0.192581
7   0.127972
8   0.138613
9   -0.007533
10   0.243713
11   0.573039
12   0.038231
13   -0.654106
14   -0.55185
15   -0.579681
16   0.149495
17   0.169635
18   0.169841
19   0.132665
20   0.135759
21   0.17597
22   0.14356
23   0.142095
24   0.142234
25   0.132994
26   0.175591
27   0.13572
28   0.12333
29   0.135276
30   0.450316
31   0.416594

>  <lowdin_charges>
31
1   -0.44063
2   -0.444112
3   -0.443594
4   -0.444939
5   -0.195356
6   -0.139228
7   0.030136
8   -0.035691
9   -0.119241
10   0.131419
11   0.213218
12   0.024337
13   -0.37047
14   -0.323734
15   -0.335795
16   0.151886
17   0.166541
18   0.166427
19   0.142844
20   0.145661
21   0.163582
22   0.150383
23   0.147625
24   0.147236
25   0.143091
26   0.163572
27   0.146298
28   0.155274
29   0.166257
30   0.37212
31   0.364884

$$$$

