PCCDB-ID:  69457
public computational chemistry database (PCCDB) project, http://pccdb.org

 24 26  0  0  0  0  0  0  0  0999 V2000
   -3.6751    0.7341   -0.0027 C   0  0  0  0  0  0  0  0  0  0  0  0
   -3.6800   -0.6824   -0.0023 C   0  0  0  0  0  0  0  0  0  0  0  0
   -2.4847    1.4273   -0.0020 C   0  0  0  0  0  0  0  0  0  0  0  0
   -2.4945   -1.3839   -0.0014 C   0  0  0  0  0  0  0  0  0  0  0  0
    3.7273    0.6722   -0.0020 C   0  0  0  0  0  0  0  0  0  0  0  0
    3.7226   -0.6722   -0.0019 C   0  0  0  0  0  0  0  0  0  0  0  0
   -0.0015    1.4161   -0.0012 C   0  0  0  0  0  0  0  0  0  0  0  0
   -0.0113   -1.3901   -0.0004 C   0  0  0  0  0  0  0  0  0  0  0  0
   -1.2449    0.7352   -0.0013 C   0  0  0  0  0  0  0  0  0  0  0  0
   -1.2499   -0.7005   -0.0010 C   0  0  0  0  0  0  0  0  0  0  0  0
    1.1915    0.7237   -0.0016 C   0  0  0  0  0  0  0  0  0  0  0  0
    1.1865   -0.7060   -0.0012 C   0  0  0  0  0  0  0  0  0  0  0  0
    2.4780    1.4746   -0.0015 C   0  0  0  0  0  0  0  0  0  0  0  0
    2.4678   -1.4659   -0.0005 C   0  0  0  0  0  0  0  0  0  0  0  0
    2.5276    2.7002   -0.0011 O   0  0  0  0  0  0  0  0  0  0  0  0
    2.5087   -2.6918    0.0011 O   0  0  0  0  0  0  0  0  0  0  0  0
   -4.6181    1.2735   -0.0036 H   0  0  0  0  0  0  0  0  0  0  0  0
   -4.6267   -1.2153   -0.0030 H   0  0  0  0  0  0  0  0  0  0  0  0
   -2.4779    2.5142   -0.0021 H   0  0  0  0  0  0  0  0  0  0  0  0
   -2.4952   -2.4708   -0.0008 H   0  0  0  0  0  0  0  0  0  0  0  0
    4.6491    1.2479   -0.0028 H   0  0  0  0  0  0  0  0  0  0  0  0
    4.6403   -1.2544   -0.0026 H   0  0  0  0  0  0  0  0  0  0  0  0
    0.0271    2.5022   -0.0006 H   0  0  0  0  0  0  0  0  0  0  0  0
    0.0097   -2.4763    0.0008 H   0  0  0  0  0  0  0  0  0  0  0  0
  1  2  2  0  0  0  0
  1  3  1  0  0  0  0
  2  4  1  0  0  0  0
  3  9  2  0  0  0  0
  4 10  2  0  0  0  0
  4 20  1  0  0  0  0
  5  6  2  0  0  0  0
  5 13  1  0  0  0  0
  6 14  1  0  0  0  0
  7 23  1  0  0  0  0
  8 24  1  0  0  0  0
  9  7  1  0  0  0  0
  9 10  1  0  0  0  0
 10  8  1  0  0  0  0
 11 13  1  0  0  0  0
 11 12  1  0  0  0  0
 11  7  2  0  0  0  0
 12 14  1  0  0  0  0
 12  8  2  0  0  0  0
 13 15  2  0  0  0  0
 14 16  2  0  0  0  0
 17  1  1  0  0  0  0
 18  2  1  0  0  0  0
 19  3  1  0  0  0  0
 21  5  1  0  0  0  0
 22  6  1  0  0  0  0
M  END
>  <HBA>
2

>  <HBD>
0

>  <TPSA>
34.14

>  <cid>
69457

>  <dipole>
2.54

>  <excitation_energy_1>
2.803

>  <excitation_energy_2>
2.883

>  <excitation_energy_3>
3.001

>  <excitation_energy_4>
3.458

>  <homo_energy>
-6.395

>  <homo_lumo_gap>
3.407

>  <logP>
2.775

>  <lumo_energy>
-2.988

>  <melting_point>
151.82

>  <molecular_refractivity>
61.75

>  <oscillator_strength_1>
0.0

>  <oscillator_strength_2>
0.114

>  <oscillator_strength_3>
0.0

>  <oscillator_strength_4>
0.0075

>  <open_babel_can_smiles>
O=C1C=CC(=O)c2c1cc1ccccc1c2

>  <mulliken_charges>
24
1   -0.133418
2   -0.133536
3   -0.184662
4   -0.184636
5   -0.160276
6   -0.160428
7   -0.260636
8   -0.260728
9   0.150083
10   0.150195
11   0.04708
12   0.047165
13   0.393231
14   0.393301
15   -0.473934
16   -0.473936
17   0.142536
18   0.142532
19   0.145457
20   0.145464
21   0.165542
22   0.16555
23   0.169021
24   0.169035

>  <lowdin_charges>
24
1   -0.147245
2   -0.147201
3   -0.14461
4   -0.144608
5   -0.147759
6   -0.147802
7   -0.114929
8   -0.114929
9   0.004595
10   0.004597
11   -0.047925
12   -0.047931
13   0.144927
14   0.144927
15   -0.232136
16   -0.232134
17   0.164876
18   0.164836
19   0.163397
20   0.163395
21   0.179805
22   0.179838
23   0.177007
24   0.177008

$$$$

