PCCDB-ID:  38518
public computational chemistry database (PCCDB) project, http://pccdb.org

 33 35  0  0  0  0  0  0  0  0999 V2000
    0.9937    0.0767   -0.1488 C   0  0  0  0  0  0  0  0  0  0  0  0
    1.1014    4.8428   -0.1513 C   0  0  0  0  0  0  0  0  0  0  0  0
    5.3426   -0.1145   -0.1104 C   0  0  0  0  0  0  0  0  0  0  0  0
    5.4547    4.8376   -0.1160 C   0  0  0  0  0  0  0  0  0  0  0  0
    4.5930   -1.2551   -0.1109 C   0  0  0  0  0  0  0  0  0  0  0  0
    4.7574    6.0108   -0.1179 C   0  0  0  0  0  0  0  0  0  0  0  0
    5.4298    2.3609   -0.1141 C   0  0  0  0  0  0  0  0  0  0  0  0
    2.4999    0.0298   -0.1266 C   0  0  0  0  0  0  0  0  0  0  0  0
    2.6083    4.8218   -0.1317 C   0  0  0  0  0  0  0  0  0  0  0  0
    4.7136    1.1638   -0.1164 C   0  0  0  0  0  0  0  0  0  0  0  0
    4.7684    3.5890   -0.1195 C   0  0  0  0  0  0  0  0  0  0  0  0
    3.1623   -1.1914   -0.1157 C   0  0  0  0  0  0  0  0  0  0  0  0
    3.3253    6.0116   -0.1216 C   0  0  0  0  0  0  0  0  0  0  0  0
    3.2687    1.2425   -0.1262 C   0  0  0  0  0  0  0  0  0  0  0  0
    3.3214    3.5753   -0.1287 C   0  0  0  0  0  0  0  0  0  0  0  0
    2.4560   -2.3935   -0.1674 N   0  0  0  0  0  0  0  0  0  0  0  0
    2.6740    7.2445   -0.1714 N   0  0  0  0  0  0  0  0  0  0  0  0
    2.6244    2.4242   -0.1321 N   0  0  0  0  0  0  0  0  0  0  0  0
    0.5547   -0.3802    0.7521 H   0  0  0  0  0  0  0  0  0  0  0  0
    0.5876   -0.4629   -1.0155 H   0  0  0  0  0  0  0  0  0  0  0  0
    0.6544    1.1115   -0.1946 H   0  0  0  0  0  0  0  0  0  0  0  0
    0.6848    5.3109    0.7544 H   0  0  0  0  0  0  0  0  0  0  0  0
    0.7162    3.8247   -0.2055 H   0  0  0  0  0  0  0  0  0  0  0  0
    0.7187    5.4080   -1.0124 H   0  0  0  0  0  0  0  0  0  0  0  0
    6.4288   -0.1676   -0.1050 H   0  0  0  0  0  0  0  0  0  0  0  0
    6.5423    4.8408   -0.1107 H   0  0  0  0  0  0  0  0  0  0  0  0
    5.0732   -2.2313   -0.1149 H   0  0  0  0  0  0  0  0  0  0  0  0
    5.2810    6.9644   -0.1216 H   0  0  0  0  0  0  0  0  0  0  0  0
    6.5188    2.3361   -0.1089 H   0  0  0  0  0  0  0  0  0  0  0  0
    2.9539   -3.2012    0.1848 H   0  0  0  0  0  0  0  0  0  0  0  0
    1.5039   -2.3577    0.1726 H   0  0  0  0  0  0  0  0  0  0  0  0
    3.2085    8.0286    0.1806 H   0  0  0  0  0  0  0  0  0  0  0  0
    1.7220    7.2512    0.1705 H   0  0  0  0  0  0  0  0  0  0  0  0
  1  8  1  0  0  0  0
  1 19  1  0  0  0  0
  2  9  1  0  0  0  0
  2 22  1  0  0  0  0
  3 25  1  0  0  0  0
  4 26  1  0  0  0  0
  5  3  1  0  0  0  0
  6  4  2  0  0  0  0
  7 29  1  0  0  0  0
  8 14  2  0  0  0  0
  8 12  1  0  0  0  0
  9 15  1  0  0  0  0
  9 13  2  0  0  0  0
 10  7  1  0  0  0  0
 10  3  2  0  0  0  0
 11  4  1  0  0  0  0
 11  7  2  0  0  0  0
 12  5  2  0  0  0  0
 13  6  1  0  0  0  0
 14 10  1  0  0  0  0
 15 11  1  0  0  0  0
 16 12  1  0  0  0  0
 16 31  1  0  0  0  0
 16 30  1  0  0  0  0
 17 13  1  0  0  0  0
 17 33  1  0  0  0  0
 17 32  1  0  0  0  0
 18 15  2  0  0  0  0
 18 14  1  0  0  0  0
 20  1  1  0  0  0  0
 21  1  1  0  0  0  0
 23  2  1  0  0  0  0
 24  2  1  0  0  0  0
 27  5  1  0  0  0  0
 28  6  1  0  0  0  0
M  END
>  <HBA>
3

>  <HBD>
2

>  <TPSA>
64.93

>  <cid>
38518

>  <dipole>
2.16

>  <excitation_energy_1>
2.989

>  <excitation_energy_2>
3.386

>  <excitation_energy_3>
3.861

>  <excitation_energy_4>
4.174

>  <homo_energy>
-4.825

>  <homo_lumo_gap>
3.437

>  <logP>
4.332

>  <lumo_energy>
-1.388

>  <melting_point>
218.49

>  <molecular_refractivity>
77.99

>  <oscillator_strength_1>
0.028

>  <oscillator_strength_2>
0.17

>  <oscillator_strength_3>
0.0005

>  <oscillator_strength_4>
0.1268

>  <open_babel_can_smiles>
Cc1c(N)ccc2c1nc1c(c2)ccc(c1C)N

>  <mulliken_charges>
33
1   -0.564042
2   -0.564207
3   -0.202683
4   -0.202696
5   -0.167986
6   -0.167997
7   -0.244033
8   0.119772
9   0.119666
10   0.16635
11   0.166282
12   0.238724
13   0.238685
14   0.209651
15   0.209639
16   -0.794363
17   -0.794337
18   -0.668408
19   0.137213
20   0.155277
21   0.199232
22   0.137577
23   0.19927
24   0.155025
25   0.126998
26   0.127069
27   0.119594
28   0.119593
29   0.129334
30   0.319849
31   0.328047
32   0.319835
33   0.32807

>  <lowdin_charges>
33
1   -0.451927
2   -0.452189
3   -0.148053
4   -0.147998
5   -0.187794
6   -0.188112
7   -0.124022
8   -0.061125
9   -0.061274
10   -0.036341
11   -0.036395
12   0.053413
13   0.053706
14   0.050923
15   0.050977
16   -0.481355
17   -0.481764
18   -0.189267
19   0.145455
20   0.155115
21   0.178203
22   0.145603
23   0.178479
24   0.154993
25   0.154896
26   0.154893
27   0.153453
28   0.153726
29   0.154378
30   0.276214
31   0.278394
32   0.276375
33   0.278419

$$$$

