PCCDB-ID:  70767
public computational chemistry database (PCCDB) project, http://pccdb.org

 29 29  0  0  0  0  0  0  0  0999 V2000
    4.4817    0.1176   -0.3525 C   0  0  0  0  0  0  0  0  0  0  0  0
    4.3691   -1.3852    1.6937 C   0  0  0  0  0  0  0  0  0  0  0  0
   -0.6776   -3.3616   -0.5888 C   0  0  0  0  0  0  0  0  0  0  0  0
   -0.6960   -1.8289   -0.6850 C   0  0  0  0  0  0  0  0  0  0  0  0
    0.6904   -3.8706   -0.1122 C   0  0  0  0  0  0  0  0  0  0  0  0
    0.4474   -1.2950   -1.5655 C   0  0  0  0  0  0  0  0  0  0  0  0
    1.8138   -3.3844   -1.0395 C   0  0  0  0  0  0  0  0  0  0  0  0
    3.9457   -1.2084    0.2313 C   0  0  0  0  0  0  0  0  0  0  0  0
    1.8411   -1.8357   -1.1809 C   0  0  0  0  0  0  0  0  0  0  0  0
    2.4160   -1.2053    0.0881 C   0  0  0  0  0  0  0  0  0  0  0  0
    1.7152   -0.6938    0.9454 O   0  0  0  0  0  0  0  0  0  0  0  0
    5.5755    0.1434   -0.2934 H   0  0  0  0  0  0  0  0  0  0  0  0
    4.0874    0.9689    0.2133 H   0  0  0  0  0  0  0  0  0  0  0  0
    4.1993    0.2478   -1.4038 H   0  0  0  0  0  0  0  0  0  0  0  0
    5.4584   -1.3179    1.7916 H   0  0  0  0  0  0  0  0  0  0  0  0
    4.0526   -2.3583    2.0861 H   0  0  0  0  0  0  0  0  0  0  0  0
    3.9117   -0.6109    2.3163 H   0  0  0  0  0  0  0  0  0  0  0  0
   -0.8974   -3.7963   -1.5762 H   0  0  0  0  0  0  0  0  0  0  0  0
   -1.4686   -3.7080    0.0883 H   0  0  0  0  0  0  0  0  0  0  0  0
   -0.6028   -1.3984    0.3170 H   0  0  0  0  0  0  0  0  0  0  0  0
   -1.6563   -1.4901   -1.0952 H   0  0  0  0  0  0  0  0  0  0  0  0
    0.6996   -4.9674   -0.0719 H   0  0  0  0  0  0  0  0  0  0  0  0
    0.8737   -3.5154    0.9111 H   0  0  0  0  0  0  0  0  0  0  0  0
    0.4579   -0.1989   -1.5372 H   0  0  0  0  0  0  0  0  0  0  0  0
    0.2585   -1.5820   -2.6103 H   0  0  0  0  0  0  0  0  0  0  0  0
    1.6612   -3.8092   -2.0415 H   0  0  0  0  0  0  0  0  0  0  0  0
    2.7874   -3.7547   -0.6930 H   0  0  0  0  0  0  0  0  0  0  0  0
    4.3516   -2.0313   -0.3723 H   0  0  0  0  0  0  0  0  0  0  0  0
    2.5482   -1.5986   -1.9896 H   0  0  0  0  0  0  0  0  0  0  0  0
  1 12  1  0  0  0  0
  1 13  1  0  0  0  0
  1  8  1  0  0  0  0
  2 15  1  0  0  0  0
  2 16  1  0  0  0  0
  2 17  1  0  0  0  0
  3  5  1  0  0  0  0
  3 19  1  0  0  0  0
  4  3  1  0  0  0  0
  4 20  1  0  0  0  0
  5 22  1  0  0  0  0
  5 23  1  0  0  0  0
  6 24  1  0  0  0  0
  6  9  1  0  0  0  0
  6  4  1  0  0  0  0
  7 27  1  0  0  0  0
  7  5  1  0  0  0  0
  8  2  1  0  0  0  0
  9  7  1  0  0  0  0
  9 10  1  0  0  0  0
 10  8  1  0  0  0  0
 10 11  2  0  0  0  0
 14  1  1  0  0  0  0
 18  3  1  0  0  0  0
 21  4  1  0  0  0  0
 25  6  1  0  0  0  0
 26  7  1  0  0  0  0
 28  8  1  0  0  0  0
 29  9  1  0  0  0  0
M  END
>  <HBA>
1

>  <HBD>
0

>  <TPSA>
17.07

>  <cid>
70767

>  <dipole>
2.36

>  <excitation_energy_1>
4.189

>  <excitation_energy_2>
5.748

>  <excitation_energy_3>
6.309

>  <excitation_energy_4>
6.369

>  <homo_energy>
-6.346

>  <homo_lumo_gap>
6.025

>  <logP>
2.792

>  <lumo_energy>
-0.321

>  <melting_point>
14.75

>  <molecular_refractivity>
48.27

>  <oscillator_strength_1>
0.0004

>  <oscillator_strength_2>
0.0015

>  <oscillator_strength_3>
0.0059

>  <oscillator_strength_4>
0.0025

>  <open_babel_can_smiles>
CC(C(=O)C1CCCCC1)C

>  <mulliken_charges>
29
1   -0.45435
2   -0.442239
3   -0.255848
4   -0.262656
5   -0.260438
6   -0.259114
7   -0.278122
8   -0.152198
9   -0.172295
10   0.46056
11   -0.465699
12   0.152708
13   0.164765
14   0.147068
15   0.138252
16   0.144988
17   0.170014
18   0.121456
19   0.131387
20   0.166599
21   0.1246
22   0.130924
23   0.145391
24   0.139693
25   0.124721
26   0.139058
27   0.136672
28   0.132106
29   0.132001

>  <lowdin_charges>
29
1   -0.435826
2   -0.440027
3   -0.2781
4   -0.282609
5   -0.277805
6   -0.269774
7   -0.27255
8   -0.154694
9   -0.163227
10   0.16613
11   -0.243421
12   0.152727
13   0.159152
14   0.148445
15   0.146622
16   0.150866
17   0.163743
18   0.13314
19   0.145253
20   0.156031
21   0.141225
22   0.142093
23   0.144859
24   0.147406
25   0.137906
26   0.144259
27   0.143338
28   0.144469
29   0.150371

$$$$

