PCCDB-ID:  8067
public computational chemistry database (PCCDB) project, http://pccdb.org

 18 17  0  0  0  0  0  0  0  0999 V2000
    0.9997   -0.0297    0.1400 C   0  0  0  0  0  0  0  0  0  0  0  0
    2.5310    0.0015    0.1108 C   0  0  0  0  0  0  0  0  0  0  0  0
    3.0961    1.2260   -0.6214 C   0  0  0  0  0  0  0  0  0  0  0  0
    4.6315    1.2617   -0.6445 C   0  0  0  0  0  0  0  0  0  0  0  0
    5.1773    2.4906   -1.3737 C   0  0  0  0  0  0  0  0  0  0  0  0
    7.0167    2.5599   -1.4903 S   0  0  0  0  0  0  0  0  0  0  0  0
    0.6285   -0.9145    0.6694 H   0  0  0  0  0  0  0  0  0  0  0  0
    0.5836   -0.0500   -0.8748 H   0  0  0  0  0  0  0  0  0  0  0  0
    0.5944    0.8555    0.6457 H   0  0  0  0  0  0  0  0  0  0  0  0
    2.9077   -0.9125   -0.3694 H   0  0  0  0  0  0  0  0  0  0  0  0
    2.9177   -0.0144    1.1397 H   0  0  0  0  0  0  0  0  0  0  0  0
    2.7151    2.1410   -0.1441 H   0  0  0  0  0  0  0  0  0  0  0  0
    2.7149    1.2398   -1.6532 H   0  0  0  0  0  0  0  0  0  0  0  0
    5.0214    0.3554   -1.1247 H   0  0  0  0  0  0  0  0  0  0  0  0
    5.0115    1.2528    0.3869 H   0  0  0  0  0  0  0  0  0  0  0  0
    4.8151    3.4161   -0.9138 H   0  0  0  0  0  0  0  0  0  0  0  0
    4.8426    2.4997   -2.4170 H   0  0  0  0  0  0  0  0  0  0  0  0
    7.2571    2.6029   -0.1611 H   0  0  0  0  0  0  0  0  0  0  0  0
  1  9  1  0  0  0  0
  1  7  1  0  0  0  0
  2  1  1  0  0  0  0
  2 11  1  0  0  0  0
  3 12  1  0  0  0  0
  3  2  1  0  0  0  0
  4  3  1  0  0  0  0
  4 15  1  0  0  0  0
  5 16  1  0  0  0  0
  5  4  1  0  0  0  0
  6  5  1  0  0  0  0
  6 18  1  0  0  0  0
  8  1  1  0  0  0  0
 10  2  1  0  0  0  0
 13  3  1  0  0  0  0
 14  4  1  0  0  0  0
 17  5  1  0  0  0  0
M  END
>  <HBA>
1

>  <HBD>
1

>  <TPSA>
38.8

>  <cid>
8067

>  <dipole>
1.97

>  <excitation_energy_1>
5.249

>  <excitation_energy_2>
5.864

>  <excitation_energy_3>
6.413

>  <excitation_energy_4>
6.45

>  <homo_energy>
-6.34

>  <homo_lumo_gap>
7.138

>  <logP>
2.106

>  <lumo_energy>
0.797

>  <melting_point>
-5.64

>  <molecular_refractivity>
34.08

>  <oscillator_strength_1>
0.0112

>  <oscillator_strength_2>
0.0321

>  <oscillator_strength_3>
0.01

>  <oscillator_strength_4>
0.0021

>  <open_babel_can_smiles>
CCCCCS

>  <mulliken_charges>
18
1   -0.441958
2   -0.247408
3   -0.250473
4   -0.244475
5   -0.414379
6   -0.085362
7   0.14435
8   0.142963
9   0.142299
10   0.134407
11   0.132447
12   0.129514
13   0.131218
14   0.152212
15   0.133725
16   0.173916
17   0.176412
18   0.090592

>  <lowdin_charges>
18
1   -0.444871
2   -0.270478
3   -0.275259
4   -0.27923
5   -0.368838
6   -0.087386
7   0.15135
8   0.146425
9   0.147397
10   0.141334
11   0.138948
12   0.138974
13   0.138439
14   0.151671
15   0.140696
16   0.157751
17   0.164685
18   0.10839

$$$$

