PCCDB-ID:  12976
public computational chemistry database (PCCDB) project, http://pccdb.org

 14 13  0  0  1  0  0  0  0  0999 V2000
    2.8555   -0.9606   -1.6940 C   0  0  0  0  0  0  0  0  0  0  0  0
    0.6298   -1.6050    1.8608 C   0  0  0  0  0  0  0  0  0  0  0  0
    2.6110   -1.5338    0.6141 C   0  0  2  0  0  0  0  0  0  0  0  0
    0.0072   -0.9408    2.7529 N   0  0  0  0  0  0  0  0  0  0  0  0
    2.0139   -1.7176    1.7265 N   0  0  0  0  0  0  0  0  0  0  0  0
   -0.0675   -2.3705    0.9803 O   0  0  0  0  0  0  0  0  0  0  0  0
    3.9425   -1.7235    0.5195 O   0  0  0  0  0  0  0  0  0  0  0  0
    2.0441   -1.1177   -0.5160 O   0  0  0  0  0  0  0  0  0  0  0  0
    2.1631   -0.6302   -2.4684 H   0  0  0  0  0  0  0  0  0  0  0  0
    3.3147   -1.9106   -1.9782 H   0  0  0  0  0  0  0  0  0  0  0  0
    3.6319   -0.2081   -1.5343 H   0  0  0  0  0  0  0  0  0  0  0  0
    0.6737   -0.4411    3.3415 H   0  0  0  0  0  0  0  0  0  0  0  0
   -1.0025   -2.2339    1.2182 H   0  0  0  0  0  0  0  0  0  0  0  0
    4.2261   -2.0295    1.3993 H   0  0  0  0  0  0  0  0  0  0  0  0
  1 11  1  0  0  0  0
  1  8  1  0  0  0  0
  2  4  1  0  0  0  0
  3  8  1  1  0  0  0
  3  5  1  0  0  0  0
  4 12  1  0  0  0  0
  5  2  2  0  0  0  0
  6 13  1  0  0  0  0
  6  2  1  0  0  0  0
  7  3  1  0  0  0  0
  7 14  1  0  0  0  0
  9  1  1  0  0  0  0
 10  1  1  0  0  0  0
M  RAD  2   3   2   4   2
M  END
>  <HBA>
5

>  <HBD>
2

>  <TPSA>
81.42

>  <cid>
12976

>  <dipole>
3.88

>  <excitation_energy_1>
5.835

>  <excitation_energy_2>
6.006

>  <excitation_energy_3>
6.089

>  <excitation_energy_4>
6.392

>  <homo_energy>
-6.493

>  <homo_lumo_gap>
6.759

>  <logP>
0.512

>  <lumo_energy>
0.267

>  <melting_point>
111.36

>  <molecular_refractivity>
24.31

>  <oscillator_strength_1>
0.0344

>  <oscillator_strength_2>
0.1153

>  <oscillator_strength_3>
0.0561

>  <oscillator_strength_4>
0.0086

>  <open_babel_can_smiles>
CO[C](/N=C(/O)\[NH])O

>  <mulliken_charges>
14
1   -0.215804
2   0.587835
3   0.755248
4   -0.630962
5   -0.548186
6   -0.580928
7   -0.594
8   -0.439774
9   0.180661
10   0.176274
11   0.174459
12   0.28834
13   0.413337
14   0.433499

>  <lowdin_charges>
14
1   -0.271512
2   0.159961
3   0.221172
4   -0.455047
5   -0.261666
6   -0.372507
7   -0.351782
8   -0.165585
9   0.170669
10   0.161984
11   0.161171
12   0.263089
13   0.362319
14   0.377733

$$$$

