PCCDB-ID:  19040
public computational chemistry database (PCCDB) project, http://pccdb.org

 22 21  0  0  1  0  0  0  0  0999 V2000
    3.9293    3.8805   -1.1781 C   0  0  0  0  0  0  0  0  0  0  0  0
    4.9968   -3.3521   -1.1009 C   0  0  0  0  0  0  0  0  0  0  0  0
    3.5252    2.8482   -0.4319 C   0  0  0  0  0  0  0  0  0  0  0  0
    5.2521   -1.9322   -0.5860 C   0  0  0  0  0  0  0  0  0  0  0  0
    3.2812    1.4553   -0.9452 C   0  0  0  0  0  0  0  0  0  0  0  0
    4.1667   -0.9383   -1.0186 C   0  0  0  0  0  0  0  0  0  0  0  0
    4.4164    0.4896   -0.5339 C   0  0  1  0  0  0  0  0  0  0  0  0
    5.6589    0.9158   -1.0847 O   0  0  0  0  0  0  0  0  0  0  0  0
    4.1237    4.8591   -0.7468 H   0  0  0  0  0  0  0  0  0  0  0  0
    4.0574    3.7890   -2.2550 H   0  0  0  0  0  0  0  0  0  0  0  0
    5.7858   -4.0409   -0.7779 H   0  0  0  0  0  0  0  0  0  0  0  0
    4.9638   -3.3759   -2.1973 H   0  0  0  0  0  0  0  0  0  0  0  0
    4.0407   -3.7461   -0.7336 H   0  0  0  0  0  0  0  0  0  0  0  0
    3.4054    2.9901    0.6440 H   0  0  0  0  0  0  0  0  0  0  0  0
    6.2226   -1.5720   -0.9448 H   0  0  0  0  0  0  0  0  0  0  0  0
    5.3128   -1.9449    0.5119 H   0  0  0  0  0  0  0  0  0  0  0  0
    3.2124    1.4611   -2.0402 H   0  0  0  0  0  0  0  0  0  0  0  0
    2.3299    1.0711   -0.5519 H   0  0  0  0  0  0  0  0  0  0  0  0
    3.1888   -1.2696   -0.6408 H   0  0  0  0  0  0  0  0  0  0  0  0
    4.0969   -0.9224   -2.1154 H   0  0  0  0  0  0  0  0  0  0  0  0
    4.4793    0.4808    0.5703 H   0  0  0  0  0  0  0  0  0  0  0  0
    5.7321    1.8705   -0.9157 H   0  0  0  0  0  0  0  0  0  0  0  0
  1  9  1  0  0  0  0
  1  3  2  0  0  0  0
  2 11  1  0  0  0  0
  2 13  1  0  0  0  0
  2  4  1  0  0  0  0
  3 14  1  0  0  0  0
  4 16  1  0  0  0  0
  5 18  1  0  0  0  0
  5  7  1  0  0  0  0
  5  3  1  0  0  0  0
  6 19  1  0  0  0  0
  6  4  1  0  0  0  0
  6  7  1  0  0  0  0
  7 21  1  1  0  0  0
  8 22  1  0  0  0  0
  8  7  1  0  0  0  0
 10  1  1  0  0  0  0
 12  2  1  0  0  0  0
 15  4  1  0  0  0  0
 17  5  1  0  0  0  0
 20  6  1  0  0  0  0
M  END
>  <HBA>
1

>  <HBD>
1

>  <TPSA>
20.23

>  <cid>
19040

>  <dipole>
1.58

>  <excitation_energy_1>
6.195

>  <excitation_energy_2>
6.506

>  <excitation_energy_3>
6.934

>  <excitation_energy_4>
6.99

>  <homo_energy>
-6.887

>  <homo_lumo_gap>
7.143

>  <logP>
1.724

>  <lumo_energy>
0.256

>  <melting_point>
-29.21

>  <molecular_refractivity>
36.45

>  <oscillator_strength_1>
0.056

>  <oscillator_strength_2>
0.0092

>  <oscillator_strength_3>
0.0517

>  <oscillator_strength_4>
0.0204

>  <open_babel_can_smiles>
CCC[C@H](CC=C)O

>  <mulliken_charges>
22
1   -0.341312
2   -0.443136
3   -0.078307
4   -0.251165
5   -0.315831
6   -0.250645
7   0.146435
8   -0.636068
9   0.145283
10   0.147526
11   0.141603
12   0.14184
13   0.136651
14   0.13268
15   0.161326
16   0.124555
17   0.147495
18   0.139901
19   0.122514
20   0.13544
21   0.104164
22   0.389051

>  <lowdin_charges>
22
1   -0.341882
2   -0.443256
3   -0.14951
4   -0.270474
5   -0.290164
6   -0.276982
7   0.00592
8   -0.469187
9   0.160379
10   0.157183
11   0.150085
12   0.144306
13   0.143347
14   0.150078
15   0.154418
16   0.134836
17   0.1508
18   0.15352
19   0.139799
20   0.142664
21   0.115555
22   0.338566

$$$$

