PCCDB-ID:  32151
public computational chemistry database (PCCDB) project, http://pccdb.org

 34 35  0  0  0  0  0  0  0  0999 V2000
    2.0396    1.4038   -0.4127 C   0  0  0  0  0  0  0  0  0  0  0  0
    2.3410    0.0863    1.5850 C   0  0  0  0  0  0  0  0  0  0  0  0
    0.4380   -6.8109    0.7074 C   0  0  0  0  0  0  0  0  0  0  0  0
    3.0731   -6.3200   -2.6708 C   0  0  0  0  0  0  0  0  0  0  0  0
    4.6042   -1.5715   -2.0992 C   0  0  0  0  0  0  0  0  0  0  0  0
    4.3090   -2.9036   -1.9459 C   0  0  0  0  0  0  0  0  0  0  0  0
    3.8676   -0.5754   -1.4134 C   0  0  0  0  0  0  0  0  0  0  0  0
    1.2992   -2.7080    0.2779 C   0  0  0  0  0  0  0  0  0  0  0  0
    0.9707   -4.0422    0.4023 C   0  0  0  0  0  0  0  0  0  0  0  0
    2.4382   -2.2958   -0.4528 C   0  0  0  0  0  0  0  0  0  0  0  0
    3.2145   -3.2965   -1.1257 C   0  0  0  0  0  0  0  0  0  0  0  0
    2.8162   -0.9124   -0.5807 C   0  0  0  0  0  0  0  0  0  0  0  0
    1.7663   -5.0403   -0.2065 C   0  0  0  0  0  0  0  0  0  0  0  0
    2.8633   -4.6664   -0.9787 C   0  0  0  0  0  0  0  0  0  0  0  0
    2.0683    0.0601    0.1453 N   0  0  0  0  0  0  0  0  0  0  0  0
    1.5184   -6.3832   -0.1054 O   0  0  0  0  0  0  0  0  0  0  0  0
    3.6648   -5.6102   -1.5797 O   0  0  0  0  0  0  0  0  0  0  0  0
    1.2535    1.9771    0.0919 H   0  0  0  0  0  0  0  0  0  0  0  0
    1.8037    1.3573   -1.4793 H   0  0  0  0  0  0  0  0  0  0  0  0
    2.9873    1.9595   -0.2871 H   0  0  0  0  0  0  0  0  0  0  0  0
    1.5591    0.6626    2.0933 H   0  0  0  0  0  0  0  0  0  0  0  0
    3.3172    0.5495    1.8165 H   0  0  0  0  0  0  0  0  0  0  0  0
    2.3418   -0.9275    1.9894 H   0  0  0  0  0  0  0  0  0  0  0  0
    0.4565   -7.9020    0.6755 H   0  0  0  0  0  0  0  0  0  0  0  0
   -0.5280   -6.4558    0.3240 H   0  0  0  0  0  0  0  0  0  0  0  0
    0.5570   -6.4782    1.7468 H   0  0  0  0  0  0  0  0  0  0  0  0
    2.7438   -5.6267   -3.4562 H   0  0  0  0  0  0  0  0  0  0  0  0
    2.2259   -6.9276   -2.3384 H   0  0  0  0  0  0  0  0  0  0  0  0
    3.8565   -6.9701   -3.0680 H   0  0  0  0  0  0  0  0  0  0  0  0
    5.4316   -1.2689   -2.7361 H   0  0  0  0  0  0  0  0  0  0  0  0
    4.8906   -3.6716   -2.4421 H   0  0  0  0  0  0  0  0  0  0  0  0
    4.1586    0.4635   -1.5283 H   0  0  0  0  0  0  0  0  0  0  0  0
    0.6590   -1.9528    0.7194 H   0  0  0  0  0  0  0  0  0  0  0  0
    0.0874   -4.3211    0.9655 H   0  0  0  0  0  0  0  0  0  0  0  0
  1 20  1  0  0  0  0
  1 18  1  0  0  0  0
  1 15  1  0  0  0  0
  2 22  1  0  0  0  0
  2 23  1  0  0  0  0
  2 21  1  0  0  0  0
  3 26  1  0  0  0  0
  4 28  1  0  0  0  0
  4 17  1  0  0  0  0
  5  6  2  0  0  0  0
  5  7  1  0  0  0  0
  6 11  1  0  0  0  0
  7 12  2  0  0  0  0
  8  9  1  0  0  0  0
  8 33  1  0  0  0  0
  9 34  1  0  0  0  0
 10  8  2  0  0  0  0
 11 14  2  0  0  0  0
 11 10  1  0  0  0  0
 12 10  1  0  0  0  0
 12 15  1  0  0  0  0
 13 16  1  0  0  0  0
 13  9  2  0  0  0  0
 14 13  1  0  0  0  0
 15  2  1  0  0  0  0
 16  3  1  0  0  0  0
 17 14  1  0  0  0  0
 19  1  1  0  0  0  0
 24  3  1  0  0  0  0
 25  3  1  0  0  0  0
 27  4  1  0  0  0  0
 29  4  1  0  0  0  0
 30  5  1  0  0  0  0
 31  6  1  0  0  0  0
 32  7  1  0  0  0  0
M  END
>  <HBA>
3

>  <HBD>
0

>  <TPSA>
21.7

>  <cid>
32151

>  <dipole>
2.11

>  <excitation_energy_1>
3.735

>  <excitation_energy_2>
4.108

>  <excitation_energy_3>
4.433

>  <excitation_energy_4>
4.728

>  <homo_energy>
-4.982

>  <homo_lumo_gap>
4.272

>  <logP>
2.923

>  <lumo_energy>
-0.71

>  <melting_point>
70.22

>  <molecular_refractivity>
71.14

>  <oscillator_strength_1>
0.1283

>  <oscillator_strength_2>
0.0006

>  <oscillator_strength_3>
0.0619

>  <oscillator_strength_4>
0.004

>  <open_babel_can_smiles>
COc1c(OC)ccc2c1cccc2N(C)C

>  <mulliken_charges>
34
1   -0.303269
2   -0.307777
3   -0.213568
4   -0.210628
5   -0.146675
6   -0.179661
7   -0.19176
8   -0.203611
9   -0.204841
10   0.095213
11   0.080539
12   0.227207
13   0.35398
14   0.213924
15   -0.455256
16   -0.513201
17   -0.522302
18   0.150099
19   0.163013
20   0.127556
21   0.147252
22   0.133074
23   0.166053
24   0.169601
25   0.150579
26   0.153697
27   0.14087
28   0.161921
29   0.155586
30   0.124208
31   0.138472
32   0.122274
33   0.146136
34   0.131298

>  <lowdin_charges>
34
1   -0.354025
2   -0.352047
3   -0.273337
4   -0.278527
5   -0.154581
6   -0.172048
7   -0.201194
8   -0.162213
9   -0.204074
10   -0.023473
11   -0.01059
12   0.045282
13   0.072515
14   0.059817
15   -0.152646
16   -0.197844
17   -0.221987
18   0.152531
19   0.156907
20   0.125554
21   0.14891
22   0.12978
23   0.160028
24   0.160326
25   0.143332
26   0.144841
27   0.140578
28   0.150024
29   0.155595
30   0.156168
31   0.167572
32   0.156953
33   0.169121
34   0.162752

$$$$

