PCCDB-ID:  18058
public computational chemistry database (PCCDB) project, http://pccdb.org

 19 19  0  0  1  0  0  0  0  0999 V2000
    0.9376   -0.0178    0.4467 C   0  0  0  0  0  0  0  0  0  0  0  0
    3.1257   -1.3065    0.2422 C   0  0  2  0  0  0  0  0  0  0  0  0
    3.1515    1.1604    0.3756 C   0  0  0  0  0  0  0  0  0  0  0  0
    3.9252   -0.0968    2.0621 C   0  0  0  0  0  0  0  0  0  0  0  0
    2.3487   -0.0327   -0.1465 C   0  0  2  0  0  0  0  0  0  0  0  0
    3.6495   -1.2684    1.5857 N   0  0  0  0  0  0  0  0  0  0  0  0
    3.8335    1.1533    1.4634 N   0  0  0  0  0  0  0  0  0  0  0  0
    4.1764   -1.4159   -0.7284 O   0  0  0  0  0  0  0  0  0  0  0  0
    3.0858    2.2573   -0.3702 O   0  0  0  0  0  0  0  0  0  0  0  0
    4.4254   -0.0083    3.3051 O   0  0  0  0  0  0  0  0  0  0  0  0
    2.2216    0.0980   -1.5653 O   0  0  0  0  0  0  0  0  0  0  0  0
    0.9679   -0.1140    1.5355 H   0  0  0  0  0  0  0  0  0  0  0  0
    0.3668   -0.8529    0.0293 H   0  0  0  0  0  0  0  0  0  0  0  0
    0.4260    0.9146    0.1892 H   0  0  0  0  0  0  0  0  0  0  0  0
    2.4600   -2.1757    0.1534 H   0  0  0  0  0  0  0  0  0  0  0  0
    4.8881   -1.9289   -0.3135 H   0  0  0  0  0  0  0  0  0  0  0  0
    2.6303    1.9763   -1.1958 H   0  0  0  0  0  0  0  0  0  0  0  0
    4.4750   -0.9251    3.6322 H   0  0  0  0  0  0  0  0  0  0  0  0
    3.0275   -0.3103   -1.9379 H   0  0  0  0  0  0  0  0  0  0  0  0
  1 12  1  0  0  0  0
  2 15  1  6  0  0  0
  2  6  1  0  0  0  0
  3  7  2  0  0  0  0
  4 10  1  0  0  0  0
  5 11  1  6  0  0  0
  5  2  1  0  0  0  0
  5  3  1  0  0  0  0
  5  1  1  0  0  0  0
  6  4  2  0  0  0  0
  7  4  2  0  0  0  0
  8 16  1  0  0  0  0
  8  2  1  0  0  0  0
  9  3  1  0  0  0  0
 10 18  1  0  0  0  0
 13  1  1  0  0  0  0
 14  1  1  0  0  0  0
 17  9  1  0  0  0  0
 19 11  1  0  0  0  0
M  END
>  <HBA>
6

>  <HBD>
4

>  <TPSA>
98.66

>  <cid>
18058

>  <dipole>
2.92

>  <excitation_energy_1>
4.31

>  <excitation_energy_2>
5.143

>  <excitation_energy_3>
5.927

>  <excitation_energy_4>
5.972

>  <homo_energy>
-6.759

>  <homo_lumo_gap>
5.657

>  <logP>
-1.447

>  <lumo_energy>
-1.102

>  <melting_point>
152.41

>  <molecular_refractivity>
40.62

>  <oscillator_strength_1>
0.0017

>  <oscillator_strength_2>
0.0709

>  <oscillator_strength_3>
0.0027

>  <oscillator_strength_4>
0.0063

>  <open_babel_can_smiles>
O[C@H]1N=[C](=[N]=C([C@@]1(C)O)O)O

>  <mulliken_charges>
19
1   -0.446947
2   0.221919
3   0.538596
4   0.615058
5   0.197424
6   -0.511928
7   -0.47666
8   -0.656418
9   -0.57418
10   -0.570748
11   -0.677231
12   0.173391
13   0.171879
14   0.165124
15   0.137433
16   0.410038
17   0.435595
18   0.414745
19   0.432911

>  <lowdin_charges>
19
1   -0.43832
2   0.035138
3   0.150119
4   0.166462
5   0.067208
6   -0.310298
7   -0.195663
8   -0.479556
9   -0.308341
10   -0.329007
11   -0.450547
12   0.167693
13   0.168159
14   0.164507
15   0.14075
16   0.358891
17   0.368967
18   0.362649
19   0.36119

$$$$

