PCCDB-ID:  512
public computational chemistry database (PCCDB) project, http://pccdb.org

 26 26  0  0  0  0  0  0  0  0999 V2000
   -0.8889   -0.3024    2.4059 C   0  0  0  0  0  0  0  0  0  0  0  0
   -1.0022   -0.6600    1.0587 C   0  0  0  0  0  0  0  0  0  0  0  0
    0.2646    0.3362    2.8640 C   0  0  0  0  0  0  0  0  0  0  0  0
    3.1990    2.8213    0.1666 C   0  0  0  0  0  0  0  0  0  0  0  0
    0.0341   -0.3789    0.1751 C   0  0  0  0  0  0  0  0  0  0  0  0
    1.3039    0.6199    1.9784 C   0  0  0  0  0  0  0  0  0  0  0  0
    3.5144    1.3615    0.0313 C   0  0  0  0  0  0  0  0  0  0  0  0
    3.6760    3.7811   -0.6430 C   0  0  0  0  0  0  0  0  0  0  0  0
    1.1985    0.2670    0.6238 C   0  0  0  0  0  0  0  0  0  0  0  0
    2.2742    0.5374   -0.3796 C   0  0  0  0  0  0  0  0  0  0  0  0
    3.2987    5.1911   -0.4290 C   0  0  0  0  0  0  0  0  0  0  0  0
    3.9225    6.1819   -1.4366 C   0  0  0  0  0  0  0  0  0  0  0  0
    2.1886    0.1310   -1.5255 O   0  0  0  0  0  0  0  0  0  0  0  0
    2.5656    5.5961    0.4555 O   0  0  0  0  0  0  0  0  0  0  0  0
    3.5144    7.4426   -1.2252 O   0  0  0  0  0  0  0  0  0  0  0  0
    4.6930    5.8528   -2.3132 O   0  0  0  0  0  0  0  0  0  0  0  0
   -1.6981   -0.5216    3.0971 H   0  0  0  0  0  0  0  0  0  0  0  0
   -1.8994   -1.1574    0.7010 H   0  0  0  0  0  0  0  0  0  0  0  0
    0.3561    0.6134    3.9103 H   0  0  0  0  0  0  0  0  0  0  0  0
    2.5237    3.1246    0.9657 H   0  0  0  0  0  0  0  0  0  0  0  0
   -0.0323   -0.6473   -0.8740 H   0  0  0  0  0  0  0  0  0  0  0  0
    2.1953    1.1119    2.3543 H   0  0  0  0  0  0  0  0  0  0  0  0
    3.9085    0.9776    0.9823 H   0  0  0  0  0  0  0  0  0  0  0  0
    4.2646    1.1977   -0.7456 H   0  0  0  0  0  0  0  0  0  0  0  0
    4.3457    3.5612   -1.4678 H   0  0  0  0  0  0  0  0  0  0  0  0
    3.9571    7.9895   -1.9017 H   0  0  0  0  0  0  0  0  0  0  0  0
  1  3  1  0  0  0  0
  1 17  1  0  0  0  0
  2  1  2  0  0  0  0
  3 19  1  0  0  0  0
  4 20  1  0  0  0  0
  5  9  2  0  0  0  0
  5  2  1  0  0  0  0
  6 22  1  0  0  0  0
  6  3  2  0  0  0  0
  7  4  1  0  0  0  0
  7 23  1  0  0  0  0
  8 11  1  0  0  0  0
  8  4  2  0  0  0  0
  9  6  1  0  0  0  0
 10  7  1  0  0  0  0
 10  9  1  0  0  0  0
 11 14  2  0  0  0  0
 12 15  1  0  0  0  0
 12 11  1  0  0  0  0
 13 10  2  0  0  0  0
 16 12  2  0  0  0  0
 18  2  1  0  0  0  0
 21  5  1  0  0  0  0
 24  7  1  0  0  0  0
 25  8  1  0  0  0  0
 26 15  1  0  0  0  0
M  END
>  <HBA>
4

>  <HBD>
1

>  <TPSA>
71.44

>  <cid>
512

>  <dipole>
2.58

>  <excitation_energy_1>
2.934

>  <excitation_energy_2>
3.548

>  <excitation_energy_3>
3.926

>  <excitation_energy_4>
4.036

>  <homo_energy>
-6.876

>  <homo_lumo_gap>
4.302

>  <logP>
1.469

>  <lumo_energy>
-2.574

>  <melting_point>
143.89

>  <molecular_refractivity>
57.36

>  <oscillator_strength_1>
0.0007

>  <oscillator_strength_2>
0.0679

>  <oscillator_strength_3>
0.0882

>  <oscillator_strength_4>
0.003

>  <open_babel_can_smiles>
O=C(c1ccccc1)C/C=C/C(=O)C(=O)O

>  <mulliken_charges>
26
1   -0.117178
2   -0.130496
3   -0.132933
4   -0.06848
5   -0.153411
6   -0.181184
7   -0.416419
8   -0.164721
9   0.078136
10   0.401973
11   0.367027
12   0.526532
13   -0.44116
14   -0.441068
15   -0.540674
16   -0.448166
17   0.143019
18   0.143348
19   0.14235
20   0.176683
21   0.168567
22   0.1383
23   0.17463
24   0.18393
25   0.17538
26   0.416013

>  <lowdin_charges>
26
1   -0.135697
2   -0.151612
3   -0.152537
4   -0.084035
5   -0.122265
6   -0.149854
7   -0.302616
8   -0.207555
9   -0.051669
10   0.162957
11   0.125132
12   0.164741
13   -0.22715
14   -0.202989
15   -0.321437
16   -0.246948
17   0.165044
18   0.164604
19   0.162457
20   0.174222
21   0.177285
22   0.162437
23   0.170726
24   0.176972
25   0.18132
26   0.368464

$$$$

