PCCDB-ID:  41432
public computational chemistry database (PCCDB) project, http://pccdb.org

 24 24  0  0  1  0  0  0  0  0999 V2000
    1.2128    0.0605   -0.5336 C   0  0  0  0  0  0  0  0  0  0  0  0
    1.5013    1.8515    2.4217 C   0  0  0  0  0  0  0  0  0  0  0  0
    2.8876   -1.4103    0.7146 C   0  0  0  0  0  0  0  0  0  0  0  0
    3.0249   -0.1755    2.8620 C   0  0  0  0  0  0  0  0  0  0  0  0
    2.6693   -0.1065   -0.0767 C   0  0  2  0  0  0  0  0  0  0  0  0
    2.8626    1.1911    2.1638 C   0  0  1  0  0  0  0  0  0  0  0  0
    1.3600   -1.8835    2.6125 N   0  0  0  0  0  0  0  0  0  0  0  0
    3.8556    1.9501    0.0407 N   0  0  0  0  0  0  0  0  0  0  0  0
    2.4179   -1.2396    2.0840 N   0  0  0  0  0  0  0  0  0  0  0  0
    3.1563    1.0273    0.7276 N   0  0  0  0  0  0  0  0  0  0  0  0
    0.8234   -2.7063    1.8804 O   0  0  0  0  0  0  0  0  0  0  0  0
    4.2096    2.9340    0.6819 O   0  0  0  0  0  0  0  0  0  0  0  0
    0.9752   -0.7031   -1.2824 H   0  0  0  0  0  0  0  0  0  0  0  0
    1.0668    1.0456   -0.9862 H   0  0  0  0  0  0  0  0  0  0  0  0
    0.5055   -0.0568    0.2925 H   0  0  0  0  0  0  0  0  0  0  0  0
    1.4180    2.1172    3.4816 H   0  0  0  0  0  0  0  0  0  0  0  0
    0.6668    1.1893    2.1742 H   0  0  0  0  0  0  0  0  0  0  0  0
    1.4108    2.7687    1.8332 H   0  0  0  0  0  0  0  0  0  0  0  0
    3.9541   -1.6655    0.7440 H   0  0  0  0  0  0  0  0  0  0  0  0
    2.3282   -2.2402    0.2800 H   0  0  0  0  0  0  0  0  0  0  0  0
    2.5433   -0.1700    3.8431 H   0  0  0  0  0  0  0  0  0  0  0  0
    4.0913   -0.4003    2.9937 H   0  0  0  0  0  0  0  0  0  0  0  0
    3.3163   -0.1146   -0.9593 H   0  0  0  0  0  0  0  0  0  0  0  0
    3.6434    1.8670    2.5234 H   0  0  0  0  0  0  0  0  0  0  0  0
  1  5  1  0  0  0  0
  1 15  1  0  0  0  0
  2 16  1  0  0  0  0
  3 19  1  0  0  0  0
  3  9  1  0  0  0  0
  4 22  1  0  0  0  0
  4 21  1  0  0  0  0
  5 23  1  6  0  0  0
  5  3  1  0  0  0  0
  5 10  1  0  0  0  0
  6  2  1  0  0  0  0
  6 24  1  1  0  0  0
  6  4  1  0  0  0  0
  8 12  2  0  0  0  0
  8 10  1  0  0  0  0
  9  7  1  0  0  0  0
  9  4  1  0  0  0  0
 10  6  1  0  0  0  0
 11  7  2  0  0  0  0
 13  1  1  0  0  0  0
 14  1  1  0  0  0  0
 17  2  1  0  0  0  0
 18  2  1  0  0  0  0
 20  3  1  0  0  0  0
M  END
>  <HBA>
6

>  <HBD>
0

>  <TPSA>
65.34

>  <cid>
41432

>  <dipole>
0.71

>  <excitation_energy_1>
3.333

>  <excitation_energy_2>
3.384

>  <excitation_energy_3>
4.493

>  <excitation_energy_4>
4.724

>  <homo_energy>
-6.329

>  <homo_lumo_gap>
5.021

>  <logP>
0.62

>  <lumo_energy>
-1.309

>  <melting_point>
39.39

>  <molecular_refractivity>
51.94

>  <oscillator_strength_1>
0.0008

>  <oscillator_strength_2>
0.0012

>  <oscillator_strength_3>
0.0003

>  <oscillator_strength_4>
0.0008

>  <open_babel_can_smiles>
O=NN1C[C@H](C)N([C@@H](C1)C)N=O

>  <mulliken_charges>
24
1   -0.451332
2   -0.454188
3   -0.170223
4   -0.149139
5   0.034076
6   0.022583
7   0.156107
8   0.160927
9   -0.23095
10   -0.260309
11   -0.37
12   -0.375823
13   0.161919
14   0.167251
15   0.169004
16   0.157822
17   0.163632
18   0.176138
19   0.170181
20   0.204302
21   0.186572
22   0.167375
23   0.17492
24   0.189153

>  <lowdin_charges>
24
1   -0.453701
2   -0.449209
3   -0.223319
4   -0.201653
5   -0.062023
6   -0.08084
7   0.058171
8   0.05457
9   -0.050131
10   -0.053813
11   -0.264634
12   -0.265584
13   0.163394
14   0.163335
15   0.160773
16   0.158607
17   0.158044
18   0.168662
19   0.159718
20   0.184674
21   0.174764
22   0.155264
23   0.16862
24   0.17631

$$$$

