PCCDB-ID:  37079
public computational chemistry database (PCCDB) project, http://pccdb.org

 25 24  0  0  0  0  0  0  0  0999 V2000
    1.2166   -2.1505   -2.2104 C   0  0  0  0  0  0  0  0  0  0  0  0
    5.8181   -1.3906   -5.2947 C   0  0  0  0  0  0  0  0  0  0  0  0
    1.7072   -1.6440   -0.8480 C   0  0  0  0  0  0  0  0  0  0  0  0
    2.4383   -0.2870   -0.8462 C   0  0  0  0  0  0  0  0  0  0  0  0
    3.9057   -0.2725   -1.3190 C   0  0  0  0  0  0  0  0  0  0  0  0
    4.1495   -0.3520   -2.8340 C   0  0  0  0  0  0  0  0  0  0  0  0
    5.6288   -0.1110   -3.1949 C   0  0  0  0  0  0  0  0  0  0  0  0
    5.9779   -0.1104   -4.6147 N   0  0  0  0  0  0  0  0  0  0  0  0
    0.6146   -3.0593   -2.0922 H   0  0  0  0  0  0  0  0  0  0  0  0
    2.0405   -2.3914   -2.8889 H   0  0  0  0  0  0  0  0  0  0  0  0
    0.5882   -1.3999   -2.7059 H   0  0  0  0  0  0  0  0  0  0  0  0
    6.1441   -1.2874   -6.3356 H   0  0  0  0  0  0  0  0  0  0  0  0
    4.7941   -1.8049   -5.3015 H   0  0  0  0  0  0  0  0  0  0  0  0
    6.4707   -2.1318   -4.8171 H   0  0  0  0  0  0  0  0  0  0  0  0
    2.3555   -2.4019   -0.3847 H   0  0  0  0  0  0  0  0  0  0  0  0
    0.8342   -1.5546   -0.1870 H   0  0  0  0  0  0  0  0  0  0  0  0
    2.4267    0.0893    0.1859 H   0  0  0  0  0  0  0  0  0  0  0  0
    1.8584    0.4396   -1.4351 H   0  0  0  0  0  0  0  0  0  0  0  0
    4.4530   -1.0851   -0.8178 H   0  0  0  0  0  0  0  0  0  0  0  0
    4.3627    0.6599   -0.9555 H   0  0  0  0  0  0  0  0  0  0  0  0
    3.5326    0.4050   -3.3427 H   0  0  0  0  0  0  0  0  0  0  0  0
    3.8304   -1.3252   -3.2239 H   0  0  0  0  0  0  0  0  0  0  0  0
    6.2528   -0.8715   -2.7039 H   0  0  0  0  0  0  0  0  0  0  0  0
    5.9407    0.8569   -2.7779 H   0  0  0  0  0  0  0  0  0  0  0  0
    5.4327    0.6025   -5.0966 H   0  0  0  0  0  0  0  0  0  0  0  0
  1  9  1  0  0  0  0
  1  3  1  0  0  0  0
  2 14  1  0  0  0  0
  2  8  1  0  0  0  0
  3  4  1  0  0  0  0
  3 15  1  0  0  0  0
  3 16  1  0  0  0  0
  4 17  1  0  0  0  0
  5 20  1  0  0  0  0
  5  4  1  0  0  0  0
  5 19  1  0  0  0  0
  6  5  1  0  0  0  0
  7  6  1  0  0  0  0
  7 24  1  0  0  0  0
  7 23  1  0  0  0  0
  8  7  1  0  0  0  0
 10  1  1  0  0  0  0
 11  1  1  0  0  0  0
 12  2  1  0  0  0  0
 13  2  1  0  0  0  0
 18  4  1  0  0  0  0
 21  6  1  0  0  0  0
 22  6  1  0  0  0  0
 25  8  1  0  0  0  0
M  END
>  <HBA>
1

>  <HBD>
1

>  <TPSA>
12.03

>  <cid>
37079

>  <dipole>
1.08

>  <excitation_energy_1>
5.185

>  <excitation_energy_2>
5.595

>  <excitation_energy_3>
5.683

>  <excitation_energy_4>
5.817

>  <homo_energy>
-5.671

>  <homo_lumo_gap>
7.894

>  <logP>
2.177

>  <lumo_energy>
2.223

>  <melting_point>
-0.05

>  <molecular_refractivity>
38.56

>  <oscillator_strength_1>
0.004

>  <oscillator_strength_2>
0.0084

>  <oscillator_strength_3>
0.0134

>  <oscillator_strength_4>
0.0037

>  <open_babel_can_smiles>
CCCCCCNC

>  <mulliken_charges>
25
1   -0.444099
2   -0.302425
3   -0.246584
4   -0.253001
5   -0.254118
6   -0.268366
7   -0.132995
8   -0.533587
9   0.140462
10   0.148625
11   0.140181
12   0.14725
13   0.121722
14   0.148198
15   0.129183
16   0.131217
17   0.128414
18   0.125551
19   0.127952
20   0.127363
21   0.119115
22   0.143
23   0.134404
24   0.133582
25   0.288955

>  <lowdin_charges>
25
1   -0.450306
2   -0.36111
3   -0.275136
4   -0.277035
5   -0.276439
6   -0.298799
7   -0.208453
8   -0.363888
9   0.148675
10   0.147546
11   0.146938
12   0.14848
13   0.119377
14   0.148358
15   0.139829
16   0.14224
17   0.142047
18   0.138829
19   0.139405
20   0.139994
21   0.135185
22   0.142098
23   0.140991
24   0.139898
25   0.251275

$$$$

