PCCDB-ID:  12810
public computational chemistry database (PCCDB) project, http://pccdb.org

 30 30  0  0  1  0  0  0  0  0999 V2000
    3.1805    1.2392   -0.6062 C   0  0  0  0  0  0  0  0  0  0  0  0
    4.3797    2.1263   -0.2507 C   0  0  0  0  0  0  0  0  0  0  0  0
    5.7429    1.4143   -0.3313 C   0  0  0  0  0  0  0  0  0  0  0  0
    5.9647    0.2926    0.7029 C   0  0  0  0  0  0  0  0  0  0  0  0
    9.8316    1.9467    2.4980 C   0  0  0  0  0  0  0  0  0  0  0  0
    6.1182    0.7520    2.1702 C   0  0  0  0  0  0  0  0  0  0  0  0
    8.4146    1.9546    1.9201 C   0  0  0  0  0  0  0  0  0  0  0  0
   10.4322    0.5466    2.3408 C   0  0  0  0  0  0  0  0  0  0  0  0
    7.5562    0.9392    2.6670 C   0  0  2  0  0  0  0  0  0  0  0  0
    9.4963   -0.6087    2.6798 C   0  0  0  0  0  0  0  0  0  0  0  0
    9.9016   -1.7272    2.8881 O   0  0  0  0  0  0  0  0  0  0  0  0
    8.1551   -0.3890    2.6603 O   0  0  0  0  0  0  0  0  0  0  0  0
    2.2456    1.8101   -0.5707 H   0  0  0  0  0  0  0  0  0  0  0  0
    3.0741    0.3952    0.0846 H   0  0  0  0  0  0  0  0  0  0  0  0
    3.2807    0.8279   -1.6184 H   0  0  0  0  0  0  0  0  0  0  0  0
    4.2353    2.5498    0.7533 H   0  0  0  0  0  0  0  0  0  0  0  0
    4.3993    2.9853   -0.9345 H   0  0  0  0  0  0  0  0  0  0  0  0
    6.5370    2.1667   -0.2392 H   0  0  0  0  0  0  0  0  0  0  0  0
    5.8509    0.9855   -1.3379 H   0  0  0  0  0  0  0  0  0  0  0  0
    6.8480   -0.2946    0.4239 H   0  0  0  0  0  0  0  0  0  0  0  0
    5.1251   -0.4097    0.6427 H   0  0  0  0  0  0  0  0  0  0  0  0
    9.7951    2.2257    3.5599 H   0  0  0  0  0  0  0  0  0  0  0  0
   10.4671    2.6871    1.9994 H   0  0  0  0  0  0  0  0  0  0  0  0
    5.6594    0.0117    2.8356 H   0  0  0  0  0  0  0  0  0  0  0  0
    5.5790    1.6928    2.3439 H   0  0  0  0  0  0  0  0  0  0  0  0
    8.4476    1.7101    0.8510 H   0  0  0  0  0  0  0  0  0  0  0  0
    7.9523    2.9444    2.0151 H   0  0  0  0  0  0  0  0  0  0  0  0
   11.3390    0.4079    2.9365 H   0  0  0  0  0  0  0  0  0  0  0  0
   10.7270    0.3845    1.2942 H   0  0  0  0  0  0  0  0  0  0  0  0
    7.5088    1.2447    3.7229 H   0  0  0  0  0  0  0  0  0  0  0  0
  1 13  1  0  0  0  0
  1  2  1  0  0  0  0
  1 14  1  0  0  0  0
  2 16  1  0  0  0  0
  3  2  1  0  0  0  0
  3 18  1  0  0  0  0
  3  4  1  0  0  0  0
  4  6  1  0  0  0  0
  5 22  1  0  0  0  0
  6 25  1  0  0  0  0
  6  9  1  0  0  0  0
  6 24  1  0  0  0  0
  7 27  1  0  0  0  0
  7  5  1  0  0  0  0
  7  9  1  0  0  0  0
  8  5  1  0  0  0  0
  8 10  1  0  0  0  0
  8 28  1  0  0  0  0
  9 30  1  1  0  0  0
 10 11  2  0  0  0  0
 12  9  1  0  0  0  0
 12 10  1  0  0  0  0
 15  1  1  0  0  0  0
 17  2  1  0  0  0  0
 19  3  1  0  0  0  0
 20  4  1  0  0  0  0
 21  4  1  0  0  0  0
 23  5  1  0  0  0  0
 26  7  1  0  0  0  0
 29  8  1  0  0  0  0
M  END
>  <HBA>
2

>  <HBD>
0

>  <TPSA>
26.3

>  <cid>
12810

>  <dipole>
4.51

>  <excitation_energy_1>
5.453

>  <excitation_energy_2>
6.549

>  <excitation_energy_3>
6.818

>  <excitation_energy_4>
6.929

>  <homo_energy>
-6.958

>  <homo_lumo_gap>
7.323

>  <logP>
2.662

>  <lumo_energy>
0.365

>  <melting_point>
5.8

>  <molecular_refractivity>
49.35

>  <oscillator_strength_1>
0.0011

>  <oscillator_strength_2>
0.0022

>  <oscillator_strength_3>
0.0002

>  <oscillator_strength_4>
0.073

>  <open_babel_can_smiles>
CCCCC[C@@H]1CCCC(=O)O1

>  <mulliken_charges>
30
1   -0.443393
2   -0.25175
3   -0.262214
4   -0.270484
5   -0.278354
6   -0.277324
7   -0.291521
8   -0.36712
9   0.133637
10   0.594253
11   -0.451896
12   -0.464728
13   0.143584
14   0.147044
15   0.143079
16   0.131122
17   0.133007
18   0.128218
19   0.13131
20   0.149415
21   0.142406
22   0.146055
23   0.147524
24   0.15537
25   0.137651
26   0.154388
27   0.146545
28   0.180197
29   0.178897
30   0.135081

>  <lowdin_charges>
30
1   -0.447076
2   -0.275796
3   -0.281001
4   -0.284383
5   -0.279559
6   -0.286547
7   -0.291659
8   -0.310947
9   0.010861
10   0.192155
11   -0.247992
12   -0.200415
13   0.150655
14   0.147958
15   0.146417
16   0.136432
17   0.143165
18   0.139153
19   0.141647
20   0.151315
21   0.149279
22   0.144362
23   0.153965
24   0.159718
25   0.147603
26   0.149578
27   0.155921
28   0.175182
29   0.1718
30   0.138213

$$$$

