PCCDB-ID:  13229
public computational chemistry database (PCCDB) project, http://pccdb.org

 28 29  0  0  0  0  0  0  0  0999 V2000
   -1.6650   -0.5702    0.1097 C   0  0  0  0  0  0  0  0  0  0  0  0
    4.2701   -1.2298    2.1491 C   0  0  0  0  0  0  0  0  0  0  0  0
   -1.0454    0.0194    1.2092 C   0  0  0  0  0  0  0  0  0  0  0  0
   -0.8918   -0.9175   -1.0006 C   0  0  0  0  0  0  0  0  0  0  0  0
    3.6070   -2.0097    1.0048 C   0  0  0  0  0  0  0  0  0  0  0  0
    3.4759    0.0424    2.4770 C   0  0  0  0  0  0  0  0  0  0  0  0
    0.3332    0.2520    1.2048 C   0  0  0  0  0  0  0  0  0  0  0  0
    0.4816   -0.6836   -0.9979 C   0  0  0  0  0  0  0  0  0  0  0  0
    3.4564   -1.1298   -0.2438 C   0  0  0  0  0  0  0  0  0  0  0  0
    3.2519    0.9142    1.2264 C   0  0  0  0  0  0  0  0  0  0  0  0
    1.1286   -0.1027    0.1069 C   0  0  0  0  0  0  0  0  0  0  0  0
    2.6359    0.1616    0.0233 C   0  0  0  0  0  0  0  0  0  0  0  0
   -2.7367   -0.7506    0.1122 H   0  0  0  0  0  0  0  0  0  0  0  0
    5.2937   -0.9556    1.8522 H   0  0  0  0  0  0  0  0  0  0  0  0
    4.3620   -1.8604    3.0426 H   0  0  0  0  0  0  0  0  0  0  0  0
   -1.6327    0.3045    2.0786 H   0  0  0  0  0  0  0  0  0  0  0  0
   -1.3600   -1.3662   -1.8732 H   0  0  0  0  0  0  0  0  0  0  0  0
    2.6165   -2.3616    1.3256 H   0  0  0  0  0  0  0  0  0  0  0  0
    4.1947   -2.9038    0.7609 H   0  0  0  0  0  0  0  0  0  0  0  0
    3.9997    0.6321    3.2407 H   0  0  0  0  0  0  0  0  0  0  0  0
    2.5139   -0.2489    2.9168 H   0  0  0  0  0  0  0  0  0  0  0  0
    0.7809    0.7252    2.0718 H   0  0  0  0  0  0  0  0  0  0  0  0
    1.0630   -0.9467   -1.8788 H   0  0  0  0  0  0  0  0  0  0  0  0
    3.0064   -1.7053   -1.0607 H   0  0  0  0  0  0  0  0  0  0  0  0
    4.4566   -0.8307   -0.5897 H   0  0  0  0  0  0  0  0  0  0  0  0
    4.2285    1.3007    0.9023 H   0  0  0  0  0  0  0  0  0  0  0  0
    2.6478    1.7953    1.4747 H   0  0  0  0  0  0  0  0  0  0  0  0
    2.7730    0.8073   -0.8571 H   0  0  0  0  0  0  0  0  0  0  0  0
  1 13  1  0  0  0  0
  1  3  2  0  0  0  0
  2  6  1  0  0  0  0
  2 15  1  0  0  0  0
  3 16  1  0  0  0  0
  4  8  2  0  0  0  0
  4  1  1  0  0  0  0
  5 18  1  0  0  0  0
  5  2  1  0  0  0  0
  6 21  1  0  0  0  0
  6 20  1  0  0  0  0
  7  3  1  0  0  0  0
  7 22  1  0  0  0  0
  8 11  1  0  0  0  0
  9 12  1  0  0  0  0
  9  5  1  0  0  0  0
 10 27  1  0  0  0  0
 10  6  1  0  0  0  0
 11  7  2  0  0  0  0
 12 11  1  0  0  0  0
 12 10  1  0  0  0  0
 14  2  1  0  0  0  0
 17  4  1  0  0  0  0
 19  5  1  0  0  0  0
 23  8  1  0  0  0  0
 24  9  1  0  0  0  0
 25  9  1  0  0  0  0
 26 10  1  0  0  0  0
 28 12  1  0  0  0  0
M  END
>  <HBA>
0

>  <HBD>
0

>  <TPSA>
0.0

>  <cid>
13229

>  <dipole>
0.34

>  <excitation_energy_1>
5.265

>  <excitation_energy_2>
5.75

>  <excitation_energy_3>
5.933

>  <excitation_energy_4>
6.142

>  <homo_energy>
-6.351

>  <homo_lumo_gap>
6.446

>  <logP>
3.734

>  <lumo_energy>
0.095

>  <melting_point>
26.41

>  <molecular_refractivity>
53.33

>  <oscillator_strength_1>
0.001

>  <oscillator_strength_2>
0.0439

>  <oscillator_strength_3>
0.0042

>  <oscillator_strength_4>
0.0062

>  <open_babel_can_smiles>
C1CCC(CC1)c1ccccc1

>  <mulliken_charges>
28
1   -0.131226
2   -0.254607
3   -0.131596
4   -0.128091
5   -0.25814
6   -0.261541
7   -0.195132
8   -0.185388
9   -0.264197
10   -0.277128
11   0.172423
12   -0.164375
13   0.12563
14   0.124516
15   0.129247
16   0.125675
17   0.125924
18   0.140182
19   0.128992
20   0.129563
21   0.137168
22   0.127573
23   0.123496
24   0.134105
25   0.12602
26   0.129276
27   0.135676
28   0.135954

>  <lowdin_charges>
28
1   -0.160797
2   -0.276881
3   -0.157909
4   -0.156879
5   -0.279887
6   -0.283597
7   -0.175234
8   -0.168092
9   -0.277129
10   -0.282091
11   -0.002711
12   -0.129738
13   0.154071
14   0.134391
15   0.143151
16   0.156256
17   0.156439
18   0.143558
19   0.143712
20   0.14444
21   0.140919
22   0.158706
23   0.153983
24   0.145224
25   0.137681
26   0.142963
27   0.145145
28   0.150306

$$$$

