PCCDB-ID:  70922
public computational chemistry database (PCCDB) project, http://pccdb.org

 10  9  0  0  0  0  0  0  0  0999 V2000
    1.0387   -1.9553   -0.3882 C   0  0  0  0  0  0  0  0  0  0  0  0
   -1.0252   -0.9733   -0.0591 C   0  0  0  0  0  0  0  0  0  0  0  0
   -1.8065    0.0168    0.1113 N   0  0  0  0  0  0  0  0  0  0  0  0
    0.3619   -0.8861   -0.2170 N   0  0  0  0  0  0  0  0  0  0  0  0
    2.3654   -1.9204   -0.5416 O   0  0  0  0  0  0  0  0  0  0  0  0
   -1.5369   -2.2362   -0.0975 O   0  0  0  0  0  0  0  0  0  0  0  0
    0.6511   -2.9723   -0.4296 H   0  0  0  0  0  0  0  0  0  0  0  0
   -1.2645    0.8813    0.1145 H   0  0  0  0  0  0  0  0  0  0  0  0
    2.6305   -0.9809   -0.4916 H   0  0  0  0  0  0  0  0  0  0  0  0
   -2.4968   -2.1278    0.0242 H   0  0  0  0  0  0  0  0  0  0  0  0
  1  4  1  0  0  0  0
  2  3  1  0  0  0  0
  3  8  1  0  0  0  0
  4  2  2  0  0  0  0
  5  9  1  0  0  0  0
  5  1  1  0  0  0  0
  6  2  1  0  0  0  0
  6 10  1  0  0  0  0
  7  1  1  0  0  0  0
M  RAD  2   1   2   3   2
M  END
>  <HBA>
4

>  <HBD>
2

>  <TPSA>
72.19

>  <cid>
70922

>  <dipole>
1.53

>  <excitation_energy_1>
5.476

>  <excitation_energy_2>
5.821

>  <excitation_energy_3>
5.888

>  <excitation_energy_4>
6.481

>  <homo_energy>
-7.023

>  <homo_lumo_gap>
6.166

>  <logP>
0.538

>  <lumo_energy>
-0.857

>  <melting_point>
110.64

>  <molecular_refractivity>
18.42

>  <oscillator_strength_1>
0.0021

>  <oscillator_strength_2>
0.0034

>  <oscillator_strength_3>
0.2852

>  <oscillator_strength_4>
0.0011

>  <open_babel_can_smiles>
O[CH]/N=C(\O)/[NH]

>  <mulliken_charges>
10
1   0.316354
2   0.626591
3   -0.636723
4   -0.495401
5   -0.54048
6   -0.604369
7   0.195945
8   0.299192
9   0.417142
10   0.421749

>  <lowdin_charges>
10
1   0.053305
2   0.153016
3   -0.428505
4   -0.235428
5   -0.324928
6   -0.384394
7   0.167742
8   0.268297
9   0.363105
10   0.367791

$$$$

