PCCDB-ID:  70292
public computational chemistry database (PCCDB) project, http://pccdb.org

 18 18  0  0  0  0  0  0  0  0999 V2000
    0.9689   -0.1733    0.0126 C   0  0  0  0  0  0  0  0  0  0  0  0
    4.5231    0.5734    0.0114 C   0  0  0  0  0  0  0  0  0  0  0  0
    2.6503    2.3950    0.0355 C   0  0  0  0  0  0  0  0  0  0  0  0
    3.2060    1.0043    0.0241 C   0  0  0  0  0  0  0  0  0  0  0  0
    3.3409   -1.1765    0.0204 C   0  0  0  0  0  0  0  0  0  0  0  0
    4.5962   -0.7830    0.0090 N   0  0  0  0  0  0  0  0  0  0  0  0
    2.4372   -0.1415    0.0258 N   0  0  0  0  0  0  0  0  0  0  0  0
    2.9577   -2.5692    0.0393 N   0  0  0  0  0  0  0  0  0  0  0  0
    1.8251    2.6970   -1.0892 O   0  0  0  0  0  0  0  0  0  0  0  0
    1.7539   -2.8203    0.1958 O   0  0  0  0  0  0  0  0  0  0  0  0
    3.8437   -3.4032   -0.0920 O   0  0  0  0  0  0  0  0  0  0  0  0
    0.6202    0.8233   -0.2538 H   0  0  0  0  0  0  0  0  0  0  0  0
    0.5877   -0.4741    0.9908 H   0  0  0  0  0  0  0  0  0  0  0  0
    0.6239   -0.8944   -0.7264 H   0  0  0  0  0  0  0  0  0  0  0  0
    5.4143    1.1877    0.0107 H   0  0  0  0  0  0  0  0  0  0  0  0
    3.4953    3.0931    0.1183 H   0  0  0  0  0  0  0  0  0  0  0  0
    2.0096    2.5600    0.9084 H   0  0  0  0  0  0  0  0  0  0  0  0
    2.3617    2.5745   -1.8889 H   0  0  0  0  0  0  0  0  0  0  0  0
  1  7  1  0  0  0  0
  1 13  1  0  0  0  0
  2  4  2  0  0  0  0
  3 16  1  0  0  0  0
  3 17  1  0  0  0  0
  4  7  1  0  0  0  0
  4  3  1  0  0  0  0
  5  7  1  0  0  0  0
  5  8  1  0  0  0  0
  6  2  1  0  0  0  0
  6  5  2  0  0  0  0
  8 10  2  0  0  0  0
  9  3  1  0  0  0  0
 11  8  2  0  0  0  0
 12  1  1  0  0  0  0
 14  1  1  0  0  0  0
 15  2  1  0  0  0  0
 18  9  1  0  0  0  0
M  END
>  <HBA>
3

>  <HBD>
1

>  <TPSA>
83.87

>  <cid>
70292

>  <dipole>
5.33

>  <excitation_energy_1>
3.708

>  <excitation_energy_2>
4.201

>  <excitation_energy_3>
4.292

>  <excitation_energy_4>
4.602

>  <homo_energy>
-7.064

>  <homo_lumo_gap>
4.645

>  <logP>
0.344

>  <lumo_energy>
-2.419

>  <melting_point>
84.24

>  <molecular_refractivity>
38.44

>  <oscillator_strength_1>
0.0077

>  <oscillator_strength_2>
0.2702

>  <oscillator_strength_3>
0.0003

>  <oscillator_strength_4>
0.0026

>  <open_babel_can_smiles>
OCc1cnc(n1C)N(=O)=O

>  <mulliken_charges>
18
1   -0.333406
2   -0.062246
3   -0.124792
4   0.291761
5   0.663293
6   -0.422684
7   -0.473836
8   0.364419
9   -0.598408
10   -0.419091
11   -0.366987
12   0.202794
13   0.192048
14   0.202533
15   0.153713
16   0.158488
17   0.174793
18   0.397608

>  <lowdin_charges>
18
1   -0.352965
2   -0.151349
3   -0.138352
4   -0.020354
5   0.043506
6   -0.134868
7   0.013394
8   0.302722
9   -0.459897
10   -0.265278
11   -0.212418
12   0.180172
13   0.173752
14   0.183126
15   0.171074
16   0.154358
17   0.164174
18   0.349203

$$$$

