PCCDB-ID:  69602
public computational chemistry database (PCCDB) project, http://pccdb.org

 22 22  0  0  0  0  0  0  0  0999 V2000
    0.8887    0.8407    0.6027 C   0  0  0  0  0  0  0  0  0  0  0  0
    3.0577    2.9931   -2.4939 C   0  0  0  0  0  0  0  0  0  0  0  0
    1.9871    2.0029   -1.9898 C   0  0  0  0  0  0  0  0  0  0  0  0
    2.9147    4.6884   -4.5083 C   0  0  0  0  0  0  0  0  0  0  0  0
    1.1969    5.8009   -3.8941 C   0  0  0  0  0  0  0  0  0  0  0  0
    0.6107    2.1857   -0.0331 C   0  0  0  0  0  0  0  0  0  0  0  0
    2.5133    4.1167   -3.3216 C   0  0  0  0  0  0  0  0  0  0  0  0
    2.0925    5.7371   -4.8588 N   0  0  0  0  0  0  0  0  0  0  0  0
    1.0490    2.6827   -1.1116 N   0  0  0  0  0  0  0  0  0  0  0  0
    1.4101    4.8544   -2.9360 N   0  0  0  0  0  0  0  0  0  0  0  0
   -0.2644    2.9685    0.6706 O   0  0  0  0  0  0  0  0  0  0  0  0
    1.6304    0.2626    0.0510 H   0  0  0  0  0  0  0  0  0  0  0  0
   -0.0352    0.2507    0.6480 H   0  0  0  0  0  0  0  0  0  0  0  0
    1.2522    0.9731    1.6293 H   0  0  0  0  0  0  0  0  0  0  0  0
    3.7909    2.4411   -3.0936 H   0  0  0  0  0  0  0  0  0  0  0  0
    3.5978    3.3805   -1.6172 H   0  0  0  0  0  0  0  0  0  0  0  0
    2.4933    1.1468   -1.5185 H   0  0  0  0  0  0  0  0  0  0  0  0
    1.4302    1.6164   -2.8544 H   0  0  0  0  0  0  0  0  0  0  0  0
    3.7553    4.4028   -5.1283 H   0  0  0  0  0  0  0  0  0  0  0  0
    0.3775    6.5056   -3.8399 H   0  0  0  0  0  0  0  0  0  0  0  0
    0.8459    4.6031   -2.1297 H   0  0  0  0  0  0  0  0  0  0  0  0
   -0.5362    2.5047    1.4773 H   0  0  0  0  0  0  0  0  0  0  0  0
  1 13  1  0  0  0  0
  1 14  1  0  0  0  0
  2  3  1  0  0  0  0
  2 16  1  0  0  0  0
  3 17  1  0  0  0  0
  3  9  1  0  0  0  0
  4  7  2  0  0  0  0
  5 20  1  0  0  0  0
  5 10  1  0  0  0  0
  6  1  1  0  0  0  0
  6 11  1  0  0  0  0
  7 10  1  0  0  0  0
  7  2  1  0  0  0  0
  8  4  1  0  0  0  0
  8  5  2  0  0  0  0
  9  6  2  0  0  0  0
 10 21  1  0  0  0  0
 11 22  1  0  0  0  0
 12  1  1  0  0  0  0
 15  2  1  0  0  0  0
 18  3  1  0  0  0  0
 19  4  1  0  0  0  0
M  END
>  <HBA>
3

>  <HBD>
2

>  <TPSA>
57.78

>  <cid>
69602

>  <dipole>
8.11

>  <excitation_energy_1>
4.666

>  <excitation_energy_2>
4.83

>  <excitation_energy_3>
5.181

>  <excitation_energy_4>
5.547

>  <homo_energy>
-5.407

>  <homo_lumo_gap>
5.578

>  <logP>
0.479

>  <lumo_energy>
0.171

>  <melting_point>
116.51

>  <molecular_refractivity>
40.98

>  <oscillator_strength_1>
0.0083

>  <oscillator_strength_2>
0.0029

>  <oscillator_strength_3>
0.0223

>  <oscillator_strength_4>
0.0015

>  <open_babel_can_smiles>
C/C(=N\CCc1cnc[nH]1)/O

>  <mulliken_charges>
22
1   -0.560914
2   -0.339291
3   -0.152865
4   -0.089889
5   0.200628
6   0.50282
7   0.316182
8   -0.433905
9   -0.429459
10   -0.593132
11   -0.576505
12   0.187901
13   0.183254
14   0.176236
15   0.150573
16   0.153899
17   0.12161
18   0.160515
19   0.117384
20   0.143126
21   0.353177
22   0.408656

>  <lowdin_charges>
22
1   -0.483006
2   -0.276733
3   -0.199505
4   -0.182052
5   -0.102563
6   0.136343
7   -0.020512
8   -0.19675
9   -0.213612
10   -0.183772
11   -0.369073
12   0.177166
13   0.174283
14   0.169362
15   0.161359
16   0.153788
17   0.129687
18   0.154615
19   0.153982
20   0.161398
21   0.29849
22   0.357104

$$$$

