PCCDB-ID:  62350
public computational chemistry database (PCCDB) project, http://pccdb.org

 31 31  0  0  1  0  0  0  0  0999 V2000
    3.2676   -1.1097    2.2352 C   0  0  0  0  0  0  0  0  0  0  0  0
    1.6029    0.5411    1.3001 C   0  0  0  0  0  0  0  0  0  0  0  0
    3.8997   -5.3040   -0.4415 C   0  0  0  0  0  0  0  0  0  0  0  0
    2.3045   -3.3800   -1.0063 C   0  0  0  0  0  0  0  0  0  0  0  0
    1.7744   -2.0379   -0.4716 C   0  0  0  0  0  0  0  0  0  0  0  0
    4.2519   -1.4592   -0.8264 C   0  0  0  0  0  0  0  0  0  0  0  0
    2.9139   -0.2181    1.0348 C   0  0  0  0  0  0  0  0  0  0  0  0
    3.5177   -3.8415   -0.1835 C   0  0  2  0  0  0  0  0  0  0  0  0
    2.8753   -0.9364   -0.3441 C   0  0  2  0  0  0  0  0  0  0  0  0
    4.7076   -2.8659   -0.3717 C   0  0  1  0  0  0  0  0  0  0  0  0
    5.5867   -3.4125   -1.3658 O   0  0  0  0  0  0  0  0  0  0  0  0
    3.3043   -0.5115    3.1536 H   0  0  0  0  0  0  0  0  0  0  0  0
    2.5221   -1.8981    2.3936 H   0  0  0  0  0  0  0  0  0  0  0  0
    4.2447   -1.5898    2.1185 H   0  0  0  0  0  0  0  0  0  0  0  0
    1.3632    1.2240    0.4759 H   0  0  0  0  0  0  0  0  0  0  0  0
    1.6748    1.1364    2.2181 H   0  0  0  0  0  0  0  0  0  0  0  0
    0.7556   -0.1448    1.4209 H   0  0  0  0  0  0  0  0  0  0  0  0
    4.7597   -5.6067    0.1661 H   0  0  0  0  0  0  0  0  0  0  0  0
    4.1668   -5.4649   -1.4896 H   0  0  0  0  0  0  0  0  0  0  0  0
    3.0586   -5.9621   -0.1925 H   0  0  0  0  0  0  0  0  0  0  0  0
    2.5831   -3.2980   -2.0659 H   0  0  0  0  0  0  0  0  0  0  0  0
    1.5084   -4.1338   -0.9530 H   0  0  0  0  0  0  0  0  0  0  0  0
    1.3222   -2.2275    0.5104 H   0  0  0  0  0  0  0  0  0  0  0  0
    0.9583   -1.6789   -1.1098 H   0  0  0  0  0  0  0  0  0  0  0  0
    5.0302   -0.7198   -0.5875 H   0  0  0  0  0  0  0  0  0  0  0  0
    4.2145   -1.5184   -1.9214 H   0  0  0  0  0  0  0  0  0  0  0  0
    3.7105    0.5379    0.9519 H   0  0  0  0  0  0  0  0  0  0  0  0
    3.2249   -3.7593    0.8735 H   0  0  0  0  0  0  0  0  0  0  0  0
    2.6197   -0.1383   -1.0548 H   0  0  0  0  0  0  0  0  0  0  0  0
    5.2580   -2.8050    0.5800 H   0  0  0  0  0  0  0  0  0  0  0  0
    6.2988   -2.7684   -1.5026 H   0  0  0  0  0  0  0  0  0  0  0  0
  1 13  1  0  0  0  0
  1 12  1  0  0  0  0
  2 17  1  0  0  0  0
  2 16  1  0  0  0  0
  3 20  1  0  0  0  0
  3  8  1  0  0  0  0
  3 18  1  0  0  0  0
  4 22  1  0  0  0  0
  4  5  1  0  0  0  0
  4  8  1  0  0  0  0
  5  9  1  0  0  0  0
  5 23  1  0  0  0  0
  6 25  1  0  0  0  0
  6 10  1  0  0  0  0
  6  9  1  0  0  0  0
  7  2  1  0  0  0  0
  7  1  1  0  0  0  0
  8 28  1  1  0  0  0
  9 29  1  6  0  0  0
  9  7  1  0  0  0  0
 10  8  1  0  0  0  0
 10 30  1  1  0  0  0
 11 10  1  0  0  0  0
 14  1  1  0  0  0  0
 15  2  1  0  0  0  0
 19  3  1  0  0  0  0
 21  4  1  0  0  0  0
 24  5  1  0  0  0  0
 26  6  1  0  0  0  0
 27  7  1  0  0  0  0
 31 11  1  0  0  0  0
M  END
>  <HBA>
1

>  <HBD>
1

>  <TPSA>
20.23

>  <cid>
62350

>  <dipole>
1.58

>  <excitation_energy_1>
6.131

>  <excitation_energy_2>
6.684

>  <excitation_energy_3>
6.834

>  <excitation_energy_4>
7.013

>  <homo_energy>
-6.882

>  <homo_lumo_gap>
8.727

>  <logP>
2.439

>  <lumo_energy>
1.845

>  <melting_point>
11.98

>  <molecular_refractivity>
49.23

>  <oscillator_strength_1>
0.0021

>  <oscillator_strength_2>
0.0012

>  <oscillator_strength_3>
0.0131

>  <oscillator_strength_4>
0.0043

>  <open_babel_can_smiles>
CC([C@@H]1CC[C@H]([C@H](C1)O)C)C

>  <mulliken_charges>
31
1   -0.454285
2   -0.448523
3   -0.435915
4   -0.267737
5   -0.288777
6   -0.325051
7   -0.076796
8   -0.094726
9   -0.063072
10   0.154895
11   -0.636296
12   0.14059
13   0.144865
14   0.145562
15   0.13843
16   0.139777
17   0.144845
18   0.140334
19   0.161812
20   0.128846
21   0.137921
22   0.12717
23   0.134572
24   0.131854
25   0.119931
26   0.145504
27   0.116514
28   0.121627
29   0.119661
30   0.110421
31   0.386044

>  <lowdin_charges>
31
1   -0.452172
2   -0.448261
3   -0.440893
4   -0.277829
5   -0.285368
6   -0.304584
7   -0.123339
8   -0.133075
9   -0.132911
10   -0.00573
11   -0.468145
12   0.149494
13   0.146675
14   0.147467
15   0.147294
16   0.14811
17   0.147897
18   0.150746
19   0.156728
20   0.143566
21   0.140618
22   0.14397
23   0.140036
24   0.145007
25   0.139323
26   0.148332
27   0.134992
28   0.137315
29   0.142266
30   0.121426
31   0.341044

$$$$

