PCCDB-ID:  65560
public computational chemistry database (PCCDB) project, http://pccdb.org

 18 18  0  0  0  0  0  0  0  0999 V2000
    0.9260    0.0709    0.0093 C   0  0  0  0  0  0  0  0  0  0  0  0
    3.1628    1.2765    0.0501 C   0  0  0  0  0  0  0  0  0  0  0  0
    3.1684   -1.1000    0.2139 C   0  0  0  0  0  0  0  0  0  0  0  0
    5.1766   -0.0108    0.2317 C   0  0  0  0  0  0  0  0  0  0  0  0
    2.4320    0.0853    0.0945 C   0  0  0  0  0  0  0  0  0  0  0  0
    4.5605    1.2442    0.1090 C   0  0  0  0  0  0  0  0  0  0  0  0
    5.3800    2.4907    0.0295 C   0  0  0  0  0  0  0  0  0  0  0  0
    6.4825    2.6459   -0.5835 N   0  0  0  0  0  0  0  0  0  0  0  0
    4.5038   -1.1604    0.2862 N   0  0  0  0  0  0  0  0  0  0  0  0
    4.8551    3.5798    0.6651 O   0  0  0  0  0  0  0  0  0  0  0  0
    0.4734    0.6627    0.8140 H   0  0  0  0  0  0  0  0  0  0  0  0
    0.5354   -0.9485    0.0832 H   0  0  0  0  0  0  0  0  0  0  0  0
    0.5769    0.4947   -0.9400 H   0  0  0  0  0  0  0  0  0  0  0  0
    2.6453    2.2278   -0.0604 H   0  0  0  0  0  0  0  0  0  0  0  0
    2.6474   -2.0561    0.2543 H   0  0  0  0  0  0  0  0  0  0  0  0
    6.2607   -0.0784    0.3078 H   0  0  0  0  0  0  0  0  0  0  0  0
    6.7302    1.7898   -1.0814 H   0  0  0  0  0  0  0  0  0  0  0  0
    4.1802    3.2833    1.2952 H   0  0  0  0  0  0  0  0  0  0  0  0
  1 12  1  0  0  0  0
  1  5  1  0  0  0  0
  1 11  1  0  0  0  0
  2  5  2  0  0  0  0
  2  6  1  0  0  0  0
  3 15  1  0  0  0  0
  3  9  2  0  0  0  0
  4  9  1  0  0  0  0
  4 16  1  0  0  0  0
  5  3  1  0  0  0  0
  6  4  2  0  0  0  0
  7  6  1  0  0  0  0
  7 10  1  0  0  0  0
  8  7  2  0  0  0  0
 10 18  1  0  0  0  0
 13  1  1  0  0  0  0
 14  2  1  0  0  0  0
 17  8  1  0  0  0  0
M  END
>  <HBA>
3

>  <HBD>
1

>  <TPSA>
55.98

>  <cid>
65560

>  <dipole>
4.61

>  <excitation_energy_1>
4.565

>  <excitation_energy_2>
4.866

>  <excitation_energy_3>
4.932

>  <excitation_energy_4>
5.078

>  <homo_energy>
-7.018

>  <homo_lumo_gap>
5.622

>  <logP>
1.189

>  <lumo_energy>
-1.396

>  <melting_point>
113.47

>  <molecular_refractivity>
37.3

>  <oscillator_strength_1>
0.0081

>  <oscillator_strength_2>
0.0019

>  <oscillator_strength_3>
0.0674

>  <oscillator_strength_4>
0.0141

>  <open_babel_can_smiles>
Cc1cc(cnc1)C(=N)O

>  <mulliken_charges>
18
1   -0.536334
2   -0.202564
3   -0.004793
4   0.002685
5   0.161279
6   0.045049
7   0.423904
8   -0.574018
9   -0.405297
10   -0.574942
11   0.169919
12   0.168016
13   0.175199
14   0.150683
15   0.145346
16   0.157009
17   0.291975
18   0.406883

>  <lowdin_charges>
18
1   -0.441938
2   -0.148791
3   -0.095136
4   -0.089216
5   -0.009955
6   -0.065207
7   0.122996
8   -0.379004
9   -0.135305
10   -0.361878
11   0.166517
12   0.163481
13   0.168226
14   0.165297
15   0.15923
16   0.161693
17   0.261421
18   0.357568

$$$$

