PCCDB-ID:  72826
public computational chemistry database (PCCDB) project, http://pccdb.org

 23 25  0  0  0  0  0  0  0  0999 V2000
    2.9074   -1.5036   -0.0009 C   0  0  0  0  0  0  0  0  0  0  0  0
   -2.9133   -1.4890   -0.0006 C   0  0  0  0  0  0  0  0  0  0  0  0
    3.5316   -0.2410   -0.0010 C   0  0  0  0  0  0  0  0  0  0  0  0
   -3.5415   -0.2302   -0.0005 C   0  0  0  0  0  0  0  0  0  0  0  0
    1.5261   -1.5985   -0.0003 C   0  0  0  0  0  0  0  0  0  0  0  0
   -1.5332   -1.5881   -0.0002 C   0  0  0  0  0  0  0  0  0  0  0  0
    2.7689    0.9106   -0.0006 C   0  0  0  0  0  0  0  0  0  0  0  0
   -2.7776    0.9231   -0.0001 C   0  0  0  0  0  0  0  0  0  0  0  0
    0.7247   -0.4394    0.0003 C   0  0  0  0  0  0  0  0  0  0  0  0
   -0.7219   -0.4315    0.0002 C   0  0  0  0  0  0  0  0  0  0  0  0
    1.3576    0.8299   -0.0002 C   0  0  0  0  0  0  0  0  0  0  0  0
   -1.3798    0.8154    0.0003 C   0  0  0  0  0  0  0  0  0  0  0  0
    0.6909    2.0342   -0.0005 N   0  0  0  0  0  0  0  0  0  0  0  0
   -0.6108    2.0283    0.0003 N   0  3  0  0  0  0  0  0  0  0  0  0
   -1.2310    3.1170    0.0007 O   0  5  0  0  0  0  0  0  0  0  0  0
    3.5104   -2.4069   -0.0003 H   0  0  0  0  0  0  0  0  0  0  0  0
   -3.5156   -2.3931   -0.0005 H   0  0  0  0  0  0  0  0  0  0  0  0
    4.6158   -0.1732   -0.0009 H   0  0  0  0  0  0  0  0  0  0  0  0
   -4.6251   -0.1616   -0.0001 H   0  0  0  0  0  0  0  0  0  0  0  0
    1.0598   -2.5787   -0.0004 H   0  0  0  0  0  0  0  0  0  0  0  0
   -1.0677   -2.5677   -0.0005 H   0  0  0  0  0  0  0  0  0  0  0  0
    3.2195    1.8975   -0.0004 H   0  0  0  0  0  0  0  0  0  0  0  0
   -3.2169    1.9120    0.0004 H   0  0  0  0  0  0  0  0  0  0  0  0
  1  5  1  0  0  0  0
  1 16  1  0  0  0  0
  2  4  2  0  0  0  0
  2 17  1  0  0  0  0
  2  6  1  0  0  0  0
  3  1  2  0  0  0  0
  3 18  1  0  0  0  0
  3  7  1  0  0  0  0
  4 19  1  0  0  0  0
  4  8  1  0  0  0  0
  5  9  2  0  0  0  0
  6 10  2  0  0  0  0
  7 22  1  0  0  0  0
  7 11  2  0  0  0  0
  8 12  2  0  0  0  0
  8 23  1  0  0  0  0
 10 12  1  0  0  0  0
 10  9  1  0  0  0  0
 11  9  1  0  0  0  0
 13 11  1  0  0  0  0
 13 14  2  0  0  0  0
 14 12  1  0  0  0  0
 14 15  1  0  0  0  0
 20  5  1  0  0  0  0
 21  6  1  0  0  0  0
M  CHG  2  14   1  15  -1
M  END
>  <HBA>
2

>  <HBD>
0

>  <TPSA>
38.35

>  <cid>
72826

>  <dipole>
5.15

>  <excitation_energy_1>
3.675

>  <excitation_energy_2>
3.719

>  <excitation_energy_3>
3.76

>  <excitation_energy_4>
4.151

>  <homo_energy>
-6.008

>  <homo_lumo_gap>
3.943

>  <logP>
2.817

>  <lumo_energy>
-2.065

>  <melting_point>
124.0

>  <molecular_refractivity>
60.41

>  <oscillator_strength_1>
0.0575

>  <oscillator_strength_2>
0.0904

>  <oscillator_strength_3>
0.0

>  <oscillator_strength_4>
0.1298

>  <open_babel_can_smiles>
[O-][n+]1nc2ccccc2c2c1cccc2

>  <mulliken_charges>
23
1   -0.136447
2   -0.121553
3   -0.129685
4   -0.132494
5   -0.19308
6   -0.195812
7   -0.153793
8   -0.161676
9   0.130685
10   0.096283
11   0.235561
12   0.287991
13   -0.374013
14   0.099513
15   -0.456704
16   0.138322
17   0.14551
18   0.14118
19   0.147919
20   0.139285
21   0.146989
22   0.157013
23   0.189005

>  <lowdin_charges>
23
1   -0.154396
2   -0.136603
3   -0.143889
4   -0.144971
5   -0.153701
6   -0.154468
7   -0.149022
8   -0.136782
9   -0.024414
10   0.00793
11   0.028111
12   0.007912
13   -0.129808
14   0.246039
15   -0.313217
16   0.163393
17   0.1667
18   0.162603
19   0.165865
20   0.160534
21   0.165307
22   0.175265
23   0.191613

$$$$

