PCCDB-ID:  35743
public computational chemistry database (PCCDB) project, http://pccdb.org

 25 25  0  0  0  0  0  0  0  0999 V2000
    1.8477    0.8449    0.6690 C   0  0  0  0  0  0  0  0  0  0  0  0
    9.2624   -1.8229   -1.3074 C   0  0  0  0  0  0  0  0  0  0  0  0
    3.3074    0.3949    0.5563 C   0  0  0  0  0  0  0  0  0  0  0  0
    3.6678   -0.1008   -0.8589 C   0  0  0  0  0  0  0  0  0  0  0  0
    6.7869   -2.3268   -1.0739 C   0  0  0  0  0  0  0  0  0  0  0  0
    5.4596   -1.9050   -0.9664 C   0  0  0  0  0  0  0  0  0  0  0  0
    7.4759   -0.0345   -1.2470 C   0  0  0  0  0  0  0  0  0  0  0  0
    7.8168   -1.3929   -1.2136 C   0  0  0  0  0  0  0  0  0  0  0  0
    5.1034   -0.5552   -0.9937 C   0  0  0  0  0  0  0  0  0  0  0  0
    6.1474    0.3774   -1.1362 C   0  0  0  0  0  0  0  0  0  0  0  0
    5.7984    1.7058   -1.1701 O   0  0  0  0  0  0  0  0  0  0  0  0
    1.6136    1.1899    1.6827 H   0  0  0  0  0  0  0  0  0  0  0  0
    1.1584    0.0256    0.4286 H   0  0  0  0  0  0  0  0  0  0  0  0
    1.6333    1.6696   -0.0219 H   0  0  0  0  0  0  0  0  0  0  0  0
    9.3458   -2.8801   -1.5792 H   0  0  0  0  0  0  0  0  0  0  0  0
    9.7832   -1.6890   -0.3497 H   0  0  0  0  0  0  0  0  0  0  0  0
    9.8098   -1.2386   -2.0561 H   0  0  0  0  0  0  0  0  0  0  0  0
    3.5059   -0.4085    1.2783 H   0  0  0  0  0  0  0  0  0  0  0  0
    3.9732    1.2247    0.8222 H   0  0  0  0  0  0  0  0  0  0  0  0
    3.4687    0.7071   -1.5743 H   0  0  0  0  0  0  0  0  0  0  0  0
    3.0033   -0.9327   -1.1275 H   0  0  0  0  0  0  0  0  0  0  0  0
    7.0203   -3.3883   -1.0520 H   0  0  0  0  0  0  0  0  0  0  0  0
    4.6709   -2.6477   -0.8641 H   0  0  0  0  0  0  0  0  0  0  0  0
    8.2586    0.7155   -1.3633 H   0  0  0  0  0  0  0  0  0  0  0  0
    6.6034    2.2355   -1.2786 H   0  0  0  0  0  0  0  0  0  0  0  0
  1 12  1  0  0  0  0
  2  8  1  0  0  0  0
  2 16  1  0  0  0  0
  3  1  1  0  0  0  0
  3 19  1  0  0  0  0
  3 18  1  0  0  0  0
  4  3  1  0  0  0  0
  5 22  1  0  0  0  0
  5  6  2  0  0  0  0
  6 23  1  0  0  0  0
  7  8  2  0  0  0  0
  7 10  1  0  0  0  0
  8  5  1  0  0  0  0
  9  6  1  0  0  0  0
  9  4  1  0  0  0  0
 10  9  2  0  0  0  0
 11 10  1  0  0  0  0
 13  1  1  0  0  0  0
 14  1  1  0  0  0  0
 15  2  1  0  0  0  0
 17  2  1  0  0  0  0
 20  4  1  0  0  0  0
 21  4  1  0  0  0  0
 24  7  1  0  0  0  0
 25 11  1  0  0  0  0
M  END
>  <HBA>
1

>  <HBD>
1

>  <TPSA>
20.23

>  <cid>
35743

>  <dipole>
1.5

>  <excitation_energy_1>
4.926

>  <excitation_energy_2>
5.038

>  <excitation_energy_3>
5.619

>  <excitation_energy_4>
5.67

>  <homo_energy>
-5.725

>  <homo_lumo_gap>
5.883

>  <logP>
2.653

>  <lumo_energy>
0.158

>  <melting_point>
51.64

>  <molecular_refractivity>
48.01

>  <oscillator_strength_1>
0.0602

>  <oscillator_strength_2>
0.0003

>  <oscillator_strength_3>
0.0242

>  <oscillator_strength_4>
0.0058

>  <open_babel_can_smiles>
CCCc1ccc(cc1O)C

>  <mulliken_charges>
25
1   -0.441275
2   -0.530764
3   -0.245843
4   -0.328587
5   -0.184521
6   -0.197368
7   -0.244549
8   0.175409
9   0.139609
10   0.299431
11   -0.650551
12   0.140994
13   0.13849
14   0.142893
15   0.156495
16   0.163322
17   0.155087
18   0.131309
19   0.150097
20   0.151338
21   0.131277
22   0.115495
23   0.120892
24   0.104958
25   0.406361

>  <lowdin_charges>
25
1   -0.445833
2   -0.441413
3   -0.272199
4   -0.271715
5   -0.189049
6   -0.156906
7   -0.226242
8   0.007632
9   -0.033717
10   0.0982
11   -0.386486
12   0.148439
13   0.145184
14   0.147551
15   0.156437
16   0.160386
17   0.158039
18   0.140396
19   0.149315
20   0.155139
21   0.144991
22   0.151297
23   0.155459
24   0.148362
25   0.356735

$$$$

