PCCDB-ID:  23731
public computational chemistry database (PCCDB) project, http://pccdb.org

 19 18  0  0  0  0  0  0  0  0999 V2000
    1.1560   -2.6065    1.0137 C   0  0  0  0  0  0  0  0  0  0  0  0
    4.7540   -1.6286   -2.5533 C   0  0  0  0  0  0  0  0  0  0  0  0
    2.5645   -2.1691    1.3687 C   0  0  0  0  0  0  0  0  0  0  0  0
    4.9088   -0.5319   -1.4904 C   0  0  0  0  0  0  0  0  0  0  0  0
    4.7699    0.2099    1.1237 O   0  0  0  0  0  0  0  0  0  0  0  0
    5.6629   -2.1906    0.6768 O   0  0  0  0  0  0  0  0  0  0  0  0
    3.1461   -1.5407    0.2006 O   0  0  0  0  0  0  0  0  0  0  0  0
    4.7134   -1.1463    0.2052 P   0  0  2  0  0  0  0  0  0  0  0  0
    0.6806   -3.0770    1.8816 H   0  0  0  0  0  0  0  0  0  0  0  0
    1.1725   -3.3299    0.1924 H   0  0  0  0  0  0  0  0  0  0  0  0
    0.5482   -1.7489    0.7082 H   0  0  0  0  0  0  0  0  0  0  0  0
    4.9269   -1.2168   -3.5531 H   0  0  0  0  0  0  0  0  0  0  0  0
    3.7477   -2.0571   -2.5298 H   0  0  0  0  0  0  0  0  0  0  0  0
    5.4724   -2.4371   -2.3864 H   0  0  0  0  0  0  0  0  0  0  0  0
    3.1892   -3.0196    1.6611 H   0  0  0  0  0  0  0  0  0  0  0  0
    2.5603   -1.4409    2.1885 H   0  0  0  0  0  0  0  0  0  0  0  0
    4.1823    0.2745   -1.6402 H   0  0  0  0  0  0  0  0  0  0  0  0
    5.9066   -0.0797   -1.5367 H   0  0  0  0  0  0  0  0  0  0  0  0
    5.4676    0.1005    1.7906 H   0  0  0  0  0  0  0  0  0  0  0  0
  1  3  1  0  0  0  0
  1  9  1  0  0  0  0
  2 13  1  0  0  0  0
  2 14  1  0  0  0  0
  2  4  1  0  0  0  0
  3 15  1  0  0  0  0
  3 16  1  0  0  0  0
  4  8  1  0  0  0  0
  5 19  1  0  0  0  0
  7  8  1  0  0  0  0
  7  3  1  0  0  0  0
  8  6  2  1  0  0  0
  8  5  1  0  0  0  0
 10  1  1  0  0  0  0
 11  1  1  0  0  0  0
 12  2  1  0  0  0  0
 17  4  1  0  0  0  0
 18  4  1  0  0  0  0
M  END
>  <HBA>
3

>  <HBD>
1

>  <TPSA>
56.34

>  <cid>
23731

>  <dipole>
1.74

>  <excitation_energy_1>
6.858

>  <excitation_energy_2>
6.89

>  <excitation_energy_3>
7.398

>  <excitation_energy_4>
7.469

>  <homo_energy>
-7.587

>  <homo_lumo_gap>
9.135

>  <logP>
1.228

>  <lumo_energy>
1.548

>  <melting_point>
16.7

>  <molecular_refractivity>
32.25

>  <oscillator_strength_1>
0.0367

>  <oscillator_strength_2>
0.0303

>  <oscillator_strength_3>
0.0079

>  <oscillator_strength_4>
0.0069

>  <open_babel_can_smiles>
CCO[P@@](=O)(CC)O

>  <mulliken_charges>
19
1   -0.455664
2   -0.460303
3   -0.032558
4   -0.460912
5   -0.665556
6   -0.570432
7   -0.534663
8   1.077177
9   0.150378
10   0.163859
11   0.162877
12   0.153346
13   0.169342
14   0.17672
15   0.171941
16   0.15274
17   0.186862
18   0.180994
19   0.433854

>  <lowdin_charges>
19
1   -0.448813
2   -0.43977
3   -0.119546
4   -0.446892
5   -0.59059
6   -0.610655
7   -0.407606
8   1.053891
9   0.159298
10   0.16042
11   0.160099
12   0.15486
13   0.160989
14   0.166467
15   0.159018
16   0.147984
17   0.182084
18   0.177917
19   0.380845

$$$$

