PCCDB-ID:  33962
public computational chemistry database (PCCDB) project, http://pccdb.org

 23 24  0  0  0  0  0  0  0  0999 V2000
    0.8910    0.1310    0.0881 C   0  0  0  0  0  0  0  0  0  0  0  0
    5.5033   -4.7007    0.1061 C   0  0  0  0  0  0  0  0  0  0  0  0
    4.5429    1.2794    0.0533 C   0  0  0  0  0  0  0  0  0  0  0  0
    3.1273    1.2797    0.0617 C   0  0  0  0  0  0  0  0  0  0  0  0
    5.2414    0.0952    0.0604 C   0  0  0  0  0  0  0  0  0  0  0  0
    3.2354   -3.5507    0.1146 C   0  0  0  0  0  0  0  0  0  0  0  0
    2.4763   -2.4069    0.1081 C   0  0  0  0  0  0  0  0  0  0  0  0
    2.4012    0.1046    0.0788 C   0  0  0  0  0  0  0  0  0  0  0  0
    4.6562   -3.4517    0.1004 C   0  0  0  0  0  0  0  0  0  0  0  0
    3.1117   -1.1369    0.0884 C   0  0  0  0  0  0  0  0  0  0  0  0
    4.5432   -1.1404    0.0773 C   0  0  0  0  0  0  0  0  0  0  0  0
    5.2827   -2.2896    0.0830 N   0  0  0  0  0  0  0  0  0  0  0  0
    0.5201    1.1603    0.0806 H   0  0  0  0  0  0  0  0  0  0  0  0
    0.4793   -0.3628    0.9777 H   0  0  0  0  0  0  0  0  0  0  0  0
    0.4682   -0.3797   -0.7867 H   0  0  0  0  0  0  0  0  0  0  0  0
    5.2891   -5.3296   -0.7675 H   0  0  0  0  0  0  0  0  0  0  0  0
    5.3052   -5.3104    0.9969 H   0  0  0  0  0  0  0  0  0  0  0  0
    6.5608   -4.4290    0.0935 H   0  0  0  0  0  0  0  0  0  0  0  0
    5.0740    2.2275    0.0406 H   0  0  0  0  0  0  0  0  0  0  0  0
    2.5987    2.2300    0.0547 H   0  0  0  0  0  0  0  0  0  0  0  0
    6.3263    0.0632    0.0534 H   0  0  0  0  0  0  0  0  0  0  0  0
    2.7655   -4.5305    0.1283 H   0  0  0  0  0  0  0  0  0  0  0  0
    1.3923   -2.4712    0.1179 H   0  0  0  0  0  0  0  0  0  0  0  0
  1 14  1  0  0  0  0
  2 17  1  0  0  0  0
  3  5  2  0  0  0  0
  3  4  1  0  0  0  0
  4  8  2  0  0  0  0
  5 11  1  0  0  0  0
  6 22  1  0  0  0  0
  7  6  1  0  0  0  0
  7 23  1  0  0  0  0
  8  1  1  0  0  0  0
  8 10  1  0  0  0  0
  9  2  1  0  0  0  0
  9  6  2  0  0  0  0
 10  7  2  0  0  0  0
 11 12  2  0  0  0  0
 11 10  1  0  0  0  0
 12  9  1  0  0  0  0
 13  1  1  0  0  0  0
 15  1  1  0  0  0  0
 16  2  1  0  0  0  0
 18  2  1  0  0  0  0
 19  3  1  0  0  0  0
 20  4  1  0  0  0  0
 21  5  1  0  0  0  0
M  END
>  <HBA>
1

>  <HBD>
0

>  <TPSA>
12.89

>  <cid>
33962

>  <dipole>
2.04

>  <excitation_energy_1>
4.259

>  <excitation_energy_2>
4.322

>  <excitation_energy_3>
4.419

>  <excitation_energy_4>
5.158

>  <homo_energy>
-6.027

>  <homo_lumo_gap>
4.816

>  <logP>
2.852

>  <lumo_energy>
-1.211

>  <melting_point>
72.83

>  <molecular_refractivity>
51.67

>  <oscillator_strength_1>
0.0538

>  <oscillator_strength_2>
0.0013

>  <oscillator_strength_3>
0.0231

>  <oscillator_strength_4>
0.0

>  <open_babel_can_smiles>
Cc1ccc2c(n1)cccc2C

>  <mulliken_charges>
23
1   -0.535913
2   -0.522893
3   -0.130876
4   -0.200427
5   -0.146276
6   -0.175204
7   -0.152694
8   0.128066
9   0.317701
10   0.095384
11   0.23838
12   -0.55619
13   0.159005
14   0.16255
15   0.162594
16   0.159721
17   0.159779
18   0.17731
19   0.131371
20   0.122955
21   0.139406
22   0.129139
23   0.137111

>  <lowdin_charges>
23
1   -0.444189
2   -0.448622
3   -0.152576
4   -0.17143
5   -0.155387
6   -0.185722
7   -0.129473
8   0.000599
9   0.058981
10   -0.028984
11   0.045515
12   -0.16331
13   0.159138
14   0.160274
15   0.160408
16   0.161673
17   0.161615
18   0.169631
19   0.159656
20   0.155386
21   0.165791
22   0.160363
23   0.160664

$$$$

