PCCDB-ID:  547
public computational chemistry database (PCCDB) project, http://pccdb.org

 20 20  0  0  0  0  0  0  0  0999 V2000
   -1.0526    0.2686   -0.0869 C   0  0  0  0  0  0  0  0  0  0  0  0
   -0.5122    1.5602   -0.0846 C   0  0  0  0  0  0  0  0  0  0  0  0
    1.1740   -0.6434   -0.0509 C   0  0  0  0  0  0  0  0  0  0  0  0
   -0.7800   -2.2537   -0.1125 C   0  0  0  0  0  0  0  0  0  0  0  0
   -0.2161   -0.8512   -0.0686 C   0  0  0  0  0  0  0  0  0  0  0  0
    0.8648    1.7596   -0.0621 C   0  0  0  0  0  0  0  0  0  0  0  0
    1.7210    0.6361   -0.0442 C   0  0  0  0  0  0  0  0  0  0  0  0
   -0.9216   -2.8703   -1.5158 C   0  0  0  0  0  0  0  0  0  0  0  0
    1.4558    2.9878   -0.0546 O   0  0  0  0  0  0  0  0  0  0  0  0
    3.0605    0.8835   -0.0206 O   0  0  0  0  0  0  0  0  0  0  0  0
   -0.9413   -4.0605   -1.7062 O   0  0  0  0  0  0  0  0  0  0  0  0
   -1.0732   -1.9972   -2.5389 O   0  0  0  0  0  0  0  0  0  0  0  0
   -2.1325    0.1430   -0.0791 H   0  0  0  0  0  0  0  0  0  0  0  0
   -1.1737    2.4245   -0.0899 H   0  0  0  0  0  0  0  0  0  0  0  0
    1.8446   -1.5017   -0.0393 H   0  0  0  0  0  0  0  0  0  0  0  0
   -1.7849   -2.2705    0.3299 H   0  0  0  0  0  0  0  0  0  0  0  0
   -0.1749   -2.9542    0.4695 H   0  0  0  0  0  0  0  0  0  0  0  0
    0.7631    3.6667   -0.0628 H   0  0  0  0  0  0  0  0  0  0  0  0
    3.5344    0.0371   -0.0159 H   0  0  0  0  0  0  0  0  0  0  0  0
   -0.9794   -1.0876   -2.1985 H   0  0  0  0  0  0  0  0  0  0  0  0
  1  2  2  0  0  0  0
  1 13  1  0  0  0  0
  1  5  1  0  0  0  0
  2  6  1  0  0  0  0
  3  7  1  0  0  0  0
  3 15  1  0  0  0  0
  4  5  1  0  0  0  0
  4 16  1  0  0  0  0
  4 17  1  0  0  0  0
  5  3  2  0  0  0  0
  6  9  1  0  0  0  0
  6  7  2  0  0  0  0
  7 10  1  0  0  0  0
  8  4  1  0  0  0  0
 10 19  1  0  0  0  0
 11  8  2  0  0  0  0
 12 20  1  0  0  0  0
 12  8  1  0  0  0  0
 14  2  1  0  0  0  0
 18  9  1  0  0  0  0
M  END
>  <HBA>
4

>  <HBD>
3

>  <TPSA>
77.76

>  <cid>
547

>  <dipole>
4.46

>  <excitation_energy_1>
4.751

>  <excitation_energy_2>
5.036

>  <excitation_energy_3>
5.265

>  <excitation_energy_4>
5.327

>  <homo_energy>
-6.06

>  <homo_lumo_gap>
5.578

>  <logP>
0.725

>  <lumo_energy>
-0.482

>  <melting_point>
165.6

>  <molecular_refractivity>
42.03

>  <oscillator_strength_1>
0.0594

>  <oscillator_strength_2>
0.0015

>  <oscillator_strength_3>
0.0449

>  <oscillator_strength_4>
0.0035

>  <open_babel_can_smiles>
OC(=O)Cc1ccc(c(c1)O)O

>  <mulliken_charges>
20
1   -0.215469
2   -0.190692
3   -0.239653
4   -0.457632
5   0.104579
6   0.322952
7   0.333033
8   0.590546
9   -0.624903
10   -0.626406
11   -0.443385
12   -0.566347
13   0.137131
14   0.12952
15   0.131078
16   0.189837
17   0.187033
18   0.41135
19   0.412942
20   0.414488

>  <lowdin_charges>
20
1   -0.191252
2   -0.204141
3   -0.21261
4   -0.313528
5   -0.034981
6   0.081853
7   0.08733
8   0.185618
9   -0.362088
10   -0.360884
11   -0.244279
12   -0.353149
13   0.159247
14   0.160023
15   0.160305
16   0.179154
17   0.180937
18   0.362202
19   0.361903
20   0.358342

$$$$

