PCCDB-ID:  27003
public computational chemistry database (PCCDB) project, http://pccdb.org

 21 21  0  0  1  0  0  0  0  0999 V2000
    0.7122    1.1215   -0.4013 C   0  0  0  0  0  0  0  0  0  0  0  0
   -1.3311   -0.1425   -0.2235 C   0  0  0  0  0  0  0  0  0  0  0  0
    1.4594   -0.0685    0.1979 C   0  0  0  0  0  0  0  0  0  0  0  0
   -0.5221   -1.2919    0.3728 C   0  0  0  0  0  0  0  0  0  0  0  0
   -2.8028    2.2936    0.0374 C   0  0  0  0  0  0  0  0  0  0  0  0
   -0.7638    3.5824    0.2394 C   0  0  0  0  0  0  0  0  0  0  0  0
   -1.3924    2.3105   -0.3857 C   0  0  1  0  0  0  0  0  0  0  0  0
   -3.9100    2.3232    0.3844 N   0  0  0  0  0  0  0  0  0  0  0  0
   -0.6718    1.1336    0.1002 N   0  0  0  0  0  0  0  0  0  0  0  0
   -0.4179    4.5373   -0.4072 O   0  0  0  0  0  0  0  0  0  0  0  0
    0.8133   -1.2925   -0.1125 O   0  0  0  0  0  0  0  0  0  0  0  0
    0.7378    1.0533   -1.5050 H   0  0  0  0  0  0  0  0  0  0  0  0
    1.2172    2.0509   -0.1134 H   0  0  0  0  0  0  0  0  0  0  0  0
   -2.3401   -0.1445    0.2006 H   0  0  0  0  0  0  0  0  0  0  0  0
   -1.4162   -0.2855   -1.3165 H   0  0  0  0  0  0  0  0  0  0  0  0
    1.5339    0.0588    1.2901 H   0  0  0  0  0  0  0  0  0  0  0  0
    2.4688   -0.1315   -0.2185 H   0  0  0  0  0  0  0  0  0  0  0  0
   -0.9594   -2.2524    0.0863 H   0  0  0  0  0  0  0  0  0  0  0  0
   -0.5280   -1.2132    1.4719 H   0  0  0  0  0  0  0  0  0  0  0  0
   -0.6585    3.5239    1.3418 H   0  0  0  0  0  0  0  0  0  0  0  0
   -1.3619    2.4315   -1.4843 H   0  0  0  0  0  0  0  0  0  0  0  0
  1 13  1  0  0  0  0
  1  9  1  0  0  0  0
  1  3  1  0  0  0  0
  2  9  1  0  0  0  0
  2 14  1  0  0  0  0
  2  4  1  0  0  0  0
  3 16  1  0  0  0  0
  4 19  1  0  0  0  0
  5  8  3  0  0  0  0
  6 20  1  0  0  0  0
  7 21  1  6  0  0  0
  7  5  1  0  0  0  0
  7  9  1  0  0  0  0
  7  6  1  0  0  0  0
 10  6  2  0  0  0  0
 11  3  1  0  0  0  0
 11  4  1  0  0  0  0
 12  1  1  0  0  0  0
 15  2  1  0  0  0  0
 17  3  1  0  0  0  0
 18  4  1  0  0  0  0
M  END
>  <HBA>
4

>  <HBD>
0

>  <TPSA>
53.33

>  <cid>
27003

>  <dipole>
2.71

>  <excitation_energy_1>
4.022

>  <excitation_energy_2>
4.215

>  <excitation_energy_3>
4.987

>  <excitation_energy_4>
6.035

>  <homo_energy>
-6.925

>  <homo_lumo_gap>
5.17

>  <logP>
-0.652

>  <lumo_energy>
-1.755

>  <melting_point>
54.66

>  <molecular_refractivity>
41.49

>  <oscillator_strength_1>
0.0004

>  <oscillator_strength_2>
0.0021

>  <oscillator_strength_3>
0.0005

>  <oscillator_strength_4>
0.014

>  <open_babel_can_smiles>
O=C[C@@H](N1CCOCC1)C#N

>  <mulliken_charges>
21
1   -0.152767
2   -0.155353
3   -0.033013
4   -0.03683
5   0.344173
6   0.252131
7   -0.035299
8   -0.464741
9   -0.432274
10   -0.353392
11   -0.462435
12   0.139769
13   0.15938
14   0.175595
15   0.135683
16   0.136128
17   0.156158
18   0.156862
19   0.138211
20   0.14633
21   0.185684

>  <lowdin_charges>
21
1   -0.216622
2   -0.216985
3   -0.131955
4   -0.132474
5   -0.017499
6   0.061754
7   -0.084556
8   -0.098466
9   -0.186758
10   -0.179843
11   -0.268457
12   0.130972
13   0.157849
14   0.167031
15   0.129873
16   0.133657
17   0.156868
18   0.158292
19   0.13452
20   0.138814
21   0.163985

$$$$

