PCCDB-ID:  7461
public computational chemistry database (PCCDB) project, http://pccdb.org

 26 26  0  0  0  0  0  0  0  0999 V2000
    3.8184   -0.6250    0.5654 C   0  0  0  0  0  0  0  0  0  0  0  0
    1.6273    0.5173    1.0792 C   0  0  0  0  0  0  0  0  0  0  0  0
    3.5187    3.1097   -4.8796 C   0  0  0  0  0  0  0  0  0  0  0  0
    3.3511    0.9206   -3.6940 C   0  0  0  0  0  0  0  0  0  0  0  0
    2.8304    2.9816   -2.4156 C   0  0  0  0  0  0  0  0  0  0  0  0
    3.0909    0.0240   -2.5146 C   0  0  0  0  0  0  0  0  0  0  0  0
    2.5873    2.0860   -1.2298 C   0  0  0  0  0  0  0  0  0  0  0  0
    2.4787   -0.1293   -0.0223 C   0  0  0  0  0  0  0  0  0  0  0  0
    3.2422    2.2528   -3.6722 C   0  0  0  0  0  0  0  0  0  0  0  0
    2.7073    0.7535   -1.2438 C   0  0  0  0  0  0  0  0  0  0  0  0
    3.6441   -1.3336    1.3840 H   0  0  0  0  0  0  0  0  0  0  0  0
    4.3963    0.2180    0.9627 H   0  0  0  0  0  0  0  0  0  0  0  0
    4.4362   -1.1298   -0.1849 H   0  0  0  0  0  0  0  0  0  0  0  0
    1.4159   -0.2112    1.8704 H   0  0  0  0  0  0  0  0  0  0  0  0
    0.6721    0.8818    0.6863 H   0  0  0  0  0  0  0  0  0  0  0  0
    2.1457    1.3629    1.5470 H   0  0  0  0  0  0  0  0  0  0  0  0
    3.8077    2.5072   -5.7468 H   0  0  0  0  0  0  0  0  0  0  0  0
    4.3263    3.8284   -4.6803 H   0  0  0  0  0  0  0  0  0  0  0  0
    2.6362    3.7036   -5.1573 H   0  0  0  0  0  0  0  0  0  0  0  0
    3.6486    0.4251   -4.6184 H   0  0  0  0  0  0  0  0  0  0  0  0
    3.5961    3.7353   -2.1606 H   0  0  0  0  0  0  0  0  0  0  0  0
    1.9252    3.5805   -2.6197 H   0  0  0  0  0  0  0  0  0  0  0  0
    3.9773   -0.6069   -2.3352 H   0  0  0  0  0  0  0  0  0  0  0  0
    2.2956   -0.6991   -2.7676 H   0  0  0  0  0  0  0  0  0  0  0  0
    2.2941    2.5942   -0.3135 H   0  0  0  0  0  0  0  0  0  0  0  0
    1.9336   -1.0196   -0.3749 H   0  0  0  0  0  0  0  0  0  0  0  0
  1 12  1  0  0  0  0
  1 11  1  0  0  0  0
  2 16  1  0  0  0  0
  2 14  1  0  0  0  0
  3 18  1  0  0  0  0
  3  9  1  0  0  0  0
  4  9  2  0  0  0  0
  4  6  1  0  0  0  0
  5 21  1  0  0  0  0
  5  7  1  0  0  0  0
  6 23  1  0  0  0  0
  6 10  1  0  0  0  0
  7 25  1  0  0  0  0
  8  1  1  0  0  0  0
  8  2  1  0  0  0  0
  9  5  1  0  0  0  0
 10  7  2  0  0  0  0
 10  8  1  0  0  0  0
 13  1  1  0  0  0  0
 15  2  1  0  0  0  0
 17  3  1  0  0  0  0
 19  3  1  0  0  0  0
 20  4  1  0  0  0  0
 22  5  1  0  0  0  0
 24  6  1  0  0  0  0
 26  8  1  0  0  0  0
M  END
>  <HBA>
0

>  <HBD>
0

>  <TPSA>
0.0

>  <cid>
7461

>  <dipole>
0.03

>  <excitation_energy_1>
5.454

>  <excitation_energy_2>
5.658

>  <excitation_energy_3>
5.844

>  <excitation_energy_4>
5.933

>  <homo_energy>
-5.929

>  <homo_lumo_gap>
6.792

>  <logP>
3.309

>  <lumo_energy>
0.863

>  <melting_point>
19.78

>  <molecular_refractivity>
47.12

>  <oscillator_strength_1>
0.0028

>  <oscillator_strength_2>
0.0001

>  <oscillator_strength_3>
0.0114

>  <oscillator_strength_4>
0.0076

>  <open_babel_can_smiles>
CC1=CCC(=CC1)C(C)C

>  <mulliken_charges>
26
1   -0.440115
2   -0.447878
3   -0.51478
4   -0.16883
5   -0.363726
6   -0.372587
7   -0.180415
8   -0.134993
9   0.1951
10   0.18441
11   0.139979
12   0.14587
13   0.143852
14   0.138989
15   0.147416
16   0.143562
17   0.151554
18   0.149685
19   0.149476
20   0.108889
21   0.144962
22   0.145789
23   0.149023
24   0.147173
25   0.113775
26   0.12382

>  <lowdin_charges>
26
1   -0.444537
2   -0.445199
3   -0.440036
4   -0.189983
5   -0.270722
6   -0.272474
7   -0.191732
8   -0.118602
9   -0.012331
10   -0.01638
11   0.148041
12   0.150127
13   0.149215
14   0.149801
15   0.151555
16   0.147568
17   0.155626
18   0.153558
19   0.153381
20   0.147389
21   0.151007
22   0.150769
23   0.151538
24   0.151524
25   0.151139
26   0.139756

$$$$

