PCCDB-ID:  43112
public computational chemistry database (PCCDB) project, http://pccdb.org

 37 38  0  0  1  0  0  0  0  0999 V2000
    1.1599   -0.4696    0.4412 C   0  0  0  0  0  0  0  0  0  0  0  0
    2.4890    0.7172   -1.3675 C   0  0  0  0  0  0  0  0  0  0  0  0
    5.6685    4.8096    3.3695 C   0  0  0  0  0  0  0  0  0  0  0  0
    4.2726    0.7448    1.7723 C   0  0  0  0  0  0  0  0  0  0  0  0
    2.4502    2.2529    1.3758 C   0  0  0  0  0  0  0  0  0  0  0  0
    4.7901    1.6155    2.7321 C   0  0  0  0  0  0  0  0  0  0  0  0
    2.9633    3.1278    2.3315 C   0  0  0  0  0  0  0  0  0  0  0  0
    4.4575    1.5860    6.6592 C   0  0  0  0  0  0  0  0  0  0  0  0
    3.2927    3.7243    5.7902 C   0  0  0  0  0  0  0  0  0  0  0  0
    2.5401    0.0812    0.0345 C   0  0  0  0  0  0  0  0  0  0  0  0
    3.0953    1.0436    1.0759 C   0  0  0  0  0  0  0  0  0  0  0  0
    4.1392    2.8170    3.0255 C   0  0  0  0  0  0  0  0  0  0  0  0
    4.5967    3.0445    6.2385 C   0  0  2  0  0  0  0  0  0  0  0  0
    4.7265    3.8118    4.0318 C   0  0  2  0  0  0  0  0  0  0  0  0
    5.7169    1.0127    6.9617 O   0  0  0  0  0  0  0  0  0  0  0  0
    3.7014    4.5385    4.6962 O   0  0  0  0  0  0  0  0  0  0  0  0
    5.4384    3.1224    5.0720 O   0  0  0  0  0  0  0  0  0  0  0  0
    0.8046   -1.2020   -0.2935 H   0  0  0  0  0  0  0  0  0  0  0  0
    0.4133    0.3315    0.5004 H   0  0  0  0  0  0  0  0  0  0  0  0
    1.2012   -0.9601    1.4198 H   0  0  0  0  0  0  0  0  0  0  0  0
    2.1489   -0.0138   -2.1107 H   0  0  0  0  0  0  0  0  0  0  0  0
    3.4756    1.0816   -1.6739 H   0  0  0  0  0  0  0  0  0  0  0  0
    1.7958    1.5662   -1.3946 H   0  0  0  0  0  0  0  0  0  0  0  0
    5.1364    5.3712    2.5962 H   0  0  0  0  0  0  0  0  0  0  0  0
    6.5048    4.2814    2.9028 H   0  0  0  0  0  0  0  0  0  0  0  0
    6.0524    5.5024    4.1233 H   0  0  0  0  0  0  0  0  0  0  0  0
    4.7927   -0.1875    1.5626 H   0  0  0  0  0  0  0  0  0  0  0  0
    1.5314    2.5179    0.8581 H   0  0  0  0  0  0  0  0  0  0  0  0
    5.7009    1.3577    3.2639 H   0  0  0  0  0  0  0  0  0  0  0  0
    2.4461    4.0561    2.5547 H   0  0  0  0  0  0  0  0  0  0  0  0
    3.9404    1.0303    5.8605 H   0  0  0  0  0  0  0  0  0  0  0  0
    3.8531    1.5128    7.5709 H   0  0  0  0  0  0  0  0  0  0  0  0
    2.8541    4.3739    6.5509 H   0  0  0  0  0  0  0  0  0  0  0  0
    2.5439    2.9842    5.4705 H   0  0  0  0  0  0  0  0  0  0  0  0
    3.2315   -0.7711   -0.0166 H   0  0  0  0  0  0  0  0  0  0  0  0
    5.0923    3.6068    7.0400 H   0  0  0  0  0  0  0  0  0  0  0  0
    6.2764    1.1813    6.1855 H   0  0  0  0  0  0  0  0  0  0  0  0
  1 19  1  0  0  0  0
  1 20  1  0  0  0  0
  2 10  1  0  0  0  0
  3 26  1  0  0  0  0
  4  6  2  0  0  0  0
  5  7  1  0  0  0  0
  6 12  1  0  0  0  0
  6 29  1  0  0  0  0
  7 30  1  0  0  0  0
  7 12  2  0  0  0  0
  8 15  1  0  0  0  0
  8 32  1  0  0  0  0
  9 13  1  0  0  0  0
  9 33  1  0  0  0  0
 10  1  1  0  0  0  0
 10 11  1  0  0  0  0
 11  5  2  0  0  0  0
 11  4  1  0  0  0  0
 12 14  1  0  0  0  0
 13  8  1  0  0  0  0
 13 36  1  1  0  0  0
 14  3  1  6  0  0  0
 14 16  1  0  0  0  0
 14 17  1  0  0  0  0
 16  9  1  0  0  0  0
 17 13  1  0  0  0  0
 18  1  1  0  0  0  0
 21  2  1  0  0  0  0
 22  2  1  0  0  0  0
 23  2  1  0  0  0  0
 24  3  1  0  0  0  0
 25  3  1  0  0  0  0
 27  4  1  0  0  0  0
 28  5  1  0  0  0  0
 31  8  1  0  0  0  0
 34  9  1  0  0  0  0
 35 10  1  0  0  0  0
 37 15  1  0  0  0  0
M  END
>  <HBA>
3

>  <HBD>
1

>  <TPSA>
38.69

>  <cid>
43112

>  <dipole>
1.82

>  <excitation_energy_1>
5.231

>  <excitation_energy_2>
5.755

>  <excitation_energy_3>
5.943

>  <excitation_energy_4>
5.976

>  <homo_energy>
-6.455

>  <homo_lumo_gap>
6.346

>  <logP>
2.39

>  <lumo_energy>
-0.109

>  <melting_point>
38.25

>  <molecular_refractivity>
66.32

>  <oscillator_strength_1>
0.0003

>  <oscillator_strength_2>
0.0824

>  <oscillator_strength_3>
0.003

>  <oscillator_strength_4>
0.0162

>  <open_babel_can_smiles>
OC[C@@H]1CO[C@](O1)(C)c1ccc(cc1)C(C)C

>  <mulliken_charges>
37
1   -0.438464
2   -0.438872
3   -0.444563
4   -0.203938
5   -0.191601
6   -0.168747
7   -0.173833
8   -0.03677
9   -0.070782
10   -0.160767
11   0.1926
12   0.102567
13   0.109193
14   0.462863
15   -0.620079
16   -0.498356
17   -0.545662
18   0.142202
19   0.143503
20   0.14945
21   0.142138
22   0.149995
23   0.143679
24   0.158348
25   0.157563
26   0.160843
27   0.124408
28   0.125639
29   0.131271
30   0.142398
31   0.131697
32   0.141929
33   0.159507
34   0.143919
35   0.129233
36   0.145889
37   0.401602

>  <lowdin_charges>
37
1   -0.442838
2   -0.442852
3   -0.446138
4   -0.169405
5   -0.164475
6   -0.162422
7   -0.160716
8   -0.148496
9   -0.149919
10   -0.119049
11   0.001765
12   -0.040608
13   -0.027913
14   0.218117
15   -0.464199
16   -0.251358
17   -0.278903
18   0.149937
19   0.14813
20   0.152318
21   0.149941
22   0.152694
23   0.148031
24   0.164678
25   0.164225
26   0.163948
27   0.154567
28   0.154753
29   0.159262
30   0.164668
31   0.13548
32   0.149117
33   0.160988
34   0.140855
35   0.142611
36   0.147351
37   0.345854

$$$$

