PCCDB-ID:  56264
public computational chemistry database (PCCDB) project, http://pccdb.org

 34 34  0  0  1  0  0  0  0  0999 V2000
    1.6236   -0.9118    1.7877 C   0  0  0  0  0  0  0  0  0  0  0  0
    2.5238   -0.9511    0.9826 C   0  0  0  0  0  0  0  0  0  0  0  0
    6.5447   -2.0673    1.6103 C   0  0  0  0  0  0  0  0  0  0  0  0
    7.9012   -1.6273    1.0428 C   0  0  0  0  0  0  0  0  0  0  0  0
    5.6769   -1.0150    2.3216 C   0  0  0  0  0  0  0  0  0  0  0  0
    7.8855   -0.5802   -0.0925 C   0  0  0  0  0  0  0  0  0  0  0  0
    3.6197   -0.9852    0.0122 C   0  0  0  0  0  0  0  0  0  0  0  0
    5.2667    0.2818    1.5885 C   0  0  0  0  0  0  0  0  0  0  0  0
    6.7511   -0.7127   -1.1387 C   0  0  0  0  0  0  0  0  0  0  0  0
    4.6096    0.1973    0.1850 C   0  0  1  0  0  0  0  0  0  0  0  0
    5.6260    0.3195   -0.9724 C   0  0  2  0  0  0  0  0  0  0  0  0
    5.2229    1.0697   -3.2145 C   0  0  0  0  0  0  0  0  0  0  0  0
    6.2773    1.7854   -3.2003 N   0  0  0  0  0  0  0  0  0  0  0  0
    4.3088    0.9046   -4.2098 O   0  0  0  0  0  0  0  0  0  0  0  0
    4.8157    0.3207   -2.1863 O   0  0  0  0  0  0  0  0  0  0  0  0
    0.8215   -0.8780    2.4891 H   0  0  0  0  0  0  0  0  0  0  0  0
    6.7361   -2.8679    2.3385 H   0  0  0  0  0  0  0  0  0  0  0  0
    5.9665   -2.5478    0.8120 H   0  0  0  0  0  0  0  0  0  0  0  0
    8.4012   -2.5327    0.6716 H   0  0  0  0  0  0  0  0  0  0  0  0
    8.5352   -1.2513    1.8583 H   0  0  0  0  0  0  0  0  0  0  0  0
    6.1932   -0.7039    3.2415 H   0  0  0  0  0  0  0  0  0  0  0  0
    4.7611   -1.5191    2.6559 H   0  0  0  0  0  0  0  0  0  0  0  0
    8.8486   -0.6467   -0.6131 H   0  0  0  0  0  0  0  0  0  0  0  0
    7.8646    0.4315    0.3293 H   0  0  0  0  0  0  0  0  0  0  0  0
    3.2061   -0.9407   -1.0013 H   0  0  0  0  0  0  0  0  0  0  0  0
    4.1394   -1.9470    0.0893 H   0  0  0  0  0  0  0  0  0  0  0  0
    6.1227    0.9652    1.5277 H   0  0  0  0  0  0  0  0  0  0  0  0
    4.5463    0.7808    2.2474 H   0  0  0  0  0  0  0  0  0  0  0  0
    6.3432   -1.7301   -1.1642 H   0  0  0  0  0  0  0  0  0  0  0  0
    7.1716   -0.5249   -2.1310 H   0  0  0  0  0  0  0  0  0  0  0  0
    3.9962    1.1023    0.0838 H   0  0  0  0  0  0  0  0  0  0  0  0
    6.0927    1.3068   -0.9016 H   0  0  0  0  0  0  0  0  0  0  0  0
    6.4107    2.3005   -4.0698 H   0  0  0  0  0  0  0  0  0  0  0  0
    4.5940    1.4281   -4.9743 H   0  0  0  0  0  0  0  0  0  0  0  0
  1 16  1  0  0  0  0
  2  1  3  0  0  0  0
  3  5  1  0  0  0  0
  3 17  1  0  0  0  0
  4  3  1  0  0  0  0
  4 20  1  0  0  0  0
  5 22  1  0  0  0  0
  5 21  1  0  0  0  0
  6 24  1  0  0  0  0
  6  4  1  0  0  0  0
  7 26  1  0  0  0  0
  7 10  1  0  0  0  0
  7  2  1  0  0  0  0
  8 28  1  0  0  0  0
  8  5  1  0  0  0  0
  9 11  1  0  0  0  0
  9  6  1  0  0  0  0
 10 31  1  6  0  0  0
 10  8  1  0  0  0  0
 11 32  1  1  0  0  0
 11 10  1  0  0  0  0
 12 13  2  0  0  0  0
 12 15  1  0  0  0  0
 14 12  1  0  0  0  0
 15 11  1  0  0  0  0
 18  3  1  0  0  0  0
 19  4  1  0  0  0  0
 23  6  1  0  0  0  0
 25  7  1  0  0  0  0
 27  8  1  0  0  0  0
 29  9  1  0  0  0  0
 30  9  1  0  0  0  0
 33 13  1  0  0  0  0
 34 14  1  0  0  0  0
M  END
>  <HBA>
3

>  <HBD>
1

>  <TPSA>
52.32

>  <cid>
56264

>  <dipole>
1.77

>  <excitation_energy_1>
5.847

>  <excitation_energy_2>
6.221

>  <excitation_energy_3>
6.27

>  <excitation_energy_4>
6.442

>  <homo_energy>
-6.887

>  <homo_lumo_gap>
8.106

>  <logP>
3.144

>  <lumo_energy>
1.219

>  <melting_point>
86.4

>  <molecular_refractivity>
60.23

>  <oscillator_strength_1>
0.0037

>  <oscillator_strength_2>
0.0047

>  <oscillator_strength_3>
0.0041

>  <oscillator_strength_4>
0.0446

>  <open_babel_can_smiles>
C#CC[C@H]1CCCCCC[C@H]1OC(=N)O

>  <mulliken_charges>
34
1   -0.532165
2   0.365556
3   -0.266305
4   -0.257411
5   -0.263629
6   -0.27321
7   -0.424415
8   -0.284874
9   -0.280185
10   -0.092358
11   0.114746
12   0.646777
13   -0.628758
14   -0.569923
15   -0.471201
16   0.183662
17   0.131995
18   0.133302
19   0.131024
20   0.128915
21   0.128368
22   0.147934
23   0.139116
24   0.140386
25   0.197754
26   0.169667
27   0.134911
28   0.149092
29   0.140163
30   0.161257
31   0.145657
32   0.17091
33   0.275984
34   0.407258

>  <lowdin_charges>
34
1   -0.273345
2   -0.034874
3   -0.286442
4   -0.280745
5   -0.284181
6   -0.280439
7   -0.272138
8   -0.287124
9   -0.291597
10   -0.129367
11   0.006277
12   0.18934
13   -0.475235
14   -0.365429
15   -0.180178
16   0.202545
17   0.147126
18   0.137953
19   0.14232
20   0.141991
21   0.143579
22   0.152198
23   0.148548
24   0.1419
25   0.181316
26   0.165092
27   0.14372
28   0.157226
29   0.144296
30   0.162575
31   0.155166
32   0.16013
33   0.256296
34   0.361498

$$$$

