PCCDB-ID:  14069
public computational chemistry database (PCCDB) project, http://pccdb.org

 29 28  0  0  0  0  0  0  0  0999 V2000
    4.1774    1.0281   -1.8228 C   0  0  0  0  0  0  0  0  0  0  0  0
    2.7068    1.9914   -0.0115 C   0  0  0  0  0  0  0  0  0  0  0  0
    6.1603   -3.9152    1.1053 C   0  0  0  0  0  0  0  0  0  0  0  0
    4.1805   -5.4230    0.6856 C   0  0  0  0  0  0  0  0  0  0  0  0
    4.3813   -1.5647   -0.0338 C   0  0  0  0  0  0  0  0  0  0  0  0
    3.3205   -0.4600    0.0775 C   0  0  0  0  0  0  0  0  0  0  0  0
    3.8827   -2.9191    0.4909 C   0  0  0  0  0  0  0  0  0  0  0  0
    3.7870    0.9493   -0.3388 C   0  0  0  0  0  0  0  0  0  0  0  0
    4.8596   -4.0979    0.3081 C   0  0  0  0  0  0  0  0  0  0  0  0
    4.4934    2.0434   -2.0907 H   0  0  0  0  0  0  0  0  0  0  0  0
    3.3253    0.7665   -2.4646 H   0  0  0  0  0  0  0  0  0  0  0  0
    5.0017    0.3505   -2.0696 H   0  0  0  0  0  0  0  0  0  0  0  0
    3.0372    3.0039   -0.2728 H   0  0  0  0  0  0  0  0  0  0  0  0
    2.4548    1.9852    1.0558 H   0  0  0  0  0  0  0  0  0  0  0  0
    1.7845    1.7888   -0.5719 H   0  0  0  0  0  0  0  0  0  0  0  0
    6.8303   -4.7717    0.9639 H   0  0  0  0  0  0  0  0  0  0  0  0
    5.9500   -3.8332    2.1802 H   0  0  0  0  0  0  0  0  0  0  0  0
    6.7078   -3.0160    0.8031 H   0  0  0  0  0  0  0  0  0  0  0  0
    4.8528   -6.2749    0.5280 H   0  0  0  0  0  0  0  0  0  0  0  0
    3.2763   -5.5935    0.0888 H   0  0  0  0  0  0  0  0  0  0  0  0
    3.8859   -5.4248    1.7434 H   0  0  0  0  0  0  0  0  0  0  0  0
    5.2783   -1.2541    0.5197 H   0  0  0  0  0  0  0  0  0  0  0  0
    4.6919   -1.6825   -1.0810 H   0  0  0  0  0  0  0  0  0  0  0  0
    2.9692   -0.4161    1.1191 H   0  0  0  0  0  0  0  0  0  0  0  0
    2.4415   -0.7371   -0.5253 H   0  0  0  0  0  0  0  0  0  0  0  0
    2.9406   -3.1663   -0.0204 H   0  0  0  0  0  0  0  0  0  0  0  0
    3.6309   -2.8268    1.5590 H   0  0  0  0  0  0  0  0  0  0  0  0
    4.6800    1.1934    0.2580 H   0  0  0  0  0  0  0  0  0  0  0  0
    5.1231   -4.1485   -0.7602 H   0  0  0  0  0  0  0  0  0  0  0  0
  1  8  1  0  0  0  0
  2 14  1  0  0  0  0
  3 17  1  0  0  0  0
  4 21  1  0  0  0  0
  5  6  1  0  0  0  0
  5  7  1  0  0  0  0
  5 22  1  0  0  0  0
  6 24  1  0  0  0  0
  7 27  1  0  0  0  0
  8  2  1  0  0  0  0
  8  6  1  0  0  0  0
  8 28  1  0  0  0  0
  9  7  1  0  0  0  0
  9  4  1  0  0  0  0
  9  3  1  0  0  0  0
 10  1  1  0  0  0  0
 11  1  1  0  0  0  0
 12  1  1  0  0  0  0
 13  2  1  0  0  0  0
 15  2  1  0  0  0  0
 16  3  1  0  0  0  0
 18  3  1  0  0  0  0
 19  4  1  0  0  0  0
 20  4  1  0  0  0  0
 23  5  1  0  0  0  0
 25  6  1  0  0  0  0
 26  7  1  0  0  0  0
 29  9  1  0  0  0  0
M  END
>  <HBA>
0

>  <HBD>
0

>  <TPSA>
0.0

>  <cid>
14069

>  <dipole>
0.08

>  <excitation_energy_1>
7.558

>  <excitation_energy_2>
7.811

>  <excitation_energy_3>
7.948

>  <excitation_energy_4>
7.993

>  <homo_energy>
-7.97

>  <homo_lumo_gap>
10.319

>  <logP>
3.469

>  <lumo_energy>
2.348

>  <melting_point>
-28.56

>  <molecular_refractivity>
45.38

>  <oscillator_strength_1>
0.0354

>  <oscillator_strength_2>
0.0013

>  <oscillator_strength_3>
0.0034

>  <oscillator_strength_4>
0.0186

>  <open_babel_can_smiles>
CC(CCCC(C)C)C

>  <mulliken_charges>
29
1   -0.444484
2   -0.441601
3   -0.444547
4   -0.441752
5   -0.264705
6   -0.246643
7   -0.246416
8   -0.065059
9   -0.065411
10   0.1387
11   0.136791
12   0.144468
13   0.138136
14   0.138555
15   0.137658
16   0.138768
17   0.136857
18   0.144418
19   0.138205
20   0.1386
21   0.137707
22   0.130621
23   0.130694
24   0.124367
25   0.122311
26   0.124319
27   0.122404
28   0.118484
29   0.118554

>  <lowdin_charges>
29
1   -0.447848
2   -0.441906
3   -0.4462
4   -0.44361
5   -0.277801
6   -0.274155
7   -0.273224
8   -0.120566
9   -0.118561
10   0.147001
11   0.145212
12   0.149101
13   0.146049
14   0.145118
15   0.144972
16   0.14817
17   0.142856
18   0.148775
19   0.147348
20   0.146876
21   0.14352
22   0.139216
23   0.137606
24   0.137348
25   0.13623
26   0.13846
27   0.134237
28   0.133961
29   0.131812

$$$$

