PCCDB-ID:  12202
public computational chemistry database (PCCDB) project, http://pccdb.org

 30 29  0  0  0  0  0  0  0  0999 V2000
    5.2097   -1.5017    4.2651 C   0  0  0  0  0  0  0  0  0  0  0  0
    5.4505   -6.6057   -1.7553 C   0  0  0  0  0  0  0  0  0  0  0  0
    5.4744   -1.1864    2.7893 C   0  0  0  0  0  0  0  0  0  0  0  0
    5.2953   -5.4639   -0.7465 C   0  0  0  0  0  0  0  0  0  0  0  0
    4.1987   -1.2268    1.9338 C   0  0  0  0  0  0  0  0  0  0  0  0
    5.9661   -4.1585   -1.2063 C   0  0  0  0  0  0  0  0  0  0  0  0
    4.4015   -0.8928    0.4385 C   0  0  0  0  0  0  0  0  0  0  0  0
    5.7952   -2.9689   -0.2356 C   0  0  0  0  0  0  0  0  0  0  0  0
    4.5613   -2.0925   -0.5065 C   0  0  0  0  0  0  0  0  0  0  0  0
    3.3360   -2.8345   -0.4232 O   0  0  0  0  0  0  0  0  0  0  0  0
    6.1298   -1.4505    4.8587 H   0  0  0  0  0  0  0  0  0  0  0  0
    4.7902   -2.5081    4.3857 H   0  0  0  0  0  0  0  0  0  0  0  0
    4.4933   -0.7928    4.6987 H   0  0  0  0  0  0  0  0  0  0  0  0
    4.9787   -7.5265   -1.3942 H   0  0  0  0  0  0  0  0  0  0  0  0
    6.5086   -6.8255   -1.9446 H   0  0  0  0  0  0  0  0  0  0  0  0
    4.9907   -6.3520   -2.7189 H   0  0  0  0  0  0  0  0  0  0  0  0
    6.2189   -1.8901    2.3954 H   0  0  0  0  0  0  0  0  0  0  0  0
    5.9288   -0.1885    2.7043 H   0  0  0  0  0  0  0  0  0  0  0  0
    5.7340   -5.7619    0.2160 H   0  0  0  0  0  0  0  0  0  0  0  0
    4.2319   -5.2900   -0.5392 H   0  0  0  0  0  0  0  0  0  0  0  0
    3.4860   -0.5077    2.3598 H   0  0  0  0  0  0  0  0  0  0  0  0
    3.7161   -2.2085    2.0207 H   0  0  0  0  0  0  0  0  0  0  0  0
    5.5909   -3.8791   -2.2046 H   0  0  0  0  0  0  0  0  0  0  0  0
    7.0366   -4.3593   -1.3467 H   0  0  0  0  0  0  0  0  0  0  0  0
    5.2696   -0.2305    0.3135 H   0  0  0  0  0  0  0  0  0  0  0  0
    3.5309   -0.3348    0.0740 H   0  0  0  0  0  0  0  0  0  0  0  0
    6.6776   -2.3177   -0.2976 H   0  0  0  0  0  0  0  0  0  0  0  0
    5.7557   -3.3467    0.7934 H   0  0  0  0  0  0  0  0  0  0  0  0
    4.6636   -1.6869   -1.5288 H   0  0  0  0  0  0  0  0  0  0  0  0
    3.3331   -3.4803   -1.1448 H   0  0  0  0  0  0  0  0  0  0  0  0
  1 12  1  0  0  0  0
  1 13  1  0  0  0  0
  1 11  1  0  0  0  0
  2 14  1  0  0  0  0
  2  4  1  0  0  0  0
  3  1  1  0  0  0  0
  4 20  1  0  0  0  0
  4 19  1  0  0  0  0
  5 22  1  0  0  0  0
  5 21  1  0  0  0  0
  5  3  1  0  0  0  0
  6  4  1  0  0  0  0
  6  8  1  0  0  0  0
  7  5  1  0  0  0  0
  8 28  1  0  0  0  0
  9 10  1  0  0  0  0
  9  8  1  0  0  0  0
  9  7  1  0  0  0  0
 15  2  1  0  0  0  0
 16  2  1  0  0  0  0
 17  3  1  0  0  0  0
 18  3  1  0  0  0  0
 23  6  1  0  0  0  0
 24  6  1  0  0  0  0
 25  7  1  0  0  0  0
 26  7  1  0  0  0  0
 27  8  1  0  0  0  0
 29  9  1  0  0  0  0
 30 10  1  0  0  0  0
M  END
>  <HBA>
1

>  <HBD>
1

>  <TPSA>
20.23

>  <cid>
12202

>  <dipole>
1.51

>  <excitation_energy_1>
6.297

>  <excitation_energy_2>
6.955

>  <excitation_energy_3>
7.017

>  <excitation_energy_4>
7.171

>  <homo_energy>
-6.988

>  <homo_lumo_gap>
8.694

>  <logP>
2.728

>  <lumo_energy>
1.706

>  <melting_point>
-9.94

>  <molecular_refractivity>
46.54

>  <oscillator_strength_1>
0.0087

>  <oscillator_strength_2>
0.0062

>  <oscillator_strength_3>
0.0033

>  <oscillator_strength_4>
0.0139

>  <open_babel_can_smiles>
CCCCC(CCCC)O

>  <mulliken_charges>
30
1   -0.441329
2   -0.441879
3   -0.256408
4   -0.256093
5   -0.254928
6   -0.27304
7   -0.2649
8   -0.263862
9   0.119736
10   -0.62635
11   0.138951
12   0.142061
13   0.140952
14   0.145079
15   0.143084
16   0.138392
17   0.134196
18   0.126983
19   0.137379
20   0.132222
21   0.127136
22   0.154897
23   0.120349
24   0.135473
25   0.126016
26   0.141301
27   0.127659
28   0.146828
29   0.105126
30   0.394968

>  <lowdin_charges>
30
1   -0.445667
2   -0.444291
3   -0.276997
4   -0.276372
5   -0.28137
6   -0.281177
7   -0.284565
8   -0.295865
9   0.000535
10   -0.472455
11   0.147983
12   0.145878
13   0.14709
14   0.151272
15   0.145858
16   0.144364
17   0.13989
18   0.135644
19   0.142246
20   0.137278
21   0.142937
22   0.150867
23   0.131833
24   0.143201
25   0.142694
26   0.152312
27   0.146255
28   0.148245
29   0.120228
30   0.34215

$$$$

