PCCDB-ID:  16662
public computational chemistry database (PCCDB) project, http://pccdb.org

 29 28  0  0  1  0  0  0  0  0999 V2000
    2.8838    2.7099    1.6906 C   0  0  0  0  0  0  0  0  0  0  0  0
    7.5828    3.2673   -2.0050 C   0  0  0  0  0  0  0  0  0  0  0  0
    7.3476    1.5940   -0.1316 C   0  0  0  0  0  0  0  0  0  0  0  0
    2.2240    2.2939   -2.1588 C   0  0  0  0  0  0  0  0  0  0  0  0
    2.4898    3.0366    0.2458 C   0  0  0  0  0  0  0  0  0  0  0  0
    5.2661    2.6118   -1.2302 C   0  0  0  0  0  0  0  0  0  0  0  0
    4.2740    1.5043   -0.8415 C   0  0  0  0  0  0  0  0  0  0  0  0
    6.7209    2.1350   -1.4258 C   0  0  0  0  0  0  0  0  0  0  0  0
    2.7844    1.9194   -0.7767 C   0  0  2  0  0  0  0  0  0  0  0  0
    2.5608    3.5038    2.3737 H   0  0  0  0  0  0  0  0  0  0  0  0
    3.9679    2.5997    1.8053 H   0  0  0  0  0  0  0  0  0  0  0  0
    2.4186    1.7745    2.0269 H   0  0  0  0  0  0  0  0  0  0  0  0
    8.6120    2.9335   -2.1836 H   0  0  0  0  0  0  0  0  0  0  0  0
    7.6254    4.1194   -1.3138 H   0  0  0  0  0  0  0  0  0  0  0  0
    7.1778    3.6311   -2.9569 H   0  0  0  0  0  0  0  0  0  0  0  0
    8.3795    1.2654   -0.3037 H   0  0  0  0  0  0  0  0  0  0  0  0
    6.7937    0.7394    0.2717 H   0  0  0  0  0  0  0  0  0  0  0  0
    7.3728    2.3715    0.6439 H   0  0  0  0  0  0  0  0  0  0  0  0
    1.1415    2.4622   -2.1089 H   0  0  0  0  0  0  0  0  0  0  0  0
    2.4041    1.4980   -2.8919 H   0  0  0  0  0  0  0  0  0  0  0  0
    2.6789    3.2130   -2.5470 H   0  0  0  0  0  0  0  0  0  0  0  0
    2.9861    3.9653   -0.0693 H   0  0  0  0  0  0  0  0  0  0  0  0
    1.4123    3.2507    0.2125 H   0  0  0  0  0  0  0  0  0  0  0  0
    5.2597    3.4072   -0.4699 H   0  0  0  0  0  0  0  0  0  0  0  0
    4.9353    3.0835   -2.1655 H   0  0  0  0  0  0  0  0  0  0  0  0
    4.5612    1.0800    0.1285 H   0  0  0  0  0  0  0  0  0  0  0  0
    4.3643    0.6803   -1.5651 H   0  0  0  0  0  0  0  0  0  0  0  0
    6.7054    1.3152   -2.1612 H   0  0  0  0  0  0  0  0  0  0  0  0
    2.2360    1.0256   -0.4385 H   0  0  0  0  0  0  0  0  0  0  0  0
  1 11  1  0  0  0  0
  1 12  1  0  0  0  0
  1 10  1  0  0  0  0
  2  8  1  0  0  0  0
  2 14  1  0  0  0  0
  3 17  1  0  0  0  0
  3 18  1  0  0  0  0
  4 19  1  0  0  0  0
  4  9  1  0  0  0  0
  5  1  1  0  0  0  0
  6  7  1  0  0  0  0
  6 24  1  0  0  0  0
  7  9  1  0  0  0  0
  7 26  1  0  0  0  0
  8  6  1  0  0  0  0
  8  3  1  0  0  0  0
  9 29  1  1  0  0  0
  9  5  1  0  0  0  0
 13  2  1  0  0  0  0
 15  2  1  0  0  0  0
 16  3  1  0  0  0  0
 20  4  1  0  0  0  0
 21  4  1  0  0  0  0
 22  5  1  0  0  0  0
 23  5  1  0  0  0  0
 25  6  1  0  0  0  0
 27  7  1  0  0  0  0
 28  8  1  0  0  0  0
M  END
>  <HBA>
0

>  <HBD>
0

>  <TPSA>
0.0

>  <cid>
16662

>  <dipole>
0.09

>  <excitation_energy_1>
7.521

>  <excitation_energy_2>
7.621

>  <excitation_energy_3>
7.771

>  <excitation_energy_4>
7.86

>  <homo_energy>
-8.03

>  <homo_lumo_gap>
10.131

>  <logP>
3.469

>  <lumo_energy>
2.101

>  <melting_point>
-28.56

>  <molecular_refractivity>
45.38

>  <oscillator_strength_1>
0.0088

>  <oscillator_strength_2>
0.0068

>  <oscillator_strength_3>
0.0013

>  <oscillator_strength_4>
0.0173

>  <open_babel_can_smiles>
CC[C@H](CCC(C)C)C

>  <mulliken_charges>
29
1   -0.450232
2   -0.442221
3   -0.445345
4   -0.450074
5   -0.247088
6   -0.254258
7   -0.267816
8   -0.065249
9   -0.065819
10   0.141059
11   0.146876
12   0.140276
13   0.138206
14   0.137456
15   0.138511
16   0.13911
17   0.144877
18   0.136482
19   0.138774
20   0.137628
21   0.142745
22   0.131342
23   0.127178
24   0.127318
25   0.128723
26   0.134704
27   0.122956
28   0.118829
29   0.115049

>  <lowdin_charges>
29
1   -0.447027
2   -0.443664
3   -0.447526
4   -0.446522
5   -0.274473
6   -0.280653
7   -0.281835
8   -0.119822
9   -0.12402
10   0.150594
11   0.145507
12   0.146002
13   0.145848
14   0.145142
15   0.146496
16   0.146832
17   0.149214
18   0.144755
19   0.145708
20   0.147251
21   0.146064
22   0.139092
23   0.138587
24   0.138062
25   0.140618
26   0.141545
27   0.138892
28   0.134121
29   0.135213

$$$$

