PCCDB-ID:  6494
public computational chemistry database (PCCDB) project, http://pccdb.org

 17 16  0  0  1  0  0  0  0  0999 V2000
    1.0108   -0.0415   -0.0609 C   0  0  0  0  0  0  0  0  0  0  0  0
    3.8703    2.4763   -0.4836 C   0  0  0  0  0  0  0  0  0  0  0  0
    4.1802   -1.4395   -0.5631 C   0  0  0  0  0  0  0  0  0  0  0  0
    2.2191   -0.0286   -0.0704 C   0  0  0  0  0  0  0  0  0  0  0  0
    4.2986    1.0707   -0.9073 C   0  0  0  0  0  0  0  0  0  0  0  0
    3.6968   -0.0676   -0.0550 C   0  0  2  0  0  0  0  0  0  0  0  0
    4.1807    0.1507    1.2809 O   0  0  0  0  0  0  0  0  0  0  0  0
   -0.0557   -0.0378   -0.0589 H   0  0  0  0  0  0  0  0  0  0  0  0
    4.3669    3.2307   -1.1039 H   0  0  0  0  0  0  0  0  0  0  0  0
    4.1330    2.6628    0.5615 H   0  0  0  0  0  0  0  0  0  0  0  0
    2.7884    2.6094   -0.5910 H   0  0  0  0  0  0  0  0  0  0  0  0
    3.8518   -1.6224   -1.5917 H   0  0  0  0  0  0  0  0  0  0  0  0
    3.7827   -2.2439    0.0659 H   0  0  0  0  0  0  0  0  0  0  0  0
    5.2736   -1.4729   -0.5244 H   0  0  0  0  0  0  0  0  0  0  0  0
    5.3888    0.9719   -0.8308 H   0  0  0  0  0  0  0  0  0  0  0  0
    4.0310    0.8879   -1.9552 H   0  0  0  0  0  0  0  0  0  0  0  0
    3.6990   -0.4547    1.8669 H   0  0  0  0  0  0  0  0  0  0  0  0
  1  8  1  0  0  0  0
  2 10  1  0  0  0  0
  3 14  1  0  0  0  0
  3  6  1  0  0  0  0
  3 13  1  0  0  0  0
  4  1  3  0  0  0  0
  5 15  1  0  0  0  0
  5  2  1  0  0  0  0
  5  6  1  0  0  0  0
  6  4  1  6  0  0  0
  6  7  1  0  0  0  0
  7 17  1  0  0  0  0
  9  2  1  0  0  0  0
 11  2  1  0  0  0  0
 12  3  1  0  0  0  0
 16  5  1  0  0  0  0
M  END
>  <HBA>
1

>  <HBD>
1

>  <TPSA>
20.23

>  <cid>
6494

>  <dipole>
1.3

>  <excitation_energy_1>
6.307

>  <excitation_energy_2>
6.551

>  <excitation_energy_3>
6.717

>  <excitation_energy_4>
6.779

>  <homo_energy>
-7.165

>  <homo_lumo_gap>
8.191

>  <logP>
0.781

>  <lumo_energy>
1.026

>  <melting_point>
20.43

>  <molecular_refractivity>
30.32

>  <oscillator_strength_1>
0.0019

>  <oscillator_strength_2>
0.0232

>  <oscillator_strength_3>
0.0274

>  <oscillator_strength_4>
0.0114

>  <open_babel_can_smiles>
C[C@](C#C)(CC)O

>  <mulliken_charges>
17
1   -0.512176
2   -0.452954
3   -0.445066
4   0.327782
5   -0.248536
6   0.175721
7   -0.624966
8   0.191854
9   0.13873
10   0.167835
11   0.152964
12   0.152232
13   0.142591
14   0.157294
15   0.146068
16   0.138516
17   0.392112

>  <lowdin_charges>
17
1   -0.253593
2   -0.446012
3   -0.443734
4   -0.053079
5   -0.264817
6   0.134876
7   -0.451489
8   0.204227
9   0.150677
10   0.15925
11   0.152325
12   0.15719
13   0.153205
14   0.156505
15   0.149605
16   0.147513
17   0.347351

$$$$

