PCCDB-ID:  28302
public computational chemistry database (PCCDB) project, http://pccdb.org

 13 13  0  0  0  0  0  0  0  0999 V2000
   -1.1999   -0.6938    0.0429 C   0  0  0  0  0  0  0  0  0  0  0  0
   -0.0153   -1.4168    0.1045 C   0  0  0  0  0  0  0  0  0  0  0  0
   -1.1301    0.6987   -0.0632 C   0  0  0  0  0  0  0  0  0  0  0  0
    2.4447   -1.4350    0.1194 C   0  0  0  0  0  0  0  0  0  0  0  0
    2.3800    1.4516   -0.1014 C   0  0  0  0  0  0  0  0  0  0  0  0
    1.2039   -0.7245    0.0583 C   0  0  0  0  0  0  0  0  0  0  0  0
    1.1596    0.6850   -0.0496 C   0  0  0  0  0  0  0  0  0  0  0  0
    3.4380   -2.0369    0.1708 N   0  0  0  0  0  0  0  0  0  0  0  0
    3.3655    2.0653   -0.1430 N   0  0  0  0  0  0  0  0  0  0  0  0
    0.0168    1.3803   -0.1090 N   0  0  0  0  0  0  0  0  0  0  0  0
   -2.1616   -1.1950    0.0761 H   0  0  0  0  0  0  0  0  0  0  0  0
   -0.0159   -2.4986    0.1873 H   0  0  0  0  0  0  0  0  0  0  0  0
   -2.0375    1.2962   -0.1139 H   0  0  0  0  0  0  0  0  0  0  0  0
  1 11  1  0  0  0  0
  1  2  2  0  0  0  0
  2 12  1  0  0  0  0
  3  1  1  0  0  0  0
  4  8  3  0  0  0  0
  5  7  1  0  0  0  0
  6  2  1  0  0  0  0
  6  4  1  0  0  0  0
  7  6  2  0  0  0  0
  9  5  3  0  0  0  0
 10  3  2  0  0  0  0
 10  7  1  0  0  0  0
 13  3  1  0  0  0  0
M  END
>  <HBA>
3

>  <HBD>
0

>  <TPSA>
60.47

>  <cid>
28302

>  <dipole>
7.04

>  <excitation_energy_1>
4.426

>  <excitation_energy_2>
4.77

>  <excitation_energy_3>
4.895

>  <excitation_energy_4>
5.142

>  <homo_energy>
-8.087

>  <homo_lumo_gap>
5.423

>  <logP>
0.825

>  <lumo_energy>
-2.664

>  <melting_point>
95.3

>  <molecular_refractivity>
33.67

>  <oscillator_strength_1>
0.0003

>  <oscillator_strength_2>
0.0027

>  <oscillator_strength_3>
0.0185

>  <oscillator_strength_4>
0.1942

>  <open_babel_can_smiles>
N#Cc1ncccc1C#N

>  <mulliken_charges>
13
1   -0.141587
2   -0.098299
3   0.060484
4   0.237305
5   0.320207
6   0.161862
7   0.290523
8   -0.456042
9   -0.458715
10   -0.447648
11   0.170379
12   0.187481
13   0.17405

>  <lowdin_charges>
13
1   -0.15222
2   -0.09609
3   -0.063252
4   -0.013308
5   -0.006121
6   -0.014792
7   0.058103
8   -0.076189
9   -0.06806
10   -0.109602
11   0.181082
12   0.185657
13   0.174792

$$$$

