PCCDB-ID:  51109
public computational chemistry database (PCCDB) project, http://pccdb.org

 32 32  0  0  0  0  0  0  0  0999 V2000
    3.6450   -1.0134    2.2548 C   0  0  0  0  0  0  0  0  0  0  0  0
    3.1381   -0.2206    1.0604 C   0  0  0  0  0  0  0  0  0  0  0  0
   10.6444   -0.4712   -3.1200 C   0  0  0  0  0  0  0  0  0  0  0  0
   10.2465   -1.0781   -1.9250 C   0  0  0  0  0  0  0  0  0  0  0  0
   10.5659    0.9147   -3.2504 C   0  0  0  0  0  0  0  0  0  0  0  0
    9.7750   -0.3028   -0.8680 C   0  0  0  0  0  0  0  0  0  0  0  0
   10.0919    1.6895   -2.1889 C   0  0  0  0  0  0  0  0  0  0  0  0
    9.2344    1.9433    0.1791 C   0  0  0  0  0  0  0  0  0  0  0  0
    6.6823    1.6829    0.0320 C   0  0  0  0  0  0  0  0  0  0  0  0
    9.6962    1.0906   -0.9898 C   0  0  0  0  0  0  0  0  0  0  0  0
    5.1453   -0.0558   -0.2714 C   0  0  0  0  0  0  0  0  0  0  0  0
    6.2854    0.4259   -0.5655 N   0  0  0  0  0  0  0  0  0  0  0  0
    7.9998    1.0188    1.9837 N   0  0  0  0  0  0  0  0  0  0  0  0
    7.9535    1.5469    0.7522 N   0  0  0  0  0  0  0  0  0  0  0  0
    4.7819   -1.2746   -0.7354 O   0  0  0  0  0  0  0  0  0  0  0  0
    6.9138    0.6706    2.4417 O   0  0  0  0  0  0  0  0  0  0  0  0
    4.1950    0.5577    0.4429 O   0  0  0  0  0  0  0  0  0  0  0  0
    2.7994   -1.4823    2.7716 H   0  0  0  0  0  0  0  0  0  0  0  0
    4.1697   -0.3588    2.9563 H   0  0  0  0  0  0  0  0  0  0  0  0
    4.3319   -1.8035    1.9377 H   0  0  0  0  0  0  0  0  0  0  0  0
    2.4138    0.5384    1.3655 H   0  0  0  0  0  0  0  0  0  0  0  0
    2.6768   -0.8636    0.3066 H   0  0  0  0  0  0  0  0  0  0  0  0
   11.0115   -1.0774   -3.9440 H   0  0  0  0  0  0  0  0  0  0  0  0
   10.3052   -2.1582   -1.8183 H   0  0  0  0  0  0  0  0  0  0  0  0
   10.8687    1.3946   -4.1773 H   0  0  0  0  0  0  0  0  0  0  0  0
    9.4578   -0.7760    0.0574 H   0  0  0  0  0  0  0  0  0  0  0  0
   10.0319    2.7709   -2.2945 H   0  0  0  0  0  0  0  0  0  0  0  0
    9.1762    2.9951   -0.1282 H   0  0  0  0  0  0  0  0  0  0  0  0
    9.9471    1.8801    1.0087 H   0  0  0  0  0  0  0  0  0  0  0  0
    5.9521    2.0707    0.7491 H   0  0  0  0  0  0  0  0  0  0  0  0
    6.8534    2.4269   -0.7528 H   0  0  0  0  0  0  0  0  0  0  0  0
    5.5610   -1.5984   -1.2216 H   0  0  0  0  0  0  0  0  0  0  0  0
  1 18  1  0  0  0  0
  1 19  1  0  0  0  0
  2 21  1  0  0  0  0
  2  1  1  0  0  0  0
  3  4  1  0  0  0  0
  4 24  1  0  0  0  0
  4  6  2  0  0  0  0
  5  3  2  0  0  0  0
  5  7  1  0  0  0  0
  6 26  1  0  0  0  0
  7 10  2  0  0  0  0
  8 14  1  0  0  0  0
  8 29  1  0  0  0  0
  9 30  1  0  0  0  0
  9 14  1  0  0  0  0
 10  6  1  0  0  0  0
 10  8  1  0  0  0  0
 11 17  1  0  0  0  0
 12 11  2  0  0  0  0
 12  9  1  0  0  0  0
 13 16  2  0  0  0  0
 14 13  1  0  0  0  0
 15 11  1  0  0  0  0
 17  2  1  0  0  0  0
 20  1  1  0  0  0  0
 22  2  1  0  0  0  0
 23  3  1  0  0  0  0
 25  5  1  0  0  0  0
 27  7  1  0  0  0  0
 28  8  1  0  0  0  0
 31  9  1  0  0  0  0
 32 15  1  0  0  0  0
M  END
>  <HBA>
6

>  <HBD>
1

>  <TPSA>
71.0

>  <cid>
51109

>  <dipole>
2.39

>  <excitation_energy_1>
3.303

>  <excitation_energy_2>
4.952

>  <excitation_energy_3>
5.053

>  <excitation_energy_4>
5.134

>  <homo_energy>
-5.829

>  <homo_lumo_gap>
5.08

>  <logP>
2.264

>  <lumo_energy>
-0.748

>  <melting_point>
76.14

>  <molecular_refractivity>
62.75

>  <oscillator_strength_1>
0.0008

>  <oscillator_strength_2>
0.022

>  <oscillator_strength_3>
0.023

>  <oscillator_strength_4>
0.0206

>  <open_babel_can_smiles>
CCO/C(=N\CN(Cc1ccccc1)N=O)/O

>  <mulliken_charges>
32
1   -0.466199
2   -0.04172
3   -0.128079
4   -0.133215
5   -0.12616
6   -0.157936
7   -0.190042
8   -0.235936
9   -0.039807
10   0.180345
11   0.751057
12   -0.491668
13   0.152851
14   -0.198812
15   -0.603932
16   -0.391898
17   -0.472396
18   0.146588
19   0.187739
20   0.168918
21   0.158111
22   0.168491
23   0.12981
24   0.130167
25   0.130165
26   0.143221
27   0.123258
28   0.155649
29   0.188119
30   0.184353
31   0.153393
32   0.425565

>  <lowdin_charges>
32
1   -0.460341
2   -0.123312
3   -0.157128
4   -0.151425
5   -0.155418
6   -0.148787
7   -0.163743
8   -0.197568
9   -0.141399
10   -0.016605
11   0.199883
12   -0.278811
13   0.050994
14   -0.0404
15   -0.365854
16   -0.278868
17   -0.186935
18   0.158626
19   0.172719
20   0.162907
21   0.157074
22   0.156117
23   0.158923
24   0.155728
25   0.158347
26   0.164594
27   0.151919
28   0.151038
29   0.174876
30   0.163362
31   0.155446
32   0.37404

$$$$

