PCCDB-ID:  15065
public computational chemistry database (PCCDB) project, http://pccdb.org

 20 20  0  0  1  0  0  0  0  0999 V2000
    0.8844    0.0544   -0.0775 C   0  0  0  0  0  0  0  0  0  0  0  0
    3.7558   -2.3087   -0.4589 C   0  0  0  0  0  0  0  0  0  0  0  0
    2.1830   -1.5797   -2.2980 C   0  0  0  0  0  0  0  0  0  0  0  0
    3.1804    1.0947   -0.8808 C   0  0  0  0  0  0  0  0  0  0  0  0
    2.4022   -0.0535   -0.1653 C   0  0  2  0  0  0  0  0  0  0  0  0
    4.0193    0.0142   -1.5734 C   0  0  0  0  0  0  0  0  0  0  0  0
    3.0678   -1.1181   -1.1289 C   0  0  0  0  0  0  0  0  0  0  0  0
    5.0713    0.0186   -2.1627 O   0  0  0  0  0  0  0  0  0  0  0  0
    0.5954    0.8814    0.5820 H   0  0  0  0  0  0  0  0  0  0  0  0
    0.4397   -0.8619    0.3292 H   0  0  0  0  0  0  0  0  0  0  0  0
    0.4296    0.2416   -1.0568 H   0  0  0  0  0  0  0  0  0  0  0  0
    3.0152   -3.0163   -0.0654 H   0  0  0  0  0  0  0  0  0  0  0  0
    4.3936   -1.9886    0.3730 H   0  0  0  0  0  0  0  0  0  0  0  0
    4.3880   -2.8421   -1.1776 H   0  0  0  0  0  0  0  0  0  0  0  0
    1.3852   -2.2425   -1.9424 H   0  0  0  0  0  0  0  0  0  0  0  0
    2.7864   -2.1321   -3.0266 H   0  0  0  0  0  0  0  0  0  0  0  0
    1.7136   -0.7418   -2.8253 H   0  0  0  0  0  0  0  0  0  0  0  0
    3.7293    1.8168   -0.2678 H   0  0  0  0  0  0  0  0  0  0  0  0
    2.5634    1.6507   -1.5992 H   0  0  0  0  0  0  0  0  0  0  0  0
    2.8099   -0.1974    0.8427 H   0  0  0  0  0  0  0  0  0  0  0  0
  1 10  1  0  0  0  0
  1  9  1  0  0  0  0
  2 12  1  0  0  0  0
  2 13  1  0  0  0  0
  3 15  1  0  0  0  0
  3  7  1  0  0  0  0
  4 18  1  0  0  0  0
  4  5  1  0  0  0  0
  5  1  1  0  0  0  0
  5 20  1  1  0  0  0
  6  7  1  0  0  0  0
  6  4  1  0  0  0  0
  7  2  1  0  0  0  0
  7  5  1  0  0  0  0
  8  6  2  0  0  0  0
 11  1  1  0  0  0  0
 14  2  1  0  0  0  0
 16  3  1  0  0  0  0
 17  3  1  0  0  0  0
 19  4  1  0  0  0  0
M  END
>  <HBA>
1

>  <HBD>
0

>  <TPSA>
17.07

>  <cid>
15065

>  <dipole>
2.85

>  <excitation_energy_1>
4.136

>  <excitation_energy_2>
5.925

>  <excitation_energy_3>
6.436

>  <excitation_energy_4>
6.496

>  <homo_energy>
-6.338

>  <homo_lumo_gap>
5.916

>  <logP>
1.621

>  <lumo_energy>
-0.422

>  <melting_point>
35.43

>  <molecular_refractivity>
33.59

>  <oscillator_strength_1>
0.0003

>  <oscillator_strength_2>
0.0102

>  <oscillator_strength_3>
0.0187

>  <oscillator_strength_4>
0.0013

>  <open_babel_can_smiles>
C[C@@H]1CC(=O)C1(C)C

>  <mulliken_charges>
20
1   -0.4562
2   -0.454715
3   -0.457723
4   -0.366947
5   -0.108082
6   0.416165
7   0.038467
8   -0.434582
9   0.149867
10   0.14766
11   0.144832
12   0.144996
13   0.146314
14   0.161922
15   0.151138
16   0.162505
17   0.145329
18   0.167664
19   0.16722
20   0.134169

>  <lowdin_charges>
20
1   -0.446666
2   -0.440699
3   -0.438673
4   -0.326396
5   -0.129469
6   0.148715
7   -0.027177
8   -0.211542
9   0.155206
10   0.152289
11   0.148491
12   0.152569
13   0.151907
14   0.161611
15   0.154691
16   0.162195
17   0.151102
18   0.167393
19   0.169311
20   0.145143

$$$$

