PCCDB-ID:  14371
public computational chemistry database (PCCDB) project, http://pccdb.org

 31 33  0  0  0  0  0  0  0  0999 V2000
    4.4301    1.0529    1.9945 C   0  0  0  0  0  0  0  0  0  0  0  0
   -0.0602    9.0241    1.1592 C   0  0  0  0  0  0  0  0  0  0  0  0
    1.0252    8.6266    0.3727 C   0  0  0  0  0  0  0  0  0  0  0  0
   -0.7703    8.0924    1.9217 C   0  0  0  0  0  0  0  0  0  0  0  0
    1.7206    2.6452    1.0536 C   0  0  0  0  0  0  0  0  0  0  0  0
    0.9531    3.7480    1.4313 C   0  0  0  0  0  0  0  0  0  0  0  0
    2.5049    6.5961   -0.3907 C   0  0  0  0  0  0  0  0  0  0  0  0
    3.1149    4.0488   -0.3570 C   0  0  0  0  0  0  0  0  0  0  0  0
    4.1986    0.9136    0.5050 C   0  0  0  0  0  0  0  0  0  0  0  0
    1.3829    7.2825    0.3649 C   0  0  0  0  0  0  0  0  0  0  0  0
    2.3625    5.1465    0.0286 C   0  0  0  0  0  0  0  0  0  0  0  0
    2.8112    2.7793    0.1725 C   0  0  0  0  0  0  0  0  0  0  0  0
    1.2783    5.0081    0.9241 C   0  0  0  0  0  0  0  0  0  0  0  0
   -0.4072    6.7419    1.9120 C   0  0  0  0  0  0  0  0  0  0  0  0
    0.6779    6.3301    1.1276 C   0  0  0  0  0  0  0  0  0  0  0  0
    3.5486    1.6728   -0.2755 N   0  0  0  0  0  0  0  0  0  0  0  0
    4.8025   -0.1680   -0.0701 O   0  0  0  0  0  0  0  0  0  0  0  0
   -1.0732    5.7931    2.6442 O   0  0  0  0  0  0  0  0  0  0  0  0
    3.9876    0.2087    2.5379 H   0  0  0  0  0  0  0  0  0  0  0  0
    3.9936    1.9761    2.3767 H   0  0  0  0  0  0  0  0  0  0  0  0
    5.5073    1.0578    2.2060 H   0  0  0  0  0  0  0  0  0  0  0  0
   -0.3614   10.0678    1.1827 H   0  0  0  0  0  0  0  0  0  0  0  0
    1.5735    9.3556   -0.2181 H   0  0  0  0  0  0  0  0  0  0  0  0
   -1.6136    8.4158    2.5302 H   0  0  0  0  0  0  0  0  0  0  0  0
    1.4619    1.6550    1.4190 H   0  0  0  0  0  0  0  0  0  0  0  0
    0.1130    3.6271    2.1064 H   0  0  0  0  0  0  0  0  0  0  0  0
    3.4881    7.0090   -0.1251 H   0  0  0  0  0  0  0  0  0  0  0  0
    2.4011    6.7211   -1.4775 H   0  0  0  0  0  0  0  0  0  0  0  0
    3.9395    4.1390   -1.0589 H   0  0  0  0  0  0  0  0  0  0  0  0
    5.3038   -0.6491    0.6059 H   0  0  0  0  0  0  0  0  0  0  0  0
   -1.7951    6.2236    3.1282 H   0  0  0  0  0  0  0  0  0  0  0  0
  1 21  1  0  0  0  0
  1 20  1  0  0  0  0
  1 19  1  0  0  0  0
  2 22  1  0  0  0  0
  2  4  2  0  0  0  0
  3  2  1  0  0  0  0
  4 24  1  0  0  0  0
  5 25  1  0  0  0  0
  5  6  1  0  0  0  0
  6 26  1  0  0  0  0
  7 27  1  0  0  0  0
  7 11  1  0  0  0  0
  7 10  1  0  0  0  0
  8 11  2  0  0  0  0
  8 12  1  0  0  0  0
  9  1  1  0  0  0  0
 10  3  2  0  0  0  0
 10 15  1  0  0  0  0
 11 13  1  0  0  0  0
 12  5  2  0  0  0  0
 13 15  1  0  0  0  0
 13  6  2  0  0  0  0
 14  4  1  0  0  0  0
 14 18  1  0  0  0  0
 15 14  2  0  0  0  0
 16 12  1  0  0  0  0
 16  9  2  0  0  0  0
 17  9  1  0  0  0  0
 17 30  1  0  0  0  0
 18 31  1  0  0  0  0
 23  3  1  0  0  0  0
 28  7  1  0  0  0  0
 29  8  1  0  0  0  0
M  END
>  <HBA>
3

>  <HBD>
2

>  <TPSA>
49.33

>  <cid>
14371

>  <dipole>
3.69

>  <excitation_energy_1>
4.109

>  <excitation_energy_2>
4.259

>  <excitation_energy_3>
4.523

>  <excitation_energy_4>
4.611

>  <homo_energy>
-5.099

>  <homo_lumo_gap>
4.572

>  <logP>
2.995

>  <lumo_energy>
-0.528

>  <melting_point>
170.77

>  <molecular_refractivity>
71.22

>  <oscillator_strength_1>
0.5823

>  <oscillator_strength_2>
0.0228

>  <oscillator_strength_3>
0.003

>  <oscillator_strength_4>
0.011

>  <open_babel_can_smiles>
C/C(=N\c1ccc2c(c1)Cc1c2c(O)ccc1)/O

>  <mulliken_charges>
31
1   -0.555245
2   -0.135488
3   -0.20701
4   -0.194956
5   -0.175232
6   -0.20081
7   -0.424482
8   -0.241554
9   0.480687
10   0.092202
11   0.107049
12   0.252193
13   0.098772
14   0.270506
15   0.065402
16   -0.469142
17   -0.57073
18   -0.648542
19   0.175594
20   0.200258
21   0.168102
22   0.12617
23   0.120551
24   0.112321
25   0.120422
26   0.148466
27   0.170161
28   0.174166
29   0.125997
30   0.406827
31   0.407347

>  <lowdin_charges>
31
1   -0.483552
2   -0.149061
3   -0.188499
4   -0.216825
5   -0.191659
6   -0.158061
7   -0.272543
8   -0.1815
9   0.146188
10   0.005142
11   -0.001168
12   0.045743
13   -0.021227
14   0.09511
15   -0.037033
16   -0.170594
17   -0.363318
18   -0.37935
19   0.170686
20   0.185439
21   0.164701
22   0.156149
23   0.15725
24   0.151756
25   0.154587
26   0.168603
27   0.167634
28   0.168201
29   0.161258
30   0.356838
31   0.359106

$$$$

