PCCDB-ID:  34857
public computational chemistry database (PCCDB) project, http://pccdb.org

 22 22  0  0  0  0  0  0  0  0999 V2000
    3.2561   -0.0624   -1.2020 C   0  0  0  0  0  0  0  0  0  0  0  0
    5.3677    1.6084    3.8922 C   0  0  0  0  0  0  0  0  0  0  0  0
    2.3967    0.0758    0.0675 C   0  0  0  0  0  0  0  0  0  0  0  0
    2.4060    2.4837    0.8721 C   0  0  0  0  0  0  0  0  0  0  0  0
    2.8829    3.4973    1.7043 C   0  0  0  0  0  0  0  0  0  0  0  0
    3.8382    0.9153    1.9827 C   0  0  0  0  0  0  0  0  0  0  0  0
    4.3372    1.9041    2.8322 C   0  0  0  0  0  0  0  0  0  0  0  0
    2.8768    1.1734    0.9944 C   0  0  0  0  0  0  0  0  0  0  0  0
    3.8416    3.2106    2.6766 C   0  0  0  0  0  0  0  0  0  0  0  0
    4.3412    4.1687    3.5240 O   0  0  0  0  0  0  0  0  0  0  0  0
    2.8800   -0.8652   -1.8473 H   0  0  0  0  0  0  0  0  0  0  0  0
    4.2974   -0.2904   -0.9476 H   0  0  0  0  0  0  0  0  0  0  0  0
    3.2536    0.8686   -1.7803 H   0  0  0  0  0  0  0  0  0  0  0  0
    5.6362    0.5476    3.8905 H   0  0  0  0  0  0  0  0  0  0  0  0
    4.9991    1.8688    4.8917 H   0  0  0  0  0  0  0  0  0  0  0  0
    6.2814    2.1944    3.7352 H   0  0  0  0  0  0  0  0  0  0  0  0
    2.3932   -0.8821    0.6035 H   0  0  0  0  0  0  0  0  0  0  0  0
    1.3561    0.2700   -0.2230 H   0  0  0  0  0  0  0  0  0  0  0  0
    1.6551    2.7210    0.1216 H   0  0  0  0  0  0  0  0  0  0  0  0
    2.5037    4.5132    1.6016 H   0  0  0  0  0  0  0  0  0  0  0  0
    4.2134   -0.1004    2.0998 H   0  0  0  0  0  0  0  0  0  0  0  0
    3.9187    5.0167    3.3177 H   0  0  0  0  0  0  0  0  0  0  0  0
  1 12  1  0  0  0  0
  1  3  1  0  0  0  0
  2 15  1  0  0  0  0
  3 17  1  0  0  0  0
  3  8  1  0  0  0  0
  4  8  2  0  0  0  0
  4  5  1  0  0  0  0
  5  9  2  0  0  0  0
  6 21  1  0  0  0  0
  6  7  2  0  0  0  0
  7  2  1  0  0  0  0
  8  6  1  0  0  0  0
  9  7  1  0  0  0  0
  9 10  1  0  0  0  0
 11  1  1  0  0  0  0
 13  1  1  0  0  0  0
 14  2  1  0  0  0  0
 16  2  1  0  0  0  0
 18  3  1  0  0  0  0
 19  4  1  0  0  0  0
 20  5  1  0  0  0  0
 22 10  1  0  0  0  0
M  END
>  <HBA>
1

>  <HBD>
1

>  <TPSA>
20.23

>  <cid>
34857

>  <dipole>
1.12

>  <excitation_energy_1>
4.925

>  <excitation_energy_2>
4.955

>  <excitation_energy_3>
5.386

>  <excitation_energy_4>
5.685

>  <homo_energy>
-5.638

>  <homo_lumo_gap>
5.84

>  <logP>
2.263

>  <lumo_energy>
0.201

>  <melting_point>
52.3

>  <molecular_refractivity>
43.2

>  <oscillator_strength_1>
0.039

>  <oscillator_strength_2>
0.0013

>  <oscillator_strength_3>
0.0573

>  <oscillator_strength_4>
0.0203

>  <open_babel_can_smiles>
CCc1ccc(c(c1)C)O

>  <mulliken_charges>
22
1   -0.431219
2   -0.514596
3   -0.34081
4   -0.197159
5   -0.186611
6   -0.255498
7   0.15124
8   0.187605
9   0.287831
10   -0.645608
11   0.140067
12   0.147723
13   0.146606
14   0.146375
15   0.165848
16   0.165558
17   0.140463
18   0.139111
19   0.119913
20   0.113106
21   0.11418
22   0.405876

>  <lowdin_charges>
22
1   -0.441225
2   -0.435128
3   -0.268395
4   -0.163499
5   -0.212386
6   -0.167643
7   -0.024761
8   -0.019545
9   0.089087
10   -0.384367
11   0.148272
12   0.148544
13   0.149315
14   0.152142
15   0.162539
16   0.163119
17   0.147037
18   0.145449
19   0.154277
20   0.149679
21   0.150639
22   0.356849

$$$$

