PCCDB-ID:  23484
public computational chemistry database (PCCDB) project, http://pccdb.org

 27 27  0  0  0  0  0  0  0  0999 V2000
    0.9793   -0.1279    0.4071 C   0  0  0  0  0  0  0  0  0  0  0  0
    2.8778   -2.4433    0.0355 C   0  0  0  0  0  0  0  0  0  0  0  0
    4.6207    2.9928   -0.2775 C   0  0  0  0  0  0  0  0  0  0  0  0
    7.2385   -0.5112   -0.8167 C   0  0  0  0  0  0  0  0  0  0  0  0
    7.2166    1.3750    0.6986 C   0  0  0  0  0  0  0  0  0  0  0  0
    2.4578    0.0676    0.1871 C   0  0  0  0  0  0  0  0  0  0  0  0
    3.3455   -1.0099    0.0315 C   0  0  0  0  0  0  0  0  0  0  0  0
    4.2091    1.5560   -0.0824 C   0  0  0  0  0  0  0  0  0  0  0  0
    5.1125    0.4627   -0.1565 C   0  0  0  0  0  0  0  0  0  0  0  0
    2.9070    1.3290    0.1060 N   0  0  0  0  0  0  0  0  0  0  0  0
    4.6582   -0.7957   -0.1259 N   0  0  0  0  0  0  0  0  0  0  0  0
    6.4939    0.6546   -0.3496 N   0  0  0  0  0  0  0  0  0  0  0  0
    0.7755   -0.6842    1.3315 H   0  0  0  0  0  0  0  0  0  0  0  0
    0.5165   -0.6938   -0.4120 H   0  0  0  0  0  0  0  0  0  0  0  0
    0.4926    0.8477    0.4741 H   0  0  0  0  0  0  0  0  0  0  0  0
    2.1536   -2.6336   -0.7672 H   0  0  0  0  0  0  0  0  0  0  0  0
    2.3803   -2.7022    0.9790 H   0  0  0  0  0  0  0  0  0  0  0  0
    3.7345   -3.1068   -0.1013 H   0  0  0  0  0  0  0  0  0  0  0  0
    4.9146    3.4747    0.6648 H   0  0  0  0  0  0  0  0  0  0  0  0
    3.7697    3.5531   -0.6733 H   0  0  0  0  0  0  0  0  0  0  0  0
    5.4661    3.0689   -0.9688 H   0  0  0  0  0  0  0  0  0  0  0  0
    8.2279   -0.1744   -1.1453 H   0  0  0  0  0  0  0  0  0  0  0  0
    6.7196   -0.9705   -1.6596 H   0  0  0  0  0  0  0  0  0  0  0  0
    7.3668   -1.2802   -0.0393 H   0  0  0  0  0  0  0  0  0  0  0  0
    8.1787    1.7197    0.3041 H   0  0  0  0  0  0  0  0  0  0  0  0
    7.4141    0.7357    1.5764 H   0  0  0  0  0  0  0  0  0  0  0  0
    6.6567    2.2478    1.0341 H   0  0  0  0  0  0  0  0  0  0  0  0
  1 15  1  0  0  0  0
  1 13  1  0  0  0  0
  2 17  1  0  0  0  0
  3  8  1  0  0  0  0
  3 19  1  0  0  0  0
  4 12  1  0  0  0  0
  4 24  1  0  0  0  0
  5 27  1  0  0  0  0
  5 26  1  0  0  0  0
  6  1  1  0  0  0  0
  7  2  1  0  0  0  0
  7  6  2  0  0  0  0
  8 10  2  0  0  0  0
  9 11  2  0  0  0  0
  9  8  1  0  0  0  0
 10  6  1  0  0  0  0
 11  7  1  0  0  0  0
 12  9  1  0  0  0  0
 12  5  1  0  0  0  0
 14  1  1  0  0  0  0
 16  2  1  0  0  0  0
 18  2  1  0  0  0  0
 20  3  1  0  0  0  0
 21  3  1  0  0  0  0
 22  4  1  0  0  0  0
 23  4  1  0  0  0  0
 25  5  1  0  0  0  0
M  END
>  <HBA>
3

>  <HBD>
0

>  <TPSA>
29.02

>  <cid>
23484

>  <dipole>
0.97

>  <excitation_energy_1>
4.07

>  <excitation_energy_2>
4.448

>  <excitation_energy_3>
4.796

>  <excitation_energy_4>
5.073

>  <homo_energy>
-5.494

>  <homo_lumo_gap>
4.852

>  <logP>
1.468

>  <lumo_energy>
-0.642

>  <melting_point>
58.19

>  <molecular_refractivity>
51.14

>  <oscillator_strength_1>
0.0834

>  <oscillator_strength_2>
0.0291

>  <oscillator_strength_3>
0.1326

>  <oscillator_strength_4>
0.0159

>  <open_babel_can_smiles>
CN(c1nc(C)c(nc1C)C)C

>  <mulliken_charges>
27
1   -0.522911
2   -0.523317
3   -0.523244
4   -0.286894
5   -0.315941
6   0.262507
7   0.277478
8   0.285678
9   0.422346
10   -0.496178
11   -0.526047
12   -0.449284
13   0.156824
14   0.156919
15   0.174553
16   0.16018
17   0.159909
18   0.172864
19   0.160893
20   0.172161
21   0.168053
22   0.141522
23   0.167187
24   0.143662
25   0.155149
26   0.14219
27   0.163741

>  <lowdin_charges>
27
1   -0.448258
2   -0.448439
3   -0.450932
4   -0.352352
5   -0.35196
6   0.011672
7   0.029765
8   0.016673
9   0.063202
10   -0.139645
11   -0.161842
12   -0.140688
13   0.158574
14   0.159434
15   0.170023
16   0.161309
17   0.16093
18   0.169831
19   0.158833
20   0.170767
21   0.164365
22   0.146645
23   0.164013
24   0.139714
25   0.151704
26   0.135603
27   0.161061

$$$$

