PCCDB-ID:  38214
public computational chemistry database (PCCDB) project, http://pccdb.org

 22 21  0  0  1  0  0  0  0  0999 V2000
    2.7599   -1.2908    0.3693 C   0  0  0  0  0  0  0  0  0  0  0  0
    2.1769    2.4960   -0.4603 C   0  0  0  0  0  0  0  0  0  0  0  0
    5.8785    1.8275    2.6060 C   0  0  0  0  0  0  0  0  0  0  0  0
    2.0479    0.0575    0.2422 C   0  0  0  0  0  0  0  0  0  0  0  0
    2.9630    1.1924   -0.2484 C   0  0  2  0  0  0  0  0  0  0  0  0
    5.1922    1.7533    0.3606 C   0  0  0  0  0  0  0  0  0  0  0  0
    4.0262    1.4049    0.7270 N   0  0  0  0  0  0  0  0  0  0  0  0
    5.6799    1.9616   -0.8892 O   0  0  0  0  0  0  0  0  0  0  0  0
    6.1942    1.9884    1.2205 O   0  0  0  0  0  0  0  0  0  0  0  0
    2.0774   -2.0652    0.7369 H   0  0  0  0  0  0  0  0  0  0  0  0
    3.6012   -1.2179    1.0657 H   0  0  0  0  0  0  0  0  0  0  0  0
    3.1523   -1.6266   -0.5993 H   0  0  0  0  0  0  0  0  0  0  0  0
    1.3537    2.3493   -1.1692 H   0  0  0  0  0  0  0  0  0  0  0  0
    2.8256    3.2911   -0.8459 H   0  0  0  0  0  0  0  0  0  0  0  0
    1.7591    2.8391    0.4923 H   0  0  0  0  0  0  0  0  0  0  0  0
    6.7995    2.0678    3.1393 H   0  0  0  0  0  0  0  0  0  0  0  0
    5.5680    0.8001    2.8167 H   0  0  0  0  0  0  0  0  0  0  0  0
    5.0728    2.5053    2.9019 H   0  0  0  0  0  0  0  0  0  0  0  0
    1.6364    0.3545    1.2158 H   0  0  0  0  0  0  0  0  0  0  0  0
    1.2006   -0.0309   -0.4511 H   0  0  0  0  0  0  0  0  0  0  0  0
    3.3606    0.8671   -1.2341 H   0  0  0  0  0  0  0  0  0  0  0  0
    4.9709    1.7705   -1.5239 H   0  0  0  0  0  0  0  0  0  0  0  0
  1 10  1  0  0  0  0
  1 11  1  0  0  0  0
  2  5  1  0  0  0  0
  2 15  1  0  0  0  0
  3 17  1  0  0  0  0
  3 18  1  0  0  0  0
  3 16  1  0  0  0  0
  4  1  1  0  0  0  0
  4 19  1  0  0  0  0
  5 21  1  6  0  0  0
  5  4  1  0  0  0  0
  5  7  1  0  0  0  0
  6  7  2  0  0  0  0
  6  9  1  0  0  0  0
  8  6  1  0  0  0  0
  9  3  1  0  0  0  0
 12  1  1  0  0  0  0
 13  2  1  0  0  0  0
 14  2  1  0  0  0  0
 20  4  1  0  0  0  0
 22  8  1  0  0  0  0
M  END
>  <HBA>
3

>  <HBD>
1

>  <TPSA>
38.33

>  <cid>
38214

>  <dipole>
1.27

>  <excitation_energy_1>
5.87

>  <excitation_energy_2>
6.245

>  <excitation_energy_3>
6.611

>  <excitation_energy_4>
6.826

>  <homo_energy>
-6.653

>  <homo_lumo_gap>
7.938

>  <logP>
1.532

>  <lumo_energy>
1.284

>  <melting_point>
23.39

>  <molecular_refractivity>
35.43

>  <oscillator_strength_1>
0.005

>  <oscillator_strength_2>
0.011

>  <oscillator_strength_3>
0.0111

>  <oscillator_strength_4>
0.0346

>  <open_babel_can_smiles>
CC[C@H](/N=C(/OC)\O)C

>  <mulliken_charges>
22
1   -0.447611
2   -0.434188
3   -0.201942
4   -0.235966
5   0.003208
6   0.68113
7   -0.458763
8   -0.591749
9   -0.447905
10   0.141175
11   0.159638
12   0.133393
13   0.141113
14   0.138871
15   0.158611
16   0.161418
17   0.164678
18   0.164999
19   0.140987
20   0.124569
21   0.080545
22   0.423788

>  <lowdin_charges>
22
1   -0.448578
2   -0.450678
3   -0.269936
4   -0.273638
5   -0.055823
6   0.1856
7   -0.273994
8   -0.364089
9   -0.178091
10   0.150782
11   0.15549
12   0.142383
13   0.150242
14   0.148325
15   0.157683
16   0.15871
17   0.154569
18   0.15721
19   0.147465
20   0.139787
21   0.103672
22   0.362911

$$$$

