PCCDB-ID:  6603
public computational chemistry database (PCCDB) project, http://pccdb.org

 32 32  0  0  0  0  0  0  0  0999 V2000
    0.9436   -0.2058    0.2805 C   0  0  0  0  0  0  0  0  0  0  0  0
    2.7072   -0.1751   -1.4270 C   0  0  0  0  0  0  0  0  0  0  0  0
    5.2313    1.4078   -0.5049 C   0  0  0  0  0  0  0  0  0  0  0  0
    4.9827    2.3315    1.7568 C   0  0  0  0  0  0  0  0  0  0  0  0
    2.3220    1.5663    1.8990 C   0  0  0  0  0  0  0  0  0  0  0  0
    4.5979   -1.4261    0.8225 C   0  0  0  0  0  0  0  0  0  0  0  0
    3.0678   -1.4279    0.7633 C   0  0  0  0  0  0  0  0  0  0  0  0
    5.0973   -0.1513    1.5085 C   0  0  0  0  0  0  0  0  0  0  0  0
    2.4781   -0.1521    0.1056 C   0  0  0  0  0  0  0  0  0  0  0  0
    4.5483    1.1483    0.8626 C   0  0  0  0  0  0  0  0  0  0  0  0
    3.0467    1.1090    0.7098 N   0  0  0  0  0  0  0  0  0  0  0  0
    0.5612   -1.0832   -0.2516 H   0  0  0  0  0  0  0  0  0  0  0  0
    0.4601    0.6797   -0.1476 H   0  0  0  0  0  0  0  0  0  0  0  0
    0.6344   -0.3049    1.3246 H   0  0  0  0  0  0  0  0  0  0  0  0
    2.0629   -0.9340   -1.8853 H   0  0  0  0  0  0  0  0  0  0  0  0
    3.7295   -0.4166   -1.7170 H   0  0  0  0  0  0  0  0  0  0  0  0
    2.4519    0.7985   -1.8563 H   0  0  0  0  0  0  0  0  0  0  0  0
    6.2673    1.7281   -0.3460 H   0  0  0  0  0  0  0  0  0  0  0  0
    4.7035    2.2027   -1.0402 H   0  0  0  0  0  0  0  0  0  0  0  0
    5.2715    0.5306   -1.1507 H   0  0  0  0  0  0  0  0  0  0  0  0
    6.0766    2.3792    1.7662 H   0  0  0  0  0  0  0  0  0  0  0  0
    4.6576    2.2257    2.7955 H   0  0  0  0  0  0  0  0  0  0  0  0
    4.6114    3.2865    1.3675 H   0  0  0  0  0  0  0  0  0  0  0  0
    1.2622    1.6732    1.6708 H   0  0  0  0  0  0  0  0  0  0  0  0
    2.6629    2.5608    2.1847 H   0  0  0  0  0  0  0  0  0  0  0  0
    2.4082    0.9144    2.7903 H   0  0  0  0  0  0  0  0  0  0  0  0
    5.0217   -1.5108   -0.1864 H   0  0  0  0  0  0  0  0  0  0  0  0
    4.9507   -2.3078    1.3728 H   0  0  0  0  0  0  0  0  0  0  0  0
    2.6759   -1.5071    1.7879 H   0  0  0  0  0  0  0  0  0  0  0  0
    2.7047   -2.3134    0.2245 H   0  0  0  0  0  0  0  0  0  0  0  0
    6.1952   -0.1194    1.5090 H   0  0  0  0  0  0  0  0  0  0  0  0
    4.7876   -0.1757    2.5636 H   0  0  0  0  0  0  0  0  0  0  0  0
  1 14  1  0  0  0  0
  2  9  1  0  0  0  0
  3 18  1  0  0  0  0
  3 10  1  0  0  0  0
  4 21  1  0  0  0  0
  4 22  1  0  0  0  0
  5 25  1  0  0  0  0
  5 26  1  0  0  0  0
  6 28  1  0  0  0  0
  6  8  1  0  0  0  0
  7  6  1  0  0  0  0
  7 29  1  0  0  0  0
  8 31  1  0  0  0  0
  8 32  1  0  0  0  0
  9  1  1  0  0  0  0
  9 11  1  0  0  0  0
  9  7  1  0  0  0  0
 10  8  1  0  0  0  0
 10  4  1  0  0  0  0
 11 10  1  0  0  0  0
 11  5  1  0  0  0  0
 12  1  1  0  0  0  0
 13  1  1  0  0  0  0
 15  2  1  0  0  0  0
 16  2  1  0  0  0  0
 17  2  1  0  0  0  0
 19  3  1  0  0  0  0
 20  3  1  0  0  0  0
 23  4  1  0  0  0  0
 24  5  1  0  0  0  0
 27  6  1  0  0  0  0
 30  7  1  0  0  0  0
M  END
>  <HBA>
1

>  <HBD>
0

>  <TPSA>
3.24

>  <cid>
6603

>  <dipole>
0.59

>  <excitation_energy_1>
4.779

>  <excitation_energy_2>
5.11

>  <excitation_energy_3>
5.149

>  <excitation_energy_4>
5.277

>  <homo_energy>
-5.184

>  <homo_lumo_gap>
7.249

>  <logP>
2.597

>  <lumo_energy>
2.065

>  <melting_point>
18.04

>  <molecular_refractivity>
54.96

>  <oscillator_strength_1>
0.0024

>  <oscillator_strength_2>
0.005

>  <oscillator_strength_3>
0.0001

>  <oscillator_strength_4>
0.0174

>  <open_babel_can_smiles>
CN1C(C)(C)CCCC1(C)C

>  <mulliken_charges>
32
1   -0.474456
2   -0.446651
3   -0.448095
4   -0.474334
5   -0.305026
6   -0.275719
7   -0.255202
8   -0.255603
9   0.233106
10   0.234074
11   -0.435158
12   0.140944
13   0.150974
14   0.145918
15   0.131193
16   0.14141
17   0.15009
18   0.131569
19   0.150746
20   0.141621
21   0.141056
22   0.145797
23   0.150902
24   0.153487
25   0.15316
26   0.113006
27   0.130718
28   0.130402
29   0.12548
30   0.124493
31   0.124492
32   0.125605

>  <lowdin_charges>
32
1   -0.447379
2   -0.451697
3   -0.451706
4   -0.443428
5   -0.360635
6   -0.281591
7   -0.286834
8   -0.283231
9   0.074617
10   0.074773
11   -0.20327
12   0.151501
13   0.15284
14   0.148034
15   0.146731
16   0.146881
17   0.155071
18   0.144687
19   0.156663
20   0.147858
21   0.148847
22   0.14792
23   0.15208
24   0.152386
25   0.153055
26   0.114604
27   0.137256
28   0.14508
29   0.137866
30   0.143252
31   0.140425
32   0.137345

$$$$

