PCCDB-ID:  16418
public computational chemistry database (PCCDB) project, http://pccdb.org

 14 13  0  0  0  0  0  0  0  0999 V2000
    1.4294   -0.5453    0.9696 C   0  0  0  0  0  0  0  0  0  0  0  0
    2.3021    0.0356    0.1457 C   0  0  0  0  0  0  0  0  0  0  0  0
    3.1253   -0.6818   -0.8888 C   0  0  0  0  0  0  0  0  0  0  0  0
    4.6332   -0.5480   -0.6341 C   0  0  0  0  0  0  0  0  0  0  0  0
    5.4942   -1.2129   -1.6839 C   0  0  0  0  0  0  0  0  0  0  0  0
    5.0704   -1.7945   -2.6583 O   0  0  0  0  0  0  0  0  0  0  0  0
    0.8619    0.0261    1.6992 H   0  0  0  0  0  0  0  0  0  0  0  0
    1.2437   -1.6173    0.9408 H   0  0  0  0  0  0  0  0  0  0  0  0
    2.4545    1.1149    0.2120 H   0  0  0  0  0  0  0  0  0  0  0  0
    2.9083   -0.2818   -1.8886 H   0  0  0  0  0  0  0  0  0  0  0  0
    2.8552   -1.7432   -0.9203 H   0  0  0  0  0  0  0  0  0  0  0  0
    4.9099   -0.9716    0.3436 H   0  0  0  0  0  0  0  0  0  0  0  0
    4.9406    0.5088   -0.5795 H   0  0  0  0  0  0  0  0  0  0  0  0
    6.5912   -1.1356   -1.5042 H   0  0  0  0  0  0  0  0  0  0  0  0
  1  7  1  0  0  0  0
  2  9  1  0  0  0  0
  2  1  2  0  0  0  0
  3  4  1  0  0  0  0
  3  2  1  0  0  0  0
  4 13  1  0  0  0  0
  4 12  1  0  0  0  0
  5 14  1  0  0  0  0
  5  4  1  0  0  0  0
  6  5  2  0  0  0  0
  8  1  1  0  0  0  0
 10  3  1  0  0  0  0
 11  3  1  0  0  0  0
M  END
>  <HBA>
1

>  <HBD>
0

>  <TPSA>
17.07

>  <cid>
16418

>  <dipole>
2.41

>  <excitation_energy_1>
4.314

>  <excitation_energy_2>
5.604

>  <excitation_energy_3>
6.372

>  <excitation_energy_4>
6.523

>  <homo_energy>
-6.776

>  <homo_lumo_gap>
6.174

>  <logP>
1.151

>  <lumo_energy>
-0.601

>  <melting_point>
-14.77

>  <molecular_refractivity>
25.88

>  <oscillator_strength_1>
0.0002

>  <oscillator_strength_2>
0.0006

>  <oscillator_strength_3>
0.01

>  <oscillator_strength_4>
0.1564

>  <open_babel_can_smiles>
C=CCCC=O

>  <mulliken_charges>
14
1   -0.339315
2   -0.048534
3   -0.296695
4   -0.35062
5   0.253241
6   -0.380714
7   0.140225
8   0.137898
9   0.12383
10   0.163143
11   0.157016
12   0.170755
13   0.162866
14   0.106905

>  <lowdin_charges>
14
1   -0.34015
2   -0.14547
3   -0.265893
4   -0.31146
5   0.058181
6   -0.217233
7   0.160167
8   0.153512
9   0.146203
10   0.160247
11   0.156095
12   0.167797
13   0.163355
14   0.114649

$$$$

