PCCDB-ID:  22325
public computational chemistry database (PCCDB) project, http://pccdb.org

 26 28  0  0  1  0  0  0  0  0999 V2000
    1.8166   -1.3747   -0.3244 C   0  0  0  0  0  0  0  0  0  0  0  0
    0.4917   -1.7451    0.3750 C   0  0  0  0  0  0  0  0  0  0  0  0
    2.4457    0.0194   -0.0127 C   0  0  0  0  0  0  0  0  0  0  0  0
   -0.7806   -1.1973   -0.3060 C   0  0  0  0  0  0  0  0  0  0  0  0
    1.5607    1.0845    0.6663 C   0  0  0  0  0  0  0  0  0  0  0  0
   -1.9517    1.1999    0.2029 C   0  0  0  0  0  0  0  0  0  0  0  0
   -0.8697    2.2404    0.6384 C   0  0  0  0  0  0  0  0  0  0  0  0
   -0.0948    1.1285   -1.4300 C   0  0  0  0  0  0  0  0  0  0  0  0
   -0.8448    0.3169   -0.3992 C   0  0  2  0  0  0  0  0  0  0  0  0
    0.2179    1.3414    0.0292 C   0  0  1  0  0  0  0  0  0  0  0  0
    1.6614   -1.4713   -1.4074 H   0  0  0  0  0  0  0  0  0  0  0  0
    2.5621   -2.1396   -0.0739 H   0  0  0  0  0  0  0  0  0  0  0  0
    0.5146   -1.4199    1.4237 H   0  0  0  0  0  0  0  0  0  0  0  0
    0.4115   -2.8401    0.4014 H   0  0  0  0  0  0  0  0  0  0  0  0
    2.8450    0.4373   -0.9452 H   0  0  0  0  0  0  0  0  0  0  0  0
    3.3175   -0.1244    0.6379 H   0  0  0  0  0  0  0  0  0  0  0  0
   -1.6512   -1.5483    0.2647 H   0  0  0  0  0  0  0  0  0  0  0  0
   -0.8743   -1.6513   -1.3036 H   0  0  0  0  0  0  0  0  0  0  0  0
    2.1349    2.0234    0.7008 H   0  0  0  0  0  0  0  0  0  0  0  0
    1.3946    0.8052    1.7172 H   0  0  0  0  0  0  0  0  0  0  0  0
   -2.7245    1.5496   -0.4940 H   0  0  0  0  0  0  0  0  0  0  0  0
   -2.4468    0.7335    1.0615 H   0  0  0  0  0  0  0  0  0  0  0  0
   -0.7914    2.3273    1.7275 H   0  0  0  0  0  0  0  0  0  0  0  0
   -0.9517    3.2498    0.2154 H   0  0  0  0  0  0  0  0  0  0  0  0
   -0.6092    1.9031   -2.0022 H   0  0  0  0  0  0  0  0  0  0  0  0
    0.6488    0.5848   -2.0063 H   0  0  0  0  0  0  0  0  0  0  0  0
  1 12  1  0  0  0  0
  1  3  1  0  0  0  0
  1  2  1  0  0  0  0
  2 14  1  0  0  0  0
  2 13  1  0  0  0  0
  3 16  1  0  0  0  0
  3  5  1  0  0  0  0
  4 17  1  0  0  0  0
  4  2  1  0  0  0  0
  5 19  1  0  0  0  0
  5 20  1  0  0  0  0
  6  7  1  0  0  0  0
  6 22  1  0  0  0  0
  7 23  1  0  0  0  0
  9  8  1  6  0  0  0
  9  4  1  0  0  0  0
  9 10  1  0  0  0  0
  9  6  1  0  0  0  0
 10  8  1  6  0  0  0
 10  7  1  0  0  0  0
 10  5  1  0  0  0  0
 11  1  1  0  0  0  0
 15  3  1  0  0  0  0
 18  4  1  0  0  0  0
 21  6  1  0  0  0  0
 24  7  1  0  0  0  0
 25  8  1  0  0  0  0
 26  8  1  0  0  0  0
M  END
>  <HBA>
0

>  <HBD>
0

>  <TPSA>
0.0

>  <cid>
22325

>  <dipole>
0.49

>  <excitation_energy_1>
5.811

>  <excitation_energy_2>
6.185

>  <excitation_energy_3>
6.193

>  <excitation_energy_4>
6.269

>  <homo_energy>
-6.234

>  <homo_lumo_gap>
8.329

>  <logP>
3.121

>  <lumo_energy>
2.095

>  <melting_point>
75.89

>  <molecular_refractivity>
43.32

>  <oscillator_strength_1>
0.0033

>  <oscillator_strength_2>
0.0492

>  <oscillator_strength_3>
0.0111

>  <oscillator_strength_4>
0.0714

>  <open_babel_can_smiles>
C1CC[C@]23[C@@](CC1)(C3)CC2

>  <mulliken_charges>
26
1   -0.269775
2   -0.254602
3   -0.272907
4   -0.303144
5   -0.291368
6   -0.293809
7   -0.297816
8   -0.355191
9   0.102856
10   0.107493
11   0.133053
12   0.133355
13   0.133215
14   0.127294
15   0.136526
16   0.133165
17   0.131121
18   0.133042
19   0.132288
20   0.128389
21   0.129486
22   0.133275
23   0.134504
24   0.129274
25   0.13373
26   0.146545

>  <lowdin_charges>
26
1   -0.285749
2   -0.271632
3   -0.283282
4   -0.276253
5   -0.272227
6   -0.274874
7   -0.272639
8   -0.320303
9   -0.024165
10   -0.018484
11   0.137504
12   0.146545
13   0.139046
14   0.140423
15   0.143704
16   0.145351
17   0.147077
18   0.140989
19   0.146582
20   0.13729
21   0.138366
22   0.14515
23   0.143196
24   0.13754
25   0.149966
26   0.160882

$$$$

