PCCDB-ID:  61234
public computational chemistry database (PCCDB) project, http://pccdb.org

 23 22  0  0  1  0  0  0  0  0999 V2000
    0.9624   -0.3662    0.0084 C   0  0  0  0  0  0  0  0  0  0  0  0
    3.1348    1.8497   -3.4318 C   0  0  0  0  0  0  0  0  0  0  0  0
    4.3977    1.2177   -0.6163 C   0  0  0  0  0  0  0  0  0  0  0  0
    2.4554   -0.4212   -0.3018 C   0  0  1  0  0  0  0  0  0  0  0  0
    2.8649    0.6019   -2.5832 C   0  0  2  0  0  0  0  0  0  0  0  0
    2.9686    0.8452   -1.0526 C   0  0  2  0  0  0  0  0  0  0  0  0
    5.3129    0.1311   -0.7747 O   0  0  0  0  0  0  0  0  0  0  0  0
    3.2095   -0.7083    0.8953 O   0  0  0  0  0  0  0  0  0  0  0  0
    3.6960   -0.4822   -2.9918 O   0  0  0  0  0  0  0  0  0  0  0  0
    0.3749   -0.2106   -0.9031 H   0  0  0  0  0  0  0  0  0  0  0  0
    0.7356    0.4632    0.6933 H   0  0  0  0  0  0  0  0  0  0  0  0
    0.6328   -1.2995    0.4756 H   0  0  0  0  0  0  0  0  0  0  0  0
    2.4572    2.6714   -3.1672 H   0  0  0  0  0  0  0  0  0  0  0  0
    2.9868    1.6061   -4.4883 H   0  0  0  0  0  0  0  0  0  0  0  0
    4.1656    2.2030   -3.3180 H   0  0  0  0  0  0  0  0  0  0  0  0
    4.3988    1.5673    0.4257 H   0  0  0  0  0  0  0  0  0  0  0  0
    4.7882    2.0373   -1.2257 H   0  0  0  0  0  0  0  0  0  0  0  0
    2.6637   -1.2838   -0.9402 H   0  0  0  0  0  0  0  0  0  0  0  0
    1.8374    0.2742   -2.7981 H   0  0  0  0  0  0  0  0  0  0  0  0
    2.3244    1.7025   -0.8012 H   0  0  0  0  0  0  0  0  0  0  0  0
    5.0187   -0.5281   -0.1182 H   0  0  0  0  0  0  0  0  0  0  0  0
    2.9795   -0.0422    1.5634 H   0  0  0  0  0  0  0  0  0  0  0  0
    4.5282   -0.4089   -2.4837 H   0  0  0  0  0  0  0  0  0  0  0  0
  1 12  1  0  0  0  0
  1 11  1  0  0  0  0
  2 15  1  0  0  0  0
  2 13  1  0  0  0  0
  2  5  1  0  0  0  0
  3 16  1  0  0  0  0
  4 18  1  6  0  0  0
  4  1  1  0  0  0  0
  4  8  1  0  0  0  0
  5 19  1  6  0  0  0
  5  6  1  0  0  0  0
  6 20  1  1  0  0  0
  6  3  1  0  0  0  0
  6  4  1  0  0  0  0
  7  3  1  0  0  0  0
  7 21  1  0  0  0  0
  8 22  1  0  0  0  0
  9  5  1  0  0  0  0
  9 23  1  0  0  0  0
 10  1  1  0  0  0  0
 14  2  1  0  0  0  0
 17  3  1  0  0  0  0
M  END
>  <HBA>
3

>  <HBD>
3

>  <TPSA>
60.69

>  <cid>
61234

>  <dipole>
3.73

>  <excitation_energy_1>
6.13

>  <excitation_energy_2>
6.329

>  <excitation_energy_3>
6.678

>  <excitation_energy_4>
6.85

>  <homo_energy>
-6.827

>  <homo_lumo_gap>
8.101

>  <logP>
-0.643

>  <lumo_energy>
1.274

>  <melting_point>
29.29

>  <molecular_refractivity>
34.44

>  <oscillator_strength_1>
0.0103

>  <oscillator_strength_2>
0.0036

>  <oscillator_strength_3>
0.0064

>  <oscillator_strength_4>
0.0108

>  <open_babel_can_smiles>
OC[C@@H]([C@H](O)C)[C@@H](O)C

>  <mulliken_charges>
23
1   -0.469221
2   -0.456222
3   -0.052747
4   0.121467
5   0.144737
6   -0.158096
7   -0.639983
8   -0.642061
9   -0.654989
10   0.158081
11   0.132826
12   0.164169
13   0.130653
14   0.160029
15   0.14573
16   0.118547
17   0.154817
18   0.173244
19   0.124704
20   0.116992
21   0.422296
22   0.391031
23   0.413996

>  <lowdin_charges>
23
1   -0.457845
2   -0.459236
3   -0.142466
4   -0.010065
5   0.00439
6   -0.186874
7   -0.471816
8   -0.466787
9   -0.482847
10   0.159929
11   0.143182
12   0.160985
13   0.146405
14   0.159662
15   0.14824
16   0.127773
17   0.152266
18   0.160778
19   0.133409
20   0.142828
21   0.351518
22   0.3432
23   0.34337

$$$$

