PCCDB-ID:  66605
public computational chemistry database (PCCDB) project, http://pccdb.org

 21 21  0  0  0  0  0  0  0  0999 V2000
    0.8336    0.0848   -0.0719 C   0  0  0  0  0  0  0  0  0  0  0  0
    4.4776   -1.1298    0.0189 C   0  0  0  0  0  0  0  0  0  0  0  0
    4.4756    1.2815    0.0784 C   0  0  0  0  0  0  0  0  0  0  0  0
    2.3440    0.0740   -0.0057 C   0  0  0  0  0  0  0  0  0  0  0  0
    5.1829    0.0758    0.0731 C   0  0  0  0  0  0  0  0  0  0  0  0
    3.0766   -1.1333   -0.0287 C   0  0  0  0  0  0  0  0  0  0  0  0
    3.0750    1.2823    0.0307 C   0  0  0  0  0  0  0  0  0  0  0  0
    6.5826    0.0743    0.1805 N   0  0  0  0  0  0  0  0  0  0  0  0
    2.4248   -2.3698   -0.1657 N   0  0  0  0  0  0  0  0  0  0  0  0
    2.4151    2.5188   -0.0468 N   0  0  0  0  0  0  0  0  0  0  0  0
    0.3874   -0.8226    0.3508 H   0  0  0  0  0  0  0  0  0  0  0  0
    0.4523    0.1802   -1.0982 H   0  0  0  0  0  0  0  0  0  0  0  0
    0.3985    0.9088    0.5082 H   0  0  0  0  0  0  0  0  0  0  0  0
    5.0172   -2.0747    0.0028 H   0  0  0  0  0  0  0  0  0  0  0  0
    5.0127    2.2274    0.1091 H   0  0  0  0  0  0  0  0  0  0  0  0
    7.0226   -0.7482   -0.2153 H   0  0  0  0  0  0  0  0  0  0  0  0
    7.0211    0.9161   -0.1746 H   0  0  0  0  0  0  0  0  0  0  0  0
    2.9646   -3.1510    0.1872 H   0  0  0  0  0  0  0  0  0  0  0  0
    1.4781   -2.4023    0.1891 H   0  0  0  0  0  0  0  0  0  0  0  0
    2.9478    3.2881    0.3411 H   0  0  0  0  0  0  0  0  0  0  0  0
    1.4660    2.5271    0.3032 H   0  0  0  0  0  0  0  0  0  0  0  0
  1  4  1  0  0  0  0
  1 11  1  0  0  0  0
  1 13  1  0  0  0  0
  2  5  2  0  0  0  0
  3 15  1  0  0  0  0
  4  7  1  0  0  0  0
  5  3  1  0  0  0  0
  5  8  1  0  0  0  0
  6  4  2  0  0  0  0
  6  2  1  0  0  0  0
  7  3  2  0  0  0  0
  9  6  1  0  0  0  0
  9 18  1  0  0  0  0
  9 19  1  0  0  0  0
 10  7  1  0  0  0  0
 10 21  1  0  0  0  0
 10 20  1  0  0  0  0
 12  1  1  0  0  0  0
 14  2  1  0  0  0  0
 16  8  1  0  0  0  0
 17  8  1  0  0  0  0
M  END
>  <HBA>
3

>  <HBD>
3

>  <TPSA>
78.06

>  <cid>
66605

>  <dipole>
0.97

>  <excitation_energy_1>
4.269

>  <excitation_energy_2>
4.322

>  <excitation_energy_3>
4.567

>  <excitation_energy_4>
4.59

>  <homo_energy>
-4.814

>  <homo_lumo_gap>
5.902

>  <logP>
2.485

>  <lumo_energy>
1.088

>  <melting_point>
157.63

>  <molecular_refractivity>
44.62

>  <oscillator_strength_1>
0.0055

>  <oscillator_strength_2>
0.0

>  <oscillator_strength_3>
0.0055

>  <oscillator_strength_4>
0.0038

>  <open_babel_can_smiles>
Nc1cc(N)c(c(c1)N)C

>  <mulliken_charges>
21
1   -0.538381
2   -0.235195
3   -0.235068
4   0.107725
5   0.3066
6   0.233872
7   0.235863
8   -0.79271
9   -0.794904
10   -0.794921
11   0.134148
12   0.170736
13   0.134708
14   0.091957
15   0.092099
16   0.313417
17   0.313398
18   0.314105
19   0.313908
20   0.314293
21   0.314352

>  <lowdin_charges>
21
1   -0.438591
2   -0.271533
3   -0.271385
4   -0.10538
5   0.07466
6   0.068159
7   0.068459
8   -0.496685
9   -0.494936
10   -0.494266
11   0.146199
12   0.159062
13   0.145455
14   0.143487
15   0.143531
16   0.271825
17   0.271655
18   0.2722
19   0.267377
20   0.272527
21   0.26818

$$$$

