PCCDB-ID:  37031
public computational chemistry database (PCCDB) project, http://pccdb.org

 32 33  0  0  1  0  0  0  0  0999 V2000
    1.7334   -0.4407    0.1866 C   0  0  0  0  0  0  0  0  0  0  0  0
    3.2309   -4.5278   -3.2028 C   0  0  0  0  0  0  0  0  0  0  0  0
    5.4896   -0.4489   -4.3592 C   0  0  0  0  0  0  0  0  0  0  0  0
    1.9800   -3.9715   -2.9522 C   0  0  0  0  0  0  0  0  0  0  0  0
    4.6623    0.8141   -4.0847 C   0  0  0  0  0  0  0  0  0  0  0  0
    4.3506   -3.6967   -3.2683 C   0  0  0  0  0  0  0  0  0  0  0  0
    5.5138   -1.4679   -3.1997 C   0  0  0  0  0  0  0  0  0  0  0  0
    1.8726   -2.5923   -2.7628 C   0  0  0  0  0  0  0  0  0  0  0  0
    3.1614    0.6033   -3.8443 C   0  0  0  0  0  0  0  0  0  0  0  0
    3.0586    0.1387   -0.2703 C   0  0  0  0  0  0  0  0  0  0  0  0
    4.2594   -2.3114   -3.0835 C   0  0  0  0  0  0  0  0  0  0  0  0
    2.9900   -1.7503   -2.8204 C   0  0  0  0  0  0  0  0  0  0  0  0
    2.7823   -0.2489   -2.6083 C   0  0  1  0  0  0  0  0  0  0  0  0
    3.5236    0.2326   -1.4439 N   0  0  0  0  0  0  0  0  0  0  0  0
    3.8755    0.5813    0.7364 O   0  0  0  0  0  0  0  0  0  0  0  0
    0.9516   -0.2794   -0.5591 H   0  0  0  0  0  0  0  0  0  0  0  0
    1.3967    0.0083    1.1281 H   0  0  0  0  0  0  0  0  0  0  0  0
    1.8279   -1.5228    0.3352 H   0  0  0  0  0  0  0  0  0  0  0  0
    3.3390   -5.5988   -3.3538 H   0  0  0  0  0  0  0  0  0  0  0  0
    6.5235   -0.1381   -4.5620 H   0  0  0  0  0  0  0  0  0  0  0  0
    5.1349   -0.9499   -5.2715 H   0  0  0  0  0  0  0  0  0  0  0  0
    1.0940   -4.5991   -2.9028 H   0  0  0  0  0  0  0  0  0  0  0  0
    4.7768    1.5013   -4.9342 H   0  0  0  0  0  0  0  0  0  0  0  0
    5.0768    1.3256   -3.2083 H   0  0  0  0  0  0  0  0  0  0  0  0
    5.3262   -4.1319   -3.4739 H   0  0  0  0  0  0  0  0  0  0  0  0
    5.6923   -0.9308   -2.2604 H   0  0  0  0  0  0  0  0  0  0  0  0
    6.3648   -2.1444   -3.3457 H   0  0  0  0  0  0  0  0  0  0  0  0
    0.8928   -2.1573   -2.5754 H   0  0  0  0  0  0  0  0  0  0  0  0
    2.6902    0.1463   -4.7254 H   0  0  0  0  0  0  0  0  0  0  0  0
    2.6976    1.5908   -3.7160 H   0  0  0  0  0  0  0  0  0  0  0  0
    1.6976   -0.1094   -2.4715 H   0  0  0  0  0  0  0  0  0  0  0  0
    3.4161    0.4900    1.5843 H   0  0  0  0  0  0  0  0  0  0  0  0
  1 18  1  0  0  0  0
  1 17  1  0  0  0  0
  2  4  1  0  0  0  0
  3  5  1  0  0  0  0
  3  7  1  0  0  0  0
  4 22  1  0  0  0  0
  4  8  2  0  0  0  0
  5  9  1  0  0  0  0
  5 24  1  0  0  0  0
  6  2  2  0  0  0  0
  6 11  1  0  0  0  0
  7 11  1  0  0  0  0
  7 26  1  0  0  0  0
  8 28  1  0  0  0  0
  9 30  1  0  0  0  0
  9 13  1  0  0  0  0
 10  1  1  0  0  0  0
 10 15  1  0  0  0  0
 11 12  2  0  0  0  0
 12  8  1  0  0  0  0
 12 13  1  0  0  0  0
 13 31  1  1  0  0  0
 13 14  1  0  0  0  0
 14 10  2  0  0  0  0
 15 32  1  0  0  0  0
 16  1  1  0  0  0  0
 19  2  1  0  0  0  0
 20  3  1  0  0  0  0
 21  3  1  0  0  0  0
 23  5  1  0  0  0  0
 25  6  1  0  0  0  0
 27  7  1  0  0  0  0
 29  9  1  0  0  0  0
M  END
>  <HBA>
2

>  <HBD>
1

>  <TPSA>
29.1

>  <cid>
37031

>  <dipole>
3.18

>  <excitation_energy_1>
5.173

>  <excitation_energy_2>
5.437

>  <excitation_energy_3>
5.484

>  <excitation_energy_4>
5.656

>  <homo_energy>
-6.155

>  <homo_lumo_gap>
6.242

>  <logP>
2.981

>  <lumo_energy>
0.087

>  <melting_point>
79.82

>  <molecular_refractivity>
61.3

>  <oscillator_strength_1>
0.0042

>  <oscillator_strength_2>
0.0078

>  <oscillator_strength_3>
0.0004

>  <oscillator_strength_4>
0.043

>  <open_babel_can_smiles>
C/C(=N\[C@H]1CCCCc2c1cccc2)/O

>  <mulliken_charges>
32
1   -0.545632
2   -0.125218
3   -0.254925
4   -0.130203
5   -0.255582
6   -0.194521
7   -0.349308
8   -0.204812
9   -0.255025
10   0.483828
11   0.131172
12   0.136063
13   -0.086892
14   -0.399129
15   -0.575578
16   0.182327
17   0.148096
18   0.198939
19   0.124439
20   0.128657
21   0.128236
22   0.122753
23   0.121544
24   0.159094
25   0.121358
26   0.176854
27   0.12841
28   0.11523
29   0.129216
30   0.129953
31   0.108991
32   0.401667

>  <lowdin_charges>
32
1   -0.480195
2   -0.157407
3   -0.272206
4   -0.166723
5   -0.280894
6   -0.167575
7   -0.281858
8   -0.174317
9   -0.279167
10   0.135305
11   0.000881
12   -0.0186
13   -0.057705
14   -0.205241
15   -0.368741
16   0.173615
17   0.156721
18   0.181042
19   0.153692
20   0.142041
21   0.137755
22   0.155298
23   0.140807
24   0.15493
25   0.153037
26   0.166421
27   0.145026
28   0.148466
29   0.142481
30   0.144022
31   0.126973
32   0.352113

$$$$

