PCCDB-ID:  65509
public computational chemistry database (PCCDB) project, http://pccdb.org

 23 23  0  0  0  0  0  0  0  0999 V2000
    1.3775   -0.6966    0.7095 C   0  0  0  0  0  0  0  0  0  0  0  0
    1.6534    1.2912    3.3375 C   0  0  0  0  0  0  0  0  0  0  0  0
    0.9334    2.2831    3.9872 C   0  0  0  0  0  0  0  0  0  0  0  0
    2.5673    2.9659    1.8523 C   0  0  0  0  0  0  0  0  0  0  0  0
    2.8193   -0.3305    0.9850 C   0  0  0  0  0  0  0  0  0  0  0  0
    2.4770    1.6215    2.2437 C   0  0  0  0  0  0  0  0  0  0  0  0
    0.9942    3.6301    3.5997 C   0  0  0  0  0  0  0  0  0  0  0  0
    1.8334    3.9463    2.5130 C   0  0  0  0  0  0  0  0  0  0  0  0
    0.1629    4.6014    4.3894 C   0  0  0  0  0  0  0  0  0  0  0  0
    3.2794    0.6831    1.5962 N   0  0  0  0  0  0  0  0  0  0  0  0
    3.7413   -1.1918    0.4768 O   0  0  0  0  0  0  0  0  0  0  0  0
    1.9108    5.2622    2.1111 O   0  0  0  0  0  0  0  0  0  0  0  0
   -0.5580    4.2374    5.2940 O   0  0  0  0  0  0  0  0  0  0  0  0
    0.2356    5.9110    4.0686 O   0  0  0  0  0  0  0  0  0  0  0  0
    0.6934    0.0606    1.0936 H   0  0  0  0  0  0  0  0  0  0  0  0
    1.1281   -1.6580    1.1751 H   0  0  0  0  0  0  0  0  0  0  0  0
    1.2193   -0.7983   -0.3717 H   0  0  0  0  0  0  0  0  0  0  0  0
    1.6088    0.2623    3.6808 H   0  0  0  0  0  0  0  0  0  0  0  0
    0.2931    2.0443    4.8298 H   0  0  0  0  0  0  0  0  0  0  0  0
    3.2195    3.2290    1.0228 H   0  0  0  0  0  0  0  0  0  0  0  0
    3.2884   -1.9112    0.0102 H   0  0  0  0  0  0  0  0  0  0  0  0
    2.5779    5.3607    1.4144 H   0  0  0  0  0  0  0  0  0  0  0  0
    0.8559    6.0466    3.3267 H   0  0  0  0  0  0  0  0  0  0  0  0
  1  5  1  0  0  0  0
  1 15  1  0  0  0  0
  1 16  1  0  0  0  0
  2 18  1  0  0  0  0
  2  3  2  0  0  0  0
  3 19  1  0  0  0  0
  4  6  2  0  0  0  0
  4  8  1  0  0  0  0
  5 10  2  0  0  0  0
  6  2  1  0  0  0  0
  7  3  1  0  0  0  0
  7  9  1  0  0  0  0
  8  7  2  0  0  0  0
  9 13  2  0  0  0  0
 10  6  1  0  0  0  0
 11  5  1  0  0  0  0
 12  8  1  0  0  0  0
 14  9  1  0  0  0  0
 17  1  1  0  0  0  0
 20  4  1  0  0  0  0
 21 11  1  0  0  0  0
 22 12  1  0  0  0  0
 23 14  1  0  0  0  0
M  END
>  <HBA>
5

>  <HBD>
3

>  <TPSA>
86.63

>  <cid>
65509

>  <dipole>
7.75

>  <excitation_energy_1>
4.5

>  <excitation_energy_2>
4.699

>  <excitation_energy_3>
4.756

>  <excitation_energy_4>
5.23

>  <homo_energy>
-6.256

>  <homo_lumo_gap>
5.113

>  <logP>
1.122

>  <lumo_energy>
-1.143

>  <melting_point>
191.9

>  <molecular_refractivity>
49.74

>  <oscillator_strength_1>
0.2478

>  <oscillator_strength_2>
0.0003

>  <oscillator_strength_3>
0.1084

>  <oscillator_strength_4>
0.0093

>  <open_babel_can_smiles>
C/C(=N\c1ccc(c(c1)O)C(=O)O)/O

>  <mulliken_charges>
23
1   -0.556069
2   -0.160543
3   -0.187285
4   -0.221869
5   0.485749
6   0.252544
7   0.017092
8   0.311795
9   0.570534
10   -0.469653
11   -0.562619
12   -0.689367
13   -0.468412
14   -0.602946
15   0.201962
16   0.182796
17   0.177037
18   0.133779
19   0.175595
20   0.130123
21   0.413129
22   0.427332
23   0.439295

>  <lowdin_charges>
23
1   -0.481674
2   -0.20352
3   -0.111647
4   -0.228784
5   0.153026
6   0.071953
7   -0.102882
8   0.112548
9   0.194292
10   -0.168592
11   -0.351097
12   -0.387624
13   -0.264095
14   -0.365155
15   0.187183
16   0.174104
17   0.169851
18   0.161588
19   0.18483
20   0.16391
21   0.361395
22   0.370817
23   0.359573

$$$$

