PCCDB-ID:  31579
public computational chemistry database (PCCDB) project, http://pccdb.org

 29 30  0  0  0  0  0  0  0  0999 V2000
    0.8391    1.3533    0.0944 C   0  0  0  0  0  0  0  0  0  0  0  0
    3.1364   -4.9497   -2.4754 C   0  0  0  0  0  0  0  0  0  0  0  0
    3.1159    2.4682   -0.0446 C   0  0  0  0  0  0  0  0  0  0  0  0
    4.5051    2.4366   -0.1076 C   0  0  0  0  0  0  0  0  0  0  0  0
    4.7523   -2.6005    0.0228 C   0  0  0  0  0  0  0  0  0  0  0  0
    4.2337   -3.0982   -1.3378 C   0  0  0  0  0  0  0  0  0  0  0  0
    3.0054    0.0573    0.0401 C   0  0  0  0  0  0  0  0  0  0  0  0
    6.5802   -0.8421   -0.0776 C   0  0  0  0  0  0  0  0  0  0  0  0
    2.3492    1.2875    0.0306 C   0  0  0  0  0  0  0  0  0  0  0  0
    5.2645   -1.1837   -0.0176 C   0  0  0  0  0  0  0  0  0  0  0  0
    4.4077   -0.0114   -0.0259 C   0  0  0  0  0  0  0  0  0  0  0  0
    5.1446    1.1958   -0.0973 C   0  0  0  0  0  0  0  0  0  0  0  0
    3.6515   -4.4307   -1.2131 N   0  0  0  0  0  0  0  0  0  0  0  0
    6.8740    0.8829   -0.1519 S   0  0  0  0  0  0  0  0  0  0  0  0
    0.4874    2.3872    0.1678 H   0  0  0  0  0  0  0  0  0  0  0  0
    0.4493    0.8062    0.9614 H   0  0  0  0  0  0  0  0  0  0  0  0
    0.3794    0.9103   -0.7982 H   0  0  0  0  0  0  0  0  0  0  0  0
    2.7745   -5.9729   -2.3295 H   0  0  0  0  0  0  0  0  0  0  0  0
    3.8731   -4.9581   -3.3010 H   0  0  0  0  0  0  0  0  0  0  0  0
    2.2858   -4.3381   -2.7992 H   0  0  0  0  0  0  0  0  0  0  0  0
    2.6070    3.4289   -0.0512 H   0  0  0  0  0  0  0  0  0  0  0  0
    5.0759    3.3594   -0.1604 H   0  0  0  0  0  0  0  0  0  0  0  0
    5.5544   -3.2677    0.3656 H   0  0  0  0  0  0  0  0  0  0  0  0
    3.9385   -2.6917    0.7530 H   0  0  0  0  0  0  0  0  0  0  0  0
    5.0549   -3.0465   -2.0794 H   0  0  0  0  0  0  0  0  0  0  0  0
    3.4496   -2.4222   -1.7024 H   0  0  0  0  0  0  0  0  0  0  0  0
    2.4250   -0.8606    0.1026 H   0  0  0  0  0  0  0  0  0  0  0  0
    7.4266   -1.5179   -0.0800 H   0  0  0  0  0  0  0  0  0  0  0  0
    4.3628   -5.0690   -0.8584 H   0  0  0  0  0  0  0  0  0  0  0  0
  1 15  1  0  0  0  0
  1 16  1  0  0  0  0
  2 18  1  0  0  0  0
  2 13  1  0  0  0  0
  3  9  2  0  0  0  0
  4 12  2  0  0  0  0
  4  3  1  0  0  0  0
  5 23  1  0  0  0  0
  5 24  1  0  0  0  0
  6 13  1  0  0  0  0
  6  5  1  0  0  0  0
  7 27  1  0  0  0  0
  8 10  2  0  0  0  0
  9  7  1  0  0  0  0
  9  1  1  0  0  0  0
 10  5  1  0  0  0  0
 11 10  1  0  0  0  0
 11  7  2  0  0  0  0
 12 11  1  0  0  0  0
 13 29  1  0  0  0  0
 14 12  1  0  0  0  0
 14  8  1  0  0  0  0
 17  1  1  0  0  0  0
 19  2  1  0  0  0  0
 20  2  1  0  0  0  0
 21  3  1  0  0  0  0
 22  4  1  0  0  0  0
 25  6  1  0  0  0  0
 26  6  1  0  0  0  0
 28  8  1  0  0  0  0
M  END
>  <HBA>
2

>  <HBD>
1

>  <TPSA>
40.27

>  <cid>
31579

>  <dipole>
1.14

>  <excitation_energy_1>
4.456

>  <excitation_energy_2>
4.661

>  <excitation_energy_3>
4.829

>  <excitation_energy_4>
4.962

>  <homo_energy>
-5.66

>  <homo_lumo_gap>
5.108

>  <logP>
3.362

>  <lumo_energy>
-0.552

>  <melting_point>
82.41

>  <molecular_refractivity>
64.17

>  <oscillator_strength_1>
0.0605

>  <oscillator_strength_2>
0.0051

>  <oscillator_strength_3>
0.0012

>  <oscillator_strength_4>
0.0004

>  <open_babel_can_smiles>
CNCCc1csc2c1cc(C)cc2

>  <mulliken_charges>
29
1   -0.529286
2   -0.299444
3   -0.173828
4   -0.165202
5   -0.349063
6   -0.114017
7   -0.241283
8   -0.416552
9   0.166587
10   0.166334
11   0.121194
12   -0.152147
13   -0.540079
14   0.219356
15   0.153864
16   0.162211
17   0.163044
18   0.148209
19   0.120592
20   0.152031
21   0.122812
22   0.138324
23   0.136092
24   0.160691
25   0.115715
26   0.147023
27   0.130468
28   0.165098
29   0.291257

>  <lowdin_charges>
29
1   -0.442629
2   -0.359975
3   -0.169464
4   -0.161268
5   -0.274678
6   -0.202429
7   -0.173805
8   -0.318309
9   -0.002187
10   -0.027802
11   -0.020658
12   -0.137525
13   -0.365586
14   0.276262
15   0.155215
16   0.161165
17   0.161159
18   0.149622
19   0.121762
20   0.149115
21   0.156098
22   0.163987
23   0.148802
24   0.158904
25   0.119177
26   0.146004
27   0.159296
28   0.178565
29   0.251181

$$$$

