PCCDB-ID:  50234
public computational chemistry database (PCCDB) project, http://pccdb.org

 40 42  0  0  1  0  0  0  0  0999 V2000
    1.8419   -1.5576    1.6927 C   0  0  0  0  0  0  0  0  0  0  0  0
    0.8602   -0.7044    3.8304 C   0  0  0  0  0  0  0  0  0  0  0  0
    3.4465    4.4723    4.4298 C   0  0  0  0  0  0  0  0  0  0  0  0
    0.9621    4.2604    4.7818 C   0  0  0  0  0  0  0  0  0  0  0  0
    1.8497    5.1937    2.6216 C   0  0  0  0  0  0  0  0  0  0  0  0
    2.3621    2.1930    4.4683 C   0  0  0  0  0  0  0  0  0  0  0  0
    3.2385    3.1216    2.3190 C   0  0  0  0  0  0  0  0  0  0  0  0
    0.7614    2.9149    2.6598 C   0  0  0  0  0  0  0  0  0  0  0  0
    2.2662    0.8295    2.2688 C   0  0  0  0  0  0  0  0  0  0  0  0
    2.3346    3.6163    5.0662 C   0  0  1  0  0  0  0  0  0  0  0  0
    3.2190    4.5455    2.9074 C   0  0  2  0  0  0  0  0  0  0  0  0
    0.7364    4.3378    3.2578 C   0  0  1  0  0  0  0  0  0  0  0  0
    1.2222   -0.3189    2.3865 C   0  0  0  0  0  0  0  0  0  0  0  0
    2.1218    2.2267    2.9340 C   0  0  2  0  0  0  0  0  0  0  0  0
   -0.0334    0.0922    1.7201 N   0  0  0  0  0  0  0  0  0  0  0  0
    2.7469   -1.9103    2.2036 H   0  0  0  0  0  0  0  0  0  0  0  0
    2.1131   -1.3303    0.6538 H   0  0  0  0  0  0  0  0  0  0  0  0
    1.1231   -2.3869    1.6792 H   0  0  0  0  0  0  0  0  0  0  0  0
    1.7555   -0.8976    4.4308 H   0  0  0  0  0  0  0  0  0  0  0  0
    0.2550   -1.6206    3.8344 H   0  0  0  0  0  0  0  0  0  0  0  0
    0.2729    0.0796    4.3137 H   0  0  0  0  0  0  0  0  0  0  0  0
    4.4311    4.0337    4.6446 H   0  0  0  0  0  0  0  0  0  0  0  0
    3.4451    5.4820    4.8638 H   0  0  0  0  0  0  0  0  0  0  0  0
    0.9172    5.2658    5.2237 H   0  0  0  0  0  0  0  0  0  0  0  0
    0.1636    3.6692    5.2516 H   0  0  0  0  0  0  0  0  0  0  0  0
    1.6902    5.2748    1.5371 H   0  0  0  0  0  0  0  0  0  0  0  0
    1.8225    6.2156    3.0256 H   0  0  0  0  0  0  0  0  0  0  0  0
    1.5995    1.5851    4.9650 H   0  0  0  0  0  0  0  0  0  0  0  0
    3.3319    1.7178    4.6775 H   0  0  0  0  0  0  0  0  0  0  0  0
    4.2202    2.6573    2.4936 H   0  0  0  0  0  0  0  0  0  0  0  0
    3.1044    3.1718    1.2286 H   0  0  0  0  0  0  0  0  0  0  0  0
    0.5842    2.9637    1.5760 H   0  0  0  0  0  0  0  0  0  0  0  0
   -0.0560    2.3139    3.0687 H   0  0  0  0  0  0  0  0  0  0  0  0
    2.3875    1.0047    1.1878 H   0  0  0  0  0  0  0  0  0  0  0  0
    3.2307    0.4173    2.6004 H   0  0  0  0  0  0  0  0  0  0  0  0
    2.4939    3.5527    6.1514 H   0  0  0  0  0  0  0  0  0  0  0  0
    4.0159    5.1411    2.4415 H   0  0  0  0  0  0  0  0  0  0  0  0
   -0.2413    4.7948    3.0539 H   0  0  0  0  0  0  0  0  0  0  0  0
   -0.6757   -0.7015    1.7084 H   0  0  0  0  0  0  0  0  0  0  0  0
    0.1595    0.3056    0.7406 H   0  0  0  0  0  0  0  0  0  0  0  0
  1 16  1  0  0  0  0
  1 13  1  0  0  0  0
  2 20  1  0  0  0  0
  2 21  1  0  0  0  0
  2 19  1  0  0  0  0
  3 22  1  0  0  0  0
  3 23  1  0  0  0  0
  3 10  1  0  0  0  0
  4 10  1  0  0  0  0
  4 24  1  0  0  0  0
  4 25  1  0  0  0  0
  5 11  1  0  0  0  0
  5 27  1  0  0  0  0
  5 12  1  0  0  0  0
  6 29  1  0  0  0  0
  6 28  1  0  0  0  0
  6 10  1  0  0  0  0
  7 30  1  0  0  0  0
  7 11  1  0  0  0  0
  7 14  1  0  0  0  0
  8 14  1  0  0  0  0
  8 33  1  0  0  0  0
  8 12  1  0  0  0  0
  9 13  1  0  0  0  0
  9 35  1  0  0  0  0
 10 36  1  1  0  0  0
 11 37  1  6  0  0  0
 11  3  1  0  0  0  0
 12 38  1  6  0  0  0
 12  4  1  0  0  0  0
 13  2  1  0  0  0  0
 14  9  1  6  0  0  0
 14  6  1  0  0  0  0
 15 13  1  0  0  0  0
 17  1  1  0  0  0  0
 18  1  1  0  0  0  0
 26  5  1  0  0  0  0
 31  7  1  0  0  0  0
 32  8  1  0  0  0  0
 34  9  1  0  0  0  0
 39 15  1  0  0  0  0
 40 15  1  0  0  0  0
M  END
>  <HBA>
1

>  <HBD>
1

>  <TPSA>
26.02

>  <cid>
50234

>  <dipole>
1.37

>  <excitation_energy_1>
5.459

>  <excitation_energy_2>
6.001

>  <excitation_energy_3>
6.255

>  <excitation_energy_4>
6.364

>  <homo_energy>
-6.142

>  <homo_lumo_gap>
7.821

>  <logP>
4.03

>  <lumo_energy>
1.679

>  <melting_point>
119.82

>  <molecular_refractivity>
65.56

>  <oscillator_strength_1>
0.0329

>  <oscillator_strength_2>
0.0033

>  <oscillator_strength_3>
0.0037

>  <oscillator_strength_4>
0.0025

>  <open_babel_can_smiles>
CC(C[C@]12C[C@H]3C[C@@H](C2)C[C@@H](C1)C3)(N)C

>  <mulliken_charges>
40
1   -0.44422
2   -0.443269
3   -0.261882
4   -0.263242
5   -0.262395
6   -0.277531
7   -0.274745
8   -0.260592
9   -0.266465
10   -0.090872
11   -0.089277
12   -0.093639
13   0.184184
14   0.091566
15   -0.706953
16   0.139007
17   0.132802
18   0.129928
19   0.142105
20   0.128412
21   0.163906
22   0.121399
23   0.122304
24   0.121044
25   0.122662
26   0.121391
27   0.120943
28   0.130854
29   0.115385
30   0.119018
31   0.119456
32   0.11075
33   0.155837
34   0.112193
35   0.121818
36   0.110833
37   0.110988
38   0.111596
39   0.287561
40   0.287139

>  <lowdin_charges>
40
1   -0.457748
2   -0.449455
3   -0.279964
4   -0.281612
5   -0.277933
6   -0.2848
7   -0.276819
8   -0.279725
9   -0.274858
10   -0.128974
11   -0.132731
12   -0.132461
13   0.065104
14   0.004065
15   -0.53996
16   0.147839
17   0.142416
18   0.142835
19   0.151221
20   0.143267
21   0.157876
22   0.137063
23   0.137401
24   0.136863
25   0.139422
26   0.13563
27   0.136275
28   0.145598
29   0.134615
30   0.135694
31   0.133955
32   0.133455
33   0.154641
34   0.134952
35   0.141913
36   0.13455
37   0.137955
38   0.136897
39   0.249282
40   0.246258

$$$$

