PCCDB-ID:  49720
public computational chemistry database (PCCDB) project, http://pccdb.org

 28 28  0  0  0  0  0  0  0  0999 V2000
    1.5652    1.5325    1.2874 C   0  0  0  0  0  0  0  0  0  0  0  0
    3.7373    1.4195    2.5806 C   0  0  0  0  0  0  0  0  0  0  0  0
    6.7648   -0.4201   -0.9971 C   0  0  0  0  0  0  0  0  0  0  0  0
    7.4269   -0.0421   -2.1602 C   0  0  0  0  0  0  0  0  0  0  0  0
    3.2774   -0.2306    0.6851 C   0  0  0  0  0  0  0  0  0  0  0  0
    4.7229    0.5264   -1.8701 C   0  0  0  0  0  0  0  0  0  0  0  0
    3.0655    1.2129    1.2155 C   0  0  0  0  0  0  0  0  0  0  0  0
    5.4022   -0.1409   -0.8330 C   0  0  0  0  0  0  0  0  0  0  0  0
    6.7498    0.6210   -3.1864 C   0  0  0  0  0  0  0  0  0  0  0  0
    4.7426   -0.5721    0.4378 C   0  0  0  0  0  0  0  0  0  0  0  0
    5.3771    0.9093   -3.0356 C   0  0  0  0  0  0  0  0  0  0  0  0
    7.3420    1.0142   -4.3462 O   0  0  0  0  0  0  0  0  0  0  0  0
    5.3818   -1.1718    1.2942 O   0  0  0  0  0  0  0  0  0  0  0  0
    4.7653    1.5588   -4.0702 O   0  0  0  0  0  0  0  0  0  0  0  0
    1.3990    2.5582    1.6374 H   0  0  0  0  0  0  0  0  0  0  0  0
    1.0547    0.8562    1.9847 H   0  0  0  0  0  0  0  0  0  0  0  0
    1.0812    1.4293    0.3084 H   0  0  0  0  0  0  0  0  0  0  0  0
    3.6091    2.4537    2.9209 H   0  0  0  0  0  0  0  0  0  0  0  0
    4.8090    1.2016    2.5466 H   0  0  0  0  0  0  0  0  0  0  0  0
    3.2920    0.7594    3.3355 H   0  0  0  0  0  0  0  0  0  0  0  0
    7.2862   -0.9357   -0.1984 H   0  0  0  0  0  0  0  0  0  0  0  0
    8.4863   -0.2612   -2.2833 H   0  0  0  0  0  0  0  0  0  0  0  0
    2.6875   -0.3731   -0.2287 H   0  0  0  0  0  0  0  0  0  0  0  0
    2.9107   -0.9450    1.4301 H   0  0  0  0  0  0  0  0  0  0  0  0
    3.6649    0.7577   -1.7762 H   0  0  0  0  0  0  0  0  0  0  0  0
    3.5271    1.9089    0.5001 H   0  0  0  0  0  0  0  0  0  0  0  0
    8.2773    0.7575   -4.3194 H   0  0  0  0  0  0  0  0  0  0  0  0
    3.8312    1.6889   -3.8445 H   0  0  0  0  0  0  0  0  0  0  0  0
  1 15  1  0  0  0  0
  1 16  1  0  0  0  0
  2 18  1  0  0  0  0
  2 20  1  0  0  0  0
  3  8  1  0  0  0  0
  3 21  1  0  0  0  0
  4  3  2  0  0  0  0
  5  7  1  0  0  0  0
  5 24  1  0  0  0  0
  6 25  1  0  0  0  0
  6  8  2  0  0  0  0
  7  1  1  0  0  0  0
  7  2  1  0  0  0  0
  8 10  1  0  0  0  0
  9 11  2  0  0  0  0
  9  4  1  0  0  0  0
 10  5  1  0  0  0  0
 10 13  2  0  0  0  0
 11  6  1  0  0  0  0
 12 27  1  0  0  0  0
 12  9  1  0  0  0  0
 14 28  1  0  0  0  0
 14 11  1  0  0  0  0
 17  1  1  0  0  0  0
 19  2  1  0  0  0  0
 22  4  1  0  0  0  0
 23  5  1  0  0  0  0
 26  7  1  0  0  0  0
M  END
>  <HBA>
3

>  <HBD>
2

>  <TPSA>
57.53

>  <cid>
49720

>  <dipole>
2.05

>  <excitation_energy_1>
3.705

>  <excitation_energy_2>
4.191

>  <excitation_energy_3>
4.739

>  <excitation_energy_4>
4.962

>  <homo_energy>
-5.902

>  <homo_lumo_gap>
4.626

>  <logP>
2.327

>  <lumo_energy>
-1.276

>  <melting_point>
118.17

>  <molecular_refractivity>
55.1

>  <oscillator_strength_1>
0.0008

>  <oscillator_strength_2>
0.1555

>  <oscillator_strength_3>
0.0937

>  <oscillator_strength_4>
0.0005

>  <open_babel_can_smiles>
CC(CC(=O)c1ccc(c(c1)O)O)C

>  <mulliken_charges>
28
1   -0.438669
2   -0.442926
3   -0.170743
4   -0.196785
5   -0.341102
6   -0.262352
7   -0.084171
8   0.076234
9   0.327962
10   0.395594
11   0.327045
12   -0.621315
13   -0.475748
14   -0.632891
15   0.145534
16   0.146066
17   0.13398
18   0.138827
19   0.164838
20   0.145092
21   0.163262
22   0.127839
23   0.136805
24   0.159798
25   0.125927
26   0.12995
27   0.412592
28   0.409358

>  <lowdin_charges>
28
1   -0.443588
2   -0.444742
3   -0.137066
4   -0.202838
5   -0.3085
6   -0.199304
7   -0.11747
8   -0.061087
9   0.091385
10   0.159155
11   0.075199
12   -0.353349
13   -0.256547
14   -0.365814
15   0.150072
16   0.150567
17   0.143842
18   0.147094
19   0.15826
20   0.150832
21   0.179646
22   0.156378
23   0.149154
24   0.164563
25   0.156364
26   0.139075
27   0.360568
28   0.358147

$$$$

