PCCDB-ID:  57507
public computational chemistry database (PCCDB) project, http://pccdb.org

 20 20  0  0  0  0  0  0  0  0999 V2000
    1.0423   -0.6818    0.2441 C   0  0  0  0  0  0  0  0  0  0  0  0
    2.5055   -0.2553    0.3312 C   0  0  0  0  0  0  0  0  0  0  0  0
    6.2093   -1.7998    4.6911 C   0  0  0  0  0  0  0  0  0  0  0  0
    5.7446   -0.6429    3.9805 C   0  0  0  0  0  0  0  0  0  0  0  0
    5.9129   -2.8686    3.9046 C   0  0  0  0  0  0  0  0  0  0  0  0
    4.5514   -0.4298    1.6454 C   0  0  0  0  0  0  0  0  0  0  0  0
    5.2031   -1.0903    2.8127 C   0  0  0  0  0  0  0  0  0  0  0  0
    3.1279   -0.7691    1.5497 N   0  0  0  0  0  0  0  0  0  0  0  0
    5.3027   -2.4583    2.7539 O   0  0  0  0  0  0  0  0  0  0  0  0
    0.5711   -0.2767   -0.6581 H   0  0  0  0  0  0  0  0  0  0  0  0
    0.4860   -0.3297    1.1187 H   0  0  0  0  0  0  0  0  0  0  0  0
    0.9516   -1.7749    0.2036 H   0  0  0  0  0  0  0  0  0  0  0  0
    2.5678    0.8412    0.3622 H   0  0  0  0  0  0  0  0  0  0  0  0
    3.0426   -0.5689   -0.5867 H   0  0  0  0  0  0  0  0  0  0  0  0
    6.6957   -1.8259    5.6564 H   0  0  0  0  0  0  0  0  0  0  0  0
    5.8021    0.3883    4.3004 H   0  0  0  0  0  0  0  0  0  0  0  0
    6.0577   -3.9336    4.0041 H   0  0  0  0  0  0  0  0  0  0  0  0
    5.1079   -0.6872    0.7216 H   0  0  0  0  0  0  0  0  0  0  0  0
    4.6431    0.6556    1.7724 H   0  0  0  0  0  0  0  0  0  0  0  0
    3.0414   -1.7851    1.5641 H   0  0  0  0  0  0  0  0  0  0  0  0
  1  2  1  0  0  0  0
  1 11  1  0  0  0  0
  2 13  1  0  0  0  0
  2  8  1  0  0  0  0
  3 15  1  0  0  0  0
  4 16  1  0  0  0  0
  4  3  1  0  0  0  0
  5 17  1  0  0  0  0
  5  3  2  0  0  0  0
  6 19  1  0  0  0  0
  6  7  1  0  0  0  0
  7  4  2  0  0  0  0
  8 20  1  0  0  0  0
  8  6  1  0  0  0  0
  9  7  1  0  0  0  0
  9  5  1  0  0  0  0
 10  1  1  0  0  0  0
 12  1  1  0  0  0  0
 14  2  1  0  0  0  0
 18  6  1  0  0  0  0
M  END
>  <HBA>
2

>  <HBD>
1

>  <TPSA>
25.17

>  <cid>
57507

>  <dipole>
0.56

>  <excitation_energy_1>
5.356

>  <excitation_energy_2>
5.587

>  <excitation_energy_3>
5.771

>  <excitation_energy_4>
5.87

>  <homo_energy>
-5.886

>  <homo_lumo_gap>
6.362

>  <logP>
1.78

>  <lumo_energy>
0.476

>  <melting_point>
32.23

>  <molecular_refractivity>
36.09

>  <oscillator_strength_1>
0.0149

>  <oscillator_strength_2>
0.0123

>  <oscillator_strength_3>
0.0046

>  <oscillator_strength_4>
0.1906

>  <open_babel_can_smiles>
CCNCc1ccco1

>  <mulliken_charges>
20
1   -0.45022
2   -0.105027
3   -0.182473
4   -0.201233
5   0.082313
6   -0.191184
7   0.334676
8   -0.548644
9   -0.443961
10   0.143931
11   0.160778
12   0.140082
13   0.138251
14   0.110291
15   0.139399
16   0.137267
17   0.151043
18   0.129565
19   0.154211
20   0.300935

>  <lowdin_charges>
20
1   -0.446413
2   -0.196188
3   -0.203571
4   -0.211976
5   -0.082308
6   -0.198528
7   0.065744
8   -0.361067
9   -0.112209
10   0.153112
11   0.157768
12   0.143984
13   0.137612
14   0.114945
15   0.167755
16   0.166934
17   0.167363
18   0.130674
19   0.154294
20   0.252075

$$$$

