PCCDB-ID:  10249
public computational chemistry database (PCCDB) project, http://pccdb.org

 22 23  0  0  0  0  0  0  0  0999 V2000
    0.8981   -0.3137    0.1067 C   0  0  0  0  0  0  0  0  0  0  0  0
    0.6942    4.0795    0.6408 C   0  0  0  0  0  0  0  0  0  0  0  0
    4.5244   -0.5565    0.1736 C   0  0  0  0  0  0  0  0  0  0  0  0
    1.2228    2.7970    0.7648 C   0  0  0  0  0  0  0  0  0  0  0  0
    4.3627    0.8472    0.0784 C   0  0  0  0  0  0  0  0  0  0  0  0
    1.3103    4.9781   -0.2295 C   0  0  0  0  0  0  0  0  0  0  0  0
    3.2604   -1.1047    0.2177 C   0  0  0  0  0  0  0  0  0  0  0  0
    2.8710    3.4277   -0.8498 C   0  0  0  0  0  0  0  0  0  0  0  0
    2.3448    2.4339    0.0014 C   0  0  0  0  0  0  0  0  0  0  0  0
    3.0019    1.1260    0.0766 C   0  0  0  0  0  0  0  0  0  0  0  0
    2.3868    4.6654   -0.9636 N   0  0  0  0  0  0  0  0  0  0  0  0
    2.3335   -0.0904    0.1636 N   0  0  0  0  0  0  0  0  0  0  0  0
    0.7113   -1.3061   -0.3110 H   0  0  0  0  0  0  0  0  0  0  0  0
    0.4269    0.4287   -0.5413 H   0  0  0  0  0  0  0  0  0  0  0  0
    0.4334   -0.2604    1.0988 H   0  0  0  0  0  0  0  0  0  0  0  0
   -0.1714    4.3833    1.2225 H   0  0  0  0  0  0  0  0  0  0  0  0
    5.4558   -1.1051    0.2070 H   0  0  0  0  0  0  0  0  0  0  0  0
    0.7856    2.0938    1.4673 H   0  0  0  0  0  0  0  0  0  0  0  0
    5.1467    1.5920    0.0505 H   0  0  0  0  0  0  0  0  0  0  0  0
    0.9278    5.9910   -0.3437 H   0  0  0  0  0  0  0  0  0  0  0  0
    2.9377   -2.1351    0.2732 H   0  0  0  0  0  0  0  0  0  0  0  0
    3.7303    3.1887   -1.4740 H   0  0  0  0  0  0  0  0  0  0  0  0
  1 12  1  0  0  0  0
  1 15  1  0  0  0  0
  2  4  1  0  0  0  0
  2 16  1  0  0  0  0
  3 17  1  0  0  0  0
  3  7  2  0  0  0  0
  4 18  1  0  0  0  0
  5  3  1  0  0  0  0
  6  2  2  0  0  0  0
  7 21  1  0  0  0  0
  8  9  1  0  0  0  0
  9 10  1  0  0  0  0
  9  4  2  0  0  0  0
 10  5  2  0  0  0  0
 10 12  1  0  0  0  0
 11  8  2  0  0  0  0
 11  6  1  0  0  0  0
 12  7  1  0  0  0  0
 13  1  1  0  0  0  0
 14  1  1  0  0  0  0
 19  5  1  0  0  0  0
 20  6  1  0  0  0  0
 22  8  1  0  0  0  0
M  END
>  <HBA>
2

>  <HBD>
0

>  <TPSA>
17.82

>  <cid>
10249

>  <dipole>
3.61

>  <excitation_energy_1>
4.034

>  <excitation_energy_2>
4.298

>  <excitation_energy_3>
4.807

>  <excitation_energy_4>
4.881

>  <homo_energy>
-5.418

>  <homo_lumo_gap>
4.716

>  <logP>
2.087

>  <lumo_energy>
-0.702

>  <melting_point>
59.26

>  <molecular_refractivity>
48.92

>  <oscillator_strength_1>
0.0962

>  <oscillator_strength_2>
0.2477

>  <oscillator_strength_3>
0.0141

>  <oscillator_strength_4>
0.0021

>  <open_babel_can_smiles>
Cn1cccc1c1cccnc1

>  <mulliken_charges>
22
1   -0.328839
2   -0.146505
3   -0.19002
4   -0.143764
5   -0.207316
6   0.038269
7   0.028698
8   0.002788
9   0.087177
10   0.221661
11   -0.411381
12   -0.435225
13   0.171376
14   0.183643
15   0.168315
16   0.136071
17   0.12671
18   0.13984
19   0.130635
20   0.140255
21   0.139995
22   0.147616

>  <lowdin_charges>
22
1   -0.34905
2   -0.174759
3   -0.21071
4   -0.146098
5   -0.212244
6   -0.096109
7   -0.153603
8   -0.093783
9   -0.022486
10   -0.009265
11   -0.143986
12   -0.00584
13   0.164857
14   0.171664
15   0.153637
16   0.16378
17   0.161731
18   0.162713
19   0.163414
20   0.155368
21   0.16019
22   0.160579

$$$$

