PCCDB-ID:  13403
public computational chemistry database (PCCDB) project, http://pccdb.org

 24 24  0  0  0  0  0  0  0  0999 V2000
    3.7136    0.1204    0.9042 C   0  0  0  0  0  0  0  0  0  0  0  0
    3.9108    0.7296   -5.6597 C   0  0  0  0  0  0  0  0  0  0  0  0
    2.5939    2.8151   -1.2599 C   0  0  0  0  0  0  0  0  0  0  0  0
    2.4744    0.0781   -0.0099 C   0  0  0  0  0  0  0  0  0  0  0  0
    3.4173   -0.7032   -3.6250 C   0  0  0  0  0  0  0  0  0  0  0  0
    3.0726   -0.8338   -2.2804 C   0  0  0  0  0  0  0  0  0  0  0  0
    3.2389    1.6749   -3.4075 C   0  0  0  0  0  0  0  0  0  0  0  0
    3.5104    0.5616   -4.2120 C   0  0  0  0  0  0  0  0  0  0  0  0
    2.8926    1.5634   -2.0566 C   0  0  0  0  0  0  0  0  0  0  0  0
    2.8086    0.2797   -1.4753 C   0  0  0  0  0  0  0  0  0  0  0  0
    3.4333   -0.0335    1.9529 H   0  0  0  0  0  0  0  0  0  0  0  0
    4.2330    1.0824    0.8306 H   0  0  0  0  0  0  0  0  0  0  0  0
    4.4287   -0.6610    0.6243 H   0  0  0  0  0  0  0  0  0  0  0  0
    3.7083   -0.1778   -6.2386 H   0  0  0  0  0  0  0  0  0  0  0  0
    4.9836    0.9450   -5.7564 H   0  0  0  0  0  0  0  0  0  0  0  0
    3.3724    1.5586   -6.1327 H   0  0  0  0  0  0  0  0  0  0  0  0
    2.7665    3.7116   -1.8634 H   0  0  0  0  0  0  0  0  0  0  0  0
    3.2192    2.8946   -0.3628 H   0  0  0  0  0  0  0  0  0  0  0  0
    1.5494    2.8422   -0.9224 H   0  0  0  0  0  0  0  0  0  0  0  0
    1.7524    0.8321    0.3261 H   0  0  0  0  0  0  0  0  0  0  0  0
    1.9797   -0.8936    0.1130 H   0  0  0  0  0  0  0  0  0  0  0  0
    3.6112   -1.5921   -4.2216 H   0  0  0  0  0  0  0  0  0  0  0  0
    2.9995   -1.8280   -1.8434 H   0  0  0  0  0  0  0  0  0  0  0  0
    3.2963    2.6686   -3.8496 H   0  0  0  0  0  0  0  0  0  0  0  0
  1 11  1  0  0  0  0
  2  8  1  0  0  0  0
  3 19  1  0  0  0  0
  3 18  1  0  0  0  0
  4 21  1  0  0  0  0
  4 20  1  0  0  0  0
  4  1  1  0  0  0  0
  5  6  1  0  0  0  0
  6 23  1  0  0  0  0
  6 10  2  0  0  0  0
  7  9  2  0  0  0  0
  8  5  2  0  0  0  0
  8  7  1  0  0  0  0
  9 10  1  0  0  0  0
  9  3  1  0  0  0  0
 10  4  1  0  0  0  0
 12  1  1  0  0  0  0
 13  1  1  0  0  0  0
 14  2  1  0  0  0  0
 15  2  1  0  0  0  0
 16  2  1  0  0  0  0
 17  3  1  0  0  0  0
 22  5  1  0  0  0  0
 24  7  1  0  0  0  0
M  END
>  <HBA>
0

>  <HBD>
0

>  <TPSA>
0.0

>  <cid>
13403

>  <dipole>
0.27

>  <excitation_energy_1>
5.106

>  <excitation_energy_2>
5.567

>  <excitation_energy_3>
5.751

>  <excitation_energy_4>
5.988

>  <homo_energy>
-6.033

>  <homo_lumo_gap>
6.261

>  <logP>
2.866

>  <lumo_energy>
0.229

>  <melting_point>
16.16

>  <molecular_refractivity>
46.15

>  <oscillator_strength_1>
0.0038

>  <oscillator_strength_2>
0.0723

>  <oscillator_strength_3>
0.0066

>  <oscillator_strength_4>
0.0101

>  <open_babel_can_smiles>
CCc1ccc(cc1C)C

>  <mulliken_charges>
24
1   -0.436932
2   -0.530028
3   -0.540132
4   -0.338976
5   -0.183697
6   -0.18398
7   -0.242382
8   0.187453
9   0.136927
10   0.120299
11   0.141723
12   0.149215
13   0.149687
14   0.153625
15   0.162571
16   0.155408
17   0.153576
18   0.16013
19   0.161033
20   0.139955
21   0.14104
22   0.116146
23   0.117237
24   0.110104

>  <lowdin_charges>
24
1   -0.440301
2   -0.441986
3   -0.443121
4   -0.2736
5   -0.174421
6   -0.164636
7   -0.178095
8   -0.001611
9   -0.007363
10   -0.015158
11   0.146993
12   0.148388
13   0.151557
14   0.156491
15   0.158373
16   0.157959
17   0.156445
18   0.157622
19   0.157129
20   0.148924
21   0.148203
22   0.152614
23   0.151189
24   0.148403

$$$$

