PCCDB-ID:  39836
public computational chemistry database (PCCDB) project, http://pccdb.org

 31 30  0  0  1  0  0  0  0  0999 V2000
   -0.5184   -1.6233    2.3690 C   0  0  0  0  0  0  0  0  0  0  0  0
    3.1248    0.3815    0.6141 C   0  0  0  0  0  0  0  0  0  0  0  0
    2.3935   -0.9643    0.5593 C   0  0  0  0  0  0  0  0  0  0  0  0
    4.5854    0.2272    1.0581 C   0  0  0  0  0  0  0  0  0  0  0  0
    0.9555   -0.8404    0.0000 C   0  0  2  0  0  0  0  0  0  0  0  0
    0.2637   -2.2115    0.1362 C   0  0  0  0  0  0  0  0  0  0  0  0
    5.2298    2.4482    2.0636 C   0  0  0  0  0  0  0  0  0  0  0  0
    1.0041   -0.3960   -1.3920 N   0  0  0  0  0  0  0  0  0  0  0  0
    5.4379    3.7101    1.9940 N   0  0  0  0  0  0  0  0  0  0  0  0
    5.3281    1.4891    1.0935 N   0  0  0  0  0  0  0  0  0  0  0  0
    4.7796    1.9886    3.3522 N   0  0  0  0  0  0  0  0  0  0  0  0
    5.6219    1.1779    4.1501 N   0  0  0  0  0  0  0  0  0  0  0  0
    0.2833   -3.0160   -0.7671 O   0  0  0  0  0  0  0  0  0  0  0  0
    5.4751    1.3251    5.3569 O   0  0  0  0  0  0  0  0  0  0  0  0
    6.3600    0.3830    3.5876 O   0  0  0  0  0  0  0  0  0  0  0  0
   -0.3261   -2.5634    1.3068 O   0  0  0  0  0  0  0  0  0  0  0  0
    0.4291   -1.2209    2.7414 H   0  0  0  0  0  0  0  0  0  0  0  0
   -1.1745   -0.8009    2.0633 H   0  0  0  0  0  0  0  0  0  0  0  0
   -1.0036   -2.1864    3.1675 H   0  0  0  0  0  0  0  0  0  0  0  0
    2.6108    1.0556    1.3133 H   0  0  0  0  0  0  0  0  0  0  0  0
    3.0756    0.8487   -0.3755 H   0  0  0  0  0  0  0  0  0  0  0  0
    2.3680   -1.4215    1.5577 H   0  0  0  0  0  0  0  0  0  0  0  0
    2.9396   -1.6675   -0.0849 H   0  0  0  0  0  0  0  0  0  0  0  0
    5.1236   -0.4358    0.3710 H   0  0  0  0  0  0  0  0  0  0  0  0
    4.6524   -0.2356    2.0439 H   0  0  0  0  0  0  0  0  0  0  0  0
    0.4195   -0.0789    0.5766 H   0  0  0  0  0  0  0  0  0  0  0  0
    1.2166   -1.2150   -1.9640 H   0  0  0  0  0  0  0  0  0  0  0  0
    0.0743   -0.0999   -1.6864 H   0  0  0  0  0  0  0  0  0  0  0  0
    5.6061    4.0122    1.0316 H   0  0  0  0  0  0  0  0  0  0  0  0
    5.6153    1.8512    0.1935 H   0  0  0  0  0  0  0  0  0  0  0  0
    4.5156    2.7836    3.9286 H   0  0  0  0  0  0  0  0  0  0  0  0
  1 17  1  0  0  0  0
  1 19  1  0  0  0  0
  2  4  1  0  0  0  0
  2 20  1  0  0  0  0
  3  2  1  0  0  0  0
  3 22  1  0  0  0  0
  4 10  1  0  0  0  0
  4 25  1  0  0  0  0
  5  6  1  0  0  0  0
  5  3  1  0  0  0  0
  5 26  1  1  0  0  0
  6 16  1  0  0  0  0
  7 11  1  0  0  0  0
  8  5  1  0  0  0  0
  9  7  2  0  0  0  0
 10  7  1  0  0  0  0
 11 31  1  0  0  0  0
 11 12  1  0  0  0  0
 12 14  2  0  0  0  0
 13  6  2  0  0  0  0
 15 12  2  0  0  0  0
 16  1  1  0  0  0  0
 18  1  1  0  0  0  0
 21  2  1  0  0  0  0
 23  3  1  0  0  0  0
 24  4  1  0  0  0  0
 27  8  1  0  0  0  0
 28  8  1  0  0  0  0
 29  9  1  0  0  0  0
 30 10  1  0  0  0  0
M  END
>  <HBA>
6

>  <HBD>
3

>  <TPSA>
148.55

>  <cid>
39836

>  <dipole>
3.81

>  <excitation_energy_1>
3.956

>  <excitation_energy_2>
4.534

>  <excitation_energy_3>
4.638

>  <excitation_energy_4>
5.067

>  <homo_energy>
-6.683

>  <homo_lumo_gap>
4.955

>  <logP>
0.678

>  <lumo_energy>
-1.728

>  <melting_point>
169.51

>  <molecular_refractivity>
57.05

>  <oscillator_strength_1>
0.0049

>  <oscillator_strength_2>
0.0003

>  <oscillator_strength_3>
0.0003

>  <oscillator_strength_4>
0.0003

>  <open_babel_can_smiles>
COC(=O)[C@@H](CCCNC(=N)NN(=O)=O)N

>  <mulliken_charges>
31
1   -0.231148
2   -0.258892
3   -0.264201
4   -0.141017
5   -0.092982
6   0.592856
7   0.583652
8   -0.701904
9   -0.611093
10   -0.570786
11   -0.439328
12   0.605613
13   -0.453488
14   -0.388485
15   -0.382607
16   -0.434463
17   0.162836
18   0.162492
19   0.186795
20   0.138666
21   0.166607
22   0.145289
23   0.154413
24   0.15666
25   0.176741
26   0.141352
27   0.317872
28   0.30427
29   0.280814
30   0.325506
31   0.367959

>  <lowdin_charges>
31
1   -0.283698
2   -0.29016
3   -0.275694
4   -0.199091
5   -0.10822
6   0.182412
7   0.11634
8   -0.535012
9   -0.437136
10   -0.271504
11   -0.236333
12   0.337238
13   -0.249385
14   -0.245536
15   -0.24022
16   -0.185666
17   0.151307
18   0.15184
19   0.173138
20   0.145494
21   0.157884
22   0.146013
23   0.155199
24   0.156858
25   0.162293
26   0.151802
27   0.266043
28   0.259625
29   0.254248
30   0.283391
31   0.306528

$$$$

