PCCDB-ID:  41962
public computational chemistry database (PCCDB) project, http://pccdb.org

 40 41  0  0  0  0  0  0  0  0999 V2000
    0.9352    0.2243   -0.3877 C   0  0  0  0  0  0  0  0  0  0  0  0
   11.1072    0.1146   -0.2402 C   0  0  0  0  0  0  0  0  0  0  0  0
    2.2775   -2.1373    0.8596 C   0  0  0  0  0  0  0  0  0  0  0  0
    9.6909    0.5082    2.3643 C   0  0  0  0  0  0  0  0  0  0  0  0
    5.1571   -2.2429    1.0024 C   0  0  0  0  0  0  0  0  0  0  0  0
    6.8094    0.5096    2.4456 C   0  0  0  0  0  0  0  0  0  0  0  0
    3.2266    1.1816   -0.7633 C   0  0  0  0  0  0  0  0  0  0  0  0
    8.8424   -0.0927   -1.3059 C   0  0  0  0  0  0  0  0  0  0  0  0
    4.6131    1.1426   -0.6770 C   0  0  0  0  0  0  0  0  0  0  0  0
    7.4534   -0.1141   -1.2659 C   0  0  0  0  0  0  0  0  0  0  0  0
    2.4420    0.1348   -0.2686 C   0  0  0  0  0  0  0  0  0  0  0  0
    9.5962    0.1018   -0.1439 C   0  0  0  0  0  0  0  0  0  0  0  0
    3.0834   -0.9740    0.3197 C   0  0  0  0  0  0  0  0  0  0  0  0
    8.9206    0.2846    1.0796 C   0  0  0  0  0  0  0  0  0  0  0  0
    4.4936   -1.0225    0.4013 C   0  0  0  0  0  0  0  0  0  0  0  0
    7.5078    0.2724    1.1239 C   0  0  0  0  0  0  0  0  0  0  0  0
    5.2666    0.0511   -0.0908 C   0  0  0  0  0  0  0  0  0  0  0  0
    6.7660    0.0590   -0.0578 C   0  0  0  0  0  0  0  0  0  0  0  0
    0.6443    1.1511   -0.8919 H   0  0  0  0  0  0  0  0  0  0  0  0
    0.4409    0.2162    0.5922 H   0  0  0  0  0  0  0  0  0  0  0  0
    0.5153   -0.6093   -0.9644 H   0  0  0  0  0  0  0  0  0  0  0  0
   11.4268   -0.0230   -1.2778 H   0  0  0  0  0  0  0  0  0  0  0  0
   11.5667   -0.6866    0.3527 H   0  0  0  0  0  0  0  0  0  0  0  0
   11.5365    1.0604    0.1130 H   0  0  0  0  0  0  0  0  0  0  0  0
    1.2066   -1.9275    0.8744 H   0  0  0  0  0  0  0  0  0  0  0  0
    2.5763   -2.3940    1.8831 H   0  0  0  0  0  0  0  0  0  0  0  0
    2.4239   -3.0440    0.2562 H   0  0  0  0  0  0  0  0  0  0  0  0
   10.7673    0.3909    2.2286 H   0  0  0  0  0  0  0  0  0  0  0  0
    9.3799   -0.1945    3.1472 H   0  0  0  0  0  0  0  0  0  0  0  0
    9.5203    1.5162    2.7667 H   0  0  0  0  0  0  0  0  0  0  0  0
    4.9537   -2.3275    2.0788 H   0  0  0  0  0  0  0  0  0  0  0  0
    6.2400   -2.2157    0.8712 H   0  0  0  0  0  0  0  0  0  0  0  0
    4.7864   -3.1664    0.5412 H   0  0  0  0  0  0  0  0  0  0  0  0
    6.9969   -0.3067    3.1566 H   0  0  0  0  0  0  0  0  0  0  0  0
    5.7293    0.5983    2.3186 H   0  0  0  0  0  0  0  0  0  0  0  0
    7.1665    1.4290    2.9258 H   0  0  0  0  0  0  0  0  0  0  0  0
    2.7409    2.0399   -1.2220 H   0  0  0  0  0  0  0  0  0  0  0  0
    9.3545   -0.2320   -2.2554 H   0  0  0  0  0  0  0  0  0  0  0  0
    5.2052    1.9688   -1.0615 H   0  0  0  0  0  0  0  0  0  0  0  0
    6.8856   -0.2745   -2.1785 H   0  0  0  0  0  0  0  0  0  0  0  0
  1 11  1  0  0  0  0
  1 20  1  0  0  0  0
  2 12  1  0  0  0  0
  2 24  1  0  0  0  0
  2 23  1  0  0  0  0
  3 25  1  0  0  0  0
  3 26  1  0  0  0  0
  4 30  1  0  0  0  0
  4 29  1  0  0  0  0
  5 31  1  0  0  0  0
  6 36  1  0  0  0  0
  6 34  1  0  0  0  0
  7  9  2  0  0  0  0
  7 11  1  0  0  0  0
  8 10  2  0  0  0  0
  8 12  1  0  0  0  0
  9 17  1  0  0  0  0
 10 18  1  0  0  0  0
 11 13  2  0  0  0  0
 12 14  2  0  0  0  0
 13 15  1  0  0  0  0
 13  3  1  0  0  0  0
 14 16  1  0  0  0  0
 14  4  1  0  0  0  0
 15  5  1  0  0  0  0
 16  6  1  0  0  0  0
 17 18  1  0  0  0  0
 17 15  2  0  0  0  0
 18 16  2  0  0  0  0
 19  1  1  0  0  0  0
 21  1  1  0  0  0  0
 22  2  1  0  0  0  0
 27  3  1  0  0  0  0
 28  4  1  0  0  0  0
 32  5  1  0  0  0  0
 33  5  1  0  0  0  0
 35  6  1  0  0  0  0
 37  7  1  0  0  0  0
 38  8  1  0  0  0  0
 39  9  1  0  0  0  0
 40 10  1  0  0  0  0
M  END
>  <HBA>
0

>  <HBD>
0

>  <TPSA>
0.0

>  <cid>
41962

>  <dipole>
0.72

>  <excitation_energy_1>
4.899

>  <excitation_energy_2>
5.114

>  <excitation_energy_3>
5.258

>  <excitation_energy_4>
5.506

>  <homo_energy>
-5.886

>  <homo_lumo_gap>
5.924

>  <logP>
5.204

>  <lumo_energy>
0.038

>  <melting_point>
69.62

>  <molecular_refractivity>
81.67

>  <oscillator_strength_1>
0.0043

>  <oscillator_strength_2>
0.0003

>  <oscillator_strength_3>
0.1258

>  <oscillator_strength_4>
0.1002

>  <open_babel_can_smiles>
Cc1c(ccc(c1C)C)c1ccc(c(c1C)C)C

>  <mulliken_charges>
40
1   -0.540036
2   -0.539966
3   -0.53508
4   -0.535122
5   -0.536871
6   -0.536856
7   -0.192732
8   -0.19272
9   -0.158048
10   -0.158055
11   0.143368
12   0.143398
13   0.060412
14   0.060418
15   0.104523
16   0.104867
17   -0.01097
18   -0.011007
19   0.153344
20   0.159383
21   0.159255
22   0.153322
23   0.159329
24   0.159282
25   0.154669
26   0.157152
27   0.159975
28   0.154742
29   0.157286
30   0.159753
31   0.153988
32   0.169686
33   0.153699
34   0.153634
35   0.169596
36   0.153899
37   0.116671
38   0.116647
39   0.127554
40   0.127611

>  <lowdin_charges>
40
1   -0.445293
2   -0.444733
3   -0.443792
4   -0.444473
5   -0.444958
6   -0.447059
7   -0.173818
8   -0.173374
9   -0.16587
10   -0.165462
11   -0.01079
12   -0.010382
13   -0.018405
14   -0.018548
15   -0.011425
16   -0.011726
17   -0.018442
18   -0.017915
19   0.156236
20   0.156956
21   0.158455
22   0.155003
23   0.158344
24   0.157667
25   0.157337
26   0.157127
27   0.158642
28   0.157293
29   0.158745
30   0.157789
31   0.153773
32   0.165306
33   0.157065
34   0.155947
35   0.165316
36   0.157198
37   0.152783
38   0.152077
39   0.158975
40   0.15843

$$$$

