PCCDB-ID:  69487
public computational chemistry database (PCCDB) project, http://pccdb.org

 18 17  0  0  0  0  0  0  0  0999 V2000
    5.1904    1.0832    0.7732 C   0  0  0  0  0  0  0  0  0  0  0  0
    0.3379    2.4772    3.5050 C   0  0  0  0  0  0  0  0  0  0  0  0
    4.1043    0.0455    0.7568 C   0  0  0  0  0  0  0  0  0  0  0  0
    0.1920    2.0783    2.0642 C   0  0  0  0  0  0  0  0  0  0  0  0
    2.3563    1.3049    1.6546 C   0  0  0  0  0  0  0  0  0  0  0  0
    2.8643    0.1384    1.0703 N   0  0  0  0  0  0  0  0  0  0  0  0
    1.0259    1.5126    1.2713 N   0  0  0  0  0  0  0  0  0  0  0  0
    4.5576   -1.1479    0.3279 O   0  0  0  0  0  0  0  0  0  0  0  0
   -1.0310    2.3749    1.5842 O   0  0  0  0  0  0  0  0  0  0  0  0
    2.9908    2.0446    2.4009 O   0  0  0  0  0  0  0  0  0  0  0  0
    4.7812    2.0843    0.6393 H   0  0  0  0  0  0  0  0  0  0  0  0
    5.9302    0.8558    0.0020 H   0  0  0  0  0  0  0  0  0  0  0  0
    5.6853    1.0660    1.7503 H   0  0  0  0  0  0  0  0  0  0  0  0
    1.0856    1.8666    4.0104 H   0  0  0  0  0  0  0  0  0  0  0  0
   -0.6304    2.4073    4.0067 H   0  0  0  0  0  0  0  0  0  0  0  0
    0.6822    3.5160    3.5540 H   0  0  0  0  0  0  0  0  0  0  0  0
    3.7946   -1.7564    0.3725 H   0  0  0  0  0  0  0  0  0  0  0  0
   -1.0243    2.1020    0.6461 H   0  0  0  0  0  0  0  0  0  0  0  0
  1 13  1  0  0  0  0
  2 16  1  0  0  0  0
  2 15  1  0  0  0  0
  2 14  1  0  0  0  0
  3  1  1  0  0  0  0
  3  6  2  0  0  0  0
  4  2  1  0  0  0  0
  5 10  2  0  0  0  0
  6  5  1  0  0  0  0
  7  5  1  0  0  0  0
  7  4  2  0  0  0  0
  8 17  1  0  0  0  0
  8  3  1  0  0  0  0
  9  4  1  0  0  0  0
 11  1  1  0  0  0  0
 12  1  1  0  0  0  0
 18  9  1  0  0  0  0
M  END
>  <HBA>
5

>  <HBD>
2

>  <TPSA>
75.27

>  <cid>
69487

>  <dipole>
0.81

>  <excitation_energy_1>
4.063

>  <excitation_energy_2>
5.185

>  <excitation_energy_3>
5.629

>  <excitation_energy_4>
5.788

>  <homo_energy>
-6.465

>  <homo_lumo_gap>
5.421

>  <logP>
0.16

>  <lumo_energy>
-1.045

>  <melting_point>
102.97

>  <molecular_refractivity>
32.74

>  <oscillator_strength_1>
0.0007

>  <oscillator_strength_2>
0.0295

>  <oscillator_strength_3>
0.0275

>  <oscillator_strength_4>
0.0152

>  <open_babel_can_smiles>
O=C(/N=C(\O)/C)/N=C(/O)\C

>  <mulliken_charges>
18
1   -0.49929
2   -0.499129
3   0.536373
4   0.536408
5   0.591734
6   -0.495994
7   -0.496202
8   -0.569414
9   -0.569527
10   -0.493712
11   0.193004
12   0.173087
13   0.199236
14   0.19347
15   0.173285
16   0.198505
17   0.41408
18   0.414086

>  <lowdin_charges>
18
1   -0.457152
2   -0.457991
3   0.184872
4   0.187147
5   0.182814
6   -0.234873
7   -0.236887
8   -0.340826
9   -0.339426
10   -0.299308
11   0.182824
12   0.172477
13   0.18885
14   0.18469
15   0.171705
16   0.187744
17   0.362634
18   0.360705

$$$$

