PCCDB-ID:  7837
public computational chemistry database (PCCDB) project, http://pccdb.org

 20 20  0  0  1  0  0  0  0  0999 V2000
    3.5516   -1.8904   -0.6617 C   0  0  0  0  0  0  0  0  0  0  0  0
    1.2695   -0.9932   -1.2140 C   0  0  0  0  0  0  0  0  0  0  0  0
    6.3855    2.9119   -0.4544 C   0  0  0  0  0  0  0  0  0  0  0  0
    4.6303    1.7557    1.0614 C   0  0  0  0  0  0  0  0  0  0  0  0
    2.6627   -0.8888   -0.6517 C   0  0  0  0  0  0  0  0  0  0  0  0
    5.0102    2.8151    0.0520 C   0  0  1  0  0  0  0  0  0  0  0  0
    3.0006    0.4422   -0.0633 C   0  0  0  0  0  0  0  0  0  0  0  0
    2.2200    1.3744   -0.0245 O   0  0  0  0  0  0  0  0  0  0  0  0
    5.9074    3.8162    0.5501 O   0  0  0  0  0  0  0  0  0  0  0  0
    4.2637    0.5127    0.4258 O   0  0  0  0  0  0  0  0  0  0  0  0
    3.3002   -2.8566   -1.0911 H   0  0  0  0  0  0  0  0  0  0  0  0
    4.5457   -1.7747   -0.2455 H   0  0  0  0  0  0  0  0  0  0  0  0
    1.0900   -1.9891   -1.6288 H   0  0  0  0  0  0  0  0  0  0  0  0
    1.1084   -0.2484   -2.0015 H   0  0  0  0  0  0  0  0  0  0  0  0
    0.5196   -0.7921   -0.4408 H   0  0  0  0  0  0  0  0  0  0  0  0
    6.5697    3.3556   -1.4326 H   0  0  0  0  0  0  0  0  0  0  0  0
    7.1357    2.1950   -0.1187 H   0  0  0  0  0  0  0  0  0  0  0  0
    3.8023    2.1004    1.6861 H   0  0  0  0  0  0  0  0  0  0  0  0
    5.4918    1.5156    1.6880 H   0  0  0  0  0  0  0  0  0  0  0  0
    4.1935    3.1966   -0.5594 H   0  0  0  0  0  0  0  0  0  0  0  0
  1  5  2  0  0  0  0
  1 12  1  0  0  0  0
  2  5  1  0  0  0  0
  2 15  1  0  0  0  0
  3 17  1  0  0  0  0
  3  6  1  0  0  0  0
  3  9  1  0  0  0  0
  4 18  1  0  0  0  0
  4 19  1  0  0  0  0
  5  7  1  0  0  0  0
  6 20  1  6  0  0  0
  6  9  1  0  0  0  0
  6  4  1  0  0  0  0
  7  8  2  0  0  0  0
  7 10  1  0  0  0  0
 10  4  1  0  0  0  0
 11  1  1  0  0  0  0
 13  2  1  0  0  0  0
 14  2  1  0  0  0  0
 16  3  1  0  0  0  0
M  END
>  <HBA>
3

>  <HBD>
0

>  <TPSA>
38.83

>  <cid>
7837

>  <dipole>
2.94

>  <excitation_energy_1>
4.819

>  <excitation_energy_2>
5.45

>  <excitation_energy_3>
5.892

>  <excitation_energy_4>
6.381

>  <homo_energy>
-7.339

>  <homo_lumo_gap>
6.104

>  <logP>
0.504

>  <lumo_energy>
-1.235

>  <melting_point>
-18.34

>  <molecular_refractivity>
35.55

>  <oscillator_strength_1>
0.0001

>  <oscillator_strength_2>
0.0317

>  <oscillator_strength_3>
0.2243

>  <oscillator_strength_4>
0.0034

>  <open_babel_can_smiles>
CC(=C)C(=O)OC[C@@H]1CO1

>  <mulliken_charges>
20
1   -0.367497
2   -0.500308
3   -0.105019
4   -0.071272
5   0.126035
6   0.08151
7   0.594416
8   -0.485204
9   -0.440541
10   -0.477023
11   0.150885
12   0.172903
13   0.148867
14   0.17321
15   0.174862
16   0.156726
17   0.152702
18   0.1786
19   0.162588
20   0.173561

>  <lowdin_charges>
20
1   -0.297437
2   -0.435539
3   -0.1628
4   -0.135543
5   -0.028315
6   -0.036196
7   0.19706
8   -0.26923
9   -0.28025
10   -0.192593
11   0.164113
12   0.174714
13   0.155925
14   0.169529
15   0.170413
16   0.157149
17   0.15429
18   0.166782
19   0.162954
20   0.164974

$$$$

