PCCDB-ID:  66985
public computational chemistry database (PCCDB) project, http://pccdb.org

 28 27  0  0  0  0  0  0  0  0999 V2000
    0.9463   -0.1009   -0.5450 C   0  0  0  0  0  0  0  0  0  0  0  0
    0.6070   -1.0618   -1.6872 C   0  0  0  0  0  0  0  0  0  0  0  0
    8.2819    2.3256   -3.6752 C   0  0  0  0  0  0  0  0  0  0  0  0
    2.4434    0.0961   -0.3467 C   0  0  0  0  0  0  0  0  0  0  0  0
    6.7714    2.3301   -3.8518 C   0  0  0  0  0  0  0  0  0  0  0  0
    4.3855    0.8789   -1.4474 C   0  0  0  0  0  0  0  0  0  0  0  0
    4.8245    1.5196   -2.7561 C   0  0  0  0  0  0  0  0  0  0  0  0
   -0.8474   -1.1842   -1.8351 N   0  0  0  0  0  0  0  0  0  0  0  0
    8.7783    1.0058   -3.5348 O   0  0  0  0  0  0  0  0  0  0  0  0
    2.9902    0.6764   -1.5213 O   0  0  0  0  0  0  0  0  0  0  0  0
    6.2247    1.7218   -2.6893 O   0  0  0  0  0  0  0  0  0  0  0  0
    0.5262   -0.4809    0.3979 H   0  0  0  0  0  0  0  0  0  0  0  0
    0.4694    0.8664   -0.7395 H   0  0  0  0  0  0  0  0  0  0  0  0
    1.1253   -2.0243   -1.5114 H   0  0  0  0  0  0  0  0  0  0  0  0
    1.0099   -0.6549   -2.6202 H   0  0  0  0  0  0  0  0  0  0  0  0
    8.5444    2.9491   -2.8049 H   0  0  0  0  0  0  0  0  0  0  0  0
    8.7617    2.7592   -4.5588 H   0  0  0  0  0  0  0  0  0  0  0  0
    2.9378   -0.8697   -0.1405 H   0  0  0  0  0  0  0  0  0  0  0  0
    2.6328    0.7506    0.5206 H   0  0  0  0  0  0  0  0  0  0  0  0
    6.4956    1.7512   -4.7476 H   0  0  0  0  0  0  0  0  0  0  0  0
    6.3891    3.3573   -3.9717 H   0  0  0  0  0  0  0  0  0  0  0  0
    4.6490    1.5381   -0.6042 H   0  0  0  0  0  0  0  0  0  0  0  0
    4.9197   -0.0748   -1.3019 H   0  0  0  0  0  0  0  0  0  0  0  0
    4.2963    2.4755   -2.8964 H   0  0  0  0  0  0  0  0  0  0  0  0
    4.5604    0.8640   -3.6006 H   0  0  0  0  0  0  0  0  0  0  0  0
   -1.2337   -1.6735   -1.0280 H   0  0  0  0  0  0  0  0  0  0  0  0
   -1.0638   -1.7654   -2.6433 H   0  0  0  0  0  0  0  0  0  0  0  0
    8.2180    0.5926   -2.8569 H   0  0  0  0  0  0  0  0  0  0  0  0
  1  4  1  0  0  0  0
  1 12  1  0  0  0  0
  2 14  1  0  0  0  0
  2  1  1  0  0  0  0
  3  9  1  0  0  0  0
  3 16  1  0  0  0  0
  4 18  1  0  0  0  0
  4 19  1  0  0  0  0
  5  3  1  0  0  0  0
  5 11  1  0  0  0  0
  6 23  1  0  0  0  0
  6 22  1  0  0  0  0
  7 11  1  0  0  0  0
  7  6  1  0  0  0  0
  8  2  1  0  0  0  0
  8 26  1  0  0  0  0
  9 28  1  0  0  0  0
 10  6  1  0  0  0  0
 10  4  1  0  0  0  0
 13  1  1  0  0  0  0
 15  2  1  0  0  0  0
 17  3  1  0  0  0  0
 20  5  1  0  0  0  0
 21  5  1  0  0  0  0
 24  7  1  0  0  0  0
 25  7  1  0  0  0  0
 27  8  1  0  0  0  0
M  END
>  <HBA>
4

>  <HBD>
2

>  <TPSA>
64.71

>  <cid>
66985

>  <dipole>
1.75

>  <excitation_energy_1>
5.601

>  <excitation_energy_2>
6.275

>  <excitation_energy_3>
6.455

>  <excitation_energy_4>
6.614

>  <homo_energy>
-6.286

>  <homo_lumo_gap>
8.338

>  <logP>
0.061

>  <lumo_energy>
2.052

>  <melting_point>
27.74

>  <molecular_refractivity>
41.8

>  <oscillator_strength_1>
0.0126

>  <oscillator_strength_2>
0.004

>  <oscillator_strength_3>
0.0127

>  <oscillator_strength_4>
0.0225

>  <open_babel_can_smiles>
NCCCOCCOCCO

>  <mulliken_charges>
28
1   -0.26684
2   -0.13317
3   -0.034746
4   -0.012505
5   -0.032053
6   -0.019754
7   -0.023118
8   -0.71582
9   -0.621474
10   -0.482244
11   -0.499425
12   0.125373
13   0.161714
14   0.10543
15   0.159605
16   0.130352
17   0.145396
18   0.116563
19   0.123102
20   0.133862
21   0.123679
22   0.131368
23   0.127108
24   0.13678
25   0.136794
26   0.289382
27   0.295818
28   0.398823

>  <lowdin_charges>
28
1   -0.284904
2   -0.205875
3   -0.139777
4   -0.127557
5   -0.147392
6   -0.133458
7   -0.132377
8   -0.560163
9   -0.470302
10   -0.27433
11   -0.283305
12   0.142908
13   0.15767
14   0.113403
15   0.151673
16   0.132948
17   0.151306
18   0.124001
19   0.130433
20   0.135495
21   0.131918
22   0.133496
23   0.130613
24   0.136471
25   0.136538
26   0.25056
27   0.255446
28   0.34456

$$$$

