PCCDB-ID:  72598
public computational chemistry database (PCCDB) project, http://pccdb.org

 22 22  0  0  0  0  0  0  0  0999 V2000
    0.6193    1.1493   -0.3018 C   0  0  0  0  0  0  0  0  0  0  0  0
    1.4786   -0.0931    0.0035 C   0  0  0  0  0  0  0  0  0  0  0  0
   -1.4100   -0.1598   -0.0139 C   0  0  0  0  0  0  0  0  0  0  0  0
   -0.5584   -1.3880    0.3088 C   0  0  0  0  0  0  0  0  0  0  0  0
   -1.1944    1.9658    1.2336 C   0  0  0  0  0  0  0  0  0  0  0  0
    1.0747   -2.1666   -1.3688 C   0  0  0  0  0  0  0  0  0  0  0  0
   -0.6846    1.0639    0.3583 N   0  0  0  0  0  0  0  0  0  0  0  0
    0.7550   -1.3172   -0.3533 N   0  0  0  0  0  0  0  0  0  0  0  0
   -2.6688    1.8368    2.0055 S   0  0  0  0  0  0  0  0  0  0  0  0
   -0.1268    3.3948    1.5270 S   0  0  0  0  0  0  0  0  0  0  0  0
    0.0131   -3.1801   -2.1568 S   0  0  0  0  0  0  0  0  0  0  0  0
    2.7719   -2.2400   -1.9472 S   0  0  0  0  0  0  0  0  0  0  0  0
    0.4617    1.2234   -1.3859 H   0  0  0  0  0  0  0  0  0  0  0  0
    1.1636    2.0373    0.0199 H   0  0  0  0  0  0  0  0  0  0  0  0
    1.7281   -0.1165    1.0721 H   0  0  0  0  0  0  0  0  0  0  0  0
    2.4000   -0.0151   -0.5703 H   0  0  0  0  0  0  0  0  0  0  0  0
   -2.3497   -0.1869    0.5357 H   0  0  0  0  0  0  0  0  0  0  0  0
   -1.6255   -0.1267   -1.0893 H   0  0  0  0  0  0  0  0  0  0  0  0
   -1.0657   -2.2945   -0.0187 H   0  0  0  0  0  0  0  0  0  0  0  0
   -0.3820   -1.4391    1.3909 H   0  0  0  0  0  0  0  0  0  0  0  0
   -0.9855    3.9497    2.3997 H   0  0  0  0  0  0  0  0  0  0  0  0
    3.4254   -1.7756   -0.8541 H   0  0  0  0  0  0  0  0  0  0  0  0
  1  2  1  0  0  0  0
  1 14  1  0  0  0  0
  1  7  1  0  0  0  0
  2 15  1  0  0  0  0
  3  4  1  0  0  0  0
  3  7  1  0  0  0  0
  3 17  1  0  0  0  0
  4 20  1  0  0  0  0
  5 10  1  0  0  0  0
  5  9  2  0  0  0  0
  6  8  1  0  0  0  0
  7  5  1  0  0  0  0
  8  2  1  0  0  0  0
  8  4  1  0  0  0  0
 10 21  1  0  0  0  0
 11  6  2  0  0  0  0
 12  6  1  0  0  0  0
 12 22  1  0  0  0  0
 13  1  1  0  0  0  0
 16  2  1  0  0  0  0
 18  3  1  0  0  0  0
 19  4  1  0  0  0  0
M  END
>  <HBA>
6

>  <HBD>
2

>  <TPSA>
148.26

>  <cid>
72598

>  <dipole>
4.56

>  <excitation_energy_1>
3.29

>  <excitation_energy_2>
3.513

>  <excitation_energy_3>
4.089

>  <excitation_energy_4>
4.298

>  <homo_energy>
-6.082

>  <homo_lumo_gap>
4.569

>  <logP>
0.909

>  <lumo_energy>
-1.513

>  <melting_point>
102.53

>  <molecular_refractivity>
73.9

>  <oscillator_strength_1>
0.0017

>  <oscillator_strength_2>
0.0002

>  <oscillator_strength_3>
0.0043

>  <oscillator_strength_4>
0.0179

>  <open_babel_can_smiles>
SC(=S)N1CCN(CC1)C(=S)S

>  <mulliken_charges>
22
1   -0.169982
2   -0.159649
3   -0.160908
4   -0.163911
5   -0.020748
6   -0.041428
7   -0.342757
8   -0.334675
9   -0.223212
10   -0.014139
11   -0.187203
12   0.058712
13   0.186683
14   0.201261
15   0.179441
16   0.170941
17   0.219435
18   0.184979
19   0.216017
20   0.174525
21   0.146216
22   0.080402

>  <lowdin_charges>
22
1   -0.202552
2   -0.205374
3   -0.202311
4   -0.202129
5   -0.150463
6   -0.158758
7   -0.073251
8   -0.083461
9   -0.20844
10   -0.02401
11   -0.176014
12   0.033812
13   0.163479
14   0.183204
15   0.159915
16   0.171633
17   0.194858
18   0.163898
19   0.193489
20   0.158712
21   0.158055
22   0.105707

$$$$

