PCCDB-ID:  13293
public computational chemistry database (PCCDB) project, http://pccdb.org

 33 34  0  0  0  0  0  0  0  0999 V2000
    4.5770   -1.5031   -0.2279 C   0  0  0  0  0  0  0  0  0  0  0  0
    0.2560   -7.9490   -8.6343 C   0  0  0  0  0  0  0  0  0  0  0  0
    0.2068   -6.5558   -8.7463 C   0  0  0  0  0  0  0  0  0  0  0  0
    0.5770   -8.5244   -7.4045 C   0  0  0  0  0  0  0  0  0  0  0  0
    0.4749   -5.7483   -7.6458 C   0  0  0  0  0  0  0  0  0  0  0  0
    0.8452   -7.7147   -6.3027 C   0  0  0  0  0  0  0  0  0  0  0  0
    1.0942   -5.5172   -5.1981 C   0  0  0  0  0  0  0  0  0  0  0  0
    1.1080   -4.1717   -5.0947 C   0  0  0  0  0  0  0  0  0  0  0  0
    1.7325   -3.9280   -2.6499 C   0  0  0  0  0  0  0  0  0  0  0  0
    1.3507   -1.9702   -3.9900 C   0  0  0  0  0  0  0  0  0  0  0  0
    2.0087   -3.1214   -1.5531 C   0  0  0  0  0  0  0  0  0  0  0  0
    1.6124   -1.1559   -2.8955 C   0  0  0  0  0  0  0  0  0  0  0  0
    3.2623   -0.8203    0.0817 C   0  0  0  0  0  0  0  0  0  0  0  0
    0.8014   -6.3104   -6.3950 C   0  0  0  0  0  0  0  0  0  0  0  0
    1.4026   -3.3756   -3.9028 C   0  0  0  0  0  0  0  0  0  0  0  0
    1.9669   -1.7175   -1.6580 C   0  0  0  0  0  0  0  0  0  0  0  0
    2.1670   -0.8791   -0.5552 N   0  0  0  0  0  0  0  0  0  0  0  0
    3.2790   -0.0108    1.1793 O   0  0  0  0  0  0  0  0  0  0  0  0
    4.5179   -2.0727   -1.1559 H   0  0  0  0  0  0  0  0  0  0  0  0
    4.8608   -2.1857    0.5828 H   0  0  0  0  0  0  0  0  0  0  0  0
    5.3727   -0.7535   -0.3261 H   0  0  0  0  0  0  0  0  0  0  0  0
    0.0456   -8.5758   -9.4965 H   0  0  0  0  0  0  0  0  0  0  0  0
   -0.0427   -6.0964   -9.6994 H   0  0  0  0  0  0  0  0  0  0  0  0
    0.6189   -9.6057   -7.3015 H   0  0  0  0  0  0  0  0  0  0  0  0
    0.4290   -4.6692   -7.7593 H   0  0  0  0  0  0  0  0  0  0  0  0
    1.0936   -8.1718   -5.3473 H   0  0  0  0  0  0  0  0  0  0  0  0
    1.3210   -6.1122   -4.3142 H   0  0  0  0  0  0  0  0  0  0  0  0
    0.8786   -3.5784   -5.9790 H   0  0  0  0  0  0  0  0  0  0  0  0
    1.7736   -5.0064   -2.5265 H   0  0  0  0  0  0  0  0  0  0  0  0
    1.0897   -1.5113   -4.9412 H   0  0  0  0  0  0  0  0  0  0  0  0
    2.2358   -3.5722   -0.5906 H   0  0  0  0  0  0  0  0  0  0  0  0
    1.5496   -0.0752   -2.9806 H   0  0  0  0  0  0  0  0  0  0  0  0
    4.1667   -0.0187    1.5689 H   0  0  0  0  0  0  0  0  0  0  0  0
  1 13  1  0  0  0  0
  1 20  1  0  0  0  0
  2  4  1  0  0  0  0
  3  2  2  0  0  0  0
  3  5  1  0  0  0  0
  4 24  1  0  0  0  0
  4  6  2  0  0  0  0
  5 14  2  0  0  0  0
  6 26  1  0  0  0  0
  7  8  2  0  0  0  0
  7 27  1  0  0  0  0
  8 15  1  0  0  0  0
  9 29  1  0  0  0  0
  9 11  2  0  0  0  0
 10 15  2  0  0  0  0
 10 12  1  0  0  0  0
 11 31  1  0  0  0  0
 12 16  2  0  0  0  0
 13 18  1  0  0  0  0
 14  6  1  0  0  0  0
 14  7  1  0  0  0  0
 15  9  1  0  0  0  0
 16 11  1  0  0  0  0
 16 17  1  0  0  0  0
 17 13  2  0  0  0  0
 18 33  1  0  0  0  0
 19  1  1  0  0  0  0
 21  1  1  0  0  0  0
 22  2  1  0  0  0  0
 23  3  1  0  0  0  0
 25  5  1  0  0  0  0
 28  8  1  0  0  0  0
 30 10  1  0  0  0  0
 32 12  1  0  0  0  0
M  END
>  <HBA>
2

>  <HBD>
1

>  <TPSA>
29.1

>  <cid>
13293

>  <dipole>
3.93

>  <excitation_energy_1>
3.586

>  <excitation_energy_2>
4.307

>  <excitation_energy_3>
4.392

>  <excitation_energy_4>
4.482

>  <homo_energy>
-5.148

>  <homo_lumo_gap>
3.91

>  <logP>
3.888

>  <lumo_energy>
-1.238

>  <melting_point>
124.08

>  <molecular_refractivity>
76.12

>  <oscillator_strength_1>
1.0935

>  <oscillator_strength_2>
0.0556

>  <oscillator_strength_3>
0.0166

>  <oscillator_strength_4>
0.0018

>  <open_babel_can_smiles>
C/C(=N\c1ccc(cc1)/C=C/c1ccccc1)/O

>  <mulliken_charges>
33
1   -0.555471
2   -0.13055
3   -0.13083
4   -0.129606
5   -0.181368
6   -0.198887
7   -0.193502
8   -0.188319
9   -0.1928
10   -0.209219
11   -0.157893
12   -0.152054
13   0.482804
14   0.183371
15   0.185689
16   0.239953
17   -0.464156
18   -0.568068
19   0.199917
20   0.176846
21   0.172201
22   0.127931
23   0.12859
24   0.128358
25   0.128406
26   0.124888
27   0.123015
28   0.12528
29   0.129344
30   0.127659
31   0.125398
32   0.13422
33   0.408853

>  <lowdin_charges>
33
1   -0.484441
2   -0.16156
3   -0.153985
4   -0.153259
5   -0.155884
6   -0.162713
7   -0.165181
8   -0.155168
9   -0.149575
10   -0.154526
11   -0.185247
12   -0.170886
13   0.147885
14   0.001191
15   -0.015031
16   0.047202
17   -0.166988
18   -0.35798
19   0.185058
20   0.171478
21   0.169202
22   0.158044
23   0.157065
24   0.155215
25   0.154232
26   0.154565
27   0.151982
28   0.153075
29   0.155073
30   0.15627
31   0.15694
32   0.16195
33   0.355995

$$$$

