PCCDB-ID:  6630
public computational chemistry database (PCCDB) project, http://pccdb.org

 19 19  0  0  0  0  0  0  0  0999 V2000
    4.0714   -0.5152   -0.1375 C   0  0  0  0  0  0  0  0  0  0  0  0
    1.8290    5.5462   -0.6533 C   0  0  0  0  0  0  0  0  0  0  0  0
    2.8305    5.2902    0.2867 C   0  0  0  0  0  0  0  0  0  0  0  0
    1.0268    4.5082   -1.1337 C   0  0  0  0  0  0  0  0  0  0  0  0
    3.0396    3.9915    0.7495 C   0  0  0  0  0  0  0  0  0  0  0  0
    1.2240    3.2044   -0.6800 C   0  0  0  0  0  0  0  0  0  0  0  0
    2.2344    2.9657    0.2524 C   0  0  0  0  0  0  0  0  0  0  0  0
    1.2694    0.5159    0.6627 O   0  0  0  0  0  0  0  0  0  0  0  0
    3.1543    1.3326    2.1459 O   0  0  0  0  0  0  0  0  0  0  0  0
    3.5860    0.8384   -0.2947 O   0  0  0  0  0  0  0  0  0  0  0  0
    2.4901    1.3024    0.8425 S   0  0  0  0  0  0  0  0  0  0  0  0
    4.7755   -0.6607   -0.9573 H   0  0  0  0  0  0  0  0  0  0  0  0
    3.2454   -1.2275   -0.2181 H   0  0  0  0  0  0  0  0  0  0  0  0
    4.5810   -0.6274    0.8236 H   0  0  0  0  0  0  0  0  0  0  0  0
    1.6688    6.5605   -1.0083 H   0  0  0  0  0  0  0  0  0  0  0  0
    3.4458    6.1019    0.6636 H   0  0  0  0  0  0  0  0  0  0  0  0
    0.2443    4.7134   -1.8585 H   0  0  0  0  0  0  0  0  0  0  0  0
    3.8025    3.7710    1.4883 H   0  0  0  0  0  0  0  0  0  0  0  0
    0.6043    2.3851   -1.0280 H   0  0  0  0  0  0  0  0  0  0  0  0
  1 14  1  0  0  0  0
  2  3  2  0  0  0  0
  3 16  1  0  0  0  0
  3  5  1  0  0  0  0
  4  6  2  0  0  0  0
  4  2  1  0  0  0  0
  5 18  1  0  0  0  0
  6  7  1  0  0  0  0
  7  5  2  0  0  0  0
  7 11  1  0  0  0  0
  8 11  1  0  0  0  0
 10  1  1  0  0  0  0
 10 11  1  0  0  0  0
 11  9  1  0  0  0  0
 12  1  1  0  0  0  0
 13  1  1  0  0  0  0
 15  2  1  0  0  0  0
 17  4  1  0  0  0  0
 19  6  1  0  0  0  0
M  RAD  2   8   2   9   2
M  END
>  <HBA>
3

>  <HBD>
0

>  <TPSA>
51.75

>  <cid>
6630

>  <dipole>
3.61

>  <excitation_energy_1>
5.242

>  <excitation_energy_2>
5.754

>  <excitation_energy_3>
5.824

>  <excitation_energy_4>
6.414

>  <homo_energy>
-7.448

>  <homo_lumo_gap>
6.248

>  <logP>
2.103

>  <lumo_energy>
-1.2

>  <melting_point>
30.19

>  <molecular_refractivity>
40.62

>  <oscillator_strength_1>
0.0137

>  <oscillator_strength_2>
0.0031

>  <oscillator_strength_3>
0.1064

>  <oscillator_strength_4>
0.016

>  <open_babel_can_smiles>
COS(c1ccccc1)([O])[O]

>  <mulliken_charges>
19
1   -0.236966
2   -0.11666
3   -0.128061
4   -0.128069
5   -0.130258
6   -0.130177
7   -0.158269
8   -0.519134
9   -0.519978
10   -0.522318
11   1.232296
12   0.180358
13   0.18407
14   0.184395
15   0.14653
16   0.148557
17   0.14856
18   0.182496
19   0.182627

>  <lowdin_charges>
19
1   -0.282287
2   -0.133519
3   -0.150024
4   -0.148181
5   -0.129167
6   -0.130544
7   -0.176796
8   -0.575474
9   -0.574547
10   -0.41547
11   1.341739
12   0.170882
13   0.165455
14   0.164627
15   0.165082
16   0.168396
17   0.167733
18   0.185739
19   0.186355

$$$$

