PCCDB-ID:  39742
public computational chemistry database (PCCDB) project, http://pccdb.org

 41 40  0  0  0  0  0  0  0  0999 V2000
    1.3406   -2.5332   -0.4896 C   0  0  0  0  0  0  0  0  0  0  0  0
    8.8031   -0.8977   -9.0041 C   0  0  0  0  0  0  0  0  0  0  0  0
    1.1790   -3.2508   -1.8359 C   0  0  0  0  0  0  0  0  0  0  0  0
    9.4835   -0.4390   -7.7087 C   0  0  0  0  0  0  0  0  0  0  0  0
    2.2585   -4.2907   -2.1951 C   0  0  0  0  0  0  0  0  0  0  0  0
    8.8062    0.7592   -7.0244 C   0  0  0  0  0  0  0  0  0  0  0  0
    3.6344   -3.7586   -2.6453 C   0  0  0  0  0  0  0  0  0  0  0  0
    4.5762   -3.2765   -1.5292 C   0  0  0  0  0  0  0  0  0  0  0  0
    6.0121   -2.9877   -2.0002 C   0  0  0  0  0  0  0  0  0  0  0  0
    6.1369   -1.7862   -2.9471 C   0  0  0  0  0  0  0  0  0  0  0  0
    7.6019   -1.4924   -3.3314 C   0  0  0  0  0  0  0  0  0  0  0  0
    7.4079    0.4841   -6.4754 C   0  0  0  0  0  0  0  0  0  0  0  0
    7.7077   -0.2800   -4.2329 C   0  0  0  0  0  0  0  0  0  0  0  0
    7.9805    0.8425   -3.8630 O   0  0  0  0  0  0  0  0  0  0  0  0
    7.4058   -0.6011   -5.5154 O   0  0  0  0  0  0  0  0  0  0  0  0
    0.4607   -1.9161   -0.2722 H   0  0  0  0  0  0  0  0  0  0  0  0
    2.2133   -1.8733   -0.4693 H   0  0  0  0  0  0  0  0  0  0  0  0
    1.4502   -3.2535    0.3308 H   0  0  0  0  0  0  0  0  0  0  0  0
    9.3589   -1.7201   -9.4686 H   0  0  0  0  0  0  0  0  0  0  0  0
    8.7478   -0.0806   -9.7346 H   0  0  0  0  0  0  0  0  0  0  0  0
    7.7823   -1.2556   -8.8268 H   0  0  0  0  0  0  0  0  0  0  0  0
    1.1169   -2.5064   -2.6431 H   0  0  0  0  0  0  0  0  0  0  0  0
    0.2091   -3.7669   -1.8310 H   0  0  0  0  0  0  0  0  0  0  0  0
   10.5238   -0.1659   -7.9282 H   0  0  0  0  0  0  0  0  0  0  0  0
    9.5293   -1.2769   -7.0018 H   0  0  0  0  0  0  0  0  0  0  0  0
    1.8601   -4.9001   -3.0179 H   0  0  0  0  0  0  0  0  0  0  0  0
    2.3939   -4.9825   -1.3499 H   0  0  0  0  0  0  0  0  0  0  0  0
    8.7184    1.5921   -7.7375 H   0  0  0  0  0  0  0  0  0  0  0  0
    9.4308    1.1196   -6.1992 H   0  0  0  0  0  0  0  0  0  0  0  0
    3.4803   -2.9591   -3.3838 H   0  0  0  0  0  0  0  0  0  0  0  0
    4.1472   -4.5689   -3.1845 H   0  0  0  0  0  0  0  0  0  0  0  0
    4.6150   -4.0470   -0.7462 H   0  0  0  0  0  0  0  0  0  0  0  0
    4.1753   -2.3754   -1.0490 H   0  0  0  0  0  0  0  0  0  0  0  0
    6.4210   -3.8823   -2.4934 H   0  0  0  0  0  0  0  0  0  0  0  0
    6.6438   -2.8080   -1.1189 H   0  0  0  0  0  0  0  0  0  0  0  0
    5.7111   -0.8955   -2.4647 H   0  0  0  0  0  0  0  0  0  0  0  0
    5.5588   -1.9576   -3.8627 H   0  0  0  0  0  0  0  0  0  0  0  0
    8.0310   -2.3628   -3.8407 H   0  0  0  0  0  0  0  0  0  0  0  0
    8.1931   -1.2855   -2.4343 H   0  0  0  0  0  0  0  0  0  0  0  0
    6.7215    0.1509   -7.2579 H   0  0  0  0  0  0  0  0  0  0  0  0
    7.0025    1.3780   -5.9949 H   0  0  0  0  0  0  0  0  0  0  0  0
  1 17  1  0  0  0  0
  1 16  1  0  0  0  0
  1 18  1  0  0  0  0
  2 21  1  0  0  0  0
  2  4  1  0  0  0  0
  3 23  1  0  0  0  0
  3  1  1  0  0  0  0
  4  6  1  0  0  0  0
  4 25  1  0  0  0  0
  5  3  1  0  0  0  0
  5 27  1  0  0  0  0
  6 12  1  0  0  0  0
  6 29  1  0  0  0  0
  7  5  1  0  0  0  0
  7  8  1  0  0  0  0
  8 33  1  0  0  0  0
  8 32  1  0  0  0  0
  9  8  1  0  0  0  0
  9 35  1  0  0  0  0
 10 36  1  0  0  0  0
 10  9  1  0  0  0  0
 11 10  1  0  0  0  0
 11 39  1  0  0  0  0
 12 41  1  0  0  0  0
 12 15  1  0  0  0  0
 13 14  2  0  0  0  0
 13 11  1  0  0  0  0
 15 13  1  0  0  0  0
 19  2  1  0  0  0  0
 20  2  1  0  0  0  0
 22  3  1  0  0  0  0
 24  4  1  0  0  0  0
 26  5  1  0  0  0  0
 28  6  1  0  0  0  0
 30  7  1  0  0  0  0
 31  7  1  0  0  0  0
 34  9  1  0  0  0  0
 37 10  1  0  0  0  0
 38 11  1  0  0  0  0
 40 12  1  0  0  0  0
M  END
>  <HBA>
2

>  <HBD>
0

>  <TPSA>
26.3

>  <cid>
39742

>  <dipole>
1.88

>  <excitation_energy_1>
5.703

>  <excitation_energy_2>
6.883

>  <excitation_energy_3>
7.18

>  <excitation_energy_4>
7.202

>  <homo_energy>
-7.129

>  <homo_lumo_gap>
7.557

>  <logP>
4.08

>  <lumo_energy>
0.427

>  <melting_point>
-18.77

>  <molecular_refractivity>
65.89

>  <oscillator_strength_1>
0.0032

>  <oscillator_strength_2>
0.0128

>  <oscillator_strength_3>
0.0053

>  <oscillator_strength_4>
0.0023

>  <open_babel_can_smiles>
CCCCCCCCC(=O)OCCCC

>  <mulliken_charges>
41
1   -0.443173
2   -0.447814
3   -0.24715
4   -0.249186
5   -0.255342
6   -0.280051
7   -0.254475
8   -0.258052
9   -0.257098
10   -0.270742
11   -0.329316
12   -0.052021
13   0.601147
14   -0.477984
15   -0.459492
16   0.140972
17   0.149044
18   0.140456
19   0.145694
20   0.140607
21   0.146532
22   0.12935
23   0.131395
24   0.135334
25   0.143867
26   0.128625
27   0.125997
28   0.134264
29   0.163127
30   0.13172
31   0.126816
32   0.129014
33   0.137804
34   0.129559
35   0.131903
36   0.146773
37   0.154469
38   0.157431
39   0.163346
40   0.149726
41   0.166926

>  <lowdin_charges>
41
1   -0.449539
2   -0.448748
3   -0.273744
4   -0.275462
5   -0.278537
6   -0.289977
7   -0.280145
8   -0.279245
9   -0.276079
10   -0.271894
11   -0.295315
12   -0.136508
13   0.198732
14   -0.271011
15   -0.201991
16   0.149396
17   0.147363
18   0.146513
19   0.152858
20   0.14606
21   0.146234
22   0.139069
23   0.141506
24   0.14329
25   0.146001
26   0.144329
27   0.13793
28   0.148382
29   0.159639
30   0.139801
31   0.140966
32   0.142107
33   0.142106
34   0.138939
35   0.142803
36   0.147678
37   0.149613
38   0.161724
39   0.163999
40   0.151304
41   0.159853

$$$$

