PCCDB-ID:  69856
public computational chemistry database (PCCDB) project, http://pccdb.org

 19 19  0  0  0  0  0  0  0  0999 V2000
    0.8612    0.0021    0.0782 C   0  0  0  0  0  0  0  0  0  0  0  0
    5.3479    2.3693    0.0689 C   0  0  0  0  0  0  0  0  0  0  0  0
    3.1116    1.1715    0.0754 C   0  0  0  0  0  0  0  0  0  0  0  0
    2.4392   -2.4901    0.0761 C   0  0  0  0  0  0  0  0  0  0  0  0
    2.3667   -0.0060    0.0765 C   0  0  0  0  0  0  0  0  0  0  0  0
    4.5118    1.1169    0.0720 C   0  0  0  0  0  0  0  0  0  0  0  0
    3.0834   -1.2187    0.0755 C   0  0  0  0  0  0  0  0  0  0  0  0
    4.5025   -1.1719    0.0739 C   0  0  0  0  0  0  0  0  0  0  0  0
    1.9835   -3.5634    0.0767 N   0  0  0  0  0  0  0  0  0  0  0  0
    5.1907   -0.0409    0.0714 N   0  0  0  0  0  0  0  0  0  0  0  0
    5.2492   -2.2943    0.0746 O   0  0  0  0  0  0  0  0  0  0  0  0
    0.4738    1.0242    0.0832 H   0  0  0  0  0  0  0  0  0  0  0  0
    0.4651   -0.5214    0.9562 H   0  0  0  0  0  0  0  0  0  0  0  0
    0.4636   -0.5129   -0.8043 H   0  0  0  0  0  0  0  0  0  0  0  0
    4.7307    3.2718    0.0726 H   0  0  0  0  0  0  0  0  0  0  0  0
    5.9959    2.3875   -0.8145 H   0  0  0  0  0  0  0  0  0  0  0  0
    6.0049    2.3860    0.9457 H   0  0  0  0  0  0  0  0  0  0  0  0
    2.6060    2.1319    0.0772 H   0  0  0  0  0  0  0  0  0  0  0  0
    4.6690   -3.0762    0.0786 H   0  0  0  0  0  0  0  0  0  0  0  0
  1 12  1  0  0  0  0
  1 13  1  0  0  0  0
  2  6  1  0  0  0  0
  2 15  1  0  0  0  0
  2 17  1  0  0  0  0
  3  5  1  0  0  0  0
  3 18  1  0  0  0  0
  4  9  3  0  0  0  0
  5  1  1  0  0  0  0
  6  3  2  0  0  0  0
  7  4  1  0  0  0  0
  7  5  2  0  0  0  0
  8 11  1  0  0  0  0
  8  7  1  0  0  0  0
 10  6  1  0  0  0  0
 10  8  2  0  0  0  0
 11 19  1  0  0  0  0
 14  1  1  0  0  0  0
 16  2  1  0  0  0  0
M  END
>  <HBA>
2

>  <HBD>
1

>  <TPSA>
56.65

>  <cid>
69856

>  <dipole>
3.86

>  <excitation_energy_1>
4.604

>  <excitation_energy_2>
4.694

>  <excitation_energy_3>
5.467

>  <excitation_energy_4>
5.648

>  <homo_energy>
-6.795

>  <homo_lumo_gap>
5.151

>  <logP>
0.863

>  <lumo_energy>
-1.644

>  <melting_point>
133.45

>  <molecular_refractivity>
41.71

>  <oscillator_strength_1>
0.1643

>  <oscillator_strength_2>
0.0013

>  <oscillator_strength_3>
0.0826

>  <oscillator_strength_4>
0.0019

>  <open_babel_can_smiles>
N#Cc1c(C)cc(nc1O)C

>  <mulliken_charges>
19
1   -0.537128
2   -0.507808
3   -0.2544
4   0.18877
5   0.210001
6   0.326708
7   0.049172
8   0.484311
9   -0.488601
10   -0.502858
11   -0.592288
12   0.168045
13   0.186894
14   0.186957
15   0.154351
16   0.18231
17   0.182338
18   0.135419
19   0.427807

>  <lowdin_charges>
19
1   -0.441707
2   -0.443804
3   -0.217608
4   -0.028664
5   0.05704
6   0.088935
7   -0.109261
8   0.157181
9   -0.125904
10   -0.16491
11   -0.335037
12   0.16483
13   0.177077
14   0.1771
15   0.157287
16   0.175989
17   0.176026
18   0.165239
19   0.370191

$$$$

