PCCDB-ID:  1232
public computational chemistry database (PCCDB) project, http://pccdb.org

 16 16  0  0  1  0  0  0  0  0999 V2000
   -0.7543   -1.1115   -0.0319 C   0  0  0  0  0  0  0  0  0  0  0  0
    0.7880   -1.2052    0.0371 C   0  0  0  0  0  0  0  0  0  0  0  0
   -1.1046    0.3624    0.3491 C   0  0  2  0  0  0  0  0  0  0  0  0
    0.2194    1.1044    0.1108 C   0  0  0  0  0  0  0  0  0  0  0  0
   -1.5559    0.6244    1.7146 N   0  0  0  0  0  0  0  0  0  0  0  0
    1.1410    0.1690   -0.2495 N   0  0  0  0  0  0  0  0  0  0  0  0
    0.4995    2.2914    0.2354 O   0  0  0  0  0  0  0  0  0  0  0  0
    2.4859    0.5410   -0.2176 O   0  0  0  0  0  0  0  0  0  0  0  0
   -1.2362   -1.8278    0.6397 H   0  0  0  0  0  0  0  0  0  0  0  0
   -1.0872   -1.3284   -1.0519 H   0  0  0  0  0  0  0  0  0  0  0  0
    1.2129   -1.8805   -0.7111 H   0  0  0  0  0  0  0  0  0  0  0  0
    1.1638   -1.5073    1.0258 H   0  0  0  0  0  0  0  0  0  0  0  0
   -1.8700    0.7650   -0.3224 H   0  0  0  0  0  0  0  0  0  0  0  0
   -0.8769    0.2856    2.3948 H   0  0  0  0  0  0  0  0  0  0  0  0
   -2.4259    0.1253    1.8905 H   0  0  0  0  0  0  0  0  0  0  0  0
    2.4026    1.5061   -0.0321 H   0  0  0  0  0  0  0  0  0  0  0  0
  1  2  1  0  0  0  0
  1  3  1  0  0  0  0
  1  9  1  0  0  0  0
  2 12  1  0  0  0  0
  3 13  1  6  0  0  0
  3  5  1  0  0  0  0
  4  7  2  0  0  0  0
  4  3  1  0  0  0  0
  5 15  1  0  0  0  0
  5 14  1  0  0  0  0
  6  8  1  0  0  0  0
  6  2  1  0  0  0  0
  6  4  1  0  0  0  0
  8 16  1  0  0  0  0
 10  1  1  0  0  0  0
 11  2  1  0  0  0  0
M  END
>  <HBA>
4

>  <HBD>
2

>  <TPSA>
66.56

>  <cid>
1232

>  <dipole>
4.45

>  <excitation_energy_1>
5.24

>  <excitation_energy_2>
5.454

>  <excitation_energy_3>
5.679

>  <excitation_energy_4>
5.933

>  <homo_energy>
-6.191

>  <homo_lumo_gap>
6.354

>  <logP>
-0.427

>  <lumo_energy>
0.163

>  <melting_point>
129.53

>  <molecular_refractivity>
29.68

>  <oscillator_strength_1>
0.0344

>  <oscillator_strength_2>
0.0184

>  <oscillator_strength_3>
0.0099

>  <oscillator_strength_4>
0.004

>  <open_babel_can_smiles>
O=C1[C@H](N)CCN1O

>  <mulliken_charges>
16
1   -0.310156
2   -0.124287
3   -0.081365
4   0.586143
5   -0.694126
6   -0.162762
7   -0.525757
8   -0.522835
9   0.149316
10   0.163054
11   0.171336
12   0.154247
13   0.171504
14   0.299568
15   0.3039
16   0.422222

>  <lowdin_charges>
16
1   -0.302724
2   -0.192885
3   -0.089701
4   0.122054
5   -0.532622
6   0.011576
7   -0.29824
8   -0.376424
9   0.155615
10   0.158754
11   0.161158
12   0.143053
13   0.165639
14   0.2579
15   0.259901
16   0.356945

$$$$

