PCCDB-ID:  69942
public computational chemistry database (PCCDB) project, http://pccdb.org

 36 35  0  0  0  0  0  0  0  0999 V2000
    2.4192    1.4185   -0.4815 C   0  0  0  0  0  0  0  0  0  0  0  0
    8.1198    3.8802   -2.0663 C   0  0  0  0  0  0  0  0  0  0  0  0
    7.0148    5.0929    2.1535 C   0  0  0  0  0  0  0  0  0  0  0  0
    5.0118    5.4469    3.6433 C   0  0  0  0  0  0  0  0  0  0  0  0
    6.9985    4.1548    4.5010 C   0  0  0  0  0  0  0  0  0  0  0  0
    3.6380    0.9673    0.3001 C   0  0  0  0  0  0  0  0  0  0  0  0
    7.1320    2.7951   -1.6822 C   0  0  0  0  0  0  0  0  0  0  0  0
    6.4121    2.0316    2.2499 C   0  0  0  0  0  0  0  0  0  0  0  0
    5.5038    3.1515    2.7653 C   0  0  0  0  0  0  0  0  0  0  0  0
    6.1325    4.4686    3.2562 C   0  0  0  0  0  0  0  0  0  0  0  0
    4.3036    2.9547    2.8237 O   0  0  0  0  0  0  0  0  0  0  0  0
    6.6869    0.1902    0.1903 O   0  0  0  0  0  0  0  0  0  0  0  0
    4.7121    1.9054    0.0222 O   0  0  0  0  0  0  0  0  0  0  0  0
    7.0203    2.7818   -0.2347 O   0  0  0  0  0  0  0  0  0  0  0  0
    6.2245    1.5720    0.4799 P   0  0  0  0  0  0  0  0  0  0  0  0
    1.5857    0.7307   -0.2997 H   0  0  0  0  0  0  0  0  0  0  0  0
    2.6291    1.4323   -1.5560 H   0  0  0  0  0  0  0  0  0  0  0  0
    2.1137    2.4226   -0.1715 H   0  0  0  0  0  0  0  0  0  0  0  0
    9.1066    3.6744   -1.6395 H   0  0  0  0  0  0  0  0  0  0  0  0
    7.7832    4.8583   -1.7083 H   0  0  0  0  0  0  0  0  0  0  0  0
    8.2166    3.9257   -3.1568 H   0  0  0  0  0  0  0  0  0  0  0  0
    7.4530    6.0261    2.5264 H   0  0  0  0  0  0  0  0  0  0  0  0
    6.4269    5.3274    1.2601 H   0  0  0  0  0  0  0  0  0  0  0  0
    7.8338    4.4355    1.8480 H   0  0  0  0  0  0  0  0  0  0  0  0
    5.4447    6.3861    4.0064 H   0  0  0  0  0  0  0  0  0  0  0  0
    4.3740    5.0317    4.4286 H   0  0  0  0  0  0  0  0  0  0  0  0
    4.3714    5.6713    2.7848 H   0  0  0  0  0  0  0  0  0  0  0  0
    7.4233    5.0857    4.8941 H   0  0  0  0  0  0  0  0  0  0  0  0
    7.8323    3.4837    4.2694 H   0  0  0  0  0  0  0  0  0  0  0  0
    6.4007    3.6965    5.2972 H   0  0  0  0  0  0  0  0  0  0  0  0
    3.9603   -0.0361    0.0042 H   0  0  0  0  0  0  0  0  0  0  0  0
    3.4440    0.9856    1.3768 H   0  0  0  0  0  0  0  0  0  0  0  0
    7.4700    1.8095   -2.0188 H   0  0  0  0  0  0  0  0  0  0  0  0
    6.1388    2.9881   -2.1017 H   0  0  0  0  0  0  0  0  0  0  0  0
    6.1501    1.1211    2.7997 H   0  0  0  0  0  0  0  0  0  0  0  0
    7.4771    2.2203    2.4071 H   0  0  0  0  0  0  0  0  0  0  0  0
  1 16  1  0  0  0  0
  1 18  1  0  0  0  0
  1  6  1  0  0  0  0
  2 20  1  0  0  0  0
  2  7  1  0  0  0  0
  2 19  1  0  0  0  0
  3 22  1  0  0  0  0
  3 10  1  0  0  0  0
  4 25  1  0  0  0  0
  4 26  1  0  0  0  0
  5 28  1  0  0  0  0
  5 30  1  0  0  0  0
  6 32  1  0  0  0  0
  7 14  1  0  0  0  0
  8 36  1  0  0  0  0
  8  9  1  0  0  0  0
  8 35  1  0  0  0  0
  9 11  2  0  0  0  0
  9 10  1  0  0  0  0
 10  4  1  0  0  0  0
 10  5  1  0  0  0  0
 12 15  2  0  0  0  0
 13  6  1  0  0  0  0
 13 15  1  0  0  0  0
 14 15  1  0  0  0  0
 15  8  1  0  0  0  0
 17  1  1  0  0  0  0
 21  2  1  0  0  0  0
 23  3  1  0  0  0  0
 24  3  1  0  0  0  0
 27  4  1  0  0  0  0
 29  5  1  0  0  0  0
 31  6  1  0  0  0  0
 33  7  1  0  0  0  0
 34  7  1  0  0  0  0
M  END
>  <HBA>
4

>  <HBD>
0

>  <TPSA>
62.41

>  <cid>
69942

>  <dipole>
2.51

>  <excitation_energy_1>
4.242

>  <excitation_energy_2>
6.005

>  <excitation_energy_3>
6.162

>  <excitation_energy_4>
6.224

>  <homo_energy>
-6.748

>  <homo_lumo_gap>
6.038

>  <logP>
2.868

>  <lumo_energy>
-0.71

>  <melting_point>
8.39

>  <molecular_refractivity>
60.96

>  <oscillator_strength_1>
0.0006

>  <oscillator_strength_2>
0.0073

>  <oscillator_strength_3>
0.0307

>  <oscillator_strength_4>
0.0099

>  <open_babel_can_smiles>
CCOP(=O)(CC(=O)C(C)(C)C)OCC

>  <mulliken_charges>
36
1   -0.457085
2   -0.456964
3   -0.453206
4   -0.43319
5   -0.457662
6   -0.042949
7   -0.035656
8   -0.59618
9   0.480283
10   -0.002899
11   -0.450407
12   -0.557031
13   -0.537381
14   -0.539222
15   1.137844
16   0.149245
17   0.157466
18   0.168005
19   0.164128
20   0.161869
21   0.152044
22   0.14641
23   0.160781
24   0.156926
25   0.134084
26   0.156275
27   0.154199
28   0.155826
29   0.146833
30   0.156396
31   0.167158
32   0.167621
33   0.172498
34   0.16198
35   0.21629
36   0.19567

>  <lowdin_charges>
36
1   -0.445272
2   -0.444524
3   -0.443122
4   -0.439577
5   -0.442217
6   -0.118152
7   -0.11417
8   -0.486657
9   0.168785
10   -0.013961
11   -0.231496
12   -0.596004
13   -0.407633
14   -0.403174
15   1.061712
16   0.158768
17   0.154775
18   0.161208
19   0.159508
20   0.15822
21   0.157631
22   0.153049
23   0.158219
24   0.156327
25   0.146852
26   0.159047
27   0.157788
28   0.157758
29   0.150655
30   0.156414
31   0.155564
32   0.152521
33   0.158978
34   0.151769
35   0.204264
36   0.186147

$$$$

