PCCDB-ID:  32053
public computational chemistry database (PCCDB) project, http://pccdb.org

 28 28  0  0  0  0  0  0  0  0999 V2000
    5.4055   -1.3260   -1.9974 C   0  0  0  0  0  0  0  0  0  0  0  0
    4.4271   -0.9767   -0.8790 C   0  0  0  0  0  0  0  0  0  0  0  0
    8.6489    1.5657    6.0152 C   0  0  0  0  0  0  0  0  0  0  0  0
    9.1844    1.5403    4.7238 C   0  0  0  0  0  0  0  0  0  0  0  0
    7.3041    1.2430    6.1887 C   0  0  0  0  0  0  0  0  0  0  0  0
    8.3906    1.2031    3.6338 C   0  0  0  0  0  0  0  0  0  0  0  0
    6.4983    0.8975    5.1023 C   0  0  0  0  0  0  0  0  0  0  0  0
    4.2628   -0.0697    1.4024 C   0  0  0  0  0  0  0  0  0  0  0  0
    4.9921   -0.1113    2.7505 C   0  0  0  0  0  0  0  0  0  0  0  0
    7.0290    0.8780    3.8003 C   0  0  0  0  0  0  0  0  0  0  0  0
    5.1402   -0.4861    0.3033 N   0  0  0  0  0  0  0  0  0  0  0  0
    6.2621    0.5948    2.6636 N   0  0  0  0  0  0  0  0  0  0  0  0
    4.8755   -1.7328   -2.8655 H   0  0  0  0  0  0  0  0  0  0  0  0
    6.1343   -2.0670   -1.6530 H   0  0  0  0  0  0  0  0  0  0  0  0
    5.9576   -0.4386   -2.3331 H   0  0  0  0  0  0  0  0  0  0  0  0
    3.8707   -1.8750   -0.5819 H   0  0  0  0  0  0  0  0  0  0  0  0
    3.6770   -0.2543   -1.2544 H   0  0  0  0  0  0  0  0  0  0  0  0
    9.2695    1.8295    6.8666 H   0  0  0  0  0  0  0  0  0  0  0  0
   10.2316    1.7846    4.5625 H   0  0  0  0  0  0  0  0  0  0  0  0
    6.8681    1.2499    7.1849 H   0  0  0  0  0  0  0  0  0  0  0  0
    8.8166    1.1952    2.6322 H   0  0  0  0  0  0  0  0  0  0  0  0
    5.4589    0.6409    5.2760 H   0  0  0  0  0  0  0  0  0  0  0  0
    3.8368    0.9354    1.2419 H   0  0  0  0  0  0  0  0  0  0  0  0
    3.4208   -0.7703    1.4526 H   0  0  0  0  0  0  0  0  0  0  0  0
    5.1267   -1.1599    3.0664 H   0  0  0  0  0  0  0  0  0  0  0  0
    4.3579    0.3777    3.4966 H   0  0  0  0  0  0  0  0  0  0  0  0
    5.6953    0.3204    0.0191 H   0  0  0  0  0  0  0  0  0  0  0  0
    6.8264    0.2103    1.9129 H   0  0  0  0  0  0  0  0  0  0  0  0
  1 14  1  0  0  0  0
  1  2  1  0  0  0  0
  2 16  1  0  0  0  0
  2 11  1  0  0  0  0
  3  5  1  0  0  0  0
  3 18  1  0  0  0  0
  4  3  2  0  0  0  0
  5 20  1  0  0  0  0
  6 10  2  0  0  0  0
  6  4  1  0  0  0  0
  7 22  1  0  0  0  0
  7  5  2  0  0  0  0
  8 24  1  0  0  0  0
  8  9  1  0  0  0  0
  9 25  1  0  0  0  0
  9 26  1  0  0  0  0
 10  7  1  0  0  0  0
 11  8  1  0  0  0  0
 12  9  1  0  0  0  0
 12 10  1  0  0  0  0
 13  1  1  0  0  0  0
 15  1  1  0  0  0  0
 17  2  1  0  0  0  0
 19  4  1  0  0  0  0
 21  6  1  0  0  0  0
 23  8  1  0  0  0  0
 27 11  1  0  0  0  0
 28 12  1  0  0  0  0
M  END
>  <HBA>
2

>  <HBD>
2

>  <TPSA>
24.06

>  <cid>
32053

>  <dipole>
2.18

>  <excitation_energy_1>
4.574

>  <excitation_energy_2>
4.807

>  <excitation_energy_3>
4.987

>  <excitation_energy_4>
5.144

>  <homo_energy>
-5.157

>  <homo_lumo_gap>
5.491

>  <logP>
2.172

>  <lumo_energy>
0.335

>  <melting_point>
63.06

>  <molecular_refractivity>
52.97

>  <oscillator_strength_1>
0.0329

>  <oscillator_strength_2>
0.0235

>  <oscillator_strength_3>
0.0479

>  <oscillator_strength_4>
0.0704

>  <open_babel_can_smiles>
CCNCCNc1ccccc1

>  <mulliken_charges>
28
1   -0.453021
2   -0.10782
3   -0.138387
4   -0.133626
5   -0.138161
6   -0.188323
7   -0.181889
8   -0.135665
9   -0.1097
10   0.352816
11   -0.566575
12   -0.671979
13   0.147347
14   0.159911
15   0.139844
16   0.143384
17   0.11555
18   0.11831
19   0.122416
20   0.122059
21   0.112092
22   0.120369
23   0.130602
24   0.140531
25   0.137111
26   0.146576
27   0.296626
28   0.319602

>  <lowdin_charges>
28
1   -0.450974
2   -0.198752
3   -0.190531
4   -0.146496
5   -0.146571
6   -0.198251
7   -0.206675
8   -0.206849
9   -0.19963
10   0.058264
11   -0.373321
12   -0.308191
13   0.155196
14   0.157464
15   0.146285
16   0.142667
17   0.119482
18   0.154501
19   0.153126
20   0.153592
21   0.149262
22   0.15362
23   0.12826
24   0.148257
25   0.131506
26   0.150725
27   0.252164
28   0.271869

$$$$

