PCCDB-ID:  6885
public computational chemistry database (PCCDB) project, http://pccdb.org

 16 17  0  0  0  0  0  0  0  0999 V2000
    2.0128    1.0607   -0.0006 C   0  0  0  0  0  0  0  0  0  0  0  0
    2.2447   -0.3236    0.0077 C   0  0  0  0  0  0  0  0  0  0  0  0
    0.7149    1.5808   -0.0087 C   0  0  0  0  0  0  0  0  0  0  0  0
    1.1770   -1.2204    0.0080 C   0  0  0  0  0  0  0  0  0  0  0  0
   -1.8393    0.8884   -0.0160 C   0  0  0  0  0  0  0  0  0  0  0  0
   -0.3466    0.6802   -0.0083 C   0  0  0  0  0  0  0  0  0  0  0  0
   -0.1117   -0.6906   -0.0003 C   0  0  0  0  0  0  0  0  0  0  0  0
   -1.4140   -1.3962   -0.0046 C   0  0  0  0  0  0  0  0  0  0  0  0
   -1.6557   -2.5764   -0.0001 O   0  0  0  0  0  0  0  0  0  0  0  0
   -2.4027   -0.4354   -0.0158 O   0  0  0  0  0  0  0  0  0  0  0  0
    2.8595    1.7418   -0.0006 H   0  0  0  0  0  0  0  0  0  0  0  0
    3.2654   -0.6948    0.0140 H   0  0  0  0  0  0  0  0  0  0  0  0
    0.5507    2.6551   -0.0149 H   0  0  0  0  0  0  0  0  0  0  0  0
    1.3292   -2.2954    0.0145 H   0  0  0  0  0  0  0  0  0  0  0  0
   -2.1973    1.4166   -0.9076 H   0  0  0  0  0  0  0  0  0  0  0  0
   -2.2051    1.4196    0.8708 H   0  0  0  0  0  0  0  0  0  0  0  0
  1  2  2  0  0  0  0
  2  4  1  0  0  0  0
  2 12  1  0  0  0  0
  3  6  2  0  0  0  0
  3  1  1  0  0  0  0
  4 14  1  0  0  0  0
  5 10  1  0  0  0  0
  5  6  1  0  0  0  0
  5 16  1  0  0  0  0
  6  7  1  0  0  0  0
  7  4  2  0  0  0  0
  8  7  1  0  0  0  0
  8  9  2  0  0  0  0
 10  8  1  0  0  0  0
 11  1  1  0  0  0  0
 13  3  1  0  0  0  0
 15  5  1  0  0  0  0
M  END
>  <HBA>
2

>  <HBD>
0

>  <TPSA>
26.3

>  <cid>
6885

>  <dipole>
5.04

>  <excitation_energy_1>
4.735

>  <excitation_energy_2>
5.01

>  <excitation_energy_3>
5.582

>  <excitation_energy_4>
5.828

>  <homo_energy>
-7.26

>  <homo_lumo_gap>
5.913

>  <logP>
1.357

>  <lumo_energy>
-1.347

>  <melting_point>
57.34

>  <molecular_refractivity>
35.77

>  <oscillator_strength_1>
0.0

>  <oscillator_strength_2>
0.0247

>  <oscillator_strength_3>
0.1169

>  <oscillator_strength_4>
0.0004

>  <open_babel_can_smiles>
O=C1OCc2c1cccc2

>  <mulliken_charges>
16
1   -0.123005
2   -0.135238
3   -0.191977
4   -0.171072
5   -0.088431
6   0.080835
7   0.041927
8   0.57306
9   -0.460197
10   -0.473255
11   0.143442
12   0.144101
13   0.140758
14   0.165123
15   0.176945
16   0.176985

>  <lowdin_charges>
16
1   -0.136688
2   -0.150722
3   -0.158873
4   -0.122937
5   -0.121147
6   -0.011546
7   -0.055654
8   0.189029
9   -0.234213
10   -0.195199
11   0.165432
12   0.16425
13   0.161634
14   0.175481
15   0.165562
16   0.16559

$$$$

