PCCDB-ID:  40706
public computational chemistry database (PCCDB) project, http://pccdb.org

 38 37  0  0  0  0  0  0  0  0999 V2000
    1.8478   -1.4715    2.2794 C   0  0  0  0  0  0  0  0  0  0  0  0
    9.1659   -2.5950    0.2089 C   0  0  0  0  0  0  0  0  0  0  0  0
    3.5653    1.2822   -1.2373 C   0  0  0  0  0  0  0  0  0  0  0  0
    5.2796    0.2813   -2.7558 C   0  0  0  0  0  0  0  0  0  0  0  0
    3.5009   -1.1627   -1.7358 C   0  0  0  0  0  0  0  0  0  0  0  0
    6.3989    0.9529   -0.0059 C   0  0  0  0  0  0  0  0  0  0  0  0
    3.3175   -1.8216    2.4555 C   0  0  0  0  0  0  0  0  0  0  0  0
    7.8036   -2.8750    0.8250 C   0  0  0  0  0  0  0  0  0  0  0  0
    4.5640   -0.3324    1.0681 C   0  0  0  0  0  0  0  0  0  0  0  0
    6.2484   -1.5005   -0.3567 C   0  0  0  0  0  0  0  0  0  0  0  0
    4.4451    0.0338   -1.4776 C   0  0  0  0  0  0  0  0  0  0  0  0
    5.4019   -0.2154   -0.2229 C   0  0  0  0  0  0  0  0  0  0  0  0
    4.3535    0.5844    1.8323 O   0  0  0  0  0  0  0  0  0  0  0  0
    6.3391   -2.2239   -1.3252 O   0  0  0  0  0  0  0  0  0  0  0  0
    4.0764   -1.5799    1.2445 O   0  0  0  0  0  0  0  0  0  0  0  0
    6.9505   -1.7059    0.7822 O   0  0  0  0  0  0  0  0  0  0  0  0
    1.2955   -1.7286    3.1908 H   0  0  0  0  0  0  0  0  0  0  0  0
    1.4092   -2.0283    1.4449 H   0  0  0  0  0  0  0  0  0  0  0  0
    1.7251   -0.4004    2.0966 H   0  0  0  0  0  0  0  0  0  0  0  0
    9.8142   -3.4707    0.3288 H   0  0  0  0  0  0  0  0  0  0  0  0
    9.6473   -1.7422    0.6988 H   0  0  0  0  0  0  0  0  0  0  0  0
    9.0699   -2.3833   -0.8595 H   0  0  0  0  0  0  0  0  0  0  0  0
    2.8994    1.4181   -2.0971 H   0  0  0  0  0  0  0  0  0  0  0  0
    4.1557    2.1981   -1.1361 H   0  0  0  0  0  0  0  0  0  0  0  0
    2.9400    1.1882   -0.3440 H   0  0  0  0  0  0  0  0  0  0  0  0
    4.5993    0.4167   -3.6048 H   0  0  0  0  0  0  0  0  0  0  0  0
    5.9350   -0.5628   -2.9791 H   0  0  0  0  0  0  0  0  0  0  0  0
    5.8851    1.1907   -2.6821 H   0  0  0  0  0  0  0  0  0  0  0  0
    2.9037   -0.9565   -2.6318 H   0  0  0  0  0  0  0  0  0  0  0  0
    2.8068   -1.3222   -0.9061 H   0  0  0  0  0  0  0  0  0  0  0  0
    4.0562   -2.0868   -1.9034 H   0  0  0  0  0  0  0  0  0  0  0  0
    6.9865    0.7808    0.8972 H   0  0  0  0  0  0  0  0  0  0  0  0
    5.8658    1.8959    0.1191 H   0  0  0  0  0  0  0  0  0  0  0  0
    7.0852    1.0392   -0.8521 H   0  0  0  0  0  0  0  0  0  0  0  0
    3.4541   -2.8888    2.6467 H   0  0  0  0  0  0  0  0  0  0  0  0
    3.7666   -1.2456    3.2680 H   0  0  0  0  0  0  0  0  0  0  0  0
    7.8857   -3.1061    1.8899 H   0  0  0  0  0  0  0  0  0  0  0  0
    7.2973   -3.6971    0.3135 H   0  0  0  0  0  0  0  0  0  0  0  0
  1  7  1  0  0  0  0
  1 17  1  0  0  0  0
  2 20  1  0  0  0  0
  2 21  1  0  0  0  0
  2  8  1  0  0  0  0
  3 24  1  0  0  0  0
  3 25  1  0  0  0  0
  4 28  1  0  0  0  0
  4 11  1  0  0  0  0
  5 11  1  0  0  0  0
  5 30  1  0  0  0  0
  6 33  1  0  0  0  0
  6 32  1  0  0  0  0
  7 35  1  0  0  0  0
  7 36  1  0  0  0  0
  8 37  1  0  0  0  0
  9 15  1  0  0  0  0
  9 13  2  0  0  0  0
 10 12  1  0  0  0  0
 10 16  1  0  0  0  0
 11  3  1  0  0  0  0
 11 12  1  0  0  0  0
 12  6  1  0  0  0  0
 12  9  1  0  0  0  0
 14 10  2  0  0  0  0
 15  7  1  0  0  0  0
 16  8  1  0  0  0  0
 18  1  1  0  0  0  0
 19  1  1  0  0  0  0
 22  2  1  0  0  0  0
 23  3  1  0  0  0  0
 26  4  1  0  0  0  0
 27  4  1  0  0  0  0
 29  5  1  0  0  0  0
 31  5  1  0  0  0  0
 34  6  1  0  0  0  0
 38  8  1  0  0  0  0
M  END
>  <HBA>
4

>  <HBD>
0

>  <TPSA>
52.6

>  <cid>
40706

>  <dipole>
1.73

>  <excitation_energy_1>
5.545

>  <excitation_energy_2>
5.691

>  <excitation_energy_3>
6.524

>  <excitation_energy_4>
6.76

>  <homo_energy>
-7.061

>  <homo_lumo_gap>
7.146

>  <logP>
2.165

>  <lumo_energy>
0.084

>  <melting_point>
31.71

>  <molecular_refractivity>
61.85

>  <oscillator_strength_1>
0.0052

>  <oscillator_strength_2>
0.0036

>  <oscillator_strength_3>
0.0009

>  <oscillator_strength_4>
0.049

>  <open_babel_can_smiles>
CCOC(=O)C(C(C)(C)C)(C(=O)OCC)C

>  <mulliken_charges>
38
1   -0.465757
2   -0.463342
3   -0.457412
4   -0.465802
5   -0.46362
6   -0.467791
7   -0.045516
8   -0.042625
9   0.66518
10   0.663323
11   0.088872
12   -0.098295
13   -0.495303
14   -0.490706
15   -0.467288
16   -0.469837
17   0.151665
18   0.161853
19   0.177296
20   0.151033
21   0.158191
22   0.176884
23   0.141399
24   0.14554
25   0.154116
26   0.138398
27   0.176594
28   0.138081
29   0.132057
30   0.143463
31   0.177179
32   0.172072
33   0.175835
34   0.153249
35   0.154423
36   0.172322
37   0.153495
38   0.170774

>  <lowdin_charges>
38
1   -0.455556
2   -0.455069
3   -0.447639
4   -0.452887
5   -0.456219
6   -0.439099
7   -0.125449
8   -0.125743
9   0.204321
10   0.207056
11   0.025688
12   -0.03732
13   -0.261232
14   -0.259664
15   -0.185836
16   -0.190267
17   0.160122
18   0.15829
19   0.163871
20   0.159662
21   0.157374
22   0.16412
23   0.151344
24   0.149904
25   0.153792
26   0.150082
27   0.165942
28   0.145693
29   0.14644
30   0.14801
31   0.166088
32   0.166334
33   0.167395
34   0.156119
35   0.15169
36   0.161141
37   0.151302
38   0.160201

$$$$

