PCCDB-ID:  68114
public computational chemistry database (PCCDB) project, http://pccdb.org

 19 19  0  0  0  0  0  0  0  0999 V2000
    2.5908   -0.2375   -1.4389 C   0  0  0  0  0  0  0  0  0  0  0  0
    4.4864    3.2545    1.8253 C   0  0  0  0  0  0  0  0  0  0  0  0
    4.2623    2.0368    2.4688 C   0  0  0  0  0  0  0  0  0  0  0  0
    3.9910    3.4551    0.5350 C   0  0  0  0  0  0  0  0  0  0  0  0
    3.5469    1.0244    1.8278 C   0  0  0  0  0  0  0  0  0  0  0  0
    3.2747    2.4464   -0.1067 C   0  0  0  0  0  0  0  0  0  0  0  0
    2.3084    0.1269   -0.1799 C   0  0  0  0  0  0  0  0  0  0  0  0
    3.0446    1.2123    0.5257 C   0  0  0  0  0  0  0  0  0  0  0  0
    1.1674   -0.6011    0.5009 C   0  0  0  0  0  0  0  0  0  0  0  0
    0.6565   -1.6021    0.0576 O   0  0  0  0  0  0  0  0  0  0  0  0
    0.7066   -0.0564    1.6552 O   0  0  0  0  0  0  0  0  0  0  0  0
    3.3990    0.2237   -1.9983 H   0  0  0  0  0  0  0  0  0  0  0  0
    2.0174   -1.0245   -1.9174 H   0  0  0  0  0  0  0  0  0  0  0  0
    5.0402    4.0432    2.3267 H   0  0  0  0  0  0  0  0  0  0  0  0
    4.6520    1.8677    3.4688 H   0  0  0  0  0  0  0  0  0  0  0  0
    4.1542    4.4034    0.0302 H   0  0  0  0  0  0  0  0  0  0  0  0
    3.4006    0.0709    2.3291 H   0  0  0  0  0  0  0  0  0  0  0  0
    2.8739    2.6126   -1.1026 H   0  0  0  0  0  0  0  0  0  0  0  0
    1.1964    0.7614    1.8544 H   0  0  0  0  0  0  0  0  0  0  0  0
  1  7  2  0  0  0  0
  2 14  1  0  0  0  0
  2  3  1  0  0  0  0
  3 15  1  0  0  0  0
  4  2  2  0  0  0  0
  5 17  1  0  0  0  0
  5  3  2  0  0  0  0
  6  8  2  0  0  0  0
  6  4  1  0  0  0  0
  7  9  1  0  0  0  0
  7  8  1  0  0  0  0
  8  5  1  0  0  0  0
  9 11  1  0  0  0  0
 10  9  2  0  0  0  0
 11 19  1  0  0  0  0
 12  1  1  0  0  0  0
 13  1  1  0  0  0  0
 16  4  1  0  0  0  0
 18  6  1  0  0  0  0
M  END
>  <HBA>
2

>  <HBD>
1

>  <TPSA>
37.3

>  <cid>
68114

>  <dipole>
5.07

>  <excitation_energy_1>
4.454

>  <excitation_energy_2>
4.89

>  <excitation_energy_3>
4.958

>  <excitation_energy_4>
5.402

>  <homo_energy>
-6.898

>  <homo_lumo_gap>
5.402

>  <logP>
1.784

>  <lumo_energy>
-1.497

>  <melting_point>
65.46

>  <molecular_refractivity>
43.11

>  <oscillator_strength_1>
0.0206

>  <oscillator_strength_2>
0.0154

>  <oscillator_strength_3>
0.1078

>  <oscillator_strength_4>
0.0131

>  <open_babel_can_smiles>
C=C(c1ccccc1)C(=O)O

>  <mulliken_charges>
19
1   -0.356155
2   -0.124068
3   -0.127259
4   -0.13064
5   -0.19977
6   -0.160842
7   0.0586
8   0.02559
9   0.554646
10   -0.451959
11   -0.578207
12   0.160265
13   0.189675
14   0.141053
15   0.143837
16   0.141703
17   0.15683
18   0.142186
19   0.414515

>  <lowdin_charges>
19
1   -0.274351
2   -0.150751
3   -0.148831
4   -0.148945
5   -0.175611
6   -0.153328
7   -0.05649
8   -0.023247
9   0.190407
10   -0.24356
11   -0.354033
12   0.169573
13   0.187349
14   0.164722
15   0.163705
16   0.163596
17   0.167475
18   0.164079
19   0.35824

$$$$

