PCCDB-ID:  8138
public computational chemistry database (PCCDB) project, http://pccdb.org

 36 35  0  0  0  0  0  0  0  0999 V2000
    1.9392    2.2060   -1.8497 C   0  0  0  0  0  0  0  0  0  0  0  0
   13.6910   -6.4792    0.7755 C   0  0  0  0  0  0  0  0  0  0  0  0
    2.5301    1.5860   -0.8276 C   0  0  0  0  0  0  0  0  0  0  0  0
    3.1501    0.2165   -0.8788 C   0  0  0  0  0  0  0  0  0  0  0  0
    4.6546    0.2245   -0.5456 C   0  0  0  0  0  0  0  0  0  0  0  0
    5.2825   -1.1746   -0.5460 C   0  0  0  0  0  0  0  0  0  0  0  0
    6.7824   -1.1697   -0.2229 C   0  0  0  0  0  0  0  0  0  0  0  0
    7.4131   -2.5679   -0.2156 C   0  0  0  0  0  0  0  0  0  0  0  0
    8.9131   -2.5585    0.1072 C   0  0  0  0  0  0  0  0  0  0  0  0
    9.5410   -3.9572    0.1134 C   0  0  0  0  0  0  0  0  0  0  0  0
   11.0354   -3.9301    0.4404 C   0  0  0  0  0  0  0  0  0  0  0  0
   11.6747   -5.3050    0.4313 C   0  0  0  0  0  0  0  0  0  0  0  0
   11.1149   -6.3470    0.1671 O   0  0  0  0  0  0  0  0  0  0  0  0
   12.9863   -5.2278    0.7606 O   0  0  0  0  0  0  0  0  0  0  0  0
    1.5154    3.2018   -1.7493 H   0  0  0  0  0  0  0  0  0  0  0  0
    1.8525    1.7383   -2.8288 H   0  0  0  0  0  0  0  0  0  0  0  0
   13.6609   -6.9507   -0.2106 H   0  0  0  0  0  0  0  0  0  0  0  0
   13.2494   -7.1620    1.5065 H   0  0  0  0  0  0  0  0  0  0  0  0
   14.7173   -6.2345    1.0516 H   0  0  0  0  0  0  0  0  0  0  0  0
    2.5944    2.0981    0.1348 H   0  0  0  0  0  0  0  0  0  0  0  0
    2.9936   -0.2236   -1.8727 H   0  0  0  0  0  0  0  0  0  0  0  0
    2.6376   -0.4431   -0.1610 H   0  0  0  0  0  0  0  0  0  0  0  0
    4.8047    0.6909    0.4393 H   0  0  0  0  0  0  0  0  0  0  0  0
    5.1775    0.8655   -1.2688 H   0  0  0  0  0  0  0  0  0  0  0  0
    5.1237   -1.6440   -1.5282 H   0  0  0  0  0  0  0  0  0  0  0  0
    4.7557   -1.8094    0.1821 H   0  0  0  0  0  0  0  0  0  0  0  0
    6.9409   -0.6952    0.7571 H   0  0  0  0  0  0  0  0  0  0  0  0
    7.3086   -0.5379   -0.9539 H   0  0  0  0  0  0  0  0  0  0  0  0
    7.2556   -3.0434   -1.1949 H   0  0  0  0  0  0  0  0  0  0  0  0
    6.8885   -3.2000    0.5160 H   0  0  0  0  0  0  0  0  0  0  0  0
    9.0699   -2.0819    1.0866 H   0  0  0  0  0  0  0  0  0  0  0  0
    9.4368   -1.9251   -0.6244 H   0  0  0  0  0  0  0  0  0  0  0  0
    9.3956   -4.4379   -0.8620 H   0  0  0  0  0  0  0  0  0  0  0  0
    9.0247   -4.5961    0.8409 H   0  0  0  0  0  0  0  0  0  0  0  0
   11.2200   -3.4800    1.4251 H   0  0  0  0  0  0  0  0  0  0  0  0
   11.5855   -3.3017   -0.2735 H   0  0  0  0  0  0  0  0  0  0  0  0
  1 15  1  0  0  0  0
  1  3  2  0  0  0  0
  2 19  1  0  0  0  0
  2 18  1  0  0  0  0
  3 20  1  0  0  0  0
  4  3  1  0  0  0  0
  4  5  1  0  0  0  0
  4 22  1  0  0  0  0
  5 23  1  0  0  0  0
  6  5  1  0  0  0  0
  6  7  1  0  0  0  0
  6 26  1  0  0  0  0
  7  8  1  0  0  0  0
  7 27  1  0  0  0  0
  8  9  1  0  0  0  0
  8 30  1  0  0  0  0
  9 10  1  0  0  0  0
  9 31  1  0  0  0  0
 10 11  1  0  0  0  0
 10 34  1  0  0  0  0
 11 35  1  0  0  0  0
 12 11  1  0  0  0  0
 12 14  1  0  0  0  0
 13 12  2  0  0  0  0
 14  2  1  0  0  0  0
 16  1  1  0  0  0  0
 17  2  1  0  0  0  0
 21  4  1  0  0  0  0
 24  5  1  0  0  0  0
 25  6  1  0  0  0  0
 28  7  1  0  0  0  0
 29  8  1  0  0  0  0
 32  9  1  0  0  0  0
 33 10  1  0  0  0  0
 36 11  1  0  0  0  0
M  END
>  <HBA>
2

>  <HBD>
0

>  <TPSA>
26.3

>  <cid>
8138

>  <dipole>
1.65

>  <excitation_energy_1>
5.85

>  <excitation_energy_2>
6.49

>  <excitation_energy_3>
6.801

>  <excitation_energy_4>
6.827

>  <homo_energy>
-6.759

>  <homo_lumo_gap>
7.206

>  <logP>
3.466

>  <lumo_energy>
0.446

>  <melting_point>
-38.7

>  <molecular_refractivity>
60.61

>  <oscillator_strength_1>
0.0006

>  <oscillator_strength_2>
0.0401

>  <oscillator_strength_3>
0.0001

>  <oscillator_strength_4>
0.0285

>  <open_babel_can_smiles>
C=CCCCCCCCCC(=O)OC

>  <mulliken_charges>
36
1   -0.342141
2   -0.216931
3   -0.040339
4   -0.300919
5   -0.254685
6   -0.253027
7   -0.253184
8   -0.253729
9   -0.257167
10   -0.248608
11   -0.362341
12   0.620455
13   -0.47854
14   -0.454728
15   0.136385
16   0.133048
17   0.168806
18   0.168785
19   0.162796
20   0.121579
21   0.136087
22   0.139666
23   0.128661
24   0.137314
25   0.129151
26   0.128066
27   0.126986
28   0.128099
29   0.130381
30   0.129951
31   0.126989
32   0.127263
33   0.149275
34   0.147307
35   0.169363
36   0.169927

>  <lowdin_charges>
36
1   -0.34439
2   -0.278728
3   -0.143193
4   -0.272761
5   -0.273852
6   -0.275415
7   -0.274895
8   -0.274688
9   -0.275758
10   -0.270886
11   -0.302286
12   0.198712
13   -0.265012
14   -0.200142
15   0.156104
16   0.152322
17   0.157997
18   0.159574
19   0.158405
20   0.147312
21   0.144664
22   0.148576
23   0.138006
24   0.144014
25   0.138279
26   0.139356
27   0.137166
28   0.139424
29   0.13909
30   0.140513
31   0.136972
32   0.138788
33   0.150428
34   0.15106
35   0.166555
36   0.16869

$$$$

