PCCDB-ID:  47792
public computational chemistry database (PCCDB) project, http://pccdb.org

 20 19  0  0  1  0  0  0  0  0999 V2000
    1.2013    0.7647   -0.1393 C   0  0  0  0  0  0  0  0  0  0  0  0
    1.9651   -3.6489   -0.4443 C   0  0  0  0  0  0  0  0  0  0  0  0
    3.9828    0.4042    2.3180 C   0  0  0  0  0  0  0  0  0  0  0  0
    2.2839   -0.0809    0.5216 C   0  0  1  0  0  0  0  0  0  0  0  0
    2.4047   -2.2094   -0.5555 C   0  0  0  0  0  0  0  0  0  0  0  0
    1.6956    0.2694    2.9163 N   0  0  0  0  0  0  0  0  0  0  0  0
    2.5934    0.2612    1.9047 N   0  0  0  0  0  0  0  0  0  0  0  0
    3.0949   -1.7473   -1.4376 O   0  0  0  0  0  0  0  0  0  0  0  0
    0.5409    0.0204    2.6054 O   0  0  0  0  0  0  0  0  0  0  0  0
    1.9243   -1.4837    0.4884 O   0  0  0  0  0  0  0  0  0  0  0  0
    1.4525    1.8264   -0.0443 H   0  0  0  0  0  0  0  0  0  0  0  0
    0.2272    0.5849    0.3111 H   0  0  0  0  0  0  0  0  0  0  0  0
    1.1704    0.5131   -1.2039 H   0  0  0  0  0  0  0  0  0  0  0  0
    0.8807   -3.7053   -0.3105 H   0  0  0  0  0  0  0  0  0  0  0  0
    2.4265   -4.1101    0.4356 H   0  0  0  0  0  0  0  0  0  0  0  0
    2.2647   -4.1904   -1.3421 H   0  0  0  0  0  0  0  0  0  0  0  0
    4.5443   -0.5198    2.1342 H   0  0  0  0  0  0  0  0  0  0  0  0
    3.9841    0.6174    3.3880 H   0  0  0  0  0  0  0  0  0  0  0  0
    4.4673    1.2276    1.7823 H   0  0  0  0  0  0  0  0  0  0  0  0
    3.2170    0.0301   -0.0337 H   0  0  0  0  0  0  0  0  0  0  0  0
  1 11  1  0  0  0  0
  1 12  1  0  0  0  0
  1  4  1  0  0  0  0
  2 14  1  0  0  0  0
  2 15  1  0  0  0  0
  3 18  1  0  0  0  0
  4 20  1  6  0  0  0
  4  7  1  0  0  0  0
  5  2  1  0  0  0  0
  5 10  1  0  0  0  0
  7  3  1  0  0  0  0
  7  6  1  0  0  0  0
  8  5  2  0  0  0  0
  9  6  2  0  0  0  0
 10  4  1  0  0  0  0
 13  1  1  0  0  0  0
 16  2  1  0  0  0  0
 17  3  1  0  0  0  0
 19  3  1  0  0  0  0
M  END
>  <HBA>
5

>  <HBD>
0

>  <TPSA>
58.97

>  <cid>
47792

>  <dipole>
2.09

>  <excitation_energy_1>
3.154

>  <excitation_energy_2>
5.529

>  <excitation_energy_3>
5.687

>  <excitation_energy_4>
5.765

>  <homo_energy>
-6.188

>  <homo_lumo_gap>
5.029

>  <logP>
0.509

>  <lumo_energy>
-1.159

>  <melting_point>
8.23

>  <molecular_refractivity>
35.07

>  <oscillator_strength_1>
0.0013

>  <oscillator_strength_2>
0.0003

>  <oscillator_strength_3>
0.0731

>  <oscillator_strength_4>
0.0003

>  <open_babel_can_smiles>
O=NN([C@@H](OC(=O)C)C)C

>  <mulliken_charges>
20
1   -0.467098
2   -0.523771
3   -0.317369
4   0.242553
5   0.602252
6   0.159785
7   -0.230815
8   -0.466528
9   -0.357298
10   -0.449094
11   0.155614
12   0.202828
13   0.168412
14   0.190166
15   0.186732
16   0.184784
17   0.173154
18   0.194866
19   0.170406
20   0.18042

>  <lowdin_charges>
20
1   -0.454546
2   -0.462599
3   -0.35501
4   0.057957
5   0.204096
6   0.059726
7   -0.054392
8   -0.265713
9   -0.245774
10   -0.194343
11   0.160844
12   0.179535
13   0.165016
14   0.180436
15   0.182001
16   0.177643
17   0.159195
18   0.177
19   0.159449
20   0.169478

$$$$

