PCCDB-ID:  72924
public computational chemistry database (PCCDB) project, http://pccdb.org

 15 15  0  0  0  0  0  0  0  0999 V2000
   -1.4228    0.0147   -0.1351 C   0  0  0  0  0  0  0  0  0  0  0  0
   -0.7624    1.2336   -0.1099 C   0  0  0  0  0  0  0  0  0  0  0  0
    0.7082   -1.0553    0.0536 C   0  0  0  0  0  0  0  0  0  0  0  0
   -0.6848   -1.1758   -0.0621 C   0  0  0  0  0  0  0  0  0  0  0  0
    0.6410    1.2214   -0.0130 C   0  0  0  0  0  0  0  0  0  0  0  0
   -1.2798   -2.5444   -0.0579 C   0  0  0  0  0  0  0  0  0  0  0  0
    1.3623    0.1045    0.0690 N   0  0  0  0  0  0  0  0  0  0  0  0
    1.3714    2.3596    0.0119 O   0  0  0  0  0  0  0  0  0  0  0  0
   -0.7026   -3.5187    0.3625 O   0  0  0  0  0  0  0  0  0  0  0  0
   -2.5429   -2.6679   -0.5577 O   0  0  0  0  0  0  0  0  0  0  0  0
   -2.5100    0.0057   -0.1757 H   0  0  0  0  0  0  0  0  0  0  0  0
   -1.3143    2.1689   -0.1517 H   0  0  0  0  0  0  0  0  0  0  0  0
    1.3097   -1.9572    0.1327 H   0  0  0  0  0  0  0  0  0  0  0  0
    0.7784    3.1252   -0.0485 H   0  0  0  0  0  0  0  0  0  0  0  0
   -2.8057   -1.8546   -1.0172 H   0  0  0  0  0  0  0  0  0  0  0  0
  1  2  2  0  0  0  0
  1  4  1  0  0  0  0
  2  5  1  0  0  0  0
  3  7  1  0  0  0  0
  3 13  1  0  0  0  0
  4  6  1  0  0  0  0
  4  3  2  0  0  0  0
  5  8  1  0  0  0  0
  5  7  2  0  0  0  0
  6  9  2  0  0  0  0
 10  6  1  0  0  0  0
 11  1  1  0  0  0  0
 12  2  1  0  0  0  0
 14  8  1  0  0  0  0
 15 10  1  0  0  0  0
M  END
>  <HBA>
3

>  <HBD>
2

>  <TPSA>
70.16

>  <cid>
72924

>  <dipole>
6.5

>  <excitation_energy_1>
4.665

>  <excitation_energy_2>
4.911

>  <excitation_energy_3>
4.953

>  <excitation_energy_4>
5.043

>  <homo_energy>
-7.021

>  <homo_lumo_gap>
5.538

>  <logP>
0.073

>  <lumo_energy>
-1.483

>  <melting_point>
177.36

>  <molecular_refractivity>
34.02

>  <oscillator_strength_1>
0.0148

>  <oscillator_strength_2>
0.0501

>  <oscillator_strength_3>
0.0356

>  <oscillator_strength_4>
0.0089

>  <open_babel_can_smiles>
Oc1ccc(cn1)C(=O)O

>  <mulliken_charges>
15
1   -0.157872
2   -0.204264
3   0.027964
4   0.021084
5   0.510003
6   0.550943
7   -0.445541
8   -0.5828
9   -0.442275
10   -0.575808
11   0.146574
12   0.140303
13   0.187619
14   0.414798
15   0.409272

>  <lowdin_charges>
15
1   -0.123638
2   -0.224083
3   -0.045035
4   -0.099409
5   0.149069
6   0.197907
7   -0.146618
8   -0.338307
9   -0.237594
10   -0.359993
11   0.160848
12   0.165095
13   0.181933
14   0.363438
15   0.356387

$$$$

