PCCDB-ID:  31744
public computational chemistry database (PCCDB) project, http://pccdb.org

 21 22  0  0  0  0  0  0  0  0999 V2000
    2.5069   -0.6234   -0.0649 C   0  0  0  0  0  0  0  0  0  0  0  0
   -2.4126    0.6462    0.1663 C   0  0  0  0  0  0  0  0  0  0  0  0
    2.4615    0.7825   -0.1092 C   0  0  0  0  0  0  0  0  0  0  0  0
   -1.2393    1.3571    0.0629 C   0  0  0  0  0  0  0  0  0  0  0  0
    1.3514   -1.3710    0.0014 C   0  0  0  0  0  0  0  0  0  0  0  0
   -2.3816   -0.7600    0.2110 C   0  0  0  0  0  0  0  0  0  0  0  0
    1.2058    2.8649   -0.1074 C   0  0  0  0  0  0  0  0  0  0  0  0
    1.2399    1.4326   -0.0722 C   0  0  0  0  0  0  0  0  0  0  0  0
    0.0128    0.6926    0.0063 C   0  0  0  0  0  0  0  0  0  0  0  0
    0.0745   -0.7431    0.0327 C   0  0  0  0  0  0  0  0  0  0  0  0
   -1.1792   -1.4287    0.1307 C   0  0  0  0  0  0  0  0  0  0  0  0
    1.1736    4.0277   -0.1382 N   0  0  0  0  0  0  0  0  0  0  0  0
   -1.2714   -2.9014    0.1423 N   0  0  0  0  0  0  0  0  0  0  0  0
   -2.2529   -3.4007    0.6906 O   0  0  0  0  0  0  0  0  0  0  0  0
   -0.3866   -3.5522   -0.4162 O   0  0  0  0  0  0  0  0  0  0  0  0
    3.4688   -1.1263   -0.0865 H   0  0  0  0  0  0  0  0  0  0  0  0
   -3.3660    1.1624    0.2119 H   0  0  0  0  0  0  0  0  0  0  0  0
    3.3773    1.3615   -0.1663 H   0  0  0  0  0  0  0  0  0  0  0  0
   -1.2569    2.4420    0.0290 H   0  0  0  0  0  0  0  0  0  0  0  0
    1.4087   -2.4491    0.0256 H   0  0  0  0  0  0  0  0  0  0  0  0
   -3.2946   -1.3355    0.3002 H   0  0  0  0  0  0  0  0  0  0  0  0
  1  5  2  0  0  0  0
  2  6  1  0  0  0  0
  2 17  1  0  0  0  0
  3  8  2  0  0  0  0
  3  1  1  0  0  0  0
  4  2  2  0  0  0  0
  5 20  1  0  0  0  0
  5 10  1  0  0  0  0
  6 21  1  0  0  0  0
  7  8  1  0  0  0  0
  8  9  1  0  0  0  0
  9 10  2  0  0  0  0
  9  4  1  0  0  0  0
 10 11  1  0  0  0  0
 11 13  1  0  0  0  0
 11  6  2  0  0  0  0
 12  7  3  0  0  0  0
 13 14  2  0  0  0  0
 15 13  2  0  0  0  0
 16  1  1  0  0  0  0
 18  3  1  0  0  0  0
 19  4  1  0  0  0  0
M  END
>  <HBA>
1

>  <HBD>
0

>  <TPSA>
69.61

>  <cid>
31744

>  <dipole>
0.39

>  <excitation_energy_1>
3.445

>  <excitation_energy_2>
3.679

>  <excitation_energy_3>
4.0

>  <excitation_energy_4>
4.235

>  <homo_energy>
-6.969

>  <homo_lumo_gap>
4.022

>  <logP>
3.143

>  <lumo_energy>
-2.947

>  <melting_point>
126.19

>  <molecular_refractivity>
57.48

>  <oscillator_strength_1>
0.1362

>  <oscillator_strength_2>
0.0064

>  <oscillator_strength_3>
0.0317

>  <oscillator_strength_4>
0.0046

>  <open_babel_can_smiles>
N#Cc1cccc2c1cccc2N(=O)=O

>  <mulliken_charges>
21
1   -0.140605
2   -0.145154
3   -0.139968
4   -0.168076
5   -0.156202
6   -0.138418
7   0.233962
8   0.095329
9   0.099787
10   0.105905
11   0.199467
12   -0.484449
13   0.355827
14   -0.378278
15   -0.388575
16   0.157927
17   0.161185
18   0.169796
19   0.17837
20   0.191621
21   0.19055

>  <lowdin_charges>
21
1   -0.143981
2   -0.14507
3   -0.122425
4   -0.125412
5   -0.133396
6   -0.126189
7   -0.014827
8   -0.018463
9   0.013741
10   0.005981
11   0.007597
12   -0.112329
13   0.309963
14   -0.239681
15   -0.245106
16   0.173094
17   0.174743
18   0.18015
19   0.182105
20   0.187629
21   0.191876

$$$$

