PCCDB-ID:  12025
public computational chemistry database (PCCDB) project, http://pccdb.org

 13 13  0  0  0  0  0  0  0  0999 V2000
   -1.3077    0.0348   -0.0277 C   0  0  0  0  0  0  0  0  0  0  0  0
   -0.3668    1.2594   -0.0232 C   0  0  0  0  0  0  0  0  0  0  0  0
   -0.3282   -1.1856    0.0307 C   0  0  0  0  0  0  0  0  0  0  0  0
    0.9986    0.5943    0.0287 C   0  0  0  0  0  0  0  0  0  0  0  0
    1.0422   -0.6736    0.0579 N   0  0  0  0  0  0  0  0  0  0  0  0
    2.1361    1.3347    0.0454 O   0  0  0  0  0  0  0  0  0  0  0  0
   -1.9279    0.0090   -0.9282 H   0  0  0  0  0  0  0  0  0  0  0  0
   -1.9861    0.0470    0.8302 H   0  0  0  0  0  0  0  0  0  0  0  0
   -0.5143    1.9179    0.8435 H   0  0  0  0  0  0  0  0  0  0  0  0
   -0.4642    1.8865   -0.9197 H   0  0  0  0  0  0  0  0  0  0  0  0
   -0.4479   -1.8478   -0.8361 H   0  0  0  0  0  0  0  0  0  0  0  0
   -0.4988   -1.8050    0.9204 H   0  0  0  0  0  0  0  0  0  0  0  0
    1.8988    2.2736    0.0125 H   0  0  0  0  0  0  0  0  0  0  0  0
  1  2  1  0  0  0  0
  1  3  1  0  0  0  0
  1  8  1  0  0  0  0
  2  4  1  0  0  0  0
  2  9  1  0  0  0  0
  3  5  1  0  0  0  0
  3 12  1  0  0  0  0
  4  6  1  0  0  0  0
  4  5  2  0  0  0  0
  7  1  1  0  0  0  0
 10  2  1  0  0  0  0
 11  3  1  0  0  0  0
 13  6  1  0  0  0  0
M  END
>  <HBA>
2

>  <HBD>
1

>  <TPSA>
29.1

>  <cid>
12025

>  <dipole>
3.82

>  <excitation_energy_1>
5.739

>  <excitation_energy_2>
6.083

>  <excitation_energy_3>
6.259

>  <excitation_energy_4>
6.482

>  <homo_energy>
-6.697

>  <homo_lumo_gap>
7.649

>  <logP>
0.225

>  <lumo_energy>
0.952

>  <melting_point>
45.91

>  <molecular_refractivity>
26.14

>  <oscillator_strength_1>
0.0033

>  <oscillator_strength_2>
0.0142

>  <oscillator_strength_3>
0.0021

>  <oscillator_strength_4>
0.0002

>  <open_babel_can_smiles>
OC1=NCCC1

>  <mulliken_charges>
13
1   -0.300032
2   -0.376279
3   -0.145242
4   0.490408
5   -0.41157
6   -0.583202
7   0.151005
8   0.150852
9   0.159944
10   0.159465
11   0.147481
12   0.147394
13   0.409775

>  <lowdin_charges>
13
1   -0.294746
2   -0.318986
3   -0.203619
4   0.105968
5   -0.204573
6   -0.354145
7   0.152787
8   0.152977
9   0.157159
10   0.156795
11   0.146092
12   0.145971
13   0.35832

$$$$

