PCCDB-ID:  8488
public computational chemistry database (PCCDB) project, http://pccdb.org

 23 23  0  0  0  0  0  0  0  0999 V2000
    0.9942    0.0390   -0.2921 C   0  0  0  0  0  0  0  0  0  0  0  0
    4.4303   -3.7884   -0.2640 C   0  0  0  0  0  0  0  0  0  0  0  0
    6.5978   -2.6836    0.2446 C   0  0  0  0  0  0  0  0  0  0  0  0
    4.6039    1.0512    0.3637 C   0  0  0  0  0  0  0  0  0  0  0  0
    3.2261    1.1404    0.1696 C   0  0  0  0  0  0  0  0  0  0  0  0
    5.2711   -0.1660    0.2645 C   0  0  0  0  0  0  0  0  0  0  0  0
    3.1643   -1.2404   -0.2274 C   0  0  0  0  0  0  0  0  0  0  0  0
    2.4964   -0.0171   -0.1227 C   0  0  0  0  0  0  0  0  0  0  0  0
    4.5610   -1.3470   -0.0483 C   0  0  0  0  0  0  0  0  0  0  0  0
    5.2168   -2.5696   -0.1911 N   0  0  0  0  0  0  0  0  0  0  0  0
    0.6661    1.0327   -0.6151 H   0  0  0  0  0  0  0  0  0  0  0  0
    0.4780   -0.1834    0.6517 H   0  0  0  0  0  0  0  0  0  0  0  0
    0.6437   -0.6897   -1.0315 H   0  0  0  0  0  0  0  0  0  0  0  0
    5.1029   -4.6407   -0.3825 H   0  0  0  0  0  0  0  0  0  0  0  0
    3.7641   -3.7735   -1.1347 H   0  0  0  0  0  0  0  0  0  0  0  0
    3.8114   -3.9581    0.6328 H   0  0  0  0  0  0  0  0  0  0  0  0
    6.9513   -3.6979    0.0468 H   0  0  0  0  0  0  0  0  0  0  0  0
    6.7316   -2.4740    1.3189 H   0  0  0  0  0  0  0  0  0  0  0  0
    7.2435   -1.9972   -0.3157 H   0  0  0  0  0  0  0  0  0  0  0  0
    5.1757    1.9464    0.5966 H   0  0  0  0  0  0  0  0  0  0  0  0
    2.7195    2.0987    0.2505 H   0  0  0  0  0  0  0  0  0  0  0  0
    6.3419   -0.1922    0.4262 H   0  0  0  0  0  0  0  0  0  0  0  0
    2.5778   -2.1240   -0.4536 H   0  0  0  0  0  0  0  0  0  0  0  0
  1  8  1  0  0  0  0
  1 12  1  0  0  0  0
  2 10  1  0  0  0  0
  2 16  1  0  0  0  0
  3 18  1  0  0  0  0
  4 20  1  0  0  0  0
  5 21  1  0  0  0  0
  5  4  2  0  0  0  0
  6  4  1  0  0  0  0
  6 22  1  0  0  0  0
  7  8  2  0  0  0  0
  7  9  1  0  0  0  0
  8  5  1  0  0  0  0
  9  6  2  0  0  0  0
 10  9  1  0  0  0  0
 10  3  1  0  0  0  0
 11  1  1  0  0  0  0
 13  1  1  0  0  0  0
 14  2  1  0  0  0  0
 15  2  1  0  0  0  0
 17  3  1  0  0  0  0
 19  3  1  0  0  0  0
 23  7  1  0  0  0  0
M  END
>  <HBA>
1

>  <HBD>
0

>  <TPSA>
3.24

>  <cid>
8488

>  <dipole>
1.71

>  <excitation_energy_1>
4.462

>  <excitation_energy_2>
4.511

>  <excitation_energy_3>
5.005

>  <excitation_energy_4>
5.058

>  <homo_energy>
-4.966

>  <homo_lumo_gap>
5.363

>  <logP>
2.061

>  <lumo_energy>
0.397

>  <melting_point>
17.5

>  <molecular_refractivity>
45.62

>  <oscillator_strength_1>
0.0497

>  <oscillator_strength_2>
0.0272

>  <oscillator_strength_3>
0.0007

>  <oscillator_strength_4>
0.0462

>  <open_babel_can_smiles>
Cc1cccc(c1)N(C)C

>  <mulliken_charges>
23
1   -0.528739
2   -0.307697
3   -0.308534
4   -0.134178
5   -0.190264
6   -0.198209
7   -0.254261
8   0.177221
9   0.369287
10   -0.472774
11   0.153289
12   0.161231
13   0.151806
14   0.151231
15   0.162262
16   0.147638
17   0.151222
18   0.147925
19   0.162368
20   0.119762
21   0.10966
22   0.117988
23   0.111765

>  <lowdin_charges>
23
1   -0.44254
2   -0.351958
3   -0.348472
4   -0.147547
5   -0.201276
6   -0.212917
7   -0.221972
8   0.010538
9   0.059377
10   -0.122597
11   0.155655
12   0.159386
13   0.155972
14   0.155926
15   0.152953
16   0.13963
17   0.154533
18   0.13752
19   0.154104
20   0.154027
21   0.150029
22   0.154841
23   0.154787

$$$$

