PCCDB-ID:  22788
public computational chemistry database (PCCDB) project, http://pccdb.org

 27 28  0  0  0  0  0  0  0  0999 V2000
    0.9763    0.0906   -0.2419 C   0  0  0  0  0  0  0  0  0  0  0  0
    3.8692    0.7460   -4.2925 C   0  0  0  0  0  0  0  0  0  0  0  0
    3.6110    1.8309   -3.4553 C   0  0  0  0  0  0  0  0  0  0  0  0
    3.7068   -0.5478   -3.7987 C   0  0  0  0  0  0  0  0  0  0  0  0
    3.0374   -0.3656    3.0134 C   0  0  0  0  0  0  0  0  0  0  0  0
    3.2018    1.6245   -2.1377 C   0  0  0  0  0  0  0  0  0  0  0  0
    3.2977   -0.7549   -2.4809 C   0  0  0  0  0  0  0  0  0  0  0  0
    2.5503   -1.5357    2.1569 C   0  0  0  0  0  0  0  0  0  0  0  0
    2.5234    0.9930    2.5337 C   0  0  0  0  0  0  0  0  0  0  0  0
    3.0487    0.3275   -1.6230 C   0  0  0  0  0  0  0  0  0  0  0  0
    2.5169    0.1051   -0.1993 C   0  0  0  0  0  0  0  0  0  0  0  0
    3.1771   -1.5268    0.4313 S   0  0  0  0  0  0  0  0  0  0  0  0
    3.1408    1.4988    0.8805 S   0  0  0  0  0  0  0  0  0  0  0  0
    0.6335   -0.7120   -0.9028 H   0  0  0  0  0  0  0  0  0  0  0  0
    0.6077    1.0452   -0.6308 H   0  0  0  0  0  0  0  0  0  0  0  0
    0.5321   -0.0687    0.7449 H   0  0  0  0  0  0  0  0  0  0  0  0
    4.1905    0.9070   -5.3180 H   0  0  0  0  0  0  0  0  0  0  0  0
    3.7269    2.8465   -3.8245 H   0  0  0  0  0  0  0  0  0  0  0  0
    3.8981   -1.4054   -4.4382 H   0  0  0  0  0  0  0  0  0  0  0  0
    4.1327   -0.3572    3.0348 H   0  0  0  0  0  0  0  0  0  0  0  0
    2.6862   -0.5227    4.0438 H   0  0  0  0  0  0  0  0  0  0  0  0
    2.9960    2.4853   -1.5098 H   0  0  0  0  0  0  0  0  0  0  0  0
    3.1660   -1.7717   -2.1258 H   0  0  0  0  0  0  0  0  0  0  0  0
    1.4557   -1.5929    2.1572 H   0  0  0  0  0  0  0  0  0  0  0  0
    2.9206   -2.4840    2.5600 H   0  0  0  0  0  0  0  0  0  0  0  0
    2.8779    1.7902    3.1954 H   0  0  0  0  0  0  0  0  0  0  0  0
    1.4278    1.0262    2.5512 H   0  0  0  0  0  0  0  0  0  0  0  0
  1 11  1  0  0  0  0
  1 16  1  0  0  0  0
  2  4  2  0  0  0  0
  2  3  1  0  0  0  0
  3  6  2  0  0  0  0
  4  7  1  0  0  0  0
  5 20  1  0  0  0  0
  5 21  1  0  0  0  0
  6 10  1  0  0  0  0
  6 22  1  0  0  0  0
  7 23  1  0  0  0  0
  7 10  2  0  0  0  0
  8 24  1  0  0  0  0
  8 25  1  0  0  0  0
  8  5  1  0  0  0  0
  9 27  1  0  0  0  0
  9  5  1  0  0  0  0
  9 26  1  0  0  0  0
 10 11  1  0  0  0  0
 11 12  1  0  0  0  0
 11 13  1  0  0  0  0
 12  8  1  0  0  0  0
 13  9  1  0  0  0  0
 14  1  1  0  0  0  0
 15  1  1  0  0  0  0
 17  2  1  0  0  0  0
 18  3  1  0  0  0  0
 19  4  1  0  0  0  0
M  END
>  <HBA>
2

>  <HBD>
0

>  <TPSA>
50.6

>  <cid>
22788

>  <dipole>
2.06

>  <excitation_energy_1>
4.544

>  <excitation_energy_2>
4.776

>  <excitation_energy_3>
4.868

>  <excitation_energy_4>
5.163

>  <homo_energy>
-5.714

>  <homo_lumo_gap>
5.551

>  <logP>
3.729

>  <lumo_energy>
-0.163

>  <melting_point>
51.96

>  <molecular_refractivity>
63.59

>  <oscillator_strength_1>
0.0071

>  <oscillator_strength_2>
0.0063

>  <oscillator_strength_3>
0.0119

>  <oscillator_strength_4>
0.0033

>  <open_babel_can_smiles>
CC1(SCCCS1)c1ccccc1

>  <mulliken_charges>
27
1   -0.425284
2   -0.124503
3   -0.133412
4   -0.133955
5   -0.25087
6   -0.178017
7   -0.178953
8   -0.427848
9   -0.427691
10   0.157265
11   -0.314795
12   0.112241
13   0.112365
14   0.168799
15   0.16838
16   0.148049
17   0.130245
18   0.131881
19   0.131965
20   0.171143
21   0.144845
22   0.15993
23   0.160737
24   0.16862
25   0.180232
26   0.180245
27   0.168385

>  <lowdin_charges>
27
1   -0.443292
2   -0.153578
3   -0.153122
4   -0.154985
5   -0.278284
6   -0.164475
7   -0.162781
8   -0.378565
9   -0.379905
10   -0.004724
11   -0.168368
12   0.09195
13   0.092181
14   0.164571
15   0.163362
16   0.14899
17   0.157046
18   0.158172
19   0.159805
20   0.159313
21   0.150105
22   0.173225
23   0.172048
24   0.151975
25   0.173272
26   0.174245
27   0.151821

$$$$

