PCCDB-ID:  17151
public computational chemistry database (PCCDB) project, http://pccdb.org

 26 26  0  0  1  0  0  0  0  0999 V2000
    5.4778   -1.6973    0.6219 C   0  0  0  0  0  0  0  0  0  0  0  0
    6.6556   -3.2935   -0.9198 C   0  0  0  0  0  0  0  0  0  0  0  0
    9.1938    3.7003    0.2054 C   0  0  0  0  0  0  0  0  0  0  0  0
    8.2368    2.5003    0.2769 C   0  0  0  0  0  0  0  0  0  0  0  0
    8.8073    4.3136   -1.1419 C   0  0  0  0  0  0  0  0  0  0  0  0
    6.7814    1.5594   -1.6422 C   0  0  0  0  0  0  0  0  0  0  0  0
    6.2411   -1.9221   -0.4552 C   0  0  0  0  0  0  0  0  0  0  0  0
    8.1565    2.0544   -1.1944 C   0  0  1  0  0  0  0  0  0  0  0  0
    6.7494   -0.7969   -1.2983 C   0  0  0  0  0  0  0  0  0  0  0  0
    7.4479   -0.9648   -2.2794 O   0  0  0  0  0  0  0  0  0  0  0  0
    8.4743    3.2090   -1.9894 O   0  0  0  0  0  0  0  0  0  0  0  0
    6.3520    0.4240   -0.8628 O   0  0  0  0  0  0  0  0  0  0  0  0
    5.1134   -2.5206    1.2307 H   0  0  0  0  0  0  0  0  0  0  0  0
    5.1980   -0.6943    0.9231 H   0  0  0  0  0  0  0  0  0  0  0  0
    6.2712   -4.0660   -0.2479 H   0  0  0  0  0  0  0  0  0  0  0  0
    7.7469   -3.3765   -0.9688 H   0  0  0  0  0  0  0  0  0  0  0  0
    6.2865   -3.4913   -1.9327 H   0  0  0  0  0  0  0  0  0  0  0  0
   10.2357    3.3603    0.1822 H   0  0  0  0  0  0  0  0  0  0  0  0
    9.0807    4.3966    1.0423 H   0  0  0  0  0  0  0  0  0  0  0  0
    7.2490    2.8204    0.6323 H   0  0  0  0  0  0  0  0  0  0  0  0
    8.5842    1.7015    0.9377 H   0  0  0  0  0  0  0  0  0  0  0  0
    9.6165    4.8755   -1.6202 H   0  0  0  0  0  0  0  0  0  0  0  0
    7.9407    4.9855   -1.0362 H   0  0  0  0  0  0  0  0  0  0  0  0
    6.8006    1.2943   -2.7010 H   0  0  0  0  0  0  0  0  0  0  0  0
    6.0277    2.3312   -1.4656 H   0  0  0  0  0  0  0  0  0  0  0  0
    8.8997    1.2747   -1.4084 H   0  0  0  0  0  0  0  0  0  0  0  0
  1 14  1  0  0  0  0
  1 13  1  0  0  0  0
  2  7  1  0  0  0  0
  2 15  1  0  0  0  0
  3  4  1  0  0  0  0
  3 19  1  0  0  0  0
  4 20  1  0  0  0  0
  4 21  1  0  0  0  0
  5 23  1  0  0  0  0
  5  3  1  0  0  0  0
  6 25  1  0  0  0  0
  6  8  1  0  0  0  0
  6 12  1  0  0  0  0
  7  1  2  0  0  0  0
  8 26  1  6  0  0  0
  8  4  1  0  0  0  0
  9 12  1  0  0  0  0
  9  7  1  0  0  0  0
 10  9  2  0  0  0  0
 11  8  1  0  0  0  0
 11  5  1  0  0  0  0
 16  2  1  0  0  0  0
 17  2  1  0  0  0  0
 18  3  1  0  0  0  0
 22  5  1  0  0  0  0
 24  6  1  0  0  0  0
M  END
>  <HBA>
3

>  <HBD>
0

>  <TPSA>
35.53

>  <cid>
17151

>  <dipole>
3.09

>  <excitation_energy_1>
4.776

>  <excitation_energy_2>
4.894

>  <excitation_energy_3>
5.858

>  <excitation_energy_4>
6.254

>  <homo_energy>
-6.667

>  <homo_lumo_gap>
5.578

>  <logP>
1.285

>  <lumo_energy>
-1.088

>  <melting_point>
-19.66

>  <molecular_refractivity>
45.16

>  <oscillator_strength_1>
0.0027

>  <oscillator_strength_2>
0.0107

>  <oscillator_strength_3>
0.218

>  <oscillator_strength_4>
0.0023

>  <open_babel_can_smiles>
CC(=C)C(=O)OC[C@@H]1CCCO1

>  <mulliken_charges>
26
1   -0.369425
2   -0.500092
3   -0.301927
4   -0.309051
5   -0.011543
6   -0.065526
7   0.125891
8   0.153233
9   0.594212
10   -0.482294
11   -0.507314
12   -0.483116
13   0.148531
14   0.171276
15   0.147054
16   0.173011
17   0.173769
18   0.151098
19   0.145088
20   0.143334
21   0.153721
22   0.145139
23   0.125513
24   0.181905
25   0.149561
26   0.147953

>  <lowdin_charges>
26
1   -0.302668
2   -0.43313
3   -0.292261
4   -0.294204
5   -0.131081
6   -0.140059
7   -0.027479
8   -0.009541
9   0.192473
10   -0.265842
11   -0.285012
12   -0.193112
13   0.164321
14   0.17425
15   0.156413
16   0.166944
17   0.16842
18   0.149145
19   0.154019
20   0.14687
21   0.158848
22   0.14853
23   0.129254
24   0.165159
25   0.153707
26   0.146035

$$$$

