PCCDB-ID:  68489
public computational chemistry database (PCCDB) project, http://pccdb.org

 27 27  0  0  0  0  0  0  0  0999 V2000
    2.1245    0.7812   -0.8084 C   0  0  0  0  0  0  0  0  0  0  0  0
    5.5788   -3.5122   -3.1715 C   0  0  0  0  0  0  0  0  0  0  0  0
    5.9594   -2.1545    3.8342 C   0  0  0  0  0  0  0  0  0  0  0  0
    5.3505   -3.1100    3.0165 C   0  0  0  0  0  0  0  0  0  0  0  0
    6.3224   -0.9155    3.3044 C   0  0  0  0  0  0  0  0  0  0  0  0
    5.1053   -2.8287    1.6734 C   0  0  0  0  0  0  0  0  0  0  0  0
    6.0797   -0.6321    1.9596 C   0  0  0  0  0  0  0  0  0  0  0  0
    3.5713    0.5087   -0.4785 C   0  0  0  0  0  0  0  0  0  0  0  0
    5.4648   -2.1933   -2.4496 C   0  0  0  0  0  0  0  0  0  0  0  0
    5.4720   -1.5880    1.1389 C   0  0  0  0  0  0  0  0  0  0  0  0
    5.1858   -1.2391   -0.2989 C   0  0  0  0  0  0  0  0  0  0  0  0
    4.4122    1.3468   -0.2432 O   0  0  0  0  0  0  0  0  0  0  0  0
    5.4775   -1.0988   -2.9586 O   0  0  0  0  0  0  0  0  0  0  0  0
    3.8118   -0.8306   -0.4707 O   0  0  0  0  0  0  0  0  0  0  0  0
    5.3400   -2.4001   -1.1019 O   0  0  0  0  0  0  0  0  0  0  0  0
    1.4714    0.2581   -0.1024 H   0  0  0  0  0  0  0  0  0  0  0  0
    1.8954    0.4042   -1.8106 H   0  0  0  0  0  0  0  0  0  0  0  0
    1.9390    1.8548   -0.7647 H   0  0  0  0  0  0  0  0  0  0  0  0
    5.7694   -3.3310   -4.2297 H   0  0  0  0  0  0  0  0  0  0  0  0
    4.6481   -4.0781   -3.0558 H   0  0  0  0  0  0  0  0  0  0  0  0
    6.3839   -4.1145   -2.7395 H   0  0  0  0  0  0  0  0  0  0  0  0
    6.1509   -2.3763    4.8808 H   0  0  0  0  0  0  0  0  0  0  0  0
    5.0681   -4.0764    3.4257 H   0  0  0  0  0  0  0  0  0  0  0  0
    6.7971   -0.1697    3.9361 H   0  0  0  0  0  0  0  0  0  0  0  0
    4.6413   -3.5719    1.0329 H   0  0  0  0  0  0  0  0  0  0  0  0
    6.3449    0.3363    1.5450 H   0  0  0  0  0  0  0  0  0  0  0  0
    5.8237   -0.4355   -0.6650 H   0  0  0  0  0  0  0  0  0  0  0  0
  1 18  1  0  0  0  0
  1  8  1  0  0  0  0
  1 16  1  0  0  0  0
  2 20  1  0  0  0  0
  2 21  1  0  0  0  0
  2  9  1  0  0  0  0
  3 22  1  0  0  0  0
  4 23  1  0  0  0  0
  4  3  2  0  0  0  0
  5  3  1  0  0  0  0
  5 24  1  0  0  0  0
  6  4  1  0  0  0  0
  7  5  2  0  0  0  0
  8 14  1  0  0  0  0
  8 12  2  0  0  0  0
  9 15  1  0  0  0  0
 10  6  2  0  0  0  0
 10  7  1  0  0  0  0
 11 10  1  0  0  0  0
 13  9  2  0  0  0  0
 14 11  1  0  0  0  0
 15 11  1  0  0  0  0
 17  1  1  0  0  0  0
 19  2  1  0  0  0  0
 25  6  1  0  0  0  0
 26  7  1  0  0  0  0
 27 11  1  0  0  0  0
M  END
>  <HBA>
4

>  <HBD>
0

>  <TPSA>
52.6

>  <cid>
68489

>  <dipole>
3.09

>  <excitation_energy_1>
5.298

>  <excitation_energy_2>
5.715

>  <excitation_energy_3>
5.759

>  <excitation_energy_4>
5.87

>  <homo_energy>
-6.857

>  <homo_lumo_gap>
6.422

>  <logP>
1.811

>  <lumo_energy>
-0.435

>  <melting_point>
29.38

>  <molecular_refractivity>
53.21

>  <oscillator_strength_1>
0.0022

>  <oscillator_strength_2>
0.0049

>  <oscillator_strength_3>
0.0053

>  <oscillator_strength_4>
0.0685

>  <open_babel_can_smiles>
CC(=O)OC(c1ccccc1)OC(=O)C

>  <mulliken_charges>
27
1   -0.527174
2   -0.528688
3   -0.122538
4   -0.134036
5   -0.135014
6   -0.158275
7   -0.175091
8   0.620646
9   0.61528
10   0.113836
11   0.274317
12   -0.462801
13   -0.451001
14   -0.465187
15   -0.479141
16   0.183445
17   0.188692
18   0.184292
19   0.186879
20   0.187714
21   0.186556
22   0.133182
23   0.13301
24   0.136068
25   0.144206
26   0.159782
27   0.19104

>  <lowdin_charges>
27
1   -0.462884
2   -0.462685
3   -0.148591
4   -0.154897
5   -0.155728
6   -0.15036
7   -0.152338
8   0.21644
9   0.213045
10   -0.028109
11   0.111165
12   -0.260268
13   -0.245514
14   -0.198946
15   -0.186785
16   0.180041
17   0.181002
18   0.175359
19   0.176981
20   0.181623
21   0.181238
22   0.158045
23   0.158971
24   0.162284
25   0.166939
26   0.171306
27   0.172666

$$$$

