PCCDB-ID:  20177
public computational chemistry database (PCCDB) project, http://pccdb.org

 17 16  0  0  0  0  0  0  0  0999 V2000
    1.5759    0.5708   -1.3707 C   0  0  0  0  0  0  0  0  0  0  0  0
   -1.3763    3.5345    0.9030 C   0  0  0  0  0  0  0  0  0  0  0  0
    0.4967    1.6243   -1.5870 C   0  0  0  0  0  0  0  0  0  0  0  0
   -0.4330    3.4395   -0.2757 C   0  0  0  0  0  0  0  0  0  0  0  0
    1.9940   -0.1393   -2.5637 N   0  0  0  0  0  0  0  0  0  0  0  0
   -1.5735    4.9259    1.2737 N   0  0  0  0  0  0  0  0  0  0  0  0
    0.0109    1.9344   -2.6384 O   0  0  0  0  0  0  0  0  0  0  0  0
   -0.1642    4.3275   -1.0350 O   0  0  0  0  0  0  0  0  0  0  0  0
    0.0986    2.1569   -0.3608 O   0  0  0  0  0  0  0  0  0  0  0  0
    1.2152   -0.1388   -0.6157 H   0  0  0  0  0  0  0  0  0  0  0  0
    2.4384    1.0734   -0.9135 H   0  0  0  0  0  0  0  0  0  0  0  0
   -0.9493    2.9694    1.7399 H   0  0  0  0  0  0  0  0  0  0  0  0
   -2.2859    2.9816    0.5936 H   0  0  0  0  0  0  0  0  0  0  0  0
    2.3114    0.5326   -3.2608 H   0  0  0  0  0  0  0  0  0  0  0  0
    1.1883   -0.5999   -2.9841 H   0  0  0  0  0  0  0  0  0  0  0  0
   -1.7141    5.4826    0.4332 H   0  0  0  0  0  0  0  0  0  0  0  0
   -2.4031    5.0220    1.8532 H   0  0  0  0  0  0  0  0  0  0  0  0
  1 11  1  0  0  0  0
  1 10  1  0  0  0  0
  2  6  1  0  0  0  0
  2 12  1  0  0  0  0
  3  1  1  0  0  0  0
  3  9  1  0  0  0  0
  4  2  1  0  0  0  0
  5  1  1  0  0  0  0
  6 17  1  0  0  0  0
  7  3  2  0  0  0  0
  8  4  2  0  0  0  0
  9  4  1  0  0  0  0
 13  2  1  0  0  0  0
 14  5  1  0  0  0  0
 15  5  1  0  0  0  0
 16  6  1  0  0  0  0
M  END
>  <HBA>
5

>  <HBD>
2

>  <TPSA>
95.41

>  <cid>
20177

>  <dipole>
2.88

>  <excitation_energy_1>
4.834

>  <excitation_energy_2>
4.98

>  <excitation_energy_3>
5.459

>  <excitation_energy_4>
5.663

>  <homo_energy>
-6.716

>  <homo_lumo_gap>
5.812

>  <logP>
-0.626

>  <lumo_energy>
-0.903

>  <melting_point>
117.09

>  <molecular_refractivity>
28.24

>  <oscillator_strength_1>
0.0071

>  <oscillator_strength_2>
0.0092

>  <oscillator_strength_3>
0.0007

>  <oscillator_strength_4>
0.0

>  <open_babel_can_smiles>
NCC(=O)OC(=O)CN

>  <mulliken_charges>
17
1   -0.244293
2   -0.217934
3   0.589038
4   0.623986
5   -0.684082
6   -0.714971
7   -0.412739
8   -0.412196
9   -0.490417
10   0.185755
11   0.189731
12   0.182021
13   0.159569
14   0.312826
15   0.308869
16   0.320133
17   0.304702

>  <lowdin_charges>
17
1   -0.240261
2   -0.230958
3   0.200911
4   0.223814
5   -0.534122
6   -0.550922
7   -0.206752
8   -0.202575
9   -0.193341
10   0.174726
11   0.176837
12   0.170337
13   0.151239
14   0.266196
15   0.263643
16   0.269056
17   0.262171

$$$$

