PCCDB-ID:  18395
public computational chemistry database (PCCDB) project, http://pccdb.org

 31 30  0  0  0  0  0  0  0  0999 V2000
    1.0285    0.0969   -0.0637 C   0  0  0  0  0  0  0  0  0  0  0  0
    3.0346    1.4510   -0.7149 C   0  0  0  0  0  0  0  0  0  0  0  0
    2.9807    0.2556    1.5008 C   0  0  0  0  0  0  0  0  0  0  0  0
    4.6744   -1.2396   -0.6849 C   0  0  0  0  0  0  0  0  0  0  0  0
    5.1182   -2.5384   -1.3734 C   0  0  0  0  0  0  0  0  0  0  0  0
    3.1455   -1.0947   -0.6541 C   0  0  0  0  0  0  0  0  0  0  0  0
    6.6320   -2.6827   -1.4023 C   0  0  0  0  0  0  0  0  0  0  0  0
    8.2276   -4.2314   -2.1938 C   0  0  0  0  0  0  0  0  0  0  0  0
    2.5661    0.1785    0.0180 C   0  0  0  0  0  0  0  0  0  0  0  0
    9.1689   -3.4928   -1.7554 N   0  0  0  0  0  0  0  0  0  0  0  0
    8.2949   -5.4248   -2.8458 O   0  0  0  0  0  0  0  0  0  0  0  0
    6.9339   -3.9237   -2.0706 O   0  0  0  0  0  0  0  0  0  0  0  0
    0.5618    0.9761    0.3972 H   0  0  0  0  0  0  0  0  0  0  0  0
    0.6508   -0.7929    0.4552 H   0  0  0  0  0  0  0  0  0  0  0  0
    0.6889    0.0460   -1.1057 H   0  0  0  0  0  0  0  0  0  0  0  0
    2.5631    2.3422   -0.2829 H   0  0  0  0  0  0  0  0  0  0  0  0
    2.7675    1.4163   -1.7788 H   0  0  0  0  0  0  0  0  0  0  0  0
    4.1194    1.5887   -0.6455 H   0  0  0  0  0  0  0  0  0  0  0  0
    2.5046    1.1134    1.9915 H   0  0  0  0  0  0  0  0  0  0  0  0
    4.0640    0.3715    1.6182 H   0  0  0  0  0  0  0  0  0  0  0  0
    2.6784   -0.6484    2.0447 H   0  0  0  0  0  0  0  0  0  0  0  0
    5.1232   -0.3848   -1.2084 H   0  0  0  0  0  0  0  0  0  0  0  0
    5.0751   -1.2193    0.3376 H   0  0  0  0  0  0  0  0  0  0  0  0
    4.7379   -2.5672   -2.4029 H   0  0  0  0  0  0  0  0  0  0  0  0
    4.6872   -3.4053   -0.8557 H   0  0  0  0  0  0  0  0  0  0  0  0
    2.7226   -1.9733   -0.1443 H   0  0  0  0  0  0  0  0  0  0  0  0
    2.7708   -1.1383   -1.6876 H   0  0  0  0  0  0  0  0  0  0  0  0
    7.0625   -2.7077   -0.3952 H   0  0  0  0  0  0  0  0  0  0  0  0
    7.1136   -1.8612   -1.9443 H   0  0  0  0  0  0  0  0  0  0  0  0
   10.0905   -3.8882   -1.9399 H   0  0  0  0  0  0  0  0  0  0  0  0
    9.2290   -5.6636   -2.9447 H   0  0  0  0  0  0  0  0  0  0  0  0
  1  9  1  0  0  0  0
  1 13  1  0  0  0  0
  1 14  1  0  0  0  0
  2 18  1  0  0  0  0
  2 16  1  0  0  0  0
  2  9  1  0  0  0  0
  3 20  1  0  0  0  0
  3 19  1  0  0  0  0
  3 21  1  0  0  0  0
  4  6  1  0  0  0  0
  4 23  1  0  0  0  0
  5 25  1  0  0  0  0
  5  4  1  0  0  0  0
  6 26  1  0  0  0  0
  6  9  1  0  0  0  0
  7  5  1  0  0  0  0
  7 28  1  0  0  0  0
  8 12  1  0  0  0  0
  8 10  2  0  0  0  0
  9  3  1  0  0  0  0
 11  8  1  0  0  0  0
 12  7  1  0  0  0  0
 15  1  1  0  0  0  0
 17  2  1  0  0  0  0
 22  4  1  0  0  0  0
 24  5  1  0  0  0  0
 27  6  1  0  0  0  0
 29  7  1  0  0  0  0
 30 10  1  0  0  0  0
 31 11  1  0  0  0  0
M  END
>  <HBA>
3

>  <HBD>
1

>  <TPSA>
52.32

>  <cid>
18395

>  <dipole>
0.9

>  <excitation_energy_1>
5.886

>  <excitation_energy_2>
6.393

>  <excitation_energy_3>
7.055

>  <excitation_energy_4>
7.212

>  <homo_energy>
-7.01

>  <homo_lumo_gap>
8.327

>  <logP>
2.998

>  <lumo_energy>
1.317

>  <melting_point>
67.15

>  <molecular_refractivity>
49.5

>  <oscillator_strength_1>
0.0051

>  <oscillator_strength_2>
0.0501

>  <oscillator_strength_3>
0.0065

>  <oscillator_strength_4>
0.0038

>  <open_babel_can_smiles>
OC(=N)OCCCCC(C)(C)C

>  <mulliken_charges>
31
1   -0.441035
2   -0.445844
3   -0.446065
4   -0.276006
5   -0.278814
6   -0.24702
7   -0.01723
8   0.645276
9   0.101523
10   -0.630016
11   -0.571278
12   -0.450123
13   0.136985
14   0.137384
15   0.13739
16   0.138086
17   0.136827
18   0.142143
19   0.138051
20   0.14226
21   0.136844
22   0.136916
23   0.13711
24   0.146777
25   0.146652
26   0.12485
27   0.124931
28   0.156452
29   0.15618
30   0.274103
31   0.406691

>  <lowdin_charges>
31
1   -0.441991
2   -0.441631
3   -0.444329
4   -0.278715
5   -0.279728
6   -0.272576
7   -0.119091
8   0.189108
9   0.015117
10   -0.473267
11   -0.365706
12   -0.179185
13   0.146929
14   0.146727
15   0.145092
16   0.148073
17   0.144647
18   0.145281
19   0.148395
20   0.14539
21   0.14662
22   0.142973
23   0.141355
24   0.147849
25   0.149522
26   0.13973
27   0.138066
28   0.149902
29   0.151787
30   0.255203
31   0.358453

$$$$

