PCCDB-ID:  3672
public computational chemistry database (PCCDB) project, http://pccdb.org

 33 33  0  0  1  0  0  0  0  0999 V2000
    1.1394   -1.0487    0.6143 C   0  0  0  0  0  0  0  0  0  0  0  0
    2.8112   -0.0503   -0.9995 C   0  0  0  0  0  0  0  0  0  0  0  0
   10.0469   -1.2862    1.8006 C   0  0  0  0  0  0  0  0  0  0  0  0
    5.6455   -1.7947    1.2377 C   0  0  0  0  0  0  0  0  0  0  0  0
    5.7224    0.5872    0.9617 C   0  0  0  0  0  0  0  0  0  0  0  0
    7.0189   -1.8696    1.0262 C   0  0  0  0  0  0  0  0  0  0  0  0
    7.1011    0.5162    0.7478 C   0  0  0  0  0  0  0  0  0  0  0  0
    3.4720   -0.5042    1.4307 C   0  0  0  0  0  0  0  0  0  0  0  0
    2.6204   -0.9631    0.2191 C   0  0  0  0  0  0  0  0  0  0  0  0
    9.2810   -0.7865    0.5663 C   0  0  2  0  0  0  0  0  0  0  0  0
    4.9683   -0.5648    1.2101 C   0  0  0  0  0  0  0  0  0  0  0  0
    7.7750   -0.7109    0.7792 C   0  0  0  0  0  0  0  0  0  0  0  0
    9.6649   -1.6127   -0.6785 C   0  0  0  0  0  0  0  0  0  0  0  0
   10.6595   -2.2902   -0.7566 O   0  0  0  0  0  0  0  0  0  0  0  0
    8.8320   -1.4918   -1.7429 O   0  0  0  0  0  0  0  0  0  0  0  0
    0.5263   -1.3931   -0.2266 H   0  0  0  0  0  0  0  0  0  0  0  0
    0.7579   -0.0664    0.9221 H   0  0  0  0  0  0  0  0  0  0  0  0
    0.9856   -1.7426    1.4493 H   0  0  0  0  0  0  0  0  0  0  0  0
    2.2325   -0.4160   -1.8556 H   0  0  0  0  0  0  0  0  0  0  0  0
    3.8616    0.0064   -1.3037 H   0  0  0  0  0  0  0  0  0  0  0  0
    2.4695    0.9701   -0.7802 H   0  0  0  0  0  0  0  0  0  0  0  0
    9.8571   -0.6291    2.6548 H   0  0  0  0  0  0  0  0  0  0  0  0
   11.1196   -1.3100    1.5948 H   0  0  0  0  0  0  0  0  0  0  0  0
    9.7382   -2.3006    2.0721 H   0  0  0  0  0  0  0  0  0  0  0  0
    5.0868   -2.7073    1.4335 H   0  0  0  0  0  0  0  0  0  0  0  0
    5.2282    1.5558    0.9406 H   0  0  0  0  0  0  0  0  0  0  0  0
    7.5115   -2.8388    1.0555 H   0  0  0  0  0  0  0  0  0  0  0  0
    7.6616    1.4310    0.5662 H   0  0  0  0  0  0  0  0  0  0  0  0
    3.2120   -1.1344    2.2919 H   0  0  0  0  0  0  0  0  0  0  0  0
    3.1804    0.5208    1.6975 H   0  0  0  0  0  0  0  0  0  0  0  0
    2.9575   -1.9733   -0.0571 H   0  0  0  0  0  0  0  0  0  0  0  0
    9.6318    0.2319    0.3392 H   0  0  0  0  0  0  0  0  0  0  0  0
    8.0488   -0.9765   -1.4777 H   0  0  0  0  0  0  0  0  0  0  0  0
  1 17  1  0  0  0  0
  1 18  1  0  0  0  0
  2 21  1  0  0  0  0
  2  9  1  0  0  0  0
  3 24  1  0  0  0  0
  3 22  1  0  0  0  0
  4 25  1  0  0  0  0
  5 11  2  0  0  0  0
  6 27  1  0  0  0  0
  6  4  2  0  0  0  0
  7 12  2  0  0  0  0
  7  5  1  0  0  0  0
  8 30  1  0  0  0  0
  8 29  1  0  0  0  0
  9  1  1  0  0  0  0
  9  8  1  0  0  0  0
 10 32  1  6  0  0  0
 10 12  1  0  0  0  0
 10  3  1  0  0  0  0
 11  4  1  0  0  0  0
 11  8  1  0  0  0  0
 12  6  1  0  0  0  0
 13 10  1  0  0  0  0
 14 13  2  0  0  0  0
 15 33  1  0  0  0  0
 15 13  1  0  0  0  0
 16  1  1  0  0  0  0
 19  2  1  0  0  0  0
 20  2  1  0  0  0  0
 23  3  1  0  0  0  0
 26  5  1  0  0  0  0
 28  7  1  0  0  0  0
 31  9  1  0  0  0  0
M  END
>  <HBA>
2

>  <HBD>
1

>  <TPSA>
37.3

>  <cid>
3672

>  <dipole>
4.92

>  <excitation_energy_1>
5.132

>  <excitation_energy_2>
5.454

>  <excitation_energy_3>
5.619

>  <excitation_energy_4>
5.933

>  <homo_energy>
-6.659

>  <homo_lumo_gap>
6.153

>  <logP>
3.073

>  <lumo_energy>
-0.506

>  <melting_point>
85.83

>  <molecular_refractivity>
62.18

>  <oscillator_strength_1>
0.0016

>  <oscillator_strength_2>
0.0257

>  <oscillator_strength_3>
0.1466

>  <oscillator_strength_4>
0.0056

>  <open_babel_can_smiles>
CC(Cc1ccc(cc1)[C@H](C(=O)O)C)C

>  <mulliken_charges>
33
1   -0.441469
2   -0.444907
3   -0.433121
4   -0.180272
5   -0.180423
6   -0.168977
7   -0.194899
8   -0.345686
9   -0.066807
10   -0.277846
11   0.176572
12   0.099027
13   0.605475
14   -0.4484
15   -0.571051
16   0.145378
17   0.141049
18   0.141203
19   0.144894
20   0.148724
21   0.136631
22   0.147508
23   0.175354
24   0.157285
25   0.132777
26   0.131524
27   0.144934
28   0.133044
29   0.144567
30   0.13796
31   0.128923
32   0.16825
33   0.41278

>  <lowdin_charges>
33
1   -0.445687
2   -0.446436
3   -0.432912
4   -0.16006
5   -0.165305
6   -0.160384
7   -0.17401
8   -0.274972
9   -0.116357
10   -0.162044
11   0.004441
12   -0.032507
13   0.186634
14   -0.239705
15   -0.355234
16   0.151996
17   0.146488
18   0.148605
19   0.151722
20   0.15129
21   0.143651
22   0.154546
23   0.166876
24   0.155866
25   0.159522
26   0.158597
27   0.16343
28   0.158351
29   0.152977
30   0.14646
31   0.137506
32   0.166204
33   0.360453

$$$$

