PCCDB-ID:  19409
public computational chemistry database (PCCDB) project, http://pccdb.org

 20 20  0  0  0  0  0  0  0  0999 V2000
    0.6902   -0.0193    0.1999 C   0  0  0  0  0  0  0  0  0  0  0  0
    2.9327   -1.1571   -0.1400 C   0  0  0  0  0  0  0  0  0  0  0  0
    2.8691    1.2432   -0.0663 C   0  0  0  0  0  0  0  0  0  0  0  0
    4.3117   -1.1158   -0.3453 C   0  0  0  0  0  0  0  0  0  0  0  0
    4.2458    1.2886   -0.2716 C   0  0  0  0  0  0  0  0  0  0  0  0
    6.4851    0.1539   -0.6149 C   0  0  0  0  0  0  0  0  0  0  0  0
    7.3009   -0.1789    1.7746 C   0  0  0  0  0  0  0  0  0  0  0  0
    2.1873    0.0198    0.0005 C   0  0  0  0  0  0  0  0  0  0  0  0
    4.9837    0.1077   -0.4143 C   0  0  0  0  0  0  0  0  0  0  0  0
    7.2301    0.1134    0.6201 N   0  0  0  0  0  0  0  0  0  0  0  0
    7.5142   -0.5245    3.3159 S   0  0  0  0  0  0  0  0  0  0  0  0
    0.3448   -1.0289    0.4425 H   0  0  0  0  0  0  0  0  0  0  0  0
    0.1606    0.3026   -0.7062 H   0  0  0  0  0  0  0  0  0  0  0  0
    0.3771    0.6488    1.0104 H   0  0  0  0  0  0  0  0  0  0  0  0
    2.4283   -2.1191   -0.0918 H   0  0  0  0  0  0  0  0  0  0  0  0
    2.3131    2.1718    0.0426 H   0  0  0  0  0  0  0  0  0  0  0  0
    4.8684   -2.0444   -0.4511 H   0  0  0  0  0  0  0  0  0  0  0  0
    4.7527    2.2499   -0.3170 H   0  0  0  0  0  0  0  0  0  0  0  0
    6.7750    1.0688   -1.1429 H   0  0  0  0  0  0  0  0  0  0  0  0
    6.8195   -0.6901   -1.2306 H   0  0  0  0  0  0  0  0  0  0  0  0
  1 12  1  0  0  0  0
  1 14  1  0  0  0  0
  2 15  1  0  0  0  0
  2  8  2  0  0  0  0
  3  8  1  0  0  0  0
  3 16  1  0  0  0  0
  4  2  1  0  0  0  0
  5  3  2  0  0  0  0
  6  9  1  0  0  0  0
  6 10  1  0  0  0  0
  7 11  2  0  0  0  0
  8  1  1  0  0  0  0
  9  4  2  0  0  0  0
  9  5  1  0  0  0  0
 10  7  2  0  0  0  0
 13  1  1  0  0  0  0
 17  4  1  0  0  0  0
 18  5  1  0  0  0  0
 19  6  1  0  0  0  0
 20  6  1  0  0  0  0
M  END
>  <HBA>
2

>  <HBD>
0

>  <TPSA>
44.45

>  <cid>
19409

>  <dipole>
4.15

>  <excitation_energy_1>
4.563

>  <excitation_energy_2>
5.018

>  <excitation_energy_3>
5.133

>  <excitation_energy_4>
5.37

>  <homo_energy>
-6.504

>  <homo_lumo_gap>
5.812

>  <logP>
2.598

>  <lumo_energy>
-0.691

>  <melting_point>
60.74

>  <molecular_refractivity>
50.34

>  <oscillator_strength_1>
0.0011

>  <oscillator_strength_2>
0.0572

>  <oscillator_strength_3>
0.0054

>  <oscillator_strength_4>
0.0558

>  <open_babel_can_smiles>
S=C=NCc1ccc(cc1)C

>  <mulliken_charges>
20
1   -0.531324
2   -0.179744
3   -0.174868
4   -0.166351
5   -0.167511
6   -0.238734
7   0.222033
8   0.179815
9   0.148425
10   -0.339901
11   -0.134865
12   0.159328
13   0.167745
14   0.165254
15   0.129972
16   0.129423
17   0.13461
18   0.133984
19   0.180968
20   0.181743

>  <lowdin_charges>
20
1   -0.443144
2   -0.162806
3   -0.161425
4   -0.155722
5   -0.154619
6   -0.168323
7   -0.045303
8   0.009666
9   -0.02376
10   -0.104691
11   -0.051124
12   0.158645
13   0.164113
14   0.163601
15   0.158357
16   0.158541
17   0.160155
18   0.159534
19   0.168566
20   0.16974

$$$$

