PCCDB-ID:  28971
public computational chemistry database (PCCDB) project, http://pccdb.org

 22 22  0  0  1  0  0  0  0  0999 V2000
    0.0566    1.2435    0.4557 C   0  0  0  0  0  0  0  0  0  0  0  0
   -1.0583    0.6666   -0.4550 C   0  0  0  0  0  0  0  0  0  0  0  0
    1.6017   -0.6526    1.4479 C   0  0  0  0  0  0  0  0  0  0  0  0
   -0.4001   -1.6890   -1.4483 C   0  0  0  0  0  0  0  0  0  0  0  0
    0.8632   -0.0681    0.2495 C   0  0  1  0  0  0  0  0  0  0  0  0
   -0.4535   -0.7498   -0.2495 C   0  0  1  0  0  0  0  0  0  0  0  0
    2.1796   -1.9664    1.1316 N   0  0  0  0  0  0  0  0  0  0  0  0
    0.3366   -2.9199   -1.1283 N   0  0  0  0  0  0  0  0  0  0  0  0
   -0.2802    1.3473    1.4942 H   0  0  0  0  0  0  0  0  0  0  0  0
    0.5290    2.1829    0.1506 H   0  0  0  0  0  0  0  0  0  0  0  0
   -0.9486    1.0025   -1.4933 H   0  0  0  0  0  0  0  0  0  0  0  0
   -2.0982    0.8235   -0.1503 H   0  0  0  0  0  0  0  0  0  0  0  0
    0.9118   -0.6710    2.3129 H   0  0  0  0  0  0  0  0  0  0  0  0
    2.4252    0.0207    1.7212 H   0  0  0  0  0  0  0  0  0  0  0  0
    0.0172   -1.1362   -2.3111 H   0  0  0  0  0  0  0  0  0  0  0  0
   -1.4245   -1.9719   -1.7257 H   0  0  0  0  0  0  0  0  0  0  0  0
    1.5674    0.0367   -0.5871 H   0  0  0  0  0  0  0  0  0  0  0  0
   -0.9462   -1.2652    0.5861 H   0  0  0  0  0  0  0  0  0  0  0  0
    1.4272   -2.6486    1.0337 H   0  0  0  0  0  0  0  0  0  0  0  0
    2.7607   -2.2840    1.9058 H   0  0  0  0  0  0  0  0  0  0  0  0
    1.3272   -2.6992   -1.0212 H   0  0  0  0  0  0  0  0  0  0  0  0
    0.2675   -3.5759   -1.9047 H   0  0  0  0  0  0  0  0  0  0  0  0
  1  9  1  0  0  0  0
  2  6  1  0  0  0  0
  2 12  1  0  0  0  0
  2  1  1  0  0  0  0
  3 14  1  0  0  0  0
  3 13  1  0  0  0  0
  4  8  1  0  0  0  0
  4  6  1  0  0  0  0
  5 17  1  6  0  0  0
  5  1  1  0  0  0  0
  5  3  1  0  0  0  0
  6  5  1  0  0  0  0
  6 18  1  1  0  0  0
  7  3  1  0  0  0  0
  7 20  1  0  0  0  0
  8 21  1  0  0  0  0
 10  1  1  0  0  0  0
 11  2  1  0  0  0  0
 15  4  1  0  0  0  0
 16  4  1  0  0  0  0
 19  7  1  0  0  0  0
 22  8  1  0  0  0  0
M  END
>  <HBA>
2

>  <HBD>
2

>  <TPSA>
52.04

>  <cid>
28971

>  <dipole>
0.11

>  <excitation_energy_1>
5.701

>  <excitation_energy_2>
5.808

>  <excitation_energy_3>
6.243

>  <excitation_energy_4>
6.271

>  <homo_energy>
-6.166

>  <homo_lumo_gap>
8.446

>  <logP>
1.331

>  <lumo_energy>
2.28

>  <melting_point>
104.51

>  <molecular_refractivity>
34.26

>  <oscillator_strength_1>
0.0004

>  <oscillator_strength_2>
0.0183

>  <oscillator_strength_3>
0.0353

>  <oscillator_strength_4>
0.0167

>  <open_babel_can_smiles>
NC[C@@H]1CC[C@H]1CN

>  <mulliken_charges>
22
1   -0.289599
2   -0.289749
3   -0.144475
4   -0.144174
5   -0.073192
6   -0.072872
7   -0.740111
8   -0.740723
9   0.133271
10   0.134056
11   0.133252
12   0.134025
13   0.108145
14   0.134625
15   0.108011
16   0.134504
17   0.124427
18   0.124401
19   0.318254
20   0.294812
21   0.318505
22   0.29461

>  <lowdin_charges>
22
1   -0.284006
2   -0.282662
3   -0.206226
4   -0.205379
5   -0.139123
6   -0.139199
7   -0.570231
8   -0.567216
9   0.141839
10   0.141811
11   0.141806
12   0.140555
13   0.115631
14   0.142557
15   0.116097
16   0.140526
17   0.142353
18   0.142781
19   0.260709
20   0.254792
21   0.258308
22   0.254279

$$$$

