PCCDB-ID:  39386
public computational chemistry database (PCCDB) project, http://pccdb.org

 22 21  0  0  1  0  0  0  0  0999 V2000
    0.8526    1.9510    2.2152 C   0  0  0  0  0  0  0  0  0  0  0  0
    9.7046   -0.5992    0.6120 C   0  0  0  0  0  0  0  0  0  0  0  0
    2.1898    1.4376    1.9385 C   0  0  0  0  0  0  0  0  0  0  0  0
    3.3064    1.0229    1.7014 C   0  0  0  0  0  0  0  0  0  0  0  0
    4.5933    0.5092    1.4044 C   0  0  0  0  0  0  0  0  0  0  0  0
    5.7600    1.1037    1.7512 C   0  0  0  0  0  0  0  0  0  0  0  0
    7.0648    0.5613    1.4312 C   0  0  0  0  0  0  0  0  0  0  0  0
    8.2261    1.1475    1.7786 C   0  0  0  0  0  0  0  0  0  0  0  0
    9.6204    0.6692    1.4612 C   0  0  2  0  0  0  0  0  0  0  0  0
   10.3685    1.7416    0.8642 O   0  0  0  0  0  0  0  0  0  0  0  0
    0.0810    1.3183    1.7602 H   0  0  0  0  0  0  0  0  0  0  0  0
    0.7274    2.9663    1.8182 H   0  0  0  0  0  0  0  0  0  0  0  0
    0.6550    1.9929    3.2938 H   0  0  0  0  0  0  0  0  0  0  0  0
    9.2478   -1.4559    1.1203 H   0  0  0  0  0  0  0  0  0  0  0  0
   10.7548   -0.8325    0.4152 H   0  0  0  0  0  0  0  0  0  0  0  0
    9.1981   -0.4646   -0.3519 H   0  0  0  0  0  0  0  0  0  0  0  0
    4.6279   -0.4310    0.8517 H   0  0  0  0  0  0  0  0  0  0  0  0
    5.7314    2.0415    2.3038 H   0  0  0  0  0  0  0  0  0  0  0  0
    7.0741   -0.3780    0.8792 H   0  0  0  0  0  0  0  0  0  0  0  0
    8.1994    2.0881    2.3302 H   0  0  0  0  0  0  0  0  0  0  0  0
   10.1479    0.4896    2.4083 H   0  0  0  0  0  0  0  0  0  0  0  0
    9.8799    2.0111    0.0690 H   0  0  0  0  0  0  0  0  0  0  0  0
  1 13  1  0  0  0  0
  2 14  1  0  0  0  0
  2  9  1  0  0  0  0
  3  1  1  0  0  0  0
  4  3  3  0  0  0  0
  5  4  1  0  0  0  0
  5  6  2  0  0  0  0
  6 18  1  0  0  0  0
  7  6  1  0  0  0  0
  7  8  2  0  0  0  0
  8 20  1  0  0  0  0
  9  8  1  0  0  0  0
  9 21  1  1  0  0  0
 10  9  1  0  0  0  0
 11  1  1  0  0  0  0
 12  1  1  0  0  0  0
 15  2  1  0  0  0  0
 16  2  1  0  0  0  0
 17  5  1  0  0  0  0
 19  7  1  0  0  0  0
 22 10  1  0  0  0  0
M  END
>  <HBA>
1

>  <HBD>
1

>  <TPSA>
20.23

>  <cid>
39386

>  <dipole>
1.87

>  <excitation_energy_1>
4.426

>  <excitation_energy_2>
4.573

>  <excitation_energy_3>
5.349

>  <excitation_energy_4>
5.371

>  <homo_energy>
-5.655

>  <homo_lumo_gap>
4.427

>  <logP>
1.503

>  <lumo_energy>
-1.227

>  <melting_point>
26.99

>  <molecular_refractivity>
43.75

>  <oscillator_strength_1>
1.0136

>  <oscillator_strength_2>
0.0013

>  <oscillator_strength_3>
0.0032

>  <oscillator_strength_4>
0.0031

>  <open_babel_can_smiles>
CC#C/C=C/C=C/[C@H](O)C

>  <mulliken_charges>
22
1   -0.575103
2   -0.462395
3   -0.031696
4   0.135515
5   -0.277916
6   -0.095271
7   -0.087646
8   -0.169429
9   0.103633
10   -0.617002
11   0.181786
12   0.182259
13   0.182046
14   0.148167
15   0.162082
16   0.13885
17   0.149834
18   0.13658
19   0.127774
20   0.136587
21   0.148645
22   0.382701

>  <lowdin_charges>
22
1   -0.422414
2   -0.46047
3   -0.062585
4   -0.08008
5   -0.152624
6   -0.134904
7   -0.161256
8   -0.181156
9   0.003525
10   -0.463831
11   0.175512
12   0.174184
13   0.173238
14   0.155889
15   0.161358
16   0.146828
17   0.165229
18   0.160743
19   0.154961
20   0.157311
21   0.151467
22   0.339077

$$$$

