PCCDB-ID:  34023
public computational chemistry database (PCCDB) project, http://pccdb.org

 22 21  0  0  1  0  0  0  0  0999 V2000
    4.0399   -1.0341    0.8099 C   0  0  0  0  0  0  0  0  0  0  0  0
    2.0373   -1.7843   -0.5063 C   0  0  0  0  0  0  0  0  0  0  0  0
    3.8962    3.3628   -1.3767 C   0  0  0  0  0  0  0  0  0  0  0  0
    6.2087    2.3666   -1.7854 C   0  0  0  0  0  0  0  0  0  0  0  0
    3.2015   -0.8720   -0.2217 C   0  0  0  0  0  0  0  0  0  0  0  0
    4.6992    2.1530   -1.8350 C   0  0  1  0  0  0  0  0  0  0  0  0
    3.3547    0.2670   -1.1792 C   0  0  0  0  0  0  0  0  0  0  0  0
    6.9276    1.2292   -2.2248 O   0  0  0  0  0  0  0  0  0  0  0  0
    2.5659    0.4891   -2.0766 O   0  0  0  0  0  0  0  0  0  0  0  0
    4.4594    1.0202   -0.9467 O   0  0  0  0  0  0  0  0  0  0  0  0
    3.9181   -1.8595    1.5063 H   0  0  0  0  0  0  0  0  0  0  0  0
    4.8605   -0.3493    0.9935 H   0  0  0  0  0  0  0  0  0  0  0  0
    1.9922   -2.5955    0.2255 H   0  0  0  0  0  0  0  0  0  0  0  0
    2.1136   -2.2167   -1.5103 H   0  0  0  0  0  0  0  0  0  0  0  0
    1.0924   -1.2303   -0.4802 H   0  0  0  0  0  0  0  0  0  0  0  0
    4.1043    4.2197   -2.0274 H   0  0  0  0  0  0  0  0  0  0  0  0
    4.1558    3.6381   -0.3484 H   0  0  0  0  0  0  0  0  0  0  0  0
    2.8253    3.1502   -1.4264 H   0  0  0  0  0  0  0  0  0  0  0  0
    6.5002    2.6617   -0.7632 H   0  0  0  0  0  0  0  0  0  0  0  0
    6.4771    3.1870   -2.4587 H   0  0  0  0  0  0  0  0  0  0  0  0
    4.4009    1.8491   -2.8419 H   0  0  0  0  0  0  0  0  0  0  0  0
    6.6206    0.4879   -1.6779 H   0  0  0  0  0  0  0  0  0  0  0  0
  1 12  1  0  0  0  0
  1 11  1  0  0  0  0
  2 15  1  0  0  0  0
  2  5  1  0  0  0  0
  2 13  1  0  0  0  0
  3 17  1  0  0  0  0
  4 19  1  0  0  0  0
  5  1  2  0  0  0  0
  6 21  1  6  0  0  0
  6  4  1  0  0  0  0
  6  3  1  0  0  0  0
  6 10  1  0  0  0  0
  7 10  1  0  0  0  0
  7  5  1  0  0  0  0
  8  4  1  0  0  0  0
  8 22  1  0  0  0  0
  9  7  2  0  0  0  0
 14  2  1  0  0  0  0
 16  3  1  0  0  0  0
 18  3  1  0  0  0  0
 20  4  1  0  0  0  0
M  END
>  <HBA>
3

>  <HBD>
1

>  <TPSA>
46.53

>  <cid>
34023

>  <dipole>
2.26

>  <excitation_energy_1>
4.783

>  <excitation_energy_2>
5.42

>  <excitation_energy_3>
5.815

>  <excitation_energy_4>
6.452

>  <homo_energy>
-7.325

>  <homo_lumo_gap>
6.095

>  <logP>
0.486

>  <lumo_energy>
-1.23

>  <melting_point>
-13.35

>  <molecular_refractivity>
37.74

>  <oscillator_strength_1>
0.0002

>  <oscillator_strength_2>
0.0023

>  <oscillator_strength_3>
0.2055

>  <oscillator_strength_4>
0.1161

>  <open_babel_can_smiles>
C[C@H](OC(=O)C(=C)C)CO

>  <mulliken_charges>
22
1   -0.371718
2   -0.500562
3   -0.470437
4   -0.032173
5   0.127369
6   0.106319
7   0.601424
8   -0.618458
9   -0.480446
10   -0.50967
11   0.151593
12   0.166157
13   0.148864
14   0.173674
15   0.175626
16   0.153638
17   0.153365
18   0.180081
19   0.125284
20   0.151142
21   0.171513
22   0.397412

>  <lowdin_charges>
22
1   -0.304717
2   -0.434714
3   -0.452983
4   -0.14159
5   -0.027693
6   -0.008152
7   0.19544
8   -0.463197
9   -0.26256
10   -0.206057
11   0.165215
12   0.172263
13   0.156993
14   0.168506
15   0.170204
16   0.160935
17   0.154246
18   0.169007
19   0.129525
20   0.154997
21   0.159794
22   0.344539

$$$$

