PCCDB-ID:  40184
public computational chemistry database (PCCDB) project, http://pccdb.org

 27 26  0  0  0  0  0  0  0  0999 V2000
    1.7483   -2.7314   -0.5494 C   0  0  0  0  0  0  0  0  0  0  0  0
    3.1670   -3.2950   -0.4226 C   0  0  0  0  0  0  0  0  0  0  0  0
    4.3562    1.2547    0.2207 C   0  0  0  0  0  0  0  0  0  0  0  0
    3.5638    1.3170   -1.0905 C   0  0  0  0  0  0  0  0  0  0  0  0
    4.2788   -2.2474   -0.5351 C   0  0  0  0  0  0  0  0  0  0  0  0
    5.1403   -0.0498    0.4299 C   0  0  0  0  0  0  0  0  0  0  0  0
    2.8197    2.6429   -1.2678 C   0  0  0  0  0  0  0  0  0  0  0  0
    3.7342   -1.5756    1.7036 N   0  0  0  0  0  0  0  0  0  0  0  0
    4.2930   -1.2428    0.5372 N   0  0  0  0  0  0  0  0  0  0  0  0
    2.0350    2.6834   -2.4539 O   0  0  0  0  0  0  0  0  0  0  0  0
    3.8944   -0.7556    2.6096 O   0  0  0  0  0  0  0  0  0  0  0  0
    1.0118   -3.5423   -0.5477 H   0  0  0  0  0  0  0  0  0  0  0  0
    1.6238   -2.1712   -1.4847 H   0  0  0  0  0  0  0  0  0  0  0  0
    1.5105   -2.0635    0.2832 H   0  0  0  0  0  0  0  0  0  0  0  0
    3.3491   -4.0180   -1.2289 H   0  0  0  0  0  0  0  0  0  0  0  0
    3.2712   -3.8403    0.5199 H   0  0  0  0  0  0  0  0  0  0  0  0
    3.6842    1.3901    1.0750 H   0  0  0  0  0  0  0  0  0  0  0  0
    5.0802    2.0812    0.2561 H   0  0  0  0  0  0  0  0  0  0  0  0
    2.8278    0.5048   -1.1317 H   0  0  0  0  0  0  0  0  0  0  0  0
    4.2461    1.1735   -1.9442 H   0  0  0  0  0  0  0  0  0  0  0  0
    4.1748   -1.7030   -1.4812 H   0  0  0  0  0  0  0  0  0  0  0  0
    5.2592   -2.7468   -0.5591 H   0  0  0  0  0  0  0  0  0  0  0  0
    5.7134    0.0178    1.3601 H   0  0  0  0  0  0  0  0  0  0  0  0
    5.8355   -0.2234   -0.3987 H   0  0  0  0  0  0  0  0  0  0  0  0
    3.5325    3.4841   -1.2328 H   0  0  0  0  0  0  0  0  0  0  0  0
    2.1118    2.7874   -0.4445 H   0  0  0  0  0  0  0  0  0  0  0  0
    2.6430    2.6323   -3.2077 H   0  0  0  0  0  0  0  0  0  0  0  0
  1 12  1  0  0  0  0
  1  2  1  0  0  0  0
  1 14  1  0  0  0  0
  2 16  1  0  0  0  0
  3 18  1  0  0  0  0
  3  6  1  0  0  0  0
  3 17  1  0  0  0  0
  4  3  1  0  0  0  0
  5  2  1  0  0  0  0
  5  9  1  0  0  0  0
  6  9  1  0  0  0  0
  6 23  1  0  0  0  0
  7 25  1  0  0  0  0
  7  4  1  0  0  0  0
  7 26  1  0  0  0  0
  8 11  1  0  0  0  0
  9  8  1  0  0  0  0
 10  7  1  0  0  0  0
 13  1  1  0  0  0  0
 15  2  1  0  0  0  0
 19  4  1  0  0  0  0
 20  4  1  0  0  0  0
 21  5  1  0  0  0  0
 22  5  1  0  0  0  0
 24  6  1  0  0  0  0
 27 10  1  0  0  0  0
M  RAD  2   8   2  11   2
M  END
>  <HBA>
4

>  <HBD>
1

>  <TPSA>
52.9

>  <cid>
40184

>  <dipole>
4.53

>  <excitation_energy_1>
3.301

>  <excitation_energy_2>
5.442

>  <excitation_energy_3>
5.716

>  <excitation_energy_4>
5.839

>  <homo_energy>
-5.935

>  <homo_lumo_gap>
5.143

>  <logP>
1.152

>  <lumo_energy>
-0.792

>  <melting_point>
13.08

>  <molecular_refractivity>
44.56

>  <oscillator_strength_1>
0.0009

>  <oscillator_strength_2>
0.0017

>  <oscillator_strength_3>
0.1048

>  <oscillator_strength_4>
0.0046

>  <open_babel_can_smiles>
CCCN(CCCCO)[N][O]

>  <mulliken_charges>
27
1   -0.448916
2   -0.264051
3   -0.266166
4   -0.285586
5   -0.130027
6   -0.155209
7   -0.028226
8   0.150627
9   -0.21314
10   -0.613273
11   -0.393764
12   0.149626
13   0.14122
14   0.170909
15   0.138463
16   0.170541
17   0.174159
18   0.137398
19   0.158897
20   0.113549
21   0.154983
22   0.154428
23   0.179711
24   0.147297
25   0.118769
26   0.152494
27   0.385287

>  <lowdin_charges>
27
1   -0.449762
2   -0.278766
3   -0.281293
4   -0.299692
5   -0.19759
6   -0.213856
7   -0.136358
8   0.050374
9   -0.045567
10   -0.466487
11   -0.281651
12   0.155412
13   0.145794
14   0.160344
15   0.150035
16   0.160425
17   0.162778
18   0.1478
19   0.152442
20   0.130611
21   0.15081
22   0.147521
23   0.169101
24   0.152015
25   0.124818
26   0.150281
27   0.340459

$$$$

