PCCDB-ID:  1175
public computational chemistry database (PCCDB) project, http://pccdb.org

 16 17  0  0  0  0  0  0  0  0999 V2000
   -0.2939   -0.7073    0.0011 C   0  0  0  0  0  0  0  0  0  0  0  0
   -0.2230    0.6896    0.0029 C   0  0  0  0  0  0  0  0  0  0  0  0
    0.9397   -1.3689    0.0021 C   0  0  0  0  0  0  0  0  0  0  0  0
   -2.3032   -0.0466   -0.0011 C   0  0  0  0  0  0  0  0  0  0  0  0
    1.9871    0.6548    0.0063 C   0  0  0  0  0  0  0  0  0  0  0  0
   -1.6160   -1.1550   -0.0014 N   0  0  0  0  0  0  0  0  0  0  0  0
   -1.5434    1.1038    0.0016 N   0  0  0  0  0  0  0  0  0  0  0  0
    0.8868    1.4256    0.0056 N   0  0  0  0  0  0  0  0  0  0  0  0
    2.0749   -0.6792    0.0045 N   0  0  0  0  0  0  0  0  0  0  0  0
    1.0386   -2.7106    0.0004 O   0  0  0  0  0  0  0  0  0  0  0  0
   -3.6381    0.0753   -0.0034 O   0  0  0  0  0  0  0  0  0  0  0  0
    3.1703    1.2993    0.0091 O   0  0  0  0  0  0  0  0  0  0  0  0
   -1.8889    2.0527    0.0007 H   0  0  0  0  0  0  0  0  0  0  0  0
    0.1346   -3.0718   -0.0017 H   0  0  0  0  0  0  0  0  0  0  0  0
   -3.9997   -0.8278   -0.0040 H   0  0  0  0  0  0  0  0  0  0  0  0
    2.9590    2.2489    0.0108 H   0  0  0  0  0  0  0  0  0  0  0  0
  1  3  1  0  0  0  0
  1  2  2  0  0  0  0
  2  8  1  0  0  0  0
  3  9  2  0  0  0  0
  4  7  1  0  0  0  0
  5 12  1  0  0  0  0
  6  4  2  0  0  0  0
  6  1  1  0  0  0  0
  7  2  1  0  0  0  0
  8  5  2  0  0  0  0
  9  5  2  0  0  0  0
 10  3  1  0  0  0  0
 11  4  1  0  0  0  0
 12 16  1  0  0  0  0
 13  7  1  0  0  0  0
 14 10  1  0  0  0  0
 15 11  1  0  0  0  0
M  END
>  <HBA>
3

>  <HBD>
4

>  <TPSA>
114.37

>  <cid>
1175

>  <dipole>
5.41

>  <excitation_energy_1>
4.971

>  <excitation_energy_2>
4.999

>  <excitation_energy_3>
5.352

>  <excitation_energy_4>
5.596

>  <homo_energy>
-5.951

>  <homo_lumo_gap>
5.513

>  <logP>
-1.767

>  <lumo_energy>
-0.438

>  <melting_point>
343.08

>  <molecular_refractivity>
40.16

>  <oscillator_strength_1>
0.0

>  <oscillator_strength_2>
0.1206

>  <oscillator_strength_3>
0.0024

>  <oscillator_strength_4>
0.1561

>  <open_babel_can_smiles>
O[C]1=[N]=C(O)c2c(N=1)[nH]c(n2)O

>  <mulliken_charges>
16
1   0.167104
2   0.562084
3   0.481972
4   0.711709
5   0.628334
6   -0.587365
7   -0.711814
8   -0.585431
9   -0.500483
10   -0.593321
11   -0.614186
12   -0.589074
13   0.350789
14   0.429615
15   0.43435
16   0.415716

>  <lowdin_charges>
16
1   -0.080636
2   0.08009
3   0.153078
4   0.157462
5   0.165091
6   -0.253286
7   -0.203997
8   -0.239789
9   -0.188014
10   -0.330267
11   -0.345828
12   -0.337058
13   0.310083
14   0.370659
15   0.380395
16   0.362018

$$$$

