PCCDB-ID:  49016
public computational chemistry database (PCCDB) project, http://pccdb.org

 33 33  0  0  1  0  0  0  0  0999 V2000
    0.8074   -2.0149   -2.4943 C   0  0  0  0  0  0  0  0  0  0  0  0
    2.1918   -2.3664   -3.0196 C   0  0  0  0  0  0  0  0  0  0  0  0
    5.3960   -1.3446    0.4826 C   0  0  0  0  0  0  0  0  0  0  0  0
    5.0839    0.1905   -1.3565 C   0  0  0  0  0  0  0  0  0  0  0  0
    6.3551   -0.5015    1.0385 C   0  0  0  0  0  0  0  0  0  0  0  0
    6.0310    1.0422   -0.8087 C   0  0  0  0  0  0  0  0  0  0  0  0
   10.0548    2.3705    3.5733 C   0  0  0  0  0  0  0  0  0  0  0  0
    8.2710    1.3315    2.0825 C   0  0  0  0  0  0  0  0  0  0  0  0
    4.7518   -1.0145   -0.7141 C   0  0  0  0  0  0  0  0  0  0  0  0
    9.1942    2.5180    2.3202 C   0  0  2  0  0  0  0  0  0  0  0  0
    6.6739    0.6999    0.3911 C   0  0  0  0  0  0  0  0  0  0  0  0
    3.7330   -1.9553   -1.2482 C   0  0  0  0  0  0  0  0  0  0  0  0
   10.9081    3.4869    3.7280 O   0  0  0  0  0  0  0  0  0  0  0  0
   10.1152    2.6614    1.2403 O   0  0  0  0  0  0  0  0  0  0  0  0
    3.4052   -2.9924   -0.7019 O   0  0  0  0  0  0  0  0  0  0  0  0
    3.2060   -1.5272   -2.4217 O   0  0  0  0  0  0  0  0  0  0  0  0
    7.5867    1.6016    0.8558 O   0  0  0  0  0  0  0  0  0  0  0  0
    0.0494   -2.6157   -3.0100 H   0  0  0  0  0  0  0  0  0  0  0  0
    0.5824   -0.9569   -2.6649 H   0  0  0  0  0  0  0  0  0  0  0  0
    0.7405   -2.2229   -1.4227 H   0  0  0  0  0  0  0  0  0  0  0  0
    2.2750   -2.1743   -4.0924 H   0  0  0  0  0  0  0  0  0  0  0  0
    2.4361   -3.4118   -2.8177 H   0  0  0  0  0  0  0  0  0  0  0  0
    5.1337   -2.2749    0.9758 H   0  0  0  0  0  0  0  0  0  0  0  0
    4.5889    0.4547   -2.2841 H   0  0  0  0  0  0  0  0  0  0  0  0
    6.8394   -0.7817    1.9664 H   0  0  0  0  0  0  0  0  0  0  0  0
    6.2910    1.9788   -1.2921 H   0  0  0  0  0  0  0  0  0  0  0  0
   10.6287    1.4309    3.5044 H   0  0  0  0  0  0  0  0  0  0  0  0
    9.4231    2.3204    4.4664 H   0  0  0  0  0  0  0  0  0  0  0  0
    7.5513    1.2231    2.9053 H   0  0  0  0  0  0  0  0  0  0  0  0
    8.8540    0.4056    1.9905 H   0  0  0  0  0  0  0  0  0  0  0  0
    8.5826    3.4283    2.4182 H   0  0  0  0  0  0  0  0  0  0  0  0
   11.3248    3.6167    2.8590 H   0  0  0  0  0  0  0  0  0  0  0  0
    9.5907    2.7481    0.4282 H   0  0  0  0  0  0  0  0  0  0  0  0
  1 20  1  0  0  0  0
  2 22  1  0  0  0  0
  2  1  1  0  0  0  0
  2 16  1  0  0  0  0
  3 23  1  0  0  0  0
  3  5  1  0  0  0  0
  4  6  2  0  0  0  0
  4  9  1  0  0  0  0
  5 25  1  0  0  0  0
  6 11  1  0  0  0  0
  7 13  1  0  0  0  0
  7 28  1  0  0  0  0
  8 10  1  0  0  0  0
  8 29  1  0  0  0  0
  9  3  2  0  0  0  0
 10 31  1  1  0  0  0
 10  7  1  0  0  0  0
 11 17  1  0  0  0  0
 11  5  2  0  0  0  0
 12  9  1  0  0  0  0
 12 15  2  0  0  0  0
 14 10  1  0  0  0  0
 16 12  1  0  0  0  0
 17  8  1  0  0  0  0
 18  1  1  0  0  0  0
 19  1  1  0  0  0  0
 21  2  1  0  0  0  0
 24  4  1  0  0  0  0
 26  6  1  0  0  0  0
 27  7  1  0  0  0  0
 30  8  1  0  0  0  0
 32 13  1  0  0  0  0
 33 14  1  0  0  0  0
M  END
>  <HBA>
5

>  <HBD>
2

>  <TPSA>
75.99

>  <cid>
49016

>  <dipole>
1.95

>  <excitation_energy_1>
4.935

>  <excitation_energy_2>
4.951

>  <excitation_energy_3>
4.979

>  <excitation_energy_4>
5.875

>  <homo_energy>
-6.436

>  <homo_lumo_gap>
5.377

>  <logP>
0.595

>  <lumo_energy>
-1.059

>  <melting_point>
70.61

>  <molecular_refractivity>
60.96

>  <oscillator_strength_1>
0.0175

>  <oscillator_strength_2>
0.225

>  <oscillator_strength_3>
0.2289

>  <oscillator_strength_4>
0.0501

>  <open_babel_can_smiles>
CCOC(=O)c1ccc(cc1)OC[C@@H](CO)O

>  <mulliken_charges>
33
1   -0.460211
2   -0.043078
3   -0.165172
4   -0.162338
5   -0.199458
6   -0.183336
7   -0.017838
8   -0.047743
9   0.048771
10   0.083595
11   0.394845
12   0.594927
13   -0.623116
14   -0.645979
15   -0.498624
16   -0.481317
17   -0.542082
18   0.149788
19   0.156143
20   0.175716
21   0.150801
22   0.172763
23   0.166624
24   0.158844
25   0.143399
26   0.139766
27   0.126721
28   0.143622
29   0.148113
30   0.154512
31   0.141455
32   0.408474
33   0.411413

>  <lowdin_charges>
33
1   -0.452921
2   -0.124743
3   -0.117283
4   -0.128204
5   -0.211637
6   -0.185424
7   -0.13907
8   -0.145578
9   -0.064084
10   -0.028294
11   0.114741
12   0.197638
13   -0.4609
14   -0.469495
15   -0.279729
16   -0.196468
17   -0.203488
18   0.159669
19   0.154125
20   0.163701
21   0.149127
22   0.158737
23   0.17884
24   0.174398
25   0.166805
26   0.167336
27   0.131271
28   0.150017
29   0.14881
30   0.148681
31   0.141089
32   0.348784
33   0.35355

$$$$

