PCCDB-ID:  37118
public computational chemistry database (PCCDB) project, http://pccdb.org

 28 28  0  0  0  0  0  0  0  0999 V2000
   -1.3216   -1.7987    0.2988 C   0  0  0  0  0  0  0  0  0  0  0  0
   -1.1828   -0.7189    1.1733 C   0  0  0  0  0  0  0  0  0  0  0  0
   -0.2199   -2.2509   -0.4305 C   0  0  0  0  0  0  0  0  0  0  0  0
    2.4493    3.2108   -0.8929 C   0  0  0  0  0  0  0  0  0  0  0  0
    0.0512   -0.0847    1.3147 C   0  0  0  0  0  0  0  0  0  0  0  0
    1.0181   -1.6273   -0.2832 C   0  0  0  0  0  0  0  0  0  0  0  0
    3.9624    3.5215   -0.8397 C   0  0  0  0  0  0  0  0  0  0  0  0
    1.8938    2.3985    0.2952 C   0  0  0  0  0  0  0  0  0  0  0  0
    1.1620   -0.5314    0.5840 C   0  0  0  0  0  0  0  0  0  0  0  0
    4.4356    4.1739    0.4600 C   0  0  0  0  0  0  0  0  0  0  0  0
    2.5035    0.1090    0.7435 C   0  0  0  0  0  0  0  0  0  0  0  0
    2.8178    1.3376    0.6696 N   0  0  0  0  0  0  0  0  0  0  0  0
    4.7223    5.3461    0.5508 O   0  0  0  0  0  0  0  0  0  0  0  0
    4.5179    3.3501    1.5258 O   0  0  0  0  0  0  0  0  0  0  0  0
    3.5284   -0.7622    0.9754 O   0  0  0  0  0  0  0  0  0  0  0  0
   -2.2852   -2.2877    0.1876 H   0  0  0  0  0  0  0  0  0  0  0  0
   -2.0351   -0.3720    1.7505 H   0  0  0  0  0  0  0  0  0  0  0  0
   -0.3242   -3.0886   -1.1143 H   0  0  0  0  0  0  0  0  0  0  0  0
    2.2558    2.6615   -1.8228 H   0  0  0  0  0  0  0  0  0  0  0  0
    1.8822    4.1476   -0.9543 H   0  0  0  0  0  0  0  0  0  0  0  0
    0.1613    0.7435    2.0080 H   0  0  0  0  0  0  0  0  0  0  0  0
    1.8731   -1.9737   -0.8583 H   0  0  0  0  0  0  0  0  0  0  0  0
    4.2141    4.2069   -1.6526 H   0  0  0  0  0  0  0  0  0  0  0  0
    4.5227    2.5920   -0.9921 H   0  0  0  0  0  0  0  0  0  0  0  0
    0.8891    2.0367    0.0427 H   0  0  0  0  0  0  0  0  0  0  0  0
    1.7951    3.0606    1.1651 H   0  0  0  0  0  0  0  0  0  0  0  0
    4.1799    2.4506    1.2811 H   0  0  0  0  0  0  0  0  0  0  0  0
    3.1544   -1.6293    1.2000 H   0  0  0  0  0  0  0  0  0  0  0  0
  1  2  2  0  0  0  0
  2  5  1  0  0  0  0
  2 17  1  0  0  0  0
  3  6  2  0  0  0  0
  3  1  1  0  0  0  0
  4  7  1  0  0  0  0
  4  8  1  0  0  0  0
  5 21  1  0  0  0  0
  6  9  1  0  0  0  0
  7 10  1  0  0  0  0
  8 12  1  0  0  0  0
  8 26  1  0  0  0  0
  9 11  1  0  0  0  0
  9  5  2  0  0  0  0
 10 13  2  0  0  0  0
 10 14  1  0  0  0  0
 11 15  1  0  0  0  0
 12 11  2  0  0  0  0
 15 28  1  0  0  0  0
 16  1  1  0  0  0  0
 18  3  1  0  0  0  0
 19  4  1  0  0  0  0
 20  4  1  0  0  0  0
 22  6  1  0  0  0  0
 23  7  1  0  0  0  0
 24  7  1  0  0  0  0
 25  8  1  0  0  0  0
 27 14  1  0  0  0  0
M  END
>  <HBA>
4

>  <HBD>
2

>  <TPSA>
66.4

>  <cid>
37118

>  <dipole>
9.83

>  <excitation_energy_1>
4.666

>  <excitation_energy_2>
4.973

>  <excitation_energy_3>
5.12

>  <excitation_energy_4>
5.237

>  <homo_energy>
-6.444

>  <homo_lumo_gap>
5.012

>  <logP>
1.672

>  <lumo_energy>
-1.431

>  <melting_point>
140.56

>  <molecular_refractivity>
55.63

>  <oscillator_strength_1>
0.0198

>  <oscillator_strength_2>
0.0036

>  <oscillator_strength_3>
0.0023

>  <oscillator_strength_4>
0.0078

>  <open_babel_can_smiles>
O/C(=N/CCCC(=O)O)/c1ccccc1

>  <mulliken_charges>
28
1   -0.119652
2   -0.133467
3   -0.128978
4   -0.266259
5   -0.156089
6   -0.17938
7   -0.360943
8   -0.170426
9   0.038468
10   0.575798
11   0.43926
12   -0.456301
13   -0.461098
14   -0.596758
15   -0.571984
16   0.147075
17   0.148867
18   0.147389
19   0.14506
20   0.155616
21   0.160061
22   0.1535
23   0.16742
24   0.163192
25   0.143907
26   0.169629
27   0.433858
28   0.412233

>  <lowdin_charges>
28
1   -0.141309
2   -0.148823
3   -0.147747
4   -0.2746
5   -0.147189
6   -0.162411
7   -0.318879
8   -0.212158
9   -0.049401
10   0.182348
11   0.138139
12   -0.210724
13   -0.263387
14   -0.376618
15   -0.354741
16   0.166159
17   0.168018
18   0.16657
19   0.14887
20   0.155149
21   0.171829
22   0.168007
23   0.16981
24   0.16184
25   0.143447
26   0.157293
27   0.350419
28   0.360087

$$$$

