PCCDB-ID:  49985
public computational chemistry database (PCCDB) project, http://pccdb.org

 24 24  0  0  0  0  0  0  0  0999 V2000
    1.6214    0.6104   -1.9712 C   0  0  0  0  0  0  0  0  0  0  0  0
    5.8429   -2.4555   -2.0074 C   0  0  0  0  0  0  0  0  0  0  0  0
    7.0518    2.0675   -0.0643 C   0  0  0  0  0  0  0  0  0  0  0  0
    5.6679    2.0226   -0.2329 C   0  0  0  0  0  0  0  0  0  0  0  0
    7.2013   -0.2114   -0.9417 C   0  0  0  0  0  0  0  0  0  0  0  0
    3.1087    0.8127   -2.0937 C   0  0  0  0  0  0  0  0  0  0  0  0
    7.7882    0.9470   -0.4274 C   0  0  0  0  0  0  0  0  0  0  0  0
    5.0595    0.8861   -0.7465 C   0  0  0  0  0  0  0  0  0  0  0  0
    5.8172   -0.2525   -1.0992 C   0  0  0  0  0  0  0  0  0  0  0  0
    9.2491    0.9689   -0.2612 N   0  0  0  0  0  0  0  0  0  0  0  0
    3.7410    0.9382   -3.1084 O   0  0  0  0  0  0  0  0  0  0  0  0
    9.7576    1.9902    0.2002 O   0  0  0  0  0  0  0  0  0  0  0  0
    9.8793   -0.0366   -0.5923 O   0  0  0  0  0  0  0  0  0  0  0  0
    5.1162   -1.3166   -1.5569 O   0  0  0  0  0  0  0  0  0  0  0  0
    3.6784    0.8435   -0.8335 O   0  0  0  0  0  0  0  0  0  0  0  0
    1.1595    0.7184   -2.9530 H   0  0  0  0  0  0  0  0  0  0  0  0
    1.1923    1.3310   -1.2686 H   0  0  0  0  0  0  0  0  0  0  0  0
    1.4214   -0.3922   -1.5780 H   0  0  0  0  0  0  0  0  0  0  0  0
    5.0926   -3.1612   -2.3656 H   0  0  0  0  0  0  0  0  0  0  0  0
    6.4141   -2.9124   -1.1897 H   0  0  0  0  0  0  0  0  0  0  0  0
    6.5214   -2.1927   -2.8277 H   0  0  0  0  0  0  0  0  0  0  0  0
    7.5523    2.9412    0.3318 H   0  0  0  0  0  0  0  0  0  0  0  0
    5.0451    2.8708    0.0308 H   0  0  0  0  0  0  0  0  0  0  0  0
    7.8368   -1.0481   -1.1952 H   0  0  0  0  0  0  0  0  0  0  0  0
  1 18  1  0  0  0  0
  1 17  1  0  0  0  0
  2 14  1  0  0  0  0
  2 20  1  0  0  0  0
  3 22  1  0  0  0  0
  4  3  1  0  0  0  0
  4 23  1  0  0  0  0
  5  7  1  0  0  0  0
  6  1  1  0  0  0  0
  6 15  1  0  0  0  0
  7 10  1  0  0  0  0
  7  3  2  0  0  0  0
  8  4  2  0  0  0  0
  9  5  2  0  0  0  0
  9  8  1  0  0  0  0
 10 12  2  0  0  0  0
 11  6  2  0  0  0  0
 13 10  2  0  0  0  0
 14  9  1  0  0  0  0
 15  8  1  0  0  0  0
 16  1  1  0  0  0  0
 19  2  1  0  0  0  0
 21  2  1  0  0  0  0
 24  5  1  0  0  0  0
M  END
>  <HBA>
3

>  <HBD>
0

>  <TPSA>
81.35

>  <cid>
49985

>  <dipole>
5.07

>  <excitation_energy_1>
3.6

>  <excitation_energy_2>
3.742

>  <excitation_energy_3>
4.283

>  <excitation_energy_4>
4.392

>  <homo_energy>
-6.689

>  <homo_lumo_gap>
4.294

>  <logP>
2.052

>  <lumo_energy>
-2.395

>  <melting_point>
75.05

>  <molecular_refractivity>
53.26

>  <oscillator_strength_1>
0.066

>  <oscillator_strength_2>
0.0

>  <oscillator_strength_3>
0.0004

>  <oscillator_strength_4>
0.1734

>  <open_babel_can_smiles>
COc1cc(ccc1OC(=O)C)N(=O)=O

>  <mulliken_charges>
24
1   -0.528768
2   -0.222948
3   -0.16956
4   -0.176235
5   -0.246553
6   0.606858
7   0.283284
8   0.346093
9   0.384167
10   0.380498
11   -0.436468
12   -0.393999
13   -0.400221
14   -0.511458
15   -0.5243
16   0.188246
17   0.186349
18   0.192902
19   0.179539
20   0.162577
21   0.169915
22   0.184062
23   0.157934
24   0.188084

>  <lowdin_charges>
24
1   -0.462854
2   -0.277819
3   -0.150567
4   -0.154971
5   -0.194273
6   0.219001
7   0.008075
8   0.098754
9   0.095898
10   0.311614
11   -0.230768
12   -0.246391
13   -0.252016
14   -0.183138
15   -0.167098
16   0.178897
17   0.181474
18   0.184029
19   0.170132
20   0.152832
21   0.156616
22   0.190625
23   0.178429
24   0.193522

$$$$

