PCCDB-ID:  41754
public computational chemistry database (PCCDB) project, http://pccdb.org

 34 33  0  0  1  0  0  0  0  0999 V2000
    0.5566    0.1744   -0.6313 C   0  0  0  0  0  0  0  0  0  0  0  0
    3.8591   -4.7629    2.1241 C   0  0  0  0  0  0  0  0  0  0  0  0
    6.1047   -3.6121    2.0937 C   0  0  0  0  0  0  0  0  0  0  0  0
    5.0546    0.5677   -1.2282 C   0  0  0  0  0  0  0  0  0  0  0  0
    2.0500    0.1018   -0.2910 C   0  0  0  0  0  0  0  0  0  0  0  0
    4.2453   -2.8688    0.4921 C   0  0  0  0  0  0  0  0  0  0  0  0
    2.8510   -0.6918   -1.3349 C   0  0  0  0  0  0  0  0  0  0  0  0
    4.7642   -1.4464    0.2351 C   0  0  0  0  0  0  0  0  0  0  0  0
    4.5928   -3.4344    1.8863 C   0  0  0  0  0  0  0  0  0  0  0  0
    4.3878   -0.8149   -1.1298 C   0  0  2  0  0  0  0  0  0  0  0  0
    4.9962   -1.6472   -2.1935 N   0  0  0  0  0  0  0  0  0  0  0  0
    0.0010    0.7408    0.1250 H   0  0  0  0  0  0  0  0  0  0  0  0
    0.1138   -0.8277   -0.6889 H   0  0  0  0  0  0  0  0  0  0  0  0
    0.3934    0.6627   -1.6000 H   0  0  0  0  0  0  0  0  0  0  0  0
    4.0668   -5.1585    3.1254 H   0  0  0  0  0  0  0  0  0  0  0  0
    4.1760   -5.5213    1.3960 H   0  0  0  0  0  0  0  0  0  0  0  0
    2.7731   -4.6435    2.0284 H   0  0  0  0  0  0  0  0  0  0  0  0
    6.3167   -4.0253    3.0872 H   0  0  0  0  0  0  0  0  0  0  0  0
    6.6484   -2.6657    2.0076 H   0  0  0  0  0  0  0  0  0  0  0  0
    6.5210   -4.3046    1.3502 H   0  0  0  0  0  0  0  0  0  0  0  0
    4.7461    1.2263   -0.4099 H   0  0  0  0  0  0  0  0  0  0  0  0
    4.7925    1.0634   -2.1725 H   0  0  0  0  0  0  0  0  0  0  0  0
    6.1434    0.4603   -1.1940 H   0  0  0  0  0  0  0  0  0  0  0  0
    2.1704   -0.3563    0.6994 H   0  0  0  0  0  0  0  0  0  0  0  0
    2.4499    1.1207   -0.2073 H   0  0  0  0  0  0  0  0  0  0  0  0
    4.6463   -3.5543   -0.2690 H   0  0  0  0  0  0  0  0  0  0  0  0
    3.1520   -2.8883    0.3830 H   0  0  0  0  0  0  0  0  0  0  0  0
    2.6885   -0.2345   -2.3232 H   0  0  0  0  0  0  0  0  0  0  0  0
    2.4251   -1.7034   -1.4056 H   0  0  0  0  0  0  0  0  0  0  0  0
    5.8587   -1.4440    0.2906 H   0  0  0  0  0  0  0  0  0  0  0  0
    4.4073   -0.7876    1.0387 H   0  0  0  0  0  0  0  0  0  0  0  0
    4.2310   -2.7133    2.6363 H   0  0  0  0  0  0  0  0  0  0  0  0
    4.8447   -1.1934   -3.0954 H   0  0  0  0  0  0  0  0  0  0  0  0
    4.5007   -2.5368   -2.2534 H   0  0  0  0  0  0  0  0  0  0  0  0
  1  5  1  0  0  0  0
  1 12  1  0  0  0  0
  2 15  1  0  0  0  0
  3 18  1  0  0  0  0
  4 23  1  0  0  0  0
  4 10  1  0  0  0  0
  4 21  1  0  0  0  0
  5 25  1  0  0  0  0
  5 24  1  0  0  0  0
  6  9  1  0  0  0  0
  7 10  1  0  0  0  0
  7  5  1  0  0  0  0
  8 30  1  0  0  0  0
  8  6  1  0  0  0  0
  8 31  1  0  0  0  0
  9  3  1  0  0  0  0
  9  2  1  0  0  0  0
  9 32  1  0  0  0  0
 10 11  1  6  0  0  0
 10  8  1  0  0  0  0
 13  1  1  0  0  0  0
 14  1  1  0  0  0  0
 16  2  1  0  0  0  0
 17  2  1  0  0  0  0
 19  3  1  0  0  0  0
 20  3  1  0  0  0  0
 22  4  1  0  0  0  0
 26  6  1  0  0  0  0
 27  6  1  0  0  0  0
 28  7  1  0  0  0  0
 29  7  1  0  0  0  0
 33 11  1  0  0  0  0
 34 11  1  0  0  0  0
M  END
>  <HBA>
1

>  <HBD>
1

>  <TPSA>
26.02

>  <cid>
41754

>  <dipole>
1.22

>  <excitation_energy_1>
5.662

>  <excitation_energy_2>
6.14

>  <excitation_energy_3>
6.214

>  <excitation_energy_4>
6.421

>  <homo_energy>
-6.18

>  <homo_lumo_gap>
8.158

>  <logP>
3.64

>  <lumo_energy>
1.978

>  <melting_point>
36.05

>  <molecular_refractivity>
52.93

>  <oscillator_strength_1>
0.0292

>  <oscillator_strength_2>
0.0001

>  <oscillator_strength_3>
0.0006

>  <oscillator_strength_4>
0.0009

>  <open_babel_can_smiles>
CCC[C@@](CCC(C)C)(N)C

>  <mulliken_charges>
34
1   -0.442317
2   -0.442295
3   -0.443776
4   -0.450813
5   -0.259117
6   -0.269008
7   -0.25634
8   -0.249268
9   -0.06584
10   0.178756
11   -0.718574
12   0.141967
13   0.140855
14   0.141443
15   0.138945
16   0.137801
17   0.137086
18   0.137711
19   0.146985
20   0.139945
21   0.14279
22   0.129018
23   0.156777
24   0.136941
25   0.135636
26   0.128358
27   0.126399
28   0.114684
29   0.120675
30   0.144334
31   0.123656
32   0.118219
33   0.286868
34   0.291499

>  <lowdin_charges>
34
1   -0.444001
2   -0.442871
3   -0.447522
4   -0.445751
5   -0.276726
6   -0.280724
7   -0.291543
8   -0.279917
9   -0.119165
10   0.060844
11   -0.547997
12   0.150565
13   0.145237
14   0.14577
15   0.146731
16   0.145767
17   0.143768
18   0.146782
19   0.149807
20   0.147362
21   0.150466
22   0.142748
23   0.155359
24   0.140721
25   0.140598
26   0.139917
27   0.135915
28   0.134099
29   0.1346
30   0.148425
31   0.139737
32   0.13422
33   0.248741
34   0.248035

$$$$

