PCCDB-ID:  43867
public computational chemistry database (PCCDB) project, http://pccdb.org

 35 34  0  0  1  0  0  0  0  0999 V2000
    3.7874    2.3471   -4.4385 C   0  0  0  0  0  0  0  0  0  0  0  0
    3.3474    2.4082   -1.9540 C   0  0  0  0  0  0  0  0  0  0  0  0
    5.9878   -4.6244   -1.3083 C   0  0  0  0  0  0  0  0  0  0  0  0
    8.1908   -3.4409   -1.6696 C   0  0  0  0  0  0  0  0  0  0  0  0
    5.3205   -2.2070    0.6732 C   0  0  0  0  0  0  0  0  0  0  0  0
    5.2472   -0.1023   -1.7329 C   0  0  0  0  0  0  0  0  0  0  0  0
    4.5578    0.4113   -3.0051 C   0  0  0  0  0  0  0  0  0  0  0  0
    5.5629   -1.6053   -1.7935 C   0  0  0  0  0  0  0  0  0  0  0  0
    4.3085    1.9322   -3.0543 C   0  0  0  0  0  0  0  0  0  0  0  0
    6.9456   -3.5465   -0.7735 C   0  0  0  0  0  0  0  0  0  0  0  0
    6.2683   -2.1644   -0.5383 C   0  0  2  0  0  0  0  0  0  0  0  0
    3.6390    3.4319   -4.4996 H   0  0  0  0  0  0  0  0  0  0  0  0
    2.8231    1.8681   -4.6541 H   0  0  0  0  0  0  0  0  0  0  0  0
    4.4864    2.0583   -5.2326 H   0  0  0  0  0  0  0  0  0  0  0  0
    3.1745    3.4887   -2.0254 H   0  0  0  0  0  0  0  0  0  0  0  0
    3.7336    2.2019   -0.9501 H   0  0  0  0  0  0  0  0  0  0  0  0
    2.3729    1.9101   -2.0461 H   0  0  0  0  0  0  0  0  0  0  0  0
    6.4929   -5.5964   -1.3575 H   0  0  0  0  0  0  0  0  0  0  0  0
    5.6390   -4.3857   -2.3202 H   0  0  0  0  0  0  0  0  0  0  0  0
    5.1051   -4.7444   -0.6705 H   0  0  0  0  0  0  0  0  0  0  0  0
    8.7097   -4.4053   -1.7279 H   0  0  0  0  0  0  0  0  0  0  0  0
    8.9019   -2.7026   -1.2795 H   0  0  0  0  0  0  0  0  0  0  0  0
    7.9351   -3.1483   -2.6952 H   0  0  0  0  0  0  0  0  0  0  0  0
    4.9300   -1.2131    0.9163 H   0  0  0  0  0  0  0  0  0  0  0  0
    5.8383   -2.5826    1.5641 H   0  0  0  0  0  0  0  0  0  0  0  0
    4.4590   -2.8605    0.4889 H   0  0  0  0  0  0  0  0  0  0  0  0
    4.6178    0.1096   -0.8602 H   0  0  0  0  0  0  0  0  0  0  0  0
    6.1835    0.4556   -1.5789 H   0  0  0  0  0  0  0  0  0  0  0  0
    3.5968   -0.1106   -3.1353 H   0  0  0  0  0  0  0  0  0  0  0  0
    5.1726    0.1317   -3.8735 H   0  0  0  0  0  0  0  0  0  0  0  0
    6.1890   -1.7863   -2.6776 H   0  0  0  0  0  0  0  0  0  0  0  0
    4.6292   -2.1603   -1.9656 H   0  0  0  0  0  0  0  0  0  0  0  0
    5.2768    2.4330   -2.8969 H   0  0  0  0  0  0  0  0  0  0  0  0
    7.2949   -3.8830    0.2147 H   0  0  0  0  0  0  0  0  0  0  0  0
    7.0833   -1.4677   -0.2842 H   0  0  0  0  0  0  0  0  0  0  0  0
  1  9  1  0  0  0  0
  2 16  1  0  0  0  0
  3 10  1  0  0  0  0
  3 20  1  0  0  0  0
  4 22  1  0  0  0  0
  4 10  1  0  0  0  0
  5 24  1  0  0  0  0
  5 25  1  0  0  0  0
  6 28  1  0  0  0  0
  6 27  1  0  0  0  0
  7  6  1  0  0  0  0
  8  6  1  0  0  0  0
  8 11  1  0  0  0  0
  9  7  1  0  0  0  0
  9 33  1  0  0  0  0
  9  2  1  0  0  0  0
 10 11  1  0  0  0  0
 10 34  1  0  0  0  0
 11 35  1  1  0  0  0
 11  5  1  0  0  0  0
 12  1  1  0  0  0  0
 13  1  1  0  0  0  0
 14  1  1  0  0  0  0
 15  2  1  0  0  0  0
 17  2  1  0  0  0  0
 18  3  1  0  0  0  0
 19  3  1  0  0  0  0
 21  4  1  0  0  0  0
 23  4  1  0  0  0  0
 26  5  1  0  0  0  0
 29  7  1  0  0  0  0
 30  7  1  0  0  0  0
 31  8  1  0  0  0  0
 32  8  1  0  0  0  0
M  END
>  <HBA>
0

>  <HBD>
0

>  <TPSA>
0.0

>  <cid>
43867

>  <dipole>
0.12

>  <excitation_energy_1>
7.35

>  <excitation_energy_2>
7.601

>  <excitation_energy_3>
7.657

>  <excitation_energy_4>
7.681

>  <homo_energy>
-7.812

>  <homo_lumo_gap>
10.044

>  <logP>
4.105

>  <lumo_energy>
2.231

>  <melting_point>
-29.88

>  <molecular_refractivity>
54.99

>  <oscillator_strength_1>
0.0105

>  <oscillator_strength_2>
0.0186

>  <oscillator_strength_3>
0.0045

>  <oscillator_strength_4>
0.0063

>  <open_babel_can_smiles>
CC(CCC[C@H](C(C)C)C)C

>  <mulliken_charges>
35
1   -0.44168
2   -0.44483
3   -0.451427
4   -0.449825
5   -0.458544
6   -0.267016
7   -0.246648
8   -0.263655
9   -0.064495
10   -0.065674
11   -0.06191
12   0.138157
13   0.137606
14   0.138529
15   0.138723
16   0.14444
17   0.136909
18   0.138688
19   0.143554
20   0.142305
21   0.138997
22   0.138254
23   0.142102
24   0.144052
25   0.138489
26   0.141078
27   0.136793
28   0.125433
29   0.122491
30   0.123613
31   0.128858
32   0.128349
33   0.118608
34   0.11657
35   0.113106

>  <lowdin_charges>
35
1   -0.443046
2   -0.444096
3   -0.447961
4   -0.44703
5   -0.448989
6   -0.278128
7   -0.275678
8   -0.27881
9   -0.119814
10   -0.121481
11   -0.125843
12   0.145008
13   0.144649
14   0.147401
15   0.145928
16   0.147579
17   0.144204
18   0.14796
19   0.146364
20   0.148047
21   0.147807
22   0.147258
23   0.14415
24   0.148157
25   0.147393
26   0.145634
27   0.14091
28   0.136763
29   0.135861
30   0.138392
31   0.13984
32   0.138651
33   0.133396
34   0.134879
35   0.134646

$$$$

