PCCDB-ID:  38489
public computational chemistry database (PCCDB) project, http://pccdb.org

 40 41  0  0  1  0  0  0  0  0999 V2000
    6.8126    1.8584   -6.9336 C   0  0  0  0  0  0  0  0  0  0  0  0
    5.6110    0.3623   -8.3692 C   0  0  0  0  0  0  0  0  0  0  0  0
   11.4757    0.8896   -2.1311 C   0  0  0  0  0  0  0  0  0  0  0  0
   11.9754   -2.8482   -5.1244 C   0  0  0  0  0  0  0  0  0  0  0  0
   10.2490    0.5191   -1.5872 C   0  0  0  0  0  0  0  0  0  0  0  0
   10.7181   -3.7223   -5.2288 C   0  0  0  0  0  0  0  0  0  0  0  0
   11.9185    0.2823   -3.3078 C   0  0  0  0  0  0  0  0  0  0  0  0
   11.7160   -1.3302   -5.2281 C   0  0  0  0  0  0  0  0  0  0  0  0
    9.4834   -0.4526   -2.2338 C   0  0  0  0  0  0  0  0  0  0  0  0
    9.6659   -3.5319   -4.1270 C   0  0  0  0  0  0  0  0  0  0  0  0
    7.3036   -0.5216   -6.8938 C   0  0  0  0  0  0  0  0  0  0  0  0
    7.6826   -0.7068   -5.4253 C   0  0  0  0  0  0  0  0  0  0  0  0
   11.1642   -0.6975   -3.9646 C   0  0  0  0  0  0  0  0  0  0  0  0
    9.9192   -1.0703   -3.4117 C   0  0  0  0  0  0  0  0  0  0  0  0
    9.0267   -2.1343   -4.0439 C   0  0  1  0  0  0  0  0  0  0  0  0
    6.2830    0.5078   -7.0844 N   0  0  0  0  0  0  0  0  0  0  0  0
    8.5984   -1.7908   -5.3642 O   0  0  0  0  0  0  0  0  0  0  0  0
    5.9961    2.5830   -7.0248 H   0  0  0  0  0  0  0  0  0  0  0  0
    7.5797    2.1087   -7.6940 H   0  0  0  0  0  0  0  0  0  0  0  0
    7.2624    1.9880   -5.9453 H   0  0  0  0  0  0  0  0  0  0  0  0
    4.8094    1.1051   -8.4497 H   0  0  0  0  0  0  0  0  0  0  0  0
    5.1598   -0.6329   -8.4425 H   0  0  0  0  0  0  0  0  0  0  0  0
    6.2871    0.4981   -9.2370 H   0  0  0  0  0  0  0  0  0  0  0  0
   12.0884    1.6453   -1.6464 H   0  0  0  0  0  0  0  0  0  0  0  0
   12.6555   -3.1349   -5.9378 H   0  0  0  0  0  0  0  0  0  0  0  0
   12.5087   -3.0610   -4.1870 H   0  0  0  0  0  0  0  0  0  0  0  0
    9.8862    0.9807   -0.6727 H   0  0  0  0  0  0  0  0  0  0  0  0
   11.0226   -4.7777   -5.2250 H   0  0  0  0  0  0  0  0  0  0  0  0
   10.2392   -3.5416   -6.1987 H   0  0  0  0  0  0  0  0  0  0  0  0
   12.8780    0.5735   -3.7299 H   0  0  0  0  0  0  0  0  0  0  0  0
   11.0300   -1.1485   -6.0649 H   0  0  0  0  0  0  0  0  0  0  0  0
   12.6586   -0.8282   -5.4766 H   0  0  0  0  0  0  0  0  0  0  0  0
    8.5218   -0.7413   -1.8138 H   0  0  0  0  0  0  0  0  0  0  0  0
   10.0949   -3.7650   -3.1434 H   0  0  0  0  0  0  0  0  0  0  0  0
    8.8573   -4.2536   -4.3002 H   0  0  0  0  0  0  0  0  0  0  0  0
    6.9005   -1.4759   -7.2501 H   0  0  0  0  0  0  0  0  0  0  0  0
    8.2196   -0.3214   -7.4840 H   0  0  0  0  0  0  0  0  0  0  0  0
    6.7775   -0.9302   -4.8383 H   0  0  0  0  0  0  0  0  0  0  0  0
    8.1357    0.2017   -5.0051 H   0  0  0  0  0  0  0  0  0  0  0  0
    8.1328   -2.2219   -3.4039 H   0  0  0  0  0  0  0  0  0  0  0  0
  1 20  1  0  0  0  0
  2 16  1  0  0  0  0
  3 24  1  0  0  0  0
  3  5  1  0  0  0  0
  4 26  1  0  0  0  0
  5 27  1  0  0  0  0
  6 28  1  0  0  0  0
  6  4  1  0  0  0  0
  6 10  1  0  0  0  0
  7  3  2  0  0  0  0
  8  4  1  0  0  0  0
  8 13  1  0  0  0  0
  9 33  1  0  0  0  0
  9  5  2  0  0  0  0
 10 15  1  0  0  0  0
 10 34  1  0  0  0  0
 11 12  1  0  0  0  0
 12 17  1  0  0  0  0
 12 39  1  0  0  0  0
 12 38  1  0  0  0  0
 13 14  2  0  0  0  0
 13  7  1  0  0  0  0
 14  9  1  0  0  0  0
 15 14  1  0  0  0  0
 15 40  1  1  0  0  0
 16  1  1  0  0  0  0
 16 11  1  0  0  0  0
 17 15  1  0  0  0  0
 18  1  1  0  0  0  0
 19  1  1  0  0  0  0
 21  2  1  0  0  0  0
 22  2  1  0  0  0  0
 23  2  1  0  0  0  0
 25  4  1  0  0  0  0
 29  6  1  0  0  0  0
 30  7  1  0  0  0  0
 31  8  1  0  0  0  0
 32  8  1  0  0  0  0
 35 10  1  0  0  0  0
 36 11  1  0  0  0  0
 37 11  1  0  0  0  0
M  END
>  <HBA>
2

>  <HBD>
0

>  <TPSA>
12.47

>  <cid>
38489

>  <dipole>
0.42

>  <excitation_energy_1>
5.036

>  <excitation_energy_2>
5.181

>  <excitation_energy_3>
5.217

>  <excitation_energy_4>
5.372

>  <homo_energy>
-5.714

>  <homo_lumo_gap>
5.646

>  <logP>
3.032

>  <lumo_energy>
-0.068

>  <melting_point>
23.61

>  <molecular_refractivity>
71.89

>  <oscillator_strength_1>
0.0003

>  <oscillator_strength_2>
0.0033

>  <oscillator_strength_3>
0.0005

>  <oscillator_strength_4>
0.0132

>  <open_babel_can_smiles>
CN(CCO[C@H]1CCCCc2c1cccc2)C

>  <mulliken_charges>
40
1   -0.303085
2   -0.293044
3   -0.123746
4   -0.255309
5   -0.128424
6   -0.260454
7   -0.195186
8   -0.347029
9   -0.198456
10   -0.274814
11   -0.135449
12   -0.014162
13   0.128884
14   0.106232
15   0.074064
16   -0.372417
17   -0.495857
18   0.148645
19   0.118258
20   0.155314
21   0.147
22   0.149752
23   0.117721
24   0.126864
25   0.130637
26   0.132046
27   0.126444
28   0.127391
29   0.151886
30   0.122122
31   0.163015
32   0.131996
33   0.124827
34   0.135737
35   0.137703
36   0.145976
37   0.120094
38   0.127506
39   0.134636
40   0.112682

>  <lowdin_charges>
40
1   -0.359927
2   -0.355384
3   -0.157262
4   -0.274653
5   -0.163221
6   -0.277021
7   -0.1681
8   -0.281165
9   -0.166766
10   -0.281091
11   -0.20575
12   -0.136868
13   0.000782
14   -0.033173
15   0.002656
16   -0.183934
17   -0.27128
18   0.151045
19   0.121324
20   0.150751
21   0.149342
22   0.14932
23   0.12069
24   0.157809
25   0.144851
26   0.139794
27   0.156722
28   0.141489
29   0.149559
30   0.153209
31   0.159357
32   0.146281
33   0.152999
34   0.146478
35   0.149638
36   0.15058
37   0.122639
38   0.131678
39   0.134791
40   0.13181

$$$$

