PCCDB-ID:  22938
public computational chemistry database (PCCDB) project, http://pccdb.org

 31 32  0  0  0  0  0  0  0  0999 V2000
    0.9616    1.1529   -1.0586 C   0  0  0  0  0  0  0  0  0  0  0  0
    1.6209    0.0623   -0.2036 C   0  0  0  0  0  0  0  0  0  0  0  0
   -0.3868    1.5753   -0.4600 C   0  0  0  0  0  0  0  0  0  0  0  0
    0.6954   -1.1543   -0.0170 C   0  0  0  0  0  0  0  0  0  0  0  0
   -1.3406    0.3754   -0.3263 C   0  0  0  0  0  0  0  0  0  0  0  0
   -2.3094   -1.1289    2.3177 C   0  0  0  0  0  0  0  0  0  0  0  0
   -0.3596    0.2054    2.6840 C   0  0  0  0  0  0  0  0  0  0  0  0
   -2.3432   -1.4470    3.8120 C   0  0  0  0  0  0  0  0  0  0  0  0
   -0.4372   -0.1461    4.1704 C   0  0  0  0  0  0  0  0  0  0  0  0
   -0.7603   -0.8567    0.4272 C   0  0  0  0  0  0  0  0  0  0  0  0
   -0.9302   -0.8864    1.8950 N   0  0  0  0  0  0  0  0  0  0  0  0
   -1.7753   -0.3934    4.5782 O   0  0  0  0  0  0  0  0  0  0  0  0
    0.8028    0.7714   -2.0786 H   0  0  0  0  0  0  0  0  0  0  0  0
    1.6286    2.0196   -1.1494 H   0  0  0  0  0  0  0  0  0  0  0  0
    1.9030    0.4911    0.7666 H   0  0  0  0  0  0  0  0  0  0  0  0
    2.5577   -0.2708   -0.6694 H   0  0  0  0  0  0  0  0  0  0  0  0
   -0.8576    2.3431   -1.0878 H   0  0  0  0  0  0  0  0  0  0  0  0
   -0.2159    2.0414    0.5189 H   0  0  0  0  0  0  0  0  0  0  0  0
    1.1303   -1.8712    0.6892 H   0  0  0  0  0  0  0  0  0  0  0  0
    0.6337   -1.6689   -0.9867 H   0  0  0  0  0  0  0  0  0  0  0  0
   -1.6045    0.0418   -1.3409 H   0  0  0  0  0  0  0  0  0  0  0  0
   -2.2831    0.6865    0.1416 H   0  0  0  0  0  0  0  0  0  0  0  0
   -2.9743   -0.2634    2.1290 H   0  0  0  0  0  0  0  0  0  0  0  0
   -2.7105   -1.9829    1.7575 H   0  0  0  0  0  0  0  0  0  0  0  0
    0.6891    0.3498    2.4113 H   0  0  0  0  0  0  0  0  0  0  0  0
   -0.8872    1.1656    2.5266 H   0  0  0  0  0  0  0  0  0  0  0  0
   -1.7964   -2.3865    3.9969 H   0  0  0  0  0  0  0  0  0  0  0  0
   -3.3741   -1.5637    4.1610 H   0  0  0  0  0  0  0  0  0  0  0  0
   -0.0763    0.6864    4.7827 H   0  0  0  0  0  0  0  0  0  0  0  0
    0.1898   -1.0314    4.3685 H   0  0  0  0  0  0  0  0  0  0  0  0
   -1.3509   -1.7211    0.0972 H   0  0  0  0  0  0  0  0  0  0  0  0
  1  3  1  0  0  0  0
  1  2  1  0  0  0  0
  2  4  1  0  0  0  0
  2 15  1  0  0  0  0
  3  5  1  0  0  0  0
  3 18  1  0  0  0  0
  4 10  1  0  0  0  0
  4 19  1  0  0  0  0
  5 22  1  0  0  0  0
  5 10  1  0  0  0  0
  6  8  1  0  0  0  0
  7  9  1  0  0  0  0
  8 27  1  0  0  0  0
  8 28  1  0  0  0  0
  8 12  1  0  0  0  0
  9 30  1  0  0  0  0
  9 12  1  0  0  0  0
  9 29  1  0  0  0  0
 10 11  1  0  0  0  0
 11  6  1  0  0  0  0
 11  7  1  0  0  0  0
 13  1  1  0  0  0  0
 14  1  1  0  0  0  0
 16  2  1  0  0  0  0
 17  3  1  0  0  0  0
 20  4  1  0  0  0  0
 21  5  1  0  0  0  0
 23  6  1  0  0  0  0
 24  6  1  0  0  0  0
 25  7  1  0  0  0  0
 26  7  1  0  0  0  0
 31 10  1  0  0  0  0
M  END
>  <HBA>
2

>  <HBD>
0

>  <TPSA>
12.47

>  <cid>
22938

>  <dipole>
1.57

>  <excitation_energy_1>
5.015

>  <excitation_energy_2>
5.343

>  <excitation_energy_3>
5.484

>  <excitation_energy_4>
5.61

>  <homo_energy>
-5.532

>  <homo_lumo_gap>
7.505

>  <logP>
1.589

>  <lumo_energy>
1.973

>  <melting_point>
9.62

>  <molecular_refractivity>
53.85

>  <oscillator_strength_1>
0.0026

>  <oscillator_strength_2>
0.0087

>  <oscillator_strength_3>
0.0402

>  <oscillator_strength_4>
0.014

>  <open_babel_can_smiles>
C1CCC(CC1)N1CCOCC1

>  <mulliken_charges>
31
1   -0.254174
2   -0.266562
3   -0.261571
4   -0.272841
5   -0.279874
6   -0.134121
7   -0.142924
8   -0.028971
9   -0.028971
10   0.052435
11   -0.409633
12   -0.46904
13   0.125562
14   0.129613
15   0.13447
16   0.131091
17   0.130405
18   0.135154
19   0.142314
20   0.129355
21   0.127979
22   0.137225
23   0.120327
24   0.134607
25   0.142539
26   0.123498
27   0.125281
28   0.140508
29   0.140458
30   0.124769
31   0.121091

>  <lowdin_charges>
31
1   -0.277717
2   -0.281753
3   -0.28254
4   -0.287294
5   -0.29578
6   -0.218279
7   -0.218209
8   -0.135876
9   -0.138797
10   -0.064781
11   -0.19406
12   -0.274478
13   0.135138
14   0.143509
15   0.136317
16   0.143876
17   0.144882
18   0.139729
19   0.152219
20   0.143478
21   0.14176
22   0.145966
23   0.121518
24   0.148017
25   0.149833
26   0.123095
27   0.12979
28   0.147902
29   0.149964
30   0.130304
31   0.142267

$$$$

