PCCDB-ID:  33008
public computational chemistry database (PCCDB) project, http://pccdb.org

 18 18  0  0  0  0  0  0  0  0999 V2000
    1.0242    0.2079   -0.1518 C   0  0  0  0  0  0  0  0  0  0  0  0
    2.6366   -2.4857    0.2994 C   0  0  0  0  0  0  0  0  0  0  0  0
    4.4824    1.2661    0.3972 C   0  0  0  0  0  0  0  0  0  0  0  0
    5.2041    0.0701   -0.2052 C   0  0  0  0  0  0  0  0  0  0  0  0
    2.5048    0.0454    0.0016 C   0  0  0  0  0  0  0  0  0  0  0  0
    3.1918   -1.1020    0.1608 C   0  0  0  0  0  0  0  0  0  0  0  0
    3.1330    1.2835   -0.0492 O   0  0  0  0  0  0  0  0  0  0  0  0
    4.5793   -1.1311    0.2273 O   0  0  0  0  0  0  0  0  0  0  0  0
    0.5048   -0.7494   -0.2184 H   0  0  0  0  0  0  0  0  0  0  0  0
    0.8056    0.7786   -1.0635 H   0  0  0  0  0  0  0  0  0  0  0  0
    0.6042    0.7755    0.6888 H   0  0  0  0  0  0  0  0  0  0  0  0
    1.5466   -2.4941    0.3508 H   0  0  0  0  0  0  0  0  0  0  0  0
    3.0247   -2.9518    1.2142 H   0  0  0  0  0  0  0  0  0  0  0  0
    2.9516   -3.1190   -0.5401 H   0  0  0  0  0  0  0  0  0  0  0  0
    4.9311    2.2126    0.0813 H   0  0  0  0  0  0  0  0  0  0  0  0
    4.5145    1.2012    1.4944 H   0  0  0  0  0  0  0  0  0  0  0  0
    6.2470    0.0182    0.1214 H   0  0  0  0  0  0  0  0  0  0  0  0
    5.1736    0.1357   -1.3025 H   0  0  0  0  0  0  0  0  0  0  0  0
  1  5  1  0  0  0  0
  1 11  1  0  0  0  0
  2 12  1  0  0  0  0
  2 13  1  0  0  0  0
  3 16  1  0  0  0  0
  4 17  1  0  0  0  0
  4  8  1  0  0  0  0
  4  3  1  0  0  0  0
  5  6  2  0  0  0  0
  6  8  1  0  0  0  0
  6  2  1  0  0  0  0
  7  5  1  0  0  0  0
  7  3  1  0  0  0  0
  9  1  1  0  0  0  0
 10  1  1  0  0  0  0
 14  2  1  0  0  0  0
 15  3  1  0  0  0  0
 18  4  1  0  0  0  0
M  END
>  <HBA>
2

>  <HBD>
0

>  <TPSA>
18.46

>  <cid>
33008

>  <dipole>
0.44

>  <excitation_energy_1>
4.761

>  <excitation_energy_2>
5.09

>  <excitation_energy_3>
5.389

>  <excitation_energy_4>
5.506

>  <homo_energy>
-5.086

>  <homo_lumo_gap>
6.612

>  <logP>
1.285

>  <lumo_energy>
1.527

>  <melting_point>
-5.25

>  <molecular_refractivity>
30.54

>  <oscillator_strength_1>
0.0013

>  <oscillator_strength_2>
0.0048

>  <oscillator_strength_3>
0.0003

>  <oscillator_strength_4>
0.0008

>  <open_babel_can_smiles>
CC1=C(C)OCCO1

>  <mulliken_charges>
18
1   -0.514211
2   -0.514347
3   -0.051545
4   -0.051631
5   0.29113
6   0.29128
7   -0.502508
8   -0.502593
9   0.15548
10   0.163607
11   0.160698
12   0.155495
13   0.163635
14   0.160676
15   0.148532
16   0.14889
17   0.148547
18   0.148862

>  <lowdin_charges>
18
1   -0.438835
2   -0.436673
3   -0.140094
4   -0.139064
5   0.025802
6   0.0271
7   -0.225469
8   -0.226028
9   0.159758
10   0.162285
11   0.160101
12   0.157937
13   0.162385
14   0.159962
15   0.155178
16   0.141035
17   0.153588
18   0.141033

$$$$

