PCCDB-ID:  8149
public computational chemistry database (PCCDB) project, http://pccdb.org

 18 17  0  0  0  0  0  0  0  0999 V2000
    1.0370   -0.1439   -0.0079 C   0  0  0  0  0  0  0  0  0  0  0  0
    5.0326    2.5126    0.9030 C   0  0  0  0  0  0  0  0  0  0  0  0
    0.4306   -1.3897   -0.4831 C   0  0  0  0  0  0  0  0  0  0  0  0
    6.4918    2.6392    0.8966 C   0  0  0  0  0  0  0  0  0  0  0  0
    2.5710   -0.2424    0.0970 C   0  0  0  0  0  0  0  0  0  0  0  0
    4.5683    1.0856    0.5534 C   0  0  0  0  0  0  0  0  0  0  0  0
   -0.0320   -2.3843   -0.8620 N   0  0  0  0  0  0  0  0  0  0  0  0
    7.6495    2.7204    0.8846 N   0  0  0  0  0  0  0  0  0  0  0  0
    3.1090    1.0388    0.5453 N   0  0  0  0  0  0  0  0  0  0  0  0
    0.6045    0.1004    0.9713 H   0  0  0  0  0  0  0  0  0  0  0  0
    0.7724    0.6739   -0.6874 H   0  0  0  0  0  0  0  0  0  0  0  0
    4.6011    3.2197    0.1858 H   0  0  0  0  0  0  0  0  0  0  0  0
    4.6639    2.7990    1.8969 H   0  0  0  0  0  0  0  0  0  0  0  0
    2.9834   -0.4583   -0.8949 H   0  0  0  0  0  0  0  0  0  0  0  0
    2.8431   -1.0917    0.7481 H   0  0  0  0  0  0  0  0  0  0  0  0
    5.0332    0.3651    1.2490 H   0  0  0  0  0  0  0  0  0  0  0  0
    4.9242    0.8313   -0.4512 H   0  0  0  0  0  0  0  0  0  0  0  0
    2.7663    1.2300    1.4874 H   0  0  0  0  0  0  0  0  0  0  0  0
  1  5  1  0  0  0  0
  1 10  1  0  0  0  0
  2 13  1  0  0  0  0
  3  1  1  0  0  0  0
  4  2  1  0  0  0  0
  5  9  1  0  0  0  0
  5 15  1  0  0  0  0
  6  2  1  0  0  0  0
  6 16  1  0  0  0  0
  7  3  3  0  0  0  0
  8  4  3  0  0  0  0
  9  6  1  0  0  0  0
  9 18  1  0  0  0  0
 11  1  1  0  0  0  0
 12  2  1  0  0  0  0
 14  5  1  0  0  0  0
 17  6  1  0  0  0  0
M  END
>  <HBA>
3

>  <HBD>
1

>  <TPSA>
59.61

>  <cid>
8149

>  <dipole>
3.32

>  <excitation_energy_1>
5.72

>  <excitation_energy_2>
6.458

>  <excitation_energy_3>
6.546

>  <excitation_energy_4>
6.729

>  <homo_energy>
-7.097

>  <homo_lumo_gap>
7.633

>  <logP>
0.794

>  <lumo_energy>
0.536

>  <melting_point>
68.42

>  <molecular_refractivity>
33.26

>  <oscillator_strength_1>
0.0003

>  <oscillator_strength_2>
0.0167

>  <oscillator_strength_3>
0.0169

>  <oscillator_strength_4>
0.0677

>  <open_babel_can_smiles>
N#CCCNCCC#N

>  <mulliken_charges>
18
1   -0.346357
2   -0.346189
3   0.348672
4   0.348569
5   -0.121325
6   -0.121655
7   -0.465836
8   -0.465775
9   -0.563569
10   0.189019
11   0.209977
12   0.209959
13   0.189046
14   0.171469
15   0.147035
16   0.147068
17   0.171528
18   0.298363

>  <lowdin_charges>
18
1   -0.277688
2   -0.275717
3   -0.018102
4   -0.019994
5   -0.192054
6   -0.192805
7   -0.120884
8   -0.120678
9   -0.360749
10   0.177788
11   0.190042
12   0.190404
13   0.177595
14   0.15832
15   0.136226
16   0.136935
17   0.158346
18   0.253016

$$$$

