PCCDB-ID:  67496
public computational chemistry database (PCCDB) project, http://pccdb.org

 22 24  0  0  0  0  0  0  0  0999 V2000
    3.5535    0.8536    0.2773 C   0  0  0  0  0  0  0  0  0  0  0  0
    3.7031   -0.5304    0.3577 C   0  0  0  0  0  0  0  0  0  0  0  0
   -3.6817   -0.5193    0.3892 C   0  0  0  0  0  0  0  0  0  0  0  0
    2.3097    1.4094   -0.0197 C   0  0  0  0  0  0  0  0  0  0  0  0
    2.5998   -1.3558    0.1305 C   0  0  0  0  0  0  0  0  0  0  0  0
   -2.5973   -1.3801    0.1834 C   0  0  0  0  0  0  0  0  0  0  0  0
   -3.4719    0.8467    0.2389 C   0  0  0  0  0  0  0  0  0  0  0  0
    1.2040    0.5882   -0.2715 C   0  0  0  0  0  0  0  0  0  0  0  0
    1.3608   -0.8082   -0.2031 C   0  0  0  0  0  0  0  0  0  0  0  0
   -1.3665   -0.8483   -0.1817 C   0  0  0  0  0  0  0  0  0  0  0  0
   -1.2565    0.5554   -0.2716 C   0  0  0  0  0  0  0  0  0  0  0  0
   -2.2811    1.3843   -0.0648 N   0  0  0  0  0  0  0  0  0  0  0  0
   -0.0399    1.1536   -0.5891 N   0  0  0  0  0  0  0  0  0  0  0  0
    0.0048   -1.8898   -0.6417 S   0  0  0  0  0  0  0  0  0  0  0  0
    4.4012    1.5086    0.4568 H   0  0  0  0  0  0  0  0  0  0  0  0
    4.6668   -0.9691    0.5979 H   0  0  0  0  0  0  0  0  0  0  0  0
   -4.6595   -0.9059    0.6571 H   0  0  0  0  0  0  0  0  0  0  0  0
    2.1881    2.4894   -0.0629 H   0  0  0  0  0  0  0  0  0  0  0  0
    2.7006   -2.4354    0.1981 H   0  0  0  0  0  0  0  0  0  0  0  0
   -2.7129   -2.4556    0.2860 H   0  0  0  0  0  0  0  0  0  0  0  0
   -4.2869    1.5546    0.3758 H   0  0  0  0  0  0  0  0  0  0  0  0
   -0.0941    2.1650   -0.5559 H   0  0  0  0  0  0  0  0  0  0  0  0
  1  2  1  0  0  0  0
  1 15  1  0  0  0  0
  2 16  1  0  0  0  0
  3 17  1  0  0  0  0
  4  1  2  0  0  0  0
  5 19  1  0  0  0  0
  5  2  2  0  0  0  0
  6 20  1  0  0  0  0
  6  3  2  0  0  0  0
  7 21  1  0  0  0  0
  7  3  1  0  0  0  0
  8  9  2  0  0  0  0
  8  4  1  0  0  0  0
  9  5  1  0  0  0  0
 10  6  1  0  0  0  0
 11 10  2  0  0  0  0
 11 12  1  0  0  0  0
 12  7  2  0  0  0  0
 13 22  1  0  0  0  0
 13 11  1  0  0  0  0
 13  8  1  0  0  0  0
 14  9  1  0  0  0  0
 14 10  1  0  0  0  0
 18  4  1  0  0  0  0
M  END
>  <HBA>
2

>  <HBD>
1

>  <TPSA>
50.22

>  <cid>
67496

>  <dipole>
0.94

>  <excitation_energy_1>
3.592

>  <excitation_energy_2>
3.755

>  <excitation_energy_3>
4.097

>  <excitation_energy_4>
4.6

>  <homo_energy>
-5.162

>  <homo_lumo_gap>
4.484

>  <logP>
3.428

>  <lumo_energy>
-0.678

>  <melting_point>
135.52

>  <molecular_refractivity>
60.84

>  <oscillator_strength_1>
0.0006

>  <oscillator_strength_2>
0.0863

>  <oscillator_strength_3>
0.0811

>  <oscillator_strength_4>
0.0098

>  <open_babel_can_smiles>
c1ccc2c(c1)Sc1c(N2)nccc1

>  <mulliken_charges>
22
1   -0.139271
2   -0.120272
3   -0.139664
4   -0.174817
5   -0.178059
6   -0.14611
7   0.037211
8   0.335891
9   -0.12443
10   -0.116281
11   0.482989
12   -0.499661
13   -0.712568
14   0.182689
15   0.134853
16   0.132572
17   0.137568
18   0.130009
19   0.145246
20   0.153939
21   0.143222
22   0.334944

>  <lowdin_charges>
22
1   -0.149876
2   -0.169562
3   -0.193396
4   -0.184337
5   -0.152745
6   -0.130403
7   -0.085729
8   0.054306
9   -0.147465
10   -0.164234
11   0.096406
12   -0.180096
13   -0.235188
14   0.212936
15   0.162262
16   0.161141
17   0.165741
18   0.156989
19   0.165326
20   0.168913
21   0.159778
22   0.289233

$$$$

