PCCDB-ID:  22227
public computational chemistry database (PCCDB) project, http://pccdb.org

 27 27  0  0  1  0  0  0  0  0999 V2000
    1.0364    0.2762    1.3010 C   0  0  0  0  0  0  0  0  0  0  0  0
    1.7721   -0.0426   -1.0383 C   0  0  0  0  0  0  0  0  0  0  0  0
    2.7918    4.7120    2.5059 C   0  0  0  0  0  0  0  0  0  0  0  0
    3.7914    2.3596    2.7367 C   0  0  0  0  0  0  0  0  0  0  0  0
    3.8214    0.8939    2.2292 C   0  0  0  0  0  0  0  0  0  0  0  0
    3.8938    2.0097   -0.0370 C   0  0  0  0  0  0  0  0  0  0  0  0
    2.0288    0.3328    0.4054 C   0  0  0  0  0  0  0  0  0  0  0  0
    2.8363    3.2829    1.9559 C   0  0  2  0  0  0  0  0  0  0  0  0
    3.4712    0.7281    0.7257 C   0  0  2  0  0  0  0  0  0  0  0  0
    3.1792    3.2610    0.4631 C   0  0  0  0  0  0  0  0  0  0  0  0
    2.9098    4.1823   -0.2848 O   0  0  0  0  0  0  0  0  0  0  0  0
    0.0363   -0.0332    1.0085 H   0  0  0  0  0  0  0  0  0  0  0  0
    1.1656    0.5285    2.3484 H   0  0  0  0  0  0  0  0  0  0  0  0
    0.7626   -0.4420   -1.1713 H   0  0  0  0  0  0  0  0  0  0  0  0
    2.4875   -0.8023   -1.3821 H   0  0  0  0  0  0  0  0  0  0  0  0
    1.8789    0.8176   -1.7109 H   0  0  0  0  0  0  0  0  0  0  0  0
    2.4064    4.7214    3.5314 H   0  0  0  0  0  0  0  0  0  0  0  0
    2.1537    5.3429    1.8825 H   0  0  0  0  0  0  0  0  0  0  0  0
    3.7932    5.1593    2.5166 H   0  0  0  0  0  0  0  0  0  0  0  0
    4.8007    2.7899    2.6753 H   0  0  0  0  0  0  0  0  0  0  0  0
    3.5262    2.3794    3.8006 H   0  0  0  0  0  0  0  0  0  0  0  0
    3.1586    0.2659    2.8315 H   0  0  0  0  0  0  0  0  0  0  0  0
    4.8298    0.4960    2.3921 H   0  0  0  0  0  0  0  0  0  0  0  0
    3.7499    1.9365   -1.1179 H   0  0  0  0  0  0  0  0  0  0  0  0
    4.9713    2.1697    0.1235 H   0  0  0  0  0  0  0  0  0  0  0  0
    1.8224    2.8575    2.0140 H   0  0  0  0  0  0  0  0  0  0  0  0
    4.0902   -0.0884    0.3254 H   0  0  0  0  0  0  0  0  0  0  0  0
  1 13  1  0  0  0  0
  2  7  1  0  0  0  0
  3 19  1  0  0  0  0
  3 17  1  0  0  0  0
  4 21  1  0  0  0  0
  5 23  1  0  0  0  0
  5  4  1  0  0  0  0
  5 22  1  0  0  0  0
  6 25  1  0  0  0  0
  6 10  1  0  0  0  0
  6  9  1  0  0  0  0
  7  9  1  0  0  0  0
  7  1  2  0  0  0  0
  8 26  1  1  0  0  0
  8  3  1  0  0  0  0
  8  4  1  0  0  0  0
  9 27  1  6  0  0  0
  9  5  1  0  0  0  0
 10  8  1  0  0  0  0
 11 10  2  0  0  0  0
 12  1  1  0  0  0  0
 14  2  1  0  0  0  0
 15  2  1  0  0  0  0
 16  2  1  0  0  0  0
 18  3  1  0  0  0  0
 20  4  1  0  0  0  0
 24  6  1  0  0  0  0
M  END
>  <HBA>
1

>  <HBD>
0

>  <TPSA>
17.07

>  <cid>
22227

>  <dipole>
2.78

>  <excitation_energy_1>
4.216

>  <excitation_energy_2>
5.487

>  <excitation_energy_3>
5.684

>  <excitation_energy_4>
6.008

>  <homo_energy>
-6.329

>  <homo_lumo_gap>
6.038

>  <logP>
2.568

>  <lumo_energy>
-0.291

>  <melting_point>
-2.43

>  <molecular_refractivity>
47.8

>  <oscillator_strength_1>
0.0002

>  <oscillator_strength_2>
0.0109

>  <oscillator_strength_3>
0.002

>  <oscillator_strength_4>
0.002

>  <open_babel_can_smiles>
CC(=C)[C@@H]1CC[C@H](C(=O)C1)C

>  <mulliken_charges>
27
1   -0.405873
2   -0.51734
3   -0.444651
4   -0.279988
5   -0.28516
6   -0.369575
7   0.223337
8   -0.173289
9   -0.157614
10   0.471446
11   -0.461758
12   0.136199
13   0.136195
14   0.156219
15   0.151051
16   0.168518
17   0.137731
18   0.172151
19   0.143443
20   0.13632
21   0.141002
22   0.147874
23   0.138406
24   0.167138
25   0.164284
26   0.166284
27   0.137651

>  <lowdin_charges>
27
1   -0.366088
2   -0.444082
3   -0.439312
4   -0.27955
5   -0.286404
6   -0.304921
7   0.004111
8   -0.163441
9   -0.130506
10   0.162559
11   -0.239236
12   0.156574
13   0.153009
14   0.158371
15   0.15506
16   0.162213
17   0.147316
18   0.167686
19   0.148528
20   0.140697
21   0.148779
22   0.152827
23   0.148522
24   0.163478
25   0.165479
26   0.165794
27   0.152537

$$$$

