PCCDB-ID:  50098
public computational chemistry database (PCCDB) project, http://pccdb.org

 20 20  0  0  0  0  0  0  0  0999 V2000
    0.8930   -0.0030    0.0745 C   0  0  0  0  0  0  0  0  0  0  0  0
    3.1315    1.1651    0.1769 C   0  0  0  0  0  0  0  0  0  0  0  0
    4.5201    1.1934    0.1977 C   0  0  0  0  0  0  0  0  0  0  0  0
    2.4031   -0.0306    0.0943 C   0  0  0  0  0  0  0  0  0  0  0  0
    5.2588    0.0074    0.1192 C   0  0  0  0  0  0  0  0  0  0  0  0
    3.1594   -1.2060    0.0167 C   0  0  0  0  0  0  0  0  0  0  0  0
    4.5570   -1.1994    0.0141 C   0  0  0  0  0  0  0  0  0  0  0  0
    2.4641   -2.4986   -0.1437 N   0  0  0  0  0  0  0  0  0  0  0  0
    5.3187   -2.4613   -0.0231 N   0  0  0  0  0  0  0  0  0  0  0  0
    6.6111   -0.0331    0.1712 O   0  0  0  0  0  0  0  0  0  0  0  0
    1.5308   -2.7312    0.6182 O   0  0  0  0  0  0  0  0  0  0  0  0
    2.8508   -3.2297   -1.0499 O   0  0  0  0  0  0  0  0  0  0  0  0
    6.1656   -2.5740   -0.8983 O   0  0  0  0  0  0  0  0  0  0  0  0
    5.0531   -3.2875    0.8456 O   0  0  0  0  0  0  0  0  0  0  0  0
    0.5445    1.0187   -0.1014 H   0  0  0  0  0  0  0  0  0  0  0  0
    0.4783   -0.3531    1.0245 H   0  0  0  0  0  0  0  0  0  0  0  0
    0.4768   -0.6431   -0.7094 H   0  0  0  0  0  0  0  0  0  0  0  0
    2.5860    2.1030    0.2263 H   0  0  0  0  0  0  0  0  0  0  0  0
    5.0447    2.1426    0.2785 H   0  0  0  0  0  0  0  0  0  0  0  0
    6.9557    0.8659    0.2905 H   0  0  0  0  0  0  0  0  0  0  0  0
  1  4  1  0  0  0  0
  1 16  1  0  0  0  0
  2  3  1  0  0  0  0
  2 18  1  0  0  0  0
  3 19  1  0  0  0  0
  4  2  2  0  0  0  0
  5 10  1  0  0  0  0
  5  3  2  0  0  0  0
  6  4  1  0  0  0  0
  7  6  2  0  0  0  0
  7  5  1  0  0  0  0
  8  6  1  0  0  0  0
  8 11  2  0  0  0  0
  9  7  1  0  0  0  0
  9 14  2  0  0  0  0
 10 20  1  0  0  0  0
 12  8  2  0  0  0  0
 13  9  2  0  0  0  0
 15  1  1  0  0  0  0
 17  1  1  0  0  0  0
M  END
>  <HBA>
1

>  <HBD>
1

>  <TPSA>
111.87

>  <cid>
50098

>  <dipole>
8.09

>  <excitation_energy_1>
3.589

>  <excitation_energy_2>
3.691

>  <excitation_energy_3>
3.858

>  <excitation_energy_4>
4.106

>  <homo_energy>
-7.1

>  <homo_lumo_gap>
4.455

>  <logP>
2.563

>  <lumo_energy>
-2.645

>  <melting_point>
127.72

>  <molecular_refractivity>
51.08

>  <oscillator_strength_1>
0.0526

>  <oscillator_strength_2>
0.0095

>  <oscillator_strength_3>
0.0041

>  <oscillator_strength_4>
0.0068

>  <open_babel_can_smiles>
O=N(=O)c1c(O)ccc(c1N(=O)=O)C

>  <mulliken_charges>
20
1   -0.522125
2   -0.191701
3   -0.172038
4   0.170092
5   0.350541
6   0.210783
7   0.247015
8   0.341515
9   0.366129
10   -0.619037
11   -0.362227
12   -0.362146
13   -0.347558
14   -0.371731
15   0.158786
16   0.200098
17   0.180421
18   0.153067
19   0.146901
20   0.423215

>  <lowdin_charges>
20
1   -0.440565
2   -0.135503
3   -0.188694
4   0.003914
5   0.113691
6   0.023302
7   -0.003424
8   0.307032
9   0.30968
10   -0.344235
11   -0.219074
12   -0.2197
13   -0.204028
14   -0.226641
15   0.160075
16   0.181506
17   0.172894
18   0.171898
19   0.16898
20   0.368894

$$$$

