PCCDB-ID:  35432
public computational chemistry database (PCCDB) project, http://pccdb.org

 30 30  0  0  0  0  0  0  0  0999 V2000
    2.3511   -0.9852    0.7706 C   0  0  0  0  0  0  0  0  0  0  0  0
    3.3905    6.7693   -3.7276 C   0  0  0  0  0  0  0  0  0  0  0  0
    4.4002    5.8674   -4.0653 C   0  0  0  0  0  0  0  0  0  0  0  0
    2.4219    6.4036   -2.7868 C   0  0  0  0  0  0  0  0  0  0  0  0
    4.4389    4.6096   -3.4665 C   0  0  0  0  0  0  0  0  0  0  0  0
    2.4604    5.1478   -2.1902 C   0  0  0  0  0  0  0  0  0  0  0  0
    3.5662    2.8890   -1.9275 C   0  0  0  0  0  0  0  0  0  0  0  0
    2.7227    2.3178   -1.0476 C   0  0  0  0  0  0  0  0  0  0  0  0
    0.5976    0.6306    0.0846 C   0  0  0  0  0  0  0  0  0  0  0  0
    0.0359    1.3153    1.3345 C   0  0  0  0  0  0  0  0  0  0  0  0
    3.4717    4.2242   -2.5203 C   0  0  0  0  0  0  0  0  0  0  0  0
    3.0224    0.9545   -0.5279 C   0  0  0  0  0  0  0  0  0  0  0  0
    2.0260    0.3221    0.2073 N   0  0  0  0  0  0  0  0  0  0  0  0
    0.6716    2.5578    1.5931 O   0  0  0  0  0  0  0  0  0  0  0  0
    4.1210    0.4232   -0.6849 O   0  0  0  0  0  0  0  0  0  0  0  0
    1.7391   -1.1609    1.6608 H   0  0  0  0  0  0  0  0  0  0  0  0
    3.4062   -1.0058    1.0410 H   0  0  0  0  0  0  0  0  0  0  0  0
    2.1643   -1.7943    0.0501 H   0  0  0  0  0  0  0  0  0  0  0  0
    3.3568    7.7514   -4.1913 H   0  0  0  0  0  0  0  0  0  0  0  0
    5.1580    6.1431   -4.7936 H   0  0  0  0  0  0  0  0  0  0  0  0
    1.6352    7.1031   -2.5172 H   0  0  0  0  0  0  0  0  0  0  0  0
    5.2272    3.9086   -3.7297 H   0  0  0  0  0  0  0  0  0  0  0  0
    1.7034    4.8826   -1.4579 H   0  0  0  0  0  0  0  0  0  0  0  0
    4.4225    2.2899   -2.2338 H   0  0  0  0  0  0  0  0  0  0  0  0
    1.8558    2.8455   -0.6655 H   0  0  0  0  0  0  0  0  0  0  0  0
    0.4344    1.2698   -0.7856 H   0  0  0  0  0  0  0  0  0  0  0  0
    0.0534   -0.3058   -0.1028 H   0  0  0  0  0  0  0  0  0  0  0  0
    0.1135    0.6417    2.2033 H   0  0  0  0  0  0  0  0  0  0  0  0
   -1.0258    1.5375    1.1839 H   0  0  0  0  0  0  0  0  0  0  0  0
    1.6130    2.3619    1.7330 H   0  0  0  0  0  0  0  0  0  0  0  0
  1 17  1  0  0  0  0
  1 16  1  0  0  0  0
  2  4  1  0  0  0  0
  3  2  2  0  0  0  0
  3  5  1  0  0  0  0
  4 21  1  0  0  0  0
  4  6  2  0  0  0  0
  5 11  2  0  0  0  0
  6 23  1  0  0  0  0
  7  8  2  0  0  0  0
  8 25  1  0  0  0  0
  8 12  1  0  0  0  0
  9 13  1  0  0  0  0
  9 10  1  0  0  0  0
 10 14  1  0  0  0  0
 10 28  1  0  0  0  0
 11  6  1  0  0  0  0
 11  7  1  0  0  0  0
 12 13  1  0  0  0  0
 13  1  1  0  0  0  0
 14 30  1  0  0  0  0
 15 12  2  0  0  0  0
 18  1  1  0  0  0  0
 19  2  1  0  0  0  0
 20  3  1  0  0  0  0
 22  5  1  0  0  0  0
 24  7  1  0  0  0  0
 26  9  1  0  0  0  0
 27  9  1  0  0  0  0
 29 10  1  0  0  0  0
M  END
>  <HBA>
3

>  <HBD>
1

>  <TPSA>
40.54

>  <cid>
35432

>  <dipole>
2.26

>  <excitation_energy_1>
3.993

>  <excitation_energy_2>
4.281

>  <excitation_energy_3>
4.525

>  <excitation_energy_4>
4.55

>  <homo_energy>
-6.172

>  <homo_lumo_gap>
4.618

>  <logP>
1.151

>  <lumo_energy>
-1.554

>  <melting_point>
66.83

>  <molecular_refractivity>
60.02

>  <oscillator_strength_1>
0.0056

>  <oscillator_strength_2>
0.6843

>  <oscillator_strength_3>
0.0604

>  <oscillator_strength_4>
0.0086

>  <open_babel_can_smiles>
OCCN(C(=O)/C=C/c1ccccc1)C

>  <mulliken_charges>
30
1   -0.315172
2   -0.124333
3   -0.132353
4   -0.132179
5   -0.187194
6   -0.177113
7   -0.156081
8   -0.238752
9   -0.168741
10   -0.030953
11   0.16582
12   0.576777
13   -0.451463
14   -0.608643
15   -0.52976
16   0.146743
17   0.196378
18   0.157756
19   0.134094
20   0.134981
21   0.13502
22   0.138755
23   0.141254
24   0.166144
25   0.159511
26   0.171147
27   0.149651
28   0.128719
29   0.151284
30   0.398701

>  <lowdin_charges>
30
1   -0.354273
2   -0.148481
3   -0.155333
4   -0.154436
5   -0.151658
6   -0.149168
7   -0.105524
8   -0.228442
9   -0.217384
10   -0.142418
11   -0.007961
12   0.154326
13   -0.125627
14   -0.461714
15   -0.316324
16   0.148827
17   0.178026
18   0.150007
19   0.159481
20   0.161092
21   0.161067
22   0.162246
23   0.163196
24   0.175683
25   0.164993
26   0.163816
27   0.152397
28   0.13048
29   0.150219
30   0.342886

$$$$

