PCCDB-ID:  12283
public computational chemistry database (PCCDB) project, http://pccdb.org

 15 15  0  0  0  0  0  0  0  0999 V2000
    0.9349   -0.0638    0.0150 C   0  0  0  0  0  0  0  0  0  0  0  0
    3.1128    1.2338    0.0125 C   0  0  0  0  0  0  0  0  0  0  0  0
    2.4373    0.0175    0.0128 C   0  0  0  0  0  0  0  0  0  0  0  0
    4.5174    1.1726    0.0104 C   0  0  0  0  0  0  0  0  0  0  0  0
    4.4355   -1.0669    0.0098 C   0  0  0  0  0  0  0  0  0  0  0  0
    3.1019   -1.1530    0.0115 N   0  0  0  0  0  0  0  0  0  0  0  0
    5.1909    0.0306    0.0087 N   0  0  0  0  0  0  0  0  0  0  0  0
    5.2890    2.2813    0.0098 O   0  0  0  0  0  0  0  0  0  0  0  0
    5.1136   -2.2279    0.0090 O   0  0  0  0  0  0  0  0  0  0  0  0
    0.4726    0.9271    0.0107 H   0  0  0  0  0  0  0  0  0  0  0  0
    0.5894   -0.6116    0.8989 H   0  0  0  0  0  0  0  0  0  0  0  0
    0.5872   -0.6207   -0.8621 H   0  0  0  0  0  0  0  0  0  0  0  0
    2.5780    2.1785    0.0134 H   0  0  0  0  0  0  0  0  0  0  0  0
    4.7161    3.0646    0.0107 H   0  0  0  0  0  0  0  0  0  0  0  0
    4.4366   -2.9275    0.0072 H   0  0  0  0  0  0  0  0  0  0  0  0
  1 11  1  0  0  0  0
  2  3  2  0  0  0  0
  2 13  1  0  0  0  0
  3  1  1  0  0  0  0
  4  2  1  0  0  0  0
  5  6  2  0  0  0  0
  6  3  1  0  0  0  0
  7  5  2  0  0  0  0
  7  4  2  0  0  0  0
  8  4  1  0  0  0  0
  8 14  1  0  0  0  0
  9  5  1  0  0  0  0
 10  1  1  0  0  0  0
 12  1  1  0  0  0  0
 15  9  1  0  0  0  0
M  END
>  <HBA>
2

>  <HBD>
2

>  <TPSA>
65.72

>  <cid>
12283

>  <dipole>
4.31

>  <excitation_energy_1>
5.065

>  <excitation_energy_2>
5.312

>  <excitation_energy_3>
5.579

>  <excitation_energy_4>
5.762

>  <homo_energy>
-6.743

>  <homo_lumo_gap>
6.076

>  <logP>
-0.628

>  <lumo_energy>
-0.667

>  <melting_point>
172.59

>  <molecular_refractivity>
32.65

>  <oscillator_strength_1>
0.0049

>  <oscillator_strength_2>
0.0777

>  <oscillator_strength_3>
0.0001

>  <oscillator_strength_4>
0.0035

>  <open_babel_can_smiles>
CC1=CC(=[N]=[C](=N1)O)O

>  <mulliken_charges>
15
1   -0.51138
2   -0.263247
3   0.33232
4   0.526807
5   0.631464
6   -0.539485
7   -0.474833
8   -0.589847
9   -0.583279
10   0.154126
11   0.179727
12   0.179701
13   0.128046
14   0.413808
15   0.416071

>  <lowdin_charges>
15
1   -0.443947
2   -0.284849
3   0.094639
4   0.161677
5   0.164925
6   -0.235635
7   -0.180128
8   -0.336858
9   -0.336073
10   0.156736
11   0.174845
12   0.174873
13   0.162218
14   0.362636
15   0.364942

$$$$

