PCCDB-ID:  31722
public computational chemistry database (PCCDB) project, http://pccdb.org

 23 23  0  0  1  0  0  0  0  0999 V2000
    0.8701    0.1805    0.1682 C   0  0  0  0  0  0  0  0  0  0  0  0
    3.2700   -3.8744   -1.9892 C   0  0  0  0  0  0  0  0  0  0  0  0
    4.2850   -3.0930   -1.4356 C   0  0  0  0  0  0  0  0  0  0  0  0
    1.9538   -3.4160   -1.9479 C   0  0  0  0  0  0  0  0  0  0  0  0
    3.9834   -1.8674   -0.8434 C   0  0  0  0  0  0  0  0  0  0  0  0
    1.6513   -2.1899   -1.3529 C   0  0  0  0  0  0  0  0  0  0  0  0
    2.6593   -1.4022   -0.7831 C   0  0  0  0  0  0  0  0  0  0  0  0
    2.8231    1.0550   -1.1478 C   0  0  0  0  0  0  0  0  0  0  0  0
    2.3581   -0.0429   -0.1344 C   0  0  1  0  0  0  0  0  0  0  0  0
    3.2086    0.0992    1.0771 N   0  0  0  0  0  0  0  0  0  0  0  0
    2.1559    1.4009   -2.0929 O   0  0  0  0  0  0  0  0  0  0  0  0
    4.0395    1.5554   -0.8809 O   0  0  0  0  0  0  0  0  0  0  0  0
    0.2869    0.2424   -0.7524 H   0  0  0  0  0  0  0  0  0  0  0  0
    0.7399    1.1326    0.6961 H   0  0  0  0  0  0  0  0  0  0  0  0
    0.4746   -0.6228    0.7988 H   0  0  0  0  0  0  0  0  0  0  0  0
    3.5039   -4.8285   -2.4535 H   0  0  0  0  0  0  0  0  0  0  0  0
    5.3167   -3.4328   -1.4693 H   0  0  0  0  0  0  0  0  0  0  0  0
    1.1545   -4.0116   -2.3804 H   0  0  0  0  0  0  0  0  0  0  0  0
    4.7860   -1.2663   -0.4277 H   0  0  0  0  0  0  0  0  0  0  0  0
    0.6207   -1.8538   -1.3387 H   0  0  0  0  0  0  0  0  0  0  0  0
    3.2842   -0.7893    1.5677 H   0  0  0  0  0  0  0  0  0  0  0  0
    2.7871    0.7667    1.7222 H   0  0  0  0  0  0  0  0  0  0  0  0
    4.3021    1.1323   -0.0241 H   0  0  0  0  0  0  0  0  0  0  0  0
  1 14  1  0  0  0  0
  1 15  1  0  0  0  0
  2  4  2  0  0  0  0
  2  3  1  0  0  0  0
  3  5  2  0  0  0  0
  4  6  1  0  0  0  0
  5  7  1  0  0  0  0
  5 19  1  0  0  0  0
  6 20  1  0  0  0  0
  6  7  2  0  0  0  0
  7  9  1  0  0  0  0
  8 12  1  0  0  0  0
  9  8  1  6  0  0  0
  9  1  1  0  0  0  0
  9 10  1  0  0  0  0
 10 21  1  0  0  0  0
 10 22  1  0  0  0  0
 11  8  2  0  0  0  0
 12 23  1  0  0  0  0
 13  1  1  0  0  0  0
 16  2  1  0  0  0  0
 17  3  1  0  0  0  0
 18  4  1  0  0  0  0
M  END
>  <HBA>
3

>  <HBD>
2

>  <TPSA>
63.32

>  <cid>
31722

>  <dipole>
5.13

>  <excitation_energy_1>
5.152

>  <excitation_energy_2>
5.269

>  <excitation_energy_3>
5.793

>  <excitation_energy_4>
5.875

>  <homo_energy>
-6.612

>  <homo_lumo_gap>
6.139

>  <logP>
1.645

>  <lumo_energy>
-0.473

>  <melting_point>
144.18

>  <molecular_refractivity>
45.38

>  <oscillator_strength_1>
0.0353

>  <oscillator_strength_2>
0.0078

>  <oscillator_strength_3>
0.0193

>  <oscillator_strength_4>
0.0431

>  <open_babel_can_smiles>
OC(=O)[C@@](c1ccccc1)(N)C

>  <mulliken_charges>
23
1   -0.474471
2   -0.124485
3   -0.128141
4   -0.132133
5   -0.177441
6   -0.171376
7   0.141885
8   0.628605
9   0.021284
10   -0.782967
11   -0.466508
12   -0.585737
13   0.191591
14   0.146867
15   0.148788
16   0.134596
17   0.135498
18   0.135494
19   0.138892
20   0.136863
21   0.32496
22   0.320953
23   0.436983

>  <lowdin_charges>
23
1   -0.452095
2   -0.151331
3   -0.150715
4   -0.152504
5   -0.167657
6   -0.157575
7   -0.011656
8   0.178757
9   0.027154
10   -0.546115
11   -0.252983
12   -0.356493
13   0.175932
14   0.15393
15   0.153899
16   0.16002
17   0.159497
18   0.161872
19   0.163602
20   0.163794
21   0.273214
22   0.268757
23   0.358696

$$$$

