PCCDB-ID:  69844
public computational chemistry database (PCCDB) project, http://pccdb.org

 16 16  0  0  0  0  0  0  0  0999 V2000
    1.1302    0.0002   -0.0771 C   0  0  0  0  0  0  0  0  0  0  0  0
    5.3197   -0.1153   -0.0080 C   0  0  0  0  0  0  0  0  0  0  0  0
    2.6358   -0.0335   -0.0550 C   0  0  0  0  0  0  0  0  0  0  0  0
    4.6182    1.0984    0.0116 C   0  0  0  0  0  0  0  0  0  0  0  0
    4.5347   -1.2680   -0.0550 C   0  0  0  0  0  0  0  0  0  0  0  0
    5.2572    2.3096    0.1007 N   0  0  0  0  0  0  0  0  0  0  0  0
    3.2715    1.1422   -0.0154 N   0  0  0  0  0  0  0  0  0  0  0  0
    3.2037   -1.2480   -0.0797 N   0  0  0  0  0  0  0  0  0  0  0  0
    5.0772   -2.5096   -0.0811 O   0  0  0  0  0  0  0  0  0  0  0  0
    0.7705    1.0306   -0.0839 H   0  0  0  0  0  0  0  0  0  0  0  0
    0.7302   -0.5203    0.8003 H   0  0  0  0  0  0  0  0  0  0  0  0
    0.7535   -0.5284   -0.9595 H   0  0  0  0  0  0  0  0  0  0  0  0
    6.4054   -0.1509    0.0230 H   0  0  0  0  0  0  0  0  0  0  0  0
    6.2193    2.3706   -0.1995 H   0  0  0  0  0  0  0  0  0  0  0  0
    4.6781    3.1118   -0.1085 H   0  0  0  0  0  0  0  0  0  0  0  0
    6.0440   -2.4299   -0.0554 H   0  0  0  0  0  0  0  0  0  0  0  0
  1  3  1  0  0  0  0
  1 11  1  0  0  0  0
  2  4  2  0  0  0  0
  2 13  1  0  0  0  0
  3  7  2  0  0  0  0
  4  6  1  0  0  0  0
  5  2  1  0  0  0  0
  7  4  1  0  0  0  0
  8  3  1  0  0  0  0
  8  5  2  0  0  0  0
  9 16  1  0  0  0  0
  9  5  1  0  0  0  0
 10  1  1  0  0  0  0
 12  1  1  0  0  0  0
 14  6  1  0  0  0  0
 15  6  1  0  0  0  0
M  END
>  <HBA>
3

>  <HBD>
2

>  <TPSA>
71.77

>  <cid>
69844

>  <dipole>
4.25

>  <excitation_energy_1>
5.091

>  <excitation_energy_2>
5.275

>  <excitation_energy_3>
5.379

>  <excitation_energy_4>
5.467

>  <homo_energy>
-6.316

>  <homo_lumo_gap>
6.182

>  <logP>
0.242

>  <lumo_energy>
-0.133

>  <melting_point>
155.53

>  <molecular_refractivity>
34.23

>  <oscillator_strength_1>
0.0004

>  <oscillator_strength_2>
0.0142

>  <oscillator_strength_3>
0.0017

>  <oscillator_strength_4>
0.0038

>  <open_babel_can_smiles>
Nc1cc(O)nc(n1)C

>  <mulliken_charges>
16
1   -0.502158
2   -0.263072
3   0.436494
4   0.505671
5   0.512895
6   -0.776061
7   -0.528716
8   -0.488103
9   -0.599394
10   0.164965
11   0.17167
12   0.170527
13   0.117238
14   0.328736
15   0.341135
16   0.408175

>  <lowdin_charges>
16
1   -0.446335
2   -0.301291
3   0.112876
4   0.126557
5   0.154608
6   -0.460502
7   -0.226356
8   -0.204837
9   -0.344234
10   0.163362
11   0.171389
12   0.170573
13   0.154589
14   0.281968
15   0.291996
16   0.355637

$$$$

