PCCDB-ID:  71593
public computational chemistry database (PCCDB) project, http://pccdb.org

 18 19  0  0  0  0  0  0  0  0999 V2000
    0.9070   -0.1784   -0.0010 C   0  0  0  0  0  0  0  0  0  0  0  0
    5.2048    2.7234   -0.0319 C   0  0  0  0  0  0  0  0  0  0  0  0
    3.2449   -1.1152   -0.1123 C   0  0  0  0  0  0  0  0  0  0  0  0
    3.1392    1.0753   -0.0594 C   0  0  0  0  0  0  0  0  0  0  0  0
    2.9120    2.4616   -0.0193 C   0  0  0  0  0  0  0  0  0  0  0  0
    4.4736    0.6175   -0.1030 C   0  0  0  0  0  0  0  0  0  0  0  0
    1.6602    3.0470    0.0652 N   0  0  0  0  0  0  0  0  0  0  0  0
    3.9729    3.2736   -0.0042 N   0  0  0  0  0  0  0  0  0  0  0  0
    5.5379    1.4400   -0.0908 N   0  0  0  0  0  0  0  0  0  0  0  0
    4.5069   -0.7625   -0.1399 N   0  0  0  0  0  0  0  0  0  0  0  0
    2.3537   -0.0706   -0.0609 N   0  0  0  0  0  0  0  0  0  0  0  0
    0.6401   -1.2293    0.1331 H   0  0  0  0  0  0  0  0  0  0  0  0
    0.4405    0.1776   -0.9276 H   0  0  0  0  0  0  0  0  0  0  0  0
    0.5139    0.3917    0.8460 H   0  0  0  0  0  0  0  0  0  0  0  0
    6.0262    3.4369   -0.0120 H   0  0  0  0  0  0  0  0  0  0  0  0
    2.8872   -2.1384   -0.1225 H   0  0  0  0  0  0  0  0  0  0  0  0
    0.9054    2.5949   -0.4332 H   0  0  0  0  0  0  0  0  0  0  0  0
    1.6972    4.0493   -0.0840 H   0  0  0  0  0  0  0  0  0  0  0  0
  1 12  1  0  0  0  0
  1 14  1  0  0  0  0
  2 15  1  0  0  0  0
  2  8  2  0  0  0  0
  3 11  1  0  0  0  0
  4  5  2  0  0  0  0
  5  8  1  0  0  0  0
  5  7  1  0  0  0  0
  6  9  2  0  0  0  0
  6  4  1  0  0  0  0
  9  2  1  0  0  0  0
 10  3  2  0  0  0  0
 10  6  1  0  0  0  0
 11  4  1  0  0  0  0
 11  1  1  0  0  0  0
 13  1  1  0  0  0  0
 16  3  1  0  0  0  0
 17  7  1  0  0  0  0
 18  7  1  0  0  0  0
M  END
>  <HBA>
5

>  <HBD>
1

>  <TPSA>
69.62

>  <cid>
71593

>  <dipole>
7.18

>  <excitation_energy_1>
4.736

>  <excitation_energy_2>
4.889

>  <excitation_energy_3>
5.045

>  <excitation_energy_4>
5.307

>  <homo_energy>
-6.15

>  <homo_lumo_gap>
5.453

>  <logP>
0.527

>  <lumo_energy>
-0.697

>  <melting_point>
147.49

>  <molecular_refractivity>
40.99

>  <oscillator_strength_1>
0.0095

>  <oscillator_strength_2>
0.1091

>  <oscillator_strength_3>
0.0023

>  <oscillator_strength_4>
0.0031

>  <open_babel_can_smiles>
Cn1cnc2c1c(N)ncn2

>  <mulliken_charges>
18
1   -0.341963
2   0.153779
3   0.216906
4   0.312225
5   0.463566
6   0.386411
7   -0.774314
8   -0.495102
9   -0.46896
10   -0.467929
11   -0.510566
12   0.182989
13   0.172359
14   0.195007
15   0.146552
16   0.16375
17   0.323374
18   0.341912

>  <lowdin_charges>
18
1   -0.348316
2   -0.043447
3   -0.058472
4   -0.056619
5   0.103894
6   0.060616
7   -0.473746
8   -0.214972
9   -0.166312
10   -0.175469
11   -0.027229
12   0.172413
13   0.158284
14   0.172954
15   0.159411
16   0.169023
17   0.279244
18   0.288743

$$$$

