PCCDB-ID:  16582
public computational chemistry database (PCCDB) project, http://pccdb.org

 31 32  0  0  0  0  0  0  0  0999 V2000
    2.2085    1.8317    0.1688 C   0  0  0  0  0  0  0  0  0  0  0  0
    1.9128    2.8439   -2.1416 C   0  0  0  0  0  0  0  0  0  0  0  0
    8.7424    6.8772    3.8744 C   0  0  0  0  0  0  0  0  0  0  0  0
    8.8762    5.4962    4.1701 C   0  0  0  0  0  0  0  0  0  0  0  0
    7.8147    7.2968    2.9491 C   0  0  0  0  0  0  0  0  0  0  0  0
    8.0841    4.5658    3.5383 C   0  0  0  0  0  0  0  0  0  0  0  0
    6.0148    6.7544    1.3177 C   0  0  0  0  0  0  0  0  0  0  0  0
    5.2153    5.8319    0.6778 C   0  0  0  0  0  0  0  0  0  0  0  0
    6.2850    4.0342    1.9093 C   0  0  0  0  0  0  0  0  0  0  0  0
    3.6006    3.8155   -0.5630 C   0  0  0  0  0  0  0  0  0  0  0  0
    2.9002    2.5312   -1.0082 C   0  0  0  0  0  0  0  0  0  0  0  0
    6.9806    6.3625    2.2777 C   0  0  0  0  0  0  0  0  0  0  0  0
    7.1144    4.9655    2.5755 C   0  0  0  0  0  0  0  0  0  0  0  0
    5.3501    4.4503    0.9783 C   0  0  0  0  0  0  0  0  0  0  0  0
    4.6001    3.4692    0.3935 O   0  0  0  0  0  0  0  0  0  0  0  0
    1.7533    0.8876   -0.1518 H   0  0  0  0  0  0  0  0  0  0  0  0
    1.4107    2.4621    0.5840 H   0  0  0  0  0  0  0  0  0  0  0  0
    2.9202    1.6158    0.9706 H   0  0  0  0  0  0  0  0  0  0  0  0
    1.4194    1.9288   -2.4869 H   0  0  0  0  0  0  0  0  0  0  0  0
    2.4149    3.2994   -3.0037 H   0  0  0  0  0  0  0  0  0  0  0  0
    1.1283    3.5344   -1.8057 H   0  0  0  0  0  0  0  0  0  0  0  0
    9.3749    7.6004    4.3819 H   0  0  0  0  0  0  0  0  0  0  0  0
    9.6117    5.1740    4.9025 H   0  0  0  0  0  0  0  0  0  0  0  0
    7.7063    8.3541    2.7171 H   0  0  0  0  0  0  0  0  0  0  0  0
    8.1878    3.5076    3.7666 H   0  0  0  0  0  0  0  0  0  0  0  0
    5.9068    7.8111    1.0838 H   0  0  0  0  0  0  0  0  0  0  0  0
    4.4894    6.1683   -0.0533 H   0  0  0  0  0  0  0  0  0  0  0  0
    6.3730    2.9728    2.1232 H   0  0  0  0  0  0  0  0  0  0  0  0
    2.8725    4.5107   -0.1171 H   0  0  0  0  0  0  0  0  0  0  0  0
    4.0649    4.3169   -1.4249 H   0  0  0  0  0  0  0  0  0  0  0  0
    3.6800    1.8632   -1.4002 H   0  0  0  0  0  0  0  0  0  0  0  0
  1 17  1  0  0  0  0
  1 18  1  0  0  0  0
  2 21  1  0  0  0  0
  2 11  1  0  0  0  0
  3  4  1  0  0  0  0
  3 22  1  0  0  0  0
  4 23  1  0  0  0  0
  5  3  2  0  0  0  0
  6 25  1  0  0  0  0
  6  4  2  0  0  0  0
  7 12  2  0  0  0  0
  8 14  2  0  0  0  0
  8  7  1  0  0  0  0
  9 28  1  0  0  0  0
  9 13  2  0  0  0  0
 10 29  1  0  0  0  0
 10 15  1  0  0  0  0
 11 10  1  0  0  0  0
 11  1  1  0  0  0  0
 12 13  1  0  0  0  0
 12  5  1  0  0  0  0
 13  6  1  0  0  0  0
 14  9  1  0  0  0  0
 15 14  1  0  0  0  0
 16  1  1  0  0  0  0
 19  2  1  0  0  0  0
 20  2  1  0  0  0  0
 24  5  1  0  0  0  0
 26  7  1  0  0  0  0
 27  8  1  0  0  0  0
 30 10  1  0  0  0  0
 31 11  1  0  0  0  0
M  END
>  <HBA>
1

>  <HBD>
0

>  <TPSA>
9.23

>  <cid>
16582

>  <dipole>
1.56

>  <excitation_energy_1>
3.995

>  <excitation_energy_2>
4.446

>  <excitation_energy_3>
5.092

>  <excitation_energy_4>
5.251

>  <homo_energy>
-5.388

>  <homo_lumo_gap>
4.514

>  <logP>
3.875

>  <lumo_energy>
-0.873

>  <melting_point>
51.77

>  <molecular_refractivity>
64.86

>  <oscillator_strength_1>
0.0575

>  <oscillator_strength_2>
0.0084

>  <oscillator_strength_3>
0.0012

>  <oscillator_strength_4>
0.03

>  <open_babel_can_smiles>
CC(COc1ccc2c(c1)cccc2)C

>  <mulliken_charges>
31
1   -0.444308
2   -0.4519
3   -0.139695
4   -0.136384
5   -0.19049
6   -0.191874
7   -0.205681
8   -0.191906
9   -0.267121
10   -0.019903
11   -0.094892
12   0.139324
13   0.142447
14   0.386655
15   -0.531065
16   0.141488
17   0.136413
18   0.166438
19   0.151025
20   0.14359
21   0.142437
22   0.12607
23   0.127273
24   0.126122
25   0.127736
26   0.130823
27   0.134765
28   0.132814
29   0.133013
30   0.135649
31   0.141137

>  <lowdin_charges>
31
1   -0.448152
2   -0.446732
3   -0.169787
4   -0.156753
5   -0.153018
6   -0.16076
7   -0.145814
8   -0.204649
9   -0.193258
10   -0.131136
11   -0.127854
12   -0.013472
13   0.008675
14   0.101198
15   -0.200853
16   0.149566
17   0.145982
18   0.161187
19   0.155333
20   0.149882
21   0.148044
22   0.158391
23   0.158023
24   0.154295
25   0.155263
26   0.1565
27   0.16439
28   0.163034
29   0.136422
30   0.138544
31   0.147506

$$$$

