PCCDB-ID:  47086
public computational chemistry database (PCCDB) project, http://pccdb.org

 30 30  0  0  0  0  0  0  0  0999 V2000
    3.1736    1.1151   -1.4701 C   0  0  0  0  0  0  0  0  0  0  0  0
    8.2006    5.8922    2.1287 C   0  0  0  0  0  0  0  0  0  0  0  0
   10.5279    5.2402    2.7490 C   0  0  0  0  0  0  0  0  0  0  0  0
    2.9330    1.7684   -0.1181 C   0  0  0  0  0  0  0  0  0  0  0  0
    9.3453    1.1743    2.6830 C   0  0  0  0  0  0  0  0  0  0  0  0
    9.7194    2.5127    2.7610 C   0  0  0  0  0  0  0  0  0  0  0  0
    8.0455    0.7997    2.3479 C   0  0  0  0  0  0  0  0  0  0  0  0
    7.4603    3.1611    2.1706 C   0  0  0  0  0  0  0  0  0  0  0  0
    8.7788    3.5387    2.5114 C   0  0  0  0  0  0  0  0  0  0  0  0
    7.1282    1.8145    2.0908 C   0  0  0  0  0  0  0  0  0  0  0  0
    5.0718    1.9595    0.8654 C   0  0  0  0  0  0  0  0  0  0  0  0
    9.1279    4.8803    2.6078 N   0  0  0  0  0  0  0  0  0  0  0  0
    5.3879    2.8743    0.1397 O   0  0  0  0  0  0  0  0  0  0  0  0
    3.8944    1.3176    0.8661 O   0  0  0  0  0  0  0  0  0  0  0  0
    5.8201    1.3843    1.8315 O   0  0  0  0  0  0  0  0  0  0  0  0
    2.3901    1.4194   -2.1736 H   0  0  0  0  0  0  0  0  0  0  0  0
    3.1547    0.0239   -1.3835 H   0  0  0  0  0  0  0  0  0  0  0  0
    4.1402    1.4230   -1.8785 H   0  0  0  0  0  0  0  0  0  0  0  0
    8.6419    6.8795    2.2789 H   0  0  0  0  0  0  0  0  0  0  0  0
    7.2604    5.8626    2.6928 H   0  0  0  0  0  0  0  0  0  0  0  0
    7.9582    5.7779    1.0605 H   0  0  0  0  0  0  0  0  0  0  0  0
   10.6120    6.3266    2.8160 H   0  0  0  0  0  0  0  0  0  0  0  0
   11.1467    4.8977    1.9037 H   0  0  0  0  0  0  0  0  0  0  0  0
   10.9515    4.8201    3.6695 H   0  0  0  0  0  0  0  0  0  0  0  0
    1.9686    1.4762    0.3039 H   0  0  0  0  0  0  0  0  0  0  0  0
    2.9833    2.8579   -0.1880 H   0  0  0  0  0  0  0  0  0  0  0  0
   10.0886    0.4070    2.8829 H   0  0  0  0  0  0  0  0  0  0  0  0
   10.7440    2.7557    3.0133 H   0  0  0  0  0  0  0  0  0  0  0  0
    7.7386   -0.2380    2.2827 H   0  0  0  0  0  0  0  0  0  0  0  0
    6.7069    3.8995    1.9441 H   0  0  0  0  0  0  0  0  0  0  0  0
  1 17  1  0  0  0  0
  1  4  1  0  0  0  0
  2 19  1  0  0  0  0
  2 12  1  0  0  0  0
  2 20  1  0  0  0  0
  3 22  1  0  0  0  0
  3 24  1  0  0  0  0
  4 25  1  0  0  0  0
  4 14  1  0  0  0  0
  5  6  1  0  0  0  0
  5 27  1  0  0  0  0
  6 28  1  0  0  0  0
  7  5  2  0  0  0  0
  8  9  1  0  0  0  0
  9 12  1  0  0  0  0
  9  6  2  0  0  0  0
 10  8  2  0  0  0  0
 10  7  1  0  0  0  0
 11 14  1  0  0  0  0
 11 15  1  0  0  0  0
 12  3  1  0  0  0  0
 13 11  2  0  0  0  0
 15 10  1  0  0  0  0
 16  1  1  0  0  0  0
 18  1  1  0  0  0  0
 21  2  1  0  0  0  0
 23  3  1  0  0  0  0
 26  4  1  0  0  0  0
 29  7  1  0  0  0  0
 30  8  1  0  0  0  0
M  END
>  <HBA>
4

>  <HBD>
0

>  <TPSA>
38.77

>  <cid>
47086

>  <dipole>
1.65

>  <excitation_energy_1>
4.418

>  <excitation_energy_2>
4.63

>  <excitation_energy_3>
5.109

>  <excitation_energy_4>
5.182

>  <homo_energy>
-5.121

>  <homo_lumo_gap>
5.284

>  <logP>
2.288

>  <lumo_energy>
0.163

>  <melting_point>
40.22

>  <molecular_refractivity>
58.43

>  <oscillator_strength_1>
0.0557

>  <oscillator_strength_2>
0.0285

>  <oscillator_strength_3>
0.1126

>  <oscillator_strength_4>
0.0779

>  <open_babel_can_smiles>
CCOC(=O)Oc1cccc(c1)N(C)C

>  <mulliken_charges>
30
1   -0.463368
2   -0.312516
3   -0.310305
4   -0.043558
5   -0.144376
6   -0.189566
7   -0.178268
8   -0.224116
9   0.361773
10   0.342419
11   0.786663
12   -0.476682
13   -0.483539
14   -0.451952
15   -0.515905
16   0.150617
17   0.161313
18   0.178646
19   0.152687
20   0.16338
21   0.162932
22   0.154226
23   0.152051
24   0.162575
25   0.15779
26   0.169759
27   0.128356
28   0.122735
29   0.134294
30   0.151935

>  <lowdin_charges>
30
1   -0.454919
2   -0.348838
3   -0.348895
4   -0.120666
5   -0.142394
6   -0.214879
7   -0.204191
8   -0.225585
9   0.066003
10   0.114874
11   0.239134
12   -0.118137
13   -0.283413
14   -0.177505
15   -0.14188
16   0.160238
17   0.156305
18   0.166606
19   0.156051
20   0.153252
21   0.14619
22   0.155185
23   0.14284
24   0.152867
25   0.154764
26   0.155799
27   0.159269
28   0.158688
29   0.165281
30   0.177954

$$$$

