PCCDB-ID:  15765
public computational chemistry database (PCCDB) project, http://pccdb.org

 16 16  0  0  0  0  0  0  0  0999 V2000
    1.0316   -0.1386    0.0077 C   0  0  0  0  0  0  0  0  0  0  0  0
    4.6092    1.1169    0.3128 C   0  0  0  0  0  0  0  0  0  0  0  0
    3.2166    1.1404    0.1832 C   0  0  0  0  0  0  0  0  0  0  0  0
    5.2703   -0.0971    0.4057 C   0  0  0  0  0  0  0  0  0  0  0  0
    2.5328   -0.0765    0.1467 C   0  0  0  0  0  0  0  0  0  0  0  0
    4.4952   -1.2745    0.3582 C   0  0  0  0  0  0  0  0  0  0  0  0
    5.0819   -2.5236    0.4966 N   0  0  0  0  0  0  0  0  0  0  0  0
    3.1628   -1.2618    0.2259 N   0  0  0  0  0  0  0  0  0  0  0  0
    0.5912    0.8589   -0.0833 H   0  0  0  0  0  0  0  0  0  0  0  0
    0.5874   -0.6376    0.8770 H   0  0  0  0  0  0  0  0  0  0  0  0
    0.7525   -0.7267   -0.8739 H   0  0  0  0  0  0  0  0  0  0  0  0
    5.1727    2.0462    0.3425 H   0  0  0  0  0  0  0  0  0  0  0  0
    2.6764    2.0789    0.1097 H   0  0  0  0  0  0  0  0  0  0  0  0
    6.3495   -0.1497    0.5194 H   0  0  0  0  0  0  0  0  0  0  0  0
    6.0386   -2.6130    0.1817 H   0  0  0  0  0  0  0  0  0  0  0  0
    4.4800   -3.2836    0.2047 H   0  0  0  0  0  0  0  0  0  0  0  0
  1  5  1  0  0  0  0
  1 10  1  0  0  0  0
  2 12  1  0  0  0  0
  2  4  2  0  0  0  0
  3  2  1  0  0  0  0
  4 14  1  0  0  0  0
  5  3  2  0  0  0  0
  5  8  1  0  0  0  0
  6  4  1  0  0  0  0
  6  7  1  0  0  0  0
  8  6  2  0  0  0  0
  9  1  1  0  0  0  0
 11  1  1  0  0  0  0
 13  3  1  0  0  0  0
 15  7  1  0  0  0  0
 16  7  1  0  0  0  0
M  END
>  <HBA>
2

>  <HBD>
1

>  <TPSA>
38.91

>  <cid>
15765

>  <dipole>
1.62

>  <excitation_energy_1>
4.64

>  <excitation_energy_2>
5.074

>  <excitation_energy_3>
5.182

>  <excitation_energy_4>
5.54

>  <homo_energy>
-5.625

>  <homo_lumo_gap>
5.404

>  <logP>
1.553

>  <lumo_energy>
-0.22

>  <melting_point>
72.81

>  <molecular_refractivity>
33.61

>  <oscillator_strength_1>
0.0811

>  <oscillator_strength_2>
0.0055

>  <oscillator_strength_3>
0.0051

>  <oscillator_strength_4>
0.0678

>  <open_babel_can_smiles>
Cc1cccc(n1)N

>  <mulliken_charges>
16
1   -0.50464
2   -0.100457
3   -0.191013
4   -0.176443
5   0.311704
6   0.465223
7   -0.765192
8   -0.545872
9   0.14594
10   0.168239
11   0.166067
12   0.133334
13   0.121625
14   0.121268
15   0.320305
16   0.329913

>  <lowdin_charges>
16
1   -0.445053
2   -0.121302
3   -0.221506
4   -0.21923
5   0.067259
6   0.10412
7   -0.47865
8   -0.204292
9   0.151928
10   0.16735
11   0.166132
12   0.159814
13   0.157902
14   0.154935
15   0.276286
16   0.284305

$$$$

