PCCDB-ID:  70162
public computational chemistry database (PCCDB) project, http://pccdb.org

 33 34  0  0  0  0  0  0  0  0999 V2000
    0.9756    0.0145   -0.2623 C   0  0  0  0  0  0  0  0  0  0  0  0
    4.9984   -3.2984   -1.3726 C   0  0  0  0  0  0  0  0  0  0  0  0
    6.8245   -2.4898    0.1315 C   0  0  0  0  0  0  0  0  0  0  0  0
    4.7535   -3.4628    1.1356 C   0  0  0  0  0  0  0  0  0  0  0  0
    4.6768    3.6531    0.2834 C   0  0  0  0  0  0  0  0  0  0  0  0
    3.2688    3.6960    0.1619 C   0  0  0  0  0  0  0  0  0  0  0  0
    5.3319    2.4417    0.2712 C   0  0  0  0  0  0  0  0  0  0  0  0
    2.5457    2.5296    0.0294 C   0  0  0  0  0  0  0  0  0  0  0  0
    3.1881   -1.1544   -0.1304 C   0  0  0  0  0  0  0  0  0  0  0  0
    5.2903   -0.0305    0.1244 C   0  0  0  0  0  0  0  0  0  0  0  0
    2.4799    0.0274   -0.1251 C   0  0  0  0  0  0  0  0  0  0  0  0
    4.6164    1.2223    0.1369 C   0  0  0  0  0  0  0  0  0  0  0  0
    4.6075   -1.2208   -0.0061 C   0  0  0  0  0  0  0  0  0  0  0  0
    3.1911    1.2638    0.0122 C   0  0  0  0  0  0  0  0  0  0  0  0
    5.2959   -2.5961   -0.0262 C   0  0  0  0  0  0  0  0  0  0  0  0
    0.6021   -1.0093   -0.3603 H   0  0  0  0  0  0  0  0  0  0  0  0
    0.6429    0.5760   -1.1446 H   0  0  0  0  0  0  0  0  0  0  0  0
    0.4842    0.4663    0.6088 H   0  0  0  0  0  0  0  0  0  0  0  0
    5.4664   -4.2904   -1.3979 H   0  0  0  0  0  0  0  0  0  0  0  0
    5.3925   -2.7150   -2.2125 H   0  0  0  0  0  0  0  0  0  0  0  0
    3.9240   -3.4337   -1.5346 H   0  0  0  0  0  0  0  0  0  0  0  0
    7.2673   -3.4918    0.1088 H   0  0  0  0  0  0  0  0  0  0  0  0
    7.1043   -2.0253    1.0839 H   0  0  0  0  0  0  0  0  0  0  0  0
    7.2791   -1.9088   -0.6790 H   0  0  0  0  0  0  0  0  0  0  0  0
    5.2350   -4.4485    1.1316 H   0  0  0  0  0  0  0  0  0  0  0  0
    3.6728   -3.6214    1.0590 H   0  0  0  0  0  0  0  0  0  0  0  0
    4.9543   -2.9898    2.1035 H   0  0  0  0  0  0  0  0  0  0  0  0
    5.2391    4.5774    0.3863 H   0  0  0  0  0  0  0  0  0  0  0  0
    2.7561    4.6542    0.1725 H   0  0  0  0  0  0  0  0  0  0  0  0
    6.4150    2.4018    0.3643 H   0  0  0  0  0  0  0  0  0  0  0  0
    1.4652    2.5776   -0.0634 H   0  0  0  0  0  0  0  0  0  0  0  0
    2.6285   -2.0807   -0.2346 H   0  0  0  0  0  0  0  0  0  0  0  0
    6.3709   -0.0164    0.2228 H   0  0  0  0  0  0  0  0  0  0  0  0
  1 11  1  0  0  0  0
  1 18  1  0  0  0  0
  2 15  1  0  0  0  0
  3 23  1  0  0  0  0
  4 27  1  0  0  0  0
  5 28  1  0  0  0  0
  6 29  1  0  0  0  0
  6  5  2  0  0  0  0
  7  5  1  0  0  0  0
  7 30  1  0  0  0  0
  8  6  1  0  0  0  0
  9 11  2  0  0  0  0
  9 13  1  0  0  0  0
 10 12  1  0  0  0  0
 10 33  1  0  0  0  0
 11 14  1  0  0  0  0
 12  7  2  0  0  0  0
 13 10  2  0  0  0  0
 14  8  2  0  0  0  0
 14 12  1  0  0  0  0
 15 13  1  0  0  0  0
 15  3  1  0  0  0  0
 15  4  1  0  0  0  0
 16  1  1  0  0  0  0
 17  1  1  0  0  0  0
 19  2  1  0  0  0  0
 20  2  1  0  0  0  0
 21  2  1  0  0  0  0
 22  3  1  0  0  0  0
 24  3  1  0  0  0  0
 25  4  1  0  0  0  0
 26  4  1  0  0  0  0
 31  8  1  0  0  0  0
 32  9  1  0  0  0  0
M  END
>  <HBA>
0

>  <HBD>
0

>  <TPSA>
0.0

>  <cid>
70162

>  <dipole>
0.43

>  <excitation_energy_1>
4.278

>  <excitation_energy_2>
4.38

>  <excitation_energy_3>
5.221

>  <excitation_energy_4>
5.515

>  <homo_energy>
-5.587

>  <homo_lumo_gap>
4.759

>  <logP>
4.446

>  <lumo_energy>
-0.827

>  <melting_point>
62.28

>  <molecular_refractivity>
68.18

>  <oscillator_strength_1>
0.0669

>  <oscillator_strength_2>
0.0066

>  <oscillator_strength_3>
0.0014

>  <oscillator_strength_4>
0.0908

>  <open_babel_can_smiles>
Cc1cc(cc2c1cccc2)C(C)(C)C

>  <mulliken_charges>
33
1   -0.53612
2   -0.439763
3   -0.45447
4   -0.440522
5   -0.135967
6   -0.133044
7   -0.194767
8   -0.200297
9   -0.26733
10   -0.292253
11   0.139484
12   0.153437
13   0.198704
14   0.076352
15   0.014187
16   0.15454
17   0.161747
18   0.16179
19   0.138102
20   0.147858
21   0.143155
22   0.140144
23   0.145581
24   0.145466
25   0.138283
26   0.143073
27   0.148125
28   0.126888
29   0.126045
30   0.126135
31   0.126506
32   0.116076
33   0.122852

>  <lowdin_charges>
33
1   -0.443739
2   -0.438145
3   -0.444585
4   -0.437039
5   -0.161308
6   -0.159956
7   -0.154784
8   -0.160465
9   -0.177711
10   -0.176879
11   0.000434
12   0.002075
13   -0.00121
14   -0.012206
15   0.017829
16   0.156368
17   0.159777
18   0.159976
19   0.146104
20   0.152709
21   0.146919
22   0.149598
23   0.149725
24   0.150614
25   0.14635
26   0.146601
27   0.151744
28   0.157433
29   0.156669
30   0.153664
31   0.15647
32   0.151505
33   0.155462

$$$$

