PCCDB-ID:  49387
public computational chemistry database (PCCDB) project, http://pccdb.org

 28 29  0  0  0  0  0  0  0  0999 V2000
    1.2009    0.8847   -0.7515 C   0  0  0  0  0  0  0  0  0  0  0  0
    3.2249   -0.5270   -0.9386 C   0  0  0  0  0  0  0  0  0  0  0  0
    6.5011    1.8825    3.9869 C   0  0  0  0  0  0  0  0  0  0  0  0
    4.6638    6.0153    2.2842 C   0  0  0  0  0  0  0  0  0  0  0  0
    6.4112    3.2545    4.0795 C   0  0  0  0  0  0  0  0  0  0  0  0
    5.4677    5.3760    3.1970 C   0  0  0  0  0  0  0  0  0  0  0  0
    5.7814    1.1777    3.0038 C   0  0  0  0  0  0  0  0  0  0  0  0
    3.9797    5.2286    1.3278 C   0  0  0  0  0  0  0  0  0  0  0  0
    3.1180    1.2810    0.7165 C   0  0  0  0  0  0  0  0  0  0  0  0
    5.5892    3.9624    3.1685 C   0  0  0  0  0  0  0  0  0  0  0  0
    4.9324    1.8144    2.1015 C   0  0  0  0  0  0  0  0  0  0  0  0
    4.8379    3.2565    2.1677 C   0  0  0  0  0  0  0  0  0  0  0  0
    4.0553    3.9140    1.2655 N   0  0  0  0  0  0  0  0  0  0  0  0
    4.3034    1.0224    1.1497 N   0  0  0  0  0  0  0  0  0  0  0  0
    2.5182    0.5428   -0.2574 N   0  0  0  0  0  0  0  0  0  0  0  0
    0.5247    0.0209   -0.6913 H   0  0  0  0  0  0  0  0  0  0  0  0
    1.2399    1.2120   -1.8007 H   0  0  0  0  0  0  0  0  0  0  0  0
    0.7796    1.6968   -0.1534 H   0  0  0  0  0  0  0  0  0  0  0  0
    2.6185   -1.4419   -0.9369 H   0  0  0  0  0  0  0  0  0  0  0  0
    4.1638   -0.7055   -0.4146 H   0  0  0  0  0  0  0  0  0  0  0  0
    3.4377   -0.2554   -1.9823 H   0  0  0  0  0  0  0  0  0  0  0  0
    7.1349    1.3303    4.6761 H   0  0  0  0  0  0  0  0  0  0  0  0
    4.5552    7.0959    2.2797 H   0  0  0  0  0  0  0  0  0  0  0  0
    6.9632    3.8056    4.8366 H   0  0  0  0  0  0  0  0  0  0  0  0
    6.0224    5.9373    3.9459 H   0  0  0  0  0  0  0  0  0  0  0  0
    5.8680    0.0979    2.9317 H   0  0  0  0  0  0  0  0  0  0  0  0
    3.3500    5.7123    0.5807 H   0  0  0  0  0  0  0  0  0  0  0  0
    2.4896    2.0844    1.1026 H   0  0  0  0  0  0  0  0  0  0  0  0
  1 16  1  0  0  0  0
  1 15  1  0  0  0  0
  1 18  1  0  0  0  0
  2 19  1  0  0  0  0
  2 20  1  0  0  0  0
  2 15  1  0  0  0  0
  3  5  1  0  0  0  0
  3 22  1  0  0  0  0
  4  6  2  0  0  0  0
  5 24  1  0  0  0  0
  6 25  1  0  0  0  0
  7  3  2  0  0  0  0
  8  4  1  0  0  0  0
  9 28  1  0  0  0  0
  9 14  2  0  0  0  0
 10  6  1  0  0  0  0
 10  5  2  0  0  0  0
 11 12  2  0  0  0  0
 11  7  1  0  0  0  0
 12 10  1  0  0  0  0
 13  8  2  0  0  0  0
 13 12  1  0  0  0  0
 14 11  1  0  0  0  0
 15  9  1  0  0  0  0
 17  1  1  0  0  0  0
 21  2  1  0  0  0  0
 23  4  1  0  0  0  0
 26  7  1  0  0  0  0
 27  8  1  0  0  0  0
M  END
>  <HBA>
3

>  <HBD>
0

>  <TPSA>
28.49

>  <cid>
49387

>  <dipole>
2.19

>  <excitation_energy_1>
3.29

>  <excitation_energy_2>
4.046

>  <excitation_energy_3>
4.184

>  <excitation_energy_4>
4.504

>  <homo_energy>
-4.966

>  <homo_lumo_gap>
3.889

>  <logP>
2.456

>  <lumo_energy>
-1.078

>  <melting_point>
90.7

>  <molecular_refractivity>
63.46

>  <oscillator_strength_1>
0.134

>  <oscillator_strength_2>
0.0186

>  <oscillator_strength_3>
0.0037

>  <oscillator_strength_4>
0.0064

>  <open_babel_can_smiles>
CN(/C=N\c1cccc2c1nccc2)C

>  <mulliken_charges>
28
1   -0.307344
2   -0.31842
3   -0.131365
4   -0.156101
5   -0.209451
6   -0.15304
7   -0.182696
8   0.038349
9   0.298707
10   0.162734
11   0.287749
12   0.204712
13   -0.519743
14   -0.560163
15   -0.372283
16   0.156543
17   0.157431
18   0.167658
19   0.149043
20   0.207748
21   0.152489
22   0.126382
23   0.132389
24   0.121487
25   0.137385
26   0.127126
27   0.130629
28   0.152043

>  <lowdin_charges>
28
1   -0.345442
2   -0.35539
3   -0.151355
4   -0.183486
5   -0.186055
6   -0.129736
7   -0.1773
8   -0.097398
9   -0.008745
10   -0.010444
11   0.050059
12   0.017089
13   -0.152979
14   -0.229838
15   -0.082687
16   0.150044
17   0.147197
18   0.164209
19   0.148854
20   0.185341
21   0.14721
22   0.158606
23   0.160043
24   0.155699
25   0.161852
26   0.159843
27   0.152168
28   0.152642

$$$$

