PCCDB-ID:  7354
public computational chemistry database (PCCDB) project, http://pccdb.org

 24 23  0  0  0  0  0  0  0  0999 V2000
    0.5553   -0.4650    0.4593 C   0  0  0  0  0  0  0  0  0  0  0  0
    4.8885    3.5479   -4.6338 C   0  0  0  0  0  0  0  0  0  0  0  0
    5.0508    1.1100   -5.2176 C   0  0  0  0  0  0  0  0  0  0  0  0
    2.0729   -0.3680    0.2723 C   0  0  0  0  0  0  0  0  0  0  0  0
    2.4691    0.1448   -1.1189 C   0  0  0  0  0  0  0  0  0  0  0  0
    3.9824    0.2270   -1.2917 C   0  0  0  0  0  0  0  0  0  0  0  0
    4.7912    2.2607   -4.2798 C   0  0  0  0  0  0  0  0  0  0  0  0
    4.3996    1.9718   -2.8616 C   0  0  0  0  0  0  0  0  0  0  0  0
    4.1643    2.8112   -2.0141 O   0  0  0  0  0  0  0  0  0  0  0  0
    4.3431    0.6377   -2.6304 O   0  0  0  0  0  0  0  0  0  0  0  0
    0.3008   -0.8314    1.4601 H   0  0  0  0  0  0  0  0  0  0  0  0
    0.1091   -1.1508   -0.2711 H   0  0  0  0  0  0  0  0  0  0  0  0
    0.0777    0.5135    0.3302 H   0  0  0  0  0  0  0  0  0  0  0  0
    5.1688    3.8389   -5.6422 H   0  0  0  0  0  0  0  0  0  0  0  0
    4.6886    4.3349   -3.9141 H   0  0  0  0  0  0  0  0  0  0  0  0
    5.3320    1.4767   -6.2094 H   0  0  0  0  0  0  0  0  0  0  0  0
    4.1644    0.4738   -5.3207 H   0  0  0  0  0  0  0  0  0  0  0  0
    5.8547    0.4658   -4.8438 H   0  0  0  0  0  0  0  0  0  0  0  0
    2.5254   -1.3557    0.4417 H   0  0  0  0  0  0  0  0  0  0  0  0
    2.4936    0.2977    1.0386 H   0  0  0  0  0  0  0  0  0  0  0  0
    2.0415    1.1409   -1.2842 H   0  0  0  0  0  0  0  0  0  0  0  0
    2.0579   -0.5171   -1.8928 H   0  0  0  0  0  0  0  0  0  0  0  0
    4.4488   -0.7552   -1.1731 H   0  0  0  0  0  0  0  0  0  0  0  0
    4.4220    0.9277   -0.5769 H   0  0  0  0  0  0  0  0  0  0  0  0
  1 11  1  0  0  0  0
  2  7  2  0  0  0  0
  2 15  1  0  0  0  0
  3 18  1  0  0  0  0
  3  7  1  0  0  0  0
  4 19  1  0  0  0  0
  4  1  1  0  0  0  0
  4 20  1  0  0  0  0
  5  4  1  0  0  0  0
  6 23  1  0  0  0  0
  6  5  1  0  0  0  0
  6 24  1  0  0  0  0
  7  8  1  0  0  0  0
  8 10  1  0  0  0  0
  8  9  2  0  0  0  0
 10  6  1  0  0  0  0
 12  1  1  0  0  0  0
 13  1  1  0  0  0  0
 14  2  1  0  0  0  0
 16  3  1  0  0  0  0
 17  3  1  0  0  0  0
 21  5  1  0  0  0  0
 22  5  1  0  0  0  0
M  END
>  <HBA>
2

>  <HBD>
0

>  <TPSA>
26.3

>  <cid>
7354

>  <dipole>
1.72

>  <excitation_energy_1>
4.809

>  <excitation_energy_2>
5.847

>  <excitation_energy_3>
6.232

>  <excitation_energy_4>
6.803

>  <homo_energy>
-7.178

>  <homo_lumo_gap>
6.215

>  <logP>
1.906

>  <lumo_energy>
-0.963

>  <melting_point>
-32.63

>  <molecular_refractivity>
41.38

>  <oscillator_strength_1>
0.0001

>  <oscillator_strength_2>
0.2342

>  <oscillator_strength_3>
0.1474

>  <oscillator_strength_4>
0.0067

>  <open_babel_can_smiles>
CCCCOC(=O)C(=C)C

>  <mulliken_charges>
24
1   -0.441015
2   -0.358703
3   -0.503377
4   -0.258644
5   -0.272201
6   -0.043752
7   0.127685
8   0.589629
9   -0.494857
10   -0.477983
11   0.144842
12   0.143445
13   0.147883
14   0.14626
15   0.177402
16   0.149133
17   0.16726
18   0.168033
19   0.131895
20   0.141059
21   0.160969
22   0.139706
23   0.147202
24   0.168129

>  <lowdin_charges>
24
1   -0.442918
2   -0.29266
3   -0.439283
4   -0.272379
5   -0.287392
6   -0.132784
7   -0.032991
8   0.197777
9   -0.276563
10   -0.192982
11   0.15058
12   0.148648
13   0.149479
14   0.161768
15   0.180372
16   0.155829
17   0.165129
18   0.166057
19   0.138872
20   0.145017
21   0.155449
22   0.146088
23   0.149471
24   0.159415

$$$$

