PCCDB-ID:  69313
public computational chemistry database (PCCDB) project, http://pccdb.org

 21 21  0  0  0  0  0  0  0  0999 V2000
    1.8248    0.1366    1.3189 C   0  0  0  0  0  0  0  0  0  0  0  0
    3.7834    4.4669    6.3052 C   0  0  0  0  0  0  0  0  0  0  0  0
    4.4310    3.2829    5.9356 C   0  0  0  0  0  0  0  0  0  0  0  0
    2.6241    4.8466    5.6335 C   0  0  0  0  0  0  0  0  0  0  0  0
    3.9261    2.4927    4.9090 C   0  0  0  0  0  0  0  0  0  0  0  0
    2.1029    4.0629    4.5983 C   0  0  0  0  0  0  0  0  0  0  0  0
    1.1719    2.3684    2.5148 C   0  0  0  0  0  0  0  0  0  0  0  0
    0.8810    1.3088    1.4482 C   0  0  0  0  0  0  0  0  0  0  0  0
    2.7593    2.8819    4.2365 C   0  0  0  0  0  0  0  0  0  0  0  0
   -0.1012    1.4574    0.7484 O   0  0  0  0  0  0  0  0  0  0  0  0
    2.3421    2.0373    3.2398 O   0  0  0  0  0  0  0  0  0  0  0  0
    1.8735   -0.4175    2.2634 H   0  0  0  0  0  0  0  0  0  0  0  0
    2.8430    0.4882    1.1164 H   0  0  0  0  0  0  0  0  0  0  0  0
    1.4812   -0.5158    0.5142 H   0  0  0  0  0  0  0  0  0  0  0  0
    4.1796    5.0821    7.1075 H   0  0  0  0  0  0  0  0  0  0  0  0
    5.3356    2.9721    6.4513 H   0  0  0  0  0  0  0  0  0  0  0  0
    2.1099    5.7634    5.9093 H   0  0  0  0  0  0  0  0  0  0  0  0
    4.4158    1.5713    4.6092 H   0  0  0  0  0  0  0  0  0  0  0  0
    1.1988    4.3801    4.0911 H   0  0  0  0  0  0  0  0  0  0  0  0
    0.2956    2.4327    3.1760 H   0  0  0  0  0  0  0  0  0  0  0  0
    1.2762    3.3388    2.0080 H   0  0  0  0  0  0  0  0  0  0  0  0
  1  8  1  0  0  0  0
  1 12  1  0  0  0  0
  2 15  1  0  0  0  0
  3  2  1  0  0  0  0
  3 16  1  0  0  0  0
  4 17  1  0  0  0  0
  4  2  2  0  0  0  0
  5  3  2  0  0  0  0
  6  4  1  0  0  0  0
  7 20  1  0  0  0  0
  7 11  1  0  0  0  0
  8  7  1  0  0  0  0
  9  6  2  0  0  0  0
  9  5  1  0  0  0  0
 10  8  2  0  0  0  0
 11  9  1  0  0  0  0
 13  1  1  0  0  0  0
 14  1  1  0  0  0  0
 18  5  1  0  0  0  0
 19  6  1  0  0  0  0
 21  7  1  0  0  0  0
M  END
>  <HBA>
2

>  <HBD>
0

>  <TPSA>
26.3

>  <cid>
69313

>  <dipole>
2.02

>  <excitation_energy_1>
4.453

>  <excitation_energy_2>
4.762

>  <excitation_energy_3>
5.123

>  <excitation_energy_4>
5.657

>  <homo_energy>
-6.15

>  <homo_lumo_gap>
5.529

>  <logP>
1.654

>  <lumo_energy>
-0.62

>  <melting_point>
28.48

>  <molecular_refractivity>
42.75

>  <oscillator_strength_1>
0.0

>  <oscillator_strength_2>
0.0108

>  <oscillator_strength_3>
0.0212

>  <oscillator_strength_4>
0.002

>  <open_babel_can_smiles>
CC(=O)COc1ccccc1

>  <mulliken_charges>
21
1   -0.51875
2   -0.131309
3   -0.132727
4   -0.138116
5   -0.176617
6   -0.193985
7   -0.113832
8   0.424001
9   0.381655
10   -0.433541
11   -0.528181
12   0.181929
13   0.181695
14   0.177187
15   0.128861
16   0.133062
17   0.133417
18   0.136411
19   0.137625
20   0.175652
21   0.175562

>  <lowdin_charges>
21
1   -0.471407
2   -0.176621
3   -0.145119
4   -0.14451
5   -0.183215
6   -0.213673
7   -0.16314
8   0.1624
9   0.102484
10   -0.230678
11   -0.203462
12   0.178856
13   0.177966
14   0.173386
15   0.159374
16   0.160057
17   0.159657
18   0.165684
19   0.163888
20   0.164464
21   0.163608

$$$$

