PCCDB-ID:  9508
public computational chemistry database (PCCDB) project, http://pccdb.org

 17 17  0  0  1  0  0  0  0  0999 V2000
    1.0313   -0.0356    0.0577 C   0  0  0  0  0  0  0  0  0  0  0  0
    5.4371    2.5039    0.0496 C   0  0  0  0  0  0  0  0  0  0  0  0
    3.2110    1.2756    0.0544 C   0  0  0  0  0  0  0  0  0  0  0  0
    2.5336    0.0545    0.0521 C   0  0  1  0  0  0  0  0  0  0  0  0
    4.6099    1.2462    0.0481 C   0  0  0  0  0  0  0  0  0  0  0  0
    4.5404   -1.0141    0.0415 C   0  0  0  0  0  0  0  0  0  0  0  0
    3.2062   -1.1075    0.0455 N   0  0  0  0  0  0  0  0  0  0  0  0
    5.2871    0.0886    0.0414 N   0  0  0  0  0  0  0  0  0  0  0  0
    5.2227   -2.1754    0.0362 O   0  0  0  0  0  0  0  0  0  0  0  0
    0.5655    0.9535    0.0356 H   0  0  0  0  0  0  0  0  0  0  0  0
    0.6875   -0.5669    0.9525 H   0  0  0  0  0  0  0  0  0  0  0  0
    0.6836   -0.6101   -0.8081 H   0  0  0  0  0  0  0  0  0  0  0  0
    4.8138    3.4021    0.0217 H   0  0  0  0  0  0  0  0  0  0  0  0
    6.1115    2.5110   -0.8136 H   0  0  0  0  0  0  0  0  0  0  0  0
    6.0671    2.5382    0.9456 H   0  0  0  0  0  0  0  0  0  0  0  0
    2.6697    2.2155    0.0609 H   0  0  0  0  0  0  0  0  0  0  0  0
    4.5474   -2.8768    0.0363 H   0  0  0  0  0  0  0  0  0  0  0  0
  1 11  1  0  0  0  0
  2 15  1  0  0  0  0
  3 16  1  0  0  0  0
  4  3  1  0  0  0  0
  4  1  1  1  0  0  0
  5  2  1  0  0  0  0
  5  3  2  0  0  0  0
  6  7  2  0  0  0  0
  7  4  1  0  0  0  0
  8  6  2  0  0  0  0
  8  5  1  0  0  0  0
  9 17  1  0  0  0  0
  9  6  1  0  0  0  0
 10  1  1  0  0  0  0
 12  1  1  0  0  0  0
 13  2  1  0  0  0  0
 14  2  1  0  0  0  0
M  RAD  1   4   2
M  END
>  <HBA>
2

>  <HBD>
1

>  <TPSA>
45.75

>  <cid>
9508

>  <dipole>
2.83

>  <excitation_energy_1>
4.569

>  <excitation_energy_2>
5.119

>  <excitation_energy_3>
5.39

>  <excitation_energy_4>
6.165

>  <homo_energy>
-6.732

>  <homo_lumo_gap>
5.818

>  <logP>
0.387

>  <lumo_energy>
-0.914

>  <melting_point>
110.21

>  <molecular_refractivity>
34.79

>  <oscillator_strength_1>
0.0058

>  <oscillator_strength_2>
0.1075

>  <oscillator_strength_3>
0.0

>  <oscillator_strength_4>
0.0041

>  <open_babel_can_smiles>
C[C]1C=C(C)N=[C](=N1)O

>  <mulliken_charges>
17
1   -0.511106
2   -0.509271
3   -0.227241
4   0.331525
5   0.324076
6   0.619381
7   -0.529026
8   -0.48166
9   -0.587239
10   0.156061
11   0.177697
12   0.177667
13   0.152522
14   0.180575
15   0.180226
16   0.131616
17   0.414198

>  <lowdin_charges>
17
1   -0.445347
2   -0.445003
3   -0.24306
4   0.090474
5   0.092679
6   0.157088
7   -0.221597
8   -0.183297
9   -0.342056
10   0.157775
11   0.173646
12   0.173809
13   0.156446
14   0.175405
15   0.175093
16   0.164531
17   0.363416

$$$$

