PCCDB-ID:  45114
public computational chemistry database (PCCDB) project, http://pccdb.org

 32 33  0  0  0  0  0  0  0  0999 V2000
    1.9028    0.8029    0.0378 C   0  0  0  0  0  0  0  0  0  0  0  0
    6.7070    2.2549    1.9588 C   0  0  0  0  0  0  0  0  0  0  0  0
    3.3587    0.3784   -0.0379 C   0  0  0  0  0  0  0  0  0  0  0  0
    7.4944   -1.8815    1.6220 C   0  0  0  0  0  0  0  0  0  0  0  0
    7.2843   -0.5049    1.7151 C   0  0  0  0  0  0  0  0  0  0  0  0
    3.9816   -3.1741    0.8948 C   0  0  0  0  0  0  0  0  0  0  0  0
    4.4510   -4.5640    0.4603 C   0  0  0  0  0  0  0  0  0  0  0  0
    6.7125   -4.2501    1.2331 C   0  0  0  0  0  0  0  0  0  0  0  0
    6.4459   -2.7612    1.3572 C   0  0  0  0  0  0  0  0  0  0  0  0
    5.1507   -2.2472    1.1632 C   0  0  0  0  0  0  0  0  0  0  0  0
    5.9985    0.0126    1.5417 C   0  0  0  0  0  0  0  0  0  0  0  0
    4.9341   -0.8671    1.2572 C   0  0  0  0  0  0  0  0  0  0  0  0
    5.4829   -5.0247    1.3887 N   0  0  0  0  0  0  0  0  0  0  0  0
    5.6732    1.3394    1.6398 O   0  0  0  0  0  0  0  0  0  0  0  0
    3.6461   -0.3925    1.1408 O   0  0  0  0  0  0  0  0  0  0  0  0
    1.6325    1.3908   -0.8465 H   0  0  0  0  0  0  0  0  0  0  0  0
    1.7299    1.4147    0.9289 H   0  0  0  0  0  0  0  0  0  0  0  0
    1.2451   -0.0710    0.0891 H   0  0  0  0  0  0  0  0  0  0  0  0
    6.2330    3.2373    2.0053 H   0  0  0  0  0  0  0  0  0  0  0  0
    7.4913    2.2669    1.1898 H   0  0  0  0  0  0  0  0  0  0  0  0
    7.1623    2.0263    2.9316 H   0  0  0  0  0  0  0  0  0  0  0  0
    4.0200    1.2501   -0.0819 H   0  0  0  0  0  0  0  0  0  0  0  0
    3.5436   -0.2385   -0.9298 H   0  0  0  0  0  0  0  0  0  0  0  0
    8.4990   -2.2725    1.7694 H   0  0  0  0  0  0  0  0  0  0  0  0
    8.1194    0.1500    1.9362 H   0  0  0  0  0  0  0  0  0  0  0  0
    3.3805   -3.2675    1.8087 H   0  0  0  0  0  0  0  0  0  0  0  0
    3.3209   -2.7418    0.1353 H   0  0  0  0  0  0  0  0  0  0  0  0
    4.8091   -4.5229   -0.5883 H   0  0  0  0  0  0  0  0  0  0  0  0
    3.6118   -5.2676    0.4893 H   0  0  0  0  0  0  0  0  0  0  0  0
    7.4227   -4.5622    2.0091 H   0  0  0  0  0  0  0  0  0  0  0  0
    7.2081   -4.4390    0.2576 H   0  0  0  0  0  0  0  0  0  0  0  0
    5.6847   -6.0085    1.2252 H   0  0  0  0  0  0  0  0  0  0  0  0
  1 18  1  0  0  0  0
  1 17  1  0  0  0  0
  2 19  1  0  0  0  0
  2 21  1  0  0  0  0
  3  1  1  0  0  0  0
  3 15  1  0  0  0  0
  4  5  1  0  0  0  0
  4 24  1  0  0  0  0
  5 25  1  0  0  0  0
  6 10  1  0  0  0  0
  6 26  1  0  0  0  0
  7 29  1  0  0  0  0
  7  6  1  0  0  0  0
  7 13  1  0  0  0  0
  8  9  1  0  0  0  0
  8 13  1  0  0  0  0
  8 30  1  0  0  0  0
  9  4  2  0  0  0  0
 10 12  2  0  0  0  0
 10  9  1  0  0  0  0
 11 14  1  0  0  0  0
 11  5  2  0  0  0  0
 12 11  1  0  0  0  0
 14  2  1  0  0  0  0
 15 12  1  0  0  0  0
 16  1  1  0  0  0  0
 20  2  1  0  0  0  0
 22  3  1  0  0  0  0
 23  3  1  0  0  0  0
 27  6  1  0  0  0  0
 28  7  1  0  0  0  0
 31  8  1  0  0  0  0
 32 13  1  0  0  0  0
M  END
>  <HBA>
3

>  <HBD>
1

>  <TPSA>
30.49

>  <cid>
45114

>  <dipole>
2.22

>  <excitation_energy_1>
4.846

>  <excitation_energy_2>
5.041

>  <excitation_energy_3>
5.211

>  <excitation_energy_4>
5.269

>  <homo_energy>
-5.459

>  <homo_lumo_gap>
5.723

>  <logP>
2.068

>  <lumo_energy>
0.264

>  <melting_point>
72.64

>  <molecular_refractivity>
63.57

>  <oscillator_strength_1>
0.0248

>  <oscillator_strength_2>
0.0293

>  <oscillator_strength_3>
0.0035

>  <oscillator_strength_4>
0.0051

>  <open_babel_can_smiles>
CCOc1c(OC)ccc2c1CCNC2

>  <mulliken_charges>
32
1   -0.456733
2   -0.212895
3   -0.021895
4   -0.193988
5   -0.208383
6   -0.30494
7   -0.151699
8   -0.202611
9   0.111383
10   0.071316
11   0.353398
12   0.241878
13   -0.549627
14   -0.51184
15   -0.535209
16   0.141715
17   0.161976
18   0.155559
19   0.167659
20   0.149057
21   0.152939
22   0.151228
23   0.123664
24   0.116029
25   0.128457
26   0.16637
27   0.143205
28   0.111872
29   0.135212
30   0.146934
31   0.123335
32   0.296634

>  <lowdin_charges>
32
1   -0.449768
2   -0.277291
3   -0.122238
4   -0.165612
5   -0.214117
6   -0.274175
7   -0.203008
8   -0.202472
9   -0.028185
10   -0.024239
11   0.076969
12   0.062111
13   -0.360847
14   -0.198527
15   -0.229343
16   0.153982
17   0.15914
18   0.155356
19   0.160985
20   0.143776
21   0.145457
22   0.144048
23   0.129257
24   0.152331
25   0.161911
26   0.162382
27   0.154837
28   0.11325
29   0.146198
30   0.151821
31   0.122695
32   0.253312

$$$$

