PCCDB-ID:  14340
public computational chemistry database (PCCDB) project, http://pccdb.org

 26 26  0  0  0  0  0  0  0  0999 V2000
    2.4235   -2.2697   -0.6134 C   0  0  0  0  0  0  0  0  0  0  0  0
    4.3484    0.3901   -4.4126 C   0  0  0  0  0  0  0  0  0  0  0  0
    3.7399    2.7044   -3.5336 C   0  0  0  0  0  0  0  0  0  0  0  0
    4.4993   -0.9884   -4.2358 C   0  0  0  0  0  0  0  0  0  0  0  0
    2.2820    3.2303   -3.5198 C   0  0  0  0  0  0  0  0  0  0  0  0
    3.5803    0.5837   -2.1447 C   0  0  0  0  0  0  0  0  0  0  0  0
    3.8923    1.2024   -3.3676 C   0  0  0  0  0  0  0  0  0  0  0  0
    4.2053   -1.5865   -3.0115 C   0  0  0  0  0  0  0  0  0  0  0  0
    3.7264   -0.7867   -1.9502 C   0  0  0  0  0  0  0  0  0  0  0  0
    1.4546    2.9310   -4.7684 C   0  0  0  0  0  0  0  0  0  0  0  0
    4.3708   -2.9231   -2.7773 O   0  0  0  0  0  0  0  0  0  0  0  0
    0.8108    3.7673   -5.3528 O   0  0  0  0  0  0  0  0  0  0  0  0
    1.4496    1.6433   -5.1991 O   0  0  0  0  0  0  0  0  0  0  0  0
    3.4739   -1.3004   -0.7060 O   0  0  0  0  0  0  0  0  0  0  0  0
    2.3305   -2.5048    0.4489 H   0  0  0  0  0  0  0  0  0  0  0  0
    2.6629   -3.1783   -1.1724 H   0  0  0  0  0  0  0  0  0  0  0  0
    1.4759   -1.8501   -0.9760 H   0  0  0  0  0  0  0  0  0  0  0  0
    4.6002    0.8331   -5.3727 H   0  0  0  0  0  0  0  0  0  0  0  0
    4.2725    3.2063   -2.7165 H   0  0  0  0  0  0  0  0  0  0  0  0
    4.2300    3.0228   -4.4611 H   0  0  0  0  0  0  0  0  0  0  0  0
    4.8675   -1.6030   -5.0555 H   0  0  0  0  0  0  0  0  0  0  0  0
    2.2782    4.3172   -3.4094 H   0  0  0  0  0  0  0  0  0  0  0  0
    1.7529    2.8142   -2.6511 H   0  0  0  0  0  0  0  0  0  0  0  0
    3.2302    1.1692   -1.2984 H   0  0  0  0  0  0  0  0  0  0  0  0
    4.7203   -3.3409   -3.5800 H   0  0  0  0  0  0  0  0  0  0  0  0
    2.0466    1.0980   -4.6534 H   0  0  0  0  0  0  0  0  0  0  0  0
  1 15  1  0  0  0  0
  2  4  2  0  0  0  0
  2  7  1  0  0  0  0
  3  5  1  0  0  0  0
  3  7  1  0  0  0  0
  3 19  1  0  0  0  0
  4  8  1  0  0  0  0
  5 22  1  0  0  0  0
  5 23  1  0  0  0  0
  6  9  1  0  0  0  0
  6 24  1  0  0  0  0
  7  6  2  0  0  0  0
  8 11  1  0  0  0  0
  8  9  2  0  0  0  0
  9 14  1  0  0  0  0
 10  5  1  0  0  0  0
 12 10  2  0  0  0  0
 13 10  1  0  0  0  0
 13 26  1  0  0  0  0
 14  1  1  0  0  0  0
 16  1  1  0  0  0  0
 17  1  1  0  0  0  0
 18  2  1  0  0  0  0
 20  3  1  0  0  0  0
 21  4  1  0  0  0  0
 25 11  1  0  0  0  0
M  END
>  <HBA>
4

>  <HBD>
2

>  <TPSA>
66.76

>  <cid>
14340

>  <dipole>
4.79

>  <excitation_energy_1>
4.858

>  <excitation_energy_2>
5.225

>  <excitation_energy_3>
5.448

>  <excitation_energy_4>
5.546

>  <homo_energy>
-6.278

>  <homo_lumo_gap>
5.761

>  <logP>
1.418

>  <lumo_energy>
-0.517

>  <melting_point>
130.07

>  <molecular_refractivity>
51.31

>  <oscillator_strength_1>
0.0547

>  <oscillator_strength_2>
0.0004

>  <oscillator_strength_3>
0.0364

>  <oscillator_strength_4>
0.0061

>  <open_babel_can_smiles>
COc1cc(CCC(=O)O)ccc1O

>  <mulliken_charges>
26
1   -0.21881
2   -0.204572
3   -0.351124
4   -0.191329
5   -0.378053
6   -0.227259
7   0.097676
8   0.317215
9   0.341083
10   0.581465
11   -0.637144
12   -0.44314
13   -0.577197
14   -0.518246
15   0.16465
16   0.173609
17   0.142115
18   0.143989
19   0.166924
20   0.162099
21   0.131098
22   0.179682
23   0.171866
24   0.14114
25   0.413753
26   0.41851

>  <lowdin_charges>
26
1   -0.274587
2   -0.17618
3   -0.275453
4   -0.207302
5   -0.316075
6   -0.180828
7   -0.042722
8   0.081633
9   0.074031
10   0.193517
11   -0.371079
12   -0.246693
13   -0.369573
14   -0.218506
15   0.158121
16   0.155333
17   0.140532
18   0.164818
19   0.165088
20   0.157984
21   0.160469
22   0.172074
23   0.166714
24   0.169189
25   0.362767
26   0.356729

$$$$

