PCCDB-ID:  47466
public computational chemistry database (PCCDB) project, http://pccdb.org

 29 31  0  0  0  0  0  0  0  0999 V2000
    1.1113   -0.4385    0.0766 C   0  0  0  0  0  0  0  0  0  0  0  0
    2.5792    0.0111   -0.0537 C   0  0  0  0  0  0  0  0  0  0  0  0
    0.6484    6.0121   -2.2060 C   0  0  0  0  0  0  0  0  0  0  0  0
    1.0178    6.9695   -1.2149 C   0  0  0  0  0  0  0  0  0  0  0  0
    3.9442    1.9393    2.9665 C   0  0  0  0  0  0  0  0  0  0  0  0
    0.9353    4.6840   -2.0287 C   0  0  0  0  0  0  0  0  0  0  0  0
    3.6147    0.9025    2.0472 C   0  0  0  0  0  0  0  0  0  0  0  0
    1.6647    6.5804   -0.0714 C   0  0  0  0  0  0  0  0  0  0  0  0
    3.6067    3.2383    2.7034 C   0  0  0  0  0  0  0  0  0  0  0  0
    1.9241    2.8963   -0.6107 C   0  0  0  0  0  0  0  0  0  0  0  0
    2.9469    1.1530    0.8717 C   0  0  0  0  0  0  0  0  0  0  0  0
    1.6068    4.2375   -0.8499 C   0  0  0  0  0  0  0  0  0  0  0  0
    2.5846    2.5154    0.5626 C   0  0  0  0  0  0  0  0  0  0  0  0
    1.9826    5.2042    0.1526 C   0  0  0  0  0  0  0  0  0  0  0  0
    2.9195    3.5727    1.4955 C   0  0  0  0  0  0  0  0  0  0  0  0
    2.6213    4.8656    1.2840 N   0  0  0  0  0  0  0  0  0  0  0  0
    0.9018   -1.2774   -0.5968 H   0  0  0  0  0  0  0  0  0  0  0  0
    0.4171    0.3729   -0.1666 H   0  0  0  0  0  0  0  0  0  0  0  0
    0.8953   -0.7613    1.1008 H   0  0  0  0  0  0  0  0  0  0  0  0
    2.7873    0.2835   -1.0964 H   0  0  0  0  0  0  0  0  0  0  0  0
    3.2311   -0.8415    0.1700 H   0  0  0  0  0  0  0  0  0  0  0  0
    0.1364    6.3448   -3.1047 H   0  0  0  0  0  0  0  0  0  0  0  0
    0.7808    8.0177   -1.3763 H   0  0  0  0  0  0  0  0  0  0  0  0
    4.4714    1.6851    3.8822 H   0  0  0  0  0  0  0  0  0  0  0  0
    0.6553    3.9494   -2.7805 H   0  0  0  0  0  0  0  0  0  0  0  0
    3.8995   -0.1195    2.2868 H   0  0  0  0  0  0  0  0  0  0  0  0
    1.9565    7.2911    0.6955 H   0  0  0  0  0  0  0  0  0  0  0  0
    3.8445    4.0496    3.3836 H   0  0  0  0  0  0  0  0  0  0  0  0
    1.6514    2.1541   -1.3558 H   0  0  0  0  0  0  0  0  0  0  0  0
  1 19  1  0  0  0  0
  2  1  1  0  0  0  0
  2 21  1  0  0  0  0
  2 11  1  0  0  0  0
  3  6  2  0  0  0  0
  3  4  1  0  0  0  0
  4  8  2  0  0  0  0
  5 24  1  0  0  0  0
  6 12  1  0  0  0  0
  7 26  1  0  0  0  0
  7  5  2  0  0  0  0
  8 14  1  0  0  0  0
  8 27  1  0  0  0  0
  9  5  1  0  0  0  0
  9 28  1  0  0  0  0
 10 13  1  0  0  0  0
 11  7  1  0  0  0  0
 12 10  2  0  0  0  0
 12 14  1  0  0  0  0
 13 11  2  0  0  0  0
 13 15  1  0  0  0  0
 14 16  2  0  0  0  0
 15  9  2  0  0  0  0
 16 15  1  0  0  0  0
 17  1  1  0  0  0  0
 18  1  1  0  0  0  0
 20  2  1  0  0  0  0
 22  3  1  0  0  0  0
 23  4  1  0  0  0  0
 25  6  1  0  0  0  0
 29 10  1  0  0  0  0
M  END
>  <HBA>
1

>  <HBD>
0

>  <TPSA>
12.89

>  <cid>
47466

>  <dipole>
2.18

>  <excitation_energy_1>
3.233

>  <excitation_energy_2>
3.761

>  <excitation_energy_3>
3.887

>  <excitation_energy_4>
4.245

>  <homo_energy>
-5.592

>  <homo_lumo_gap>
3.657

>  <logP>
3.95

>  <lumo_energy>
-1.935

>  <melting_point>
112.67

>  <molecular_refractivity>
69.02

>  <oscillator_strength_1>
0.0622

>  <oscillator_strength_2>
0.0006

>  <oscillator_strength_3>
0.0387

>  <oscillator_strength_4>
0.0003

>  <open_babel_can_smiles>
CCc1cccc2c1cc1ccccc1n2

>  <mulliken_charges>
29
1   -0.439584
2   -0.343232
3   -0.138282
4   -0.136942
5   -0.128289
6   -0.188775
7   -0.210732
8   -0.142832
9   -0.145994
10   -0.24146
11   0.131078
12   0.160517
13   0.097459
14   0.250962
15   0.254554
16   -0.60708
17   0.146041
18   0.152457
19   0.153481
20   0.145759
21   0.146756
22   0.133511
23   0.134782
24   0.133449
25   0.131374
26   0.125331
27   0.143751
28   0.142216
29   0.139724

>  <lowdin_charges>
29
1   -0.443526
2   -0.272427
3   -0.15781
4   -0.150534
5   -0.150343
6   -0.157148
7   -0.170062
8   -0.153511
9   -0.157593
10   -0.135385
11   0.000206
12   -0.018189
13   -0.024824
14   0.043304
15   0.046732
16   -0.155653
17   0.151583
18   0.151934
19   0.152627
20   0.147343
21   0.153184
22   0.160612
23   0.159709
24   0.160715
25   0.159287
26   0.155165
27   0.170713
28   0.170291
29   0.163599

$$$$

