PCCDB-ID:  30175
public computational chemistry database (PCCDB) project, http://pccdb.org

 19 19  0  0  0  0  0  0  0  0999 V2000
    0.9546    0.3117    0.0776 C   0  0  0  0  0  0  0  0  0  0  0  0
    2.3027   -0.1311   -2.7278 C   0  0  0  0  0  0  0  0  0  0  0  0
    2.4226    0.3402   -0.2440 C   0  0  0  0  0  0  0  0  0  0  0  0
    5.4013    1.0470   -0.6647 C   0  0  0  0  0  0  0  0  0  0  0  0
    5.1695    1.5247   -2.0779 C   0  0  0  0  0  0  0  0  0  0  0  0
    3.0213    0.1672   -1.4325 C   0  0  0  0  0  0  0  0  0  0  0  0
    4.5118    0.2489   -1.5824 C   0  0  0  0  0  0  0  0  0  0  0  0
    0.6260    1.2763    0.4894 H   0  0  0  0  0  0  0  0  0  0  0  0
    0.7396   -0.4424    0.8471 H   0  0  0  0  0  0  0  0  0  0  0  0
    0.3255    0.0909   -0.7886 H   0  0  0  0  0  0  0  0  0  0  0  0
    1.2213   -0.2334   -2.6109 H   0  0  0  0  0  0  0  0  0  0  0  0
    2.6797   -1.0632   -3.1715 H   0  0  0  0  0  0  0  0  0  0  0  0
    2.4912    0.6604   -3.4654 H   0  0  0  0  0  0  0  0  0  0  0  0
    3.0679    0.5257    0.6145 H   0  0  0  0  0  0  0  0  0  0  0  0
    4.9412    1.6174    0.1367 H   0  0  0  0  0  0  0  0  0  0  0  0
    6.3738    0.6341   -0.4107 H   0  0  0  0  0  0  0  0  0  0  0  0
    5.9796    1.4470   -2.7984 H   0  0  0  0  0  0  0  0  0  0  0  0
    4.5328    2.3958   -2.2101 H   0  0  0  0  0  0  0  0  0  0  0  0
    4.9584   -0.6628   -1.9838 H   0  0  0  0  0  0  0  0  0  0  0  0
  1  8  1  0  0  0  0
  1  9  1  0  0  0  0
  2 11  1  0  0  0  0
  2  6  1  0  0  0  0
  3  1  1  0  0  0  0
  3 14  1  0  0  0  0
  4 16  1  0  0  0  0
  4 15  1  0  0  0  0
  5  7  1  0  0  0  0
  5  4  1  0  0  0  0
  6  3  2  0  0  0  0
  7  6  1  0  0  0  0
  7  4  1  0  0  0  0
 10  1  1  0  0  0  0
 12  2  1  0  0  0  0
 13  2  1  0  0  0  0
 17  5  1  0  0  0  0
 18  5  1  0  0  0  0
 19  7  1  0  0  0  0
M  END
>  <HBA>
0

>  <HBD>
0

>  <TPSA>
0.0

>  <cid>
30175

>  <dipole>
0.16

>  <excitation_energy_1>
5.681

>  <excitation_energy_2>
6.028

>  <excitation_energy_3>
6.091

>  <excitation_energy_4>
6.257

>  <homo_energy>
-6.079

>  <homo_lumo_gap>
6.999

>  <logP>
2.363

>  <lumo_energy>
0.92

>  <melting_point>
8.56

>  <molecular_refractivity>
33.17

>  <oscillator_strength_1>
0.0117

>  <oscillator_strength_2>
0.0515

>  <oscillator_strength_3>
0.0224

>  <oscillator_strength_4>
0.0221

>  <open_babel_can_smiles>
C/C=C(/C1CC1)\C

>  <mulliken_charges>
19
1   -0.487882
2   -0.514699
3   -0.158678
4   -0.315122
5   -0.30266
6   0.174734
7   -0.1638
8   0.152689
9   0.153254
10   0.151378
11   0.149944
12   0.149455
13   0.156062
14   0.117357
15   0.152379
16   0.147093
17   0.146214
18   0.152083
19   0.140199

>  <lowdin_charges>
19
1   -0.443839
2   -0.441401
3   -0.186543
4   -0.31429
5   -0.314845
6   -0.013239
7   -0.150431
8   0.155396
9   0.156587
10   0.153367
11   0.15158
12   0.154315
13   0.157608
14   0.149845
15   0.160266
16   0.157359
17   0.156072
18   0.158601
19   0.153594

$$$$

