PCCDB-ID:  8099
public computational chemistry database (PCCDB) project, http://pccdb.org

 28 27  0  0  0  0  0  0  0  0999 V2000
    0.9256    0.1174   -0.1279 C   0  0  0  0  0  0  0  0  0  0  0  0
    0.5968    0.7834    1.2003 C   0  0  0  0  0  0  0  0  0  0  0  0
    2.7862   -0.5153   -1.4376 C   0  0  0  0  0  0  0  0  0  0  0  0
   -1.2595    1.4004    2.5238 C   0  0  0  0  0  0  0  0  0  0  0  0
    4.3036   -0.5416   -1.4203 C   0  0  0  0  0  0  0  0  0  0  0  0
   -2.7820    1.3505    2.4812 C   0  0  0  0  0  0  0  0  0  0  0  0
    4.8837   -2.7564   -0.6745 N   0  0  0  0  0  0  0  0  0  0  0  0
   -4.6188    1.9976    3.8750 N   0  0  0  0  0  0  0  0  0  0  0  0
    5.3135   -3.4186    0.2366 O   0  0  0  0  0  0  0  0  0  0  0  0
    4.5047   -3.1082   -1.7755 O   0  0  0  0  0  0  0  0  0  0  0  0
   -4.9552    2.5031    4.9173 O   0  0  0  0  0  0  0  0  0  0  0  0
   -5.2950    1.5401    2.9763 O   0  0  0  0  0  0  0  0  0  0  0  0
    2.3356    0.1053   -0.2526 O   0  0  0  0  0  0  0  0  0  0  0  0
   -0.8152    0.8186    1.3163 O   0  0  0  0  0  0  0  0  0  0  0  0
    4.8413   -1.3733   -0.3671 O   0  0  0  0  0  0  0  0  0  0  0  0
   -3.2113    1.9531    3.7194 O   0  0  0  0  0  0  0  0  0  0  0  0
    0.4575    0.6787   -0.9523 H   0  0  0  0  0  0  0  0  0  0  0  0
    0.5179   -0.9054   -0.1442 H   0  0  0  0  0  0  0  0  0  0  0  0
    1.0203    1.7996    1.2231 H   0  0  0  0  0  0  0  0  0  0  0  0
    1.0474    0.2119    2.0263 H   0  0  0  0  0  0  0  0  0  0  0  0
    2.3860   -1.5359   -1.5297 H   0  0  0  0  0  0  0  0  0  0  0  0
    2.4612    0.0488   -2.3294 H   0  0  0  0  0  0  0  0  0  0  0  0
   -0.8855    0.8441    3.3974 H   0  0  0  0  0  0  0  0  0  0  0  0
   -0.9161    2.4426    2.6162 H   0  0  0  0  0  0  0  0  0  0  0  0
    4.6960    0.4452   -1.1630 H   0  0  0  0  0  0  0  0  0  0  0  0
    4.7030   -0.8609   -2.3849 H   0  0  0  0  0  0  0  0  0  0  0  0
   -3.1394    0.3195    2.4157 H   0  0  0  0  0  0  0  0  0  0  0  0
   -3.1692    1.9156    1.6292 H   0  0  0  0  0  0  0  0  0  0  0  0
  1  2  1  0  0  0  0
  2 19  1  0  0  0  0
  2 14  1  0  0  0  0
  2 20  1  0  0  0  0
  3  5  1  0  0  0  0
  3 13  1  0  0  0  0
  4 24  1  0  0  0  0
  4 23  1  0  0  0  0
  5 25  1  0  0  0  0
  5 15  1  0  0  0  0
  6  4  1  0  0  0  0
  6 16  1  0  0  0  0
  7 15  1  0  0  0  0
  7  9  2  0  0  0  0
  8 11  2  0  0  0  0
 10  7  2  0  0  0  0
 12  8  2  0  0  0  0
 13  1  1  0  0  0  0
 14  4  1  0  0  0  0
 16  8  1  0  0  0  0
 17  1  1  0  0  0  0
 18  1  1  0  0  0  0
 21  3  1  0  0  0  0
 22  3  1  0  0  0  0
 26  5  1  0  0  0  0
 27  6  1  0  0  0  0
 28  6  1  0  0  0  0
M  END
>  <HBA>
2

>  <HBD>
0

>  <TPSA>
128.56

>  <cid>
8099

>  <dipole>
3.78

>  <excitation_energy_1>
4.698

>  <excitation_energy_2>
4.727

>  <excitation_energy_3>
4.81

>  <excitation_energy_4>
4.994

>  <homo_energy>
-7.538

>  <homo_lumo_gap>
5.627

>  <logP>
0.483

>  <lumo_energy>
-1.91

>  <melting_point>
3.84

>  <molecular_refractivity>
51.51

>  <oscillator_strength_1>
0.0

>  <oscillator_strength_2>
0.0

>  <oscillator_strength_3>
0.0002

>  <oscillator_strength_4>
0.0038

>  <open_babel_can_smiles>
O=N(=O)OCCOCCOCCON(=O)=O

>  <mulliken_charges>
28
1   -0.026802
2   -0.027497
3   -0.024595
4   -0.026857
5   -0.071404
6   -0.049274
7   0.742671
8   0.754951
9   -0.346661
10   -0.37412
11   -0.352216
12   -0.364613
13   -0.47836
14   -0.490887
15   -0.360041
16   -0.389252
17   0.137314
18   0.141125
19   0.140267
20   0.145021
21   0.15318
22   0.134892
23   0.148261
24   0.146762
25   0.189349
26   0.184165
27   0.182833
28   0.181789

>  <lowdin_charges>
28
1   -0.131868
2   -0.130766
3   -0.140346
4   -0.129819
5   -0.149873
6   -0.141598
7   0.377419
8   0.378998
9   -0.18934
10   -0.226215
11   -0.19172
12   -0.216374
13   -0.269699
14   -0.270731
15   -0.173557
16   -0.185328
17   0.137017
18   0.137346
19   0.137175
20   0.141427
21   0.143823
22   0.140452
23   0.142228
24   0.139329
25   0.176547
26   0.168995
27   0.162447
28   0.16403

$$$$

