PCCDB-ID:  72914
public computational chemistry database (PCCDB) project, http://pccdb.org

 18 19  0  0  0  0  0  0  0  0999 V2000
    2.1474    0.7169   -0.0034 C   0  0  0  0  0  0  0  0  0  0  0  0
    0.9439    1.4539    0.0039 C   0  0  0  0  0  0  0  0  0  0  0  0
    2.1641   -0.6718   -0.0339 C   0  0  0  0  0  0  0  0  0  0  0  0
   -0.2266    0.7153   -0.0176 C   0  0  0  0  0  0  0  0  0  0  0  0
    0.9578   -1.4241   -0.0606 C   0  0  0  0  0  0  0  0  0  0  0  0
   -0.2238   -0.6781   -0.0467 C   0  0  0  0  0  0  0  0  0  0  0  0
   -1.6830    1.0554    0.0099 C   0  0  0  0  0  0  0  0  0  0  0  0
   -1.6477   -1.1128   -0.0162 C   0  0  0  0  0  0  0  0  0  0  0  0
    0.9270   -2.7889   -0.1393 N   0  0  0  0  0  0  0  0  0  0  0  0
   -2.4867    0.0434    0.0117 N   0  0  0  0  0  0  0  0  0  0  0  0
   -2.1460    2.3085    0.0349 O   0  0  0  0  0  0  0  0  0  0  0  0
   -2.0440   -2.2656   -0.0039 O   0  0  0  0  0  0  0  0  0  0  0  0
    3.0945    1.2493    0.0150 H   0  0  0  0  0  0  0  0  0  0  0  0
    0.9668    2.5405    0.0296 H   0  0  0  0  0  0  0  0  0  0  0  0
    3.1158   -1.1976   -0.0452 H   0  0  0  0  0  0  0  0  0  0  0  0
    1.7419   -3.3189    0.1307 H   0  0  0  0  0  0  0  0  0  0  0  0
    0.0226   -3.2267   -0.0035 H   0  0  0  0  0  0  0  0  0  0  0  0
   -1.3997    2.9297    0.0243 H   0  0  0  0  0  0  0  0  0  0  0  0
  1  2  1  0  0  0  0
  1 13  1  0  0  0  0
  2 14  1  0  0  0  0
  3  1  2  0  0  0  0
  4  2  2  0  0  0  0
  4  7  1  0  0  0  0
  5  6  2  0  0  0  0
  5  3  1  0  0  0  0
  6  4  1  0  0  0  0
  6  8  1  0  0  0  0
  7 10  2  0  0  0  0
  7 11  1  0  0  0  0
  8 12  2  0  0  0  0
  8 10  1  0  0  0  0
  9  5  1  0  0  0  0
  9 17  1  0  0  0  0
  9 16  1  0  0  0  0
 15  3  1  0  0  0  0
 18 11  1  0  0  0  0
M  END
>  <HBA>
4

>  <HBD>
2

>  <TPSA>
72.19

>  <cid>
72914

>  <dipole>
6.54

>  <excitation_energy_1>
3.228

>  <excitation_energy_2>
3.366

>  <excitation_energy_3>
3.875

>  <excitation_energy_4>
4.401

>  <homo_energy>
-6.101

>  <homo_lumo_gap>
3.831

>  <logP>
1.062

>  <lumo_energy>
-2.269

>  <melting_point>
175.35

>  <molecular_refractivity>
46.22

>  <oscillator_strength_1>
0.0595

>  <oscillator_strength_2>
0.001

>  <oscillator_strength_3>
0.0287

>  <oscillator_strength_4>
0.0004

>  <open_babel_can_smiles>
Nc1cccc2c1C(=O)N=C2O

>  <mulliken_charges>
18
1   -0.133198
2   -0.219662
3   -0.160682
4   0.054602
5   0.300456
6   -0.000349
7   0.483744
8   0.528645
9   -0.81993
10   -0.502466
11   -0.573055
12   -0.481065
13   0.142013
14   0.123754
15   0.132704
16   0.331598
17   0.3668
18   0.426092

>  <lowdin_charges>
18
1   -0.130614
2   -0.188227
3   -0.184581
4   -0.044599
5   0.089145
6   -0.093915
7   0.158285
8   0.172429
9   -0.459562
10   -0.211193
11   -0.308914
12   -0.235831
13   0.164987
14   0.152583
15   0.161464
16   0.286743
17   0.3016
18   0.370199

$$$$

