PCCDB-ID:  32111
public computational chemistry database (PCCDB) project, http://pccdb.org

 30 31  0  0  0  0  0  0  0  0999 V2000
   -1.5532    0.3308   -0.3629 C   0  0  0  0  0  0  0  0  0  0  0  0
    7.8317    0.6902   -0.9141 C   0  0  0  0  0  0  0  0  0  0  0  0
   -0.7456    0.6657   -1.4533 C   0  0  0  0  0  0  0  0  0  0  0  0
   -0.9673   -0.0211    0.8534 C   0  0  0  0  0  0  0  0  0  0  0  0
    7.3368    1.8150   -0.2508 C   0  0  0  0  0  0  0  0  0  0  0  0
    6.9400   -0.2596   -1.4154 C   0  0  0  0  0  0  0  0  0  0  0  0
    0.6409    0.6498   -1.3320 C   0  0  0  0  0  0  0  0  0  0  0  0
    0.4215   -0.0464    0.9761 C   0  0  0  0  0  0  0  0  0  0  0  0
    5.9647    1.9915   -0.0764 C   0  0  0  0  0  0  0  0  0  0  0  0
    5.5647   -0.0824   -1.2487 C   0  0  0  0  0  0  0  0  0  0  0  0
    1.2416    0.2946   -0.1133 C   0  0  0  0  0  0  0  0  0  0  0  0
    5.0551    1.0370   -0.5614 C   0  0  0  0  0  0  0  0  0  0  0  0
    2.7188    0.2244    0.0283 C   0  0  0  0  0  0  0  0  0  0  0  0
    3.5901    1.2134   -0.4128 C   0  0  0  0  0  0  0  0  0  0  0  0
    3.1479   -0.9546    0.5733 N   0  0  0  0  0  0  0  0  0  0  0  0
    2.9389    2.4208   -0.7241 N   0  0  0  0  0  0  0  0  0  0  0  0
    4.3100   -1.0164    1.3525 O   0  0  0  0  0  0  0  0  0  0  0  0
    3.6610    3.3581   -1.0843 O   0  0  0  0  0  0  0  0  0  0  0  0
   -2.6351    0.3474   -0.4615 H   0  0  0  0  0  0  0  0  0  0  0  0
    8.9022    0.5581   -1.0454 H   0  0  0  0  0  0  0  0  0  0  0  0
   -1.1983    0.9399   -2.4019 H   0  0  0  0  0  0  0  0  0  0  0  0
   -1.5887   -0.2685    1.7094 H   0  0  0  0  0  0  0  0  0  0  0  0
    8.0248    2.5614    0.1375 H   0  0  0  0  0  0  0  0  0  0  0  0
    7.3107   -1.1313   -1.9487 H   0  0  0  0  0  0  0  0  0  0  0  0
    1.2677    0.9060   -2.1782 H   0  0  0  0  0  0  0  0  0  0  0  0
    0.8703   -0.2860    1.9371 H   0  0  0  0  0  0  0  0  0  0  0  0
    5.5935    2.8672    0.4414 H   0  0  0  0  0  0  0  0  0  0  0  0
    4.8725   -0.8041   -1.6782 H   0  0  0  0  0  0  0  0  0  0  0  0
    2.4495   -1.5794    0.9548 H   0  0  0  0  0  0  0  0  0  0  0  0
    5.0376   -1.1072    0.7041 H   0  0  0  0  0  0  0  0  0  0  0  0
  1  4  2  0  0  0  0
  2  5  2  0  0  0  0
  3  7  2  0  0  0  0
  3  1  1  0  0  0  0
  4  8  1  0  0  0  0
  4 22  1  0  0  0  0
  5  9  1  0  0  0  0
  5 23  1  0  0  0  0
  6 10  2  0  0  0  0
  6  2  1  0  0  0  0
  7 11  1  0  0  0  0
  8 26  1  0  0  0  0
  9 27  1  0  0  0  0
 10 12  1  0  0  0  0
 11 13  1  0  0  0  0
 11  8  2  0  0  0  0
 12 14  1  0  0  0  0
 12  9  2  0  0  0  0
 13 15  1  0  0  0  0
 14 13  2  0  0  0  0
 15 29  1  0  0  0  0
 15 17  1  0  0  0  0
 16 14  1  0  0  0  0
 18 16  2  0  0  0  0
 19  1  1  0  0  0  0
 20  2  1  0  0  0  0
 21  3  1  0  0  0  0
 24  6  1  0  0  0  0
 25  7  1  0  0  0  0
 28 10  1  0  0  0  0
 30 17  1  0  0  0  0
M  END
>  <HBA>
4

>  <HBD>
2

>  <TPSA>
61.69

>  <cid>
32111

>  <dipole>
4.84

>  <excitation_energy_1>
1.66

>  <excitation_energy_2>
3.202

>  <excitation_energy_3>
3.548

>  <excitation_energy_4>
3.989

>  <homo_energy>
-5.023

>  <homo_lumo_gap>
3.091

>  <logP>
3.648

>  <lumo_energy>
-1.932

>  <melting_point>
152.96

>  <molecular_refractivity>
70.08

>  <oscillator_strength_1>
0.0009

>  <oscillator_strength_2>
0.0142

>  <oscillator_strength_3>
0.1597

>  <oscillator_strength_4>
0.0467

>  <open_babel_can_smiles>
O=N/C(=C(\c1ccccc1)/NO)/c1ccccc1

>  <mulliken_charges>
30
1   -0.118157
2   -0.124933
3   -0.138458
4   -0.132706
5   -0.140009
6   -0.128315
7   -0.11993
8   -0.185828
9   -0.131401
10   -0.240806
11   0.08852
12   0.114034
13   0.282436
14   0.112038
15   -0.403229
16   -0.076319
17   -0.498244
18   -0.355851
19   0.140498
20   0.132389
21   0.143175
22   0.140185
23   0.135739
24   0.132826
25   0.154965
26   0.144656
27   0.152363
28   0.140441
29   0.349665
30   0.430257

>  <lowdin_charges>
30
1   -0.138415
2   -0.155364
3   -0.15164
4   -0.155226
5   -0.153066
6   -0.162754
7   -0.127378
8   -0.163372
9   -0.139105
10   -0.192203
11   -0.011059
12   -0.007106
13   0.08276
14   -0.072467
15   -0.140829
16   0.015836
17   -0.375856
18   -0.241571
19   0.161217
20   0.157537
21   0.164838
22   0.163897
23   0.162025
24   0.15935
25   0.173833
26   0.161884
27   0.172508
28   0.161587
29   0.29259
30   0.357548

$$$$

