PCCDB-ID:  56911
public computational chemistry database (PCCDB) project, http://pccdb.org

 23 24  0  0  1  0  0  0  0  0999 V2000
   -1.8852    0.0819   -0.0996 C   0  0  0  0  0  0  0  0  0  0  0  0
   -1.0302   -0.3079    0.9328 C   0  0  0  0  0  0  0  0  0  0  0  0
   -1.3531    0.4801   -1.3272 C   0  0  0  0  0  0  0  0  0  0  0  0
    0.3499   -0.3020    0.7358 C   0  0  0  0  0  0  0  0  0  0  0  0
    0.0263    0.4866   -1.5279 C   0  0  0  0  0  0  0  0  0  0  0  0
    3.7744    0.0809   -3.0285 C   0  0  0  0  0  0  0  0  0  0  0  0
    4.4613    1.0344   -2.0675 C   0  0  0  0  0  0  0  0  0  0  0  0
    0.8937    0.0940   -0.4952 C   0  0  0  0  0  0  0  0  0  0  0  0
    2.3757    0.0682   -0.7012 C   0  0  1  0  0  0  0  0  0  0  0  0
    4.0508   -2.0021   -1.3456 O   0  0  0  0  0  0  0  0  0  0  0  0
    2.2133    2.5152   -2.0166 O   0  0  0  0  0  0  0  0  0  0  0  0
    2.9399   -1.2096   -1.9995 S   0  0  2  0  0  0  0  0  0  0  0  0
    3.1133    1.7820   -1.0470 S   0  0  2  0  0  0  0  0  0  0  0  0
   -2.9612    0.0760    0.0518 H   0  0  0  0  0  0  0  0  0  0  0  0
   -1.4363   -0.6191    1.8914 H   0  0  0  0  0  0  0  0  0  0  0  0
   -2.0131    0.7896   -2.1328 H   0  0  0  0  0  0  0  0  0  0  0  0
    1.0123   -0.6103    1.5413 H   0  0  0  0  0  0  0  0  0  0  0  0
    0.4332    0.8241   -2.4746 H   0  0  0  0  0  0  0  0  0  0  0  0
    4.4687   -0.4516   -3.6846 H   0  0  0  0  0  0  0  0  0  0  0  0
    3.0195    0.6033   -3.6253 H   0  0  0  0  0  0  0  0  0  0  0  0
    4.9740    1.8617   -2.5666 H   0  0  0  0  0  0  0  0  0  0  0  0
    5.1567    0.5078   -1.4049 H   0  0  0  0  0  0  0  0  0  0  0  0
    2.9060   -0.2895    0.1884 H   0  0  0  0  0  0  0  0  0  0  0  0
  1 14  1  0  0  0  0
  1  2  2  0  0  0  0
  2 15  1  0  0  0  0
  3  1  1  0  0  0  0
  4  2  1  0  0  0  0
  4 17  1  0  0  0  0
  5  3  2  0  0  0  0
  5  8  1  0  0  0  0
  6  7  1  0  0  0  0
  6 12  1  0  0  0  0
  7 22  1  0  0  0  0
  7 13  1  0  0  0  0
  8  4  2  0  0  0  0
  9  8  1  0  0  0  0
  9 23  1  1  0  0  0
 12 10  2  1  0  0  0
 12  9  1  0  0  0  0
 13 11  2  6  0  0  0
 13  9  1  0  0  0  0
 16  3  1  0  0  0  0
 18  5  1  0  0  0  0
 19  6  1  0  0  0  0
 20  6  1  0  0  0  0
 21  7  1  0  0  0  0
M  END
>  <HBA>
2

>  <HBD>
0

>  <TPSA>
72.56

>  <cid>
56911

>  <dipole>
0.5

>  <excitation_energy_1>
4.69

>  <excitation_energy_2>
4.758

>  <excitation_energy_3>
5.021

>  <excitation_energy_4>
5.253

>  <homo_energy>
-6.199

>  <homo_lumo_gap>
5.483

>  <logP>
2.928

>  <lumo_energy>
-0.716

>  <melting_point>
67.01

>  <molecular_refractivity>
55.46

>  <oscillator_strength_1>
0.0332

>  <oscillator_strength_2>
0.0638

>  <oscillator_strength_3>
0.0023

>  <oscillator_strength_4>
0.0078

>  <open_babel_can_smiles>
O=[S@@]1CC[S@@](=O)[C@@H]1c1ccccc1

>  <mulliken_charges>
23
1   -0.122878
2   -0.126787
3   -0.135564
4   -0.173451
5   -0.144735
6   -0.488837
7   -0.477484
8   0.171672
9   -0.651197
10   -0.63253
11   -0.626856
12   0.82269
13   0.819474
14   0.136308
15   0.136644
16   0.138771
17   0.13551
18   0.157674
19   0.209065
20   0.211374
21   0.207153
22   0.20953
23   0.224453

>  <lowdin_charges>
23
1   -0.145613
2   -0.153373
3   -0.151577
4   -0.158396
5   -0.14799
6   -0.43461
7   -0.429355
8   -0.022883
9   -0.420467
10   -0.663803
11   -0.658343
12   0.811018
13   0.814229
14   0.159307
15   0.161477
16   0.163525
17   0.160794
18   0.171219
19   0.188964
20   0.185916
21   0.187205
22   0.18669
23   0.196066

$$$$

