PCCDB-ID:  904
public computational chemistry database (PCCDB) project, http://pccdb.org

 19 19  0  0  0  0  0  0  0  0999 V2000
    3.1011    0.1235   -2.7968 C   0  0  0  0  0  0  0  0  0  0  0  0
    1.0178    4.7293   -1.7154 C   0  0  0  0  0  0  0  0  0  0  0  0
    2.1477    4.6029   -0.9024 C   0  0  0  0  0  0  0  0  0  0  0  0
    0.3543    3.5796   -2.1455 C   0  0  0  0  0  0  0  0  0  0  0  0
    2.6102    3.3451   -0.5227 C   0  0  0  0  0  0  0  0  0  0  0  0
    0.8180    2.3154   -1.7791 C   0  0  0  0  0  0  0  0  0  0  0  0
    2.8614    0.0419   -1.3045 C   0  0  0  0  0  0  0  0  0  0  0  0
    1.9604    2.1825   -0.9711 C   0  0  0  0  0  0  0  0  0  0  0  0
    2.4124    0.9322   -0.5214 N   0  0  0  0  0  0  0  0  0  0  0  0
    3.2044   -1.1487   -0.7321 O   0  0  0  0  0  0  0  0  0  0  0  0
    2.4816   -0.6086   -3.3298 H   0  0  0  0  0  0  0  0  0  0  0  0
    4.1516   -0.1035   -3.0199 H   0  0  0  0  0  0  0  0  0  0  0  0
    2.8690    1.1175   -3.1801 H   0  0  0  0  0  0  0  0  0  0  0  0
    0.6541    5.7123   -2.0009 H   0  0  0  0  0  0  0  0  0  0  0  0
    2.6683    5.4911   -0.5532 H   0  0  0  0  0  0  0  0  0  0  0  0
   -0.5334    3.6629   -2.7677 H   0  0  0  0  0  0  0  0  0  0  0  0
    3.4777    3.2412    0.1223 H   0  0  0  0  0  0  0  0  0  0  0  0
    0.2855    1.4218   -2.0938 H   0  0  0  0  0  0  0  0  0  0  0  0
    3.5682   -1.7361   -1.4122 H   0  0  0  0  0  0  0  0  0  0  0  0
  1  7  1  0  0  0  0
  2  3  2  0  0  0  0
  3 15  1  0  0  0  0
  3  5  1  0  0  0  0
  4  6  2  0  0  0  0
  4  2  1  0  0  0  0
  5 17  1  0  0  0  0
  6  8  1  0  0  0  0
  7 10  1  0  0  0  0
  7  9  2  0  0  0  0
  8  5  2  0  0  0  0
  8  9  1  0  0  0  0
 11  1  1  0  0  0  0
 12  1  1  0  0  0  0
 13  1  1  0  0  0  0
 14  2  1  0  0  0  0
 16  4  1  0  0  0  0
 18  6  1  0  0  0  0
 19 10  1  0  0  0  0
M  END
>  <HBA>
2

>  <HBD>
1

>  <TPSA>
29.1

>  <cid>
904

>  <dipole>
3.79

>  <excitation_energy_1>
4.751

>  <excitation_energy_2>
4.986

>  <excitation_energy_3>
5.008

>  <excitation_energy_4>
5.559

>  <homo_energy>
-5.75

>  <homo_lumo_gap>
5.69

>  <logP>
1.718

>  <lumo_energy>
-0.06

>  <melting_point>
58.6

>  <molecular_refractivity>
40.75

>  <oscillator_strength_1>
0.0812

>  <oscillator_strength_2>
0.0462

>  <oscillator_strength_3>
0.0083

>  <oscillator_strength_4>
0.0184

>  <open_babel_can_smiles>
C/C(=N\c1ccccc1)/O

>  <mulliken_charges>
19
1   -0.55548
2   -0.131507
3   -0.138132
4   -0.138134
5   -0.149479
6   -0.157116
7   0.482654
8   0.23364
9   -0.462615
10   -0.569828
11   0.175598
12   0.170755
13   0.199586
14   0.123771
15   0.127666
16   0.126468
17   0.131596
18   0.122815
19   0.407743

>  <lowdin_charges>
19
1   -0.483589
2   -0.174626
3   -0.152796
4   -0.152695
5   -0.174323
6   -0.19153
7   0.147838
8   0.047965
9   -0.171038
10   -0.362459
11   0.171231
12   0.166626
13   0.184436
14   0.155391
15   0.157459
16   0.15601
17   0.162167
18   0.156494
19   0.35744

$$$$

