PCCDB-ID:  9090
public computational chemistry database (PCCDB) project, http://pccdb.org

 21 22  0  0  0  0  0  0  0  0999 V2000
    2.4925    0.6948   -0.2969 C   0  0  0  0  0  0  0  0  0  0  0  0
    2.4524   -0.7226    0.2936 C   0  0  0  0  0  0  0  0  0  0  0  0
    1.0890    1.2471    0.0116 C   0  0  0  0  0  0  0  0  0  0  0  0
    1.0654   -1.2283   -0.1339 C   0  0  0  0  0  0  0  0  0  0  0  0
   -2.5245    0.4199    0.7519 C   0  0  0  0  0  0  0  0  0  0  0  0
   -2.6107   -0.2126   -0.6314 C   0  0  0  0  0  0  0  0  0  0  0  0
    0.1195    0.0135   -0.0355 C   0  0  0  0  0  0  0  0  0  0  0  0
   -0.9438   -0.1217    1.4988 S   0  0  0  0  0  0  0  0  0  0  0  0
   -1.0398    0.1509   -1.5008 S   0  0  0  0  0  0  0  0  0  0  0  0
    2.6545    0.6389   -1.3817 H   0  0  0  0  0  0  0  0  0  0  0  0
    3.2891    1.3197    0.1211 H   0  0  0  0  0  0  0  0  0  0  0  0
    2.5266   -0.6769    1.3886 H   0  0  0  0  0  0  0  0  0  0  0  0
    3.2629   -1.3670   -0.0640 H   0  0  0  0  0  0  0  0  0  0  0  0
    0.7724    2.0368   -0.6744 H   0  0  0  0  0  0  0  0  0  0  0  0
    1.0727    1.6680    1.0217 H   0  0  0  0  0  0  0  0  0  0  0  0
    0.6969   -2.0711    0.4565 H   0  0  0  0  0  0  0  0  0  0  0  0
    1.1062   -1.5552   -1.1787 H   0  0  0  0  0  0  0  0  0  0  0  0
   -3.3280    0.0668    1.4075 H   0  0  0  0  0  0  0  0  0  0  0  0
   -2.5704    1.5112    0.6892 H   0  0  0  0  0  0  0  0  0  0  0  0
   -3.4177    0.2280   -1.2271 H   0  0  0  0  0  0  0  0  0  0  0  0
   -2.7704   -1.2922   -0.5579 H   0  0  0  0  0  0  0  0  0  0  0  0
  1  3  1  0  0  0  0
  1 11  1  0  0  0  0
  1  2  1  0  0  0  0
  2 12  1  0  0  0  0
  3 15  1  0  0  0  0
  4  7  1  0  0  0  0
  4  2  1  0  0  0  0
  4 16  1  0  0  0  0
  5 18  1  0  0  0  0
  5  8  1  0  0  0  0
  6 21  1  0  0  0  0
  6  5  1  0  0  0  0
  7  3  1  0  0  0  0
  7  8  1  0  0  0  0
  9  6  1  0  0  0  0
  9  7  1  0  0  0  0
 10  1  1  0  0  0  0
 13  2  1  0  0  0  0
 14  3  1  0  0  0  0
 17  4  1  0  0  0  0
 19  5  1  0  0  0  0
 20  6  1  0  0  0  0
M  END
>  <HBA>
2

>  <HBD>
0

>  <TPSA>
50.6

>  <cid>
9090

>  <dipole>
0.57

>  <excitation_energy_1>
4.596

>  <excitation_energy_2>
4.617

>  <excitation_energy_3>
5.537

>  <excitation_energy_4>
5.564

>  <homo_energy>
-6.019

>  <homo_lumo_gap>
5.97

>  <logP>
2.737

>  <lumo_energy>
-0.049

>  <melting_point>
46.89

>  <molecular_refractivity>
46.76

>  <oscillator_strength_1>
0.0009

>  <oscillator_strength_2>
0.0015

>  <oscillator_strength_3>
0.0135

>  <oscillator_strength_4>
0.0187

>  <open_babel_can_smiles>
C1CCC2(C1)SCCS2

>  <mulliken_charges>
21
1   -0.271345
2   -0.274476
3   -0.268145
4   -0.266744
5   -0.411634
6   -0.409439
7   -0.252189
8   0.098183
9   0.096269
10   0.140401
11   0.140633
12   0.142899
13   0.140898
14   0.163343
15   0.166249
16   0.163091
17   0.163926
18   0.181472
19   0.18752
20   0.181052
21   0.188036

>  <lowdin_charges>
21
1   -0.280985
2   -0.281222
3   -0.290499
4   -0.286837
5   -0.373953
6   -0.374389
7   -0.178498
8   0.089276
9   0.087007
10   0.141118
11   0.149571
12   0.14188
13   0.149486
14   0.160868
15   0.159111
16   0.160879
17   0.157194
18   0.173208
19   0.161681
20   0.172836
21   0.162266

$$$$

