PCCDB-ID:  7803
public computational chemistry database (PCCDB) project, http://pccdb.org

 20 19  0  0  0  0  0  0  0  0999 V2000
    0.8176   -2.4790   -2.7836 C   0  0  0  0  0  0  0  0  0  0  0  0
    7.7469   -2.2439   -2.0029 C   0  0  0  0  0  0  0  0  0  0  0  0
    2.2501   -1.9340   -2.8088 C   0  0  0  0  0  0  0  0  0  0  0  0
    6.5342   -1.3607   -1.7168 C   0  0  0  0  0  0  0  0  0  0  0  0
    2.8730   -1.9142   -1.4167 C   0  0  0  0  0  0  0  0  0  0  0  0
    5.2276   -2.1322   -1.7251 C   0  0  0  0  0  0  0  0  0  0  0  0
    5.1133   -3.3161   -1.9608 O   0  0  0  0  0  0  0  0  0  0  0  0
    4.1892   -1.3146   -1.4293 O   0  0  0  0  0  0  0  0  0  0  0  0
    0.3859   -2.4888   -3.7898 H   0  0  0  0  0  0  0  0  0  0  0  0
    0.1662   -1.8660   -2.1485 H   0  0  0  0  0  0  0  0  0  0  0  0
    0.7888   -3.5056   -2.3997 H   0  0  0  0  0  0  0  0  0  0  0  0
    8.6644   -1.6465   -1.9981 H   0  0  0  0  0  0  0  0  0  0  0  0
    7.6556   -2.7309   -2.9782 H   0  0  0  0  0  0  0  0  0  0  0  0
    7.8445   -3.0329   -1.2512 H   0  0  0  0  0  0  0  0  0  0  0  0
    2.2608   -0.9152   -3.2163 H   0  0  0  0  0  0  0  0  0  0  0  0
    2.8750   -2.5525   -3.4629 H   0  0  0  0  0  0  0  0  0  0  0  0
    6.4453   -0.5525   -2.4546 H   0  0  0  0  0  0  0  0  0  0  0  0
    6.6213   -0.8588   -0.7447 H   0  0  0  0  0  0  0  0  0  0  0  0
    2.9465   -2.9251   -1.0062 H   0  0  0  0  0  0  0  0  0  0  0  0
    2.2927   -1.2880   -0.7327 H   0  0  0  0  0  0  0  0  0  0  0  0
  1 11  1  0  0  0  0
  1 10  1  0  0  0  0
  2 12  1  0  0  0  0
  2  4  1  0  0  0  0
  2 14  1  0  0  0  0
  3  1  1  0  0  0  0
  3  5  1  0  0  0  0
  4 18  1  0  0  0  0
  5 19  1  0  0  0  0
  5 20  1  0  0  0  0
  6  4  1  0  0  0  0
  6  8  1  0  0  0  0
  7  6  2  0  0  0  0
  8  5  1  0  0  0  0
  9  1  1  0  0  0  0
 13  2  1  0  0  0  0
 15  3  1  0  0  0  0
 16  3  1  0  0  0  0
 17  4  1  0  0  0  0
M  END
>  <HBA>
2

>  <HBD>
0

>  <TPSA>
26.3

>  <cid>
7803

>  <dipole>
1.62

>  <excitation_energy_1>
5.843

>  <excitation_energy_2>
6.988

>  <excitation_energy_3>
7.386

>  <excitation_energy_4>
7.497

>  <homo_energy>
-7.274

>  <homo_lumo_gap>
7.75

>  <logP>
1.35

>  <lumo_energy>
0.476

>  <melting_point>
-14.12

>  <molecular_refractivity>
32.24

>  <oscillator_strength_1>
0.0008

>  <oscillator_strength_2>
0.0208

>  <oscillator_strength_3>
0.0178

>  <oscillator_strength_4>
0.0481

>  <open_babel_can_smiles>
CCCOC(=O)CC

>  <mulliken_charges>
20
1   -0.45335
2   -0.434962
3   -0.272627
4   -0.352522
5   -0.038203
6   0.621843
7   -0.478993
8   -0.468015
9   0.152652
10   0.144109
11   0.152249
12   0.142068
13   0.162317
14   0.16132
15   0.143755
16   0.162618
17   0.171798
18   0.171693
19   0.165547
20   0.146705

>  <lowdin_charges>
20
1   -0.444047
2   -0.439821
3   -0.285506
4   -0.299047
5   -0.132766
6   0.194257
7   -0.268037
8   -0.197841
9   0.155561
10   0.149019
11   0.150749
12   0.151556
13   0.159102
14   0.159454
15   0.145878
16   0.157865
17   0.168946
18   0.167937
19   0.155492
20   0.151248

$$$$

