PCCDB-ID:  20025
public computational chemistry database (PCCDB) project, http://pccdb.org

 23 23  0  0  0  0  0  0  0  0999 V2000
    3.7318   -1.1087    1.1860 C   0  0  0  0  0  0  0  0  0  0  0  0
    1.7358    2.0909    3.1054 C   0  0  0  0  0  0  0  0  0  0  0  0
    3.1524   -0.0375    1.7401 C   0  0  0  0  0  0  0  0  0  0  0  0
    6.1315    2.1323   -1.7125 C   0  0  0  0  0  0  0  0  0  0  0  0
    4.7821    1.9351   -2.0126 C   0  0  0  0  0  0  0  0  0  0  0  0
    6.5688    2.0607   -0.3885 C   0  0  0  0  0  0  0  0  0  0  0  0
    3.8702    1.6656   -0.9918 C   0  0  0  0  0  0  0  0  0  0  0  0
    5.6597    1.7920    0.6352 C   0  0  0  0  0  0  0  0  0  0  0  0
    2.7310    2.3899    1.9937 C   0  0  0  0  0  0  0  0  0  0  0  0
    4.3115    1.5995    0.3306 C   0  0  0  0  0  0  0  0  0  0  0  0
    3.3729    1.3049    1.3865 N   0  0  0  0  0  0  0  0  0  0  0  0
    2.9664    3.5325    1.6383 O   0  0  0  0  0  0  0  0  0  0  0  0
    3.4757   -2.0962    1.5521 H   0  0  0  0  0  0  0  0  0  0  0  0
    4.4535   -1.0410    0.3806 H   0  0  0  0  0  0  0  0  0  0  0  0
    2.2067    1.5748    3.9495 H   0  0  0  0  0  0  0  0  0  0  0  0
    0.9037    1.4709    2.7537 H   0  0  0  0  0  0  0  0  0  0  0  0
    1.3441    3.0487    3.4491 H   0  0  0  0  0  0  0  0  0  0  0  0
    2.4373   -0.1658    2.5433 H   0  0  0  0  0  0  0  0  0  0  0  0
    6.8402    2.3432   -2.5087 H   0  0  0  0  0  0  0  0  0  0  0  0
    4.4376    1.9936   -3.0413 H   0  0  0  0  0  0  0  0  0  0  0  0
    7.6173    2.2170   -0.1504 H   0  0  0  0  0  0  0  0  0  0  0  0
    2.8180    1.5116   -1.2108 H   0  0  0  0  0  0  0  0  0  0  0  0
    5.9861    1.7360    1.6692 H   0  0  0  0  0  0  0  0  0  0  0  0
  1 13  1  0  0  0  0
  1  3  2  0  0  0  0
  2 17  1  0  0  0  0
  2 15  1  0  0  0  0
  3 18  1  0  0  0  0
  4  6  1  0  0  0  0
  5  4  2  0  0  0  0
  5  7  1  0  0  0  0
  6 21  1  0  0  0  0
  6  8  2  0  0  0  0
  7 10  2  0  0  0  0
  8 23  1  0  0  0  0
  9  2  1  0  0  0  0
 10  8  1  0  0  0  0
 10 11  1  0  0  0  0
 11  3  1  0  0  0  0
 11  9  1  0  0  0  0
 12  9  2  0  0  0  0
 14  1  1  0  0  0  0
 16  2  1  0  0  0  0
 19  4  1  0  0  0  0
 20  5  1  0  0  0  0
 22  7  1  0  0  0  0
M  END
>  <HBA>
2

>  <HBD>
0

>  <TPSA>
20.31

>  <cid>
20025

>  <dipole>
2.39

>  <excitation_energy_1>
4.809

>  <excitation_energy_2>
5.027

>  <excitation_energy_3>
5.186

>  <excitation_energy_4>
5.381

>  <homo_energy>
-5.995

>  <homo_lumo_gap>
5.793

>  <logP>
2.183

>  <lumo_energy>
-0.201

>  <melting_point>
12.13

>  <molecular_refractivity>
49.99

>  <oscillator_strength_1>
0.0001

>  <oscillator_strength_2>
0.0131

>  <oscillator_strength_3>
0.0011

>  <oscillator_strength_4>
0.0005

>  <open_babel_can_smiles>
C=CN(c1ccccc1)C(=O)C

>  <mulliken_charges>
23
1   -0.383567
2   -0.55466
3   0.0991
4   -0.117163
5   -0.144407
6   -0.144435
7   -0.116407
8   -0.116566
9   0.574843
10   0.248956
11   -0.546683
12   -0.476369
13   0.142551
14   0.157129
15   0.174644
16   0.174646
17   0.191748
18   0.151205
19   0.13336
20   0.135887
21   0.13592
22   0.140165
23   0.140105

>  <lowdin_charges>
23
1   -0.391142
2   -0.478352
3   -0.095875
4   -0.152792
5   -0.151171
6   -0.150583
7   -0.147337
8   -0.147998
9   0.166994
10   0.056284
11   -0.067761
12   -0.277201
13   0.166119
14   0.169834
15   0.170766
16   0.170733
17   0.181766
18   0.166137
19   0.161232
20   0.160088
21   0.159698
22   0.165112
23   0.165448

$$$$

