PCCDB-ID:  20560
public computational chemistry database (PCCDB) project, http://pccdb.org

 16 15  0  0  0  0  0  0  0  0999 V2000
    1.0671    0.2271   -0.0831 C   0  0  0  0  0  0  0  0  0  0  0  0
    3.0171   -1.1790   -0.9076 C   0  0  0  0  0  0  0  0  0  0  0  0
    3.3749    0.8659    0.5515 C   0  0  0  0  0  0  0  0  0  0  0  0
    2.5622    0.0271   -0.1203 C   0  0  0  0  0  0  0  0  0  0  0  0
    4.8574    0.8171    0.6604 C   0  0  0  0  0  0  0  0  0  0  0  0
    5.5356    1.0385    1.7145 N   0  0  0  0  0  0  0  0  0  0  0  0
    5.5601    0.5175   -0.4755 O   0  0  0  0  0  0  0  0  0  0  0  0
    0.6637    0.3380   -1.0990 H   0  0  0  0  0  0  0  0  0  0  0  0
    0.7829    1.1108    0.4955 H   0  0  0  0  0  0  0  0  0  0  0  0
    0.5674   -0.6473    0.3554 H   0  0  0  0  0  0  0  0  0  0  0  0
    2.4977   -2.0748   -0.5428 H   0  0  0  0  0  0  0  0  0  0  0  0
    4.0908   -1.3600   -0.8372 H   0  0  0  0  0  0  0  0  0  0  0  0
    2.7441   -1.0800   -1.9679 H   0  0  0  0  0  0  0  0  0  0  0  0
    2.9174    1.6583    1.1420 H   0  0  0  0  0  0  0  0  0  0  0  0
    4.9034    1.2089    2.4990 H   0  0  0  0  0  0  0  0  0  0  0  0
    4.9654    0.6176   -1.2342 H   0  0  0  0  0  0  0  0  0  0  0  0
  1 10  1  0  0  0  0
  1  9  1  0  0  0  0
  2 12  1  0  0  0  0
  2 11  1  0  0  0  0
  2  4  1  0  0  0  0
  3  5  1  0  0  0  0
  3 14  1  0  0  0  0
  4  1  1  0  0  0  0
  4  3  2  0  0  0  0
  5  6  2  0  0  0  0
  6 15  1  0  0  0  0
  7  5  1  0  0  0  0
  8  1  1  0  0  0  0
 13  2  1  0  0  0  0
 16  7  1  0  0  0  0
M  END
>  <HBA>
2

>  <HBD>
1

>  <TPSA>
43.09

>  <cid>
20560

>  <dipole>
4.84

>  <excitation_energy_1>
5.191

>  <excitation_energy_2>
5.651

>  <excitation_energy_3>
5.87

>  <excitation_energy_4>
6.418

>  <homo_energy>
-6.661

>  <homo_lumo_gap>
5.981

>  <logP>
1.138

>  <lumo_energy>
-0.68

>  <melting_point>
62.95

>  <molecular_refractivity>
28.58

>  <oscillator_strength_1>
0.0242

>  <oscillator_strength_2>
0.294

>  <oscillator_strength_3>
0.007

>  <oscillator_strength_4>
0.1212

>  <open_babel_can_smiles>
CC(=CC(=N)O)C

>  <mulliken_charges>
16
1   -0.507627
2   -0.541515
3   -0.272034
4   0.192425
5   0.458213
6   -0.580649
7   -0.577042
8   0.160459
9   0.161357
10   0.163657
11   0.168354
12   0.182548
13   0.159102
14   0.141581
15   0.284649
16   0.406524

>  <lowdin_charges>
16
1   -0.439639
2   -0.456288
3   -0.243076
4   0.019288
5   0.124424
6   -0.391036
7   -0.367879
8   0.15956
9   0.160128
10   0.162404
11   0.166967
12   0.168305
13   0.158374
14   0.164828
15   0.257747
16   0.355893

$$$$

