PCCDB-ID:  49171
public computational chemistry database (PCCDB) project, http://pccdb.org

 37 37  0  0  1  0  0  0  0  0999 V2000
    0.6066   -1.3577    2.2249 C   0  0  0  0  0  0  0  0  0  0  0  0
    9.0853   -6.9758    3.0036 C   0  0  0  0  0  0  0  0  0  0  0  0
    8.1877   -3.9509    3.4726 C   0  0  0  0  0  0  0  0  0  0  0  0
    2.0385   -1.3540    2.7702 C   0  0  0  0  0  0  0  0  0  0  0  0
    7.7746   -6.4714    3.6207 C   0  0  0  0  0  0  0  0  0  0  0  0
    3.0889   -1.4717    1.6583 C   0  0  0  0  0  0  0  0  0  0  0  0
    4.5461   -1.4185    2.1344 C   0  0  0  0  0  0  0  0  0  0  0  0
    7.2952   -5.1232    3.0403 C   0  0  1  0  0  0  0  0  0  0  0  0
    5.7762   -4.8485    3.3424 C   0  0  1  0  0  0  0  0  0  0  0  0
    5.4734   -4.5539    4.7881 C   0  0  0  0  0  0  0  0  0  0  0  0
    5.2772   -3.7362    2.4224 C   0  0  0  0  0  0  0  0  0  0  0  0
    4.9525   -2.3238    4.4268 C   0  0  0  0  0  0  0  0  0  0  0  0
    5.1387   -3.4204    5.2734 N   0  0  0  0  0  0  0  0  0  0  0  0
    4.9214   -2.5437    3.0173 N   0  0  0  0  0  0  0  0  0  0  0  0
    5.5669   -5.5750    5.6620 O   0  0  0  0  0  0  0  0  0  0  0  0
    5.2523   -3.9047    1.2124 O   0  0  0  0  0  0  0  0  0  0  0  0
    4.7770   -1.2078    4.8697 O   0  0  0  0  0  0  0  0  0  0  0  0
   -0.1276   -1.2804    3.0346 H   0  0  0  0  0  0  0  0  0  0  0  0
    0.3950   -2.2798    1.6691 H   0  0  0  0  0  0  0  0  0  0  0  0
    0.4388   -0.5157    1.5418 H   0  0  0  0  0  0  0  0  0  0  0  0
    9.3571   -7.9520    3.4191 H   0  0  0  0  0  0  0  0  0  0  0  0
    9.9176   -6.2924    3.1998 H   0  0  0  0  0  0  0  0  0  0  0  0
    8.9898   -7.0877    1.9174 H   0  0  0  0  0  0  0  0  0  0  0  0
    9.2263   -4.1263    3.1769 H   0  0  0  0  0  0  0  0  0  0  0  0
    8.1699   -3.8093    4.5598 H   0  0  0  0  0  0  0  0  0  0  0  0
    7.8740   -3.0117    3.0054 H   0  0  0  0  0  0  0  0  0  0  0  0
    2.1557   -2.1834    3.4801 H   0  0  0  0  0  0  0  0  0  0  0  0
    2.2160   -0.4369    3.3464 H   0  0  0  0  0  0  0  0  0  0  0  0
    7.9047   -6.3859    4.7087 H   0  0  0  0  0  0  0  0  0  0  0  0
    7.0001   -7.2346    3.4440 H   0  0  0  0  0  0  0  0  0  0  0  0
    2.9575   -0.6444    0.9460 H   0  0  0  0  0  0  0  0  0  0  0  0
    2.9343   -2.3956    1.0871 H   0  0  0  0  0  0  0  0  0  0  0  0
    4.7384   -0.5092    2.7038 H   0  0  0  0  0  0  0  0  0  0  0  0
    5.2173   -1.4568    1.2735 H   0  0  0  0  0  0  0  0  0  0  0  0
    7.3250   -5.2024    1.9466 H   0  0  0  0  0  0  0  0  0  0  0  0
    5.2223   -5.7491    3.0438 H   0  0  0  0  0  0  0  0  0  0  0  0
    5.8297   -6.3842    5.1951 H   0  0  0  0  0  0  0  0  0  0  0  0
  1  4  1  0  0  0  0
  1 18  1  0  0  0  0
  2 22  1  0  0  0  0
  2 21  1  0  0  0  0
  2  5  1  0  0  0  0
  3 25  1  0  0  0  0
  4 28  1  0  0  0  0
  4 27  1  0  0  0  0
  5 29  1  0  0  0  0
  6  7  1  0  0  0  0
  6  4  1  0  0  0  0
  7 33  1  0  0  0  0
  7 14  1  0  0  0  0
  8 35  1  6  0  0  0
  8  9  1  0  0  0  0
  8  3  1  0  0  0  0
  8  5  1  0  0  0  0
  9 36  1  6  0  0  0
  9 10  1  0  0  0  0
 10 13  2  0  0  0  0
 10 15  1  0  0  0  0
 11 14  1  0  0  0  0
 11  9  1  0  0  0  0
 12 17  2  0  0  0  0
 12 13  1  0  0  0  0
 14 12  1  0  0  0  0
 16 11  2  0  0  0  0
 19  1  1  0  0  0  0
 20  1  1  0  0  0  0
 23  2  1  0  0  0  0
 24  3  1  0  0  0  0
 26  3  1  0  0  0  0
 30  5  1  0  0  0  0
 31  6  1  0  0  0  0
 32  6  1  0  0  0  0
 34  7  1  0  0  0  0
 37 15  1  0  0  0  0
M  END
>  <HBA>
5

>  <HBD>
1

>  <TPSA>
66.48

>  <cid>
49171

>  <dipole>
4.99

>  <excitation_energy_1>
4.453

>  <excitation_energy_2>
4.814

>  <excitation_energy_3>
5.011

>  <excitation_energy_4>
5.089

>  <homo_energy>
-7.225

>  <homo_lumo_gap>
5.717

>  <logP>
1.794

>  <lumo_energy>
-1.508

>  <melting_point>
96.35

>  <molecular_refractivity>
72.2

>  <oscillator_strength_1>
0.0004

>  <oscillator_strength_2>
0.0015

>  <oscillator_strength_3>
0.0028

>  <oscillator_strength_4>
0.0429

>  <open_babel_can_smiles>
CCCCN1C(=O)N=C([C@@H](C1=O)[C@H](CC)C)O

>  <mulliken_charges>
37
1   -0.443192
2   -0.450782
3   -0.480884
4   -0.2504
5   -0.300796
6   -0.259115
7   -0.158623
8   -0.063469
9   -0.322636
10   0.53968
11   0.628049
12   0.708662
13   -0.47956
14   -0.508209
15   -0.562525
16   -0.508421
17   -0.467979
18   0.145667
19   0.140207
20   0.14142
21   0.15469
22   0.158615
23   0.156403
24   0.162431
25   0.166452
26   0.16548
27   0.134771
28   0.149733
29   0.148312
30   0.129244
31   0.136727
32   0.154556
33   0.186582
34   0.167909
35   0.173623
36   0.182464
37   0.424913

>  <lowdin_charges>
37
1   -0.445461
2   -0.44159
3   -0.451608
4   -0.276055
5   -0.287934
6   -0.280309
7   -0.200129
8   -0.110952
9   -0.190496
10   0.159155
11   0.159624
12   0.187413
13   -0.185001
14   -0.090493
15   -0.320726
16   -0.280786
17   -0.244681
18   0.151935
19   0.145893
20   0.146546
21   0.157179
22   0.15531
23   0.152505
24   0.159695
25   0.156401
26   0.160731
27   0.141667
28   0.149232
29   0.142923
30   0.137472
31   0.148217
32   0.151131
33   0.174037
34   0.164698
35   0.161851
36   0.179191
37   0.363415

$$$$

