PCCDB-ID:  58897
public computational chemistry database (PCCDB) project, http://pccdb.org

 28 28  0  0  1  0  0  0  0  0999 V2000
    6.2175   -6.0940    0.9166 C   0  0  0  0  0  0  0  0  0  0  0  0
    3.4032   -1.6602    6.4963 C   0  0  0  0  0  0  0  0  0  0  0  0
    3.5377   -1.5828    5.1115 C   0  0  0  0  0  0  0  0  0  0  0  0
    3.8945   -2.7819    7.1608 C   0  0  0  0  0  0  0  0  0  0  0  0
    4.1436   -2.6184    4.4012 C   0  0  0  0  0  0  0  0  0  0  0  0
    5.3866   -4.7674    2.9145 C   0  0  0  0  0  0  0  0  0  0  0  0
    6.0920   -6.0351    2.4373 C   0  0  1  0  0  0  0  0  0  0  0  0
    4.5160   -3.8322    6.4757 C   0  0  0  0  0  0  0  0  0  0  0  0
    4.6359   -3.7540    5.0625 C   0  0  0  0  0  0  0  0  0  0  0  0
    5.0694   -4.9778    7.2751 C   0  0  0  0  0  0  0  0  0  0  0  0
    4.5697   -5.4754    8.3362 N   0  0  0  0  0  0  0  0  0  0  0  0
    5.2938   -4.7923    4.3694 N   0  0  0  0  0  0  0  0  0  0  0  0
    5.3022   -7.1189    2.9420 O   0  0  0  0  0  0  0  0  0  0  0  0
    6.2450   -5.5068    6.8365 O   0  0  0  0  0  0  0  0  0  0  0  0
    6.8110   -5.2549    0.5352 H   0  0  0  0  0  0  0  0  0  0  0  0
    5.2278   -6.0682    0.4483 H   0  0  0  0  0  0  0  0  0  0  0  0
    6.7150   -7.0206    0.6073 H   0  0  0  0  0  0  0  0  0  0  0  0
    2.9380   -0.8537    7.0548 H   0  0  0  0  0  0  0  0  0  0  0  0
    3.1664   -0.7152    4.5726 H   0  0  0  0  0  0  0  0  0  0  0  0
    3.8316   -2.8370    8.2441 H   0  0  0  0  0  0  0  0  0  0  0  0
    4.2242   -2.5446    3.3225 H   0  0  0  0  0  0  0  0  0  0  0  0
    4.3950   -4.7105    2.4353 H   0  0  0  0  0  0  0  0  0  0  0  0
    5.9620   -3.8898    2.5991 H   0  0  0  0  0  0  0  0  0  0  0  0
    7.0935   -6.0608    2.8947 H   0  0  0  0  0  0  0  0  0  0  0  0
    3.6831   -5.0168    8.5489 H   0  0  0  0  0  0  0  0  0  0  0  0
    5.0097   -5.7233    4.6682 H   0  0  0  0  0  0  0  0  0  0  0  0
    5.8120   -7.9382    2.8519 H   0  0  0  0  0  0  0  0  0  0  0  0
    6.4761   -5.0953    5.9813 H   0  0  0  0  0  0  0  0  0  0  0  0
  1  7  1  0  0  0  0
  2 18  1  0  0  0  0
  2  4  1  0  0  0  0
  3  2  2  0  0  0  0
  4 20  1  0  0  0  0
  5  9  2  0  0  0  0
  5  3  1  0  0  0  0
  6 12  1  0  0  0  0
  7 24  1  1  0  0  0
  7  6  1  0  0  0  0
  7 13  1  0  0  0  0
  8  4  2  0  0  0  0
  8 10  1  0  0  0  0
  9  8  1  0  0  0  0
 10 11  2  0  0  0  0
 11 25  1  0  0  0  0
 12 26  1  0  0  0  0
 12  9  1  0  0  0  0
 14 10  1  0  0  0  0
 15  1  1  0  0  0  0
 16  1  1  0  0  0  0
 17  1  1  0  0  0  0
 19  3  1  0  0  0  0
 21  5  1  0  0  0  0
 22  6  1  0  0  0  0
 23  6  1  0  0  0  0
 27 13  1  0  0  0  0
 28 14  1  0  0  0  0
M  END
>  <HBA>
4

>  <HBD>
3

>  <TPSA>
75.35

>  <cid>
58897

>  <dipole>
5.75

>  <excitation_energy_1>
4.354

>  <excitation_energy_2>
4.998

>  <excitation_energy_3>
5.179

>  <excitation_energy_4>
5.249

>  <homo_energy>
-5.91

>  <homo_lumo_gap>
5.17

>  <logP>
1.351

>  <lumo_energy>
-0.74

>  <melting_point>
145.97

>  <molecular_refractivity>
54.62

>  <oscillator_strength_1>
0.0717

>  <oscillator_strength_2>
0.021

>  <oscillator_strength_3>
0.0135

>  <oscillator_strength_4>
0.0626

>  <open_babel_can_smiles>
C[C@@H](CNc1ccccc1C(=N)O)O

>  <mulliken_charges>
28
1   -0.457057
2   -0.13171
3   -0.136335
4   -0.196549
5   -0.176561
6   -0.106573
7   0.112082
8   0.053709
9   0.289383
10   0.403148
11   -0.590219
12   -0.732528
13   -0.628536
14   -0.5983
15   0.148904
16   0.162124
17   0.146048
18   0.132022
19   0.133614
20   0.143332
21   0.133567
22   0.146876
23   0.154881
24   0.131478
25   0.28276
26   0.358886
27   0.402061
28   0.419496

>  <lowdin_charges>
28
1   -0.458558
2   -0.177001
3   -0.140525
4   -0.141037
5   -0.197579
6   -0.205542
7   -0.002324
8   -0.07759
9   0.050071
10   0.121284
11   -0.400128
12   -0.316733
13   -0.467488
14   -0.374409
15   0.157441
16   0.159025
17   0.153851
18   0.161681
19   0.160863
20   0.162162
21   0.159836
22   0.140597
23   0.154915
24   0.132436
25   0.255079
26   0.288478
27   0.351869
28   0.349325

$$$$

