PCCDB-ID:  37369
public computational chemistry database (PCCDB) project, http://pccdb.org

 30 31  0  0  1  0  0  0  0  0999 V2000
    2.6025    0.9705   -0.9166 C   0  0  0  0  0  0  0  0  0  0  0  0
    2.4570   -0.4292   -1.0605 C   0  0  0  0  0  0  0  0  0  0  0  0
   -2.1777    1.3940   -0.1539 C   0  0  0  0  0  0  0  0  0  0  0  0
    1.5031    1.7586   -0.6577 C   0  0  0  0  0  0  0  0  0  0  0  0
   -0.9431    1.9847   -0.2669 C   0  0  0  0  0  0  0  0  0  0  0  0
    1.2158   -1.0165   -0.9403 C   0  0  0  0  0  0  0  0  0  0  0  0
   -2.3365   -0.0081   -0.2861 C   0  0  0  0  0  0  0  0  0  0  0  0
   -3.5538   -5.1331   -0.6497 C   0  0  0  0  0  0  0  0  0  0  0  0
   -2.5337   -2.8198   -0.6180 C   0  0  0  0  0  0  0  0  0  0  0  0
    0.2078    1.1902   -0.5285 C   0  0  0  0  0  0  0  0  0  0  0  0
   -2.2800   -4.3119   -0.8485 C   0  0  2  0  0  0  0  0  0  0  0  0
    0.0689   -0.2269   -0.6698 C   0  0  0  0  0  0  0  0  0  0  0  0
   -1.2360   -0.8056   -0.5346 C   0  0  0  0  0  0  0  0  0  0  0  0
   -4.4541   -4.7390   -1.6888 O   0  0  0  0  0  0  0  0  0  0  0  0
   -1.7373   -4.5656   -2.1328 O   0  0  0  0  0  0  0  0  0  0  0  0
   -1.2764   -2.1622   -0.6656 O   0  0  0  0  0  0  0  0  0  0  0  0
    3.5861    1.4230   -1.0130 H   0  0  0  0  0  0  0  0  0  0  0  0
    3.3292   -1.0429   -1.2694 H   0  0  0  0  0  0  0  0  0  0  0  0
   -3.0571    2.0012    0.0442 H   0  0  0  0  0  0  0  0  0  0  0  0
    1.6109    2.8353   -0.5486 H   0  0  0  0  0  0  0  0  0  0  0  0
   -0.8291    3.0605   -0.1615 H   0  0  0  0  0  0  0  0  0  0  0  0
    1.0950   -2.0877   -1.0566 H   0  0  0  0  0  0  0  0  0  0  0  0
   -3.3262   -0.4385   -0.1878 H   0  0  0  0  0  0  0  0  0  0  0  0
   -3.9893   -4.9556    0.3458 H   0  0  0  0  0  0  0  0  0  0  0  0
   -3.2980   -6.1983   -0.7329 H   0  0  0  0  0  0  0  0  0  0  0  0
   -3.0075   -2.6632    0.3632 H   0  0  0  0  0  0  0  0  0  0  0  0
   -3.2057   -2.4245   -1.3907 H   0  0  0  0  0  0  0  0  0  0  0  0
   -1.5268   -4.6446   -0.1249 H   0  0  0  0  0  0  0  0  0  0  0  0
   -5.1746   -5.3839   -1.7361 H   0  0  0  0  0  0  0  0  0  0  0  0
   -2.4874   -4.4991   -2.7493 H   0  0  0  0  0  0  0  0  0  0  0  0
  1  4  2  0  0  0  0
  2  6  2  0  0  0  0
  2  1  1  0  0  0  0
  3 19  1  0  0  0  0
  4 20  1  0  0  0  0
  4 10  1  0  0  0  0
  5 21  1  0  0  0  0
  5  3  1  0  0  0  0
  6 12  1  0  0  0  0
  7 23  1  0  0  0  0
  7  3  2  0  0  0  0
  8 24  1  0  0  0  0
  9 26  1  0  0  0  0
 10  5  2  0  0  0  0
 11  8  1  0  0  0  0
 11  9  1  0  0  0  0
 11 28  1  1  0  0  0
 12 13  2  0  0  0  0
 12 10  1  0  0  0  0
 13  7  1  0  0  0  0
 14  8  1  0  0  0  0
 15 11  1  0  0  0  0
 16  9  1  0  0  0  0
 16 13  1  0  0  0  0
 17  1  1  0  0  0  0
 18  2  1  0  0  0  0
 22  6  1  0  0  0  0
 25  8  1  0  0  0  0
 27  9  1  0  0  0  0
 29 14  1  0  0  0  0
 30 15  1  0  0  0  0
M  END
>  <HBA>
3

>  <HBD>
2

>  <TPSA>
49.69

>  <cid>
37369

>  <dipole>
4.03

>  <excitation_energy_1>
4.149

>  <excitation_energy_2>
4.361

>  <excitation_energy_3>
4.664

>  <excitation_energy_4>
5.159

>  <homo_energy>
-5.263

>  <homo_lumo_gap>
4.661

>  <logP>
1.572

>  <lumo_energy>
-0.601

>  <melting_point>
89.67

>  <molecular_refractivity>
62.38

>  <oscillator_strength_1>
0.1008

>  <oscillator_strength_2>
0.0249

>  <oscillator_strength_3>
0.0004

>  <oscillator_strength_4>
0.0022

>  <open_babel_can_smiles>
OC[C@H](COc1cccc2c1cccc2)O

>  <mulliken_charges>
30
1   -0.128506
2   -0.140353
3   -0.142151
4   -0.202869
5   -0.19228
6   -0.171105
7   -0.210652
8   -0.06743
9   -0.028539
10   0.138688
11   0.107007
12   0.049781
13   0.330238
14   -0.631867
15   -0.622581
16   -0.518155
17   0.125782
18   0.126802
19   0.125872
20   0.125683
21   0.12199
22   0.156057
23   0.131185
24   0.12926
25   0.144454
26   0.13071
27   0.154883
28   0.151596
29   0.405532
30   0.400968

>  <lowdin_charges>
30
1   -0.157279
2   -0.163194
3   -0.151317
4   -0.158087
5   -0.178279
6   -0.147036
7   -0.227062
8   -0.149911
9   -0.144856
10   0.005432
11   -0.017697
12   -0.023539
13   0.105839
14   -0.478616
15   -0.453913
16   -0.188706
17   0.156183
18   0.157688
19   0.157442
20   0.153801
21   0.153475
22   0.170184
23   0.161099
24   0.133606
25   0.140617
26   0.138224
27   0.150386
28   0.156199
29   0.354145
30   0.345171

$$$$

