PCCDB-ID:  10902
public computational chemistry database (PCCDB) project, http://pccdb.org

 10  9  0  0  0  0  0  0  0  0999 V2000
    0.9644    0.0068   -0.0776 C   0  0  0  0  0  0  0  0  0  0  0  0
    0.4443    1.2611    0.6196 C   0  0  0  0  0  0  0  0  0  0  0  0
    2.8060   -0.1128   -0.0720 S   0  0  0  0  0  0  0  0  0  0  0  0
   -1.3970    1.3135    0.7345 S   0  0  0  0  0  0  0  0  0  0  0  0
    0.6012   -0.0559   -1.1077 H   0  0  0  0  0  0  0  0  0  0  0  0
    0.6201   -0.8894    0.4452 H   0  0  0  0  0  0  0  0  0  0  0  0
    0.8017    2.1690    0.1250 H   0  0  0  0  0  0  0  0  0  0  0  0
    0.7940    1.2936    1.6549 H   0  0  0  0  0  0  0  0  0  0  0  0
    3.0369    0.9434   -0.8827 H   0  0  0  0  0  0  0  0  0  0  0  0
   -1.6364    1.4330   -0.5901 H   0  0  0  0  0  0  0  0  0  0  0  0
  1  3  1  0  0  0  0
  1  6  1  0  0  0  0
  1  2  1  0  0  0  0
  2  4  1  0  0  0  0
  2  8  1  0  0  0  0
  5  1  1  0  0  0  0
  7  2  1  0  0  0  0
  9  3  1  0  0  0  0
 10  4  1  0  0  0  0
M  END
>  <HBA>
2

>  <HBD>
2

>  <TPSA>
77.6

>  <cid>
10902

>  <dipole>
1.67

>  <excitation_energy_1>
5.216

>  <excitation_energy_2>
5.378

>  <excitation_energy_3>
5.766

>  <excitation_energy_4>
5.915

>  <homo_energy>
-6.58

>  <homo_lumo_gap>
7.002

>  <logP>
0.846

>  <lumo_energy>
0.422

>  <melting_point>
16.61

>  <molecular_refractivity>
27.59

>  <oscillator_strength_1>
0.0016

>  <oscillator_strength_2>
0.0148

>  <oscillator_strength_3>
0.1025

>  <oscillator_strength_4>
0.0041

>  <open_babel_can_smiles>
SCCS

>  <mulliken_charges>
10
1   -0.401759
2   -0.401477
3   -0.07373
4   -0.073787
5   0.181142
6   0.200394
7   0.181125
8   0.200361
9   0.093918
10   0.093813

>  <lowdin_charges>
10
1   -0.376642
2   -0.376563
3   -0.077912
4   -0.075244
5   0.161853
6   0.179483
7   0.163298
8   0.177909
9   0.113323
10   0.110496

$$$$

