PCCDB-ID:  27866
public computational chemistry database (PCCDB) project, http://pccdb.org

 29 29  0  0  1  0  0  0  0  0999 V2000
    0.4731   -1.2082   -0.0324 C   0  0  0  0  0  0  0  0  0  0  0  0
    2.2516   -0.4439    1.6035 C   0  0  0  0  0  0  0  0  0  0  0  0
    5.8067   -4.8573   -1.6260 C   0  0  0  0  0  0  0  0  0  0  0  0
    5.6661   -2.6155   -2.8280 C   0  0  0  0  0  0  0  0  0  0  0  0
    4.9514   -1.2633   -2.8667 C   0  0  0  0  0  0  0  0  0  0  0  0
    2.8644   -1.4466   -0.6437 C   0  0  0  0  0  0  0  0  0  0  0  0
    5.0435   -2.7577   -0.4138 C   0  0  0  0  0  0  0  0  0  0  0  0
    1.9484   -1.0510    0.2545 C   0  0  0  0  0  0  0  0  0  0  0  0
    5.0591   -3.5257   -1.7473 C   0  0  2  0  0  0  0  0  0  0  0  0
    4.3680   -1.3732   -0.5247 C   0  0  1  0  0  0  0  0  0  0  0  0
    4.9537   -0.6142   -1.6003 O   0  0  0  0  0  0  0  0  0  0  0  0
   -0.0140   -1.8363    0.7269 H   0  0  0  0  0  0  0  0  0  0  0  0
    0.2920   -1.6597   -1.0129 H   0  0  0  0  0  0  0  0  0  0  0  0
   -0.0386   -0.2358   -0.0047 H   0  0  0  0  0  0  0  0  0  0  0  0
    1.7156    0.5072    1.7243 H   0  0  0  0  0  0  0  0  0  0  0  0
    3.3138   -0.2518    1.7695 H   0  0  0  0  0  0  0  0  0  0  0  0
    1.9008   -1.1018    2.4110 H   0  0  0  0  0  0  0  0  0  0  0  0
    5.8060   -5.4011   -2.5786 H   0  0  0  0  0  0  0  0  0  0  0  0
    5.3471   -5.5046   -0.8693 H   0  0  0  0  0  0  0  0  0  0  0  0
    6.8526   -4.6947   -1.3354 H   0  0  0  0  0  0  0  0  0  0  0  0
    6.7303   -2.4513   -2.6064 H   0  0  0  0  0  0  0  0  0  0  0  0
    5.6095   -3.0917   -3.8165 H   0  0  0  0  0  0  0  0  0  0  0  0
    3.9221   -1.3934   -3.2396 H   0  0  0  0  0  0  0  0  0  0  0  0
    5.4568   -0.5692   -3.5461 H   0  0  0  0  0  0  0  0  0  0  0  0
    2.4890   -1.8753   -1.5722 H   0  0  0  0  0  0  0  0  0  0  0  0
    6.0826   -2.6025   -0.0895 H   0  0  0  0  0  0  0  0  0  0  0  0
    4.5440   -3.3445    0.3678 H   0  0  0  0  0  0  0  0  0  0  0  0
    4.0192   -3.7469   -2.0339 H   0  0  0  0  0  0  0  0  0  0  0  0
    4.6346   -0.7949    0.3635 H   0  0  0  0  0  0  0  0  0  0  0  0
  1 14  1  0  0  0  0
  1  8  1  0  0  0  0
  1 12  1  0  0  0  0
  2 15  1  0  0  0  0
  2 16  1  0  0  0  0
  2 17  1  0  0  0  0
  3 20  1  0  0  0  0
  3 19  1  0  0  0  0
  4 21  1  0  0  0  0
  4  9  1  0  0  0  0
  5  4  1  0  0  0  0
  5 11  1  0  0  0  0
  6 10  1  0  0  0  0
  6  8  2  0  0  0  0
  7 26  1  0  0  0  0
  7 27  1  0  0  0  0
  8  2  1  0  0  0  0
  9 28  1  6  0  0  0
  9  3  1  0  0  0  0
  9  7  1  0  0  0  0
 10  7  1  0  0  0  0
 10 29  1  1  0  0  0
 11 10  1  0  0  0  0
 13  1  1  0  0  0  0
 18  3  1  0  0  0  0
 22  4  1  0  0  0  0
 23  5  1  0  0  0  0
 24  5  1  0  0  0  0
 25  6  1  0  0  0  0
M  END
>  <HBA>
1

>  <HBD>
0

>  <TPSA>
9.23

>  <cid>
27866

>  <dipole>
1.41

>  <excitation_energy_1>
5.843

>  <excitation_energy_2>
6.037

>  <excitation_energy_3>
6.14

>  <excitation_energy_4>
6.206

>  <homo_energy>
-6.297

>  <homo_lumo_gap>
6.961

>  <logP>
2.768

>  <lumo_energy>
0.664

>  <melting_point>
-2.38

>  <molecular_refractivity>
48.68

>  <oscillator_strength_1>
0.0049

>  <oscillator_strength_2>
0.0117

>  <oscillator_strength_3>
0.0008

>  <oscillator_strength_4>
0.035

>  <open_babel_can_smiles>
C[C@@H]1CCO[C@H](C1)C=C(C)C

>  <mulliken_charges>
29
1   -0.506097
2   -0.514348
3   -0.44314
4   -0.26854
5   -0.031497
6   -0.169215
7   -0.266607
8   0.183296
9   -0.088549
10   0.090064
11   -0.485883
12   0.149793
13   0.151378
14   0.152414
15   0.154462
16   0.158829
17   0.153947
18   0.1399
19   0.140788
20   0.140762
21   0.135201
22   0.126662
23   0.119228
24   0.141588
25   0.114166
26   0.133172
27   0.133455
28   0.123064
29   0.131706

>  <lowdin_charges>
29
1   -0.440406
2   -0.444923
3   -0.442402
4   -0.291247
5   -0.135013
6   -0.207406
7   -0.28974
8   0.000261
9   -0.126747
10   -0.000426
11   -0.277602
12   0.154149
13   0.153978
14   0.154289
15   0.156798
16   0.155201
17   0.157495
18   0.14807
19   0.149711
20   0.145372
21   0.141427
22   0.144219
23   0.123117
24   0.150142
25   0.147421
26   0.142617
27   0.148955
28   0.133967
29   0.148725

$$$$

