PCCDB-ID:  10336
public computational chemistry database (PCCDB) project, http://pccdb.org

 14 13  0  0  0  0  0  0  0  0999 V2000
    1.0273    0.1537   -0.1027 C   0  0  0  0  0  0  0  0  0  0  0  0
    2.5783   -2.0635    1.5888 C   0  0  0  0  0  0  0  0  0  0  0  0
    2.5042    0.0039    0.0871 C   0  0  0  0  0  0  0  0  0  0  0  0
    4.6448   -0.8267    0.8082 C   0  0  0  0  0  0  0  0  0  0  0  0
    3.1691   -0.9277    0.7988 C   0  0  0  0  0  0  0  0  0  0  0  0
    5.3826   -1.5898    1.4042 O   0  0  0  0  0  0  0  0  0  0  0  0
    0.7708    0.0966   -1.1693 H   0  0  0  0  0  0  0  0  0  0  0  0
    0.6955    1.1424    0.2420 H   0  0  0  0  0  0  0  0  0  0  0  0
    0.4471   -0.6047    0.4277 H   0  0  0  0  0  0  0  0  0  0  0  0
    1.4864   -2.0690    1.5684 H   0  0  0  0  0  0  0  0  0  0  0  0
    2.9087   -2.0116    2.6323 H   0  0  0  0  0  0  0  0  0  0  0  0
    2.9386   -3.0237    1.2018 H   0  0  0  0  0  0  0  0  0  0  0  0
    3.1105    0.7548   -0.4242 H   0  0  0  0  0  0  0  0  0  0  0  0
    5.0596    0.0209    0.2163 H   0  0  0  0  0  0  0  0  0  0  0  0
  1  3  1  0  0  0  0
  1  8  1  0  0  0  0
  1  9  1  0  0  0  0
  2 11  1  0  0  0  0
  3  5  2  0  0  0  0
  4  6  2  0  0  0  0
  5  4  1  0  0  0  0
  5  2  1  0  0  0  0
  7  1  1  0  0  0  0
 10  2  1  0  0  0  0
 12  2  1  0  0  0  0
 13  3  1  0  0  0  0
 14  4  1  0  0  0  0
M  END
>  <HBA>
1

>  <HBD>
0

>  <TPSA>
17.07

>  <cid>
10336

>  <dipole>
3.55

>  <excitation_energy_1>
3.826

>  <excitation_energy_2>
5.699

>  <excitation_energy_3>
6.405

>  <excitation_energy_4>
6.523

>  <homo_energy>
-6.74

>  <homo_lumo_gap>
5.426

>  <logP>
1.151

>  <lumo_energy>
-1.314

>  <melting_point>
19.04

>  <molecular_refractivity>
25.88

>  <oscillator_strength_1>
0.0002

>  <oscillator_strength_2>
0.3723

>  <oscillator_strength_3>
0.0619

>  <oscillator_strength_4>
0.0004

>  <open_babel_can_smiles>
C/C=C(/C=O)\C

>  <mulliken_charges>
14
1   -0.496371
2   -0.512991
3   -0.145046
4   0.199999
5   0.129372
6   -0.414892
7   0.170457
8   0.170125
9   0.166678
10   0.148672
11   0.175427
12   0.174562
13   0.139215
14   0.094793

>  <lowdin_charges>
14
1   -0.442181
2   -0.437739
3   -0.129464
4   0.037361
5   -0.052221
6   -0.236105
7   0.166327
8   0.167166
9   0.162499
10   0.152682
11   0.169629
12   0.170204
13   0.157349
14   0.114494

$$$$

