PCCDB-ID:  10930
public computational chemistry database (PCCDB) project, http://pccdb.org

 18 17  0  0  0  0  0  0  0  0999 V2000
    1.1363   -0.1954    0.4793 C   0  0  0  0  0  0  0  0  0  0  0  0
    2.8522   -1.4984   -0.8564 C   0  0  0  0  0  0  0  0  0  0  0  0
    2.6420    0.9995   -1.1959 C   0  0  0  0  0  0  0  0  0  0  0  0
    2.5228   -0.1618   -0.1777 C   0  0  0  0  0  0  0  0  0  0  0  0
    2.4467    2.3758   -0.5835 C   0  0  0  0  0  0  0  0  0  0  0  0
    1.5001    3.1980   -0.7831 N   0  0  0  0  0  0  0  0  0  0  0  0
    3.4083    2.7476    0.3144 O   0  0  0  0  0  0  0  0  0  0  0  0
    1.0794   -0.9944    1.2270 H   0  0  0  0  0  0  0  0  0  0  0  0
    0.3568   -0.3856   -0.2701 H   0  0  0  0  0  0  0  0  0  0  0  0
    0.8992    0.7515    0.9752 H   0  0  0  0  0  0  0  0  0  0  0  0
    2.7952   -2.3258   -0.1401 H   0  0  0  0  0  0  0  0  0  0  0  0
    3.8602   -1.4955   -1.2881 H   0  0  0  0  0  0  0  0  0  0  0  0
    2.1423   -1.7106   -1.6659 H   0  0  0  0  0  0  0  0  0  0  0  0
    1.9041    0.8589   -1.9943 H   0  0  0  0  0  0  0  0  0  0  0  0
    3.6328    0.9618   -1.6739 H   0  0  0  0  0  0  0  0  0  0  0  0
    3.2677    0.0024    0.6167 H   0  0  0  0  0  0  0  0  0  0  0  0
    0.8427    2.8077   -1.4593 H   0  0  0  0  0  0  0  0  0  0  0  0
    4.0921    2.0623    0.3549 H   0  0  0  0  0  0  0  0  0  0  0  0
  1 10  1  0  0  0  0
  1  8  1  0  0  0  0
  2  4  1  0  0  0  0
  2 11  1  0  0  0  0
  3  5  1  0  0  0  0
  3  4  1  0  0  0  0
  4  1  1  0  0  0  0
  4 16  1  0  0  0  0
  5  7  1  0  0  0  0
  6  5  2  0  0  0  0
  7 18  1  0  0  0  0
  9  1  1  0  0  0  0
 12  2  1  0  0  0  0
 13  2  1  0  0  0  0
 14  3  1  0  0  0  0
 15  3  1  0  0  0  0
 17  6  1  0  0  0  0
M  END
>  <HBA>
2

>  <HBD>
1

>  <TPSA>
43.09

>  <cid>
10930

>  <dipole>
4.33

>  <excitation_energy_1>
6.06

>  <excitation_energy_2>
6.259

>  <excitation_energy_3>
6.355

>  <excitation_energy_4>
6.873

>  <homo_energy>
-7.012

>  <homo_lumo_gap>
7.739

>  <logP>
1.218

>  <lumo_energy>
0.727

>  <melting_point>
49.74

>  <molecular_refractivity>
29.06

>  <oscillator_strength_1>
0.003

>  <oscillator_strength_2>
0.0054

>  <oscillator_strength_3>
0.0159

>  <oscillator_strength_4>
0.0083

>  <open_babel_can_smiles>
CC(CC(=N)O)C

>  <mulliken_charges>
18
1   -0.450643
2   -0.440967
3   -0.354867
4   -0.078794
5   0.482531
6   -0.584145
7   -0.575589
8   0.147718
9   0.141141
10   0.171465
11   0.150494
12   0.141816
13   0.146229
14   0.148079
15   0.148703
16   0.118885
17   0.281573
18   0.40637

>  <lowdin_charges>
18
1   -0.450139
2   -0.444329
3   -0.313025
4   -0.120747
5   0.125151
6   -0.399026
7   -0.36861
8   0.153527
9   0.148243
10   0.162971
11   0.154441
12   0.147792
13   0.15027
14   0.156652
15   0.15338
16   0.132598
17   0.256881
18   0.35397

$$$$

