PCCDB-ID:  16542
public computational chemistry database (PCCDB) project, http://pccdb.org

 36 35  0  0  0  0  0  0  0  0999 V2000
   -1.3662    1.9469    3.4323 C   0  0  0  0  0  0  0  0  0  0  0  0
    9.7568    5.7465   -0.7995 C   0  0  0  0  0  0  0  0  0  0  0  0
   10.6964    5.7732    1.5305 C   0  0  0  0  0  0  0  0  0  0  0  0
   -0.0724    1.3630    2.8559 C   0  0  0  0  0  0  0  0  0  0  0  0
    0.9994    2.4249    2.5780 C   0  0  0  0  0  0  0  0  0  0  0  0
    2.2974    1.8491    1.9977 C   0  0  0  0  0  0  0  0  0  0  0  0
    3.3682    2.9114    1.7185 C   0  0  0  0  0  0  0  0  0  0  0  0
    4.6632    2.3320    1.1339 C   0  0  0  0  0  0  0  0  0  0  0  0
    5.7301    3.3992    0.8541 C   0  0  0  0  0  0  0  0  0  0  0  0
    7.0032    2.7945    0.2707 C   0  0  0  0  0  0  0  0  0  0  0  0
    9.7556    5.2888    0.4588 C   0  0  0  0  0  0  0  0  0  0  0  0
    8.7898    4.2366    0.9030 C   0  0  0  0  0  0  0  0  0  0  0  0
    8.7559    3.8054    2.0408 O   0  0  0  0  0  0  0  0  0  0  0  0
    7.9670    3.8120   -0.0837 O   0  0  0  0  0  0  0  0  0  0  0  0
   -2.1105    1.1646    3.6207 H   0  0  0  0  0  0  0  0  0  0  0  0
   -1.8140    2.6738    2.7435 H   0  0  0  0  0  0  0  0  0  0  0  0
   -1.1793    2.4640    4.3817 H   0  0  0  0  0  0  0  0  0  0  0  0
   10.4601    6.5122   -1.1166 H   0  0  0  0  0  0  0  0  0  0  0  0
    9.0610    5.3725   -1.5418 H   0  0  0  0  0  0  0  0  0  0  0  0
   11.3915    6.5179    1.1324 H   0  0  0  0  0  0  0  0  0  0  0  0
   11.2715    4.9411    1.9513 H   0  0  0  0  0  0  0  0  0  0  0  0
   10.1427    6.2179    2.3653 H   0  0  0  0  0  0  0  0  0  0  0  0
   -0.2970    0.8235    1.9247 H   0  0  0  0  0  0  0  0  0  0  0  0
    0.3329    0.6132    3.5502 H   0  0  0  0  0  0  0  0  0  0  0  0
    1.2248    2.9639    3.5104 H   0  0  0  0  0  0  0  0  0  0  0  0
    0.5929    3.1767    1.8849 H   0  0  0  0  0  0  0  0  0  0  0  0
    2.0703    1.3096    1.0660 H   0  0  0  0  0  0  0  0  0  0  0  0
    2.7034    1.0979    2.6914 H   0  0  0  0  0  0  0  0  0  0  0  0
    3.6000    3.4488    2.6496 H   0  0  0  0  0  0  0  0  0  0  0  0
    2.9627    3.6639    1.0262 H   0  0  0  0  0  0  0  0  0  0  0  0
    4.4305    1.7929    0.2033 H   0  0  0  0  0  0  0  0  0  0  0  0
    5.0698    1.5821    1.8278 H   0  0  0  0  0  0  0  0  0  0  0  0
    5.9836    3.9261    1.7816 H   0  0  0  0  0  0  0  0  0  0  0  0
    5.3381    4.1474    0.1522 H   0  0  0  0  0  0  0  0  0  0  0  0
    6.7990    2.2750   -0.6701 H   0  0  0  0  0  0  0  0  0  0  0  0
    7.4658    2.0984    0.9755 H   0  0  0  0  0  0  0  0  0  0  0  0
  1 15  1  0  0  0  0
  1 17  1  0  0  0  0
  2 11  2  0  0  0  0
  3 21  1  0  0  0  0
  3 22  1  0  0  0  0
  4  1  1  0  0  0  0
  4 24  1  0  0  0  0
  5  4  1  0  0  0  0
  5 25  1  0  0  0  0
  6  5  1  0  0  0  0
  6 28  1  0  0  0  0
  7  6  1  0  0  0  0
  7 29  1  0  0  0  0
  8  7  1  0  0  0  0
  8 32  1  0  0  0  0
  9  8  1  0  0  0  0
  9 33  1  0  0  0  0
 10  9  1  0  0  0  0
 10 36  1  0  0  0  0
 11 12  1  0  0  0  0
 11  3  1  0  0  0  0
 12 13  2  0  0  0  0
 14 10  1  0  0  0  0
 14 12  1  0  0  0  0
 16  1  1  0  0  0  0
 18  2  1  0  0  0  0
 19  2  1  0  0  0  0
 20  3  1  0  0  0  0
 23  4  1  0  0  0  0
 26  5  1  0  0  0  0
 27  6  1  0  0  0  0
 30  7  1  0  0  0  0
 31  8  1  0  0  0  0
 34  9  1  0  0  0  0
 35 10  1  0  0  0  0
M  END
>  <HBA>
2

>  <HBD>
0

>  <TPSA>
26.3

>  <cid>
16542

>  <dipole>
1.6

>  <excitation_energy_1>
4.798

>  <excitation_energy_2>
5.753

>  <excitation_energy_3>
6.248

>  <excitation_energy_4>
6.748

>  <homo_energy>
-7.225

>  <homo_lumo_gap>
6.231

>  <logP>
3.466

>  <lumo_energy>
-0.993

>  <melting_point>
-35.28

>  <molecular_refractivity>
60.61

>  <oscillator_strength_1>
0.0001

>  <oscillator_strength_2>
0.1966

>  <oscillator_strength_3>
0.1516

>  <oscillator_strength_4>
0.0217

>  <open_babel_can_smiles>
CCCCCCCCOC(=O)C(=C)C

>  <mulliken_charges>
36
1   -0.441316
2   -0.369575
3   -0.500028
4   -0.246804
5   -0.246
6   -0.253508
7   -0.252471
8   -0.264577
9   -0.278496
10   -0.042251
11   0.126997
12   0.595183
13   -0.489142
14   -0.481801
15   0.141538
16   0.140946
17   0.141554
18   0.14717
19   0.171371
20   0.146351
21   0.172856
22   0.171806
23   0.129586
24   0.130404
25   0.127656
26   0.12626
27   0.126516
28   0.128603
29   0.132804
30   0.128648
31   0.128308
32   0.136866
33   0.160499
34   0.140526
35   0.146896
36   0.166627

>  <lowdin_charges>
36
1   -0.446215
2   -0.304453
3   -0.437632
4   -0.273418
5   -0.275752
6   -0.275692
7   -0.273884
8   -0.27518
9   -0.288282
10   -0.132323
11   -0.028006
12   0.191821
13   -0.271741
14   -0.190643
15   0.149873
16   0.147237
17   0.146251
18   0.163237
19   0.175874
20   0.156029
21   0.169602
22   0.168977
23   0.138619
24   0.139991
25   0.138013
26   0.138256
27   0.137429
28   0.139472
29   0.140741
30   0.139539
31   0.137999
32   0.143218
33   0.155943
34   0.146634
35   0.149935
36   0.158533

$$$$

