PCCDB-ID:  37221
public computational chemistry database (PCCDB) project, http://pccdb.org

 21 21  0  0  0  0  0  0  0  0999 V2000
    1.1680    0.2315   -0.3539 C   0  0  0  0  0  0  0  0  0  0  0  0
    3.4270    2.3554    0.0507 C   0  0  0  0  0  0  0  0  0  0  0  0
    7.0187    0.8892   -0.7316 C   0  0  0  0  0  0  0  0  0  0  0  0
    2.6303   -0.0596   -0.2664 C   0  0  0  0  0  0  0  0  0  0  0  0
    4.5113   -1.0716   -0.1956 C   0  0  0  0  0  0  0  0  0  0  0  0
    4.8178    0.2757   -0.0364 C   0  0  0  0  0  0  0  0  0  0  0  0
    3.1635   -1.2537   -0.3454 N   0  0  0  0  0  0  0  0  0  0  0  0
    3.6001    0.9153   -0.0826 N   0  0  0  0  0  0  0  0  0  0  0  0
    5.4057   -2.1878   -0.1581 N   0  0  0  0  0  0  0  0  0  0  0  0
    6.5967   -1.9506    0.1113 O   0  0  0  0  0  0  0  0  0  0  0  0
    4.9527   -3.3078   -0.3733 O   0  0  0  0  0  0  0  0  0  0  0  0
    5.9060    1.0235    0.1806 O   0  0  0  0  0  0  0  0  0  0  0  0
    0.6470   -0.7169   -0.4968 H   0  0  0  0  0  0  0  0  0  0  0  0
    0.9243    0.8898   -1.1972 H   0  0  0  0  0  0  0  0  0  0  0  0
    0.7843    0.7014    0.5603 H   0  0  0  0  0  0  0  0  0  0  0  0
    2.3642    2.5891   -0.0157 H   0  0  0  0  0  0  0  0  0  0  0  0
    3.9599    2.8801   -0.7472 H   0  0  0  0  0  0  0  0  0  0  0  0
    3.8120    2.6983    1.0146 H   0  0  0  0  0  0  0  0  0  0  0  0
    7.7548    1.6178   -0.3897 H   0  0  0  0  0  0  0  0  0  0  0  0
    6.6973    1.1334   -1.7504 H   0  0  0  0  0  0  0  0  0  0  0  0
    7.4229   -0.1214   -0.6878 H   0  0  0  0  0  0  0  0  0  0  0  0
  1  4  1  0  0  0  0
  1 15  1  0  0  0  0
  2 18  1  0  0  0  0
  3 21  1  0  0  0  0
  3 19  1  0  0  0  0
  3 12  1  0  0  0  0
  4  8  1  0  0  0  0
  5  9  1  0  0  0  0
  5  6  2  0  0  0  0
  6 12  1  0  0  0  0
  7  4  2  0  0  0  0
  7  5  1  0  0  0  0
  8  6  1  0  0  0  0
  8  2  1  0  0  0  0
  9 10  2  0  0  0  0
 11  9  2  0  0  0  0
 13  1  1  0  0  0  0
 14  1  1  0  0  0  0
 16  2  1  0  0  0  0
 17  2  1  0  0  0  0
 20  3  1  0  0  0  0
M  END
>  <HBA>
3

>  <HBD>
0

>  <TPSA>
72.87

>  <cid>
37221

>  <dipole>
7.75

>  <excitation_energy_1>
3.814

>  <excitation_energy_2>
4.098

>  <excitation_energy_3>
4.442

>  <excitation_energy_4>
4.955

>  <homo_energy>
-6.359

>  <homo_lumo_gap>
4.67

>  <logP>
1.169

>  <lumo_energy>
-1.69

>  <melting_point>
71.73

>  <molecular_refractivity>
43.77

>  <oscillator_strength_1>
0.0088

>  <oscillator_strength_2>
0.1341

>  <oscillator_strength_3>
0.0005

>  <oscillator_strength_4>
0.0036

>  <open_babel_can_smiles>
COc1c(nc(n1C)C)N(=O)=O

>  <mulliken_charges>
21
1   -0.538329
2   -0.325204
3   -0.2409
4   0.493282
5   0.380452
6   0.541958
7   -0.490034
8   -0.46844
9   0.34921
10   -0.438783
11   -0.38865
12   -0.516805
13   0.204686
14   0.167992
15   0.170061
16   0.180411
17   0.184822
18   0.195167
19   0.171451
20   0.151542
21   0.21611

>  <lowdin_charges>
21
1   -0.449294
2   -0.345793
3   -0.275902
4   0.059487
5   -0.042028
6   0.111237
7   -0.162457
8   -0.021276
9   0.307006
10   -0.288363
11   -0.232106
12   -0.187919
13   0.190195
14   0.165184
15   0.166269
16   0.171746
17   0.170785
18   0.174548
19   0.165258
20   0.146087
21   0.177338

$$$$

