PCCDB-ID:  34732
public computational chemistry database (PCCDB) project, http://pccdb.org

 29 29  0  0  1  0  0  0  0  0999 V2000
    1.0721   -0.0020   -0.4200 C   0  0  0  0  0  0  0  0  0  0  0  0
    3.4503    2.4062    0.1550 C   0  0  0  0  0  0  0  0  0  0  0  0
    2.0129    1.5256    2.0208 C   0  0  0  0  0  0  0  0  0  0  0  0
    4.5316   -1.4418    2.7909 C   0  0  0  0  0  0  0  0  0  0  0  0
    5.5395   -1.0945    0.5097 C   0  0  0  0  0  0  0  0  0  0  0  0
    2.5431    0.0121   -0.0076 C   0  0  2  0  0  0  0  0  0  0  0  0
    2.9887   -1.2436    0.7570 C   0  0  2  0  0  0  0  0  0  0  0  0
    3.0225    1.1529    0.9224 C   0  0  0  0  0  0  0  0  0  0  0  0
    4.3296   -0.8097    1.4121 C   0  0  0  0  0  0  0  0  0  0  0  0
    3.0421   -2.4319   -0.0166 O   0  0  0  0  0  0  0  0  0  0  0  0
    4.2061    0.6184    1.5725 O   0  0  0  0  0  0  0  0  0  0  0  0
    0.8763   -0.8762   -1.0504 H   0  0  0  0  0  0  0  0  0  0  0  0
    0.7990    0.8939   -0.9895 H   0  0  0  0  0  0  0  0  0  0  0  0
    0.4089   -0.0661    0.4495 H   0  0  0  0  0  0  0  0  0  0  0  0
    2.5971    2.8579   -0.3650 H   0  0  0  0  0  0  0  0  0  0  0  0
    4.2200    2.1635   -0.5855 H   0  0  0  0  0  0  0  0  0  0  0  0
    3.8642    3.1515    0.8424 H   0  0  0  0  0  0  0  0  0  0  0  0
    1.1363    2.0397    1.6112 H   0  0  0  0  0  0  0  0  0  0  0  0
    2.5012    2.1937    2.7370 H   0  0  0  0  0  0  0  0  0  0  0  0
    1.6672    0.6429    2.5695 H   0  0  0  0  0  0  0  0  0  0  0  0
    4.5746   -2.5341    2.7099 H   0  0  0  0  0  0  0  0  0  0  0  0
    3.7047   -1.1756    3.4579 H   0  0  0  0  0  0  0  0  0  0  0  0
    5.4629   -1.0907    3.2487 H   0  0  0  0  0  0  0  0  0  0  0  0
    5.7187   -2.1709    0.4117 H   0  0  0  0  0  0  0  0  0  0  0  0
    6.4313   -0.6347    0.9464 H   0  0  0  0  0  0  0  0  0  0  0  0
    5.4097   -0.6648   -0.4912 H   0  0  0  0  0  0  0  0  0  0  0  0
    3.1526    0.0663   -0.9240 H   0  0  0  0  0  0  0  0  0  0  0  0
    2.2618   -1.4700    1.5461 H   0  0  0  0  0  0  0  0  0  0  0  0
    3.6393   -2.2672   -0.7638 H   0  0  0  0  0  0  0  0  0  0  0  0
  1  6  1  0  0  0  0
  1 14  1  0  0  0  0
  2 17  1  0  0  0  0
  2  8  1  0  0  0  0
  3 20  1  0  0  0  0
  3 19  1  0  0  0  0
  4 23  1  0  0  0  0
  4 22  1  0  0  0  0
  5 25  1  0  0  0  0
  5  9  1  0  0  0  0
  6 27  1  6  0  0  0
  6  7  1  0  0  0  0
  6  8  1  0  0  0  0
  7  9  1  0  0  0  0
  7 28  1  1  0  0  0
  8 11  1  0  0  0  0
  8  3  1  0  0  0  0
  9 11  1  0  0  0  0
  9  4  1  0  0  0  0
 10  7  1  0  0  0  0
 12  1  1  0  0  0  0
 13  1  1  0  0  0  0
 15  2  1  0  0  0  0
 16  2  1  0  0  0  0
 18  3  1  0  0  0  0
 21  4  1  0  0  0  0
 24  5  1  0  0  0  0
 26  5  1  0  0  0  0
 29 10  1  0  0  0  0
M  END
>  <HBA>
2

>  <HBD>
1

>  <TPSA>
29.46

>  <cid>
34732

>  <dipole>
1.19

>  <excitation_energy_1>
6.03

>  <excitation_energy_2>
6.319

>  <excitation_energy_3>
6.423

>  <excitation_energy_4>
6.591

>  <homo_energy>
-6.534

>  <homo_lumo_gap>
8.319

>  <logP>
1.571

>  <lumo_energy>
1.785

>  <melting_point>
25.74

>  <molecular_refractivity>
45.59

>  <oscillator_strength_1>
0.0271

>  <oscillator_strength_2>
0.0015

>  <oscillator_strength_3>
0.01

>  <oscillator_strength_4>
0.0042

>  <open_babel_can_smiles>
C[C@@H]1[C@@H](O)C(OC1(C)C)(C)C

>  <mulliken_charges>
29
1   -0.456298
2   -0.453724
3   -0.458074
4   -0.459728
5   -0.48319
6   -0.139201
7   0.089227
8   0.344481
9   0.350425
10   -0.627548
11   -0.554987
12   0.158099
13   0.144334
14   0.149252
15   0.138131
16   0.143681
17   0.15289
18   0.139955
19   0.154964
20   0.143153
21   0.149151
22   0.144826
23   0.148844
24   0.147622
25   0.161145
26   0.13338
27   0.11286
28   0.135294
29   0.391039

>  <lowdin_charges>
29
1   -0.445576
2   -0.449437
3   -0.457145
4   -0.446854
5   -0.460119
6   -0.152662
7   -0.020453
8   0.128724
9   0.11312
10   -0.448794
11   -0.283436
12   0.159573
13   0.150335
14   0.152166
15   0.150193
16   0.151733
17   0.157791
18   0.150502
19   0.160244
20   0.149167
21   0.153293
22   0.152477
23   0.154476
24   0.150903
25   0.163301
26   0.142343
27   0.136251
28   0.14604
29   0.341845

$$$$

