PCCDB-ID:  8391
public computational chemistry database (PCCDB) project, http://pccdb.org

 18 18  0  0  0  0  0  0  0  0999 V2000
    0.9248   -0.0301    0.3531 C   0  0  0  0  0  0  0  0  0  0  0  0
    3.1219    1.1750   -0.0859 C   0  0  0  0  0  0  0  0  0  0  0  0
    4.4927    1.1792   -0.3174 C   0  0  0  0  0  0  0  0  0  0  0  0
    3.1340   -1.2103    0.0009 C   0  0  0  0  0  0  0  0  0  0  0  0
    2.4111   -0.0214    0.0811 C   0  0  0  0  0  0  0  0  0  0  0  0
    4.5092   -1.2202   -0.2432 C   0  0  0  0  0  0  0  0  0  0  0  0
    5.2228   -0.0143   -0.4064 C   0  0  0  0  0  0  0  0  0  0  0  0
    5.1625   -2.5321   -0.3270 N   0  0  0  0  0  0  0  0  0  0  0  0
    6.5604   -0.0108   -0.6143 O   0  0  0  0  0  0  0  0  0  0  0  0
    4.5401   -3.5014    0.1171 O   0  0  0  0  0  0  0  0  0  0  0  0
    6.2755   -2.5994   -0.8416 O   0  0  0  0  0  0  0  0  0  0  0  0
    0.4834    0.9557    0.1766 H   0  0  0  0  0  0  0  0  0  0  0  0
    0.7101   -0.3070    1.3931 H   0  0  0  0  0  0  0  0  0  0  0  0
    0.4039   -0.7507   -0.2872 H   0  0  0  0  0  0  0  0  0  0  0  0
    2.5953    2.1246   -0.0313 H   0  0  0  0  0  0  0  0  0  0  0  0
    5.0189    2.1244   -0.4377 H   0  0  0  0  0  0  0  0  0  0  0  0
    2.6459   -2.1699    0.1267 H   0  0  0  0  0  0  0  0  0  0  0  0
    6.8607    0.9124   -0.6455 H   0  0  0  0  0  0  0  0  0  0  0  0
  1 13  1  0  0  0  0
  2 15  1  0  0  0  0
  2  5  2  0  0  0  0
  3  2  1  0  0  0  0
  4  5  1  0  0  0  0
  4 17  1  0  0  0  0
  5  1  1  0  0  0  0
  6  4  2  0  0  0  0
  7  3  2  0  0  0  0
  7  6  1  0  0  0  0
  8  6  1  0  0  0  0
  8 10  2  0  0  0  0
  9  7  1  0  0  0  0
 11  8  2  0  0  0  0
 12  1  1  0  0  0  0
 14  1  1  0  0  0  0
 16  3  1  0  0  0  0
 18  9  1  0  0  0  0
M  END
>  <HBA>
1

>  <HBD>
1

>  <TPSA>
66.05

>  <cid>
8391

>  <dipole>
5.98

>  <excitation_energy_1>
3.678

>  <excitation_energy_2>
3.723

>  <excitation_energy_3>
4.271

>  <excitation_energy_4>
4.845

>  <homo_energy>
-6.569

>  <homo_lumo_gap>
4.471

>  <logP>
2.132

>  <lumo_energy>
-2.098

>  <melting_point>
87.92

>  <molecular_refractivity>
42.25

>  <oscillator_strength_1>
0.0118

>  <oscillator_strength_2>
0.0507

>  <oscillator_strength_3>
0.0023

>  <oscillator_strength_4>
0.1371

>  <open_babel_can_smiles>
Cc1ccc(c(c1)N(=O)=O)O

>  <mulliken_charges>
18
1   -0.529688
2   -0.165406
3   -0.200918
4   -0.217508
5   0.167384
6   0.266021
7   0.332538
8   0.361292
9   -0.601427
10   -0.402496
11   -0.376467
12   0.158006
13   0.173055
14   0.169679
15   0.139427
16   0.132885
17   0.179018
18   0.414603

>  <lowdin_charges>
18
1   -0.440714
2   -0.134905
3   -0.207879
4   -0.136716
5   -0.012422
6   -0.024995
7   0.115895
8   0.307477
9   -0.336024
10   -0.262538
11   -0.229366
12   0.158678
13   0.164864
14   0.166282
15   0.164003
16   0.161024
17   0.186615
18   0.36072

$$$$

