PCCDB-ID:  7819
public computational chemistry database (PCCDB) project, http://pccdb.org

 21 20  0  0  0  0  0  0  0  0999 V2000
    5.6990   -1.7105    2.9688 C   0  0  0  0  0  0  0  0  0  0  0  0
    9.0022   -3.3569   -2.8347 C   0  0  0  0  0  0  0  0  0  0  0  0
    9.9266   -1.6666   -1.1807 C   0  0  0  0  0  0  0  0  0  0  0  0
    6.2813   -1.1788    1.8920 C   0  0  0  0  0  0  0  0  0  0  0  0
    7.4252   -1.9206   -1.5287 C   0  0  0  0  0  0  0  0  0  0  0  0
    8.7799   -2.6351   -1.4976 C   0  0  0  0  0  0  0  0  0  0  0  0
    6.5283   -1.9999    0.6786 C   0  0  0  0  0  0  0  0  0  0  0  0
    6.2369   -3.1727    0.5493 O   0  0  0  0  0  0  0  0  0  0  0  0
    7.1270   -1.2532   -0.2812 O   0  0  0  0  0  0  0  0  0  0  0  0
    5.5094   -1.1256    3.8637 H   0  0  0  0  0  0  0  0  0  0  0  0
    5.3975   -2.7541    2.9713 H   0  0  0  0  0  0  0  0  0  0  0  0
    9.9551   -3.8976   -2.8294 H   0  0  0  0  0  0  0  0  0  0  0  0
    9.0315   -2.6443   -3.6695 H   0  0  0  0  0  0  0  0  0  0  0  0
    8.2067   -4.0831   -3.0386 H   0  0  0  0  0  0  0  0  0  0  0  0
   10.8797   -2.2026   -1.1062 H   0  0  0  0  0  0  0  0  0  0  0  0
    9.7564   -1.1433   -0.2346 H   0  0  0  0  0  0  0  0  0  0  0  0
   10.0310   -0.9095   -1.9694 H   0  0  0  0  0  0  0  0  0  0  0  0
    6.5960   -0.1401    1.8536 H   0  0  0  0  0  0  0  0  0  0  0  0
    6.6200   -2.6260   -1.7501 H   0  0  0  0  0  0  0  0  0  0  0  0
    7.4240   -1.1191   -2.2746 H   0  0  0  0  0  0  0  0  0  0  0  0
    8.7241   -3.3912   -0.7037 H   0  0  0  0  0  0  0  0  0  0  0  0
  1 11  1  0  0  0  0
  1 10  1  0  0  0  0
  2 12  1  0  0  0  0
  2  6  1  0  0  0  0
  3 15  1  0  0  0  0
  3 16  1  0  0  0  0
  4  1  2  0  0  0  0
  5  6  1  0  0  0  0
  5  9  1  0  0  0  0
  6  3  1  0  0  0  0
  6 21  1  0  0  0  0
  7  4  1  0  0  0  0
  8  7  2  0  0  0  0
  9  7  1  0  0  0  0
 13  2  1  0  0  0  0
 14  2  1  0  0  0  0
 17  3  1  0  0  0  0
 18  4  1  0  0  0  0
 19  5  1  0  0  0  0
 20  5  1  0  0  0  0
M  END
>  <HBA>
2

>  <HBD>
0

>  <TPSA>
26.3

>  <cid>
7819

>  <dipole>
1.39

>  <excitation_energy_1>
4.736

>  <excitation_energy_2>
6.01

>  <excitation_energy_3>
6.216

>  <excitation_energy_4>
6.686

>  <homo_energy>
-7.38

>  <homo_lumo_gap>
6.196

>  <logP>
1.372

>  <lumo_energy>
-1.184

>  <melting_point>
-35.38

>  <molecular_refractivity>
36.57

>  <oscillator_strength_1>
0.0003

>  <oscillator_strength_2>
0.044

>  <oscillator_strength_3>
0.4312

>  <oscillator_strength_4>
0.0002

>  <open_babel_can_smiles>
C=CC(=O)OCC(C)C

>  <mulliken_charges>
21
1   -0.302679
2   -0.452243
3   -0.44319
4   -0.134266
5   -0.038527
6   -0.097871
7   0.608988
8   -0.493059
9   -0.478518
10   0.156956
11   0.180424
12   0.149814
13   0.140097
14   0.150561
15   0.143715
16   0.155052
17   0.136836
18   0.153515
19   0.166496
20   0.144292
21   0.153608

>  <lowdin_charges>
21
1   -0.265072
2   -0.445058
3   -0.44735
4   -0.184181
5   -0.136213
6   -0.133434
7   0.192035
8   -0.273125
9   -0.190804
10   0.169036
11   0.178177
12   0.154292
13   0.146542
14   0.153392
15   0.150311
16   0.154713
17   0.145447
18   0.168658
19   0.159838
20   0.1501
21   0.152695

$$$$

