PCCDB-ID:  8465
public computational chemistry database (PCCDB) project, http://pccdb.org

 30 30  0  0  0  0  0  0  0  0999 V2000
    2.5287   -0.6173   -0.5028 C   0  0  0  0  0  0  0  0  0  0  0  0
    1.0241    1.4008   -0.6951 C   0  0  0  0  0  0  0  0  0  0  0  0
    4.3834    2.0773    5.1237 C   0  0  0  0  0  0  0  0  0  0  0  0
    3.8428    1.6918    6.3453 C   0  0  0  0  0  0  0  0  0  0  0  0
    2.8959    0.5367    3.9972 C   0  0  0  0  0  0  0  0  0  0  0  0
    4.1943    1.2134    1.3411 C   0  0  0  0  0  0  0  0  0  0  0  0
    2.4348    0.9061   -0.3648 C   0  0  0  0  0  0  0  0  0  0  0  0
    3.9189    1.5018    3.9333 C   0  0  0  0  0  0  0  0  0  0  0  0
    2.8293    0.7315    6.4080 C   0  0  0  0  0  0  0  0  0  0  0  0
    2.3489    0.1521    5.2147 C   0  0  0  0  0  0  0  0  0  0  0  0
    4.5571    1.9205    2.6551 C   0  0  0  0  0  0  0  0  0  0  0  0
    2.7700    1.3279    1.0076 N   0  0  0  0  0  0  0  0  0  0  0  0
    2.2615    0.3163    7.5727 O   0  0  0  0  0  0  0  0  0  0  0  0
    1.3471   -0.7702    5.3338 O   0  0  0  0  0  0  0  0  0  0  0  0
    5.4053    2.8038    2.6303 O   0  0  0  0  0  0  0  0  0  0  0  0
    2.2656   -0.9241   -1.5212 H   0  0  0  0  0  0  0  0  0  0  0  0
    1.8383   -1.1059    0.1949 H   0  0  0  0  0  0  0  0  0  0  0  0
    3.5391   -0.9879   -0.3007 H   0  0  0  0  0  0  0  0  0  0  0  0
    0.7360    1.1055   -1.7095 H   0  0  0  0  0  0  0  0  0  0  0  0
    0.9619    2.4948   -0.6366 H   0  0  0  0  0  0  0  0  0  0  0  0
    0.2961    0.9810    0.0085 H   0  0  0  0  0  0  0  0  0  0  0  0
    5.1726    2.8189    5.0705 H   0  0  0  0  0  0  0  0  0  0  0  0
    4.2076    2.1345    7.2709 H   0  0  0  0  0  0  0  0  0  0  0  0
    2.4926    0.1284    3.0743 H   0  0  0  0  0  0  0  0  0  0  0  0
    4.4507    0.1499    1.4403 H   0  0  0  0  0  0  0  0  0  0  0  0
    4.8575    1.6443    0.5735 H   0  0  0  0  0  0  0  0  0  0  0  0
    3.1387    1.3568   -1.0913 H   0  0  0  0  0  0  0  0  0  0  0  0
    2.5021    2.3070    1.1069 H   0  0  0  0  0  0  0  0  0  0  0  0
    2.6747    0.7969    8.3074 H   0  0  0  0  0  0  0  0  0  0  0  0
    1.1122   -1.0790    4.4450 H   0  0  0  0  0  0  0  0  0  0  0  0
  1  7  1  0  0  0  0
  1 18  1  0  0  0  0
  1 17  1  0  0  0  0
  2 20  1  0  0  0  0
  2  7  1  0  0  0  0
  2 21  1  0  0  0  0
  3  4  2  0  0  0  0
  4  9  1  0  0  0  0
  4 23  1  0  0  0  0
  5 10  1  0  0  0  0
  6 25  1  0  0  0  0
  6 11  1  0  0  0  0
  7 12  1  0  0  0  0
  8  5  2  0  0  0  0
  8  3  1  0  0  0  0
  9 13  1  0  0  0  0
 10 14  1  0  0  0  0
 10  9  2  0  0  0  0
 11  8  1  0  0  0  0
 12 28  1  0  0  0  0
 12  6  1  0  0  0  0
 13 29  1  0  0  0  0
 15 11  2  0  0  0  0
 16  1  1  0  0  0  0
 19  2  1  0  0  0  0
 22  3  1  0  0  0  0
 24  5  1  0  0  0  0
 26  6  1  0  0  0  0
 27  7  1  0  0  0  0
 30 14  1  0  0  0  0
M  END
>  <HBA>
4

>  <HBD>
3

>  <TPSA>
69.56

>  <cid>
8465

>  <dipole>
1.62

>  <excitation_energy_1>
3.772

>  <excitation_energy_2>
4.06

>  <excitation_energy_3>
4.086

>  <excitation_energy_4>
4.697

>  <homo_energy>
-5.793

>  <homo_lumo_gap>
4.514

>  <logP>
1.669

>  <lumo_energy>
-1.279

>  <melting_point>
145.35

>  <molecular_refractivity>
57.91

>  <oscillator_strength_1>
0.0004

>  <oscillator_strength_2>
0.0353

>  <oscillator_strength_3>
0.1105

>  <oscillator_strength_4>
0.0996

>  <open_babel_can_smiles>
CC(NCC(=O)c1ccc(c(c1)O)O)C

>  <mulliken_charges>
30
1   -0.441647
2   -0.457222
3   -0.170091
4   -0.199182
5   -0.258757
6   -0.207352
7   0.06795
8   0.062686
9   0.329146
10   0.325936
11   0.369127
12   -0.568329
13   -0.621534
14   -0.635613
15   -0.466473
16   0.145407
17   0.144407
18   0.148862
19   0.149209
20   0.141865
21   0.153115
22   0.159992
23   0.12539
24   0.161026
25   0.157621
26   0.147234
27   0.111936
28   0.30382
29   0.411528
30   0.409945

>  <lowdin_charges>
30
1   -0.449965
2   -0.446281
3   -0.13671
4   -0.208237
5   -0.198617
6   -0.229279
7   -0.056086
8   -0.06187
9   0.091837
10   0.074944
11   0.14572
12   -0.361761
13   -0.356923
14   -0.369915
15   -0.249342
16   0.152767
17   0.150467
18   0.150456
19   0.154603
20   0.146365
21   0.154634
22   0.176786
23   0.157025
24   0.174711
25   0.153062
26   0.143819
27   0.120644
28   0.255472
29   0.362586
30   0.35909

$$$$

