PCCDB-ID:  56305
public computational chemistry database (PCCDB) project, http://pccdb.org

 27 27  0  0  0  0  0  0  0  0999 V2000
    0.5620   -1.0509   -0.4246 C   0  0  0  0  0  0  0  0  0  0  0  0
    3.5513    2.9875    1.7229 C   0  0  0  0  0  0  0  0  0  0  0  0
    2.5417    0.5302   -0.3903 C   0  0  0  0  0  0  0  0  0  0  0  0
    4.7796   -0.2689   -0.0125 C   0  0  0  0  0  0  0  0  0  0  0  0
    2.0384   -0.7661   -0.2659 C   0  0  0  0  0  0  0  0  0  0  0  0
    4.2525    3.0308    0.3824 C   0  0  0  0  0  0  0  0  0  0  0  0
    3.9115    0.8006   -0.2538 C   0  0  0  0  0  0  0  0  0  0  0  0
    4.3185   -1.5839    0.1246 C   0  0  0  0  0  0  0  0  0  0  0  0
    2.9349   -1.8097    0.0082 C   0  0  0  0  0  0  0  0  0  0  0  0
    5.3177   -2.6811    0.3946 C   0  0  0  0  0  0  0  0  0  0  0  0
    6.5455   -2.6724    0.0547 N   0  0  0  0  0  0  0  0  0  0  0  0
    4.4347    2.0895   -0.4481 N   0  0  0  0  0  0  0  0  0  0  0  0
    4.7708    4.2437    0.0417 O   0  0  0  0  0  0  0  0  0  0  0  0
    2.4821   -3.1114    0.1461 O   0  0  0  0  0  0  0  0  0  0  0  0
    4.8814   -3.7467    1.1115 O   0  0  0  0  0  0  0  0  0  0  0  0
    0.0154   -0.1374   -0.6732 H   0  0  0  0  0  0  0  0  0  0  0  0
    0.1105   -1.4491    0.4968 H   0  0  0  0  0  0  0  0  0  0  0  0
    0.3672   -1.7729   -1.2295 H   0  0  0  0  0  0  0  0  0  0  0  0
    3.1954    1.9825    1.9514 H   0  0  0  0  0  0  0  0  0  0  0  0
    2.6948    3.6730    1.7335 H   0  0  0  0  0  0  0  0  0  0  0  0
    4.2407    3.3029    2.5165 H   0  0  0  0  0  0  0  0  0  0  0  0
    1.8616    1.3474   -0.6157 H   0  0  0  0  0  0  0  0  0  0  0  0
    5.8388   -0.0590    0.0936 H   0  0  0  0  0  0  0  0  0  0  0  0
    6.7626   -1.8304   -0.4782 H   0  0  0  0  0  0  0  0  0  0  0  0
    4.6126    4.8747    0.7607 H   0  0  0  0  0  0  0  0  0  0  0  0
    1.5145   -3.1182    0.1941 H   0  0  0  0  0  0  0  0  0  0  0  0
    3.9079   -3.7551    1.1124 H   0  0  0  0  0  0  0  0  0  0  0  0
  1  5  1  0  0  0  0
  1 17  1  0  0  0  0
  2 20  1  0  0  0  0
  2 19  1  0  0  0  0
  2 21  1  0  0  0  0
  3  5  2  0  0  0  0
  3  7  1  0  0  0  0
  4 23  1  0  0  0  0
  4  8  1  0  0  0  0
  5  9  1  0  0  0  0
  6  2  1  0  0  0  0
  7  4  2  0  0  0  0
  8 10  1  0  0  0  0
  9  8  2  0  0  0  0
  9 14  1  0  0  0  0
 10 15  1  0  0  0  0
 11 10  2  0  0  0  0
 12  7  1  0  0  0  0
 12  6  2  0  0  0  0
 13  6  1  0  0  0  0
 13 25  1  0  0  0  0
 14 26  1  0  0  0  0
 15 27  1  0  0  0  0
 16  1  1  0  0  0  0
 18  1  1  0  0  0  0
 22  3  1  0  0  0  0
 24 11  1  0  0  0  0
M  END
>  <HBA>
5

>  <HBD>
3

>  <TPSA>
92.42

>  <cid>
56305

>  <dipole>
8.93

>  <excitation_energy_1>
4.219

>  <excitation_energy_2>
4.731

>  <excitation_energy_3>
4.823

>  <excitation_energy_4>
4.894

>  <homo_energy>
-5.831

>  <homo_lumo_gap>
4.982

>  <logP>
1.531

>  <lumo_energy>
-0.849

>  <melting_point>
195.22

>  <molecular_refractivity>
55.84

>  <oscillator_strength_1>
0.0561

>  <oscillator_strength_2>
0.0479

>  <oscillator_strength_3>
0.0357

>  <oscillator_strength_4>
0.0221

>  <open_babel_can_smiles>
C/C(=N\c1cc(C)c(c(c1)C(=N)O)O)/O

>  <mulliken_charges>
27
1   -0.583926
2   -0.554892
3   -0.233578
4   -0.240995
5   0.17845
6   0.484609
7   0.25159
8   0.079933
9   0.200175
10   0.437524
11   -0.592034
12   -0.464133
13   -0.566546
14   -0.682538
15   -0.605609
16   0.177995
17   0.160043
18   0.174768
19   0.195459
20   0.176468
21   0.17784
22   0.12714
23   0.145846
24   0.286967
25   0.410442
26   0.426113
27   0.432888

>  <lowdin_charges>
27
1   -0.454374
2   -0.484409
3   -0.182252
4   -0.163087
5   -0.038623
6   0.150224
7   0.038711
8   -0.062263
9   0.076961
10   0.129092
11   -0.396614
12   -0.172501
13   -0.357693
14   -0.391356
15   -0.370124
16   0.171881
17   0.155612
18   0.163553
19   0.182278
20   0.171054
21   0.172589
22   0.160825
23   0.168275
24   0.255807
25   0.358981
26   0.363544
27   0.353908

$$$$

