PCCDB-ID:  61334
public computational chemistry database (PCCDB) project, http://pccdb.org

 22 22  0  0  1  0  0  0  0  0999 V2000
    0.7879   -0.1054    0.3789 C   0  0  0  0  0  0  0  0  0  0  0  0
    3.2217   -1.9526   -3.1062 C   0  0  0  0  0  0  0  0  0  0  0  0
    4.7796    2.8368   -3.9664 C   0  0  0  0  0  0  0  0  0  0  0  0
    2.2397   -0.4585    0.0996 C   0  0  2  0  0  0  0  0  0  0  0  0
    3.0438   -1.0309   -1.9543 C   0  0  0  0  0  0  0  0  0  0  0  0
    3.7243    2.0307   -3.2559 C   0  0  0  0  0  0  0  0  0  0  0  0
    3.0503    0.7150   -0.4726 C   0  0  0  0  0  0  0  0  0  0  0  0
    3.4985    0.2331   -1.7672 C   0  0  0  0  0  0  0  0  0  0  0  0
    2.5452    2.2649   -3.2102 O   0  0  0  0  0  0  0  0  0  0  0  0
    3.2383    1.7880    0.0753 O   0  0  0  0  0  0  0  0  0  0  0  0
    2.3199   -1.5064   -0.9117 O   0  0  0  0  0  0  0  0  0  0  0  0
    4.3053    0.9395   -2.6358 O   0  0  0  0  0  0  0  0  0  0  0  0
    0.7590    0.7029    1.1163 H   0  0  0  0  0  0  0  0  0  0  0  0
    0.2430   -0.9696    0.7702 H   0  0  0  0  0  0  0  0  0  0  0  0
    0.2964    0.2424   -0.5350 H   0  0  0  0  0  0  0  0  0  0  0  0
    3.8530   -1.4927   -3.8692 H   0  0  0  0  0  0  0  0  0  0  0  0
    2.2483   -2.2006   -3.5453 H   0  0  0  0  0  0  0  0  0  0  0  0
    3.6807   -2.8909   -2.7743 H   0  0  0  0  0  0  0  0  0  0  0  0
    4.3005    3.5770   -4.6077 H   0  0  0  0  0  0  0  0  0  0  0  0
    5.4338    2.1867   -4.5548 H   0  0  0  0  0  0  0  0  0  0  0  0
    5.4033    3.3466   -3.2238 H   0  0  0  0  0  0  0  0  0  0  0  0
    2.7329   -0.8518    0.9953 H   0  0  0  0  0  0  0  0  0  0  0  0
  1 14  1  0  0  0  0
  1 13  1  0  0  0  0
  2 18  1  0  0  0  0
  2  5  1  0  0  0  0
  3  6  1  0  0  0  0
  3 21  1  0  0  0  0
  4  1  1  0  0  0  0
  4 22  1  1  0  0  0
  5  8  2  0  0  0  0
  5 11  1  0  0  0  0
  6  9  2  0  0  0  0
  6 12  1  0  0  0  0
  7 10  2  0  0  0  0
  7  4  1  0  0  0  0
  8  7  1  0  0  0  0
 11  4  1  0  0  0  0
 12  8  1  0  0  0  0
 15  1  1  0  0  0  0
 16  2  1  0  0  0  0
 17  2  1  0  0  0  0
 19  3  1  0  0  0  0
 20  3  1  0  0  0  0
M  END
>  <HBA>
4

>  <HBD>
0

>  <TPSA>
52.6

>  <cid>
61334

>  <dipole>
3.41

>  <excitation_energy_1>
3.991

>  <excitation_energy_2>
4.972

>  <excitation_energy_3>
5.484

>  <excitation_energy_4>
5.687

>  <homo_energy>
-6.411

>  <homo_lumo_gap>
5.295

>  <logP>
0.769

>  <lumo_energy>
-1.116

>  <melting_point>
36.2

>  <molecular_refractivity>
40.55

>  <oscillator_strength_1>
0.0008

>  <oscillator_strength_2>
0.2023

>  <oscillator_strength_3>
0.0074

>  <oscillator_strength_4>
0.0075

>  <open_babel_can_smiles>
CC(=O)OC1=C(C)O[C@@H](C1=O)C

>  <mulliken_charges>
22
1   -0.44855
2   -0.528061
3   -0.530014
4   0.037743
5   0.384793
6   0.601125
7   0.410107
8   0.216017
9   -0.436999
10   -0.495596
11   -0.499029
12   -0.531319
13   0.179447
14   0.162755
15   0.17248
16   0.182506
17   0.190336
18   0.1867
19   0.186252
20   0.179903
21   0.198227
22   0.181178

>  <lowdin_charges>
22
1   -0.439866
2   -0.444383
3   -0.466006
4   -0.013921
5   0.129244
6   0.213965
7   0.119844
8   -0.022488
9   -0.230919
10   -0.255861
11   -0.186954
12   -0.162949
13   0.174726
14   0.1627
15   0.167171
16   0.178275
17   0.181107
18   0.179402
19   0.179511
20   0.178045
21   0.188559
22   0.1708

$$$$

