PCCDB-ID:  10352
public computational chemistry database (PCCDB) project, http://pccdb.org

 17 18  0  0  1  0  0  0  0  0999 V2000
   -1.1465   -0.6078   -0.0823 C   0  0  0  0  0  0  0  0  0  0  0  0
   -0.2530   -1.4234   -0.6594 C   0  0  0  0  0  0  0  0  0  0  0  0
    0.5061    1.2173    0.1532 C   0  0  0  0  0  0  0  0  0  0  0  0
    1.5475    0.2673   -0.5176 C   0  0  0  0  0  0  0  0  0  0  0  0
    0.6524   -0.8050    1.4251 C   0  0  0  0  0  0  0  0  0  0  0  0
   -0.4048    0.2233    0.9559 C   0  0  2  0  0  0  0  0  0  0  0  0
    1.0998   -1.1499   -0.0160 C   0  0  1  0  0  0  0  0  0  0  0  0
   -2.1833   -0.4587   -0.3687 H   0  0  0  0  0  0  0  0  0  0  0  0
   -0.4119   -2.0757   -1.5129 H   0  0  0  0  0  0  0  0  0  0  0  0
   -0.0679    1.8009   -0.5726 H   0  0  0  0  0  0  0  0  0  0  0  0
    0.9944    1.9237    0.8345 H   0  0  0  0  0  0  0  0  0  0  0  0
    2.5648    0.4889   -0.1749 H   0  0  0  0  0  0  0  0  0  0  0  0
    1.5445    0.3336   -1.6097 H   0  0  0  0  0  0  0  0  0  0  0  0
    0.2129   -1.6585    1.9508 H   0  0  0  0  0  0  0  0  0  0  0  0
    1.4498   -0.3645    2.0369 H   0  0  0  0  0  0  0  0  0  0  0  0
   -1.0192    0.6971    1.7257 H   0  0  0  0  0  0  0  0  0  0  0  0
    1.8574   -1.9290   -0.1325 H   0  0  0  0  0  0  0  0  0  0  0  0
  1  6  1  0  0  0  0
  2  1  2  0  0  0  0
  2  7  1  0  0  0  0
  3 11  1  0  0  0  0
  3  6  1  0  0  0  0
  4 12  1  0  0  0  0
  4  7  1  0  0  0  0
  4  3  1  0  0  0  0
  5 14  1  0  0  0  0
  5 15  1  0  0  0  0
  6  5  1  0  0  0  0
  6 16  1  1  0  0  0
  7 17  1  6  0  0  0
  7  5  1  0  0  0  0
  8  1  1  0  0  0  0
  9  2  1  0  0  0  0
 10  3  1  0  0  0  0
 13  4  1  0  0  0  0
M  END
>  <HBA>
0

>  <HBD>
0

>  <TPSA>
0.0

>  <cid>
10352

>  <dipole>
0.23

>  <excitation_energy_1>
5.846

>  <excitation_energy_2>
6.17

>  <excitation_energy_3>
6.391

>  <excitation_energy_4>
6.511

>  <homo_energy>
-6.283

>  <homo_lumo_gap>
6.98

>  <logP>
1.972

>  <lumo_energy>
0.697

>  <melting_point>
27.72

>  <molecular_refractivity>
31.06

>  <oscillator_strength_1>
0.0324

>  <oscillator_strength_2>
0.0748

>  <oscillator_strength_3>
0.0037

>  <oscillator_strength_4>
0.0252

>  <open_babel_can_smiles>
C1C[C@@H]2C[C@H]1C=C2

>  <mulliken_charges>
17
1   -0.104208
2   -0.104672
3   -0.26314
4   -0.263289
5   -0.257227
6   -0.146285
7   -0.146025
8   0.123159
9   0.123106
10   0.13669
11   0.134291
12   0.134311
13   0.136685
14   0.139007
15   0.125025
16   0.116272
17   0.116298

>  <lowdin_charges>
17
1   -0.173707
2   -0.175238
3   -0.285694
4   -0.280408
5   -0.273768
6   -0.135121
7   -0.134685
8   0.153205
9   0.154479
10   0.146684
11   0.144872
12   0.142627
13   0.1431
14   0.148438
15   0.138818
16   0.143479
17   0.14292

$$$$

