PCCDB-ID:  34377
public computational chemistry database (PCCDB) project, http://pccdb.org

 44 45  0  0  1  0  0  0  0  0999 V2000
    3.9395   -3.8681    0.2455 C   0  0  0  0  0  0  0  0  0  0  0  0
    5.5627    0.0326    0.2846 C   0  0  0  0  0  0  0  0  0  0  0  0
    1.5585   -1.3573    5.3785 C   0  0  0  0  0  0  0  0  0  0  0  0
    2.6745    0.1115    7.0327 C   0  0  0  0  0  0  0  0  0  0  0  0
    3.3183   -3.0753    7.4772 C   0  0  0  0  0  0  0  0  0  0  0  0
    3.5836   -2.3807    0.2978 C   0  0  0  0  0  0  0  0  0  0  0  0
    4.3865   -0.2622    1.2183 C   0  0  0  0  0  0  0  0  0  0  0  0
    5.2501   -0.2628    5.6728 C   0  0  0  0  0  0  0  0  0  0  0  0
    5.1957   -1.4622    6.6696 C   0  0  0  0  0  0  0  0  0  0  0  0
    3.3868   -1.9361    2.6716 C   0  0  0  0  0  0  0  0  0  0  0  0
    4.1992   -1.7227    3.9694 C   0  0  1  0  0  0  0  0  0  0  0  0
    3.9588   -0.4588    4.8430 C   0  0  1  0  0  0  0  0  0  0  0  0
    3.9948   -2.8365    5.0215 C   0  0  0  0  0  0  0  0  0  0  0  0
    2.9316   -0.9312    5.9316 C   0  0  0  0  0  0  0  0  0  0  0  0
    3.8183   -2.1488    6.3824 C   0  0  1  0  0  0  0  0  0  0  0  0
    4.1738   -1.6942    1.4562 N   0  0  0  0  0  0  0  0  0  0  0  0
    3.9549   -4.0279    4.7999 O   0  0  0  0  0  0  0  0  0  0  0  0
    3.4854   -4.3370   -0.6355 H   0  0  0  0  0  0  0  0  0  0  0  0
    3.5867   -4.4108    1.1289 H   0  0  0  0  0  0  0  0  0  0  0  0
    5.0254   -3.9956    0.1891 H   0  0  0  0  0  0  0  0  0  0  0  0
    5.7186    1.1149    0.2059 H   0  0  0  0  0  0  0  0  0  0  0  0
    5.4010   -0.3476   -0.7296 H   0  0  0  0  0  0  0  0  0  0  0  0
    6.4787   -0.4247    0.6728 H   0  0  0  0  0  0  0  0  0  0  0  0
    1.0576   -0.5116    4.8918 H   0  0  0  0  0  0  0  0  0  0  0  0
    0.9092   -1.6949    6.1947 H   0  0  0  0  0  0  0  0  0  0  0  0
    1.6106   -2.1750    4.6541 H   0  0  0  0  0  0  0  0  0  0  0  0
    2.2011    1.0037    6.6036 H   0  0  0  0  0  0  0  0  0  0  0  0
    3.5780    0.4370    7.5532 H   0  0  0  0  0  0  0  0  0  0  0  0
    1.9875   -0.2893    7.7872 H   0  0  0  0  0  0  0  0  0  0  0  0
    4.0181   -3.9048    7.6257 H   0  0  0  0  0  0  0  0  0  0  0  0
    2.3504   -3.5170    7.2174 H   0  0  0  0  0  0  0  0  0  0  0  0
    3.2119   -2.5436    8.4296 H   0  0  0  0  0  0  0  0  0  0  0  0
    2.4839   -2.2495    0.2738 H   0  0  0  0  0  0  0  0  0  0  0  0
    3.9639   -1.9031   -0.6102 H   0  0  0  0  0  0  0  0  0  0  0  0
    3.4672    0.2286    0.8384 H   0  0  0  0  0  0  0  0  0  0  0  0
    4.6012    0.2027    2.1862 H   0  0  0  0  0  0  0  0  0  0  0  0
    6.1438   -0.2834    5.0409 H   0  0  0  0  0  0  0  0  0  0  0  0
    5.2544    0.6967    6.1986 H   0  0  0  0  0  0  0  0  0  0  0  0
    5.2300   -1.1291    7.7123 H   0  0  0  0  0  0  0  0  0  0  0  0
    6.0268   -2.1634    6.5366 H   0  0  0  0  0  0  0  0  0  0  0  0
    2.4707   -1.3168    2.6828 H   0  0  0  0  0  0  0  0  0  0  0  0
    3.0664   -2.9817    2.6525 H   0  0  0  0  0  0  0  0  0  0  0  0
    5.2514   -1.7838    3.6613 H   0  0  0  0  0  0  0  0  0  0  0  0
    3.6462    0.4257    4.2786 H   0  0  0  0  0  0  0  0  0  0  0  0
  1  6  1  0  0  0  0
  1 19  1  0  0  0  0
  2 23  1  0  0  0  0
  2  7  1  0  0  0  0
  3 14  1  0  0  0  0
  3 25  1  0  0  0  0
  4 28  1  0  0  0  0
  4 29  1  0  0  0  0
  5 30  1  0  0  0  0
  5 32  1  0  0  0  0
  6 16  1  0  0  0  0
  7 16  1  0  0  0  0
  7 36  1  0  0  0  0
  8 38  1  0  0  0  0
  8  9  1  0  0  0  0
  9 39  1  0  0  0  0
 10 41  1  0  0  0  0
 10 11  1  0  0  0  0
 11 43  1  6  0  0  0
 11 12  1  0  0  0  0
 11 13  1  0  0  0  0
 12 44  1  6  0  0  0
 12  8  1  0  0  0  0
 12 14  1  0  0  0  0
 13 15  1  0  0  0  0
 14 15  1  0  0  0  0
 14  4  1  0  0  0  0
 15  9  1  0  0  0  0
 15  5  1  1  0  0  0
 16 10  1  0  0  0  0
 17 13  2  0  0  0  0
 18  1  1  0  0  0  0
 20  1  1  0  0  0  0
 21  2  1  0  0  0  0
 22  2  1  0  0  0  0
 24  3  1  0  0  0  0
 26  3  1  0  0  0  0
 27  4  1  0  0  0  0
 31  5  1  0  0  0  0
 33  6  1  0  0  0  0
 34  6  1  0  0  0  0
 35  7  1  0  0  0  0
 37  8  1  0  0  0  0
 40  9  1  0  0  0  0
 42 10  1  0  0  0  0
M  END
>  <HBA>
2

>  <HBD>
0

>  <TPSA>
20.31

>  <cid>
34377

>  <dipole>
2.95

>  <excitation_energy_1>
4.21

>  <excitation_energy_2>
4.594

>  <excitation_energy_3>
5.29

>  <excitation_energy_4>
5.46

>  <homo_energy>
-5.644

>  <homo_lumo_gap>
5.412

>  <logP>
2.97

>  <lumo_energy>
-0.231

>  <melting_point>
74.02

>  <molecular_refractivity>
72.57

>  <oscillator_strength_1>
0.0008

>  <oscillator_strength_2>
0.0008

>  <oscillator_strength_3>
0.0219

>  <oscillator_strength_4>
0.0546

>  <open_babel_can_smiles>
CCN(C[C@@H]1C(=O)[C@@]2(C([C@H]1CC2)(C)C)C)CC

>  <mulliken_charges>
44
1   -0.442106
2   -0.445258
3   -0.474156
4   -0.466788
5   -0.475358
6   -0.122365
7   -0.123748
8   -0.286925
9   -0.301371
10   -0.149919
11   -0.15929
12   -0.127234
13   0.41906
14   0.084792
15   0.028323
16   -0.385886
17   -0.469876
18   0.135753
19   0.160778
20   0.153378
21   0.139629
22   0.148361
23   0.154101
24   0.144512
25   0.148423
26   0.161584
27   0.144419
28   0.147424
29   0.146914
30   0.160485
31   0.153438
32   0.138634
33   0.112133
34   0.136422
35   0.10911
36   0.143945
37   0.140233
38   0.14163
39   0.148628
40   0.150956
41   0.119709
42   0.165181
43   0.173071
44   0.119253

>  <lowdin_charges>
44
1   -0.449109
2   -0.447638
3   -0.451762
4   -0.447558
5   -0.440692
6   -0.197052
7   -0.201005
8   -0.286286
9   -0.281325
10   -0.20065
11   -0.169935
12   -0.141101
13   0.150729
14   0.005326
15   -0.028656
16   -0.19146
17   -0.233334
18   0.149018
19   0.155041
20   0.15218
21   0.148913
22   0.147304
23   0.154234
24   0.152404
25   0.153845
26   0.158189
27   0.152322
28   0.152813
29   0.153012
30   0.162707
31   0.156737
32   0.148955
33   0.116552
34   0.145527
35   0.117054
36   0.145873
37   0.146495
38   0.146123
39   0.150064
40   0.152405
41   0.123913
42   0.157252
43   0.171574
44   0.141004

$$$$

