PCCDB-ID:  11976
public computational chemistry database (PCCDB) project, http://pccdb.org

 20 20  0  0  0  0  0  0  0  0999 V2000
    2.2948    0.0012   -1.2326 C   0  0  0  0  0  0  0  0  0  0  0  0
    4.6168    1.5536    1.9707 C   0  0  0  0  0  0  0  0  0  0  0  0
    3.8682    1.0060    0.9219 C   0  0  0  0  0  0  0  0  0  0  0  0
    3.2991    3.5706    1.8312 C   0  0  0  0  0  0  0  0  0  0  0  0
    4.3375    2.8425    2.4347 C   0  0  0  0  0  0  0  0  0  0  0  0
    2.5440    3.0341    0.7870 C   0  0  0  0  0  0  0  0  0  0  0  0
    2.8414    1.7298    0.3279 C   0  0  0  0  0  0  0  0  0  0  0  0
    5.0355    3.3853    3.5304 N   0  0  0  0  0  0  0  0  0  0  0  0
    1.4737    3.7263    0.2164 N   0  0  0  0  0  0  0  0  0  0  0  0
    2.0539    1.2970   -0.7213 O   0  0  0  0  0  0  0  0  0  0  0  0
    2.1409   -0.7703   -0.4654 H   0  0  0  0  0  0  0  0  0  0  0  0
    3.3139   -0.0946   -1.6336 H   0  0  0  0  0  0  0  0  0  0  0  0
    1.5749   -0.1472   -2.0404 H   0  0  0  0  0  0  0  0  0  0  0  0
    5.4120    0.9696    2.4270 H   0  0  0  0  0  0  0  0  0  0  0  0
    4.1057    0.0065    0.5741 H   0  0  0  0  0  0  0  0  0  0  0  0
    3.0599    4.5688    2.1943 H   0  0  0  0  0  0  0  0  0  0  0  0
    5.9630    2.9949    3.6515 H   0  0  0  0  0  0  0  0  0  0  0  0
    5.0824    4.3979    3.5230 H   0  0  0  0  0  0  0  0  0  0  0  0
    1.5618    4.7344    0.2388 H   0  0  0  0  0  0  0  0  0  0  0  0
    1.2156    3.3815   -0.6998 H   0  0  0  0  0  0  0  0  0  0  0  0
  1 10  1  0  0  0  0
  1 11  1  0  0  0  0
  2 14  1  0  0  0  0
  2  5  1  0  0  0  0
  3  2  2  0  0  0  0
  4 16  1  0  0  0  0
  4  5  2  0  0  0  0
  5  8  1  0  0  0  0
  6  4  1  0  0  0  0
  7  6  2  0  0  0  0
  7  3  1  0  0  0  0
  8 17  1  0  0  0  0
  9 19  1  0  0  0  0
  9  6  1  0  0  0  0
 10  7  1  0  0  0  0
 12  1  1  0  0  0  0
 13  1  1  0  0  0  0
 15  3  1  0  0  0  0
 18  8  1  0  0  0  0
 20  9  1  0  0  0  0
M  END
>  <HBA>
3

>  <HBD>
2

>  <TPSA>
61.27

>  <cid>
11976

>  <dipole>
2.36

>  <excitation_energy_1>
4.186

>  <excitation_energy_2>
4.359

>  <excitation_energy_3>
4.487

>  <excitation_energy_4>
4.585

>  <homo_energy>
-4.596

>  <homo_lumo_gap>
5.216

>  <logP>
2.022

>  <lumo_energy>
0.62

>  <melting_point>
108.74

>  <molecular_refractivity>
41.74

>  <oscillator_strength_1>
0.0119

>  <oscillator_strength_2>
0.0452

>  <oscillator_strength_3>
0.0153

>  <oscillator_strength_4>
0.0045

>  <open_babel_can_smiles>
COc1ccc(cc1N)N

>  <mulliken_charges>
20
1   -0.207091
2   -0.195772
3   -0.206206
4   -0.236246
5   0.303454
6   0.262088
7   0.339781
8   -0.788884
9   -0.792737
10   -0.540865
11   0.150018
12   0.145639
13   0.161754
14   0.106691
15   0.124207
16   0.103087
17   0.312453
18   0.311172
19   0.313217
20   0.33424

>  <lowdin_charges>
20
1   -0.275928
2   -0.226537
3   -0.194102
4   -0.238683
5   0.055195
6   0.048315
7   0.046048
8   -0.494372
9   -0.485641
10   -0.221742
11   0.144385
12   0.139978
13   0.158956
14   0.150596
15   0.158617
16   0.147558
17   0.269215
18   0.267293
19   0.270249
20   0.2806

$$$$

