PCCDB-ID:  11798
public computational chemistry database (PCCDB) project, http://pccdb.org

 28 30  0  0  0  0  0  0  0  0999 V2000
    3.6919    0.7204   -0.0666 C   0  0  0  0  0  0  0  0  0  0  0  0
   -3.6910    0.7184    0.0687 C   0  0  0  0  0  0  0  0  0  0  0  0
    2.4919    1.4133   -0.0457 C   0  0  0  0  0  0  0  0  0  0  0  0
   -2.4913    1.4120    0.0458 C   0  0  0  0  0  0  0  0  0  0  0  0
    2.4800   -1.3749   -0.0491 C   0  0  0  0  0  0  0  0  0  0  0  0
   -2.4778   -1.3763    0.0502 C   0  0  0  0  0  0  0  0  0  0  0  0
    3.7063   -0.6909   -0.0691 C   0  0  0  0  0  0  0  0  0  0  0  0
   -3.7045   -0.6930    0.0718 C   0  0  0  0  0  0  0  0  0  0  0  0
    1.2658    0.7348   -0.0253 C   0  0  0  0  0  0  0  0  0  0  0  0
   -1.2649    0.7341    0.0242 C   0  0  0  0  0  0  0  0  0  0  0  0
    1.2759   -0.6752   -0.0269 C   0  0  0  0  0  0  0  0  0  0  0  0
   -1.2742   -0.6759    0.0262 C   0  0  0  0  0  0  0  0  0  0  0  0
    0.0002    1.5078   -0.0014 C   0  0  0  0  0  0  0  0  0  0  0  0
    0.0011   -1.4527   -0.0012 C   0  0  0  0  0  0  0  0  0  0  0  0
    4.9032   -1.3858   -0.1421 N   0  0  0  0  0  0  0  0  0  0  0  0
   -4.9010   -1.3885    0.1467 N   0  0  0  0  0  0  0  0  0  0  0  0
   -0.0001    2.7392   -0.0026 O   0  0  0  0  0  0  0  0  0  0  0  0
    0.0014   -2.6798   -0.0026 O   0  0  0  0  0  0  0  0  0  0  0  0
    4.6343    1.2635   -0.0846 H   0  0  0  0  0  0  0  0  0  0  0  0
   -4.6336    1.2609    0.0877 H   0  0  0  0  0  0  0  0  0  0  0  0
    2.4753    2.4985   -0.0425 H   0  0  0  0  0  0  0  0  0  0  0  0
   -2.4753    2.4971    0.0420 H   0  0  0  0  0  0  0  0  0  0  0  0
    2.4458   -2.4606   -0.0519 H   0  0  0  0  0  0  0  0  0  0  0  0
   -2.4431   -2.4620    0.0530 H   0  0  0  0  0  0  0  0  0  0  0  0
    5.7311   -0.8928    0.1652 H   0  0  0  0  0  0  0  0  0  0  0  0
    4.8817   -2.3501    0.1619 H   0  0  0  0  0  0  0  0  0  0  0  0
   -5.7294   -0.8963   -0.1601 H   0  0  0  0  0  0  0  0  0  0  0  0
   -4.8792   -2.3531   -0.1566 H   0  0  0  0  0  0  0  0  0  0  0  0
  1  3  1  0  0  0  0
  2  8  1  0  0  0  0
  2 20  1  0  0  0  0
  3 21  1  0  0  0  0
  3  9  2  0  0  0  0
  4  2  2  0  0  0  0
  5 11  2  0  0  0  0
  6 24  1  0  0  0  0
  6  8  2  0  0  0  0
  7  1  2  0  0  0  0
  7  5  1  0  0  0  0
  8 16  1  0  0  0  0
  9 13  1  0  0  0  0
 10 12  2  0  0  0  0
 10  4  1  0  0  0  0
 11  9  1  0  0  0  0
 11 14  1  0  0  0  0
 12  6  1  0  0  0  0
 13 10  1  0  0  0  0
 14 12  1  0  0  0  0
 15  7  1  0  0  0  0
 15 26  1  0  0  0  0
 15 25  1  0  0  0  0
 17 13  2  0  0  0  0
 18 14  2  0  0  0  0
 19  1  1  0  0  0  0
 22  4  1  0  0  0  0
 23  5  1  0  0  0  0
 27 16  1  0  0  0  0
 28 16  1  0  0  0  0
M  END
>  <HBA>
4

>  <HBD>
2

>  <TPSA>
86.18

>  <cid>
11798

>  <dipole>
2.03

>  <excitation_energy_1>
2.736

>  <excitation_energy_2>
3.011

>  <excitation_energy_3>
3.234

>  <excitation_energy_4>
3.292

>  <homo_energy>
-5.728

>  <homo_lumo_gap>
3.415

>  <logP>
2.789

>  <lumo_energy>
-2.313

>  <melting_point>
223.2

>  <molecular_refractivity>
68.56

>  <oscillator_strength_1>
0.0375

>  <oscillator_strength_2>
0.0001

>  <oscillator_strength_3>
0.0603

>  <oscillator_strength_4>
0.0016

>  <open_babel_can_smiles>
O=C1c2cc(N)ccc2C(=O)c2c1cc(N)cc2

>  <mulliken_charges>
28
1   -0.168085
2   -0.168063
3   -0.183493
4   -0.18352
5   -0.236046
6   -0.236071
7   0.341939
8   0.341938
9   0.043229
10   0.043215
11   0.046792
12   0.046809
13   0.338505
14   0.341102
15   -0.794277
16   -0.794276
17   -0.504977
18   -0.486449
19   0.128165
20   0.128167
21   0.163931
22   0.16393
23   0.152485
24   0.152475
25   0.328805
26   0.332484
27   0.328806
28   0.332482

>  <lowdin_charges>
28
1   -0.185337
2   -0.185326
3   -0.115947
4   -0.11595
5   -0.173076
6   -0.17308
7   0.07322
8   0.073215
9   -0.061974
10   -0.061973
11   -0.027402
12   -0.027402
13   0.143434
14   0.154847
15   -0.470949
16   -0.470942
17   -0.268108
18   -0.247306
19   0.158146
20   0.158145
21   0.176236
22   0.176236
23   0.170867
24   0.170863
25   0.282262
26   0.282527
27   0.282258
28   0.282518

$$$$

