PCCDB-ID:  24981
public computational chemistry database (PCCDB) project, http://pccdb.org

 28 27  0  0  1  0  0  0  0  0999 V2000
    0.8594    2.1154   -0.7693 C   0  0  0  0  0  0  0  0  0  0  0  0
    5.2982   -0.3103   -1.2579 C   0  0  0  0  0  0  0  0  0  0  0  0
    2.3815    2.2951   -0.7764 C   0  0  0  0  0  0  0  0  0  0  0  0
    3.1291    0.9954   -1.1042 C   0  0  0  0  0  0  0  0  0  0  0  0
    4.9153    2.4452   -5.5484 C   0  0  0  0  0  0  0  0  0  0  0  0
    5.5184    2.7669   -4.1897 C   0  0  0  0  0  0  0  0  0  0  0  0
    5.2828    2.1322   -1.9084 C   0  0  0  0  0  0  0  0  0  0  0  0
    4.6662    1.0659   -0.9974 C   0  0  2  0  0  0  0  0  0  0  0  0
    3.5058    2.5919   -5.5323 O   0  0  0  0  0  0  0  0  0  0  0  0
    4.9477    1.8569   -3.2615 O   0  0  0  0  0  0  0  0  0  0  0  0
    0.3466    3.0548   -0.5336 H   0  0  0  0  0  0  0  0  0  0  0  0
    0.5517    1.3708   -0.0248 H   0  0  0  0  0  0  0  0  0  0  0  0
    0.4963    1.7744   -1.7466 H   0  0  0  0  0  0  0  0  0  0  0  0
    4.8890   -1.0655   -0.5772 H   0  0  0  0  0  0  0  0  0  0  0  0
    6.3851   -0.2820   -1.1139 H   0  0  0  0  0  0  0  0  0  0  0  0
    5.1045   -0.6371   -2.2849 H   0  0  0  0  0  0  0  0  0  0  0  0
    2.7094    2.6696    0.2044 H   0  0  0  0  0  0  0  0  0  0  0  0
    2.6467    3.0718   -1.5057 H   0  0  0  0  0  0  0  0  0  0  0  0
    2.8572    0.6659   -2.1161 H   0  0  0  0  0  0  0  0  0  0  0  0
    2.7784    0.2053   -0.4246 H   0  0  0  0  0  0  0  0  0  0  0  0
    5.2107    1.4244   -5.8417 H   0  0  0  0  0  0  0  0  0  0  0  0
    5.3025    3.1390   -6.3019 H   0  0  0  0  0  0  0  0  0  0  0  0
    5.2717    3.8033   -3.9076 H   0  0  0  0  0  0  0  0  0  0  0  0
    6.6167    2.6676   -4.2109 H   0  0  0  0  0  0  0  0  0  0  0  0
    6.3796    2.1323   -1.7899 H   0  0  0  0  0  0  0  0  0  0  0  0
    4.9268    3.1381   -1.6345 H   0  0  0  0  0  0  0  0  0  0  0  0
    4.9202    1.3731    0.0293 H   0  0  0  0  0  0  0  0  0  0  0  0
    3.2054    2.0899   -4.7566 H   0  0  0  0  0  0  0  0  0  0  0  0
  1 11  1  0  0  0  0
  1 12  1  0  0  0  0
  2 15  1  0  0  0  0
  2  8  1  0  0  0  0
  2 14  1  0  0  0  0
  3  1  1  0  0  0  0
  3 17  1  0  0  0  0
  4  8  1  0  0  0  0
  4  3  1  0  0  0  0
  4 20  1  0  0  0  0
  5  9  1  0  0  0  0
  5  6  1  0  0  0  0
  6 23  1  0  0  0  0
  6 10  1  0  0  0  0
  7 25  1  0  0  0  0
  7 26  1  0  0  0  0
  7  8  1  0  0  0  0
  8 27  1  1  0  0  0
  9 28  1  0  0  0  0
 10  7  1  0  0  0  0
 13  1  1  0  0  0  0
 16  2  1  0  0  0  0
 18  3  1  0  0  0  0
 19  4  1  0  0  0  0
 21  5  1  0  0  0  0
 22  5  1  0  0  0  0
 24  6  1  0  0  0  0
M  END
>  <HBA>
2

>  <HBD>
1

>  <TPSA>
29.46

>  <cid>
24981

>  <dipole>
2.25

>  <excitation_energy_1>
6.603

>  <excitation_energy_2>
6.716

>  <excitation_energy_3>
6.884

>  <excitation_energy_4>
7.038

>  <homo_energy>
-7.075

>  <homo_lumo_gap>
8.8

>  <logP>
1.431

>  <lumo_energy>
1.725

>  <melting_point>
-18.22

>  <molecular_refractivity>
42.82

>  <oscillator_strength_1>
0.0186

>  <oscillator_strength_2>
0.0082

>  <oscillator_strength_3>
0.0146

>  <oscillator_strength_4>
0.0054

>  <open_babel_can_smiles>
CCC[C@H](COCCO)C

>  <mulliken_charges>
28
1   -0.441995
2   -0.447789
3   -0.259887
4   -0.242713
5   -0.036066
6   -0.029917
7   -0.011469
8   -0.100314
9   -0.622561
10   -0.494125
11   0.142947
12   0.141478
13   0.14307
14   0.14076
15   0.136157
16   0.159098
17   0.127713
18   0.139639
19   0.136947
20   0.126647
21   0.129756
22   0.144189
23   0.130347
24   0.120508
25   0.118604
26   0.126285
27   0.122386
28   0.400303

>  <lowdin_charges>
28
1   -0.444304
2   -0.443829
3   -0.276456
4   -0.277384
5   -0.139353
6   -0.14436
7   -0.126446
8   -0.130308
9   -0.470198
10   -0.283946
11   0.150062
12   0.146996
13   0.147125
14   0.149583
15   0.144575
16   0.154525
17   0.137023
18   0.142805
19   0.141834
20   0.141272
21   0.131076
22   0.151161
23   0.131845
24   0.128788
25   0.125776
26   0.128953
27   0.13948
28   0.343702

$$$$

