PCCDB-ID:  20553
public computational chemistry database (PCCDB) project, http://pccdb.org

 13 12  0  0  1  0  0  0  0  0999 V2000
    0.9442    0.1228   -0.1067 C   0  0  0  0  0  0  0  0  0  0  0  0
    2.4723    0.0477   -0.0772 C   0  0  0  0  0  0  0  0  0  0  0  0
    4.4709   -0.8037    1.1336 C   0  0  0  0  0  0  0  0  0  0  0  0
    2.9950   -0.6647    1.1852 C   0  0  1  0  0  0  0  0  0  0  0  0
    5.6294   -0.8680    1.0971 N   0  0  0  0  0  0  0  0  0  0  0  0
    2.5911   -0.0347    2.3924 O   0  0  0  0  0  0  0  0  0  0  0  0
    0.6025    0.6679   -0.9925 H   0  0  0  0  0  0  0  0  0  0  0  0
    0.5605    0.6330    0.7815 H   0  0  0  0  0  0  0  0  0  0  0  0
    0.4996   -0.8790   -0.1368 H   0  0  0  0  0  0  0  0  0  0  0  0
    2.9087    1.0556   -0.1110 H   0  0  0  0  0  0  0  0  0  0  0  0
    2.8521   -0.4835   -0.9587 H   0  0  0  0  0  0  0  0  0  0  0  0
    2.5656   -1.6719    1.2374 H   0  0  0  0  0  0  0  0  0  0  0  0
    2.9906    0.8508    2.4151 H   0  0  0  0  0  0  0  0  0  0  0  0
  1  2  1  0  0  0  0
  1  8  1  0  0  0  0
  2  4  1  0  0  0  0
  3  4  1  0  0  0  0
  4 12  1  1  0  0  0
  4  6  1  0  0  0  0
  5  3  3  0  0  0  0
  6 13  1  0  0  0  0
  7  1  1  0  0  0  0
  9  1  1  0  0  0  0
 10  2  1  0  0  0  0
 11  2  1  0  0  0  0
M  END
>  <HBA>
2

>  <HBD>
1

>  <TPSA>
44.02

>  <cid>
20553

>  <dipole>
3.35

>  <excitation_energy_1>
6.866

>  <excitation_energy_2>
7.251

>  <excitation_energy_3>
7.649

>  <excitation_energy_4>
7.798

>  <homo_energy>
-8.229

>  <homo_lumo_gap>
8.482

>  <logP>
0.281

>  <lumo_energy>
0.253

>  <melting_point>
27.28

>  <molecular_refractivity>
22.25

>  <oscillator_strength_1>
0.0106

>  <oscillator_strength_2>
0.0036

>  <oscillator_strength_3>
0.0128

>  <oscillator_strength_4>
0.0049

>  <open_babel_can_smiles>
CC[C@@H](C#N)O

>  <mulliken_charges>
13
1   -0.446336
2   -0.273916
3   0.333842
4   0.077841
5   -0.467761
6   -0.595577
7   0.155716
8   0.166132
9   0.151161
10   0.146549
11   0.160852
12   0.190486
13   0.401011

>  <lowdin_charges>
13
1   -0.44646
2   -0.282106
3   -0.037758
4   0.00491
5   -0.114656
6   -0.431169
7   0.158794
8   0.160531
9   0.152172
10   0.148961
11   0.161119
12   0.174944
13   0.350717

$$$$

