PCCDB-ID:  16122
public computational chemistry database (PCCDB) project, http://pccdb.org

 19 20  0  0  0  0  0  0  0  0999 V2000
    0.8479   -0.0344   -0.4345 C   0  0  0  0  0  0  0  0  0  0  0  0
    5.5526   -3.6515    0.1510 C   0  0  0  0  0  0  0  0  0  0  0  0
    4.1480   -3.6803   -0.0231 C   0  0  0  0  0  0  0  0  0  0  0  0
    5.4670    1.2145    0.1417 C   0  0  0  0  0  0  0  0  0  0  0  0
    6.2149   -2.4481    0.2329 C   0  0  0  0  0  0  0  0  0  0  0  0
    6.1713    0.0348    0.2285 C   0  0  0  0  0  0  0  0  0  0  0  0
    3.4291   -2.5089   -0.1123 C   0  0  0  0  0  0  0  0  0  0  0  0
    4.0667    1.1990   -0.0323 C   0  0  0  0  0  0  0  0  0  0  0  0
    5.5081   -1.2186    0.1457 C   0  0  0  0  0  0  0  0  0  0  0  0
    4.0868   -1.2551   -0.0304 C   0  0  0  0  0  0  0  0  0  0  0  0
    3.3940   -0.0057   -0.1162 C   0  0  0  0  0  0  0  0  0  0  0  0
    2.0200   -0.0078   -0.2876 N   0  0  0  0  0  0  0  0  0  0  0  0
    6.1057   -4.5839    0.2200 H   0  0  0  0  0  0  0  0  0  0  0  0
    3.6337   -4.6350   -0.0872 H   0  0  0  0  0  0  0  0  0  0  0  0
    5.9827    2.1679    0.2064 H   0  0  0  0  0  0  0  0  0  0  0  0
    7.2935   -2.4194    0.3658 H   0  0  0  0  0  0  0  0  0  0  0  0
    7.2498    0.0470    0.3628 H   0  0  0  0  0  0  0  0  0  0  0  0
    2.3526   -2.5317   -0.2464 H   0  0  0  0  0  0  0  0  0  0  0  0
    3.5058    2.1250   -0.1020 H   0  0  0  0  0  0  0  0  0  0  0  0
  1 12  3  0  0  0  0
  2 13  1  0  0  0  0
  2  5  1  0  0  0  0
  3  2  2  0  0  0  0
  4 15  1  0  0  0  0
  4  6  2  0  0  0  0
  5 16  1  0  0  0  0
  6 17  1  0  0  0  0
  7 10  2  0  0  0  0
  7  3  1  0  0  0  0
  8  4  1  0  0  0  0
  9  6  1  0  0  0  0
  9  5  2  0  0  0  0
 10  9  1  0  0  0  0
 11  8  2  0  0  0  0
 11 10  1  0  0  0  0
 12 11  1  0  0  0  0
 14  3  1  0  0  0  0
 18  7  1  0  0  0  0
 19  8  1  0  0  0  0
M  RAD  1   1   2
M  END
>  <HBA>
0

>  <HBD>
0

>  <TPSA>
0.0

>  <cid>
16122

>  <dipole>
3.84

>  <excitation_energy_1>
4.058

>  <excitation_energy_2>
4.337

>  <excitation_energy_3>
5.204

>  <excitation_energy_4>
5.573

>  <homo_energy>
-6.18

>  <homo_lumo_gap>
4.482

>  <logP>
2.621

>  <lumo_energy>
-1.698

>  <melting_point>
102.2

>  <molecular_refractivity>
48.98

>  <oscillator_strength_1>
0.1353

>  <oscillator_strength_2>
0.0017

>  <oscillator_strength_3>
0.0059

>  <oscillator_strength_4>
0.7224

>  <open_babel_can_smiles>
[C]#[N]c1cccc2c1cccc2

>  <mulliken_charges>
19
1   -0.083176
2   -0.127537
3   -0.135875
4   -0.152239
5   -0.195741
6   -0.172249
7   -0.172265
8   -0.120481
9   0.116318
10   0.133767
11   0.232345
12   -0.334426
13   0.137878
14   0.140484
15   0.143502
16   0.137136
17   0.139155
18   0.155888
19   0.157517

>  <lowdin_charges>
19
1   -0.09497
2   -0.152383
3   -0.147984
4   -0.154315
5   -0.150373
6   -0.144585
7   -0.150824
8   -0.151322
9   0.00372
10   -0.003208
11   0.040051
12   -0.052469
13   0.162923
14   0.163824
15   0.166113
16   0.159253
17   0.161251
18   0.170254
19   0.175045

$$$$

