PCCDB-ID:  14454
public computational chemistry database (PCCDB) project, http://pccdb.org

 21 20  0  0  0  0  0  0  0  0999 V2000
    2.8515    0.4577   -1.3565 C   0  0  0  0  0  0  0  0  0  0  0  0
    2.6782   -1.6279    1.9741 C   0  0  0  0  0  0  0  0  0  0  0  0
    2.5710   -2.5271   -0.3728 C   0  0  0  0  0  0  0  0  0  0  0  0
    2.5038   -0.0176    0.0612 C   0  0  0  0  0  0  0  0  0  0  0  0
    4.6379   -1.3744    0.4245 C   0  0  0  0  0  0  0  0  0  0  0  0
    3.0944   -1.3805    0.5120 C   0  0  0  0  0  0  0  0  0  0  0  0
    5.2646   -0.3550    1.1979 O   0  0  0  0  0  0  0  0  0  0  0  0
    2.3726    1.4216   -1.5628 H   0  0  0  0  0  0  0  0  0  0  0  0
    2.5098   -0.2469   -2.1223 H   0  0  0  0  0  0  0  0  0  0  0  0
    3.9306    0.5961   -1.4987 H   0  0  0  0  0  0  0  0  0  0  0  0
    1.5883   -1.5804    2.0885 H   0  0  0  0  0  0  0  0  0  0  0  0
    3.1291   -0.8810    2.6352 H   0  0  0  0  0  0  0  0  0  0  0  0
    3.0069   -2.6179    2.3142 H   0  0  0  0  0  0  0  0  0  0  0  0
    1.4758   -2.5760   -0.3409 H   0  0  0  0  0  0  0  0  0  0  0  0
    2.9547   -3.4942   -0.0251 H   0  0  0  0  0  0  0  0  0  0  0  0
    2.8707   -2.4122   -1.4209 H   0  0  0  0  0  0  0  0  0  0  0  0
    1.4111   -0.0747    0.1567 H   0  0  0  0  0  0  0  0  0  0  0  0
    2.8193    0.7492    0.7830 H   0  0  0  0  0  0  0  0  0  0  0  0
    4.9568   -1.3169   -0.6281 H   0  0  0  0  0  0  0  0  0  0  0  0
    5.0248   -2.3189    0.8233 H   0  0  0  0  0  0  0  0  0  0  0  0
    5.0789    0.4947    0.7705 H   0  0  0  0  0  0  0  0  0  0  0  0
  1  4  1  0  0  0  0
  2 11  1  0  0  0  0
  2 13  1  0  0  0  0
  2 12  1  0  0  0  0
  3 14  1  0  0  0  0
  3 15  1  0  0  0  0
  3  6  1  0  0  0  0
  4 17  1  0  0  0  0
  4  6  1  0  0  0  0
  4 18  1  0  0  0  0
  5  6  1  0  0  0  0
  5 20  1  0  0  0  0
  5  7  1  0  0  0  0
  6  2  1  0  0  0  0
  8  1  1  0  0  0  0
  9  1  1  0  0  0  0
 10  1  1  0  0  0  0
 16  3  1  0  0  0  0
 19  5  1  0  0  0  0
 21  7  1  0  0  0  0
M  END
>  <HBA>
1

>  <HBD>
1

>  <TPSA>
20.23

>  <cid>
14454

>  <dipole>
1.68

>  <excitation_energy_1>
6.346

>  <excitation_energy_2>
7.023

>  <excitation_energy_3>
7.205

>  <excitation_energy_4>
7.37

>  <homo_energy>
-7.045

>  <homo_lumo_gap>
8.623

>  <logP>
1.415

>  <lumo_energy>
1.578

>  <melting_point>
10.74

>  <molecular_refractivity>
31.86

>  <oscillator_strength_1>
0.0012

>  <oscillator_strength_2>
0.0303

>  <oscillator_strength_3>
0.0039

>  <oscillator_strength_4>
0.0124

>  <open_babel_can_smiles>
CCC(CO)(C)C

>  <mulliken_charges>
21
1   -0.457814
2   -0.447253
3   -0.456265
4   -0.269337
5   -0.038122
6   0.087443
7   -0.621984
8   0.147415
9   0.151971
10   0.135553
11   0.133774
12   0.158866
13   0.13526
14   0.142368
15   0.141402
16   0.141417
17   0.134566
18   0.126938
19   0.119838
20   0.14013
21   0.393834

>  <lowdin_charges>
21
1   -0.450715
2   -0.443151
3   -0.441445
4   -0.280187
5   -0.139375
6   -0.008109
7   -0.465722
8   0.153131
9   0.152096
10   0.139717
11   0.142972
12   0.157886
13   0.14574
14   0.148224
15   0.148834
16   0.145528
17   0.142862
18   0.13918
19   0.124802
20   0.14611
21   0.341621

$$$$

