PCCDB-ID:  559
public computational chemistry database (PCCDB) project, http://pccdb.org

 20 19  0  0  0  0  0  0  0  0999 V2000
    0.8791    0.4660   -0.0370 C   0  0  0  0  0  0  0  0  0  0  0  0
    0.0633    0.6884   -1.3215 C   0  0  0  0  0  0  0  0  0  0  0  0
    2.3926    0.5634   -0.2652 C   0  0  0  0  0  0  0  0  0  0  0  0
    0.1509    2.1022   -1.8583 C   0  0  0  0  0  0  0  0  0  0  0  0
    2.9691    2.9600   -0.0479 C   0  0  0  0  0  0  0  0  0  0  0  0
    2.7460    2.8992    1.2150 N   0  0  0  0  0  0  0  0  0  0  0  0
    3.4357    4.0570   -0.7895 N   0  0  0  0  0  0  0  0  0  0  0  0
    2.7692    1.8469   -0.8536 N   0  0  0  0  0  0  0  0  0  0  0  0
    0.2754    2.3990   -3.0282 O   0  0  0  0  0  0  0  0  0  0  0  0
    0.6461   -0.5221    0.3790 H   0  0  0  0  0  0  0  0  0  0  0  0
    0.5952    1.2037    0.7224 H   0  0  0  0  0  0  0  0  0  0  0  0
   -1.0007    0.5091   -1.0993 H   0  0  0  0  0  0  0  0  0  0  0  0
    0.3490   -0.0051   -2.1212 H   0  0  0  0  0  0  0  0  0  0  0  0
    2.7127   -0.2167   -0.9653 H   0  0  0  0  0  0  0  0  0  0  0  0
    2.9195    0.4130    0.6840 H   0  0  0  0  0  0  0  0  0  0  0  0
    0.0265    2.8921   -1.0820 H   0  0  0  0  0  0  0  0  0  0  0  0
    2.8523    3.8164    1.6506 H   0  0  0  0  0  0  0  0  0  0  0  0
    3.4144    4.9308   -0.2779 H   0  0  0  0  0  0  0  0  0  0  0  0
    2.9956    4.1544   -1.6998 H   0  0  0  0  0  0  0  0  0  0  0  0
    3.3772    1.8036   -1.6605 H   0  0  0  0  0  0  0  0  0  0  0  0
  1 10  1  0  0  0  0
  1 11  1  0  0  0  0
  2 12  1  0  0  0  0
  2  1  1  0  0  0  0
  3  1  1  0  0  0  0
  3 15  1  0  0  0  0
  4  2  1  0  0  0  0
  4 16  1  0  0  0  0
  5  6  1  0  0  0  0
  6 17  1  0  0  0  0
  7 18  1  0  0  0  0
  7  5  2  0  0  0  0
  8  3  1  0  0  0  0
  8  5  1  0  0  0  0
  9  4  2  0  0  0  0
 13  2  1  0  0  0  0
 14  3  1  0  0  0  0
 19  7  1  0  0  0  0
 20  8  1  0  0  0  0
M  RAD  1   6   2
M  END
>  <HBA>
4

>  <HBD>
2

>  <TPSA>
81.47

>  <cid>
559

>  <dipole>
0.68

>  <excitation_energy_1>
4.382

>  <excitation_energy_2>
5.141

>  <excitation_energy_3>
5.42

>  <excitation_energy_4>
5.799

>  <homo_energy>
-6.212

>  <homo_lumo_gap>
6.027

>  <logP>
0.639

>  <lumo_energy>
-0.185

>  <melting_point>
132.19

>  <molecular_refractivity>
35.45

>  <oscillator_strength_1>
0.0001

>  <oscillator_strength_2>
0.0489

>  <oscillator_strength_3>
0.0015

>  <oscillator_strength_4>
0.0093

>  <open_babel_can_smiles>
O=CCCCNC(=[NH2])[NH]

>  <mulliken_charges>
20
1   -0.276522
2   -0.334679
3   -0.111685
4   0.279135
5   0.582646
6   -0.64558
7   -0.758868
8   -0.60287
9   -0.417606
10   0.139518
11   0.17408
12   0.161604
13   0.153922
14   0.134485
15   0.174602
16   0.096235
17   0.26732
18   0.320891
19   0.333616
20   0.329756

>  <lowdin_charges>
20
1   -0.283064
2   -0.307776
3   -0.194574
4   0.051167
5   0.122309
6   -0.480425
7   -0.509822
8   -0.298115
9   -0.24632
10   0.150318
11   0.162533
12   0.166265
13   0.157109
14   0.145994
15   0.161343
16   0.112494
17   0.247948
18   0.276786
19   0.283658
20   0.282171

$$$$

