PCCDB-ID:  12613
public computational chemistry database (PCCDB) project, http://pccdb.org

 32 31  0  0  0  0  0  0  0  0999 V2000
    4.8604   -1.4465   -1.5326 C   0  0  0  0  0  0  0  0  0  0  0  0
    3.2613    0.1828   -2.6132 C   0  0  0  0  0  0  0  0  0  0  0  0
    5.4933    5.8719    4.0593 C   0  0  0  0  0  0  0  0  0  0  0  0
    7.5893    5.1275    2.8476 C   0  0  0  0  0  0  0  0  0  0  0  0
    4.4433    0.8569   -0.4885 C   0  0  0  0  0  0  0  0  0  0  0  0
    5.7378    0.9129    0.3186 C   0  0  0  0  0  0  0  0  0  0  0  0
    5.4726    3.7264    2.7340 C   0  0  0  0  0  0  0  0  0  0  0  0
    4.5500    0.0370   -1.7903 C   0  0  0  0  0  0  0  0  0  0  0  0
    6.0539    5.1462    2.8283 C   0  0  0  0  0  0  0  0  0  0  0  0
    5.7452    3.0356    1.4101 C   0  0  0  0  0  0  0  0  0  0  0  0
    6.0553    3.5912    0.3766 O   0  0  0  0  0  0  0  0  0  0  0  0
    5.5683    1.6985    1.5234 O   0  0  0  0  0  0  0  0  0  0  0  0
    4.8958   -2.0057   -2.4748 H   0  0  0  0  0  0  0  0  0  0  0  0
    4.0851   -1.9042   -0.9040 H   0  0  0  0  0  0  0  0  0  0  0  0
    5.8242   -1.5905   -1.0317 H   0  0  0  0  0  0  0  0  0  0  0  0
    3.3376   -0.3547   -3.5657 H   0  0  0  0  0  0  0  0  0  0  0  0
    3.0460    1.2342   -2.8364 H   0  0  0  0  0  0  0  0  0  0  0  0
    2.4003   -0.2267   -2.0687 H   0  0  0  0  0  0  0  0  0  0  0  0
    5.8883    6.8922    4.1250 H   0  0  0  0  0  0  0  0  0  0  0  0
    5.7676    5.3508    4.9860 H   0  0  0  0  0  0  0  0  0  0  0  0
    4.3990    5.9376    4.0255 H   0  0  0  0  0  0  0  0  0  0  0  0
    7.9902    6.1470    2.8871 H   0  0  0  0  0  0  0  0  0  0  0  0
    7.9906    4.6448    1.9513 H   0  0  0  0  0  0  0  0  0  0  0  0
    7.9647    4.5887    3.7280 H   0  0  0  0  0  0  0  0  0  0  0  0
    4.1580    1.8857   -0.7384 H   0  0  0  0  0  0  0  0  0  0  0  0
    3.6450    0.4439    0.1441 H   0  0  0  0  0  0  0  0  0  0  0  0
    6.5499    1.3448   -0.2730 H   0  0  0  0  0  0  0  0  0  0  0  0
    6.0375   -0.0718    0.6830 H   0  0  0  0  0  0  0  0  0  0  0  0
    4.3794    3.7552    2.8516 H   0  0  0  0  0  0  0  0  0  0  0  0
    5.8424    3.0881    3.5460 H   0  0  0  0  0  0  0  0  0  0  0  0
    5.3760    0.4589   -2.3833 H   0  0  0  0  0  0  0  0  0  0  0  0
    5.7346    5.6867    1.9282 H   0  0  0  0  0  0  0  0  0  0  0  0
  1 15  1  0  0  0  0
  1 14  1  0  0  0  0
  2 18  1  0  0  0  0
  2  8  1  0  0  0  0
  3 19  1  0  0  0  0
  3 20  1  0  0  0  0
  4 22  1  0  0  0  0
  4 24  1  0  0  0  0
  5 26  1  0  0  0  0
  5  6  1  0  0  0  0
  6 28  1  0  0  0  0
  6 12  1  0  0  0  0
  7  9  1  0  0  0  0
  7 29  1  0  0  0  0
  7 30  1  0  0  0  0
  8  1  1  0  0  0  0
  8  5  1  0  0  0  0
  9  4  1  0  0  0  0
  9  3  1  0  0  0  0
 10 12  1  0  0  0  0
 10  7  1  0  0  0  0
 11 10  2  0  0  0  0
 13  1  1  0  0  0  0
 16  2  1  0  0  0  0
 17  2  1  0  0  0  0
 21  3  1  0  0  0  0
 23  4  1  0  0  0  0
 25  5  1  0  0  0  0
 27  6  1  0  0  0  0
 31  8  1  0  0  0  0
 32  9  1  0  0  0  0
M  END
>  <HBA>
2

>  <HBD>
0

>  <TPSA>
26.3

>  <cid>
12613

>  <dipole>
1.47

>  <excitation_energy_1>
5.811

>  <excitation_energy_2>
6.965

>  <excitation_energy_3>
7.276

>  <excitation_energy_4>
7.375

>  <homo_energy>
-7.255

>  <homo_lumo_gap>
7.706

>  <logP>
2.622

>  <lumo_energy>
0.452

>  <melting_point>
-16.78

>  <molecular_refractivity>
51.47

>  <oscillator_strength_1>
0.0007

>  <oscillator_strength_2>
0.0237

>  <oscillator_strength_3>
0.0224

>  <oscillator_strength_4>
0.0655

>  <open_babel_can_smiles>
CC(CCOC(=O)CC(C)C)C

>  <mulliken_charges>
32
1   -0.448479
2   -0.44238
3   -0.446875
4   -0.451656
5   -0.271879
6   -0.050169
7   -0.354951
8   -0.076523
9   -0.062106
10   0.624156
11   -0.485541
12   -0.469989
13   0.144775
14   0.141369
15   0.143025
16   0.141876
17   0.14564
18   0.13995
19   0.144788
20   0.13865
21   0.139309
22   0.142253
23   0.162264
24   0.133351
25   0.156008
26   0.136191
27   0.165798
28   0.151473
29   0.168771
30   0.162301
31   0.1298
32   0.1488

>  <lowdin_charges>
32
1   -0.449081
2   -0.442198
3   -0.441224
4   -0.448788
5   -0.288455
6   -0.135293
7   -0.301077
8   -0.120484
9   -0.117635
10   0.201918
11   -0.274246
12   -0.197037
13   0.151083
14   0.147923
15   0.147047
16   0.148856
17   0.149203
18   0.146886
19   0.149921
20   0.145347
21   0.144862
22   0.149296
23   0.158815
24   0.14294
25   0.154794
26   0.144923
27   0.157714
28   0.151187
29   0.167603
30   0.164294
31   0.139847
32   0.15106

$$$$

