PCCDB-ID:  69650
public computational chemistry database (PCCDB) project, http://pccdb.org

 29 28  0  0  0  0  0  0  0  0999 V2000
    5.1114   -1.0302    1.5514 C   0  0  0  0  0  0  0  0  0  0  0  0
    3.1913   -2.0785    0.2807 C   0  0  0  0  0  0  0  0  0  0  0  0
    2.7300   -0.4502    2.1484 C   0  0  0  0  0  0  0  0  0  0  0  0
    6.2144   -0.5492   -3.2967 C   0  0  0  0  0  0  0  0  0  0  0  0
    3.9256    0.4502   -3.6984 C   0  0  0  0  0  0  0  0  0  0  0  0
    5.9799    1.9120   -3.7890 C   0  0  0  0  0  0  0  0  0  0  0  0
    4.4661    0.5639   -0.8402 C   0  0  0  0  0  0  0  0  0  0  0  0
    3.6897   -0.8152    1.0056 C   0  0  0  0  0  0  0  0  0  0  0  0
    5.3269    0.6953   -3.1145 C   0  0  0  0  0  0  0  0  0  0  0  0
    3.6638    0.3178    0.0548 N   0  0  0  0  0  0  0  0  0  0  0  0
    5.2562    1.0015   -1.6698 N   0  0  0  0  0  0  0  0  0  0  0  0
    5.1238   -1.8471    2.2821 H   0  0  0  0  0  0  0  0  0  0  0  0
    5.4762   -0.1230    2.0447 H   0  0  0  0  0  0  0  0  0  0  0  0
    5.8084   -1.2838    0.7445 H   0  0  0  0  0  0  0  0  0  0  0  0
    3.1229   -2.9217    0.9778 H   0  0  0  0  0  0  0  0  0  0  0  0
    3.8757   -2.3596   -0.5282 H   0  0  0  0  0  0  0  0  0  0  0  0
    2.2000   -1.9075   -0.1520 H   0  0  0  0  0  0  0  0  0  0  0  0
    2.6795   -1.2616    2.8831 H   0  0  0  0  0  0  0  0  0  0  0  0
    1.7229   -0.2679    1.7596 H   0  0  0  0  0  0  0  0  0  0  0  0
    3.0665    0.4589    2.6574 H   0  0  0  0  0  0  0  0  0  0  0  0
    6.3600   -0.7660   -4.3614 H   0  0  0  0  0  0  0  0  0  0  0  0
    5.7542   -1.4269   -2.8285 H   0  0  0  0  0  0  0  0  0  0  0  0
    7.1960   -0.3915   -2.8384 H   0  0  0  0  0  0  0  0  0  0  0  0
    3.9867    0.2476   -4.7737 H   0  0  0  0  0  0  0  0  0  0  0  0
    3.2864    1.3273   -3.5506 H   0  0  0  0  0  0  0  0  0  0  0  0
    3.4430   -0.4087   -3.2181 H   0  0  0  0  0  0  0  0  0  0  0  0
    6.0992    1.7384   -4.8644 H   0  0  0  0  0  0  0  0  0  0  0  0
    6.9658    2.1067   -3.3549 H   0  0  0  0  0  0  0  0  0  0  0  0
    5.3646    2.8068   -3.6483 H   0  0  0  0  0  0  0  0  0  0  0  0
  1 13  1  0  0  0  0
  1 12  1  0  0  0  0
  2 15  1  0  0  0  0
  2  8  1  0  0  0  0
  3 20  1  0  0  0  0
  3 18  1  0  0  0  0
  4  9  1  0  0  0  0
  4 23  1  0  0  0  0
  4 22  1  0  0  0  0
  5 25  1  0  0  0  0
  5 26  1  0  0  0  0
  5  9  1  0  0  0  0
  6 29  1  0  0  0  0
  6 28  1  0  0  0  0
  6  9  1  0  0  0  0
  7 10  1  0  0  0  0
  8  1  1  0  0  0  0
  8  3  1  0  0  0  0
  9 11  1  0  0  0  0
 10  8  1  0  0  0  0
 11  7  1  0  0  0  0
 14  1  1  0  0  0  0
 16  2  1  0  0  0  0
 17  2  1  0  0  0  0
 19  3  1  0  0  0  0
 21  4  1  0  0  0  0
 24  5  1  0  0  0  0
 27  6  1  0  0  0  0
M  RAD  3   7   3  10   2  11   2
M  END
>  <HBA>
2

>  <HBD>
0

>  <TPSA>
24.72

>  <cid>
69650

>  <dipole>
1.79

>  <excitation_energy_1>
5.651

>  <excitation_energy_2>
5.783

>  <excitation_energy_3>
5.98

>  <excitation_energy_4>
6.207

>  <homo_energy>
-6.471

>  <homo_lumo_gap>
7.347

>  <logP>
2.757

>  <lumo_energy>
0.876

>  <melting_point>
30.41

>  <molecular_refractivity>
50.51

>  <oscillator_strength_1>
0.0003

>  <oscillator_strength_2>
0.0204

>  <oscillator_strength_3>
0.0026

>  <oscillator_strength_4>
0.0013

>  <open_babel_can_smiles>
CC([N][C][N]C(C)(C)C)(C)C

>  <mulliken_charges>
29
1   -0.446246
2   -0.435933
3   -0.433615
4   -0.43195
5   -0.449817
6   -0.432327
7   0.610553
8   0.183486
9   0.182325
10   -0.500824
11   -0.501158
12   0.143122
13   0.155927
14   0.148856
15   0.142855
16   0.14201
17   0.154622
18   0.136425
19   0.152006
20   0.151518
21   0.142068
22   0.141649
23   0.155362
24   0.143978
25   0.155953
26   0.148249
27   0.136755
28   0.153073
29   0.151074

>  <lowdin_charges>
29
1   -0.449217
2   -0.444909
3   -0.442039
4   -0.441511
5   -0.448169
6   -0.439688
7   0.102109
8   0.092861
9   0.094747
10   -0.188327
11   -0.189171
12   0.152913
13   0.1575
14   0.153413
15   0.151963
16   0.149061
17   0.155699
18   0.147973
19   0.155068
20   0.155756
21   0.149498
22   0.149035
23   0.156358
24   0.151401
25   0.157396
26   0.153065
27   0.145983
28   0.155894
29   0.155335

$$$$

