PCCDB-ID:  67043
public computational chemistry database (PCCDB) project, http://pccdb.org

 26 27  0  0  0  0  0  0  0  0999 V2000
    1.1650   -0.9731    0.9218 C   0  0  0  0  0  0  0  0  0  0  0  0
    2.5600   -0.5080    1.3318 C   0  0  0  0  0  0  0  0  0  0  0  0
    7.4736   -4.8034    1.5688 C   0  0  0  0  0  0  0  0  0  0  0  0
    6.0940   -4.9897    1.3275 C   0  0  0  0  0  0  0  0  0  0  0  0
    6.7003   -0.0874    2.4404 C   0  0  0  0  0  0  0  0  0  0  0  0
    7.9496   -3.5540    1.8972 C   0  0  0  0  0  0  0  0  0  0  0  0
    7.5693   -1.1478    2.3549 C   0  0  0  0  0  0  0  0  0  0  0  0
    5.2269   -3.9196    1.3971 C   0  0  0  0  0  0  0  0  0  0  0  0
    5.3293   -0.2372    2.1314 C   0  0  0  0  0  0  0  0  0  0  0  0
    7.0834   -2.4313    1.9844 C   0  0  0  0  0  0  0  0  0  0  0  0
    5.6899   -2.6125    1.7026 C   0  0  0  0  0  0  0  0  0  0  0  0
    4.8116   -1.4682    1.7517 C   0  0  0  0  0  0  0  0  0  0  0  0
    3.4609   -1.6460    1.4482 N   0  0  0  0  0  0  0  0  0  0  0  0
    0.4776   -0.1229    0.8680 H   0  0  0  0  0  0  0  0  0  0  0  0
    0.7682   -1.6956    1.6426 H   0  0  0  0  0  0  0  0  0  0  0  0
    1.1797   -1.4494   -0.0670 H   0  0  0  0  0  0  0  0  0  0  0  0
    2.5079   -0.0073    2.3064 H   0  0  0  0  0  0  0  0  0  0  0  0
    2.9347    0.2406    0.6115 H   0  0  0  0  0  0  0  0  0  0  0  0
    8.1529   -5.6497    1.5092 H   0  0  0  0  0  0  0  0  0  0  0  0
    5.7135   -5.9814    1.0979 H   0  0  0  0  0  0  0  0  0  0  0  0
    7.0654    0.8948    2.7299 H   0  0  0  0  0  0  0  0  0  0  0  0
    9.0072   -3.4063    2.1038 H   0  0  0  0  0  0  0  0  0  0  0  0
    8.6264   -1.0255    2.5751 H   0  0  0  0  0  0  0  0  0  0  0  0
    4.1650   -4.0957    1.2535 H   0  0  0  0  0  0  0  0  0  0  0  0
    4.6845    0.6327    2.1811 H   0  0  0  0  0  0  0  0  0  0  0  0
    3.3001   -2.3413    0.7297 H   0  0  0  0  0  0  0  0  0  0  0  0
  1  2  1  0  0  0  0
  1 15  1  0  0  0  0
  2 13  1  0  0  0  0
  2 17  1  0  0  0  0
  3  6  2  0  0  0  0
  4  8  2  0  0  0  0
  4  3  1  0  0  0  0
  5 21  1  0  0  0  0
  6 10  1  0  0  0  0
  6 22  1  0  0  0  0
  7  5  1  0  0  0  0
  7 23  1  0  0  0  0
  8 11  1  0  0  0  0
  9 25  1  0  0  0  0
  9  5  2  0  0  0  0
 10  7  2  0  0  0  0
 11 12  2  0  0  0  0
 11 10  1  0  0  0  0
 12  9  1  0  0  0  0
 13 12  1  0  0  0  0
 14  1  1  0  0  0  0
 16  1  1  0  0  0  0
 18  2  1  0  0  0  0
 19  3  1  0  0  0  0
 20  4  1  0  0  0  0
 24  8  1  0  0  0  0
 26 13  1  0  0  0  0
M  END
>  <HBA>
1

>  <HBD>
1

>  <TPSA>
12.03

>  <cid>
67043

>  <dipole>
1.81

>  <excitation_energy_1>
3.752

>  <excitation_energy_2>
4.173

>  <excitation_energy_3>
4.616

>  <excitation_energy_4>
4.877

>  <homo_energy>
-4.999

>  <homo_lumo_gap>
4.332

>  <logP>
3.345

>  <lumo_energy>
-0.667

>  <melting_point>
82.54

>  <molecular_refractivity>
58.06

>  <oscillator_strength_1>
0.1032

>  <oscillator_strength_2>
0.0385

>  <oscillator_strength_3>
0.0041

>  <oscillator_strength_4>
0.0043

>  <open_babel_can_smiles>
CCNc1cccc2c1cccc2

>  <mulliken_charges>
26
1   -0.469421
2   -0.101362
3   -0.131975
4   -0.13621
5   -0.142711
6   -0.198587
7   -0.196449
8   -0.199364
9   -0.198948
10   0.12871
11   0.082207
12   0.290419
13   -0.660996
14   0.155476
15   0.163138
16   0.145362
17   0.155044
18   0.135489
19   0.126418
20   0.124969
21   0.123405
22   0.127032
23   0.119314
24   0.122537
25   0.122981
26   0.31352

>  <lowdin_charges>
26
1   -0.449872
2   -0.193204
3   -0.161502
4   -0.161873
5   -0.147875
6   -0.154257
7   -0.186561
8   -0.163963
9   -0.221417
10   0.006838
11   -0.025931
12   0.055994
13   -0.301253
14   0.159711
15   0.158856
16   0.147576
17   0.148405
18   0.131448
19   0.157726
20   0.155806
21   0.155367
22   0.154809
23   0.152655
24   0.152358
25   0.158793
26   0.271365

$$$$

