PCCDB-ID:  67308
public computational chemistry database (PCCDB) project, http://pccdb.org

 16 15  0  0  0  0  0  0  0  0999 V2000
    0.9692   -0.1047    0.3013 C   0  0  0  0  0  0  0  0  0  0  0  0
    0.4446    1.3360    0.1711 C   0  0  0  0  0  0  0  0  0  0  0  0
    3.2437    0.2068    1.2773 C   0  0  0  0  0  0  0  0  0  0  0  0
    4.4926    0.4168    1.3208 N   0  0  0  0  0  0  0  0  0  0  0  0
    3.0283    0.0032   -1.0522 N   0  0  0  0  0  0  0  0  0  0  0  0
    2.4325   -0.1747    0.2132 N   0  0  0  0  0  0  0  0  0  0  0  0
   -0.0981    1.7477   -0.8269 O   0  0  0  0  0  0  0  0  0  0  0  0
    0.6837    2.1365    1.2298 O   0  0  0  0  0  0  0  0  0  0  0  0
    2.4981    0.3309    2.4299 O   0  0  0  0  0  0  0  0  0  0  0  0
    0.5550   -0.6869   -0.5240 H   0  0  0  0  0  0  0  0  0  0  0  0
    0.6495   -0.5541    1.2446 H   0  0  0  0  0  0  0  0  0  0  0  0
    4.9016    0.2911    0.3950 H   0  0  0  0  0  0  0  0  0  0  0  0
    2.6288    0.8221   -1.5158 H   0  0  0  0  0  0  0  0  0  0  0  0
    2.8216   -0.8153   -1.6214 H   0  0  0  0  0  0  0  0  0  0  0  0
    1.1856    1.6428    1.9125 H   0  0  0  0  0  0  0  0  0  0  0  0
    3.1580    0.5339    3.1184 H   0  0  0  0  0  0  0  0  0  0  0  0
  1 11  1  0  0  0  0
  2  1  1  0  0  0  0
  2  8  1  0  0  0  0
  3  4  2  0  0  0  0
  3  9  1  0  0  0  0
  5  6  1  0  0  0  0
  6  1  1  0  0  0  0
  6  3  1  0  0  0  0
  7  2  2  0  0  0  0
  8 15  1  0  0  0  0
  9 16  1  0  0  0  0
 10  1  1  0  0  0  0
 12  4  1  0  0  0  0
 13  5  1  0  0  0  0
 14  5  1  0  0  0  0
M  END
>  <HBA>
6

>  <HBD>
3

>  <TPSA>
109.65

>  <cid>
67308

>  <dipole>
2.94

>  <excitation_energy_1>
5.053

>  <excitation_energy_2>
5.692

>  <excitation_energy_3>
6.066

>  <excitation_energy_4>
6.094

>  <homo_energy>
-6.577

>  <homo_lumo_gap>
6.392

>  <logP>
-0.274

>  <lumo_energy>
-0.185

>  <melting_point>
195.45

>  <molecular_refractivity>
27.21

>  <oscillator_strength_1>
0.0119

>  <oscillator_strength_2>
0.0154

>  <oscillator_strength_3>
0.011

>  <oscillator_strength_4>
0.0135

>  <open_babel_can_smiles>
OC(=O)CN(C(=N)O)N

>  <mulliken_charges>
16
1   -0.249801
2   0.581418
3   0.674573
4   -0.647963
5   -0.576586
6   -0.353838
7   -0.444912
8   -0.57491
9   -0.640002
10   0.180685
11   0.195665
12   0.317727
13   0.333791
14   0.331431
15   0.437492
16   0.43523

>  <lowdin_charges>
16
1   -0.245609
2   0.17342
3   0.147488
4   -0.448936
5   -0.448725
6   -0.087218
7   -0.24593
8   -0.357506
9   -0.394109
10   0.173498
11   0.178932
12   0.275742
13   0.269141
14   0.271548
15   0.360442
16   0.377823

$$$$

