PCCDB-ID:  26692
public computational chemistry database (PCCDB) project, http://pccdb.org

 40 41  0  0  1  0  0  0  0  0999 V2000
    4.0214   -1.4411   -1.5977 C   0  0  0  0  0  0  0  0  0  0  0  0
    2.0208   -0.3538   -0.5128 C   0  0  0  0  0  0  0  0  0  0  0  0
    3.8630    8.9670   -2.4022 C   0  0  0  0  0  0  0  0  0  0  0  0
    5.1216    8.6593   -1.8798 C   0  0  0  0  0  0  0  0  0  0  0  0
    3.0967    7.9595   -2.9814 C   0  0  0  0  0  0  0  0  0  0  0  0
    5.5922    7.3505   -1.9471 C   0  0  0  0  0  0  0  0  0  0  0  0
    2.6803    5.5637   -3.6619 C   0  0  0  0  0  0  0  0  0  0  0  0
    3.4406    4.2829   -4.0307 C   0  0  0  0  0  0  0  0  0  0  0  0
    5.4010    4.9239   -2.6163 C   0  0  0  0  0  0  0  0  0  0  0  0
    4.0754    1.2721   -3.2330 C   0  0  0  0  0  0  0  0  0  0  0  0
    2.9327   -0.3718   -1.7427 C   0  0  0  0  0  0  0  0  0  0  0  0
    3.5622    6.6387   -3.0533 C   0  0  0  0  0  0  0  0  0  0  0  0
    4.8299    6.3281   -2.5319 C   0  0  0  0  0  0  0  0  0  0  0  0
    4.3484    3.8320   -2.8745 C   0  0  2  0  0  0  0  0  0  0  0  0
    5.0399    2.4707   -3.1260 C   0  0  1  0  0  0  0  0  0  0  0  0
    3.5326    0.9670   -1.9028 N   0  0  0  0  0  0  0  0  0  0  0  0
    5.9878    2.1783   -2.1066 O   0  0  0  0  0  0  0  0  0  0  0  0
    3.5690   -2.4349   -1.5033 H   0  0  0  0  0  0  0  0  0  0  0  0
    4.6288   -1.2491   -0.7056 H   0  0  0  0  0  0  0  0  0  0  0  0
    4.6928   -1.4660   -2.4622 H   0  0  0  0  0  0  0  0  0  0  0  0
    1.5724   -1.3386   -0.3453 H   0  0  0  0  0  0  0  0  0  0  0  0
    1.2031    0.3687   -0.6320 H   0  0  0  0  0  0  0  0  0  0  0  0
    2.5911   -0.0788    0.3822 H   0  0  0  0  0  0  0  0  0  0  0  0
    3.4829    9.9845   -2.3589 H   0  0  0  0  0  0  0  0  0  0  0  0
    5.7305    9.4345   -1.4219 H   0  0  0  0  0  0  0  0  0  0  0  0
    2.1153    8.1959   -3.3891 H   0  0  0  0  0  0  0  0  0  0  0  0
    6.5721    7.1074   -1.5408 H   0  0  0  0  0  0  0  0  0  0  0  0
    1.8834    5.3082   -2.9458 H   0  0  0  0  0  0  0  0  0  0  0  0
    2.1658    5.9637   -4.5454 H   0  0  0  0  0  0  0  0  0  0  0  0
    4.0620    4.4617   -4.9203 H   0  0  0  0  0  0  0  0  0  0  0  0
    2.7172    3.5058   -4.3065 H   0  0  0  0  0  0  0  0  0  0  0  0
    5.9593    4.6857   -1.7062 H   0  0  0  0  0  0  0  0  0  0  0  0
    6.1424    4.8887   -3.4319 H   0  0  0  0  0  0  0  0  0  0  0  0
    4.6617    0.4092   -3.5613 H   0  0  0  0  0  0  0  0  0  0  0  0
    3.2960    1.4411   -3.9937 H   0  0  0  0  0  0  0  0  0  0  0  0
    2.3155   -0.6257   -2.6250 H   0  0  0  0  0  0  0  0  0  0  0  0
    3.7316    3.7415   -1.9647 H   0  0  0  0  0  0  0  0  0  0  0  0
    5.6045    2.5472   -4.0664 H   0  0  0  0  0  0  0  0  0  0  0  0
    2.8258    1.6629   -1.6714 H   0  0  0  0  0  0  0  0  0  0  0  0
    5.4568    1.7130   -1.4284 H   0  0  0  0  0  0  0  0  0  0  0  0
  1 18  1  0  0  0  0
  1 19  1  0  0  0  0
  2 21  1  0  0  0  0
  2 23  1  0  0  0  0
  3 24  1  0  0  0  0
  3  4  2  0  0  0  0
  4 25  1  0  0  0  0
  5  3  1  0  0  0  0
  6  4  1  0  0  0  0
  6 27  1  0  0  0  0
  7 12  1  0  0  0  0
  7 28  1  0  0  0  0
  8  7  1  0  0  0  0
  8 14  1  0  0  0  0
  9 13  1  0  0  0  0
  9 32  1  0  0  0  0
 10 15  1  0  0  0  0
 10 16  1  0  0  0  0
 11  1  1  0  0  0  0
 11  2  1  0  0  0  0
 12  5  2  0  0  0  0
 12 13  1  0  0  0  0
 13  6  2  0  0  0  0
 14  9  1  0  0  0  0
 14 37  1  1  0  0  0
 15 38  1  6  0  0  0
 15 14  1  0  0  0  0
 15 17  1  0  0  0  0
 16 11  1  0  0  0  0
 16 39  1  0  0  0  0
 17 40  1  0  0  0  0
 20  1  1  0  0  0  0
 22  2  1  0  0  0  0
 26  5  1  0  0  0  0
 29  7  1  0  0  0  0
 30  8  1  0  0  0  0
 31  8  1  0  0  0  0
 33  9  1  0  0  0  0
 34 10  1  0  0  0  0
 35 10  1  0  0  0  0
 36 11  1  0  0  0  0
M  END
>  <HBA>
2

>  <HBD>
2

>  <TPSA>
32.26

>  <cid>
26692

>  <dipole>
3.09

>  <excitation_energy_1>
5.14

>  <excitation_energy_2>
5.589

>  <excitation_energy_3>
5.633

>  <excitation_energy_4>
5.791

>  <homo_energy>
-6.155

>  <homo_lumo_gap>
6.338

>  <logP>
2.541

>  <lumo_energy>
0.182

>  <melting_point>
75.72

>  <molecular_refractivity>
71.87

>  <oscillator_strength_1>
0.0088

>  <oscillator_strength_2>
0.0071

>  <oscillator_strength_3>
0.0055

>  <oscillator_strength_4>
0.0024

>  <open_babel_can_smiles>
CC(NC[C@@H]([C@@H]1CCc2c(C1)cccc2)O)C

>  <mulliken_charges>
40
1   -0.436931
2   -0.463448
3   -0.129973
4   -0.131204
5   -0.188938
6   -0.189133
7   -0.344628
8   -0.279776
9   -0.341208
10   -0.164336
11   0.071716
12   0.121682
13   0.119192
14   -0.112374
15   0.145467
16   -0.59528
17   -0.64757
18   0.141457
19   0.151257
20   0.150585
21   0.151271
22   0.138918
23   0.156358
24   0.122563
25   0.12338
26   0.11564
27   0.12135
28   0.144584
29   0.143913
30   0.137653
31   0.127964
32   0.16563
33   0.145023
34   0.155247
35   0.127263
36   0.111795
37   0.111394
38   0.120123
39   0.304453
40   0.398921

>  <lowdin_charges>
40
1   -0.449451
2   -0.449911
3   -0.161584
4   -0.162881
5   -0.165037
6   -0.162801
7   -0.275899
8   -0.281461
9   -0.275098
10   -0.226898
11   -0.053435
12   -0.018638
13   -0.014633
14   -0.146521
15   -0.009858
16   -0.367632
17   -0.47304
18   0.150598
19   0.153554
20   0.152505
21   0.156107
22   0.146892
23   0.155143
24   0.153718
25   0.156313
26   0.15049
27   0.153485
28   0.148581
29   0.151886
30   0.14303
31   0.141583
32   0.163621
33   0.151059
34   0.153817
35   0.129856
36   0.120775
37   0.131531
38   0.137233
39   0.255421
40   0.337579

$$$$

