PCCDB-ID:  30540
public computational chemistry database (PCCDB) project, http://pccdb.org

 31 32  0  0  1  0  0  0  0  0999 V2000
    3.4486    3.3691    2.1245 C   0  0  0  0  0  0  0  0  0  0  0  0
    5.3854   -1.2052    1.1278 C   0  0  0  0  0  0  0  0  0  0  0  0
    6.2370    2.2595   -0.2389 C   0  0  0  0  0  0  0  0  0  0  0  0
    5.3326    3.0598    0.4558 C   0  0  0  0  0  0  0  0  0  0  0  0
    6.2487    0.8806   -0.0305 C   0  0  0  0  0  0  0  0  0  0  0  0
   -0.0605   -1.4251    4.2445 C   0  0  0  0  0  0  0  0  0  0  0  0
    1.3018   -1.9017    4.8190 C   0  0  0  0  0  0  0  0  0  0  0  0
    2.2665    0.2189    1.9414 C   0  0  0  0  0  0  0  0  0  0  0  0
    4.4162    2.5012    1.3556 C   0  0  0  0  0  0  0  0  0  0  0  0
    5.3527    0.2808    0.8609 C   0  0  0  0  0  0  0  0  0  0  0  0
    1.5256   -0.5515    2.9951 C   0  0  3  0  0  0  0  0  0  0  0  0
    4.4381    1.1089    1.5316 C   0  0  0  0  0  0  0  0  0  0  0  0
    0.2688   -0.4211    3.2131 N   0  0  0  0  0  0  0  0  0  0  0  0
    2.2045   -1.5275    3.7190 N   0  0  0  0  0  0  0  0  0  0  0  0
    3.5733    0.5233    2.4509 O   0  0  0  0  0  0  0  0  0  0  0  0
    3.8317    4.3904    2.2154 H   0  0  0  0  0  0  0  0  0  0  0  0
    3.2730    2.9712    3.1281 H   0  0  0  0  0  0  0  0  0  0  0  0
    2.4721    3.4329    1.6260 H   0  0  0  0  0  0  0  0  0  0  0  0
    6.1245   -1.6967    0.4880 H   0  0  0  0  0  0  0  0  0  0  0  0
    4.4152   -1.6824    0.9488 H   0  0  0  0  0  0  0  0  0  0  0  0
    5.6502   -1.4151    2.1713 H   0  0  0  0  0  0  0  0  0  0  0  0
    6.9426    2.7109   -0.9311 H   0  0  0  0  0  0  0  0  0  0  0  0
    5.3364    4.1374    0.3088 H   0  0  0  0  0  0  0  0  0  0  0  0
    6.9643    0.2564   -0.5604 H   0  0  0  0  0  0  0  0  0  0  0  0
   -0.7191   -0.9948    5.0055 H   0  0  0  0  0  0  0  0  0  0  0  0
   -0.6033   -2.2562    3.7728 H   0  0  0  0  0  0  0  0  0  0  0  0
    1.3357   -2.9770    5.0172 H   0  0  0  0  0  0  0  0  0  0  0  0
    1.5586   -1.3680    5.7463 H   0  0  0  0  0  0  0  0  0  0  0  0
    2.3562   -0.3863    1.0278 H   0  0  0  0  0  0  0  0  0  0  0  0
    1.7043    1.1265    1.7012 H   0  0  0  0  0  0  0  0  0  0  0  0
    3.1730   -1.3200    3.9336 H   0  0  0  0  0  0  0  0  0  0  0  0
  1 16  1  0  0  0  0
  1 17  1  0  0  0  0
  2 21  1  0  0  0  0
  3  5  2  0  0  0  0
  3  4  1  0  0  0  0
  4  9  2  0  0  0  0
  5 10  1  0  0  0  0
  6  7  1  0  0  0  0
  6 25  1  0  0  0  0
  7 27  1  0  0  0  0
  7 28  1  0  0  0  0
  8 15  1  0  0  0  0
  8 11  1  0  0  0  0
  9 12  1  0  0  0  0
  9  1  1  0  0  0  0
 10  2  1  0  0  0  0
 10 12  2  0  0  0  0
 11 13  1  0  0  0  0
 11 14  1  0  0  0  0
 12 15  1  0  0  0  0
 13  6  1  0  0  0  0
 14 31  1  0  0  0  0
 14  7  1  0  0  0  0
 18  1  1  0  0  0  0
 19  2  1  0  0  0  0
 20  2  1  0  0  0  0
 22  3  1  0  0  0  0
 23  4  1  0  0  0  0
 24  5  1  0  0  0  0
 26  6  1  0  0  0  0
 29  8  1  0  0  0  0
 30  8  1  0  0  0  0
M  RAD  2  11   2  13   2
M  END
>  <HBA>
3

>  <HBD>
1

>  <TPSA>
33.62

>  <cid>
30540

>  <dipole>
1.74

>  <excitation_energy_1>
5.169

>  <excitation_energy_2>
5.319

>  <excitation_energy_3>
5.368

>  <excitation_energy_4>
5.421

>  <homo_energy>
-5.886

>  <homo_lumo_gap>
5.94

>  <logP>
1.448

>  <lumo_energy>
0.054

>  <melting_point>
83.73

>  <molecular_refractivity>
68.9

>  <oscillator_strength_1>
0.0014

>  <oscillator_strength_2>
0.005

>  <oscillator_strength_3>
0.0107

>  <oscillator_strength_4>
0.0036

>  <open_babel_can_smiles>
Cc1cccc(c1OC[C]1[N]CCN1)C

>  <mulliken_charges>
31
1   -0.535481
2   -0.523868
3   -0.112804
4   -0.205739
5   -0.207252
6   -0.161651
7   -0.149063
8   -0.087893
9   0.165106
10   0.161431
11   0.459863
12   0.22188
13   -0.469108
14   -0.599913
15   -0.560399
16   0.155385
17   0.174642
18   0.165153
19   0.152305
20   0.164162
21   0.163862
22   0.126993
23   0.123507
24   0.123075
25   0.149641
26   0.150855
27   0.150628
28   0.142359
29   0.160623
30   0.169663
31   0.332038

>  <lowdin_charges>
31
1   -0.441523
2   -0.43901
3   -0.161027
4   -0.165558
5   -0.170716
6   -0.211247
7   -0.209281
8   -0.124323
9   -0.016373
10   -0.017437
11   0.069879
12   0.0705
13   -0.238904
14   -0.311887
15   -0.245169
16   0.157895
17   0.166654
18   0.160145
19   0.157648
20   0.160295
21   0.160551
22   0.158807
23   0.153509
24   0.156595
25   0.15191
26   0.147853
27   0.148669
28   0.136924
29   0.153794
30   0.161718
31   0.279108

$$$$

