PCCDB-ID:  56138
public computational chemistry database (PCCDB) project, http://pccdb.org

 34 33  0  0  0  0  0  0  0  0999 V2000
    1.0754    0.0114   -0.1287 C   0  0  0  0  0  0  0  0  0  0  0  0
    3.1607   -0.2155   -1.5521 C   0  0  0  0  0  0  0  0  0  0  0  0
    4.4396    3.5425    1.6813 C   0  0  0  0  0  0  0  0  0  0  0  0
    4.3859    1.6155    3.2944 C   0  0  0  0  0  0  0  0  0  0  0  0
    7.2748    2.7807    1.1163 C   0  0  0  0  0  0  0  0  0  0  0  0
    8.7074    2.2533    1.2461 C   0  0  0  0  0  0  0  0  0  0  0  0
    4.5650    1.1433    0.8302 C   0  0  0  0  0  0  0  0  0  0  0  0
    2.6060   -0.0496   -0.1254 C   0  0  0  0  0  0  0  0  0  0  0  0
    4.9658    2.1200    1.9652 C   0  0  0  0  0  0  0  0  0  0  0  0
    3.1199    1.1238    0.5982 N   0  0  0  0  0  0  0  0  0  0  0  0
    6.4446    2.0687    2.0972 N   0  0  0  0  0  0  0  0  0  0  0  0
    8.7336    0.8460    1.1200 O   0  0  0  0  0  0  0  0  0  0  0  0
    0.6462   -0.8830   -0.5937 H   0  0  0  0  0  0  0  0  0  0  0  0
    0.7207    0.8818   -0.6977 H   0  0  0  0  0  0  0  0  0  0  0  0
    0.6927    0.0967    0.8929 H   0  0  0  0  0  0  0  0  0  0  0  0
    2.7666   -1.1228   -2.0253 H   0  0  0  0  0  0  0  0  0  0  0  0
    4.2536   -0.2873   -1.5556 H   0  0  0  0  0  0  0  0  0  0  0  0
    2.8749    0.6391   -2.1804 H   0  0  0  0  0  0  0  0  0  0  0  0
    3.3445    3.5588    1.6901 H   0  0  0  0  0  0  0  0  0  0  0  0
    4.7777    3.9191    0.7084 H   0  0  0  0  0  0  0  0  0  0  0  0
    4.7871    4.2432    2.4503 H   0  0  0  0  0  0  0  0  0  0  0  0
    3.3066    1.4741    3.2008 H   0  0  0  0  0  0  0  0  0  0  0  0
    4.5770    2.3303    4.1056 H   0  0  0  0  0  0  0  0  0  0  0  0
    4.8430    0.6577    3.5680 H   0  0  0  0  0  0  0  0  0  0  0  0
    6.9088    2.5466    0.1121 H   0  0  0  0  0  0  0  0  0  0  0  0
    7.2595    3.8783    1.2273 H   0  0  0  0  0  0  0  0  0  0  0  0
    9.1284    2.5783    2.2164 H   0  0  0  0  0  0  0  0  0  0  0  0
    9.3431    2.6739    0.4588 H   0  0  0  0  0  0  0  0  0  0  0  0
    4.8733    0.1366    1.1362 H   0  0  0  0  0  0  0  0  0  0  0  0
    5.1441    1.3834   -0.0776 H   0  0  0  0  0  0  0  0  0  0  0  0
    2.9115   -0.9261    0.4637 H   0  0  0  0  0  0  0  0  0  0  0  0
    2.8451    1.9626    0.0876 H   0  0  0  0  0  0  0  0  0  0  0  0
    6.6894    2.4078    3.0275 H   0  0  0  0  0  0  0  0  0  0  0  0
    7.9370    0.5585    1.6074 H   0  0  0  0  0  0  0  0  0  0  0  0
  1  8  1  0  0  0  0
  1 15  1  0  0  0  0
  2  8  1  0  0  0  0
  3 19  1  0  0  0  0
  3  9  1  0  0  0  0
  3 21  1  0  0  0  0
  4 24  1  0  0  0  0
  4 23  1  0  0  0  0
  5 26  1  0  0  0  0
  5  6  1  0  0  0  0
  5 11  1  0  0  0  0
  6 27  1  0  0  0  0
  7 29  1  0  0  0  0
  7  9  1  0  0  0  0
  8 31  1  0  0  0  0
  8 10  1  0  0  0  0
  9 11  1  0  0  0  0
  9  4  1  0  0  0  0
 10  7  1  0  0  0  0
 11 33  1  0  0  0  0
 12  6  1  0  0  0  0
 12 34  1  0  0  0  0
 13  1  1  0  0  0  0
 14  1  1  0  0  0  0
 16  2  1  0  0  0  0
 17  2  1  0  0  0  0
 18  2  1  0  0  0  0
 20  3  1  0  0  0  0
 22  4  1  0  0  0  0
 25  5  1  0  0  0  0
 28  6  1  0  0  0  0
 30  7  1  0  0  0  0
 32 10  1  0  0  0  0
M  END
>  <HBA>
3

>  <HBD>
3

>  <TPSA>
44.29

>  <cid>
56138

>  <dipole>
2.64

>  <excitation_energy_1>
5.281

>  <excitation_energy_2>
5.65

>  <excitation_energy_3>
5.723

>  <excitation_energy_4>
5.819

>  <homo_energy>
-5.894

>  <homo_lumo_gap>
7.804

>  <logP>
1.127

>  <lumo_energy>
1.91

>  <melting_point>
55.44

>  <molecular_refractivity>
52.18

>  <oscillator_strength_1>
0.0037

>  <oscillator_strength_2>
0.0072

>  <oscillator_strength_3>
0.0036

>  <oscillator_strength_4>
0.0036

>  <open_babel_can_smiles>
OCCNC(CNC(C)C)(C)C

>  <mulliken_charges>
34
1   -0.443084
2   -0.450286
3   -0.468627
4   -0.466472
5   -0.154786
6   -0.015776
7   -0.123605
8   0.049428
9   0.22543
10   -0.557707
11   -0.598596
12   -0.63021
13   0.141842
14   0.132515
15   0.155394
16   0.142616
17   0.152214
18   0.132225
19   0.155396
20   0.140174
21   0.137968
22   0.173159
23   0.12931
24   0.146102
25   0.153998
26   0.120865
27   0.106412
28   0.137652
29   0.142645
30   0.121694
31   0.1318
32   0.288146
33   0.296109
34   0.396057

>  <lowdin_charges>
34
1   -0.448158
2   -0.462699
3   -0.460743
4   -0.449533
5   -0.225056
6   -0.13803
7   -0.209889
8   -0.05751
9   0.06509
10   -0.362472
11   -0.362908
12   -0.479186
13   0.151245
14   0.14372
15   0.155732
16   0.152076
17   0.150536
18   0.143778
19   0.154941
20   0.146978
21   0.149595
22   0.164767
23   0.142762
24   0.15119
25   0.146924
26   0.124971
27   0.116769
28   0.145775
29   0.147239
30   0.124949
31   0.138879
32   0.248847
33   0.254145
34   0.335276

$$$$

