PCCDB-ID:  31130
public computational chemistry database (PCCDB) project, http://pccdb.org

 38 38  0  0  0  0  0  0  0  0999 V2000
    2.3588    0.7143   -2.0172 C   0  0  0  0  0  0  0  0  0  0  0  0
    1.7508    3.9716   -0.2860 C   0  0  0  0  0  0  0  0  0  0  0  0
    9.3970    1.6791   -1.9852 C   0  0  0  0  0  0  0  0  0  0  0  0
    6.8661   -1.7957   -0.5410 C   0  0  0  0  0  0  0  0  0  0  0  0
    2.5635    0.6277   -0.5006 C   0  0  0  0  0  0  0  0  0  0  0  0
    2.1238    2.8326    0.6693 C   0  0  0  0  0  0  0  0  0  0  0  0
    8.8737    0.8741   -0.7924 C   0  0  0  0  0  0  0  0  0  0  0  0
    6.9778   -0.6116   -1.5065 C   0  0  0  0  0  0  0  0  0  0  0  0
    4.4070    2.1146    0.1357 C   0  0  0  0  0  0  0  0  0  0  0  0
    6.5441    1.5072   -0.3354 C   0  0  0  0  0  0  0  0  0  0  0  0
    6.1304    3.4463    0.7004 C   0  0  0  0  0  0  0  0  0  0  0  0
    5.2339    1.1983   -0.3974 N   0  0  0  0  0  0  0  0  0  0  0  0
    4.8072    3.2761    0.7069 N   0  0  0  0  0  0  0  0  0  0  0  0
    7.0555    2.6387    0.2056 N   0  0  0  0  0  0  0  0  0  0  0  0
    3.0683    1.8589    0.1129 N   0  0  0  0  0  0  0  0  0  0  0  0
    7.4317    0.6189   -0.8578 N   0  0  0  0  0  0  0  0  0  0  0  0
    6.5880    4.5824    1.2580 O   0  0  0  0  0  0  0  0  0  0  0  0
    2.0050   -0.2491   -2.4040 H   0  0  0  0  0  0  0  0  0  0  0  0
    3.3030    0.9573   -2.5133 H   0  0  0  0  0  0  0  0  0  0  0  0
    1.6198    1.4771   -2.2845 H   0  0  0  0  0  0  0  0  0  0  0  0
    1.0501    4.6580    0.2046 H   0  0  0  0  0  0  0  0  0  0  0  0
    1.2745    3.5961   -1.1977 H   0  0  0  0  0  0  0  0  0  0  0  0
    2.6440    4.5367   -0.5672 H   0  0  0  0  0  0  0  0  0  0  0  0
   10.4837    1.8048   -1.9115 H   0  0  0  0  0  0  0  0  0  0  0  0
    8.9358    2.6708   -1.9995 H   0  0  0  0  0  0  0  0  0  0  0  0
    9.1776    1.1780   -2.9354 H   0  0  0  0  0  0  0  0  0  0  0  0
    6.5543   -2.6990   -1.0788 H   0  0  0  0  0  0  0  0  0  0  0  0
    6.1250   -1.5823    0.2353 H   0  0  0  0  0  0  0  0  0  0  0  0
    7.8248   -2.0067   -0.0532 H   0  0  0  0  0  0  0  0  0  0  0  0
    3.2703   -0.1736   -0.2749 H   0  0  0  0  0  0  0  0  0  0  0  0
    1.6164    0.3865   -0.0052 H   0  0  0  0  0  0  0  0  0  0  0  0
    1.2266    2.2764    0.9622 H   0  0  0  0  0  0  0  0  0  0  0  0
    2.5655    3.2513    1.5765 H   0  0  0  0  0  0  0  0  0  0  0  0
    9.0856    1.4074    0.1356 H   0  0  0  0  0  0  0  0  0  0  0  0
    9.3721   -0.1008   -0.7407 H   0  0  0  0  0  0  0  0  0  0  0  0
    6.0095   -0.4172   -1.9705 H   0  0  0  0  0  0  0  0  0  0  0  0
    7.6905   -0.8406   -2.3075 H   0  0  0  0  0  0  0  0  0  0  0  0
    5.7956    5.0575    1.5652 H   0  0  0  0  0  0  0  0  0  0  0  0
  1  5  1  0  0  0  0
  2 21  1  0  0  0  0
  2  6  1  0  0  0  0
  3 24  1  0  0  0  0
  3  7  1  0  0  0  0
  4 29  1  0  0  0  0
  4 28  1  0  0  0  0
  5 30  1  0  0  0  0
  5 31  1  0  0  0  0
  5 15  1  0  0  0  0
  6 32  1  0  0  0  0
  6 33  1  0  0  0  0
  7 35  1  0  0  0  0
  7 34  1  0  0  0  0
  8 16  1  0  0  0  0
  8  4  1  0  0  0  0
  9 13  1  0  0  0  0
 10 14  1  0  0  0  0
 11 13  2  0  0  0  0
 11 17  1  0  0  0  0
 12 10  2  0  0  0  0
 12  9  2  0  0  0  0
 14 11  2  0  0  0  0
 15  9  1  0  0  0  0
 15  6  1  0  0  0  0
 16  7  1  0  0  0  0
 16 10  1  0  0  0  0
 17 38  1  0  0  0  0
 18  1  1  0  0  0  0
 19  1  1  0  0  0  0
 20  1  1  0  0  0  0
 22  2  1  0  0  0  0
 23  2  1  0  0  0  0
 25  3  1  0  0  0  0
 26  3  1  0  0  0  0
 27  4  1  0  0  0  0
 36  8  1  0  0  0  0
 37  8  1  0  0  0  0
M  END
>  <HBA>
5

>  <HBD>
1

>  <TPSA>
65.12

>  <cid>
31130

>  <dipole>
2.64

>  <excitation_energy_1>
5.173

>  <excitation_energy_2>
5.38

>  <excitation_energy_3>
5.426

>  <excitation_energy_4>
5.523

>  <homo_energy>
-5.883

>  <homo_lumo_gap>
6.291

>  <logP>
0.857

>  <lumo_energy>
0.408

>  <melting_point>
134.08

>  <molecular_refractivity>
70.29

>  <oscillator_strength_1>
0.0011

>  <oscillator_strength_2>
0.1815

>  <oscillator_strength_3>
0.0692

>  <oscillator_strength_4>
0.0028

>  <open_babel_can_smiles>
CCN(C1=[N]=C(N=[C](=N1)O)N(CC)CC)CC

>  <mulliken_charges>
38
1   -0.446815
2   -0.446327
3   -0.444756
4   -0.444443
5   -0.129768
6   -0.125639
7   -0.136628
8   -0.139174
9   0.710115
10   0.704332
11   0.641074
12   -0.595025
13   -0.585778
14   -0.539188
15   -0.469672
16   -0.463043
17   -0.594291
18   0.140902
19   0.169026
20   0.147187
21   0.140823
22   0.147011
23   0.169109
24   0.142537
25   0.174944
26   0.140635
27   0.141334
28   0.166785
29   0.146529
30   0.176124
31   0.137209
32   0.137362
33   0.172615
34   0.186386
35   0.138684
36   0.177849
37   0.141783
38   0.410192

>  <lowdin_charges>
38
1   -0.454916
2   -0.456117
3   -0.449561
4   -0.453496
5   -0.192878
6   -0.19338
7   -0.192744
8   -0.19453
9   0.148192
10   0.146506
11   0.169772
12   -0.273487
13   -0.289593
14   -0.251354
15   -0.086368
16   -0.082812
17   -0.342136
18   0.151257
19   0.160648
20   0.148942
21   0.152539
22   0.148456
23   0.161705
24   0.150272
25   0.163572
26   0.145745
27   0.151569
28   0.160219
29   0.148741
30   0.165245
31   0.144249
32   0.14532
33   0.163601
34   0.171251
35   0.143438
36   0.165691
37   0.145641
38   0.360801

$$$$

