PCCDB-ID:  20227
public computational chemistry database (PCCDB) project, http://pccdb.org

 31 33  0  0  0  0  0  0  0  0999 V2000
    1.8725    0.2776    0.4008 C   0  0  0  0  0  0  0  0  0  0  0  0
    0.1163   -2.1457   -5.3702 C   0  0  0  0  0  0  0  0  0  0  0  0
   -0.2296   -1.0638   -6.2008 C   0  0  0  0  0  0  0  0  0  0  0  0
    1.7659    4.1811   -4.8942 C   0  0  0  0  0  0  0  0  0  0  0  0
    2.5810    4.3370   -3.7594 C   0  0  0  0  0  0  0  0  0  0  0  0
    0.9081   -1.9279   -4.2600 C   0  0  0  0  0  0  0  0  0  0  0  0
    0.2229    0.2109   -5.9088 C   0  0  0  0  0  0  0  0  0  0  0  0
    1.2637    2.9357   -5.2249 C   0  0  0  0  0  0  0  0  0  0  0  0
    2.8700    3.2411   -2.9693 C   0  0  0  0  0  0  0  0  0  0  0  0
    2.1855   -0.4182   -2.7765 C   0  0  0  0  0  0  0  0  0  0  0  0
    3.1995    0.7509   -0.1507 C   0  0  0  0  0  0  0  0  0  0  0  0
    1.3790   -0.6322   -3.9396 C   0  0  0  0  0  0  0  0  0  0  0  0
    1.0357    0.4666   -4.7808 C   0  0  0  0  0  0  0  0  0  0  0  0
    1.5437    1.7907   -4.4425 C   0  0  0  0  0  0  0  0  0  0  0  0
    2.3606    1.9614   -3.2857 C   0  0  0  0  0  0  0  0  0  0  0  0
    2.6570    0.8221   -2.4360 C   0  0  0  0  0  0  0  0  0  0  0  0
    3.5123    1.0296   -1.3487 N   0  0  0  0  0  0  0  0  0  0  0  0
    4.1789    0.9295    0.7817 O   0  0  0  0  0  0  0  0  0  0  0  0
    1.1080    0.2544   -0.3763 H   0  0  0  0  0  0  0  0  0  0  0  0
    1.5427    0.9493    1.2039 H   0  0  0  0  0  0  0  0  0  0  0  0
    1.9651   -0.7293    0.8264 H   0  0  0  0  0  0  0  0  0  0  0  0
   -0.2379   -3.1465   -5.6021 H   0  0  0  0  0  0  0  0  0  0  0  0
   -0.8528   -1.2277   -7.0758 H   0  0  0  0  0  0  0  0  0  0  0  0
    1.5322    5.0393   -5.5189 H   0  0  0  0  0  0  0  0  0  0  0  0
    2.9838    5.3140   -3.5062 H   0  0  0  0  0  0  0  0  0  0  0  0
    1.1829   -2.7563   -3.6110 H   0  0  0  0  0  0  0  0  0  0  0  0
   -0.0579    1.0244   -6.5691 H   0  0  0  0  0  0  0  0  0  0  0  0
    0.6434    2.8445   -6.1099 H   0  0  0  0  0  0  0  0  0  0  0  0
    3.5063    3.3381   -2.0964 H   0  0  0  0  0  0  0  0  0  0  0  0
    2.4531   -1.2778   -2.1674 H   0  0  0  0  0  0  0  0  0  0  0  0
    3.8225    0.7310    1.6613 H   0  0  0  0  0  0  0  0  0  0  0  0
  1 21  1  0  0  0  0
  1 20  1  0  0  0  0
  2  6  2  0  0  0  0
  3  7  2  0  0  0  0
  3  2  1  0  0  0  0
  4  5  1  0  0  0  0
  5 25  1  0  0  0  0
  5  9  2  0  0  0  0
  6 12  1  0  0  0  0
  6 26  1  0  0  0  0
  7 13  1  0  0  0  0
  8  4  2  0  0  0  0
  8 14  1  0  0  0  0
  9 29  1  0  0  0  0
 10 16  1  0  0  0  0
 10 30  1  0  0  0  0
 11  1  1  0  0  0  0
 11 18  1  0  0  0  0
 12 10  2  0  0  0  0
 13 14  2  0  0  0  0
 13 12  1  0  0  0  0
 14 15  1  0  0  0  0
 15  9  1  0  0  0  0
 15 16  2  0  0  0  0
 16 17  1  0  0  0  0
 17 11  2  0  0  0  0
 18 31  1  0  0  0  0
 19  1  1  0  0  0  0
 22  2  1  0  0  0  0
 23  3  1  0  0  0  0
 24  4  1  0  0  0  0
 27  7  1  0  0  0  0
 28  8  1  0  0  0  0
M  END
>  <HBA>
2

>  <HBD>
1

>  <TPSA>
29.1

>  <cid>
20227

>  <dipole>
3.75

>  <excitation_energy_1>
3.775

>  <excitation_energy_2>
3.957

>  <excitation_energy_3>
4.48

>  <excitation_energy_4>
4.554

>  <homo_energy>
-5.314

>  <homo_lumo_gap>
4.446

>  <logP>
4.024

>  <lumo_energy>
-0.868

>  <melting_point>
149.27

>  <molecular_refractivity>
75.77

>  <oscillator_strength_1>
0.0161

>  <oscillator_strength_2>
0.1686

>  <oscillator_strength_3>
0.0358

>  <oscillator_strength_4>
0.0531

>  <open_babel_can_smiles>
C/C(=N\c1cc2ccccc2c2c1cccc2)/O

>  <mulliken_charges>
31
1   -0.55283
2   -0.129587
3   -0.140893
4   -0.134569
5   -0.129048
6   -0.20945
7   -0.192495
8   -0.193085
9   -0.200513
10   -0.254653
11   0.48055
12   0.148575
13   0.070083
14   0.045076
15   0.100079
16   0.210224
17   -0.476077
18   -0.568496
19   0.201176
20   0.169846
21   0.177983
22   0.126521
23   0.125781
24   0.126897
25   0.127709
26   0.124046
27   0.131364
28   0.131403
29   0.15406
30   0.121296
31   0.409028

>  <lowdin_charges>
31
1   -0.483393
2   -0.157252
3   -0.163215
4   -0.157369
5   -0.158553
6   -0.16487
7   -0.158122
8   -0.159051
9   -0.152901
10   -0.202181
11   0.1476
12   0.003059
13   -0.009902
14   -0.000752
15   -0.014078
16   0.047383
17   -0.168241
18   -0.356894
19   0.186298
20   0.168076
21   0.170763
22   0.156505
23   0.156899
24   0.157738
25   0.157225
26   0.155532
27   0.157907
28   0.157117
29   0.171119
30   0.156656
31   0.356895

$$$$

