PCCDB-ID:  22729
public computational chemistry database (PCCDB) project, http://pccdb.org

 23 23  0  0  0  0  0  0  0  0999 V2000
    1.6055    0.5835   -0.2462 C   0  0  0  0  0  0  0  0  0  0  0  0
    3.0511    0.2686    0.1547 C   0  0  0  0  0  0  0  0  0  0  0  0
    3.3181   -1.2279    0.1478 C   0  0  0  0  0  0  0  0  0  0  0  0
    4.9637   -4.9624    0.3665 C   0  0  0  0  0  0  0  0  0  0  0  0
    7.1494   -3.9418    1.0537 C   0  0  0  0  0  0  0  0  0  0  0  0
    5.1479   -2.6785    0.5706 C   0  0  0  0  0  0  0  0  0  0  0  0
    4.2548   -5.9908    0.0945 N   0  0  0  0  0  0  0  0  0  0  0  0
    8.3790   -3.9263    1.4005 N   0  0  0  0  0  0  0  0  0  0  0  0
    6.3323   -5.0230    0.7559 N   0  0  0  0  0  0  0  0  0  0  0  0
    4.4057   -3.6924    0.2913 N   0  0  0  0  0  0  0  0  0  0  0  0
    6.4670   -2.7326    0.9397 N   0  0  0  0  0  0  0  0  0  0  0  0
    4.7041   -1.4206    0.5291 O   0  0  0  0  0  0  0  0  0  0  0  0
    1.4258    1.6633   -0.2331 H   0  0  0  0  0  0  0  0  0  0  0  0
    0.8891    0.1179    0.4409 H   0  0  0  0  0  0  0  0  0  0  0  0
    1.3825    0.2205   -1.2563 H   0  0  0  0  0  0  0  0  0  0  0  0
    3.2608    0.6655    1.1556 H   0  0  0  0  0  0  0  0  0  0  0  0
    3.7496    0.7596   -0.5342 H   0  0  0  0  0  0  0  0  0  0  0  0
    3.1618   -1.6715   -0.8402 H   0  0  0  0  0  0  0  0  0  0  0  0
    2.6821   -1.7649    0.8584 H   0  0  0  0  0  0  0  0  0  0  0  0
    4.7987   -6.8519    0.1933 H   0  0  0  0  0  0  0  0  0  0  0  0
    8.7701   -4.8674    1.4487 H   0  0  0  0  0  0  0  0  0  0  0  0
    6.7573   -5.9380    0.8161 H   0  0  0  0  0  0  0  0  0  0  0  0
    6.9852   -1.8892    1.1454 H   0  0  0  0  0  0  0  0  0  0  0  0
  1 13  1  0  0  0  0
  1  2  1  0  0  0  0
  1 14  1  0  0  0  0
  2 16  1  0  0  0  0
  3  2  1  0  0  0  0
  3 12  1  0  0  0  0
  3 19  1  0  0  0  0
  4  9  1  0  0  0  0
  5  8  2  0  0  0  0
  6 11  1  0  0  0  0
  7 20  1  0  0  0  0
  7  4  1  0  0  0  0
  8 21  1  0  0  0  0
  9 22  1  0  0  0  0
  9  5  1  0  0  0  0
 10  4  2  0  0  0  0
 10  6  2  0  0  0  0
 11  5  1  0  0  0  0
 11 23  1  0  0  0  0
 12  6  1  0  0  0  0
 15  1  1  0  0  0  0
 17  2  1  0  0  0  0
 18  3  1  0  0  0  0
M  RAD  1   7   2
M  END
>  <HBA>
6

>  <HBD>
2

>  <TPSA>
99.94

>  <cid>
22729

>  <dipole>
1.65

>  <excitation_energy_1>
5.407

>  <excitation_energy_2>
5.547

>  <excitation_energy_3>
5.624

>  <excitation_energy_4>
5.669

>  <homo_energy>
-6.408

>  <homo_lumo_gap>
6.289

>  <logP>
0.987

>  <lumo_energy>
-0.12

>  <melting_point>
153.93

>  <molecular_refractivity>
44.74

>  <oscillator_strength_1>
0.0023

>  <oscillator_strength_2>
0.0759

>  <oscillator_strength_3>
0.0012

>  <oscillator_strength_4>
0.0167

>  <open_babel_can_smiles>
CCCOC1=[N]=C(NC(=N)N1)[NH]

>  <mulliken_charges>
23
1   -0.454312
2   -0.275228
3   -0.024947
4   0.613518
5   0.693474
6   0.778608
7   -0.614672
8   -0.651838
9   -0.699347
10   -0.518929
11   -0.674754
12   -0.506432
13   0.155479
14   0.152474
15   0.152638
16   0.150824
17   0.150972
18   0.170147
19   0.169195
20   0.263169
21   0.279902
22   0.32859
23   0.361469

>  <lowdin_charges>
23
1   -0.442675
2   -0.280123
3   -0.118521
4   0.134238
5   0.136668
6   0.188335
7   -0.416414
8   -0.456806
9   -0.284382
10   -0.233
11   -0.229705
12   -0.183573
13   0.155925
14   0.153383
15   0.151569
16   0.150116
17   0.152121
18   0.157816
19   0.159434
20   0.244493
21   0.25596
22   0.290101
23   0.315039

$$$$

