PCCDB-ID:  9982
public computational chemistry database (PCCDB) project, http://pccdb.org

 29 29  0  0  1  0  0  0  0  0999 V2000
    1.0129   -0.8134    0.6655 C   0  0  0  0  0  0  0  0  0  0  0  0
    5.4393   -1.4598    0.9537 C   0  0  0  0  0  0  0  0  0  0  0  0
    2.5110   -0.5237    0.7394 C   0  0  0  0  0  0  0  0  0  0  0  0
    9.3181   -0.9270   -2.5895 C   0  0  0  0  0  0  0  0  0  0  0  0
    9.0083   -2.1314   -1.9570 C   0  0  0  0  0  0  0  0  0  0  0  0
    8.2947   -0.0256   -2.8905 C   0  0  0  0  0  0  0  0  0  0  0  0
    7.6847   -2.4298   -1.6271 C   0  0  0  0  0  0  0  0  0  0  0  0
    6.9744   -0.3296   -2.5593 C   0  0  0  0  0  0  0  0  0  0  0  0
    5.2125   -1.8479   -1.5539 C   0  0  0  0  0  0  0  0  0  0  0  0
    4.6792   -1.0797   -0.3210 C   0  0  1  0  0  0  0  0  0  0  0  0
    6.6474   -1.5343   -1.9193 C   0  0  0  0  0  0  0  0  0  0  0  0
    3.2495   -1.3881   -0.1820 N   0  0  0  0  0  0  0  0  0  0  0  0
    0.4598   -0.1927    1.3788 H   0  0  0  0  0  0  0  0  0  0  0  0
    0.8134   -1.8663    0.8900 H   0  0  0  0  0  0  0  0  0  0  0  0
    0.6169   -0.6000   -0.3360 H   0  0  0  0  0  0  0  0  0  0  0  0
    6.5112   -1.2747    0.8339 H   0  0  0  0  0  0  0  0  0  0  0  0
    5.2870   -2.5217    1.1796 H   0  0  0  0  0  0  0  0  0  0  0  0
    5.0973   -0.8782    1.8159 H   0  0  0  0  0  0  0  0  0  0  0  0
    2.8629   -0.7173    1.7593 H   0  0  0  0  0  0  0  0  0  0  0  0
    2.6917    0.5529    0.5464 H   0  0  0  0  0  0  0  0  0  0  0  0
   10.3471   -0.6941   -2.8504 H   0  0  0  0  0  0  0  0  0  0  0  0
    9.7961   -2.8426   -1.7221 H   0  0  0  0  0  0  0  0  0  0  0  0
    8.5239    0.9128   -3.3889 H   0  0  0  0  0  0  0  0  0  0  0  0
    7.4512   -3.3726   -1.1376 H   0  0  0  0  0  0  0  0  0  0  0  0
    6.1832    0.3762   -2.8046 H   0  0  0  0  0  0  0  0  0  0  0  0
    4.5659   -1.6060   -2.4104 H   0  0  0  0  0  0  0  0  0  0  0  0
    5.0926   -2.9215   -1.3649 H   0  0  0  0  0  0  0  0  0  0  0  0
    4.8389    0.0026   -0.5033 H   0  0  0  0  0  0  0  0  0  0  0  0
    2.8159   -1.3052   -1.1019 H   0  0  0  0  0  0  0  0  0  0  0  0
  1  3  1  0  0  0  0
  1 14  1  0  0  0  0
  1 13  1  0  0  0  0
  2 17  1  0  0  0  0
  2 18  1  0  0  0  0
  3 19  1  0  0  0  0
  4  5  1  0  0  0  0
  5 22  1  0  0  0  0
  5  7  2  0  0  0  0
  6  4  2  0  0  0  0
  6  8  1  0  0  0  0
  7 24  1  0  0  0  0
  8 11  2  0  0  0  0
  9 27  1  0  0  0  0
  9 10  1  0  0  0  0
 10 28  1  6  0  0  0
 10 12  1  0  0  0  0
 10  2  1  0  0  0  0
 11  7  1  0  0  0  0
 11  9  1  0  0  0  0
 12  3  1  0  0  0  0
 15  1  1  0  0  0  0
 16  2  1  0  0  0  0
 20  3  1  0  0  0  0
 21  4  1  0  0  0  0
 23  6  1  0  0  0  0
 25  8  1  0  0  0  0
 26  9  1  0  0  0  0
 29 12  1  0  0  0  0
M  END
>  <HBA>
1

>  <HBD>
1

>  <TPSA>
12.03

>  <cid>
9982

>  <dipole>
0.85

>  <excitation_energy_1>
5.147

>  <excitation_energy_2>
5.28

>  <excitation_energy_3>
5.348

>  <excitation_energy_4>
5.515

>  <homo_energy>
-5.905

>  <homo_lumo_gap>
5.948

>  <logP>
2.618

>  <lumo_energy>
0.044

>  <melting_point>
31.67

>  <molecular_refractivity>
53.44

>  <oscillator_strength_1>
0.0022

>  <oscillator_strength_2>
0.001

>  <oscillator_strength_3>
0.0065

>  <oscillator_strength_4>
0.0047

>  <open_babel_can_smiles>
CCN[C@H](Cc1ccccc1)C

>  <mulliken_charges>
29
1   -0.454913
2   -0.44944
3   -0.108085
4   -0.131538
5   -0.127977
6   -0.128507
7   -0.184315
8   -0.178911
9   -0.368215
10   0.072079
11   0.173923
12   -0.558095
13   0.144881
14   0.159456
15   0.136903
16   0.154194
17   0.147465
18   0.143485
19   0.144481
20   0.10819
21   0.127369
22   0.128125
23   0.12755
24   0.125892
25   0.121013
26   0.133614
27   0.152041
28   0.103929
29   0.285408

>  <lowdin_charges>
29
1   -0.447624
2   -0.450698
3   -0.195478
4   -0.160366
5   -0.15756
6   -0.154811
7   -0.166803
8   -0.16898
9   -0.276402
10   -0.052964
11   -0.000956
12   -0.36682
13   0.154344
14   0.154905
15   0.143114
16   0.156255
17   0.150078
18   0.150423
19   0.141377
20   0.112043
21   0.155664
22   0.157929
23   0.156366
24   0.155293
25   0.154126
26   0.146334
27   0.152541
28   0.112256
29   0.246412

$$$$

