PCCDB-ID:  70455
public computational chemistry database (PCCDB) project, http://pccdb.org

 38 37  0  0  0  0  0  0  0  0999 V2000
    1.6409   -0.3243   -1.2162 C   0  0  0  0  0  0  0  0  0  0  0  0
    2.7379    0.9319    0.5879 C   0  0  0  0  0  0  0  0  0  0  0  0
    5.3863   -1.9251    1.5448 C   0  0  0  0  0  0  0  0  0  0  0  0
    5.5835   -0.7484   -0.6065 C   0  0  0  0  0  0  0  0  0  0  0  0
    4.3033   -4.0633   -0.8688 C   0  0  0  0  0  0  0  0  0  0  0  0
    3.3606   -4.8645    1.2522 C   0  0  0  0  0  0  0  0  0  0  0  0
    0.7773   -1.8185    1.7234 C   0  0  0  0  0  0  0  0  0  0  0  0
    0.3997   -3.4539   -0.0735 C   0  0  0  0  0  0  0  0  0  0  0  0
    3.3429   -1.4447    0.2068 C   0  0  0  0  0  0  0  0  0  0  0  0
    2.6977   -2.6404    0.3785 C   0  0  0  0  0  0  0  0  0  0  0  0
    2.7029   -0.2633   -0.2367 N   0  0  0  0  0  0  0  0  0  0  0  0
    4.7237   -1.2558    0.4480 N   0  0  0  0  0  0  0  0  0  0  0  0
    3.3076   -3.9003    0.1667 N   0  0  0  0  0  0  0  0  0  0  0  0
    1.3463   -2.7578    0.7824 N   0  0  0  0  0  0  0  0  0  0  0  0
    0.6297   -0.4189   -0.7865 H   0  0  0  0  0  0  0  0  0  0  0  0
    1.8062   -1.1810   -1.8763 H   0  0  0  0  0  0  0  0  0  0  0  0
    1.6511    0.5922   -1.8241 H   0  0  0  0  0  0  0  0  0  0  0  0
    2.7596    1.8289   -0.0460 H   0  0  0  0  0  0  0  0  0  0  0  0
    3.6480    0.9163    1.1925 H   0  0  0  0  0  0  0  0  0  0  0  0
    1.8696    1.0214    1.2636 H   0  0  0  0  0  0  0  0  0  0  0  0
    5.8420   -2.8936    1.2784 H   0  0  0  0  0  0  0  0  0  0  0  0
    4.6647   -2.1012    2.3478 H   0  0  0  0  0  0  0  0  0  0  0  0
    6.1912   -1.2830    1.9313 H   0  0  0  0  0  0  0  0  0  0  0  0
    6.3601   -0.0954   -0.1842 H   0  0  0  0  0  0  0  0  0  0  0  0
    4.9783   -0.1587   -1.2987 H   0  0  0  0  0  0  0  0  0  0  0  0
    6.0930   -1.5451   -1.1763 H   0  0  0  0  0  0  0  0  0  0  0  0
    5.3348   -3.8413   -0.5495 H   0  0  0  0  0  0  0  0  0  0  0  0
    4.0626   -3.4038   -1.7081 H   0  0  0  0  0  0  0  0  0  0  0  0
    4.2894   -5.1029   -1.2260 H   0  0  0  0  0  0  0  0  0  0  0  0
    3.3191   -5.8859    0.8507 H   0  0  0  0  0  0  0  0  0  0  0  0
    2.4942   -4.7146    1.9012 H   0  0  0  0  0  0  0  0  0  0  0  0
    4.2742   -4.7851    1.8674 H   0  0  0  0  0  0  0  0  0  0  0  0
    1.5543   -1.4912    2.4207 H   0  0  0  0  0  0  0  0  0  0  0  0
   -0.0186   -2.3171    2.2948 H   0  0  0  0  0  0  0  0  0  0  0  0
    0.3328   -0.9189    1.2656 H   0  0  0  0  0  0  0  0  0  0  0  0
   -0.3643   -3.9559    0.5353 H   0  0  0  0  0  0  0  0  0  0  0  0
    0.9388   -4.2132   -0.6447 H   0  0  0  0  0  0  0  0  0  0  0  0
   -0.1218   -2.7853   -0.7804 H   0  0  0  0  0  0  0  0  0  0  0  0
  1 15  1  0  0  0  0
  1 11  1  0  0  0  0
  2 19  1  0  0  0  0
  2 20  1  0  0  0  0
  3 23  1  0  0  0  0
  3 22  1  0  0  0  0
  4 24  1  0  0  0  0
  4 12  1  0  0  0  0
  5 27  1  0  0  0  0
  5 13  1  0  0  0  0
  6 32  1  0  0  0  0
  6 31  1  0  0  0  0
  7 34  1  0  0  0  0
  7 33  1  0  0  0  0
  8 36  1  0  0  0  0
  8 14  1  0  0  0  0
  9 10  1  0  0  0  0
  9 12  1  0  0  0  0
 10 14  1  0  0  0  0
 11  9  1  0  0  0  0
 11  2  1  0  0  0  0
 12  3  1  0  0  0  0
 13 10  1  0  0  0  0
 13  6  1  0  0  0  0
 14  7  1  0  0  0  0
 16  1  1  0  0  0  0
 17  1  1  0  0  0  0
 18  2  1  0  0  0  0
 21  3  1  0  0  0  0
 25  4  1  0  0  0  0
 26  4  1  0  0  0  0
 28  5  1  0  0  0  0
 29  5  1  0  0  0  0
 30  6  1  0  0  0  0
 35  7  1  0  0  0  0
 37  8  1  0  0  0  0
 38  8  1  0  0  0  0
M  RAD  2   9   2  10   2
M  END
>  <HBA>
4

>  <HBD>
0

>  <TPSA>
12.96

>  <cid>
70455

>  <dipole>
0.07

>  <excitation_energy_1>
3.39

>  <excitation_energy_2>
3.735

>  <excitation_energy_3>
3.802

>  <excitation_energy_4>
3.908

>  <homo_energy>
-3.799

>  <homo_lumo_gap>
5.287

>  <logP>
0.359

>  <lumo_energy>
1.488

>  <melting_point>
-2.05

>  <molecular_refractivity>
61.29

>  <oscillator_strength_1>
0.0244

>  <oscillator_strength_2>
0.0048

>  <oscillator_strength_3>
0.0001

>  <oscillator_strength_4>
0.0001

>  <open_babel_can_smiles>
CN([C]([C](N(C)C)N(C)C)N(C)C)C

>  <mulliken_charges>
38
1   -0.296124
2   -0.299208
3   -0.295582
4   -0.299617
5   -0.295823
6   -0.300032
7   -0.295801
8   -0.299516
9   0.323746
10   0.32569
11   -0.411319
12   -0.41072
13   -0.410439
14   -0.411409
15   0.131666
16   0.152019
17   0.135079
18   0.134967
19   0.162921
20   0.127818
21   0.13149
22   0.151869
23   0.134831
24   0.13418
25   0.164142
26   0.127661
27   0.132006
28   0.150912
29   0.135358
30   0.135159
31   0.163668
32   0.126736
33   0.150849
34   0.135371
35   0.131504
36   0.134862
37   0.164119
38   0.126966

>  <lowdin_charges>
38
1   -0.349425
2   -0.3546
3   -0.351156
4   -0.358263
5   -0.34809
6   -0.354107
7   -0.352631
8   -0.358497
9   0.001106
10   0.001054
11   -0.145007
12   -0.145465
13   -0.144854
14   -0.145809
15   0.126475
16   0.154348
17   0.14044
18   0.140263
19   0.159557
20   0.128376
21   0.126914
22   0.154611
23   0.141288
24   0.140355
25   0.161576
26   0.129338
27   0.126654
28   0.153712
29   0.139861
30   0.139215
31   0.159992
32   0.127349
33   0.154229
34   0.142012
35   0.127677
36   0.141357
37   0.161143
38   0.129002

$$$$

