PCCDB-ID:  7654
public computational chemistry database (PCCDB) project, http://pccdb.org

 24 24  0  0  0  0  0  0  0  0999 V2000
    2.2323    1.1108   -1.0207 C   0  0  0  0  0  0  0  0  0  0  0  0
    9.3808   -2.2858   -4.4356 C   0  0  0  0  0  0  0  0  0  0  0  0
    8.6263   -3.2154   -3.7181 C   0  0  0  0  0  0  0  0  0  0  0  0
    8.8402   -1.0297   -4.7179 C   0  0  0  0  0  0  0  0  0  0  0  0
    7.3401   -2.8883   -3.2861 C   0  0  0  0  0  0  0  0  0  0  0  0
    7.5537   -0.7072   -4.2850 C   0  0  0  0  0  0  0  0  0  0  0  0
    5.4071   -1.2599   -3.0602 C   0  0  0  0  0  0  0  0  0  0  0  0
    5.4846   -0.5274   -1.7150 C   0  0  0  0  0  0  0  0  0  0  0  0
    3.5926    0.9181   -1.6500 C   0  0  0  0  0  0  0  0  0  0  0  0
    6.7857   -1.6318   -3.5631 C   0  0  0  0  0  0  0  0  0  0  0  0
    4.1125    1.6730   -2.4428 O   0  0  0  0  0  0  0  0  0  0  0  0
    4.1681   -0.2240   -1.2018 O   0  0  0  0  0  0  0  0  0  0  0  0
    1.7811    2.0264   -1.4042 H   0  0  0  0  0  0  0  0  0  0  0  0
    2.3271    1.1701    0.0686 H   0  0  0  0  0  0  0  0  0  0  0  0
    1.5884    0.2543   -1.2456 H   0  0  0  0  0  0  0  0  0  0  0  0
   10.3808   -2.5399   -4.7768 H   0  0  0  0  0  0  0  0  0  0  0  0
    9.0365   -4.1977   -3.4981 H   0  0  0  0  0  0  0  0  0  0  0  0
    9.4188   -0.3013   -5.2801 H   0  0  0  0  0  0  0  0  0  0  0  0
    6.7552   -3.6196   -2.7318 H   0  0  0  0  0  0  0  0  0  0  0  0
    7.1358    0.2715   -4.5112 H   0  0  0  0  0  0  0  0  0  0  0  0
    4.9036   -0.6049   -3.7791 H   0  0  0  0  0  0  0  0  0  0  0  0
    4.7881   -2.1562   -2.9365 H   0  0  0  0  0  0  0  0  0  0  0  0
    6.0552    0.3993   -1.8121 H   0  0  0  0  0  0  0  0  0  0  0  0
    5.9439   -1.1592   -0.9509 H   0  0  0  0  0  0  0  0  0  0  0  0
  1 14  1  0  0  0  0
  2  3  1  0  0  0  0
  3 17  1  0  0  0  0
  3  5  2  0  0  0  0
  4  2  2  0  0  0  0
  4  6  1  0  0  0  0
  5 19  1  0  0  0  0
  6 10  2  0  0  0  0
  7 22  1  0  0  0  0
  7  8  1  0  0  0  0
  8 12  1  0  0  0  0
  8 24  1  0  0  0  0
  9 12  1  0  0  0  0
  9  1  1  0  0  0  0
 10  5  1  0  0  0  0
 10  7  1  0  0  0  0
 11  9  2  0  0  0  0
 13  1  1  0  0  0  0
 15  1  1  0  0  0  0
 16  2  1  0  0  0  0
 18  4  1  0  0  0  0
 20  6  1  0  0  0  0
 21  7  1  0  0  0  0
 23  8  1  0  0  0  0
M  END
>  <HBA>
2

>  <HBD>
0

>  <TPSA>
26.3

>  <cid>
7654

>  <dipole>
1.64

>  <excitation_energy_1>
5.309

>  <excitation_energy_2>
5.802

>  <excitation_energy_3>
5.902

>  <excitation_energy_4>
6.105

>  <homo_energy>
-6.58

>  <homo_lumo_gap>
6.531

>  <logP>
1.792

>  <lumo_energy>
-0.049

>  <melting_point>
17.6

>  <molecular_refractivity>
47.11

>  <oscillator_strength_1>
0.0002

>  <oscillator_strength_2>
0.0012

>  <oscillator_strength_3>
0.0542

>  <oscillator_strength_4>
0.0019

>  <open_babel_can_smiles>
CC(=O)OCCc1ccccc1

>  <mulliken_charges>
24
1   -0.522734
2   -0.130365
3   -0.127468
4   -0.127544
5   -0.181489
6   -0.181256
7   -0.368262
8   -0.039852
9   0.601166
10   0.154386
11   -0.470284
12   -0.453675
13   0.1823
14   0.18228
15   0.181157
16   0.129431
17   0.129426
18   0.131196
19   0.12351
20   0.138586
21   0.171399
22   0.150976
23   0.171994
24   0.155122

>  <lowdin_charges>
24
1   -0.46435
2   -0.157979
3   -0.154673
4   -0.15532
5   -0.169587
6   -0.164415
7   -0.286278
8   -0.13249
9   0.202268
10   -0.003852
11   -0.268597
12   -0.200181
13   0.175873
14   0.176346
15   0.178021
16   0.156927
17   0.157082
18   0.159765
19   0.155708
20   0.160623
21   0.165522
22   0.153994
23   0.159867
24   0.155724

$$$$

