PCCDB-ID:  27892
public computational chemistry database (PCCDB) project, http://pccdb.org

 36 35  0  0  1  0  0  0  0  0999 V2000
    4.5201   -0.0529   -4.8985 C   0  0  0  0  0  0  0  0  0  0  0  0
    9.2935   -5.9607    0.0554 C   0  0  0  0  0  0  0  0  0  0  0  0
    8.8922    1.4592   -0.2632 C   0  0  0  0  0  0  0  0  0  0  0  0
    5.1033    1.3637   -4.8399 C   0  0  0  0  0  0  0  0  0  0  0  0
    9.4357   -4.5916   -0.6157 C   0  0  0  0  0  0  0  0  0  0  0  0
    7.7891    0.7197   -0.1509 C   0  0  0  0  0  0  0  0  0  0  0  0
    6.1394    1.6087   -3.7284 C   0  0  0  0  0  0  0  0  0  0  0  0
    5.6014    1.4726   -2.2834 C   0  0  0  0  0  0  0  0  0  0  0  0
    8.2649   -3.6598   -0.2962 C   0  0  0  0  0  0  0  0  0  0  0  0
    5.8096    0.0983   -1.6202 C   0  0  0  0  0  0  0  0  0  0  0  0
    7.2649   -0.1876   -1.2304 C   0  0  2  0  0  0  0  0  0  0  0  0
    8.3918   -2.2941   -0.9453 C   0  0  0  0  0  0  0  0  0  0  0  0
    9.3514   -1.9051   -1.5756 O   0  0  0  0  0  0  0  0  0  0  0  0
    7.2737   -1.5599   -0.7253 O   0  0  0  0  0  0  0  0  0  0  0  0
    3.8415   -0.1610   -5.7525 H   0  0  0  0  0  0  0  0  0  0  0  0
    3.9495   -0.2975   -3.9954 H   0  0  0  0  0  0  0  0  0  0  0  0
    5.3117   -0.8050   -5.0066 H   0  0  0  0  0  0  0  0  0  0  0  0
   10.1459   -6.6063   -0.1834 H   0  0  0  0  0  0  0  0  0  0  0  0
    8.3835   -6.4768   -0.2751 H   0  0  0  0  0  0  0  0  0  0  0  0
    9.2430   -5.8680    1.1475 H   0  0  0  0  0  0  0  0  0  0  0  0
    9.2316    2.1065    0.5412 H   0  0  0  0  0  0  0  0  0  0  0  0
    9.5028    1.4374   -1.1627 H   0  0  0  0  0  0  0  0  0  0  0  0
    4.2830    2.0868   -4.7235 H   0  0  0  0  0  0  0  0  0  0  0  0
    5.5729    1.5940   -5.8060 H   0  0  0  0  0  0  0  0  0  0  0  0
    9.5136   -4.7114   -1.7029 H   0  0  0  0  0  0  0  0  0  0  0  0
   10.3696   -4.1119   -0.3008 H   0  0  0  0  0  0  0  0  0  0  0  0
    7.2002    0.7447    0.7670 H   0  0  0  0  0  0  0  0  0  0  0  0
    6.5378    2.6226   -3.8631 H   0  0  0  0  0  0  0  0  0  0  0  0
    6.9938    0.9339   -3.8789 H   0  0  0  0  0  0  0  0  0  0  0  0
    4.5270    1.7012   -2.2795 H   0  0  0  0  0  0  0  0  0  0  0  0
    6.0702    2.2339   -1.6478 H   0  0  0  0  0  0  0  0  0  0  0  0
    8.1747   -3.5018    0.7879 H   0  0  0  0  0  0  0  0  0  0  0  0
    7.3074   -4.0982   -0.6068 H   0  0  0  0  0  0  0  0  0  0  0  0
    5.4764   -0.7075   -2.2839 H   0  0  0  0  0  0  0  0  0  0  0  0
    5.1933    0.0297   -0.7136 H   0  0  0  0  0  0  0  0  0  0  0  0
    7.9260   -0.1500   -2.0994 H   0  0  0  0  0  0  0  0  0  0  0  0
  1  4  1  0  0  0  0
  1 16  1  0  0  0  0
  2 20  1  0  0  0  0
  3  6  2  0  0  0  0
  3 21  1  0  0  0  0
  4 23  1  0  0  0  0
  4  7  1  0  0  0  0
  5 26  1  0  0  0  0
  5  9  1  0  0  0  0
  5  2  1  0  0  0  0
  6 27  1  0  0  0  0
  7  8  1  0  0  0  0
  8 30  1  0  0  0  0
  8 31  1  0  0  0  0
  8 10  1  0  0  0  0
  9 32  1  0  0  0  0
 10 11  1  0  0  0  0
 10 35  1  0  0  0  0
 11 36  1  6  0  0  0
 11 14  1  0  0  0  0
 11  6  1  0  0  0  0
 12 14  1  0  0  0  0
 12  9  1  0  0  0  0
 13 12  2  0  0  0  0
 15  1  1  0  0  0  0
 17  1  1  0  0  0  0
 18  2  1  0  0  0  0
 19  2  1  0  0  0  0
 22  3  1  0  0  0  0
 24  4  1  0  0  0  0
 25  5  1  0  0  0  0
 28  7  1  0  0  0  0
 29  7  1  0  0  0  0
 33  9  1  0  0  0  0
 34 10  1  0  0  0  0
M  END
>  <HBA>
2

>  <HBD>
0

>  <TPSA>
26.3

>  <cid>
27892

>  <dipole>
1.63

>  <excitation_energy_1>
5.804

>  <excitation_energy_2>
6.425

>  <excitation_energy_3>
6.766

>  <excitation_energy_4>
6.798

>  <homo_energy>
-7.064

>  <homo_lumo_gap>
7.249

>  <logP>
3.465

>  <lumo_energy>
0.185

>  <melting_point>
-38.7

>  <molecular_refractivity>
60.61

>  <oscillator_strength_1>
0.0005

>  <oscillator_strength_2>
0.0164

>  <oscillator_strength_3>
0.0709

>  <oscillator_strength_4>
0.0387

>  <open_babel_can_smiles>
CCCCC[C@H](OC(=O)CCC)C=C

>  <mulliken_charges>
36
1   -0.443066
2   -0.446835
3   -0.330243
4   -0.250678
5   -0.242629
6   -0.055028
7   -0.258014
8   -0.270776
9   -0.356481
10   -0.285608
11   0.082127
12   0.626953
13   -0.477229
14   -0.488789
15   0.142509
16   0.146776
17   0.142478
18   0.147423
19   0.141433
20   0.141482
21   0.144809
22   0.156364
23   0.130682
24   0.132114
25   0.14864
26   0.15354
27   0.131439
28   0.133256
29   0.135058
30   0.135267
31   0.142702
32   0.168737
33   0.166204
34   0.150692
35   0.137511
36   0.167181

>  <lowdin_charges>
36
1   -0.450383
2   -0.443822
3   -0.318034
4   -0.272406
5   -0.266737
6   -0.160001
7   -0.280275
8   -0.282081
9   -0.30035
10   -0.28426
11   0.00422
12   0.200436
13   -0.26698
14   -0.200368
15   0.150504
16   0.147388
17   0.14697
18   0.153129
19   0.14659
20   0.144337
21   0.162247
22   0.165146
23   0.138736
24   0.141677
25   0.148135
26   0.152814
27   0.154073
28   0.144411
29   0.140451
30   0.143471
31   0.150192
32   0.165151
33   0.165157
34   0.153997
35   0.147351
36   0.159114

$$$$

