PCCDB-ID:  33362
public computational chemistry database (PCCDB) project, http://pccdb.org

 34 34  0  0  0  0  0  0  0  0999 V2000
    1.8889    1.0397    1.1208 C   0  0  0  0  0  0  0  0  0  0  0  0
    3.3165    1.3674    1.5681 C   0  0  0  0  0  0  0  0  0  0  0  0
    4.2733    1.5839    0.3886 C   0  0  0  0  0  0  0  0  0  0  0  0
    9.6444    1.9280    2.3785 C   0  0  0  0  0  0  0  0  0  0  0  0
    9.2485   -0.3008    3.1907 C   0  0  0  0  0  0  0  0  0  0  0  0
   11.4820    0.8151    3.5997 C   0  0  0  0  0  0  0  0  0  0  0  0
    8.3577    1.9800    1.8436 C   0  0  0  0  0  0  0  0  0  0  0  0
    7.9690   -0.2658    2.6664 C   0  0  0  0  0  0  0  0  0  0  0  0
   12.0816   -0.1373    4.3474 C   0  0  0  0  0  0  0  0  0  0  0  0
    5.6980    1.9267    0.8028 C   0  0  0  0  0  0  0  0  0  0  0  0
   10.1239    0.8002    3.0632 C   0  0  0  0  0  0  0  0  0  0  0  0
    7.5084    0.8758    1.9854 C   0  0  0  0  0  0  0  0  0  0  0  0
   13.4636   -0.0455    4.8033 C   0  0  0  0  0  0  0  0  0  0  0  0
   14.0177   -0.7516    5.7280 N   0  0  0  0  0  0  0  0  0  0  0  0
   14.2965    0.8797    4.2298 O   0  0  0  0  0  0  0  0  0  0  0  0
   13.0687   -1.5837    6.3646 O   0  0  0  0  0  0  0  0  0  0  0  0
    6.2394    0.8031    1.5023 O   0  0  0  0  0  0  0  0  0  0  0  0
    1.2286    0.8858    1.9815 H   0  0  0  0  0  0  0  0  0  0  0  0
    1.8628    0.1259    0.5146 H   0  0  0  0  0  0  0  0  0  0  0  0
    1.4639    1.8502    0.5158 H   0  0  0  0  0  0  0  0  0  0  0  0
    3.7044    0.5583    2.1980 H   0  0  0  0  0  0  0  0  0  0  0  0
    3.3077    2.2707    2.1949 H   0  0  0  0  0  0  0  0  0  0  0  0
    3.9060    2.4038   -0.2447 H   0  0  0  0  0  0  0  0  0  0  0  0
    4.2989    0.6861   -0.2430 H   0  0  0  0  0  0  0  0  0  0  0  0
   10.2944    2.7925    2.2631 H   0  0  0  0  0  0  0  0  0  0  0  0
    9.5793   -1.1975    3.7060 H   0  0  0  0  0  0  0  0  0  0  0  0
   12.0449    1.7227    3.3784 H   0  0  0  0  0  0  0  0  0  0  0  0
    8.0310    2.8742    1.3259 H   0  0  0  0  0  0  0  0  0  0  0  0
    7.2979   -1.1133    2.7647 H   0  0  0  0  0  0  0  0  0  0  0  0
   11.5522   -1.0280    4.6662 H   0  0  0  0  0  0  0  0  0  0  0  0
    5.7115    2.8104    1.4575 H   0  0  0  0  0  0  0  0  0  0  0  0
    6.3179    2.1453   -0.0782 H   0  0  0  0  0  0  0  0  0  0  0  0
   14.0374    0.9702    3.2989 H   0  0  0  0  0  0  0  0  0  0  0  0
   13.6310   -2.0759    6.9814 H   0  0  0  0  0  0  0  0  0  0  0  0
  1  2  1  0  0  0  0
  1 18  1  0  0  0  0
  2 22  1  0  0  0  0
  2 21  1  0  0  0  0
  3 10  1  0  0  0  0
  3  2  1  0  0  0  0
  4 11  2  0  0  0  0
  5 26  1  0  0  0  0
  6  9  2  0  0  0  0
  7 12  2  0  0  0  0
  7  4  1  0  0  0  0
  8 29  1  0  0  0  0
  8  5  2  0  0  0  0
  9 30  1  0  0  0  0
  9 13  1  0  0  0  0
 10 31  1  0  0  0  0
 10 17  1  0  0  0  0
 11  5  1  0  0  0  0
 11  6  1  0  0  0  0
 12  8  1  0  0  0  0
 13 14  2  0  0  0  0
 14 16  1  0  0  0  0
 15 13  1  0  0  0  0
 16 34  1  0  0  0  0
 17 12  1  0  0  0  0
 19  1  1  0  0  0  0
 20  1  1  0  0  0  0
 23  3  1  0  0  0  0
 24  3  1  0  0  0  0
 25  4  1  0  0  0  0
 27  6  1  0  0  0  0
 28  7  1  0  0  0  0
 32 10  1  0  0  0  0
 33 15  1  0  0  0  0
M  END
>  <HBA>
4

>  <HBD>
2

>  <TPSA>
58.56

>  <cid>
33362

>  <dipole>
4.65

>  <excitation_energy_1>
3.866

>  <excitation_energy_2>
4.425

>  <excitation_energy_3>
4.478

>  <excitation_energy_4>
4.928

>  <homo_energy>
-5.489

>  <homo_lumo_gap>
4.057

>  <logP>
2.775

>  <lumo_energy>
-1.431

>  <melting_point>
132.77

>  <molecular_refractivity>
65.98

>  <oscillator_strength_1>
0.8177

>  <oscillator_strength_2>
0.0208

>  <oscillator_strength_3>
0.0989

>  <oscillator_strength_4>
0.0014

>  <open_babel_can_smiles>
CCCCOc1ccc(cc1)/C=C/C(=N\O)/O

>  <mulliken_charges>
34
1   -0.443221
2   -0.249857
3   -0.271986
4   -0.205298
5   -0.180213
6   -0.199111
7   -0.19616
8   -0.17769
9   -0.162499
10   -0.039578
11   0.174996
12   0.387808
13   0.487527
14   -0.249436
15   -0.603627
16   -0.517271
17   -0.516814
18   0.146879
19   0.144872
20   0.141091
21   0.155898
22   0.130409
23   0.136569
24   0.149598
25   0.132565
26   0.139757
27   0.128482
28   0.13848
29   0.142981
30   0.167753
31   0.140694
32   0.142301
33   0.404571
34   0.419532

>  <lowdin_charges>
34
1   -0.445655
2   -0.27554
3   -0.281743
4   -0.144783
5   -0.139593
6   -0.144056
7   -0.213923
8   -0.178438
9   -0.202421
10   -0.128157
11   -0.025393
12   0.110382
13   0.09392
14   -0.092118
15   -0.373475
16   -0.38834
17   -0.194438
18   0.152727
19   0.148281
20   0.146968
21   0.152223
22   0.139722
23   0.149196
24   0.151263
25   0.158983
26   0.163879
27   0.153804
28   0.165453
29   0.169528
30   0.177081
31   0.139213
32   0.141893
33   0.354921
34   0.358635

$$$$

