PCCDB-ID:  5808
public computational chemistry database (PCCDB) project, http://pccdb.org

 32 32  0  0  1  0  0  0  0  0999 V2000
    2.3893   -4.4192    2.7920 C   0  0  0  0  0  0  0  0  0  0  0  0
    4.6187   -5.5469    2.3719 C   0  0  0  0  0  0  0  0  0  0  0  0
    5.7670   -1.0621    0.2040 C   0  0  0  0  0  0  0  0  0  0  0  0
    5.6364   -0.8604   -1.1741 C   0  0  0  0  0  0  0  0  0  0  0  0
    3.9015    0.4123    0.5774 C   0  0  0  0  0  0  0  0  0  0  0  0
    4.1007   -1.8571    3.0414 C   0  0  0  0  0  0  0  0  0  0  0  0
    3.9147   -4.3326    2.9859 C   0  0  0  0  0  0  0  0  0  0  0  0
    4.8969   -0.4303    1.0936 C   0  0  0  0  0  0  0  0  0  0  0  0
    4.6484   -0.0224   -1.6851 C   0  0  0  0  0  0  0  0  0  0  0  0
    3.7716    0.6253   -0.7916 C   0  0  0  0  0  0  0  0  0  0  0  0
    4.9915   -0.6806    2.5845 C   0  0  1  0  0  0  0  0  0  0  0  0
    4.5347   -3.1136    2.4479 N   0  0  0  0  0  0  0  0  0  0  0  0
    4.4766    0.2220   -3.0196 O   0  0  0  0  0  0  0  0  0  0  0  0
    2.8228    1.4460   -1.3355 O   0  0  0  0  0  0  0  0  0  0  0  0
    4.5916    0.5156    3.2581 O   0  0  0  0  0  0  0  0  0  0  0  0
    1.8721   -3.5676    3.2471 H   0  0  0  0  0  0  0  0  0  0  0  0
    2.1353   -4.4361    1.7237 H   0  0  0  0  0  0  0  0  0  0  0  0
    1.9865   -5.3329    3.2454 H   0  0  0  0  0  0  0  0  0  0  0  0
    4.2424   -6.4814    2.8030 H   0  0  0  0  0  0  0  0  0  0  0  0
    5.6985   -5.4900    2.5400 H   0  0  0  0  0  0  0  0  0  0  0  0
    4.4453   -5.5894    1.2881 H   0  0  0  0  0  0  0  0  0  0  0  0
    6.5504   -1.7134    0.5806 H   0  0  0  0  0  0  0  0  0  0  0  0
    6.3216   -1.3528   -1.8625 H   0  0  0  0  0  0  0  0  0  0  0  0
    3.2350    0.9263    1.2657 H   0  0  0  0  0  0  0  0  0  0  0  0
    4.1998   -1.9555    4.1336 H   0  0  0  0  0  0  0  0  0  0  0  0
    3.0501   -1.5821    2.8392 H   0  0  0  0  0  0  0  0  0  0  0  0
    4.1212   -4.3286    4.0664 H   0  0  0  0  0  0  0  0  0  0  0  0
    6.0325   -0.9363    2.8326 H   0  0  0  0  0  0  0  0  0  0  0  0
    4.3879   -3.0753    1.4394 H   0  0  0  0  0  0  0  0  0  0  0  0
    5.1522   -0.2720   -3.5092 H   0  0  0  0  0  0  0  0  0  0  0  0
    2.3133    1.8400   -0.6104 H   0  0  0  0  0  0  0  0  0  0  0  0
    4.6149    0.3326    4.2103 H   0  0  0  0  0  0  0  0  0  0  0  0
  1  7  1  0  0  0  0
  1 18  1  0  0  0  0
  1 16  1  0  0  0  0
  2 20  1  0  0  0  0
  2 19  1  0  0  0  0
  2  7  1  0  0  0  0
  3 22  1  0  0  0  0
  3  8  2  0  0  0  0
  4  3  1  0  0  0  0
  5  8  1  0  0  0  0
  5 24  1  0  0  0  0
  6 25  1  0  0  0  0
  7 27  1  0  0  0  0
  8 11  1  0  0  0  0
  9  4  2  0  0  0  0
  9 10  1  0  0  0  0
 10  5  2  0  0  0  0
 11 28  1  1  0  0  0
 11  6  1  0  0  0  0
 11 15  1  0  0  0  0
 12  7  1  0  0  0  0
 12  6  1  0  0  0  0
 13  9  1  0  0  0  0
 14 10  1  0  0  0  0
 14 31  1  0  0  0  0
 15 32  1  0  0  0  0
 17  1  1  0  0  0  0
 21  2  1  0  0  0  0
 23  4  1  0  0  0  0
 26  6  1  0  0  0  0
 29 12  1  0  0  0  0
 30 13  1  0  0  0  0
M  END
>  <HBA>
4

>  <HBD>
4

>  <TPSA>
72.72

>  <cid>
5808

>  <dipole>
2.32

>  <excitation_energy_1>
4.799

>  <excitation_energy_2>
4.845

>  <excitation_energy_3>
5.075

>  <excitation_energy_4>
5.19

>  <homo_energy>
-5.459

>  <homo_lumo_gap>
5.69

>  <logP>
1.52

>  <lumo_energy>
0.231

>  <melting_point>
132.24

>  <molecular_refractivity>
58.65

>  <oscillator_strength_1>
0.0242

>  <oscillator_strength_2>
0.0377

>  <oscillator_strength_3>
0.001

>  <oscillator_strength_4>
0.0032

>  <open_babel_can_smiles>
CC(NC[C@@H](c1ccc(c(c1)O)O)O)C

>  <mulliken_charges>
32
1   -0.44867
2   -0.442962
3   -0.201331
4   -0.201561
5   -0.248685
6   -0.136511
7   0.052369
8   0.122525
9   0.319897
10   0.32732
11   0.076032
12   -0.561908
13   -0.63291
14   -0.635516
15   -0.63565
16   0.146163
17   0.137802
18   0.140745
19   0.140326
20   0.154995
21   0.135509
22   0.134062
23   0.117455
24   0.13837
25   0.118224
26   0.126577
27   0.125882
28   0.128372
29   0.297877
30   0.406064
31   0.407833
32   0.391304

>  <lowdin_charges>
32
1   -0.463173
2   -0.44372
3   -0.182865
4   -0.210884
5   -0.207924
6   -0.214937
7   -0.053811
8   -0.02388
9   0.076336
10   0.079183
11   -0.00046
12   -0.363063
13   -0.373213
14   -0.371623
15   -0.457803
16   0.150634
17   0.144439
18   0.150997
19   0.149948
20   0.154583
21   0.142766
22   0.162043
23   0.154713
24   0.166136
25   0.13132
26   0.12298
27   0.132938
28   0.135663
29   0.252823
30   0.358926
31   0.359519
32   0.341406

$$$$

