PCCDB-ID:  66876
public computational chemistry database (PCCDB) project, http://pccdb.org

 27 27  0  0  0  0  0  0  0  0999 V2000
    3.7333    1.3176   -0.9008 C   0  0  0  0  0  0  0  0  0  0  0  0
    8.1052   -1.6986   -0.1764 C   0  0  0  0  0  0  0  0  0  0  0  0
    7.3722   -1.3990    0.9760 C   0  0  0  0  0  0  0  0  0  0  0  0
    7.4540   -1.7818   -1.4065 C   0  0  0  0  0  0  0  0  0  0  0  0
    5.9980   -1.1844    0.8953 C   0  0  0  0  0  0  0  0  0  0  0  0
    6.0757   -1.5640   -1.4837 C   0  0  0  0  0  0  0  0  0  0  0  0
    2.0348    0.3162    0.5487 C   0  0  0  0  0  0  0  0  0  0  0  0
    1.9618   -0.2549    1.9712 C   0  0  0  0  0  0  0  0  0  0  0  0
    3.8332   -1.0525   -0.4026 C   0  0  0  0  0  0  0  0  0  0  0  0
    5.3334   -1.2653   -0.3371 C   0  0  0  0  0  0  0  0  0  0  0  0
    3.4253    0.2773    0.0758 N   0  0  0  0  0  0  0  0  0  0  0  0
    2.9431    0.3531    2.7907 O   0  0  0  0  0  0  0  0  0  0  0  0
    3.5136    2.3017   -0.4753 H   0  0  0  0  0  0  0  0  0  0  0  0
    3.1603    1.2079   -1.8406 H   0  0  0  0  0  0  0  0  0  0  0  0
    4.7987    1.2817   -1.1471 H   0  0  0  0  0  0  0  0  0  0  0  0
    9.1772   -1.8655   -0.1130 H   0  0  0  0  0  0  0  0  0  0  0  0
    7.8733   -1.3350    1.9384 H   0  0  0  0  0  0  0  0  0  0  0  0
    8.0160   -2.0137   -2.3075 H   0  0  0  0  0  0  0  0  0  0  0  0
    5.4274   -0.9541    1.7919 H   0  0  0  0  0  0  0  0  0  0  0  0
    5.5711   -1.6294   -2.4454 H   0  0  0  0  0  0  0  0  0  0  0  0
    1.7313    1.3680    0.5853 H   0  0  0  0  0  0  0  0  0  0  0  0
    1.3346   -0.2074   -0.1272 H   0  0  0  0  0  0  0  0  0  0  0  0
    2.0847   -1.3515    1.9539 H   0  0  0  0  0  0  0  0  0  0  0  0
    0.9757   -0.0507    2.4045 H   0  0  0  0  0  0  0  0  0  0  0  0
    3.3415   -1.7990    0.2311 H   0  0  0  0  0  0  0  0  0  0  0  0
    3.4727   -1.2299   -1.4329 H   0  0  0  0  0  0  0  0  0  0  0  0
    3.6773    0.5374    2.1716 H   0  0  0  0  0  0  0  0  0  0  0  0
  1 13  1  0  0  0  0
  1 11  1  0  0  0  0
  2 16  1  0  0  0  0
  2  3  2  0  0  0  0
  3 17  1  0  0  0  0
  4  2  1  0  0  0  0
  5  3  1  0  0  0  0
  5 19  1  0  0  0  0
  6  4  2  0  0  0  0
  6 10  1  0  0  0  0
  7 21  1  0  0  0  0
  7  8  1  0  0  0  0
  8 24  1  0  0  0  0
  8 12  1  0  0  0  0
  9 10  1  0  0  0  0
  9 11  1  0  0  0  0
  9 25  1  0  0  0  0
 10  5  2  0  0  0  0
 11  7  1  0  0  0  0
 14  1  1  0  0  0  0
 15  1  1  0  0  0  0
 18  4  1  0  0  0  0
 20  6  1  0  0  0  0
 22  7  1  0  0  0  0
 23  8  1  0  0  0  0
 26  9  1  0  0  0  0
 27 12  1  0  0  0  0
M  END
>  <HBA>
2

>  <HBD>
1

>  <TPSA>
23.47

>  <cid>
66876

>  <dipole>
2.56

>  <excitation_energy_1>
5.091

>  <excitation_energy_2>
5.217

>  <excitation_energy_3>
5.428

>  <excitation_energy_4>
5.745

>  <homo_energy>
-6.174

>  <homo_lumo_gap>
6.044

>  <logP>
1.111

>  <lumo_energy>
-0.131

>  <melting_point>
26.41

>  <molecular_refractivity>
49.89

>  <oscillator_strength_1>
0.0004

>  <oscillator_strength_2>
0.0066

>  <oscillator_strength_3>
0.0161

>  <oscillator_strength_4>
0.0517

>  <open_babel_can_smiles>
OCCN(Cc1ccccc1)C

>  <mulliken_charges>
27
1   -0.305139
2   -0.128636
3   -0.131827
4   -0.128114
5   -0.17158
6   -0.186962
7   -0.155668
8   -0.014788
9   -0.222393
10   0.163029
11   -0.403102
12   -0.638755
13   0.155779
14   0.123836
15   0.166983
16   0.129876
17   0.132938
18   0.129452
19   0.136926
20   0.124251
21   0.149568
22   0.122079
23   0.118905
24   0.139347
25   0.160143
26   0.126104
27   0.407747

>  <lowdin_charges>
27
1   -0.357668
2   -0.154981
3   -0.154025
4   -0.157381
5   -0.159324
6   -0.169575
7   -0.222696
8   -0.137168
9   -0.199784
10   -0.012727
11   -0.186411
12   -0.481033
13   0.152932
14   0.125027
15   0.158204
16   0.156031
17   0.158954
18   0.158173
19   0.160658
20   0.154314
21   0.15052
22   0.131261
23   0.119192
24   0.144686
25   0.159019
26   0.128276
27   0.335526

$$$$

