PCCDB-ID:  30209
public computational chemistry database (PCCDB) project, http://pccdb.org

 23 22  0  0  0  0  0  0  0  0999 V2000
    1.5777    2.1127    0.8512 C   0  0  0  0  0  0  0  0  0  0  0  0
    1.2101    0.6504    0.5727 C   0  0  0  0  0  0  0  0  0  0  0  0
    1.8681   -0.3655    1.5211 C   0  0  0  0  0  0  0  0  0  0  0  0
    3.3968   -0.4486    1.4037 C   0  0  0  0  0  0  0  0  0  0  0  0
    3.9999   -1.5229    2.3208 C   0  0  0  0  0  0  0  0  0  0  0  0
    5.5156   -1.5886    2.1890 C   0  0  0  0  0  0  0  0  0  0  0  0
    7.3478   -2.8301    3.1175 N   0  0  0  0  0  0  0  0  0  0  0  0
    7.6857   -3.7054    3.8780 O   0  0  0  0  0  0  0  0  0  0  0  0
    8.0279   -2.1261    2.3964 O   0  0  0  0  0  0  0  0  0  0  0  0
    5.9503   -2.6313    3.0970 O   0  0  0  0  0  0  0  0  0  0  0  0
    1.0307    2.7883    0.1839 H   0  0  0  0  0  0  0  0  0  0  0  0
    2.6466    2.3035    0.7031 H   0  0  0  0  0  0  0  0  0  0  0  0
    1.3299    2.3927    1.8828 H   0  0  0  0  0  0  0  0  0  0  0  0
    1.4724    0.3977   -0.4647 H   0  0  0  0  0  0  0  0  0  0  0  0
    0.1204    0.5374    0.6461 H   0  0  0  0  0  0  0  0  0  0  0  0
    1.4451   -1.3605    1.3235 H   0  0  0  0  0  0  0  0  0  0  0  0
    1.5982   -0.1198    2.5588 H   0  0  0  0  0  0  0  0  0  0  0  0
    3.8443    0.5250    1.6440 H   0  0  0  0  0  0  0  0  0  0  0  0
    3.6681   -0.6631    0.3595 H   0  0  0  0  0  0  0  0  0  0  0  0
    3.5760   -2.5052    2.0778 H   0  0  0  0  0  0  0  0  0  0  0  0
    3.7391   -1.3144    3.3659 H   0  0  0  0  0  0  0  0  0  0  0  0
    5.9929   -0.6445    2.4699 H   0  0  0  0  0  0  0  0  0  0  0  0
    5.8276   -1.8445    1.1714 H   0  0  0  0  0  0  0  0  0  0  0  0
  1 13  1  0  0  0  0
  2 15  1  0  0  0  0
  2  1  1  0  0  0  0
  2  3  1  0  0  0  0
  3 17  1  0  0  0  0
  4  3  1  0  0  0  0
  4 18  1  0  0  0  0
  4  5  1  0  0  0  0
  5 21  1  0  0  0  0
  6  5  1  0  0  0  0
  6 22  1  0  0  0  0
  6 10  1  0  0  0  0
  7  8  2  0  0  0  0
  9  7  2  0  0  0  0
 10  7  1  0  0  0  0
 11  1  1  0  0  0  0
 12  1  1  0  0  0  0
 14  2  1  0  0  0  0
 16  3  1  0  0  0  0
 19  4  1  0  0  0  0
 20  5  1  0  0  0  0
 23  6  1  0  0  0  0
M  END
>  <HBA>
0

>  <HBD>
0

>  <TPSA>
55.05

>  <cid>
30209

>  <dipole>
3.83

>  <excitation_energy_1>
4.702

>  <excitation_energy_2>
5.585

>  <excitation_energy_3>
6.17

>  <excitation_energy_4>
6.467

>  <homo_energy>
-8.4

>  <homo_lumo_gap>
6.754

>  <logP>
2.298

>  <lumo_energy>
-1.646

>  <melting_point>
-2.41

>  <molecular_refractivity>
40.15

>  <oscillator_strength_1>
0.0

>  <oscillator_strength_2>
0.0004

>  <oscillator_strength_3>
0.0789

>  <oscillator_strength_4>
0.0004

>  <open_babel_can_smiles>
CCCCCCON(=O)=O

>  <mulliken_charges>
23
1   -0.445118
2   -0.250952
3   -0.250383
4   -0.266149
5   -0.286364
6   -0.031656
7   0.751663
8   -0.358745
9   -0.372371
10   -0.385912
11   0.146678
12   0.145662
13   0.143003
14   0.132345
15   0.136142
16   0.133209
17   0.132261
18   0.141286
19   0.135788
20   0.157317
21   0.157764
22   0.167472
23   0.16706

>  <lowdin_charges>
23
1   -0.446536
2   -0.26955
3   -0.272266
4   -0.274549
5   -0.277347
6   -0.137062
7   0.378333
8   -0.200233
9   -0.225781
10   -0.182897
11   0.153649
12   0.145264
13   0.14612
14   0.138803
15   0.142703
16   0.142418
17   0.139094
18   0.143477
19   0.140482
20   0.153744
21   0.153302
22   0.155
23   0.153831

$$$$

