PCCDB-ID:  12021
public computational chemistry database (PCCDB) project, http://pccdb.org

 12 11  0  0  0  0  0  0  0  0999 V2000
    3.9059   -2.2165   -1.3848 C   0  0  0  0  0  0  0  0  0  0  0  0
    4.0118    2.4147   -0.8009 C   0  0  0  0  0  0  0  0  0  0  0  0
    3.8774    0.0984   -1.0726 C   0  0  0  0  0  0  0  0  0  0  0  0
    2.7022    0.0880   -0.7773 O   0  0  0  0  0  0  0  0  0  0  0  0
    4.6185   -0.9704   -1.4014 O   0  0  0  0  0  0  0  0  0  0  0  0
    4.6680    1.1807   -1.1287 O   0  0  0  0  0  0  0  0  0  0  0  0
    3.0765   -2.1965   -2.0967 H   0  0  0  0  0  0  0  0  0  0  0  0
    3.5146   -2.4239   -0.3853 H   0  0  0  0  0  0  0  0  0  0  0  0
    4.6389   -2.9706   -1.6726 H   0  0  0  0  0  0  0  0  0  0  0  0
    3.6169    2.3831    0.2181 H   0  0  0  0  0  0  0  0  0  0  0  0
    3.1917    2.6122   -1.4963 H   0  0  0  0  0  0  0  0  0  0  0  0
    4.7814    3.1818   -0.8894 H   0  0  0  0  0  0  0  0  0  0  0  0
  1  8  1  0  0  0  0
  2 10  1  0  0  0  0
  3  4  2  0  0  0  0
  5  1  1  0  0  0  0
  5  3  1  0  0  0  0
  6  3  1  0  0  0  0
  6  2  1  0  0  0  0
  7  1  1  0  0  0  0
  9  1  1  0  0  0  0
 11  2  1  0  0  0  0
 12  2  1  0  0  0  0
M  END
>  <HBA>
3

>  <HBD>
0

>  <TPSA>
35.53

>  <cid>
12021

>  <dipole>
0.31

>  <excitation_energy_1>
6.925

>  <excitation_energy_2>
7.425

>  <excitation_energy_3>
7.777

>  <excitation_energy_4>
7.913

>  <homo_energy>
-7.744

>  <homo_lumo_gap>
8.879

>  <logP>
0.399

>  <lumo_energy>
1.135

>  <melting_point>
-10.75

>  <molecular_refractivity>
19.29

>  <oscillator_strength_1>
0.0

>  <oscillator_strength_2>
0.0191

>  <oscillator_strength_3>
0.0

>  <oscillator_strength_4>
0.022

>  <open_babel_can_smiles>
COC(=O)OC

>  <mulliken_charges>
12
1   -0.215466
2   -0.215344
3   0.794583
4   -0.494422
5   -0.446879
6   -0.446894
7   0.171661
8   0.171513
9   0.16908
10   0.171672
11   0.17145
12   0.169046

>  <lowdin_charges>
12
1   -0.272144
2   -0.27168
3   0.222913
4   -0.290157
5   -0.177306
6   -0.177164
7   0.160067
8   0.159051
9   0.16393
10   0.158646
11   0.160213
12   0.163632

$$$$

