PCCDB-ID:  17686
public computational chemistry database (PCCDB) project, http://pccdb.org

 26 27  0  0  0  0  0  0  0  0999 V2000
    4.9696   -1.5427   -3.8401 C   0  0  0  0  0  0  0  0  0  0  0  0
    4.2839   -0.9062   -2.8987 C   0  0  0  0  0  0  0  0  0  0  0  0
    1.2068    2.0892    4.9179 C   0  0  0  0  0  0  0  0  0  0  0  0
    1.7804    3.3202    4.5743 C   0  0  0  0  0  0  0  0  0  0  0  0
    1.6003    0.9050    4.2810 C   0  0  0  0  0  0  0  0  0  0  0  0
    2.7661    3.4072    3.5825 C   0  0  0  0  0  0  0  0  0  0  0  0
    4.8899   -0.0336    0.6080 C   0  0  0  0  0  0  0  0  0  0  0  0
    2.5752    1.0018    3.2991 C   0  0  0  0  0  0  0  0  0  0  0  0
    3.1471    2.2296    2.9562 C   0  0  0  0  0  0  0  0  0  0  0  0
    4.0952   -0.0921   -0.6934 C   0  0  0  0  0  0  0  0  0  0  0  0
    3.1956   -0.0592    2.4531 C   0  0  0  0  0  0  0  0  0  0  0  0
    4.1529    1.9966    1.8792 C   0  0  0  0  0  0  0  0  0  0  0  0
    4.1450    0.6074    1.6575 N   0  0  0  0  0  0  0  0  0  0  0  0
    2.9976    0.3727   -0.8685 O   0  0  0  0  0  0  0  0  0  0  0  0
    2.9805   -1.2531    2.4256 O   0  0  0  0  0  0  0  0  0  0  0  0
    4.8636    2.7904    1.2982 O   0  0  0  0  0  0  0  0  0  0  0  0
    4.8296   -0.7510   -1.6307 O   0  0  0  0  0  0  0  0  0  0  0  0
    4.5410   -1.6610   -4.8284 H   0  0  0  0  0  0  0  0  0  0  0  0
    5.9561   -1.9535   -3.6525 H   0  0  0  0  0  0  0  0  0  0  0  0
    3.2978   -0.4729   -3.0154 H   0  0  0  0  0  0  0  0  0  0  0  0
    0.4439    2.0543    5.6904 H   0  0  0  0  0  0  0  0  0  0  0  0
    1.4535    4.2212    5.0856 H   0  0  0  0  0  0  0  0  0  0  0  0
    1.1620   -0.0542    4.5386 H   0  0  0  0  0  0  0  0  0  0  0  0
    3.2166    4.3558    3.3076 H   0  0  0  0  0  0  0  0  0  0  0  0
    5.8128    0.5275    0.4345 H   0  0  0  0  0  0  0  0  0  0  0  0
    5.1501   -1.0506    0.9143 H   0  0  0  0  0  0  0  0  0  0  0  0
  1 19  1  0  0  0  0
  1  2  2  0  0  0  0
  2 17  1  0  0  0  0
  3 21  1  0  0  0  0
  4  3  1  0  0  0  0
  4 22  1  0  0  0  0
  5 23  1  0  0  0  0
  5  3  2  0  0  0  0
  6  4  2  0  0  0  0
  7 26  1  0  0  0  0
  7 13  1  0  0  0  0
  8  5  1  0  0  0  0
  9  8  2  0  0  0  0
  9  6  1  0  0  0  0
 10  7  1  0  0  0  0
 11  8  1  0  0  0  0
 12  9  1  0  0  0  0
 13 12  1  0  0  0  0
 13 11  1  0  0  0  0
 14 10  2  0  0  0  0
 15 11  2  0  0  0  0
 16 12  2  0  0  0  0
 17 10  1  0  0  0  0
 18  1  1  0  0  0  0
 20  2  1  0  0  0  0
 24  6  1  0  0  0  0
 25  7  1  0  0  0  0
M  END
>  <HBA>
5

>  <HBD>
0

>  <TPSA>
63.68

>  <cid>
17686

>  <dipole>
1.85

>  <excitation_energy_1>
3.868

>  <excitation_energy_2>
4.189

>  <excitation_energy_3>
4.21

>  <excitation_energy_4>
4.475

>  <homo_energy>
-6.969

>  <homo_lumo_gap>
4.705

>  <logP>
0.907

>  <lumo_energy>
-2.264

>  <melting_point>
89.84

>  <molecular_refractivity>
61.95

>  <oscillator_strength_1>
0.0001

>  <oscillator_strength_2>
0.0003

>  <oscillator_strength_3>
0.0001

>  <oscillator_strength_4>
0.0011

>  <open_babel_can_smiles>
C=COC(=O)CN1C(=O)c2c(C1=O)cccc2

>  <mulliken_charges>
26
1   -0.385745
2   0.157369
3   -0.127902
4   -0.128065
5   -0.178403
6   -0.178284
7   -0.262149
8   0.045575
9   0.045649
10   0.645581
11   0.586801
12   0.586158
13   -0.520179
14   -0.449811
15   -0.476967
16   -0.476889
17   -0.455949
18   0.159293
19   0.159648
20   0.187729
21   0.149406
22   0.14939
23   0.167601
24   0.16756
25   0.217496
26   0.215087

>  <lowdin_charges>
26
1   -0.354403
2   -0.030865
3   -0.136668
4   -0.138407
5   -0.127523
6   -0.12776
7   -0.22187
8   -0.033677
9   -0.033992
10   0.19867
11   0.174642
12   0.18016
13   -0.085158
14   -0.234627
15   -0.240919
16   -0.243345
17   -0.147299
18   0.174908
19   0.171412
20   0.175945
21   0.167814
22   0.168172
23   0.178549
24   0.178601
25   0.195165
26   0.192475

$$$$

