PCCDB-ID:  70999
public computational chemistry database (PCCDB) project, http://pccdb.org

 22 22  0  0  0  0  0  0  0  0999 V2000
    1.1547    1.2761   -0.7955 C   0  0  0  0  0  0  0  0  0  0  0  0
    2.6035    0.7589   -0.7056 C   0  0  0  0  0  0  0  0  0  0  0  0
    2.6099   -1.6780   -1.2800 C   0  0  0  0  0  0  0  0  0  0  0  0
    2.8173   -2.7772   -2.1029 C   0  0  0  0  0  0  0  0  0  0  0  0
    3.6514   -1.2934   -3.8305 C   0  0  0  0  0  0  0  0  0  0  0  0
    2.8836   -0.3595   -1.6874 C   0  0  0  0  0  0  0  0  0  0  0  0
    3.3381   -2.5652   -3.3780 C   0  0  0  0  0  0  0  0  0  0  0  0
    3.4064   -0.2104   -2.9878 C   0  0  0  0  0  0  0  0  0  0  0  0
    3.5710   -3.7167   -4.2653 N   0  0  0  0  0  0  0  0  0  0  0  0
    3.7451    1.1138   -3.5499 N   0  0  0  0  0  0  0  0  0  0  0  0
    3.2922   -4.8316   -3.8269 O   0  0  0  0  0  0  0  0  0  0  0  0
    4.0268   -3.4905   -5.3838 O   0  0  0  0  0  0  0  0  0  0  0  0
    4.5944    1.1480   -4.4372 O   0  0  0  0  0  0  0  0  0  0  0  0
    3.1503    2.0997   -3.1145 O   0  0  0  0  0  0  0  0  0  0  0  0
    0.9896    2.0535   -0.0423 H   0  0  0  0  0  0  0  0  0  0  0  0
    0.4340    0.4704   -0.6162 H   0  0  0  0  0  0  0  0  0  0  0  0
    0.9597    1.7057   -1.7809 H   0  0  0  0  0  0  0  0  0  0  0  0
    2.7820    0.3646    0.3020 H   0  0  0  0  0  0  0  0  0  0  0  0
    3.2921    1.5910   -0.8589 H   0  0  0  0  0  0  0  0  0  0  0  0
    2.2212   -1.8348   -0.2779 H   0  0  0  0  0  0  0  0  0  0  0  0
    2.5931   -3.7851   -1.7761 H   0  0  0  0  0  0  0  0  0  0  0  0
    4.0745   -1.1421   -4.8141 H   0  0  0  0  0  0  0  0  0  0  0  0
  1  2  1  0  0  0  0
  1 16  1  0  0  0  0
  1 15  1  0  0  0  0
  2 18  1  0  0  0  0
  3 20  1  0  0  0  0
  4 21  1  0  0  0  0
  4  3  2  0  0  0  0
  5  7  2  0  0  0  0
  5  8  1  0  0  0  0
  6  3  1  0  0  0  0
  6  2  1  0  0  0  0
  7  4  1  0  0  0  0
  8  6  2  0  0  0  0
  9 11  2  0  0  0  0
  9  7  1  0  0  0  0
 10 14  2  0  0  0  0
 10  8  1  0  0  0  0
 12  9  2  0  0  0  0
 13 10  2  0  0  0  0
 17  1  1  0  0  0  0
 19  2  1  0  0  0  0
 22  5  1  0  0  0  0
M  END
>  <HBA>
0

>  <HBD>
0

>  <TPSA>
91.64

>  <cid>
70999

>  <dipole>
4.91

>  <excitation_energy_1>
3.711

>  <excitation_energy_2>
3.746

>  <excitation_energy_3>
4.195

>  <excitation_energy_4>
4.238

>  <homo_energy>
-8.025

>  <homo_lumo_gap>
5.07

>  <logP>
3.112

>  <lumo_energy>
-2.955

>  <melting_point>
86.08

>  <molecular_refractivity>
53.86

>  <oscillator_strength_1>
0.0092

>  <oscillator_strength_2>
0.0

>  <oscillator_strength_3>
0.0061

>  <oscillator_strength_4>
0.0007

>  <open_babel_can_smiles>
CCc1ccc(cc1N(=O)=O)N(=O)=O

>  <mulliken_charges>
22
1   -0.445039
2   -0.329661
3   -0.206702
4   -0.121667
5   -0.167114
6   0.187803
7   0.26644
8   0.198532
9   0.383617
10   0.363744
11   -0.388018
12   -0.383558
13   -0.370534
14   -0.381992
15   0.159183
16   0.146942
17   0.179063
18   0.151435
19   0.177779
20   0.158479
21   0.195277
22   0.225991

>  <lowdin_charges>
22
1   -0.439211
2   -0.274525
3   -0.149912
4   -0.116586
5   -0.117421
6   0.042196
7   0.001694
8   0.000994
9   0.307052
10   0.307262
11   -0.238716
12   -0.232802
13   -0.230861
14   -0.234814
15   0.159943
16   0.14991
17   0.164437
18   0.153997
19   0.170366
20   0.172187
21   0.193878
22   0.210932

$$$$

