PCCDB-ID:  38692
public computational chemistry database (PCCDB) project, http://pccdb.org

 28 28  0  0  0  0  0  0  0  0999 V2000
    8.2128   -1.3866   -2.3782 C   0  0  0  0  0  0  0  0  0  0  0  0
    7.0774    0.2058   -4.0102 C   0  0  0  0  0  0  0  0  0  0  0  0
    0.9705   -0.2491    2.4545 C   0  0  0  0  0  0  0  0  0  0  0  0
    1.4243    0.9894    1.9960 C   0  0  0  0  0  0  0  0  0  0  0  0
    1.5677   -1.4110    1.9587 C   0  0  0  0  0  0  0  0  0  0  0  0
    2.4534    1.0801    1.0606 C   0  0  0  0  0  0  0  0  0  0  0  0
    2.5970   -1.3380    1.0248 C   0  0  0  0  0  0  0  0  0  0  0  0
    7.5336   -0.0386   -2.5757 C   0  0  0  0  0  0  0  0  0  0  0  0
    3.0511   -0.0894    0.5631 C   0  0  0  0  0  0  0  0  0  0  0  0
    5.7866    1.0910   -1.3055 C   0  0  0  0  0  0  0  0  0  0  0  0
    4.0453   -0.0571   -0.4152 N   0  0  0  0  0  0  0  0  0  0  0  0
    4.6896    1.1460   -0.6600 N   0  0  0  0  0  0  0  0  0  0  0  0
    6.4542    2.2272   -1.6307 O   0  0  0  0  0  0  0  0  0  0  0  0
    6.3778   -0.0558   -1.6836 O   0  0  0  0  0  0  0  0  0  0  0  0
    9.1152   -1.4445   -2.9959 H   0  0  0  0  0  0  0  0  0  0  0  0
    7.5430   -2.2032   -2.6689 H   0  0  0  0  0  0  0  0  0  0  0  0
    8.4989   -1.5279   -1.3315 H   0  0  0  0  0  0  0  0  0  0  0  0
    7.9408    0.1986   -4.6850 H   0  0  0  0  0  0  0  0  0  0  0  0
    6.5820    1.1763   -4.1021 H   0  0  0  0  0  0  0  0  0  0  0  0
    6.3817   -0.5777   -4.3298 H   0  0  0  0  0  0  0  0  0  0  0  0
    0.1694   -0.3087    3.1855 H   0  0  0  0  0  0  0  0  0  0  0  0
    0.9742    1.9046    2.3735 H   0  0  0  0  0  0  0  0  0  0  0  0
    1.2337   -2.3865    2.3038 H   0  0  0  0  0  0  0  0  0  0  0  0
    2.8062    2.0422    0.7091 H   0  0  0  0  0  0  0  0  0  0  0  0
    3.0527   -2.2497    0.6428 H   0  0  0  0  0  0  0  0  0  0  0  0
    8.1962    0.7674   -2.2484 H   0  0  0  0  0  0  0  0  0  0  0  0
    4.6268   -0.8858   -0.4886 H   0  0  0  0  0  0  0  0  0  0  0  0
    5.9087    2.9566   -1.2882 H   0  0  0  0  0  0  0  0  0  0  0  0
  1 17  1  0  0  0  0
  2  8  1  0  0  0  0
  3 21  1  0  0  0  0
  4 22  1  0  0  0  0
  4  3  1  0  0  0  0
  5 23  1  0  0  0  0
  5  3  2  0  0  0  0
  6  4  2  0  0  0  0
  7  5  1  0  0  0  0
  8  1  1  0  0  0  0
  8 26  1  0  0  0  0
  8 14  1  0  0  0  0
  9  7  2  0  0  0  0
  9  6  1  0  0  0  0
 10 12  2  0  0  0  0
 11  9  1  0  0  0  0
 12 11  1  0  0  0  0
 13 10  1  0  0  0  0
 13 28  1  0  0  0  0
 14 10  1  0  0  0  0
 15  1  1  0  0  0  0
 16  1  1  0  0  0  0
 18  2  1  0  0  0  0
 19  2  1  0  0  0  0
 20  2  1  0  0  0  0
 24  6  1  0  0  0  0
 25  7  1  0  0  0  0
 27 11  1  0  0  0  0
M  END
>  <HBA>
4

>  <HBD>
2

>  <TPSA>
50.36

>  <cid>
38692

>  <dipole>
3.87

>  <excitation_energy_1>
4.173

>  <excitation_energy_2>
4.298

>  <excitation_energy_3>
4.511

>  <excitation_energy_4>
4.804

>  <homo_energy>
-4.694

>  <homo_lumo_gap>
5.167

>  <logP>
2.612

>  <lumo_energy>
0.473

>  <melting_point>
85.83

>  <molecular_refractivity>
54.64

>  <oscillator_strength_1>
0.0045

>  <oscillator_strength_2>
0.0228

>  <oscillator_strength_3>
0.0158

>  <oscillator_strength_4>
0.2122

>  <open_babel_can_smiles>
CC(O/C(=N\Nc1ccccc1)/O)C

>  <mulliken_charges>
28
1   -0.45484
2   -0.458172
3   -0.137639
4   -0.139962
5   -0.136081
6   -0.161048
7   -0.189951
8   0.134346
9   0.357085
10   0.756555
11   -0.550296
12   -0.371941
13   -0.612858
14   -0.506508
15   0.153446
16   0.158575
17   0.162442
18   0.150667
19   0.170089
20   0.158697
21   0.115457
22   0.119847
23   0.119986
24   0.136134
25   0.110374
26   0.164523
27   0.323248
28   0.427826

>  <lowdin_charges>
28
1   -0.447099
2   -0.456647
3   -0.191227
4   -0.148221
5   -0.149561
6   -0.19896
7   -0.2049
8   0.018577
9   0.060437
10   0.164846
11   -0.215083
12   -0.192577
13   -0.371177
14   -0.20502
15   0.159873
16   0.15865
17   0.160057
18   0.159346
19   0.163957
20   0.158962
21   0.152422
22   0.15351
23   0.153224
24   0.164933
25   0.149705
26   0.154513
27   0.270932
28   0.376528

$$$$

