PCCDB-ID:  12165
public computational chemistry database (PCCDB) project, http://pccdb.org

 20 20  0  0  0  0  0  0  0  0999 V2000
    0.9334   -0.0150   -0.0045 C   0  0  0  0  0  0  0  0  0  0  0  0
    7.4977    1.0657   -0.0271 C   0  0  0  0  0  0  0  0  0  0  0  0
    3.1631   -1.2251   -0.1529 C   0  0  0  0  0  0  0  0  0  0  0  0
    3.1832    1.1621   -0.0518 C   0  0  0  0  0  0  0  0  0  0  0  0
    4.5499   -1.2401   -0.2374 C   0  0  0  0  0  0  0  0  0  0  0  0
    4.5765    1.1671   -0.1299 C   0  0  0  0  0  0  0  0  0  0  0  0
    2.4435   -0.0243   -0.0623 C   0  0  0  0  0  0  0  0  0  0  0  0
    5.2878   -0.0407   -0.2304 C   0  0  0  0  0  0  0  0  0  0  0  0
    6.6769   -0.0847   -0.3541 N   0  0  0  0  0  0  0  0  0  0  0  0
    0.5450   -0.9197    0.4769 H   0  0  0  0  0  0  0  0  0  0  0  0
    0.4866    0.0333   -1.0074 H   0  0  0  0  0  0  0  0  0  0  0  0
    0.5584    0.8480    0.5573 H   0  0  0  0  0  0  0  0  0  0  0  0
    8.5497    0.7786   -0.1055 H   0  0  0  0  0  0  0  0  0  0  0  0
    7.3168    1.4642    0.9853 H   0  0  0  0  0  0  0  0  0  0  0  0
    7.3237    1.8769   -0.7436 H   0  0  0  0  0  0  0  0  0  0  0  0
    2.6255   -2.1713   -0.1548 H   0  0  0  0  0  0  0  0  0  0  0  0
    2.6618    2.1142    0.0274 H   0  0  0  0  0  0  0  0  0  0  0  0
    5.0777   -2.1893   -0.3124 H   0  0  0  0  0  0  0  0  0  0  0  0
    5.1058    2.1140   -0.1101 H   0  0  0  0  0  0  0  0  0  0  0  0
    7.0769   -0.9697   -0.0720 H   0  0  0  0  0  0  0  0  0  0  0  0
  1 10  1  0  0  0  0
  1 12  1  0  0  0  0
  2 14  1  0  0  0  0
  3  7  2  0  0  0  0
  4 17  1  0  0  0  0
  5  8  2  0  0  0  0
  5  3  1  0  0  0  0
  6 19  1  0  0  0  0
  6  4  2  0  0  0  0
  7  4  1  0  0  0  0
  7  1  1  0  0  0  0
  8  6  1  0  0  0  0
  9  8  1  0  0  0  0
  9 20  1  0  0  0  0
  9  2  1  0  0  0  0
 11  1  1  0  0  0  0
 13  2  1  0  0  0  0
 15  2  1  0  0  0  0
 16  3  1  0  0  0  0
 18  5  1  0  0  0  0
M  END
>  <HBA>
1

>  <HBD>
1

>  <TPSA>
12.03

>  <cid>
12165

>  <dipole>
1.51

>  <excitation_energy_1>
4.423

>  <excitation_energy_2>
4.563

>  <excitation_energy_3>
4.937

>  <excitation_energy_4>
5.074

>  <homo_energy>
-5.037

>  <homo_lumo_gap>
5.358

>  <logP>
2.11

>  <lumo_energy>
0.321

>  <melting_point>
42.71

>  <molecular_refractivity>
40.71

>  <oscillator_strength_1>
0.025

>  <oscillator_strength_2>
0.0154

>  <oscillator_strength_3>
0.0145

>  <oscillator_strength_4>
0.052

>  <open_babel_can_smiles>
CNc1ccc(cc1)C

>  <mulliken_charges>
20
1   -0.528959
2   -0.303341
3   -0.185975
4   -0.191966
5   -0.187484
6   -0.181139
7   0.17621
8   0.343658
9   -0.636436
10   0.150393
11   0.158432
12   0.150978
13   0.152724
14   0.144938
15   0.164023
16   0.115461
17   0.114988
18   0.111187
19   0.119442
20   0.312865

>  <lowdin_charges>
20
1   -0.44212
2   -0.352757
3   -0.158388
4   -0.157375
5   -0.199065
6   -0.209006
7   -0.02711
8   0.056448
9   -0.302637
10   0.154585
11   0.155773
12   0.155196
13   0.155242
14   0.135653
15   0.15389
16   0.151844
17   0.151328
18   0.149629
19   0.156435
20   0.272435

$$$$

