PCCDB-ID:  27775
public computational chemistry database (PCCDB) project, http://pccdb.org

 30 30  0  0  1  0  0  0  0  0999 V2000
    1.8550    0.7277    0.4226 C   0  0  0  0  0  0  0  0  0  0  0  0
    7.7464    2.5653    1.3584 C   0  0  0  0  0  0  0  0  0  0  0  0
    7.4305    4.9877    1.4661 C   0  0  0  0  0  0  0  0  0  0  0  0
    1.0481    4.9256    2.5024 C   0  0  0  0  0  0  0  0  0  0  0  0
    2.8093    6.6184    2.3344 C   0  0  0  0  0  0  0  0  0  0  0  0
    3.6705    2.1374    0.9532 C   0  0  0  0  0  0  0  0  0  0  0  0
    5.5023    3.4460    1.5076 C   0  0  1  0  0  0  0  0  0  0  0  0
    3.2839    4.2294    1.8943 C   0  0  2  0  0  0  0  0  0  0  0  0
    3.2736    1.0098    0.4951 N   0  0  0  0  0  0  0  0  0  0  0  0
    5.0638    2.3568    0.9889 N   0  0  0  0  0  0  0  0  0  0  0  0
    2.7896    3.1568    1.3827 N   0  0  0  0  0  0  0  0  0  0  0  0
    4.6622    4.4826    1.9595 N   0  0  0  0  0  0  0  0  0  0  0  0
    6.8544    3.6671    1.7084 N   0  0  0  0  0  0  0  0  0  0  0  0
    2.4800    5.2010    2.4583 N   0  0  0  0  0  0  0  0  0  0  0  0
    1.6065   -0.0669    1.1414 H   0  0  0  0  0  0  0  0  0  0  0  0
    1.6250    0.3257   -0.5731 H   0  0  0  0  0  0  0  0  0  0  0  0
    1.2025    1.5877    0.6198 H   0  0  0  0  0  0  0  0  0  0  0  0
    8.7070    2.7282    1.8580 H   0  0  0  0  0  0  0  0  0  0  0  0
    7.9130    2.4986    0.2736 H   0  0  0  0  0  0  0  0  0  0  0  0
    7.3098    1.6242    1.6906 H   0  0  0  0  0  0  0  0  0  0  0  0
    8.2967    5.1361    2.1199 H   0  0  0  0  0  0  0  0  0  0  0  0
    6.7053    5.7772    1.6663 H   0  0  0  0  0  0  0  0  0  0  0  0
    7.7649    5.0956    0.4220 H   0  0  0  0  0  0  0  0  0  0  0  0
    0.5940    5.5787    3.2548 H   0  0  0  0  0  0  0  0  0  0  0  0
    0.8860    3.8829    2.7729 H   0  0  0  0  0  0  0  0  0  0  0  0
    0.5630    5.1078    1.5324 H   0  0  0  0  0  0  0  0  0  0  0  0
    2.4793    7.1552    3.2305 H   0  0  0  0  0  0  0  0  0  0  0  0
    2.3122    7.0688    1.4609 H   0  0  0  0  0  0  0  0  0  0  0  0
    3.8829    6.7649    2.2161 H   0  0  0  0  0  0  0  0  0  0  0  0
    4.9864    4.9947    2.7710 H   0  0  0  0  0  0  0  0  0  0  0  0
  1  9  1  0  0  0  0
  1 17  1  0  0  0  0
  1 15  1  0  0  0  0
  2 20  1  0  0  0  0
  2 13  1  0  0  0  0
  2 18  1  0  0  0  0
  3 22  1  0  0  0  0
  3 13  1  0  0  0  0
  3 21  1  0  0  0  0
  4 25  1  0  0  0  0
  4 24  1  0  0  0  0
  5 14  1  0  0  0  0
  5 27  1  0  0  0  0
  6 10  2  0  0  0  0
  6 11  2  0  0  0  0
  7 13  1  1  0  0  0
  7 12  1  0  0  0  0
  8 12  1  0  0  0  0
  8 14  1  1  0  0  0
  9  6  1  0  0  0  0
 10  7  1  0  0  0  0
 11  8  1  0  0  0  0
 12 30  1  0  0  0  0
 14  4  1  0  0  0  0
 16  1  1  0  0  0  0
 19  2  1  0  0  0  0
 23  3  1  0  0  0  0
 26  4  1  0  0  0  0
 28  5  1  0  0  0  0
 29  5  1  0  0  0  0
M  RAD  3   7   2   8   2   9   2
M  END
>  <HBA>
6

>  <HBD>
1

>  <TPSA>
57.18

>  <cid>
27775

>  <dipole>
7.37

>  <excitation_energy_1>
4.416

>  <excitation_energy_2>
4.626

>  <excitation_energy_3>
4.686

>  <excitation_energy_4>
5.07

>  <homo_energy>
-5.295

>  <homo_lumo_gap>
5.475

>  <logP>
0.118

>  <lumo_energy>
0.18

>  <melting_point>
105.09

>  <molecular_refractivity>
57.55

>  <oscillator_strength_1>
0.0376

>  <oscillator_strength_2>
0.0064

>  <oscillator_strength_3>
0.0106

>  <oscillator_strength_4>
0.0005

>  <open_babel_can_smiles>
C[N][C]1=N[C](N[C](N=1)N(C)C)N(C)C

>  <mulliken_charges>
30
1   -0.317991
2   -0.298067
3   -0.319781
4   -0.299054
5   -0.321695
6   0.552946
7   0.712034
8   0.721697
9   -0.457267
10   -0.515324
11   -0.544193
12   -0.712391
13   -0.465489
14   -0.463539
15   0.138138
16   0.13958
17   0.143222
18   0.143349
19   0.157033
20   0.199491
21   0.163532
22   0.156436
23   0.159923
24   0.146758
25   0.19556
26   0.156701
27   0.164869
28   0.162065
29   0.160182
30   0.341276

>  <lowdin_charges>
30
1   -0.365154
2   -0.346637
3   -0.352203
4   -0.347277
5   -0.350985
6   0.096587
7   0.131978
8   0.141791
9   -0.210921
10   -0.215877
11   -0.247358
12   -0.278722
13   -0.125891
14   -0.122309
15   0.144838
16   0.143556
17   0.138193
18   0.148523
19   0.146634
20   0.181512
21   0.15555
22   0.156499
23   0.145983
24   0.151762
25   0.177867
26   0.148223
27   0.156189
28   0.149642
29   0.156293
30   0.291712

$$$$

