PCCDB-ID:  21365
public computational chemistry database (PCCDB) project, http://pccdb.org

 15 15  0  0  0  0  0  0  0  0999 V2000
    1.1640    0.7453   -0.1637 C   0  0  0  0  0  0  0  0  0  0  0  0
    2.4068   -0.1493    3.3695 C   0  0  0  0  0  0  0  0  0  0  0  0
    0.8631   -1.2802    2.3561 C   0  0  0  0  0  0  0  0  0  0  0  0
    2.4323   -0.0545   -0.0127 C   0  0  0  0  0  0  0  0  0  0  0  0
    1.4739   -0.4177    4.2531 N   0  0  0  0  0  0  0  0  0  0  0  0
    0.4916   -1.1455    3.6068 N   0  0  0  0  0  0  0  0  0  0  0  0
    2.8875   -0.6739    1.0162 N   0  0  0  0  0  0  0  0  0  0  0  0
    2.0605   -0.6452    2.1430 N   0  0  0  0  0  0  0  0  0  0  0  0
    3.2208   -0.1438   -1.1060 O   0  0  0  0  0  0  0  0  0  0  0  0
    0.4478    0.2132   -0.8017 H   0  0  0  0  0  0  0  0  0  0  0  0
    1.3909    1.7058   -0.6421 H   0  0  0  0  0  0  0  0  0  0  0  0
    0.6906    0.9394    0.7988 H   0  0  0  0  0  0  0  0  0  0  0  0
    3.3264    0.3910    3.5407 H   0  0  0  0  0  0  0  0  0  0  0  0
    0.3404   -1.8258    1.5835 H   0  0  0  0  0  0  0  0  0  0  0  0
    2.8342    0.3723   -1.8299 H   0  0  0  0  0  0  0  0  0  0  0  0
  1  4  1  0  0  0  0
  1 12  1  0  0  0  0
  2 13  1  0  0  0  0
  2  5  2  0  0  0  0
  3  6  2  0  0  0  0
  4  7  2  0  0  0  0
  6  5  1  0  0  0  0
  7  8  1  0  0  0  0
  8  3  1  0  0  0  0
  8  2  1  0  0  0  0
  9  4  1  0  0  0  0
 10  1  1  0  0  0  0
 11  1  1  0  0  0  0
 14  3  1  0  0  0  0
 15  9  1  0  0  0  0
M  END
>  <HBA>
5

>  <HBD>
1

>  <TPSA>
59.81

>  <cid>
21365

>  <dipole>
7.64

>  <excitation_energy_1>
5.164

>  <excitation_energy_2>
5.327

>  <excitation_energy_3>
5.523

>  <excitation_energy_4>
5.577

>  <homo_energy>
-6.667

>  <homo_lumo_gap>
5.968

>  <logP>
-0.559

>  <lumo_energy>
-0.699

>  <melting_point>
84.4

>  <molecular_refractivity>
30.07

>  <oscillator_strength_1>
0.0008

>  <oscillator_strength_2>
0.0726

>  <oscillator_strength_3>
0.0107

>  <oscillator_strength_4>
0.0047

>  <open_babel_can_smiles>
C/C(=N\n1cnnc1)/O

>  <mulliken_charges>
15
1   -0.562862
2   0.221998
3   0.204796
4   0.533971
5   -0.303026
6   -0.301232
7   -0.30111
8   -0.305165
9   -0.556305
10   0.196739
11   0.180738
12   0.219484
13   0.178931
14   0.170622
15   0.422423

>  <lowdin_charges>
15
1   -0.482894
2   -0.105019
3   -0.122426
4   0.147776
5   -0.139814
6   -0.138772
7   -0.140734
8   0.038231
9   -0.335381
10   0.183669
11   0.174751
12   0.193385
13   0.181208
14   0.177282
15   0.368739

$$$$

