PCCDB-ID:  15750
public computational chemistry database (PCCDB) project, http://pccdb.org

 20 20  0  0  0  0  0  0  0  0999 V2000
    0.9056   -0.3037   -0.4001 C   0  0  0  0  0  0  0  0  0  0  0  0
    4.4440    1.0405    0.4207 C   0  0  0  0  0  0  0  0  0  0  0  0
    5.1794   -0.1327    0.4748 C   0  0  0  0  0  0  0  0  0  0  0  0
    2.3837   -0.1946   -0.1098 C   0  0  0  0  0  0  0  0  0  0  0  0
    3.0798    1.0123    0.1237 C   0  0  0  0  0  0  0  0  0  0  0  0
    4.5395   -1.3523    0.2382 C   0  0  0  0  0  0  0  0  0  0  0  0
    3.1669   -1.3478   -0.0399 C   0  0  0  0  0  0  0  0  0  0  0  0
    2.4095    2.3179    0.0585 N   0  0  0  0  0  0  0  0  0  0  0  0
    2.5414   -2.6688   -0.2744 N   0  0  0  0  0  0  0  0  0  0  0  0
    5.1622   -2.5518    0.2634 O   0  0  0  0  0  0  0  0  0  0  0  0
    2.9878    3.2792    0.5675 O   0  0  0  0  0  0  0  0  0  0  0  0
    1.3200    2.3896   -0.5113 O   0  0  0  0  0  0  0  0  0  0  0  0
    2.5218   -3.0716   -1.4316 O   0  0  0  0  0  0  0  0  0  0  0  0
    2.0867   -3.2517    0.7041 O   0  0  0  0  0  0  0  0  0  0  0  0
    0.3273    0.3459    0.2586 H   0  0  0  0  0  0  0  0  0  0  0  0
    0.5569   -1.3295   -0.2715 H   0  0  0  0  0  0  0  0  0  0  0  0
    0.6894    0.0179   -1.4231 H   0  0  0  0  0  0  0  0  0  0  0  0
    4.9118    1.9992    0.6042 H   0  0  0  0  0  0  0  0  0  0  0  0
    6.2433   -0.1071    0.6955 H   0  0  0  0  0  0  0  0  0  0  0  0
    6.1027   -2.4325    0.4704 H   0  0  0  0  0  0  0  0  0  0  0  0
  1 16  1  0  0  0  0
  1  4  1  0  0  0  0
  1 15  1  0  0  0  0
  2  3  1  0  0  0  0
  2 18  1  0  0  0  0
  3 19  1  0  0  0  0
  4  7  2  0  0  0  0
  4  5  1  0  0  0  0
  5  2  2  0  0  0  0
  6 10  1  0  0  0  0
  6  3  2  0  0  0  0
  7  6  1  0  0  0  0
  8  5  1  0  0  0  0
  8 11  2  0  0  0  0
  9  7  1  0  0  0  0
  9 14  2  0  0  0  0
 10 20  1  0  0  0  0
 12  8  2  0  0  0  0
 13  9  2  0  0  0  0
 17  1  1  0  0  0  0
M  END
>  <HBA>
1

>  <HBD>
1

>  <TPSA>
111.87

>  <cid>
15750

>  <dipole>
4.61

>  <excitation_energy_1>
3.58

>  <excitation_energy_2>
3.717

>  <excitation_energy_3>
4.22

>  <excitation_energy_4>
4.246

>  <homo_energy>
-7.323

>  <homo_lumo_gap>
4.729

>  <logP>
2.563

>  <lumo_energy>
-2.593

>  <melting_point>
127.72

>  <molecular_refractivity>
51.08

>  <oscillator_strength_1>
0.0001

>  <oscillator_strength_2>
0.0164

>  <oscillator_strength_3>
0.0489

>  <oscillator_strength_4>
0.0006

>  <open_babel_can_smiles>
O=N(=O)c1ccc(c(c1C)N(=O)=O)O

>  <mulliken_charges>
20
1   -0.510755
2   -0.135024
3   -0.20925
4   0.180113
5   0.189331
6   0.400849
7   0.130069
8   0.368229
9   0.359695
10   -0.622432
11   -0.391652
12   -0.39394
13   -0.355495
14   -0.357569
15   0.192186
16   0.176571
17   0.201992
18   0.196062
19   0.152843
20   0.428178

>  <lowdin_charges>
20
1   -0.441238
2   -0.117442
3   -0.198445
4   0.041305
5   -0.017732
6   0.12287
7   -0.015729
8   0.308208
9   0.305926
10   -0.339249
11   -0.2496
12   -0.238864
13   -0.213618
14   -0.219479
15   0.18324
16   0.167016
17   0.185873
18   0.195213
19   0.169508
20   0.372234

$$$$

