PCCDB-ID:  26434
public computational chemistry database (PCCDB) project, http://pccdb.org

 25 25  0  0  0  0  0  0  0  0999 V2000
    0.8179   -0.1040   -0.9718 C   0  0  0  0  0  0  0  0  0  0  0  0
    4.8352    0.2387   -5.0307 C   0  0  0  0  0  0  0  0  0  0  0  0
    1.4468   -1.0695   -1.9815 C   0  0  0  0  0  0  0  0  0  0  0  0
    2.9701   -0.9175   -2.0718 C   0  0  0  0  0  0  0  0  0  0  0  0
    3.6514   -1.8787   -3.0589 C   0  0  0  0  0  0  0  0  0  0  0  0
    3.0777   -0.9810   -6.5279 C   0  0  0  0  0  0  0  0  0  0  0  0
    3.7625   -0.7424   -5.3675 C   0  0  0  0  0  0  0  0  0  0  0  0
    2.3297   -2.4017   -5.1415 C   0  0  0  0  0  0  0  0  0  0  0  0
    2.1759   -2.0256   -6.3836 N   0  0  0  0  0  0  0  0  0  0  0  0
    3.2625   -1.6857   -4.4529 N   0  0  0  0  0  0  0  0  0  0  0  0
    1.6663   -3.4071   -4.5224 O   0  0  0  0  0  0  0  0  0  0  0  0
   -0.2695   -0.2302   -0.9261 H   0  0  0  0  0  0  0  0  0  0  0  0
    1.0201    0.9400   -1.2416 H   0  0  0  0  0  0  0  0  0  0  0  0
    1.2148   -0.2673    0.0379 H   0  0  0  0  0  0  0  0  0  0  0  0
    5.0665    0.8356   -5.9180 H   0  0  0  0  0  0  0  0  0  0  0  0
    5.7677   -0.2485   -4.7131 H   0  0  0  0  0  0  0  0  0  0  0  0
    4.5437    0.9349   -4.2327 H   0  0  0  0  0  0  0  0  0  0  0  0
    1.0044   -0.9031   -2.9715 H   0  0  0  0  0  0  0  0  0  0  0  0
    1.2012   -2.1047   -1.7087 H   0  0  0  0  0  0  0  0  0  0  0  0
    3.4168   -1.0954   -1.0829 H   0  0  0  0  0  0  0  0  0  0  0  0
    3.2217    0.1175   -2.3406 H   0  0  0  0  0  0  0  0  0  0  0  0
    3.4138   -2.9149   -2.8008 H   0  0  0  0  0  0  0  0  0  0  0  0
    4.7394   -1.7675   -2.9966 H   0  0  0  0  0  0  0  0  0  0  0  0
    3.1830   -0.4624   -7.4718 H   0  0  0  0  0  0  0  0  0  0  0  0
    1.0842   -3.7871   -5.2020 H   0  0  0  0  0  0  0  0  0  0  0  0
  1 12  1  0  0  0  0
  1 14  1  0  0  0  0
  2 16  1  0  0  0  0
  2 17  1  0  0  0  0
  3 19  1  0  0  0  0
  3  1  1  0  0  0  0
  4  3  1  0  0  0  0
  4 20  1  0  0  0  0
  5 23  1  0  0  0  0
  5 22  1  0  0  0  0
  5  4  1  0  0  0  0
  6  9  1  0  0  0  0
  6  7  2  0  0  0  0
  7  2  1  0  0  0  0
  7 10  1  0  0  0  0
  8 11  1  0  0  0  0
  8 10  1  0  0  0  0
  9  8  2  0  0  0  0
 10  5  1  0  0  0  0
 13  1  1  0  0  0  0
 15  2  1  0  0  0  0
 18  3  1  0  0  0  0
 21  4  1  0  0  0  0
 24  6  1  0  0  0  0
 25 11  1  0  0  0  0
M  END
>  <HBA>
2

>  <HBD>
1

>  <TPSA>
37.79

>  <cid>
26434

>  <dipole>
2.52

>  <excitation_energy_1>
4.75

>  <excitation_energy_2>
4.971

>  <excitation_energy_3>
5.369

>  <excitation_energy_4>
5.439

>  <homo_energy>
-5.238

>  <homo_lumo_gap>
6.607

>  <logP>
1.285

>  <lumo_energy>
1.369

>  <melting_point>
91.04

>  <molecular_refractivity>
45.7

>  <oscillator_strength_1>
0.0023

>  <oscillator_strength_2>
0.0024

>  <oscillator_strength_3>
0.0015

>  <oscillator_strength_4>
0.0141

>  <open_babel_can_smiles>
CCCCn1c(O)ncc1C

>  <mulliken_charges>
25
1   -0.443511
2   -0.536407
3   -0.250901
4   -0.254633
5   -0.162879
6   -0.087281
7   0.31458
8   0.669691
9   -0.508258
10   -0.470337
11   -0.637479
12   0.146636
13   0.142752
14   0.140527
15   0.169928
16   0.157648
17   0.159619
18   0.152328
19   0.140087
20   0.13541
21   0.141594
22   0.176651
23   0.154667
24   0.124845
25   0.424721

>  <lowdin_charges>
25
1   -0.439815
2   -0.442547
3   -0.273647
4   -0.28039
5   -0.190478
6   -0.167209
7   -0.022261
8   0.11544
9   -0.245449
10   -0.035854
11   -0.373864
12   0.150089
13   0.145752
14   0.144735
15   0.171091
16   0.155553
17   0.155829
18   0.149552
19   0.143316
20   0.145593
21   0.142914
22   0.165564
23   0.153089
24   0.157307
25   0.375691

$$$$

