PCCDB-ID:  54584
public computational chemistry database (PCCDB) project, http://pccdb.org

 18 17  0  0  0  0  0  0  0  0999 V2000
    0.4928    0.0267   -0.9599 C   0  0  0  0  0  0  0  0  0  0  0  0
   -0.3474    1.2863   -0.7320 C   0  0  0  0  0  0  0  0  0  0  0  0
    2.8494    0.9235   -0.5498 C   0  0  0  0  0  0  0  0  0  0  0  0
    2.9169    2.2074    0.3022 C   0  0  0  0  0  0  0  0  0  0  0  0
    1.8142   -0.8042    0.8279 N   0  0  0  0  0  0  0  0  0  0  0  0
    1.7329    0.0415   -0.1873 N   0  0  0  0  0  0  0  0  0  0  0  0
   -1.4781    1.1489   -1.5770 O   0  0  0  0  0  0  0  0  0  0  0  0
    2.7305    3.3034   -0.1684 O   0  0  0  0  0  0  0  0  0  0  0  0
    3.1925    2.0105    1.5980 O   0  0  0  0  0  0  0  0  0  0  0  0
    2.8477   -0.7101    1.5102 O   0  0  0  0  0  0  0  0  0  0  0  0
    0.7324   -0.0662   -2.0248 H   0  0  0  0  0  0  0  0  0  0  0  0
   -0.0651   -0.8588   -0.6486 H   0  0  0  0  0  0  0  0  0  0  0  0
    0.2407    2.1842   -0.9740 H   0  0  0  0  0  0  0  0  0  0  0  0
   -0.6272    1.3437    0.3315 H   0  0  0  0  0  0  0  0  0  0  0  0
    3.7725    0.3454   -0.4263 H   0  0  0  0  0  0  0  0  0  0  0  0
    2.7259    1.2139   -1.5924 H   0  0  0  0  0  0  0  0  0  0  0  0
   -2.0094    1.9556   -1.5040 H   0  0  0  0  0  0  0  0  0  0  0  0
    3.2749    1.0412    1.7657 H   0  0  0  0  0  0  0  0  0  0  0  0
  1  2  1  0  0  0  0
  1 12  1  0  0  0  0
  1  6  1  0  0  0  0
  2 14  1  0  0  0  0
  3 15  1  0  0  0  0
  3  6  1  0  0  0  0
  3  4  1  0  0  0  0
  4  9  1  0  0  0  0
  5 10  1  0  0  0  0
  6  5  1  0  0  0  0
  7 17  1  0  0  0  0
  7  2  1  0  0  0  0
  8  4  2  0  0  0  0
  9 18  1  0  0  0  0
 11  1  1  0  0  0  0
 13  2  1  0  0  0  0
 16  3  1  0  0  0  0
M  RAD  2   5   2  10   2
M  END
>  <HBA>
6

>  <HBD>
2

>  <TPSA>
90.2

>  <cid>
54584

>  <dipole>
2.93

>  <excitation_energy_1>
3.5

>  <excitation_energy_2>
5.011

>  <excitation_energy_3>
5.347

>  <excitation_energy_4>
5.468

>  <homo_energy>
-7.157

>  <homo_lumo_gap>
5.236

>  <logP>
-0.953

>  <lumo_energy>
-1.921

>  <melting_point>
92.23

>  <molecular_refractivity>
31.91

>  <oscillator_strength_1>
0.0008

>  <oscillator_strength_2>
0.0544

>  <oscillator_strength_3>
0.0007

>  <oscillator_strength_4>
0.0038

>  <open_babel_can_smiles>
OCCN(CC(=O)O)[N][O]

>  <mulliken_charges>
18
1   -0.150634
2   -0.046683
3   -0.282716
4   0.60664
5   0.174131
6   -0.202851
7   -0.615878
8   -0.441008
9   -0.569712
10   -0.410568
11   0.17909
12   0.202301
13   0.15769
14   0.14411
15   0.20868
16   0.199394
17   0.405982
18   0.442033

>  <lowdin_charges>
18
1   -0.201985
2   -0.143895
3   -0.252857
4   0.181431
5   0.073123
6   -0.015374
7   -0.465099
8   -0.241665
9   -0.345836
10   -0.293051
11   0.162401
12   0.180967
13   0.144993
14   0.136825
15   0.185186
16   0.183444
17   0.354931
18   0.356458

$$$$

