PCCDB-ID:  33660
public computational chemistry database (PCCDB) project, http://pccdb.org

 25 25  0  0  0  0  0  0  0  0999 V2000
    1.0414    0.4477    0.4007 C   0  0  0  0  0  0  0  0  0  0  0  0
    3.8406   -1.7699    5.2692 C   0  0  0  0  0  0  0  0  0  0  0  0
    2.4004   -0.1261   -0.0390 C   0  0  0  0  0  0  0  0  0  0  0  0
    4.7496   -1.9859    4.0458 C   0  0  0  0  0  0  0  0  0  0  0  0
    3.5919   -1.1262    1.9614 C   0  0  0  0  0  0  0  0  0  0  0  0
    2.4615   -2.6101    0.4369 C   0  0  0  0  0  0  0  0  0  0  0  0
    3.5848   -3.4998    2.3918 C   0  0  0  0  0  0  0  0  0  0  0  0
    2.8369   -1.3108    0.7984 C   0  0  0  0  0  0  0  0  0  0  0  0
    3.9688   -2.2100    2.7668 C   0  0  0  0  0  0  0  0  0  0  0  0
    2.8328   -3.6981    1.2310 C   0  0  0  0  0  0  0  0  0  0  0  0
    2.4958   -4.9875    0.9138 O   0  0  0  0  0  0  0  0  0  0  0  0
    0.7573    1.3043   -0.2217 H   0  0  0  0  0  0  0  0  0  0  0  0
    1.0765    0.7812    1.4438 H   0  0  0  0  0  0  0  0  0  0  0  0
    0.2517   -0.3079    0.3208 H   0  0  0  0  0  0  0  0  0  0  0  0
    4.4358   -1.6101    6.1758 H   0  0  0  0  0  0  0  0  0  0  0  0
    3.1937   -2.6386    5.4351 H   0  0  0  0  0  0  0  0  0  0  0  0
    3.1942   -0.8963    5.1280 H   0  0  0  0  0  0  0  0  0  0  0  0
    3.1606    0.6628    0.0215 H   0  0  0  0  0  0  0  0  0  0  0  0
    2.3419   -0.4219   -1.0944 H   0  0  0  0  0  0  0  0  0  0  0  0
    5.4049   -2.8461    4.2317 H   0  0  0  0  0  0  0  0  0  0  0  0
    5.4046   -1.1137    3.9260 H   0  0  0  0  0  0  0  0  0  0  0  0
    3.8980   -0.1205    2.2435 H   0  0  0  0  0  0  0  0  0  0  0  0
    1.8832   -2.7751   -0.4722 H   0  0  0  0  0  0  0  0  0  0  0  0
    3.8678   -4.3645    2.9856 H   0  0  0  0  0  0  0  0  0  0  0  0
    1.9799   -4.9813    0.0927 H   0  0  0  0  0  0  0  0  0  0  0  0
  1 13  1  0  0  0  0
  2 16  1  0  0  0  0
  2 15  1  0  0  0  0
  3 18  1  0  0  0  0
  3  1  1  0  0  0  0
  3  8  1  0  0  0  0
  4 20  1  0  0  0  0
  4  2  1  0  0  0  0
  5 22  1  0  0  0  0
  5  9  2  0  0  0  0
  6  8  2  0  0  0  0
  6 10  1  0  0  0  0
  7  9  1  0  0  0  0
  7 24  1  0  0  0  0
  8  5  1  0  0  0  0
  9  4  1  0  0  0  0
 10  7  2  0  0  0  0
 11 10  1  0  0  0  0
 12  1  1  0  0  0  0
 14  1  1  0  0  0  0
 17  2  1  0  0  0  0
 19  3  1  0  0  0  0
 21  4  1  0  0  0  0
 23  6  1  0  0  0  0
 25 11  1  0  0  0  0
M  END
>  <HBA>
1

>  <HBD>
1

>  <TPSA>
20.23

>  <cid>
33660

>  <dipole>
1.35

>  <excitation_energy_1>
4.94

>  <excitation_energy_2>
5.093

>  <excitation_energy_3>
5.534

>  <excitation_energy_4>
5.688

>  <homo_energy>
-5.782

>  <homo_lumo_gap>
5.919

>  <logP>
2.517

>  <lumo_energy>
0.136

>  <melting_point>
51.64

>  <molecular_refractivity>
48.01

>  <oscillator_strength_1>
0.0393

>  <oscillator_strength_2>
0.0002

>  <oscillator_strength_3>
0.0057

>  <oscillator_strength_4>
0.0123

>  <open_babel_can_smiles>
CCc1cc(CC)cc(c1)O

>  <mulliken_charges>
25
1   -0.432329
2   -0.433326
3   -0.340946
4   -0.339652
5   -0.247373
6   -0.258489
7   -0.221605
8   0.181098
9   0.177818
10   0.362026
11   -0.6477
12   0.142492
13   0.150549
14   0.147277
15   0.142107
16   0.150903
17   0.148161
18   0.144006
19   0.13959
20   0.143449
21   0.141488
22   0.109939
23   0.106327
24   0.128715
25   0.405477

>  <lowdin_charges>
25
1   -0.440114
2   -0.441174
3   -0.269199
4   -0.271051
5   -0.202905
6   -0.231045
7   -0.205119
8   0.012358
9   0.013756
10   0.105483
11   -0.382169
12   0.149387
13   0.150139
14   0.150146
15   0.148807
16   0.15183
17   0.150413
18   0.150076
19   0.145448
20   0.149633
21   0.14861
22   0.149366
23   0.147895
24   0.163473
25   0.355957

$$$$

