PCCDB-ID:  43408
public computational chemistry database (PCCDB) project, http://pccdb.org

 22 22  0  0  0  0  0  0  0  0999 V2000
    0.9807    0.7519   -0.6574 C   0  0  0  0  0  0  0  0  0  0  0  0
    2.9997   -0.1864   -1.8365 C   0  0  0  0  0  0  0  0  0  0  0  0
    3.2573    1.7075   -0.1578 C   0  0  0  0  0  0  0  0  0  0  0  0
    5.9650   -1.4680    1.0690 C   0  0  0  0  0  0  0  0  0  0  0  0
    4.1518   -2.0262    1.9587 C   0  0  0  0  0  0  0  0  0  0  0  0
    2.6046   -0.6064    0.6229 C   0  0  0  0  0  0  0  0  0  0  0  0
    2.4771    0.4179   -0.5104 C   0  0  0  0  0  0  0  0  0  0  0  0
    5.4363   -2.2784    2.0424 N   0  0  0  0  0  0  0  0  0  0  0  0
    5.0959   -0.7411    0.3985 N   0  0  0  0  0  0  0  0  0  0  0  0
    3.9054   -1.1023    0.9773 N   0  0  0  0  0  0  0  0  0  0  0  0
    1.6688   -1.0437    1.2572 O   0  0  0  0  0  0  0  0  0  0  0  0
    0.8535    1.4865   -1.4598 H   0  0  0  0  0  0  0  0  0  0  0  0
    0.5714    1.1727    0.2656 H   0  0  0  0  0  0  0  0  0  0  0  0
    0.3938   -0.1372   -0.9057 H   0  0  0  0  0  0  0  0  0  0  0  0
    2.8230    0.5318   -2.6451 H   0  0  0  0  0  0  0  0  0  0  0  0
    2.4636   -1.1091   -2.0877 H   0  0  0  0  0  0  0  0  0  0  0  0
    4.0686   -0.4016   -1.7909 H   0  0  0  0  0  0  0  0  0  0  0  0
    3.0939    2.4464   -0.9504 H   0  0  0  0  0  0  0  0  0  0  0  0
    4.3292    1.5224   -0.0714 H   0  0  0  0  0  0  0  0  0  0  0  0
    2.8960    2.1417    0.7818 H   0  0  0  0  0  0  0  0  0  0  0  0
    7.0247   -1.4201    0.8566 H   0  0  0  0  0  0  0  0  0  0  0  0
    3.3599   -2.4563    2.5529 H   0  0  0  0  0  0  0  0  0  0  0  0
  1  7  1  0  0  0  0
  1 13  1  0  0  0  0
  2 17  1  0  0  0  0
  2  7  1  0  0  0  0
  3 19  1  0  0  0  0
  3 20  1  0  0  0  0
  4  8  2  0  0  0  0
  5  8  1  0  0  0  0
  5 22  1  0  0  0  0
  6 10  1  0  0  0  0
  6 11  2  0  0  0  0
  7  3  1  0  0  0  0
  7  6  1  0  0  0  0
  9 10  1  0  0  0  0
  9  4  1  0  0  0  0
 10  5  1  0  0  0  0
 12  1  1  0  0  0  0
 14  1  1  0  0  0  0
 15  2  1  0  0  0  0
 16  2  1  0  0  0  0
 18  3  1  0  0  0  0
 21  4  1  0  0  0  0
M  RAD  1   9   2
M  END
>  <HBA>
4

>  <HBD>
0

>  <TPSA>
47.78

>  <cid>
43408

>  <dipole>
2.0

>  <excitation_energy_1>
4.551

>  <excitation_energy_2>
5.152

>  <excitation_energy_3>
5.475

>  <excitation_energy_4>
6.11

>  <homo_energy>
-7.706

>  <homo_lumo_gap>
6.082

>  <logP>
0.964

>  <lumo_energy>
-1.625

>  <melting_point>
73.91

>  <molecular_refractivity>
40.67

>  <oscillator_strength_1>
0.0018

>  <oscillator_strength_2>
0.0016

>  <oscillator_strength_3>
0.0899

>  <oscillator_strength_4>
0.1603

>  <open_babel_can_smiles>
O=C(C(C)(C)C)N1[N]C=NC1

>  <mulliken_charges>
22
1   -0.431894
2   -0.464542
3   -0.464665
4   0.171841
5   0.242215
6   0.620521
7   -0.009121
8   -0.431701
9   -0.257272
10   -0.334726
11   -0.452108
12   0.141207
13   0.157558
14   0.157332
15   0.152031
16   0.150172
17   0.187531
18   0.15187
19   0.187988
20   0.1501
21   0.171188
22   0.204478

>  <lowdin_charges>
22
1   -0.437227
2   -0.44497
3   -0.445002
4   -0.080922
5   -0.051199
6   0.201748
7   -0.008265
8   -0.173568
9   -0.143693
10   0.016221
11   -0.228285
12   0.151425
13   0.158851
14   0.158864
15   0.156784
16   0.15322
17   0.167989
18   0.156737
19   0.168101
20   0.153114
21   0.173703
22   0.196374

$$$$

