PCCDB-ID:  19303
public computational chemistry database (PCCDB) project, http://pccdb.org

 25 25  0  0  0  0  0  0  0  0999 V2000
   -1.5707   -0.5718   -0.4611 C   0  0  0  0  0  0  0  0  0  0  0  0
   -1.0790    0.7265   -0.3185 C   0  0  0  0  0  0  0  0  0  0  0  0
   -0.6877   -1.6587   -0.4971 C   0  0  0  0  0  0  0  0  0  0  0  0
    0.2950    0.9388   -0.2128 C   0  0  0  0  0  0  0  0  0  0  0  0
    0.6828   -1.4539   -0.3857 C   0  0  0  0  0  0  0  0  0  0  0  0
    5.3919   -0.9928    1.3221 C   0  0  0  0  0  0  0  0  0  0  0  0
    4.7431   -0.3562    0.0876 C   0  0  0  0  0  0  0  0  0  0  0  0
    6.1090   -3.0950    0.1565 C   0  0  0  0  0  0  0  0  0  0  0  0
    5.8065   -3.1266    2.5586 C   0  0  0  0  0  0  0  0  0  0  0  0
    5.3368   -2.5500    1.2877 C   0  0  0  0  0  0  0  0  0  0  0  0
    1.1763   -0.1480   -0.2375 C   0  0  0  0  0  0  0  0  0  0  0  0
    6.7087   -3.4879   -0.7553 N   0  0  0  0  0  0  0  0  0  0  0  0
    6.1609   -3.5501    3.5785 N   0  0  0  0  0  0  0  0  0  0  0  0
    3.3412   -0.7768   -0.0101 N   0  0  0  0  0  0  0  0  0  0  0  0
    2.5572    0.1915   -0.1219 N   0  0  0  0  0  0  0  0  0  0  0  0
   -2.6403   -0.7409   -0.5507 H   0  0  0  0  0  0  0  0  0  0  0  0
   -1.7622    1.5705   -0.2947 H   0  0  0  0  0  0  0  0  0  0  0  0
   -1.0749   -2.6671   -0.6156 H   0  0  0  0  0  0  0  0  0  0  0  0
    0.7096    1.9366   -0.1068 H   0  0  0  0  0  0  0  0  0  0  0  0
    1.3814   -2.2825   -0.4176 H   0  0  0  0  0  0  0  0  0  0  0  0
    4.8699   -0.6650    2.2271 H   0  0  0  0  0  0  0  0  0  0  0  0
    6.4341   -0.6694    1.4031 H   0  0  0  0  0  0  0  0  0  0  0  0
    5.2495   -0.7094   -0.8211 H   0  0  0  0  0  0  0  0  0  0  0  0
    4.8225    0.7367    0.1320 H   0  0  0  0  0  0  0  0  0  0  0  0
    4.2882   -2.8426    1.1427 H   0  0  0  0  0  0  0  0  0  0  0  0
  1  2  1  0  0  0  0
  2 17  1  0  0  0  0
  2  4  2  0  0  0  0
  3  1  2  0  0  0  0
  3  5  1  0  0  0  0
  4 19  1  0  0  0  0
  5 11  2  0  0  0  0
  6 22  1  0  0  0  0
  6 21  1  0  0  0  0
  7 24  1  0  0  0  0
  7  6  1  0  0  0  0
  8 10  1  0  0  0  0
  9 13  3  0  0  0  0
 10  6  1  0  0  0  0
 10  9  1  0  0  0  0
 11  4  1  0  0  0  0
 11 15  1  0  0  0  0
 12  8  3  0  0  0  0
 14  7  1  0  0  0  0
 15 14  1  0  0  0  0
 16  1  1  0  0  0  0
 18  3  1  0  0  0  0
 20  5  1  0  0  0  0
 23  7  1  0  0  0  0
 25 10  1  0  0  0  0
M  RAD  2  14   2  15   2
M  END
>  <HBA>
4

>  <HBD>
0

>  <TPSA>
72.3

>  <cid>
19303

>  <dipole>
5.4

>  <excitation_energy_1>
2.959

>  <excitation_energy_2>
4.249

>  <excitation_energy_3>
4.452

>  <excitation_energy_4>
5.286

>  <homo_energy>
-6.689

>  <homo_lumo_gap>
4.427

>  <logP>
2.824

>  <lumo_energy>
-2.261

>  <melting_point>
91.36

>  <molecular_refractivity>
55.55

>  <oscillator_strength_1>
0.0005

>  <oscillator_strength_2>
0.0173

>  <oscillator_strength_3>
0.413

>  <oscillator_strength_4>
0.0016

>  <open_babel_can_smiles>
N#CC(C#N)CC[N][N]c1ccccc1

>  <mulliken_charges>
25
1   -0.115306
2   -0.137867
3   -0.143475
4   -0.135819
5   -0.125583
6   -0.27783
7   -0.149631
8   0.374057
9   0.370461
10   -0.227235
11   0.252012
12   -0.450499
13   -0.450474
14   -0.20108
15   -0.283572
16   0.141863
17   0.142294
18   0.14314
19   0.148518
20   0.15245
21   0.183831
22   0.183844
23   0.186402
24   0.165708
25   0.253793

>  <lowdin_charges>
25
1   -0.137199
2   -0.154787
3   -0.149082
4   -0.141105
5   -0.149968
6   -0.259172
7   -0.220501
8   -0.008543
9   -0.009382
10   -0.120756
11   0.005379
12   -0.095578
13   -0.094244
14   -0.107648
15   -0.067966
16   0.161965
17   0.164908
18   0.162982
19   0.170057
20   0.172038
21   0.170366
22   0.171182
23   0.169601
24   0.155289
25   0.212161

$$$$

