PCCDB-ID:  46402
public computational chemistry database (PCCDB) project, http://pccdb.org

 31 32  0  0  0  0  0  0  0  0999 V2000
    3.1546   -3.8849    1.8970 C   0  0  0  0  0  0  0  0  0  0  0  0
    3.6601   -3.7476    0.4692 C   0  0  0  0  0  0  0  0  0  0  0  0
    7.5942    2.4454   -3.5452 C   0  0  0  0  0  0  0  0  0  0  0  0
    8.6701    3.2281   -3.1215 C   0  0  0  0  0  0  0  0  0  0  0  0
    6.6774    1.9012   -2.6310 C   0  0  0  0  0  0  0  0  0  0  0  0
    8.8784    3.5000   -1.7585 C   0  0  0  0  0  0  0  0  0  0  0  0
    5.5023   -0.5345    0.1449 C   0  0  0  0  0  0  0  0  0  0  0  0
    5.0697    0.9285   -0.0220 C   0  0  0  0  0  0  0  0  0  0  0  0
    6.8864    2.1757   -1.2857 C   0  0  0  0  0  0  0  0  0  0  0  0
    7.9698    2.9576   -0.8734 C   0  0  0  0  0  0  0  0  0  0  0  0
    4.3083   -1.4659    0.2274 C   0  0  0  0  0  0  0  0  0  0  0  0
    6.8775    2.3631    0.9843 C   0  0  0  0  0  0  0  0  0  0  0  0
    6.6718    2.3001    2.2349 N   0  0  0  0  0  0  0  0  0  0  0  0
    6.1984    1.8345   -0.1204 N   0  0  0  0  0  0  0  0  0  0  0  0
    3.1506   -1.1058    0.1656 O   0  0  0  0  0  0  0  0  0  0  0  0
    4.7051   -2.7451    0.3714 O   0  0  0  0  0  0  0  0  0  0  0  0
    7.9601    3.0735    0.4973 O   0  0  0  0  0  0  0  0  0  0  0  0
    2.4263   -4.7019    1.9543 H   0  0  0  0  0  0  0  0  0  0  0  0
    2.6623   -2.9646    2.2237 H   0  0  0  0  0  0  0  0  0  0  0  0
    3.9780   -4.1107    2.5823 H   0  0  0  0  0  0  0  0  0  0  0  0
    2.8517   -3.4787   -0.2150 H   0  0  0  0  0  0  0  0  0  0  0  0
    4.1396   -4.6661    0.1227 H   0  0  0  0  0  0  0  0  0  0  0  0
    7.4586    2.2499   -4.6048 H   0  0  0  0  0  0  0  0  0  0  0  0
    9.3609    3.6344   -3.8540 H   0  0  0  0  0  0  0  0  0  0  0  0
    5.8433    1.2941   -2.9689 H   0  0  0  0  0  0  0  0  0  0  0  0
    9.7093    4.1040   -1.4105 H   0  0  0  0  0  0  0  0  0  0  0  0
    6.1104   -0.6564    1.0494 H   0  0  0  0  0  0  0  0  0  0  0  0
    6.1396   -0.8490   -0.6904 H   0  0  0  0  0  0  0  0  0  0  0  0
    4.4440    1.2403    0.8196 H   0  0  0  0  0  0  0  0  0  0  0  0
    4.4530    1.0467   -0.9168 H   0  0  0  0  0  0  0  0  0  0  0  0
    5.8393    1.7554    2.4543 H   0  0  0  0  0  0  0  0  0  0  0  0
  1 18  1  0  0  0  0
  1 19  1  0  0  0  0
  1 20  1  0  0  0  0
  2  1  1  0  0  0  0
  3  4  2  0  0  0  0
  3  5  1  0  0  0  0
  4  6  1  0  0  0  0
  5  9  2  0  0  0  0
  6 26  1  0  0  0  0
  6 10  2  0  0  0  0
  7 11  1  0  0  0  0
  7 27  1  0  0  0  0
  8  7  1  0  0  0  0
  8 29  1  0  0  0  0
  9 10  1  0  0  0  0
  9 14  1  0  0  0  0
 10 17  1  0  0  0  0
 11 16  1  0  0  0  0
 12 13  2  0  0  0  0
 13 31  1  0  0  0  0
 14  8  1  0  0  0  0
 14 12  1  0  0  0  0
 15 11  2  0  0  0  0
 16  2  1  0  0  0  0
 17 12  1  0  0  0  0
 21  2  1  0  0  0  0
 22  2  1  0  0  0  0
 23  3  1  0  0  0  0
 24  4  1  0  0  0  0
 25  5  1  0  0  0  0
 28  7  1  0  0  0  0
 30  8  1  0  0  0  0
M  END
>  <HBA>
5

>  <HBD>
1

>  <TPSA>
68.22

>  <cid>
46402

>  <dipole>
4.55

>  <excitation_energy_1>
4.597

>  <excitation_energy_2>
4.81

>  <excitation_energy_3>
4.892

>  <excitation_energy_4>
5.114

>  <homo_energy>
-5.543

>  <homo_lumo_gap>
5.323

>  <logP>
1.767

>  <lumo_energy>
-0.22

>  <melting_point>
102.61

>  <molecular_refractivity>
62.5

>  <oscillator_strength_1>
0.1306

>  <oscillator_strength_2>
0.0123

>  <oscillator_strength_3>
0.0087

>  <oscillator_strength_4>
0.0848

>  <open_babel_can_smiles>
CCOC(=O)CCn1c(=N)oc2c1cccc2

>  <mulliken_charges>
31
1   -0.463486
2   -0.048212
3   -0.145875
4   -0.142309
5   -0.179811
6   -0.198288
7   -0.371521
8   -0.171789
9   0.351965
10   0.323094
11   0.635101
12   0.692776
13   -0.658419
14   -0.581337
15   -0.481599
16   -0.460992
17   -0.511872
18   0.154946
19   0.176642
20   0.161034
21   0.172177
22   0.158074
23   0.133004
24   0.134235
25   0.136955
26   0.152519
27   0.193121
28   0.19013
29   0.179192
30   0.184267
31   0.28628

>  <lowdin_charges>
31
1   -0.456212
2   -0.128577
3   -0.157808
4   -0.16636
5   -0.193749
6   -0.173967
7   -0.312674
8   -0.190489
9   0.023819
10   0.081925
11   0.197247
12   0.162624
13   -0.436289
14   -0.081267
15   -0.270362
16   -0.191416
17   -0.126898
18   0.161974
19   0.165895
20   0.158828
21   0.16033
22   0.155697
23   0.159435
24   0.163271
25   0.163047
26   0.174715
27   0.179293
28   0.17889
29   0.166819
30   0.17047
31   0.261791

$$$$

