PCCDB-ID:  30122
public computational chemistry database (PCCDB) project, http://pccdb.org

 24 23  0  0  0  0  0  0  0  0999 V2000
    4.2701   -4.0346   -2.5909 C   0  0  0  0  0  0  0  0  0  0  0  0
    3.2373    1.2819    2.8050 C   0  0  0  0  0  0  0  0  0  0  0  0
    1.3850    2.5709    1.6973 C   0  0  0  0  0  0  0  0  0  0  0  0
    3.6628   -2.7421   -3.1138 C   0  0  0  0  0  0  0  0  0  0  0  0
    4.6574    0.0533   -0.8925 C   0  0  0  0  0  0  0  0  0  0  0  0
    2.6062    1.6897    1.6967 C   0  0  0  0  0  0  0  0  0  0  0  0
    3.8604   -1.1702   -1.3354 C   0  0  0  0  0  0  0  0  0  0  0  0
    3.0765    1.2779    0.3428 C   0  0  0  0  0  0  0  0  0  0  0  0
    2.9707   -1.6892   -0.7049 O   0  0  0  0  0  0  0  0  0  0  0  0
    2.5220    1.5939   -0.6902 O   0  0  0  0  0  0  0  0  0  0  0  0
    4.3131   -1.5802   -2.5365 O   0  0  0  0  0  0  0  0  0  0  0  0
    4.2135    0.5266    0.3704 O   0  0  0  0  0  0  0  0  0  0  0  0
    3.8135   -4.8909   -3.1004 H   0  0  0  0  0  0  0  0  0  0  0  0
    4.0898   -4.1390   -1.5173 H   0  0  0  0  0  0  0  0  0  0  0  0
    5.3492   -4.0611   -2.7749 H   0  0  0  0  0  0  0  0  0  0  0  0
    2.8877    1.5818    3.7894 H   0  0  0  0  0  0  0  0  0  0  0  0
    4.1091    0.6395    2.7613 H   0  0  0  0  0  0  0  0  0  0  0  0
    1.0992    2.8392    2.7182 H   0  0  0  0  0  0  0  0  0  0  0  0
    0.5406    2.0660    1.2150 H   0  0  0  0  0  0  0  0  0  0  0  0
    1.5634    3.4896    1.1272 H   0  0  0  0  0  0  0  0  0  0  0  0
    2.5937   -2.6864   -2.8956 H   0  0  0  0  0  0  0  0  0  0  0  0
    3.8209   -2.6290   -4.1889 H   0  0  0  0  0  0  0  0  0  0  0  0
    4.5749    0.8301   -1.6573 H   0  0  0  0  0  0  0  0  0  0  0  0
    5.7083   -0.2196   -0.7680 H   0  0  0  0  0  0  0  0  0  0  0  0
  1 14  1  0  0  0  0
  2 16  1  0  0  0  0
  3 18  1  0  0  0  0
  4 21  1  0  0  0  0
  4  1  1  0  0  0  0
  4 11  1  0  0  0  0
  5 24  1  0  0  0  0
  5 12  1  0  0  0  0
  6  3  1  0  0  0  0
  6  2  2  0  0  0  0
  7  5  1  0  0  0  0
  7  9  2  0  0  0  0
  8 12  1  0  0  0  0
  8  6  1  0  0  0  0
 10  8  2  0  0  0  0
 11  7  1  0  0  0  0
 13  1  1  0  0  0  0
 15  1  1  0  0  0  0
 17  2  1  0  0  0  0
 19  3  1  0  0  0  0
 20  3  1  0  0  0  0
 22  4  1  0  0  0  0
 23  5  1  0  0  0  0
M  END
>  <HBA>
4

>  <HBD>
0

>  <TPSA>
52.6

>  <cid>
30122

>  <dipole>
1.91

>  <excitation_energy_1>
4.876

>  <excitation_energy_2>
5.616

>  <excitation_energy_3>
5.897

>  <excitation_energy_4>
5.942

>  <homo_energy>
-7.266

>  <homo_lumo_gap>
6.182

>  <logP>
0.669

>  <lumo_energy>
-1.083

>  <melting_point>
-20.19

>  <molecular_refractivity>
42.67

>  <oscillator_strength_1>
0.0004

>  <oscillator_strength_2>
0.0705

>  <oscillator_strength_3>
0.0111

>  <oscillator_strength_4>
0.2013

>  <open_babel_can_smiles>
CCOC(=O)COC(=O)C(=C)C

>  <mulliken_charges>
24
1   -0.46376
2   -0.364344
3   -0.501412
4   -0.045542
5   -0.136084
6   0.125017
7   0.616687
8   0.610765
9   -0.462992
10   -0.482217
11   -0.46056
12   -0.466215
13   0.153594
14   0.178255
15   0.157626
16   0.149321
17   0.174242
18   0.147621
19   0.177858
20   0.170899
21   0.176151
22   0.15713
23   0.200693
24   0.187267

>  <lowdin_charges>
24
1   -0.452986
2   -0.295791
3   -0.435018
4   -0.121336
5   -0.161604
6   -0.025294
7   0.189246
8   0.204982
9   -0.250427
10   -0.261527
11   -0.193972
12   -0.180634
13   0.161474
14   0.164705
15   0.154616
16   0.163352
17   0.17634
18   0.155073
19   0.171964
20   0.16774
21   0.159684
22   0.152837
23   0.181303
24   0.175273

$$$$

