PCCDB-ID:  16833
public computational chemistry database (PCCDB) project, http://pccdb.org

 41 40  0  0  0  0  0  0  0  0999 V2000
    3.4895   -1.4759   -1.6457 C   0  0  0  0  0  0  0  0  0  0  0  0
    9.4343    0.7467    8.6552 C   0  0  0  0  0  0  0  0  0  0  0  0
    7.1071    1.6338    8.1090 C   0  0  0  0  0  0  0  0  0  0  0  0
    3.2145   -1.6189   -0.1453 C   0  0  0  0  0  0  0  0  0  0  0  0
    4.3847   -2.2395    0.6292 C   0  0  0  0  0  0  0  0  0  0  0  0
    4.1067   -2.3882    2.1317 C   0  0  0  0  0  0  0  0  0  0  0  0
    5.2317   -3.0634    2.9338 C   0  0  0  0  0  0  0  0  0  0  0  0
    6.5368   -2.2579    3.0186 C   0  0  0  0  0  0  0  0  0  0  0  0
    7.6001   -2.9395    3.8920 C   0  0  0  0  0  0  0  0  0  0  0  0
    8.9630   -2.2275    3.9250 C   0  0  0  0  0  0  0  0  0  0  0  0
    8.9531   -0.8360    4.5711 C   0  0  0  0  0  0  0  0  0  0  0  0
    8.1035    0.4932    7.9541 C   0  0  0  0  0  0  0  0  0  0  0  0
    8.7022   -0.8691    6.0691 C   0  0  0  0  0  0  0  0  0  0  0  0
    8.8389   -1.8436    6.7804 O   0  0  0  0  0  0  0  0  0  0  0  0
    8.3293    0.3500    6.5202 O   0  0  0  0  0  0  0  0  0  0  0  0
    2.6370   -1.0279   -2.1690 H   0  0  0  0  0  0  0  0  0  0  0  0
    3.6880   -2.4513   -2.1070 H   0  0  0  0  0  0  0  0  0  0  0  0
    4.3646   -0.8403   -1.8298 H   0  0  0  0  0  0  0  0  0  0  0  0
    9.2747    0.8789    9.7314 H   0  0  0  0  0  0  0  0  0  0  0  0
    9.9095    1.6533    8.2639 H   0  0  0  0  0  0  0  0  0  0  0  0
   10.1113   -0.1001    8.5127 H   0  0  0  0  0  0  0  0  0  0  0  0
    6.8713    1.7861    9.1680 H   0  0  0  0  0  0  0  0  0  0  0  0
    6.1767    1.4132    7.5762 H   0  0  0  0  0  0  0  0  0  0  0  0
    7.5193    2.5675    7.7106 H   0  0  0  0  0  0  0  0  0  0  0  0
    2.3151   -2.2329    0.0056 H   0  0  0  0  0  0  0  0  0  0  0  0
    2.9824   -0.6319    0.2799 H   0  0  0  0  0  0  0  0  0  0  0  0
    5.2816   -1.6241    0.4721 H   0  0  0  0  0  0  0  0  0  0  0  0
    4.6160   -3.2282    0.2043 H   0  0  0  0  0  0  0  0  0  0  0  0
    3.1838   -2.9713    2.2623 H   0  0  0  0  0  0  0  0  0  0  0  0
    3.9001   -1.3964    2.5617 H   0  0  0  0  0  0  0  0  0  0  0  0
    5.4447   -4.0517    2.4997 H   0  0  0  0  0  0  0  0  0  0  0  0
    4.8712   -3.2537    3.9548 H   0  0  0  0  0  0  0  0  0  0  0  0
    6.3067   -1.2574    3.4133 H   0  0  0  0  0  0  0  0  0  0  0  0
    6.9465   -2.1013    2.0107 H   0  0  0  0  0  0  0  0  0  0  0  0
    7.7589   -3.9611    3.5190 H   0  0  0  0  0  0  0  0  0  0  0  0
    7.2260   -3.0474    4.9184 H   0  0  0  0  0  0  0  0  0  0  0  0
    9.3457   -2.1279    2.9003 H   0  0  0  0  0  0  0  0  0  0  0  0
    9.6771   -2.8531    4.4719 H   0  0  0  0  0  0  0  0  0  0  0  0
    8.2218   -0.1655    4.1079 H   0  0  0  0  0  0  0  0  0  0  0  0
    9.9291   -0.3499    4.4303 H   0  0  0  0  0  0  0  0  0  0  0  0
    7.6729   -0.4469    8.3109 H   0  0  0  0  0  0  0  0  0  0  0  0
  1  4  1  0  0  0  0
  2 19  1  0  0  0  0
  3 22  1  0  0  0  0
  4 25  1  0  0  0  0
  4 26  1  0  0  0  0
  4  5  1  0  0  0  0
  5  6  1  0  0  0  0
  6 29  1  0  0  0  0
  6 30  1  0  0  0  0
  6  7  1  0  0  0  0
  7  8  1  0  0  0  0
  7 32  1  0  0  0  0
  8 33  1  0  0  0  0
  8  9  1  0  0  0  0
  9 10  1  0  0  0  0
  9 36  1  0  0  0  0
 10 38  1  0  0  0  0
 10 11  1  0  0  0  0
 11 13  1  0  0  0  0
 12  3  1  0  0  0  0
 12 41  1  0  0  0  0
 12  2  1  0  0  0  0
 13 15  1  0  0  0  0
 13 14  2  0  0  0  0
 15 12  1  0  0  0  0
 16  1  1  0  0  0  0
 17  1  1  0  0  0  0
 18  1  1  0  0  0  0
 20  2  1  0  0  0  0
 21  2  1  0  0  0  0
 23  3  1  0  0  0  0
 24  3  1  0  0  0  0
 27  5  1  0  0  0  0
 28  5  1  0  0  0  0
 31  7  1  0  0  0  0
 34  8  1  0  0  0  0
 35  9  1  0  0  0  0
 37 10  1  0  0  0  0
 39 11  1  0  0  0  0
 40 11  1  0  0  0  0
M  END
>  <HBA>
2

>  <HBD>
0

>  <TPSA>
26.3

>  <cid>
16833

>  <dipole>
1.64

>  <excitation_energy_1>
5.775

>  <excitation_energy_2>
6.842

>  <excitation_energy_3>
7.236

>  <excitation_energy_4>
7.399

>  <homo_energy>
-7.2

>  <homo_lumo_gap>
7.674

>  <logP>
4.079

>  <lumo_energy>
0.473

>  <melting_point>
-18.77

>  <molecular_refractivity>
65.89

>  <oscillator_strength_1>
0.0011

>  <oscillator_strength_2>
0.016

>  <oscillator_strength_3>
0.0011

>  <oscillator_strength_4>
0.0103

>  <open_babel_can_smiles>
CCCCCCCCCC(=O)OC(C)C

>  <mulliken_charges>
41
1   -0.441572
2   -0.458663
3   -0.451312
4   -0.246216
5   -0.246583
6   -0.254802
7   -0.254804
8   -0.256999
9   -0.262907
10   -0.254261
11   -0.364412
12   0.130407
13   0.629991
14   -0.485243
15   -0.474916
16   0.141037
17   0.141029
18   0.140308
19   0.147552
20   0.149894
21   0.172582
22   0.148722
23   0.156622
24   0.154588
25   0.129623
26   0.129405
27   0.13055
28   0.125258
29   0.126685
30   0.124777
31   0.126718
32   0.128836
33   0.126336
34   0.130071
35   0.12989
36   0.149596
37   0.127506
38   0.153972
39   0.168727
40   0.170705
41   0.161304

>  <lowdin_charges>
41
1   -0.445783
2   -0.453606
3   -0.446267
4   -0.271549
5   -0.276847
6   -0.275077
7   -0.27298
8   -0.278627
9   -0.276877
10   -0.273671
11   -0.306647
12   0.012666
13   0.200311
14   -0.275437
15   -0.200691
16   0.149708
17   0.145829
18   0.146043
19   0.155113
20   0.153587
21   0.166123
22   0.155222
23   0.158303
24   0.155781
25   0.138534
26   0.13801
27   0.138276
28   0.136255
29   0.140073
30   0.136068
31   0.136921
32   0.140322
33   0.134917
34   0.136717
35   0.141823
36   0.147392
37   0.141201
38   0.157676
39   0.165836
40   0.170954
41   0.1544

$$$$

