PCCDB-ID:  59229
public computational chemistry database (PCCDB) project, http://pccdb.org

 39 39  0  0  1  0  0  0  0  0999 V2000
    8.1969    1.6456    3.8211 C   0  0  0  0  0  0  0  0  0  0  0  0
    5.6835    1.7407    4.0335 C   0  0  0  0  0  0  0  0  0  0  0  0
    6.7887   -5.5066    4.9600 C   0  0  0  0  0  0  0  0  0  0  0  0
    9.7564   -5.4553    3.8683 C   0  0  0  0  0  0  0  0  0  0  0  0
    6.8553   -0.4592    3.4334 C   0  0  0  0  0  0  0  0  0  0  0  0
   10.8162   -3.0176    5.4139 C   0  0  0  0  0  0  0  0  0  0  0  0
   10.5536   -4.0702    6.5209 C   0  0  0  0  0  0  0  0  0  0  0  0
    5.7693   -1.4171    3.9325 C   0  0  0  0  0  0  0  0  0  0  0  0
    7.2356   -3.7582    3.1523 C   0  0  0  0  0  0  0  0  0  0  0  0
    6.9340    0.8677    4.2208 C   0  0  0  0  0  0  0  0  0  0  0  0
    7.5693   -4.2436    4.5766 C   0  0  2  0  0  0  0  0  0  0  0  0
    9.0927   -4.4034    4.7640 C   0  0  0  0  0  0  0  0  0  0  0  0
    9.6905   -3.1211    4.5504 O   0  0  0  0  0  0  0  0  0  0  0  0
    9.3352   -4.6985    6.1390 O   0  0  0  0  0  0  0  0  0  0  0  0
    5.5830   -2.9714    2.9647 S   0  0  0  0  0  0  0  0  0  0  0  0
    8.2859    2.5779    4.3916 H   0  0  0  0  0  0  0  0  0  0  0  0
    8.1737    1.9094    2.7556 H   0  0  0  0  0  0  0  0  0  0  0  0
    9.1030    1.0540    3.9974 H   0  0  0  0  0  0  0  0  0  0  0  0
    5.7746    2.6795    4.5927 H   0  0  0  0  0  0  0  0  0  0  0  0
    4.7719    1.2415    4.3799 H   0  0  0  0  0  0  0  0  0  0  0  0
    5.5425    1.9970    2.9752 H   0  0  0  0  0  0  0  0  0  0  0  0
    5.7138   -5.3100    4.8993 H   0  0  0  0  0  0  0  0  0  0  0  0
    7.0298   -5.8186    5.9799 H   0  0  0  0  0  0  0  0  0  0  0  0
    7.0114   -6.3403    4.2829 H   0  0  0  0  0  0  0  0  0  0  0  0
    9.6005   -5.2227    2.8104 H   0  0  0  0  0  0  0  0  0  0  0  0
    9.3532   -6.4503    4.0757 H   0  0  0  0  0  0  0  0  0  0  0  0
   10.8356   -5.4839    4.0514 H   0  0  0  0  0  0  0  0  0  0  0  0
    6.6873   -0.2436    2.3692 H   0  0  0  0  0  0  0  0  0  0  0  0
    7.8299   -0.9578    3.5064 H   0  0  0  0  0  0  0  0  0  0  0  0
   11.7506   -3.2230    4.8733 H   0  0  0  0  0  0  0  0  0  0  0  0
   10.8569   -1.9927    5.7950 H   0  0  0  0  0  0  0  0  0  0  0  0
   10.4090   -3.6238    7.5100 H   0  0  0  0  0  0  0  0  0  0  0  0
   11.3715   -4.8006    6.5872 H   0  0  0  0  0  0  0  0  0  0  0  0
    4.7762   -0.9616    3.8602 H   0  0  0  0  0  0  0  0  0  0  0  0
    5.9294   -1.6623    4.9892 H   0  0  0  0  0  0  0  0  0  0  0  0
    7.2051   -4.6015    2.4528 H   0  0  0  0  0  0  0  0  0  0  0  0
    7.9977   -3.0644    2.7911 H   0  0  0  0  0  0  0  0  0  0  0  0
    7.0179    0.6192    5.2904 H   0  0  0  0  0  0  0  0  0  0  0  0
    7.3083   -3.4489    5.2853 H   0  0  0  0  0  0  0  0  0  0  0  0
  1 18  1  0  0  0  0
  1 10  1  0  0  0  0
  1 16  1  0  0  0  0
  2 10  1  0  0  0  0
  2 20  1  0  0  0  0
  2 19  1  0  0  0  0
  3 23  1  0  0  0  0
  4 27  1  0  0  0  0
  4 26  1  0  0  0  0
  4 12  1  0  0  0  0
  5 29  1  0  0  0  0
  5  8  1  0  0  0  0
  5 10  1  0  0  0  0
  6 31  1  0  0  0  0
  6  7  1  0  0  0  0
  7 33  1  0  0  0  0
  7 32  1  0  0  0  0
  8 35  1  0  0  0  0
  9 11  1  0  0  0  0
 10 38  1  0  0  0  0
 11 12  1  0  0  0  0
 11  3  1  0  0  0  0
 11 39  1  1  0  0  0
 12 14  1  0  0  0  0
 13 12  1  0  0  0  0
 13  6  1  0  0  0  0
 14  7  1  0  0  0  0
 15  9  1  0  0  0  0
 15  8  1  0  0  0  0
 17  1  1  0  0  0  0
 21  2  1  0  0  0  0
 22  3  1  0  0  0  0
 24  3  1  0  0  0  0
 25  4  1  0  0  0  0
 28  5  1  0  0  0  0
 30  6  1  0  0  0  0
 34  8  1  0  0  0  0
 36  9  1  0  0  0  0
 37  9  1  0  0  0  0
M  END
>  <HBA>
3

>  <HBD>
0

>  <TPSA>
43.76

>  <cid>
59229

>  <dipole>
3.15

>  <excitation_energy_1>
5.228

>  <excitation_energy_2>
5.271

>  <excitation_energy_3>
5.59

>  <excitation_energy_4>
5.723

>  <homo_energy>
-5.733

>  <homo_lumo_gap>
7.168

>  <logP>
3.165

>  <lumo_energy>
1.434

>  <melting_point>
-5.88

>  <molecular_refractivity>
67.48

>  <oscillator_strength_1>
0.0015

>  <oscillator_strength_2>
0.0069

>  <oscillator_strength_3>
0.0163

>  <oscillator_strength_4>
0.0034

>  <open_babel_can_smiles>
C[C@@H](C1(C)OCCO1)CSCCC(C)C

>  <mulliken_charges>
39
1   -0.442128
2   -0.445002
3   -0.467581
4   -0.463849
5   -0.256095
6   -0.054882
7   -0.050181
8   -0.426272
9   -0.449022
10   -0.06856
11   -0.08586
12   0.526464
13   -0.511012
14   -0.508839
15   0.0757
16   0.138831
17   0.140626
18   0.141436
19   0.141038
20   0.142543
21   0.141336
22   0.168755
23   0.165377
24   0.13654
25   0.155854
26   0.161242
27   0.144164
28   0.141243
29   0.154122
30   0.138948
31   0.153551
32   0.152642
33   0.138832
34   0.173014
35   0.167697
36   0.168075
37   0.196267
38   0.120105
39   0.14488

>  <lowdin_charges>
39
1   -0.442315
2   -0.446219
3   -0.448294
4   -0.461669
5   -0.283378
6   -0.146258
7   -0.146762
8   -0.375519
9   -0.386283
10   -0.118411
11   -0.137715
12   0.213081
13   -0.268931
14   -0.264667
15   0.083219
16   0.147208
17   0.145013
18   0.148211
19   0.148843
20   0.147755
21   0.145493
22   0.16246
23   0.159895
24   0.144793
25   0.158172
26   0.161665
27   0.153921
28   0.145285
29   0.151042
30   0.136108
31   0.151092
32   0.150365
33   0.137723
34   0.165266
35   0.150656
36   0.16443
37   0.168148
38   0.132453
39   0.154123

$$$$

