PCCDB-ID:  66043
public computational chemistry database (PCCDB) project, http://pccdb.org

 20 20  0  0  0  0  0  0  0  0999 V2000
   -0.9821    1.2703   -0.0334 C   0  0  0  0  0  0  0  0  0  0  0  0
   -1.6164    0.0257   -0.0422 C   0  0  0  0  0  0  0  0  0  0  0  0
    1.1590    0.1754   -0.1011 C   0  0  0  0  0  0  0  0  0  0  0  0
    0.5280   -1.0625   -0.1145 C   0  0  0  0  0  0  0  0  0  0  0  0
    1.0876    2.7105   -0.0562 C   0  0  0  0  0  0  0  0  0  0  0  0
   -1.5645   -2.4953   -0.0969 C   0  0  0  0  0  0  0  0  0  0  0  0
    0.4122    1.3636   -0.0640 C   0  0  0  0  0  0  0  0  0  0  0  0
   -0.8724   -1.1570   -0.0830 C   0  0  0  0  0  0  0  0  0  0  0  0
    1.9486    3.1344    1.5336 S   0  0  0  0  0  0  0  0  0  0  0  0
   -1.4819   -3.3886   -1.7227 S   0  0  0  0  0  0  0  0  0  0  0  0
   -1.5819    2.1774   -0.0052 H   0  0  0  0  0  0  0  0  0  0  0  0
   -2.7029   -0.0224   -0.0148 H   0  0  0  0  0  0  0  0  0  0  0  0
    2.2449    0.2273   -0.1097 H   0  0  0  0  0  0  0  0  0  0  0  0
    1.1234   -1.9709   -0.1606 H   0  0  0  0  0  0  0  0  0  0  0  0
    0.3756    3.5053   -0.2932 H   0  0  0  0  0  0  0  0  0  0  0  0
    1.8904    2.7560   -0.7990 H   0  0  0  0  0  0  0  0  0  0  0  0
   -2.6126   -2.3964    0.1974 H   0  0  0  0  0  0  0  0  0  0  0  0
   -1.0915   -3.1940    0.6006 H   0  0  0  0  0  0  0  0  0  0  0  0
    0.8791    2.9514    2.3375 H   0  0  0  0  0  0  0  0  0  0  0  0
   -2.0012   -2.3904   -2.4695 H   0  0  0  0  0  0  0  0  0  0  0  0
  1 11  1  0  0  0  0
  2  1  1  0  0  0  0
  2 12  1  0  0  0  0
  3  7  1  0  0  0  0
  4  3  2  0  0  0  0
  4  8  1  0  0  0  0
  5  9  1  0  0  0  0
  6  8  1  0  0  0  0
  6 17  1  0  0  0  0
  6 18  1  0  0  0  0
  7  5  1  0  0  0  0
  7  1  2  0  0  0  0
  8  2  2  0  0  0  0
  9 19  1  0  0  0  0
 10  6  1  0  0  0  0
 13  3  1  0  0  0  0
 14  4  1  0  0  0  0
 15  5  1  0  0  0  0
 16  5  1  0  0  0  0
 20 10  1  0  0  0  0
M  END
>  <HBA>
2

>  <HBD>
2

>  <TPSA>
77.6

>  <cid>
66043

>  <dipole>
1.77

>  <excitation_energy_1>
4.752

>  <excitation_energy_2>
4.782

>  <excitation_energy_3>
4.982

>  <excitation_energy_4>
5.218

>  <homo_energy>
-6.297

>  <homo_lumo_gap>
5.595

>  <logP>
2.546

>  <lumo_energy>
-0.702

>  <melting_point>
52.51

>  <molecular_refractivity>
52.23

>  <oscillator_strength_1>
0.1032

>  <oscillator_strength_2>
0.0007

>  <oscillator_strength_3>
0.0025

>  <oscillator_strength_4>
0.0081

>  <open_babel_can_smiles>
SCc1ccc(cc1)CS

>  <mulliken_charges>
20
1   -0.181917
2   -0.181979
3   -0.16308
4   -0.163101
5   -0.506198
6   -0.505876
7   0.17871
8   0.178616
9   -0.072808
10   -0.0728
11   0.128343
12   0.128312
13   0.140301
14   0.140297
15   0.185363
16   0.192628
17   0.185292
18   0.192524
19   0.098662
20   0.098709

>  <lowdin_charges>
20
1   -0.166729
2   -0.163214
3   -0.14757
4   -0.150938
5   -0.366019
6   -0.364679
7   -0.014111
8   -0.014093
9   -0.085318
10   -0.085791
11   0.157337
12   0.154756
13   0.16214
14   0.164656
15   0.166134
16   0.177024
17   0.163907
18   0.177658
19   0.117074
20   0.117776

$$$$

