PCCDB-ID:  46273
public computational chemistry database (PCCDB) project, http://pccdb.org

 33 33  0  0  1  0  0  0  0  0999 V2000
    7.6951    5.1376    6.8527 C   0  0  0  0  0  0  0  0  0  0  0  0
    7.6249    4.5239    5.4505 C   0  0  0  0  0  0  0  0  0  0  0  0
    8.3745    3.1881    5.3454 C   0  0  0  0  0  0  0  0  0  0  0  0
    6.8242   -0.5921   -2.3673 C   0  0  0  0  0  0  0  0  0  0  0  0
    5.9151    0.4236   -2.0647 C   0  0  0  0  0  0  0  0  0  0  0  0
    7.9823   -0.7312   -1.6004 C   0  0  0  0  0  0  0  0  0  0  0  0
    6.1565    1.2917   -0.9991 C   0  0  0  0  0  0  0  0  0  0  0  0
    8.2262    0.1415   -0.5396 C   0  0  0  0  0  0  0  0  0  0  0  0
    8.4055    2.5870    3.9357 C   0  0  0  0  0  0  0  0  0  0  0  0
    7.0021    1.3961    2.2648 C   0  0  0  0  0  0  0  0  0  0  0  0
    7.3159    1.1581   -0.2251 C   0  0  0  0  0  0  0  0  0  0  0  0
    7.5610    2.0498    0.9715 C   0  0  1  0  0  0  0  0  0  0  0  0
    7.0719    2.1949    3.4825 N   0  0  0  0  0  0  0  0  0  0  0  0
    6.9337    3.3125    0.7425 O   0  0  0  0  0  0  0  0  0  0  0  0
    7.1498    6.0868    6.9023 H   0  0  0  0  0  0  0  0  0  0  0  0
    8.7337    5.3327    7.1469 H   0  0  0  0  0  0  0  0  0  0  0  0
    7.2605    4.4634    7.6004 H   0  0  0  0  0  0  0  0  0  0  0  0
    8.0415    5.2334    4.7199 H   0  0  0  0  0  0  0  0  0  0  0  0
    6.5696    4.3801    5.1797 H   0  0  0  0  0  0  0  0  0  0  0  0
    7.9195    2.4571    6.0263 H   0  0  0  0  0  0  0  0  0  0  0  0
    9.4118    3.3354    5.6781 H   0  0  0  0  0  0  0  0  0  0  0  0
    6.6350   -1.2660   -3.1987 H   0  0  0  0  0  0  0  0  0  0  0  0
    5.0150    0.5434   -2.6624 H   0  0  0  0  0  0  0  0  0  0  0  0
    8.7005   -1.5135   -1.8322 H   0  0  0  0  0  0  0  0  0  0  0  0
    5.4581    2.0893   -0.7689 H   0  0  0  0  0  0  0  0  0  0  0  0
    9.1368    0.0358    0.0472 H   0  0  0  0  0  0  0  0  0  0  0  0
    9.0203    1.6774    3.9474 H   0  0  0  0  0  0  0  0  0  0  0  0
    8.9205    3.2956    3.2565 H   0  0  0  0  0  0  0  0  0  0  0  0
    7.5343    0.4517    2.4391 H   0  0  0  0  0  0  0  0  0  0  0  0
    5.9492    1.1465    2.0877 H   0  0  0  0  0  0  0  0  0  0  0  0
    8.6480    2.1907    1.0867 H   0  0  0  0  0  0  0  0  0  0  0  0
    6.4503    2.9971    3.4180 H   0  0  0  0  0  0  0  0  0  0  0  0
    7.1101    3.8586    1.5242 H   0  0  0  0  0  0  0  0  0  0  0  0
  1 15  1  0  0  0  0
  1 16  1  0  0  0  0
  1 17  1  0  0  0  0
  2  1  1  0  0  0  0
  3  2  1  0  0  0  0
  3 21  1  0  0  0  0
  3 20  1  0  0  0  0
  4  5  2  0  0  0  0
  4  6  1  0  0  0  0
  5  7  1  0  0  0  0
  6  8  2  0  0  0  0
  7 25  1  0  0  0  0
  7 11  2  0  0  0  0
  8 11  1  0  0  0  0
  8 26  1  0  0  0  0
  9 27  1  0  0  0  0
  9  3  1  0  0  0  0
 10 29  1  0  0  0  0
 10 13  1  0  0  0  0
 11 12  1  0  0  0  0
 12 31  1  1  0  0  0
 12 10  1  0  0  0  0
 13  9  1  0  0  0  0
 14 12  1  0  0  0  0
 14 33  1  0  0  0  0
 18  2  1  0  0  0  0
 19  2  1  0  0  0  0
 22  4  1  0  0  0  0
 23  5  1  0  0  0  0
 24  6  1  0  0  0  0
 28  9  1  0  0  0  0
 30 10  1  0  0  0  0
 32 13  1  0  0  0  0
M  END
>  <HBA>
2

>  <HBD>
2

>  <TPSA>
32.26

>  <cid>
46273

>  <dipole>
1.56

>  <excitation_energy_1>
4.956

>  <excitation_energy_2>
5.122

>  <excitation_energy_3>
5.285

>  <excitation_energy_4>
5.534

>  <homo_energy>
-5.826

>  <homo_lumo_gap>
5.932

>  <logP>
2.501

>  <lumo_energy>
0.106

>  <melting_point>
49.63

>  <molecular_refractivity>
59.41

>  <oscillator_strength_1>
0.0316

>  <oscillator_strength_2>
0.0065

>  <oscillator_strength_3>
0.1207

>  <oscillator_strength_4>
0.0188

>  <open_babel_can_smiles>
CCCCNC[C@@H](c1ccccc1)O

>  <mulliken_charges>
33
1   -0.440667
2   -0.260432
3   -0.245641
4   -0.127898
5   -0.132392
6   -0.131668
7   -0.168575
8   -0.18012
9   -0.130517
10   -0.142608
11   0.144299
12   0.052765
13   -0.557037
14   -0.63421
15   0.143941
16   0.143668
17   0.146893
18   0.126356
19   0.133397
20   0.145262
21   0.128696
22   0.126366
23   0.127737
24   0.126787
25   0.147856
26   0.118978
27   0.140534
28   0.10753
29   0.140499
30   0.149741
31   0.121561
32   0.292179
33   0.386717

>  <lowdin_charges>
33
1   -0.442799
2   -0.277075
3   -0.279346
4   -0.160868
5   -0.154776
6   -0.15723
7   -0.159305
8   -0.169005
9   -0.206542
10   -0.221307
11   -0.008067
12   -0.014871
13   -0.363734
14   -0.462912
15   0.15037
16   0.146435
17   0.150486
18   0.137063
19   0.137138
20   0.14988
21   0.141626
22   0.156656
23   0.156652
24   0.157005
25   0.168318
26   0.152418
27   0.146026
28   0.112726
29   0.146857
30   0.151616
31   0.128483
32   0.249347
33   0.338733

$$$$

