PCCDB-ID:  7087
public computational chemistry database (PCCDB) project, http://pccdb.org

 29 31  0  0  0  0  0  0  0  0999 V2000
    0.8758    0.4614   -0.0422 C   0  0  0  0  0  0  0  0  0  0  0  0
    3.2423    1.2419    0.4192 C   0  0  0  0  0  0  0  0  0  0  0  0
    8.1497   -3.8524   -0.1867 C   0  0  0  0  0  0  0  0  0  0  0  0
    9.1247   -1.7254    0.3897 C   0  0  0  0  0  0  0  0  0  0  0  0
    9.4086   -4.4366   -0.1791 C   0  0  0  0  0  0  0  0  0  0  0  0
   10.3844   -2.3020    0.4000 C   0  0  0  0  0  0  0  0  0  0  0  0
    4.6097    1.0384    0.5382 C   0  0  0  0  0  0  0  0  0  0  0  0
    2.8800   -1.0724   -0.1944 C   0  0  0  0  0  0  0  0  0  0  0  0
    2.3612    0.2000    0.0564 C   0  0  0  0  0  0  0  0  0  0  0  0
    7.9776   -2.4865    0.0934 C   0  0  0  0  0  0  0  0  0  0  0  0
   10.5519   -3.6711    0.1142 C   0  0  0  0  0  0  0  0  0  0  0  0
    5.1367   -0.2385    0.2903 C   0  0  0  0  0  0  0  0  0  0  0  0
    4.2549   -1.2826   -0.0755 C   0  0  0  0  0  0  0  0  0  0  0  0
    6.6678   -1.8371    0.0876 C   0  0  0  0  0  0  0  0  0  0  0  0
   11.8086   -4.2623    0.1754 N   0  0  0  0  0  0  0  0  0  0  0  0
    6.4716   -0.5834    0.3705 N   0  0  0  0  0  0  0  0  0  0  0  0
    5.1773   -2.7509   -0.3271 S   0  0  0  0  0  0  0  0  0  0  0  0
    0.6656    1.3604   -0.6337 H   0  0  0  0  0  0  0  0  0  0  0  0
    0.4308    0.6185    0.9493 H   0  0  0  0  0  0  0  0  0  0  0  0
    0.3508   -0.3779   -0.5093 H   0  0  0  0  0  0  0  0  0  0  0  0
    2.8332    2.2314    0.6098 H   0  0  0  0  0  0  0  0  0  0  0  0
    7.2888   -4.4746   -0.4168 H   0  0  0  0  0  0  0  0  0  0  0  0
    9.0035   -0.6695    0.6061 H   0  0  0  0  0  0  0  0  0  0  0  0
    9.5142   -5.4972   -0.3950 H   0  0  0  0  0  0  0  0  0  0  0  0
   11.2555   -1.6943    0.6347 H   0  0  0  0  0  0  0  0  0  0  0  0
    5.2804    1.8452    0.8171 H   0  0  0  0  0  0  0  0  0  0  0  0
    2.2163   -1.8848   -0.4778 H   0  0  0  0  0  0  0  0  0  0  0  0
   11.9172   -5.1235   -0.3445 H   0  0  0  0  0  0  0  0  0  0  0  0
   12.5959   -3.6384    0.0541 H   0  0  0  0  0  0  0  0  0  0  0  0
  1  9  1  0  0  0  0
  1 19  1  0  0  0  0
  2  7  1  0  0  0  0
  2 21  1  0  0  0  0
  3  5  2  0  0  0  0
  3 10  1  0  0  0  0
  4  6  1  0  0  0  0
  4 23  1  0  0  0  0
  5 11  1  0  0  0  0
  6 25  1  0  0  0  0
  7 26  1  0  0  0  0
  8 13  2  0  0  0  0
  8  9  1  0  0  0  0
  9  2  2  0  0  0  0
 10  4  2  0  0  0  0
 11 15  1  0  0  0  0
 11  6  2  0  0  0  0
 12 16  1  0  0  0  0
 12  7  2  0  0  0  0
 13 12  1  0  0  0  0
 14 10  1  0  0  0  0
 14 16  2  0  0  0  0
 17 13  1  0  0  0  0
 17 14  1  0  0  0  0
 18  1  1  0  0  0  0
 20  1  1  0  0  0  0
 22  3  1  0  0  0  0
 24  5  1  0  0  0  0
 27  8  1  0  0  0  0
 28 15  1  0  0  0  0
 29 15  1  0  0  0  0
M  END
>  <HBA>
3

>  <HBD>
1

>  <TPSA>
67.15

>  <cid>
7087

>  <dipole>
2.62

>  <excitation_energy_1>
3.772

>  <excitation_energy_2>
4.225

>  <excitation_energy_3>
4.374

>  <excitation_energy_4>
4.623

>  <homo_energy>
-5.279

>  <homo_lumo_gap>
4.114

>  <logP>
4.435

>  <lumo_energy>
-1.165

>  <melting_point>
155.66

>  <molecular_refractivity>
74.43

>  <oscillator_strength_1>
0.864

>  <oscillator_strength_2>
0.0225

>  <oscillator_strength_3>
0.0065

>  <oscillator_strength_4>
0.0014

>  <open_babel_can_smiles>
Nc1ccc(cc1)c1nc2c(s1)cc(cc2)C

>  <mulliken_charges>
29
1   -0.530889
2   -0.196326
3   -0.197646
4   -0.15988
5   -0.18328
6   -0.176497
7   -0.147349
8   -0.24468
9   0.1902
10   0.12361
11   0.331006
12   0.296611
13   -0.119056
14   0.044133
15   -0.789983
16   -0.522272
17   0.194917
18   0.160461
19   0.164783
20   0.154935
21   0.123115
22   0.148715
23   0.16281
24   0.123142
25   0.123789
26   0.139379
27   0.133847
28   0.325912
29   0.326492

>  <lowdin_charges>
29
1   -0.441897
2   -0.169211
3   -0.142255
4   -0.121445
5   -0.197525
6   -0.197972
7   -0.156944
8   -0.176963
9   0.000819
10   -0.043473
11   0.070293
12   0.016881
13   -0.145198
14   -0.056597
15   -0.477504
16   -0.170116
17   0.230446
18   0.160032
19   0.160902
20   0.15754
21   0.155566
22   0.167811
23   0.175107
24   0.154146
25   0.156707
26   0.168675
27   0.162076
28   0.279547
29   0.280553

$$$$

