PCCDB-ID:  66666
public computational chemistry database (PCCDB) project, http://pccdb.org

 20 20  0  0  0  0  0  0  0  0999 V2000
    2.3100   -1.1707    0.3945 C   0  0  0  0  0  0  0  0  0  0  0  0
    1.7636    4.2105   -0.3068 C   0  0  0  0  0  0  0  0  0  0  0  0
    2.0389    0.0452   -0.0966 C   0  0  0  0  0  0  0  0  0  0  0  0
    2.2596    2.9774   -0.1447 C   0  0  0  0  0  0  0  0  0  0  0  0
    4.1167    0.6126   -3.2100 C   0  0  0  0  0  0  0  0  0  0  0  0
    4.2021    2.0063   -3.2453 C   0  0  0  0  0  0  0  0  0  0  0  0
    3.4183   -0.0085   -2.1791 C   0  0  0  0  0  0  0  0  0  0  0  0
    3.5889    2.7589   -2.2484 C   0  0  0  0  0  0  0  0  0  0  0  0
    2.7963    0.7338   -1.1611 C   0  0  0  0  0  0  0  0  0  0  0  0
    2.8754    2.1504   -1.2020 C   0  0  0  0  0  0  0  0  0  0  0  0
    1.6861   -1.6183    1.1626 H   0  0  0  0  0  0  0  0  0  0  0  0
    3.1640   -1.7551    0.0613 H   0  0  0  0  0  0  0  0  0  0  0  0
    1.3487    4.7640    0.5304 H   0  0  0  0  0  0  0  0  0  0  0  0
    1.7413    4.7052   -1.2747 H   0  0  0  0  0  0  0  0  0  0  0  0
    1.1863    0.5853    0.3108 H   0  0  0  0  0  0  0  0  0  0  0  0
    2.2169    2.5326    0.8478 H   0  0  0  0  0  0  0  0  0  0  0  0
    4.5858    0.0134   -3.9857 H   0  0  0  0  0  0  0  0  0  0  0  0
    4.7494    2.5036   -4.0415 H   0  0  0  0  0  0  0  0  0  0  0  0
    3.3209   -1.0902   -2.1719 H   0  0  0  0  0  0  0  0  0  0  0  0
    3.6856    3.8408   -2.2553 H   0  0  0  0  0  0  0  0  0  0  0  0
  1 11  1  0  0  0  0
  2  4  2  0  0  0  0
  2 13  1  0  0  0  0
  3 15  1  0  0  0  0
  3  1  2  0  0  0  0
  4 16  1  0  0  0  0
  5  7  1  0  0  0  0
  6  5  2  0  0  0  0
  6  8  1  0  0  0  0
  7 19  1  0  0  0  0
  7  9  2  0  0  0  0
  8 10  2  0  0  0  0
  9  3  1  0  0  0  0
 10  9  1  0  0  0  0
 10  4  1  0  0  0  0
 12  1  1  0  0  0  0
 14  2  1  0  0  0  0
 17  5  1  0  0  0  0
 18  6  1  0  0  0  0
 20  8  1  0  0  0  0
M  END
>  <HBA>
0

>  <HBD>
0

>  <TPSA>
0.0

>  <cid>
66666

>  <dipole>
0.05

>  <excitation_energy_1>
4.387

>  <excitation_energy_2>
4.546

>  <excitation_energy_3>
5.16

>  <excitation_energy_4>
5.333

>  <homo_energy>
-5.957

>  <homo_lumo_gap>
4.953

>  <logP>
2.973

>  <lumo_energy>
-1.004

>  <melting_point>
-9.41

>  <molecular_refractivity>
46.62

>  <oscillator_strength_1>
0.0007

>  <oscillator_strength_2>
0.3668

>  <oscillator_strength_3>
0.4272

>  <oscillator_strength_4>
0.0075

>  <open_babel_can_smiles>
C=Cc1ccccc1C=C

>  <mulliken_charges>
20
1   -0.337502
2   -0.33735
3   -0.133315
4   -0.133515
5   -0.128207
6   -0.128439
7   -0.186208
8   -0.185827
9   0.096421
10   0.095368
11   0.143707
12   0.144372
13   0.143719
14   0.144438
15   0.140161
16   0.140272
17   0.129973
18   0.130042
19   0.130921
20   0.130971

>  <lowdin_charges>
20
1   -0.32992
2   -0.329251
3   -0.151891
4   -0.150922
5   -0.157615
6   -0.157247
7   -0.153066
8   -0.153165
9   -0.00773
10   -0.007679
11   0.163012
12   0.159072
13   0.163021
14   0.158399
15   0.161013
16   0.159819
17   0.159542
18   0.159403
19   0.157583
20   0.157622

$$$$

