PCCDB-ID:  15449
public computational chemistry database (PCCDB) project, http://pccdb.org

 42 41  0  0  1  0  0  0  0  0999 V2000
    6.9224    3.2537   -8.0054 C   0  0  0  0  0  0  0  0  0  0  0  0
   14.7640    6.7839   -2.0119 C   0  0  0  0  0  0  0  0  0  0  0  0
    7.6464    3.0238   -6.6747 C   0  0  0  0  0  0  0  0  0  0  0  0
    6.8217    3.4528   -5.4542 C   0  0  0  0  0  0  0  0  0  0  0  0
    7.5389    3.2264   -4.1168 C   0  0  0  0  0  0  0  0  0  0  0  0
    6.6971    3.6480   -2.9020 C   0  0  0  0  0  0  0  0  0  0  0  0
    7.3526    3.4170   -1.5225 C   0  0  0  0  0  0  0  0  0  0  0  0
    8.2084    4.5711   -0.9679 C   0  0  0  0  0  0  0  0  0  0  0  0
    9.4937    4.9032   -1.7391 C   0  0  0  0  0  0  0  0  0  0  0  0
   10.3468    5.9653   -1.0288 C   0  0  0  0  0  0  0  0  0  0  0  0
   11.6046    6.4089   -1.7960 C   0  0  0  0  0  0  0  0  0  0  0  0
   12.6650    5.3106   -1.9507 C   0  0  0  0  0  0  0  0  0  0  0  0
   13.9122    5.7350   -2.7305 C   0  0  2  0  0  0  0  0  0  0  0  0
   14.6637    4.5341   -2.9407 O   0  0  0  0  0  0  0  0  0  0  0  0
    7.5377    2.9397   -8.8564 H   0  0  0  0  0  0  0  0  0  0  0  0
    6.6768    4.3137   -8.1452 H   0  0  0  0  0  0  0  0  0  0  0  0
    5.9827    2.6893   -8.0478 H   0  0  0  0  0  0  0  0  0  0  0  0
   14.2158    7.7201   -1.8599 H   0  0  0  0  0  0  0  0  0  0  0  0
   15.6612    7.0240   -2.5978 H   0  0  0  0  0  0  0  0  0  0  0  0
   15.0872    6.4049   -1.0355 H   0  0  0  0  0  0  0  0  0  0  0  0
    8.6002    3.5705   -6.6777 H   0  0  0  0  0  0  0  0  0  0  0  0
    7.9074    1.9602   -6.5791 H   0  0  0  0  0  0  0  0  0  0  0  0
    5.8666    2.9060   -5.4523 H   0  0  0  0  0  0  0  0  0  0  0  0
    6.5596    4.5172   -5.5512 H   0  0  0  0  0  0  0  0  0  0  0  0
    8.4948    3.7654   -4.1260 H   0  0  0  0  0  0  0  0  0  0  0  0
    7.7944    2.1607   -4.0194 H   0  0  0  0  0  0  0  0  0  0  0  0
    5.7526    3.0870   -2.9396 H   0  0  0  0  0  0  0  0  0  0  0  0
    6.4159    4.7076   -2.9987 H   0  0  0  0  0  0  0  0  0  0  0  0
    7.9556    2.4974   -1.5555 H   0  0  0  0  0  0  0  0  0  0  0  0
    6.5576    3.2247   -0.7897 H   0  0  0  0  0  0  0  0  0  0  0  0
    8.4826    4.3218    0.0678 H   0  0  0  0  0  0  0  0  0  0  0  0
    7.5854    5.4759   -0.9023 H   0  0  0  0  0  0  0  0  0  0  0  0
    9.2456    5.2661   -2.7457 H   0  0  0  0  0  0  0  0  0  0  0  0
   10.0770    3.9827   -1.8782 H   0  0  0  0  0  0  0  0  0  0  0  0
   10.6419    5.5903   -0.0374 H   0  0  0  0  0  0  0  0  0  0  0  0
    9.7215    6.8503   -0.8428 H   0  0  0  0  0  0  0  0  0  0  0  0
   12.0416    7.2689   -1.2714 H   0  0  0  0  0  0  0  0  0  0  0  0
   11.3098    6.7764   -2.7906 H   0  0  0  0  0  0  0  0  0  0  0  0
   12.2414    4.4462   -2.4753 H   0  0  0  0  0  0  0  0  0  0  0  0
   12.9801    4.9500   -0.9611 H   0  0  0  0  0  0  0  0  0  0  0  0
   13.5909    6.1450   -3.7046 H   0  0  0  0  0  0  0  0  0  0  0  0
   15.4742    4.7752   -3.4158 H   0  0  0  0  0  0  0  0  0  0  0  0
  1  3  1  0  0  0  0
  2 18  1  0  0  0  0
  2 20  1  0  0  0  0
  3 22  1  0  0  0  0
  3  4  1  0  0  0  0
  4 23  1  0  0  0  0
  4  5  1  0  0  0  0
  5 26  1  0  0  0  0
  5  6  1  0  0  0  0
  6  7  1  0  0  0  0
  7  8  1  0  0  0  0
  7 30  1  0  0  0  0
  8 32  1  0  0  0  0
  8 31  1  0  0  0  0
  9 10  1  0  0  0  0
  9  8  1  0  0  0  0
 10 36  1  0  0  0  0
 10 35  1  0  0  0  0
 11 37  1  0  0  0  0
 11 10  1  0  0  0  0
 12 11  1  0  0  0  0
 12 40  1  0  0  0  0
 13 41  1  6  0  0  0
 13  2  1  0  0  0  0
 13 12  1  0  0  0  0
 14 13  1  0  0  0  0
 15  1  1  0  0  0  0
 16  1  1  0  0  0  0
 17  1  1  0  0  0  0
 19  2  1  0  0  0  0
 21  3  1  0  0  0  0
 24  4  1  0  0  0  0
 25  5  1  0  0  0  0
 27  6  1  0  0  0  0
 28  6  1  0  0  0  0
 29  7  1  0  0  0  0
 33  9  1  0  0  0  0
 34  9  1  0  0  0  0
 38 11  1  0  0  0  0
 39 12  1  0  0  0  0
 42 14  1  0  0  0  0
M  END
>  <HBA>
1

>  <HBD>
1

>  <TPSA>
20.23

>  <cid>
15449

>  <dipole>
1.43

>  <excitation_energy_1>
6.375

>  <excitation_energy_2>
7.174

>  <excitation_energy_3>
7.316

>  <excitation_energy_4>
7.367

>  <homo_energy>
-7.075

>  <homo_lumo_gap>
9.127

>  <logP>
4.288

>  <lumo_energy>
2.052

>  <melting_point>
-12.59

>  <molecular_refractivity>
65.77

>  <oscillator_strength_1>
0.0088

>  <oscillator_strength_2>
0.0075

>  <oscillator_strength_3>
0.0139

>  <oscillator_strength_4>
0.0083

>  <open_babel_can_smiles>
CCCCCCCCCCC[C@H](O)C

>  <mulliken_charges>
42
1   -0.441109
2   -0.464841
3   -0.246672
4   -0.245737
5   -0.25899
6   -0.253092
7   -0.260632
8   -0.254105
9   -0.255191
10   -0.255509
11   -0.267121
12   -0.259834
13   0.149661
14   -0.630896
15   0.140733
16   0.140166
17   0.140682
18   0.147651
19   0.130815
20   0.154142
21   0.129572
22   0.130081
23   0.125211
24   0.124843
25   0.136426
26   0.126816
27   0.127229
28   0.12571
29   0.128134
30   0.127543
31   0.12654
32   0.125355
33   0.133437
34   0.135585
35   0.128187
36   0.126612
37   0.130442
38   0.12632
39   0.150991
40   0.134614
41   0.106115
42   0.384115

>  <lowdin_charges>
42
1   -0.443734
2   -0.462967
3   -0.270228
4   -0.27298
5   -0.276769
6   -0.275773
7   -0.278366
8   -0.273202
9   -0.280317
10   -0.274135
11   -0.277612
12   -0.282867
13   0.002087
14   -0.470688
15   0.149313
16   0.144219
17   0.145768
18   0.153591
19   0.144479
20   0.154143
21   0.138098
22   0.137227
23   0.136091
24   0.134722
25   0.140555
26   0.135462
27   0.140015
28   0.135757
29   0.138814
30   0.143689
31   0.138268
32   0.13628
33   0.138127
34   0.140858
35   0.137636
36   0.140536
37   0.141492
38   0.13653
39   0.153318
40   0.143626
41   0.11949
42   0.339449

$$$$

