PCCDB-ID:  29864
public computational chemistry database (PCCDB) project, http://pccdb.org

 28 27  0  0  0  0  0  0  0  0999 V2000
    7.9370    1.6021   -2.3439 C   0  0  0  0  0  0  0  0  0  0  0  0
    7.4523    1.4881   -0.8942 C   0  0  0  0  0  0  0  0  0  0  0  0
    5.9390    1.2516   -0.7948 C   0  0  0  0  0  0  0  0  0  0  0  0
    5.3754    1.0020    0.6160 C   0  0  0  0  0  0  0  0  0  0  0  0
    5.5190    2.1690    1.6200 C   0  0  0  0  0  0  0  0  0  0  0  0
    6.7877    2.1127    2.4877 C   0  0  0  0  0  0  0  0  0  0  0  0
    6.9814    3.3204    3.4245 C   0  0  0  0  0  0  0  0  0  0  0  0
    5.9142    3.4066    4.5149 C   0  0  0  0  0  0  0  0  0  0  0  0
    7.6231    4.4521    6.3704 C   0  0  0  0  0  0  0  0  0  0  0  0
    8.6514    4.2115    6.8662 N   0  0  0  0  0  0  0  0  0  0  0  0
    6.1225    4.8456    5.6717 S   0  0  0  0  0  0  0  0  0  0  0  0
    9.0163    1.7853   -2.3923 H   0  0  0  0  0  0  0  0  0  0  0  0
    7.4356    2.4269   -2.8652 H   0  0  0  0  0  0  0  0  0  0  0  0
    7.7291    0.6826   -2.9047 H   0  0  0  0  0  0  0  0  0  0  0  0
    7.7252    2.4050   -0.3551 H   0  0  0  0  0  0  0  0  0  0  0  0
    7.9842    0.6662   -0.3939 H   0  0  0  0  0  0  0  0  0  0  0  0
    5.6809    0.3857   -1.4217 H   0  0  0  0  0  0  0  0  0  0  0  0
    5.4143    2.1104   -1.2399 H   0  0  0  0  0  0  0  0  0  0  0  0
    5.8378    0.0990    1.0410 H   0  0  0  0  0  0  0  0  0  0  0  0
    4.3095    0.7649    0.5040 H   0  0  0  0  0  0  0  0  0  0  0  0
    4.6404    2.1714    2.2786 H   0  0  0  0  0  0  0  0  0  0  0  0
    5.4889    3.1256    1.0769 H   0  0  0  0  0  0  0  0  0  0  0  0
    7.6734    2.0433    1.8464 H   0  0  0  0  0  0  0  0  0  0  0  0
    6.7756    1.1885    3.0837 H   0  0  0  0  0  0  0  0  0  0  0  0
    6.9801    4.2505    2.8419 H   0  0  0  0  0  0  0  0  0  0  0  0
    7.9657    3.2482    3.9021 H   0  0  0  0  0  0  0  0  0  0  0  0
    5.8757    2.4962    5.1200 H   0  0  0  0  0  0  0  0  0  0  0  0
    4.9151    3.5805    4.1033 H   0  0  0  0  0  0  0  0  0  0  0  0
  1  2  1  0  0  0  0
  2  3  1  0  0  0  0
  2 16  1  0  0  0  0
  2 15  1  0  0  0  0
  3  4  1  0  0  0  0
  4 19  1  0  0  0  0
  4  5  1  0  0  0  0
  5 21  1  0  0  0  0
  5  6  1  0  0  0  0
  6 24  1  0  0  0  0
  6  7  1  0  0  0  0
  7 26  1  0  0  0  0
  7  8  1  0  0  0  0
  8 27  1  0  0  0  0
  8 11  1  0  0  0  0
  9 10  3  0  0  0  0
 11  9  1  0  0  0  0
 12  1  1  0  0  0  0
 13  1  1  0  0  0  0
 14  1  1  0  0  0  0
 17  3  1  0  0  0  0
 18  3  1  0  0  0  0
 20  4  1  0  0  0  0
 22  5  1  0  0  0  0
 23  6  1  0  0  0  0
 25  7  1  0  0  0  0
 28  8  1  0  0  0  0
M  END
>  <HBA>
2

>  <HBD>
0

>  <TPSA>
49.09

>  <cid>
29864

>  <dipole>
4.5

>  <excitation_energy_1>
4.934

>  <excitation_energy_2>
6.2

>  <excitation_energy_3>
6.649

>  <excitation_energy_4>
6.757

>  <homo_energy>
-7.102

>  <homo_lumo_gap>
6.446

>  <logP>
3.561

>  <lumo_energy>
-0.656

>  <melting_point>
14.32

>  <molecular_refractivity>
52.72

>  <oscillator_strength_1>
0.0001

>  <oscillator_strength_2>
0.0035

>  <oscillator_strength_3>
0.019

>  <oscillator_strength_4>
0.0012

>  <open_babel_can_smiles>
CCCCCCCCSC#N

>  <mulliken_charges>
28
1   -0.442805
2   -0.249313
3   -0.248934
4   -0.262769
5   -0.258493
6   -0.271774
7   -0.265854
8   -0.439036
9   0.129118
10   -0.390269
11   0.214003
12   0.144051
13   0.142426
14   0.143118
15   0.135205
16   0.131397
17   0.13001
18   0.128258
19   0.131981
20   0.132712
21   0.12853
22   0.132951
23   0.154603
24   0.136576
25   0.153716
26   0.170353
27   0.198369
28   0.191872

>  <lowdin_charges>
28
1   -0.44392
2   -0.27806
3   -0.276152
4   -0.27641
5   -0.281409
6   -0.279668
7   -0.282061
8   -0.358434
9   -0.168933
10   -0.123748
11   0.245206
12   0.148751
13   0.147972
14   0.14733
15   0.139778
16   0.139994
17   0.141927
18   0.138365
19   0.141023
20   0.143678
21   0.139591
22   0.140067
23   0.153814
24   0.141975
25   0.152448
26   0.161154
27   0.172398
28   0.173325

$$$$

