PCCDB-ID:  61278
public computational chemistry database (PCCDB) project, http://pccdb.org

 12 11  0  0  0  0  0  0  0  0999 V2000
    1.5889    0.4194    1.0924 C   0  0  0  0  0  0  0  0  0  0  0  0
    2.3463   -0.0803    0.1165 C   0  0  0  0  0  0  0  0  0  0  0  0
    2.9767   -1.4403    0.1677 C   0  0  0  0  0  0  0  0  0  0  0  0
    5.0977   -1.2395    1.2306 C   0  0  0  0  0  0  0  0  0  0  0  0
    4.6252   -1.2555    2.3402 O   0  0  0  0  0  0  0  0  0  0  0  0
    4.4276   -1.3429    0.0693 O   0  0  0  0  0  0  0  0  0  0  0  0
    1.1316    1.4021    1.0142 H   0  0  0  0  0  0  0  0  0  0  0  0
    1.4002   -0.1360    2.0081 H   0  0  0  0  0  0  0  0  0  0  0  0
    2.5370    0.4986   -0.7864 H   0  0  0  0  0  0  0  0  0  0  0  0
    2.6964   -2.0450   -0.6997 H   0  0  0  0  0  0  0  0  0  0  0  0
    2.7139   -1.9691    1.0861 H   0  0  0  0  0  0  0  0  0  0  0  0
    6.1721   -1.1473    1.0076 H   0  0  0  0  0  0  0  0  0  0  0  0
  1  8  1  0  0  0  0
  2  3  1  0  0  0  0
  2  1  2  0  0  0  0
  3 11  1  0  0  0  0
  4  5  2  0  0  0  0
  6  3  1  0  0  0  0
  6  4  1  0  0  0  0
  7  1  1  0  0  0  0
  9  2  1  0  0  0  0
 10  3  1  0  0  0  0
 12  4  1  0  0  0  0
M  END
>  <HBA>
2

>  <HBD>
0

>  <TPSA>
26.3

>  <cid>
61278

>  <dipole>
1.84

>  <excitation_energy_1>
5.783

>  <excitation_energy_2>
6.627

>  <excitation_energy_3>
6.66

>  <excitation_energy_4>
6.988

>  <homo_energy>
-7.353

>  <homo_lumo_gap>
7.334

>  <logP>
0.981

>  <lumo_energy>
-0.019

>  <melting_point>
-61.06

>  <molecular_refractivity>
22.54

>  <oscillator_strength_1>
0.0008

>  <oscillator_strength_2>
0.0022

>  <oscillator_strength_3>
0.0443

>  <oscillator_strength_4>
0.0248

>  <open_babel_can_smiles>
C=CCOC=O

>  <mulliken_charges>
12
1   -0.317135
2   -0.064418
3   -0.105486
4   0.391553
5   -0.41715
6   -0.415087
7   0.150064
8   0.157596
9   0.14191
10   0.163398
11   0.178624
12   0.136132

>  <lowdin_charges>
12
1   -0.307415
2   -0.164179
3   -0.129674
4   0.091787
5   -0.250856
6   -0.190936
7   0.163422
8   0.16571
9   0.158338
10   0.161309
11   0.165373
12   0.137121

$$$$

