PCCDB-ID:  46414
public computational chemistry database (PCCDB) project, http://pccdb.org

 32 32  0  0  1  0  0  0  0  0999 V2000
    0.5662    2.4648    1.4077 C   0  0  0  0  0  0  0  0  0  0  0  0
    3.1524    2.0741   -0.9753 C   0  0  0  0  0  0  0  0  0  0  0  0
    1.8840    3.2477    1.4803 C   0  0  0  0  0  0  0  0  0  0  0  0
    2.3036    2.2181    4.9488 C   0  0  0  0  0  0  0  0  0  0  0  0
    2.2764    2.9737    6.1256 C   0  0  0  0  0  0  0  0  0  0  0  0
    4.3971    3.2501    4.3697 C   0  0  0  0  0  0  0  0  0  0  0  0
    3.3639    2.3531    4.0548 C   0  0  0  0  0  0  0  0  0  0  0  0
    3.1889    2.4266    1.4868 C   0  0  1  0  0  0  0  0  0  0  0  0
    3.2946    3.8729    6.4304 C   0  0  0  0  0  0  0  0  0  0  0  0
    4.3736    4.0113    5.5346 C   0  0  0  0  0  0  0  0  0  0  0  0
    3.4279    1.5649    2.7619 C   0  0  2  0  0  0  0  0  0  0  0  0
    3.2521    1.4800    0.3577 N   0  0  0  0  0  0  0  0  0  0  0  0
    3.3205    4.6367    7.5647 O   0  0  0  0  0  0  0  0  0  0  0  0
    5.3598    4.8955    5.8769 O   0  0  0  0  0  0  0  0  0  0  0  0
    2.5186    0.4773    2.8028 O   0  0  0  0  0  0  0  0  0  0  0  0
   -0.2805    3.1602    1.3738 H   0  0  0  0  0  0  0  0  0  0  0  0
    0.4397    1.8128    2.2747 H   0  0  0  0  0  0  0  0  0  0  0  0
    0.5177    1.8368    0.5113 H   0  0  0  0  0  0  0  0  0  0  0  0
    3.3741    1.3057   -1.7228 H   0  0  0  0  0  0  0  0  0  0  0  0
    3.8410    2.9226   -1.1362 H   0  0  0  0  0  0  0  0  0  0  0  0
    2.1341    2.4280   -1.1585 H   0  0  0  0  0  0  0  0  0  0  0  0
    1.8905    3.8714    2.3813 H   0  0  0  0  0  0  0  0  0  0  0  0
    1.9308    3.9492    0.6367 H   0  0  0  0  0  0  0  0  0  0  0  0
    1.5123    1.5099    4.7347 H   0  0  0  0  0  0  0  0  0  0  0  0
    1.4477    2.8595    6.8232 H   0  0  0  0  0  0  0  0  0  0  0  0
    5.2486    3.3547    3.6968 H   0  0  0  0  0  0  0  0  0  0  0  0
    4.0182    3.1586    1.4386 H   0  0  0  0  0  0  0  0  0  0  0  0
    4.4604    1.1716    2.6659 H   0  0  0  0  0  0  0  0  0  0  0  0
    4.1440    0.9881    0.4181 H   0  0  0  0  0  0  0  0  0  0  0  0
    2.5280    4.4334    8.0852 H   0  0  0  0  0  0  0  0  0  0  0  0
    6.0343    4.8840    5.1805 H   0  0  0  0  0  0  0  0  0  0  0  0
    2.3560    0.2619    1.8639 H   0  0  0  0  0  0  0  0  0  0  0  0
  1  3  1  0  0  0  0
  1 17  1  0  0  0  0
  2 12  1  0  0  0  0
  3  8  1  0  0  0  0
  3 22  1  0  0  0  0
  4  5  2  0  0  0  0
  5  9  1  0  0  0  0
  5 25  1  0  0  0  0
  6 10  1  0  0  0  0
  7  6  2  0  0  0  0
  7  4  1  0  0  0  0
  8 27  1  6  0  0  0
  8 11  1  0  0  0  0
  9 13  1  0  0  0  0
 10 14  1  0  0  0  0
 10  9  2  0  0  0  0
 11 28  1  6  0  0  0
 11 15  1  0  0  0  0
 11  7  1  0  0  0  0
 12 29  1  0  0  0  0
 12  8  1  0  0  0  0
 13 30  1  0  0  0  0
 16  1  1  0  0  0  0
 18  1  1  0  0  0  0
 19  2  1  0  0  0  0
 20  2  1  0  0  0  0
 21  2  1  0  0  0  0
 23  3  1  0  0  0  0
 24  4  1  0  0  0  0
 26  6  1  0  0  0  0
 31 14  1  0  0  0  0
 32 15  1  0  0  0  0
M  END
>  <HBA>
4

>  <HBD>
4

>  <TPSA>
72.72

>  <cid>
46414

>  <dipole>
2.65

>  <excitation_energy_1>
4.701

>  <excitation_energy_2>
4.757

>  <excitation_energy_3>
4.941

>  <excitation_energy_4>
5.187

>  <homo_energy>
-5.418

>  <homo_lumo_gap>
5.627

>  <logP>
1.52

>  <lumo_energy>
0.21

>  <melting_point>
132.24

>  <molecular_refractivity>
58.65

>  <oscillator_strength_1>
0.0247

>  <oscillator_strength_2>
0.0512

>  <oscillator_strength_3>
0.0035

>  <oscillator_strength_4>
0.0062

>  <open_babel_can_smiles>
CC[C@@H]([C@@H](c1ccc(c(c1)O)O)O)NC

>  <mulliken_charges>
32
1   -0.457279
2   -0.306112
3   -0.268216
4   -0.184303
5   -0.201938
6   -0.260148
7   0.127827
8   0.02437
9   0.320339
10   0.324343
11   0.08233
12   -0.57607
13   -0.634582
14   -0.635403
15   -0.651587
16   0.135882
17   0.168008
18   0.146028
19   0.152008
20   0.12823
21   0.16546
22   0.156254
23   0.131917
24   0.152989
25   0.117577
26   0.107051
27   0.10407
28   0.106764
29   0.301951
30   0.40647
31   0.405417
32   0.410354

>  <lowdin_charges>
32
1   -0.45628
2   -0.361548
3   -0.283898
4   -0.170685
5   -0.206409
6   -0.220324
7   -0.021702
8   -0.084457
9   0.075549
10   0.078958
11   -6.9e-05
12   -0.365807
13   -0.372427
14   -0.371978
15   -0.46055
16   0.147749
17   0.159063
18   0.147985
19   0.154611
20   0.127757
21   0.153839
22   0.158254
23   0.142471
24   0.172249
25   0.153903
26   0.148589
27   0.122055
28   0.120789
29   0.254782
30   0.358207
31   0.357448
32   0.341878

$$$$

