PCCDB-ID:  10282
public computational chemistry database (PCCDB) project, http://pccdb.org

 29 29  0  0  1  0  0  0  0  0999 V2000
    2.1401    1.5884   -0.1075 C   0  0  0  0  0  0  0  0  0  0  0  0
    2.8195   -0.5642   -1.1610 C   0  0  0  0  0  0  0  0  0  0  0  0
    0.9911   -3.6579    2.9959 C   0  0  0  0  0  0  0  0  0  0  0  0
    2.9015   -2.7494    1.5371 C   0  0  0  0  0  0  0  0  0  0  0  0
    3.8979   -1.5877    1.3904 C   0  0  0  0  0  0  0  0  0  0  0  0
    1.7010   -1.2681    3.1222 C   0  0  0  0  0  0  0  0  0  0  0  0
    2.3042    0.0748    0.1417 C   0  0  0  0  0  0  0  0  0  0  0  0
    1.8487   -2.4883    2.5900 C   0  0  0  0  0  0  0  0  0  0  0  0
    3.2230   -0.1975    1.3729 C   0  0  1  0  0  0  0  0  0  0  0  0
    2.5105   -0.0464    2.7489 C   0  0  1  0  0  0  0  0  0  0  0  0
    1.6995    1.1281    2.8858 O   0  0  0  0  0  0  0  0  0  0  0  0
    1.4042    1.7752   -0.8994 H   0  0  0  0  0  0  0  0  0  0  0  0
    3.0945    2.0186   -0.4390 H   0  0  0  0  0  0  0  0  0  0  0  0
    1.8366    2.1273    0.7914 H   0  0  0  0  0  0  0  0  0  0  0  0
    2.1694   -0.2843   -1.9985 H   0  0  0  0  0  0  0  0  0  0  0  0
    2.8509   -1.6570   -1.1236 H   0  0  0  0  0  0  0  0  0  0  0  0
    3.8297   -0.2068   -1.3996 H   0  0  0  0  0  0  0  0  0  0  0  0
    1.6007   -4.4681    3.4198 H   0  0  0  0  0  0  0  0  0  0  0  0
    0.4690   -4.0844    2.1277 H   0  0  0  0  0  0  0  0  0  0  0  0
    0.2391   -3.3736    3.7388 H   0  0  0  0  0  0  0  0  0  0  0  0
    3.4449   -3.6730    1.7855 H   0  0  0  0  0  0  0  0  0  0  0  0
    2.4014   -2.9623    0.5798 H   0  0  0  0  0  0  0  0  0  0  0  0
    4.5141   -1.7305    0.4968 H   0  0  0  0  0  0  0  0  0  0  0  0
    4.5897   -1.6154    2.2437 H   0  0  0  0  0  0  0  0  0  0  0  0
    0.9562   -1.0978    3.9000 H   0  0  0  0  0  0  0  0  0  0  0  0
    1.3121   -0.3563    0.3494 H   0  0  0  0  0  0  0  0  0  0  0  0
    4.0246    0.5543    1.3387 H   0  0  0  0  0  0  0  0  0  0  0  0
    3.2953    0.1040    3.5035 H   0  0  0  0  0  0  0  0  0  0  0  0
    0.8784    0.9637    2.3953 H   0  0  0  0  0  0  0  0  0  0  0  0
  1  7  1  0  0  0  0
  1 14  1  0  0  0  0
  2 16  1  0  0  0  0
  2  7  1  0  0  0  0
  3 18  1  0  0  0  0
  3 20  1  0  0  0  0
  4 21  1  0  0  0  0
  4  8  1  0  0  0  0
  5  4  1  0  0  0  0
  5 24  1  0  0  0  0
  6 25  1  0  0  0  0
  7 26  1  0  0  0  0
  7  9  1  0  0  0  0
  8  3  1  0  0  0  0
  8  6  2  0  0  0  0
  9 27  1  6  0  0  0
  9  5  1  0  0  0  0
  9 10  1  0  0  0  0
 10 11  1  0  0  0  0
 10  6  1  0  0  0  0
 10 28  1  1  0  0  0
 12  1  1  0  0  0  0
 13  1  1  0  0  0  0
 15  2  1  0  0  0  0
 17  2  1  0  0  0  0
 19  3  1  0  0  0  0
 22  4  1  0  0  0  0
 23  5  1  0  0  0  0
 29 11  1  0  0  0  0
M  END
>  <HBA>
1

>  <HBD>
1

>  <TPSA>
20.23

>  <cid>
10282

>  <dipole>
1.99

>  <excitation_energy_1>
5.624

>  <excitation_energy_2>
5.912

>  <excitation_energy_3>
6.163

>  <excitation_energy_4>
6.338

>  <homo_energy>
-6.31

>  <homo_lumo_gap>
6.765

>  <logP>
2.36

>  <lumo_energy>
0.454

>  <melting_point>
25.19

>  <molecular_refractivity>
48.76

>  <oscillator_strength_1>
0.0521

>  <oscillator_strength_2>
0.0362

>  <oscillator_strength_3>
0.0071

>  <oscillator_strength_4>
0.028

>  <open_babel_can_smiles>
CC1=C[C@@H]([C@@H](CC1)C(C)C)O

>  <mulliken_charges>
29
1   -0.459876
2   -0.453766
3   -0.514914
4   -0.33047
5   -0.289246
6   -0.23054
7   -0.081956
8   0.195861
9   -0.094889
10   0.119779
11   -0.629424
12   0.132312
13   0.137189
14   0.163546
15   0.140458
16   0.143886
17   0.140773
18   0.153616
19   0.152493
20   0.154954
21   0.140703
22   0.148333
23   0.138334
24   0.13668
25   0.121644
26   0.11275
27   0.121339
28   0.142232
29   0.388198

>  <lowdin_charges>
29
1   -0.456962
2   -0.44416
3   -0.441713
4   -0.280303
5   -0.279232
6   -0.22326
7   -0.126919
8   -0.006173
9   -0.142995
10   -0.005584
11   -0.457803
12   0.143973
13   0.144891
14   0.158994
15   0.149947
16   0.144733
17   0.145102
18   0.15654
19   0.15588
20   0.157546
21   0.149859
22   0.148505
23   0.148669
24   0.145843
25   0.153143
26   0.130378
27   0.143367
28   0.148366
29   0.339369

$$$$

