PCCDB-ID:  28187
public computational chemistry database (PCCDB) project, http://pccdb.org

 29 29  0  0  0  0  0  0  0  0999 V2000
    3.1779   -1.2176   -0.9773 C   0  0  0  0  0  0  0  0  0  0  0  0
    1.1889    0.1278   -0.9033 C   0  0  0  0  0  0  0  0  0  0  0  0
    3.8763    0.0978    8.0052 C   0  0  0  0  0  0  0  0  0  0  0  0
    3.5135    1.0694    7.0702 C   0  0  0  0  0  0  0  0  0  0  0  0
    4.3642   -1.1366    7.5686 C   0  0  0  0  0  0  0  0  0  0  0  0
    3.6363    0.8111    5.7074 C   0  0  0  0  0  0  0  0  0  0  0  0
    4.4881   -1.3996    6.2080 C   0  0  0  0  0  0  0  0  0  0  0  0
    2.5401   -0.1211    1.0931 C   0  0  0  0  0  0  0  0  0  0  0  0
    3.8930    0.3408    1.6405 C   0  0  0  0  0  0  0  0  0  0  0  0
    4.1259   -0.4298    5.2575 C   0  0  0  0  0  0  0  0  0  0  0  0
    4.2570   -0.7107    3.8039 C   0  0  0  0  0  0  0  0  0  0  0  0
    2.5318   -0.0587   -0.3673 N   0  0  0  0  0  0  0  0  0  0  0  0
    3.8704    0.3516    3.0841 O   0  0  0  0  0  0  0  0  0  0  0  0
    4.8106   -2.1360    3.1580 S   0  0  0  0  0  0  0  0  0  0  0  0
    3.2479   -1.0678   -2.0601 H   0  0  0  0  0  0  0  0  0  0  0  0
    2.6291   -2.1614   -0.7932 H   0  0  0  0  0  0  0  0  0  0  0  0
    4.1928   -1.3408   -0.5893 H   0  0  0  0  0  0  0  0  0  0  0  0
    1.2444    0.2364   -1.9921 H   0  0  0  0  0  0  0  0  0  0  0  0
    0.7475    1.0428   -0.4944 H   0  0  0  0  0  0  0  0  0  0  0  0
    0.5057   -0.7153   -0.6815 H   0  0  0  0  0  0  0  0  0  0  0  0
    3.7796    0.3011    9.0684 H   0  0  0  0  0  0  0  0  0  0  0  0
    3.1336    2.0315    7.4028 H   0  0  0  0  0  0  0  0  0  0  0  0
    4.6489   -1.8969    8.2906 H   0  0  0  0  0  0  0  0  0  0  0  0
    3.3535    1.5663    4.9843 H   0  0  0  0  0  0  0  0  0  0  0  0
    4.8684   -2.3543    5.8619 H   0  0  0  0  0  0  0  0  0  0  0  0
    1.7725    0.5591    1.4780 H   0  0  0  0  0  0  0  0  0  0  0  0
    2.3067   -1.1292    1.4791 H   0  0  0  0  0  0  0  0  0  0  0  0
    4.0776    1.3786    1.3564 H   0  0  0  0  0  0  0  0  0  0  0  0
    4.7163   -0.2895    1.3012 H   0  0  0  0  0  0  0  0  0  0  0  0
  1 16  1  0  0  0  0
  1 17  1  0  0  0  0
  1 12  1  0  0  0  0
  2 20  1  0  0  0  0
  2 19  1  0  0  0  0
  2 12  1  0  0  0  0
  3 21  1  0  0  0  0
  4 22  1  0  0  0  0
  4  3  2  0  0  0  0
  5  3  1  0  0  0  0
  5 23  1  0  0  0  0
  6  4  1  0  0  0  0
  7  5  2  0  0  0  0
  8 26  1  0  0  0  0
  8 27  1  0  0  0  0
  8  9  1  0  0  0  0
  9 13  1  0  0  0  0
 10  6  2  0  0  0  0
 10  7  1  0  0  0  0
 11 10  1  0  0  0  0
 12  8  1  0  0  0  0
 13 11  1  0  0  0  0
 14 11  2  0  0  0  0
 15  1  1  0  0  0  0
 18  2  1  0  0  0  0
 24  6  1  0  0  0  0
 25  7  1  0  0  0  0
 28  9  1  0  0  0  0
 29  9  1  0  0  0  0
M  END
>  <HBA>
3

>  <HBD>
0

>  <TPSA>
44.56

>  <cid>
28187

>  <dipole>
2.44

>  <excitation_energy_1>
2.867

>  <excitation_energy_2>
3.361

>  <excitation_energy_3>
4.225

>  <excitation_energy_4>
4.383

>  <homo_energy>
-5.875

>  <homo_lumo_gap>
3.921

>  <logP>
1.94

>  <lumo_energy>
-1.954

>  <melting_point>
28.54

>  <molecular_refractivity>
62.41

>  <oscillator_strength_1>
0.0001

>  <oscillator_strength_2>
0.0021

>  <oscillator_strength_3>
0.1917

>  <oscillator_strength_4>
0.1611

>  <open_babel_can_smiles>
CN(CCOC(=S)c1ccccc1)C

>  <mulliken_charges>
29
1   -0.305734
2   -0.296124
3   -0.116948
4   -0.131361
5   -0.136922
6   -0.148021
7   -0.158838
8   -0.138037
9   -0.04684
10   0.075219
11   0.191041
12   -0.376556
13   -0.436169
14   -0.221708
15   0.150175
16   0.127191
17   0.162131
18   0.1506
19   0.149867
20   0.122857
21   0.138317
22   0.13673
23   0.139293
24   0.154846
25   0.173159
26   0.145291
27   0.147533
28   0.165509
29   0.183497

>  <lowdin_charges>
29
1   -0.355096
2   -0.354358
3   -0.135654
4   -0.157015
5   -0.157941
6   -0.140431
7   -0.129758
8   -0.210246
9   -0.133871
10   -0.034358
11   0.017937
12   -0.185147
13   -0.158031
14   -0.172283
15   0.148835
16   0.125666
17   0.154575
18   0.148875
19   0.150194
20   0.123782
21   0.16008
22   0.160953
23   0.163636
24   0.172563
25   0.181755
26   0.151394
27   0.137922
28   0.158455
29   0.167565

$$$$

