PCCDB-ID:  25786
public computational chemistry database (PCCDB) project, http://pccdb.org

 18 19  0  0  0  0  0  0  0  0999 V2000
   -2.4233    0.6527    0.1343 C   0  0  0  0  0  0  0  0  0  0  0  0
   -2.3958   -0.7431    0.0821 C   0  0  0  0  0  0  0  0  0  0  0  0
   -1.2272    1.3712    0.0575 C   0  0  0  0  0  0  0  0  0  0  0  0
   -1.1839   -1.4223   -0.0381 C   0  0  0  0  0  0  0  0  0  0  0  0
    1.3032    1.4021   -0.2553 C   0  0  0  0  0  0  0  0  0  0  0  0
   -0.0151    0.6990   -0.0785 C   0  0  0  0  0  0  0  0  0  0  0  0
    0.0158   -0.7064   -0.1183 C   0  0  0  0  0  0  0  0  0  0  0  0
    2.2962   -0.7114    0.0220 C   0  0  0  0  0  0  0  0  0  0  0  0
    1.2375   -1.3979   -0.2073 N   0  0  0  0  0  0  0  0  0  0  0  0
    3.5027   -1.2874    0.1071 O   0  0  0  0  0  0  0  0  0  0  0  0
    2.4051    0.6052    0.2490 O   0  0  0  0  0  0  0  0  0  0  0  0
   -3.3678    1.1797    0.2337 H   0  0  0  0  0  0  0  0  0  0  0  0
   -3.3231   -1.3065    0.1424 H   0  0  0  0  0  0  0  0  0  0  0  0
   -1.2414    2.4587    0.0952 H   0  0  0  0  0  0  0  0  0  0  0  0
   -1.1435   -2.5069   -0.0661 H   0  0  0  0  0  0  0  0  0  0  0  0
    1.3554    2.3433    0.2963 H   0  0  0  0  0  0  0  0  0  0  0  0
    1.5129    1.6121   -1.3149 H   0  0  0  0  0  0  0  0  0  0  0  0
    3.3374   -2.2441    0.0309 H   0  0  0  0  0  0  0  0  0  0  0  0
  1 12  1  0  0  0  0
  2  1  1  0  0  0  0
  2 13  1  0  0  0  0
  3 14  1  0  0  0  0
  3  1  2  0  0  0  0
  4  2  2  0  0  0  0
  5  6  1  0  0  0  0
  5 11  1  0  0  0  0
  5 16  1  0  0  0  0
  6  3  1  0  0  0  0
  7  6  2  0  0  0  0
  7  4  1  0  0  0  0
  8 10  1  0  0  0  0
  8 11  1  0  0  0  0
  9  7  1  0  0  0  0
  9  8  2  0  0  0  0
 15  4  1  0  0  0  0
 17  5  1  0  0  0  0
 18 10  1  0  0  0  0
M  END
>  <HBA>
3

>  <HBD>
1

>  <TPSA>
38.33

>  <cid>
25786

>  <dipole>
1.07

>  <excitation_energy_1>
4.682

>  <excitation_energy_2>
4.891

>  <excitation_energy_3>
5.344

>  <excitation_energy_4>
5.606

>  <homo_energy>
-5.829

>  <homo_lumo_gap>
5.391

>  <logP>
1.887

>  <lumo_energy>
-0.438

>  <melting_point>
88.06

>  <molecular_refractivity>
43.21

>  <oscillator_strength_1>
0.0495

>  <oscillator_strength_2>
0.1461

>  <oscillator_strength_3>
0.0093

>  <oscillator_strength_4>
0.0086

>  <open_babel_can_smiles>
OC1=Nc2c(CO1)cccc2

>  <mulliken_charges>
18
1   -0.131581
2   -0.134584
3   -0.196388
4   -0.16579
5   -0.108087
6   0.096217
7   0.255634
8   0.693268
9   -0.570749
10   -0.575989
11   -0.452102
12   0.128935
13   0.130919
14   0.125238
15   0.13588
16   0.173339
17   0.169422
18   0.426418

>  <lowdin_charges>
18
1   -0.16738
2   -0.151173
3   -0.156898
4   -0.161813
5   -0.111678
6   -0.055335
7   0.044468
8   0.19852
9   -0.25685
10   -0.32913
11   -0.177288
12   0.158498
13   0.159404
14   0.153491
15   0.163438
16   0.16604
17   0.151278
18   0.37241

$$$$

