PCCDB-ID:  68152
public computational chemistry database (PCCDB) project, http://pccdb.org

 12 11  0  0  0  0  0  0  0  0999 V2000
    1.0946    0.0493    0.1569 C   0  0  0  0  0  0  0  0  0  0  0  0
    0.5067    0.9425    1.2534 C   0  0  0  0  0  0  0  0  0  0  0  0
    2.6274    0.0198    0.0864 C   0  0  0  0  0  0  0  0  0  0  0  0
    0.9306    0.5419    2.5696 O   0  0  0  0  0  0  0  0  0  0  0  0
    3.2269   -0.1108   -0.9530 O   0  0  0  0  0  0  0  0  0  0  0  0
    3.2729    0.1155    1.2670 O   0  0  0  0  0  0  0  0  0  0  0  0
    0.7328    0.3672   -0.8252 H   0  0  0  0  0  0  0  0  0  0  0  0
    0.7459   -0.9848    0.2986 H   0  0  0  0  0  0  0  0  0  0  0  0
   -0.5888    0.9530    1.1950 H   0  0  0  0  0  0  0  0  0  0  0  0
    0.8567    1.9728    1.1455 H   0  0  0  0  0  0  0  0  0  0  0  0
    0.5005   -0.3023    2.7827 H   0  0  0  0  0  0  0  0  0  0  0  0
    2.6161    0.2320    1.9920 H   0  0  0  0  0  0  0  0  0  0  0  0
  1  8  1  0  0  0  0
  1  2  1  0  0  0  0
  2  4  1  0  0  0  0
  3  1  1  0  0  0  0
  3  6  1  0  0  0  0
  4 11  1  0  0  0  0
  5  3  2  0  0  0  0
  6 12  1  0  0  0  0
  7  1  1  0  0  0  0
  9  2  1  0  0  0  0
 10  2  1  0  0  0  0
M  END
>  <HBA>
3

>  <HBD>
2

>  <TPSA>
57.53

>  <cid>
68152

>  <dipole>
5.38

>  <excitation_energy_1>
5.556

>  <excitation_energy_2>
6.329

>  <excitation_energy_3>
6.989

>  <excitation_energy_4>
7.098

>  <homo_energy>
-7.075

>  <homo_lumo_gap>
7.429

>  <logP>
-0.547

>  <lumo_energy>
0.354

>  <melting_point>
71.21

>  <molecular_refractivity>
19.47

>  <oscillator_strength_1>
0.0013

>  <oscillator_strength_2>
0.0022

>  <oscillator_strength_3>
0.0056

>  <oscillator_strength_4>
0.0063

>  <open_babel_can_smiles>
OCCC(=O)O

>  <mulliken_charges>
12
1   -0.39748
2   -0.076032
3   0.592131
4   -0.616174
5   -0.448963
6   -0.585938
7   0.185965
8   0.168815
9   0.15674
10   0.182414
11   0.407166
12   0.431358

>  <lowdin_charges>
12
1   -0.336581
2   -0.136519
3   0.188723
4   -0.458074
5   -0.251058
6   -0.370011
7   0.180433
8   0.164912
9   0.146752
10   0.161665
11   0.352937
12   0.35682

$$$$

