PCCDB-ID:  15293
public computational chemistry database (PCCDB) project, http://pccdb.org

 29 29  0  0  0  0  0  0  0  0999 V2000
    0.4511    0.8535   -2.0979 C   0  0  0  0  0  0  0  0  0  0  0  0
    1.4434    0.1482   -1.1597 C   0  0  0  0  0  0  0  0  0  0  0  0
   -0.8726    1.1790   -1.3878 C   0  0  0  0  0  0  0  0  0  0  0  0
    0.8042   -1.0774   -0.4842 C   0  0  0  0  0  0  0  0  0  0  0  0
   -1.4670   -0.0690   -0.7146 C   0  0  0  0  0  0  0  0  0  0  0  0
   -1.5753    0.4840    2.2924 C   0  0  0  0  0  0  0  0  0  0  0  0
    0.6638   -0.6646    2.5588 C   0  0  0  0  0  0  0  0  0  0  0  0
   -0.4926   -0.7305    0.2924 C   0  0  0  0  0  0  0  0  0  0  0  0
   -0.2526    0.1062    1.5873 C   0  0  0  0  0  0  0  0  0  0  0  0
   -1.4043    1.3671    3.3876 O   0  0  0  0  0  0  0  0  0  0  0  0
    0.9287    0.0251    3.7933 O   0  0  0  0  0  0  0  0  0  0  0  0
    0.2428    0.1948   -2.9543 H   0  0  0  0  0  0  0  0  0  0  0  0
    0.8991    1.7670   -2.5095 H   0  0  0  0  0  0  0  0  0  0  0  0
    1.7940    0.8572   -0.3961 H   0  0  0  0  0  0  0  0  0  0  0  0
    2.3349   -0.1624   -1.7195 H   0  0  0  0  0  0  0  0  0  0  0  0
   -1.5929    1.5902   -2.1064 H   0  0  0  0  0  0  0  0  0  0  0  0
   -0.7061    1.9650   -0.6380 H   0  0  0  0  0  0  0  0  0  0  0  0
    1.5371   -1.5833    0.1539 H   0  0  0  0  0  0  0  0  0  0  0  0
    0.5384   -1.8056   -1.2642 H   0  0  0  0  0  0  0  0  0  0  0  0
   -1.6922   -0.8128   -1.4928 H   0  0  0  0  0  0  0  0  0  0  0  0
   -2.4270    0.1701   -0.2463 H   0  0  0  0  0  0  0  0  0  0  0  0
   -2.0921   -0.4450    2.5989 H   0  0  0  0  0  0  0  0  0  0  0  0
   -2.2409    1.0063    1.6009 H   0  0  0  0  0  0  0  0  0  0  0  0
    1.6176   -0.9262    2.0856 H   0  0  0  0  0  0  0  0  0  0  0  0
    0.1798   -1.6006    2.8608 H   0  0  0  0  0  0  0  0  0  0  0  0
   -0.9496   -1.6791    0.6148 H   0  0  0  0  0  0  0  0  0  0  0  0
    0.2479    1.0509    1.3287 H   0  0  0  0  0  0  0  0  0  0  0  0
   -0.7382    0.9476    3.9627 H   0  0  0  0  0  0  0  0  0  0  0  0
    1.4309    0.8271    3.5752 H   0  0  0  0  0  0  0  0  0  0  0  0
  1  3  1  0  0  0  0
  1  2  1  0  0  0  0
  2  4  1  0  0  0  0
  2 14  1  0  0  0  0
  3  5  1  0  0  0  0
  3 17  1  0  0  0  0
  4 18  1  0  0  0  0
  4  8  1  0  0  0  0
  5 21  1  0  0  0  0
  5  8  1  0  0  0  0
  6 22  1  0  0  0  0
  6 10  1  0  0  0  0
  7 25  1  0  0  0  0
  7 11  1  0  0  0  0
  8 26  1  0  0  0  0
  8  9  1  0  0  0  0
  9  6  1  0  0  0  0
  9  7  1  0  0  0  0
 10 28  1  0  0  0  0
 12  1  1  0  0  0  0
 13  1  1  0  0  0  0
 15  2  1  0  0  0  0
 16  3  1  0  0  0  0
 19  4  1  0  0  0  0
 20  5  1  0  0  0  0
 23  6  1  0  0  0  0
 24  7  1  0  0  0  0
 27  9  1  0  0  0  0
 29 11  1  0  0  0  0
M  END
>  <HBA>
2

>  <HBD>
2

>  <TPSA>
40.46

>  <cid>
15293

>  <dipole>
2.83

>  <excitation_energy_1>
6.015

>  <excitation_energy_2>
6.451

>  <excitation_energy_3>
6.48

>  <excitation_energy_4>
6.776

>  <homo_energy>
-6.661

>  <homo_lumo_gap>
8.259

>  <logP>
1.167

>  <lumo_energy>
1.597

>  <melting_point>
31.26

>  <molecular_refractivity>
45.59

>  <oscillator_strength_1>
0.0057

>  <oscillator_strength_2>
0.0063

>  <oscillator_strength_3>
0.0093

>  <oscillator_strength_4>
0.0044

>  <open_babel_can_smiles>
OCC(C1CCCCC1)CO

>  <mulliken_charges>
29
1   -0.255279
2   -0.260033
3   -0.263171
4   -0.278031
5   -0.278275
6   -0.020176
7   -0.052579
8   -0.083455
9   -0.143062
10   -0.652172
11   -0.626074
12   0.128425
13   0.131407
14   0.127537
15   0.132803
16   0.133537
17   0.138113
18   0.132122
19   0.130961
20   0.128361
21   0.14023
22   0.108273
23   0.143383
24   0.139682
25   0.151304
26   0.116998
27   0.124279
28   0.406006
29   0.398889

>  <lowdin_charges>
29
1   -0.278521
2   -0.281719
3   -0.28261
4   -0.285368
5   -0.282385
6   -0.13888
7   -0.142911
8   -0.130075
9   -0.170237
10   -0.489857
11   -0.46013
12   0.138278
13   0.144199
14   0.136791
15   0.145387
16   0.146865
17   0.141587
18   0.142394
19   0.142886
20   0.141709
21   0.145817
22   0.119761
23   0.147469
24   0.138546
25   0.148716
26   0.138056
27   0.137043
28   0.339721
29   0.347468

$$$$

