PCCDB-ID:  33607
public computational chemistry database (PCCDB) project, http://pccdb.org

 28 28  0  0  1  0  0  0  0  0999 V2000
    2.1453    0.5810    0.7948 C   0  0  0  0  0  0  0  0  0  0  0  0
    4.0436    0.3730    2.4667 C   0  0  0  0  0  0  0  0  0  0  0  0
    6.0524   -1.9690   -1.7611 C   0  0  0  0  0  0  0  0  0  0  0  0
    4.1318   -1.7508   -3.4061 C   0  0  0  0  0  0  0  0  0  0  0  0
    4.4988    0.0043    0.0574 C   0  0  0  0  0  0  0  0  0  0  0  0
    3.6101    0.3002    1.0220 C   0  0  0  0  0  0  0  0  0  0  0  0
    4.2393   -0.1059   -1.3963 C   0  0  1  0  0  0  0  0  0  0  0  0
    5.2702    0.4158   -2.4095 C   0  0  2  0  0  0  0  0  0  0  0  0
    4.7794    1.2624   -3.5361 C   0  0  0  0  0  0  0  0  0  0  0  0
    4.9453   -1.0820   -2.3103 C   0  0  0  0  0  0  0  0  0  0  0  0
    3.6488    1.2607   -3.9679 O   0  0  0  0  0  0  0  0  0  0  0  0
    5.7066    2.0906   -4.0981 O   0  0  0  0  0  0  0  0  0  0  0  0
    1.5247   -0.1252    1.3637 H   0  0  0  0  0  0  0  0  0  0  0  0
    1.8450    0.5202   -0.2533 H   0  0  0  0  0  0  0  0  0  0  0  0
    1.8854    1.5844    1.1596 H   0  0  0  0  0  0  0  0  0  0  0  0
    3.4964   -0.3562    3.0809 H   0  0  0  0  0  0  0  0  0  0  0  0
    3.8268    1.3619    2.8946 H   0  0  0  0  0  0  0  0  0  0  0  0
    5.1145    0.1793    2.5854 H   0  0  0  0  0  0  0  0  0  0  0  0
    5.6266   -2.8563   -1.2767 H   0  0  0  0  0  0  0  0  0  0  0  0
    6.6822   -1.4595   -1.0259 H   0  0  0  0  0  0  0  0  0  0  0  0
    6.7019   -2.3138   -2.5750 H   0  0  0  0  0  0  0  0  0  0  0  0
    3.6453   -2.6503   -3.0086 H   0  0  0  0  0  0  0  0  0  0  0  0
    4.7799   -2.0632   -4.2351 H   0  0  0  0  0  0  0  0  0  0  0  0
    3.3644   -1.0869   -3.8079 H   0  0  0  0  0  0  0  0  0  0  0  0
    5.5278   -0.1710    0.3697 H   0  0  0  0  0  0  0  0  0  0  0  0
    3.2273    0.1237   -1.7178 H   0  0  0  0  0  0  0  0  0  0  0  0
    6.2363    0.6979   -1.9926 H   0  0  0  0  0  0  0  0  0  0  0  0
    6.5660    1.9703   -3.6630 H   0  0  0  0  0  0  0  0  0  0  0  0
  1  6  1  0  0  0  0
  1 15  1  0  0  0  0
  1 13  1  0  0  0  0
  2 18  1  0  0  0  0
  2 17  1  0  0  0  0
  2 16  1  0  0  0  0
  3 19  1  0  0  0  0
  3 20  1  0  0  0  0
  4 22  1  0  0  0  0
  4 10  1  0  0  0  0
  5 25  1  0  0  0  0
  5  6  2  0  0  0  0
  6  2  1  0  0  0  0
  7 26  1  6  0  0  0
  7  5  1  0  0  0  0
  8 10  1  0  0  0  0
  8 27  1  1  0  0  0
  8  7  1  0  0  0  0
  9  8  1  0  0  0  0
 10  3  1  0  0  0  0
 10  7  1  0  0  0  0
 11  9  2  0  0  0  0
 12 28  1  0  0  0  0
 12  9  1  0  0  0  0
 14  1  1  0  0  0  0
 21  3  1  0  0  0  0
 23  4  1  0  0  0  0
 24  4  1  0  0  0  0
M  END
>  <HBA>
2

>  <HBD>
1

>  <TPSA>
37.3

>  <cid>
33607

>  <dipole>
4.18

>  <excitation_energy_1>
5.265

>  <excitation_energy_2>
5.365

>  <excitation_energy_3>
5.616

>  <excitation_energy_4>
5.762

>  <homo_energy>
-6.123

>  <homo_lumo_gap>
6.128

>  <logP>
2.309

>  <lumo_energy>
0.005

>  <melting_point>
102.41

>  <molecular_refractivity>
49.11

>  <oscillator_strength_1>
0.167

>  <oscillator_strength_2>
0.0287

>  <oscillator_strength_3>
0.0073

>  <oscillator_strength_4>
0.0012

>  <open_babel_can_smiles>
CC(=C[C@H]1[C@@H](C1(C)C)C(=O)O)C

>  <mulliken_charges>
28
1   -0.514877
2   -0.509451
3   -0.464871
4   -0.479851
5   -0.150913
6   0.176179
7   -0.157111
8   -0.283534
9   0.632455
10   0.120935
11   -0.466023
12   -0.57897
13   0.154172
14   0.16351
15   0.156519
16   0.152456
17   0.152516
18   0.150123
19   0.157826
20   0.144381
21   0.149934
22   0.146284
23   0.143216
24   0.190456
25   0.106891
26   0.173712
27   0.127667
28   0.406368

>  <lowdin_charges>
28
1   -0.443844
2   -0.438447
3   -0.437928
4   -0.44608
5   -0.188585
6   -0.003925
7   -0.134897
8   -0.217889
9   0.201199
10   0.019553
11   -0.258892
12   -0.357298
13   0.158157
14   0.158534
15   0.157635
16   0.155576
17   0.154003
18   0.151828
19   0.158323
20   0.151052
21   0.154925
22   0.153899
23   0.151023
24   0.17559
25   0.145027
26   0.173124
27   0.152804
28   0.355533

$$$$

