PCCDB-ID:  69318
public computational chemistry database (PCCDB) project, http://pccdb.org

 15 15  0  0  0  0  0  0  0  0999 V2000
   -1.4476   -0.0518    0.1264 C   0  0  0  0  0  0  0  0  0  0  0  0
   -0.7823    1.1749    0.1599 C   0  0  0  0  0  0  0  0  0  0  0  0
   -0.7107   -1.2245   -0.0500 C   0  0  0  0  0  0  0  0  0  0  0  0
    0.6028    1.2325    0.0182 C   0  0  0  0  0  0  0  0  0  0  0  0
    0.6753   -1.1837   -0.1930 C   0  0  0  0  0  0  0  0  0  0  0  0
    3.5450   -0.9136   -0.4737 C   0  0  0  0  0  0  0  0  0  0  0  0
    1.3316    0.0511   -0.1584 C   0  0  0  0  0  0  0  0  0  0  0  0
    4.2462   -1.8349   -0.6256 N   0  0  0  0  0  0  0  0  0  0  0  0
    2.7380    0.1354   -0.2999 N   0  0  0  0  0  0  0  0  0  0  0  0
   -2.5269   -0.0933    0.2367 H   0  0  0  0  0  0  0  0  0  0  0  0
   -1.3405    2.0968    0.2969 H   0  0  0  0  0  0  0  0  0  0  0  0
   -1.2157   -2.1860   -0.0783 H   0  0  0  0  0  0  0  0  0  0  0  0
    1.1173    2.1906    0.0449 H   0  0  0  0  0  0  0  0  0  0  0  0
    1.2456   -2.0977   -0.3284 H   0  0  0  0  0  0  0  0  0  0  0  0
    3.1652    1.0513   -0.2636 H   0  0  0  0  0  0  0  0  0  0  0  0
  1  2  1  0  0  0  0
  1 10  1  0  0  0  0
  2 11  1  0  0  0  0
  3  1  2  0  0  0  0
  4 13  1  0  0  0  0
  4  2  2  0  0  0  0
  5  7  2  0  0  0  0
  5  3  1  0  0  0  0
  6  9  1  0  0  0  0
  7  4  1  0  0  0  0
  8  6  3  0  0  0  0
  9 15  1  0  0  0  0
  9  7  1  0  0  0  0
 12  3  1  0  0  0  0
 14  5  1  0  0  0  0
M  END
>  <HBA>
2

>  <HBD>
1

>  <TPSA>
35.82

>  <cid>
69318

>  <dipole>
4.21

>  <excitation_energy_1>
4.891

>  <excitation_energy_2>
5.04

>  <excitation_energy_3>
5.436

>  <excitation_energy_4>
5.615

>  <homo_energy>
-6.193

>  <homo_lumo_gap>
5.802

>  <logP>
1.653

>  <lumo_energy>
-0.392

>  <melting_point>
71.77

>  <molecular_refractivity>
35.5

>  <oscillator_strength_1>
0.0188

>  <oscillator_strength_2>
0.0001

>  <oscillator_strength_3>
0.2467

>  <oscillator_strength_4>
0.0012

>  <open_babel_can_smiles>
N#CNc1ccccc1

>  <mulliken_charges>
15
1   -0.127498
2   -0.133963
3   -0.139539
4   -0.185005
5   -0.179026
6   0.52918
7   0.36342
8   -0.448799
9   -0.745464
10   0.134169
11   0.137787
12   0.141372
13   0.128153
14   0.164443
15   0.36077

>  <lowdin_charges>
15
1   -0.167856
2   -0.142258
3   -0.138093
4   -0.191291
5   -0.185139
6   0.005823
7   0.069975
8   -0.156364
9   -0.223988
10   0.159391
11   0.162725
12   0.16387
13   0.15697
14   0.1769
15   0.309337

$$$$

