PCCDB-ID:  18546
public computational chemistry database (PCCDB) project, http://pccdb.org

 31 31  0  0  0  0  0  0  0  0999 V2000
    1.9047   -2.1870   -0.6793 C   0  0  0  0  0  0  0  0  0  0  0  0
    6.6281   -0.4055    3.5890 C   0  0  0  0  0  0  0  0  0  0  0  0
    6.1623    3.2375   -0.4543 C   0  0  0  0  0  0  0  0  0  0  0  0
    3.3502   -1.7024   -0.8313 C   0  0  0  0  0  0  0  0  0  0  0  0
    6.4688   -1.4358    2.4819 C   0  0  0  0  0  0  0  0  0  0  0  0
    3.5584   -0.3243   -0.1931 C   0  0  0  0  0  0  0  0  0  0  0  0
    5.4333    1.5232   -3.4878 C   0  0  0  0  0  0  0  0  0  0  0  0
    5.7427    2.2832   -1.5216 C   0  0  0  0  0  0  0  0  0  0  0  0
    5.2478    1.0212   -1.3995 C   0  0  0  0  0  0  0  0  0  0  0  0
    5.9631   -0.1819    0.5309 C   0  0  0  0  0  0  0  0  0  0  0  0
    5.8618    2.5811   -2.8794 N   0  0  0  0  0  0  0  0  0  0  0  0
    4.9364    0.1966   -0.3225 N   0  0  0  0  0  0  0  0  0  0  0  0
    7.1163    0.1911    0.4379 O   0  0  0  0  0  0  0  0  0  0  0  0
    5.4966   -1.0120    1.4967 O   0  0  0  0  0  0  0  0  0  0  0  0
    5.0461    0.5130   -2.6722 O   0  0  0  0  0  0  0  0  0  0  0  0
    1.7718   -3.1748   -1.1332 H   0  0  0  0  0  0  0  0  0  0  0  0
    1.1996   -1.5014   -1.1655 H   0  0  0  0  0  0  0  0  0  0  0  0
    1.6180   -2.2652    0.3766 H   0  0  0  0  0  0  0  0  0  0  0  0
    7.3102   -0.7886    4.3568 H   0  0  0  0  0  0  0  0  0  0  0  0
    5.6648   -0.1888    4.0626 H   0  0  0  0  0  0  0  0  0  0  0  0
    7.0467    0.5227    3.1907 H   0  0  0  0  0  0  0  0  0  0  0  0
    7.2382    3.1552   -0.2603 H   0  0  0  0  0  0  0  0  0  0  0  0
    5.6423    3.0287    0.4856 H   0  0  0  0  0  0  0  0  0  0  0  0
    5.9465    4.2658   -0.7593 H   0  0  0  0  0  0  0  0  0  0  0  0
    3.6214   -1.6489   -1.8919 H   0  0  0  0  0  0  0  0  0  0  0  0
    4.0367   -2.4149   -0.3593 H   0  0  0  0  0  0  0  0  0  0  0  0
    6.0653   -2.3768    2.8640 H   0  0  0  0  0  0  0  0  0  0  0  0
    7.4187   -1.6257    1.9772 H   0  0  0  0  0  0  0  0  0  0  0  0
    3.3092   -0.3572    0.8705 H   0  0  0  0  0  0  0  0  0  0  0  0
    2.9031    0.4159   -0.6640 H   0  0  0  0  0  0  0  0  0  0  0  0
    5.3316    1.3550   -4.5505 H   0  0  0  0  0  0  0  0  0  0  0  0
  1 18  1  0  0  0  0
  2 20  1  0  0  0  0
  2 19  1  0  0  0  0
  3 22  1  0  0  0  0
  3 23  1  0  0  0  0
  4  1  1  0  0  0  0
  4 26  1  0  0  0  0
  4  6  1  0  0  0  0
  5 27  1  0  0  0  0
  5  2  1  0  0  0  0
  6 29  1  0  0  0  0
  7 11  2  0  0  0  0
  7 15  1  0  0  0  0
  8  9  2  0  0  0  0
  8  3  1  0  0  0  0
  9 12  1  0  0  0  0
 10 14  1  0  0  0  0
 11  8  1  0  0  0  0
 12  6  1  0  0  0  0
 12 10  1  0  0  0  0
 13 10  2  0  0  0  0
 14  5  1  0  0  0  0
 15  9  1  0  0  0  0
 16  1  1  0  0  0  0
 17  1  1  0  0  0  0
 21  2  1  0  0  0  0
 24  3  1  0  0  0  0
 25  4  1  0  0  0  0
 28  5  1  0  0  0  0
 30  6  1  0  0  0  0
 31  7  1  0  0  0  0
M  END
>  <HBA>
5

>  <HBD>
0

>  <TPSA>
55.57

>  <cid>
18546

>  <dipole>
3.54

>  <excitation_energy_1>
5.379

>  <excitation_energy_2>
5.745

>  <excitation_energy_3>
5.948

>  <excitation_energy_4>
6.057

>  <homo_energy>
-6.068

>  <homo_lumo_gap>
6.158

>  <logP>
2.356

>  <lumo_energy>
0.09

>  <melting_point>
52.35

>  <molecular_refractivity>
56.58

>  <oscillator_strength_1>
0.1625

>  <oscillator_strength_2>
0.0285

>  <oscillator_strength_3>
0.0122

>  <oscillator_strength_4>
0.0073

>  <open_babel_can_smiles>
CCCN(c1ocnc1C)C(=O)OCC

>  <mulliken_charges>
31
1   -0.450548
2   -0.463234
3   -0.513948
4   -0.25693
5   -0.038215
6   -0.136766
7   0.255872
8   0.276702
9   0.439067
10   0.798966
11   -0.452988
12   -0.590801
13   -0.512111
14   -0.493146
15   -0.42191
16   0.151578
17   0.145323
18   0.145685
19   0.151433
20   0.154703
21   0.179104
22   0.186102
23   0.152149
24   0.166244
25   0.156425
26   0.15071
27   0.152146
28   0.1752
29   0.168463
30   0.154601
31   0.170124

>  <lowdin_charges>
31
1   -0.444574
2   -0.457412
3   -0.433861
4   -0.284594
5   -0.123904
6   -0.19109
7   -0.026773
8   0.005307
9   0.075994
10   0.211762
11   -0.170214
12   -0.087705
13   -0.298927
14   -0.204549
15   -0.108234
16   0.155157
17   0.149365
18   0.147062
19   0.160723
20   0.154713
21   0.167152
22   0.173154
23   0.160493
24   0.166033
25   0.150282
26   0.151189
27   0.152113
28   0.161566
29   0.15885
30   0.156364
31   0.174556

$$$$

