PCCDB-ID:  2980
public computational chemistry database (PCCDB) project, http://pccdb.org

 34 33  0  0  1  0  0  0  0  0999 V2000
    0.9010   -1.8217    2.7136 C   0  0  0  0  0  0  0  0  0  0  0  0
    6.0315   -7.5947   -3.0300 C   0  0  0  0  0  0  0  0  0  0  0  0
    3.0381   -4.0808   -0.4715 C   0  0  0  0  0  0  0  0  0  0  0  0
    4.2458   -4.9248   -0.0634 C   0  0  0  0  0  0  0  0  0  0  0  0
    1.0912   -2.8616    0.3849 C   0  0  0  0  0  0  0  0  0  0  0  0
    6.1763   -6.1553   -0.9285 C   0  0  0  0  0  0  0  0  0  0  0  0
    0.2015   -2.6545    1.6315 C   0  0  1  0  0  0  0  0  0  0  0  0
    6.8996   -6.6427   -2.2035 C   0  0  2  0  0  0  0  0  0  0  0  0
   -0.2706   -3.9126    2.2279 N   0  0  0  0  0  0  0  0  0  0  0  0
    7.3885   -5.5630   -3.0771 N   0  0  0  0  0  0  0  0  0  0  0  0
    2.2754   -3.6611    0.7007 N   0  0  0  0  0  0  0  0  0  0  0  0
    4.9977   -5.3508   -1.2390 N   0  0  0  0  0  0  0  0  0  0  0  0
    1.2577   -0.8640    2.3148 H   0  0  0  0  0  0  0  0  0  0  0  0
    1.7601   -2.3591    3.1351 H   0  0  0  0  0  0  0  0  0  0  0  0
    0.2092   -1.6240    3.5370 H   0  0  0  0  0  0  0  0  0  0  0  0
    5.7578   -8.4793   -2.4444 H   0  0  0  0  0  0  0  0  0  0  0  0
    6.5722   -7.9192   -3.9241 H   0  0  0  0  0  0  0  0  0  0  0  0
    5.1032   -7.1001   -3.3357 H   0  0  0  0  0  0  0  0  0  0  0  0
    2.3874   -4.6847   -1.1146 H   0  0  0  0  0  0  0  0  0  0  0  0
    3.3808   -3.2248   -1.0895 H   0  0  0  0  0  0  0  0  0  0  0  0
    3.8908   -5.8156    0.4680 H   0  0  0  0  0  0  0  0  0  0  0  0
    4.8664   -4.3558    0.6608 H   0  0  0  0  0  0  0  0  0  0  0  0
    1.3406   -1.8823   -0.0699 H   0  0  0  0  0  0  0  0  0  0  0  0
    0.5129   -3.4151   -0.3674 H   0  0  0  0  0  0  0  0  0  0  0  0
    6.9037   -5.6115   -0.2901 H   0  0  0  0  0  0  0  0  0  0  0  0
    5.8477   -7.0269   -0.3467 H   0  0  0  0  0  0  0  0  0  0  0  0
   -0.6863   -2.0978    1.3015 H   0  0  0  0  0  0  0  0  0  0  0  0
    7.7900   -7.1912   -1.8648 H   0  0  0  0  0  0  0  0  0  0  0  0
    0.5430   -4.5246    2.3155 H   0  0  0  0  0  0  0  0  0  0  0  0
   -0.8859   -4.3839    1.5639 H   0  0  0  0  0  0  0  0  0  0  0  0
    7.9122   -4.8737   -2.5381 H   0  0  0  0  0  0  0  0  0  0  0  0
    6.6021   -5.0748   -3.5045 H   0  0  0  0  0  0  0  0  0  0  0  0
    2.8870   -3.1184    1.3087 H   0  0  0  0  0  0  0  0  0  0  0  0
    5.3030   -4.5206   -1.7465 H   0  0  0  0  0  0  0  0  0  0  0  0
  1 14  1  0  0  0  0
  1 15  1  0  0  0  0
  2 16  1  0  0  0  0
  2  8  1  0  0  0  0
  3  4  1  0  0  0  0
  3 11  1  0  0  0  0
  4 21  1  0  0  0  0
  4 22  1  0  0  0  0
  5 11  1  0  0  0  0
  5  7  1  0  0  0  0
  6 26  1  0  0  0  0
  6 25  1  0  0  0  0
  7 27  1  6  0  0  0
  7  9  1  0  0  0  0
  7  1  1  0  0  0  0
  8 28  1  1  0  0  0
  8  6  1  0  0  0  0
  9 29  1  0  0  0  0
 10 31  1  0  0  0  0
 10  8  1  0  0  0  0
 11 33  1  0  0  0  0
 12  6  1  0  0  0  0
 12  4  1  0  0  0  0
 13  1  1  0  0  0  0
 17  2  1  0  0  0  0
 18  2  1  0  0  0  0
 19  3  1  0  0  0  0
 20  3  1  0  0  0  0
 23  5  1  0  0  0  0
 24  5  1  0  0  0  0
 30  9  1  0  0  0  0
 32 10  1  0  0  0  0
 34 12  1  0  0  0  0
M  END
>  <HBA>
4

>  <HBD>
4

>  <TPSA>
76.1

>  <cid>
2980

>  <dipole>
1.75

>  <excitation_energy_1>
5.226

>  <excitation_energy_2>
5.467

>  <excitation_energy_3>
5.627

>  <excitation_energy_4>
5.681

>  <homo_energy>
-6.016

>  <homo_lumo_gap>
7.744

>  <logP>
1.042

>  <lumo_energy>
1.728

>  <melting_point>
134.97

>  <molecular_refractivity>
51.59

>  <oscillator_strength_1>
0.0063

>  <oscillator_strength_2>
0.0146

>  <oscillator_strength_3>
0.0087

>  <oscillator_strength_4>
0.0609

>  <open_babel_can_smiles>
C[C@H](CNCCNC[C@@H](N)C)N

>  <mulliken_charges>
34
1   -0.441728
2   -0.440408
3   -0.117411
4   -0.116713
5   -0.12017
6   -0.121148
7   0.016157
8   0.025041
9   -0.7062
10   -0.715302
11   -0.572338
12   -0.559218
13   0.132777
14   0.137183
15   0.163248
16   0.13809
17   0.155031
18   0.154849
19   0.154616
20   0.101976
21   0.154028
22   0.101341
23   0.107411
24   0.129176
25   0.099998
26   0.136369
27   0.126965
28   0.130495
29   0.302726
30   0.286628
31   0.290049
32   0.29332
33   0.297396
34   0.275766

>  <lowdin_charges>
34
1   -0.452913
2   -0.450027
3   -0.206506
4   -0.205742
5   -0.220859
6   -0.22185
7   -0.070682
8   -0.067
9   -0.55445
10   -0.556654
11   -0.367185
12   -0.36452
13   0.144524
14   0.145466
15   0.162765
16   0.150218
17   0.156842
18   0.154228
19   0.151027
20   0.112245
21   0.149939
22   0.112147
23   0.116874
24   0.140314
25   0.112633
26   0.144487
27   0.140142
28   0.140732
29   0.254833
30   0.250862
31   0.252227
32   0.252566
33   0.252784
34   0.240532

$$$$

