PCCDB-ID:  56423
public computational chemistry database (PCCDB) project, http://pccdb.org

 39 39  0  0  1  0  0  0  0  0999 V2000
    2.1290    1.4502   -0.8504 C   0  0  0  0  0  0  0  0  0  0  0  0
    2.1273    1.4562    4.5332 C   0  0  0  0  0  0  0  0  0  0  0  0
    3.6900   -2.6001    3.7073 C   0  0  0  0  0  0  0  0  0  0  0  0
    1.9386   -0.0662   -0.7377 C   0  0  0  0  0  0  0  0  0  0  0  0
    1.8333   -0.0141    4.2241 C   0  0  0  0  0  0  0  0  0  0  0  0
    3.8123   -1.1544    3.2149 C   0  0  0  0  0  0  0  0  0  0  0  0
   -0.2360   -5.0493   -0.0379 C   0  0  0  0  0  0  0  0  0  0  0  0
    1.0904   -5.3135   -0.3879 C   0  0  0  0  0  0  0  0  0  0  0  0
   -0.5596   -3.7864    0.4576 C   0  0  0  0  0  0  0  0  0  0  0  0
    2.0682   -4.3346   -0.2431 C   0  0  0  0  0  0  0  0  0  0  0  0
    0.4107   -2.7949    0.6104 C   0  0  0  0  0  0  0  0  0  0  0  0
    1.7472   -3.0589    0.2606 C   0  0  0  0  0  0  0  0  0  0  0  0
    2.6128   -0.6812    0.5050 C   0  0  1  0  0  0  0  0  0  0  0  0
    1.9096   -0.2372    1.8168 C   0  0  0  0  0  0  0  0  0  0  0  0
    2.7928   -2.1375    0.4464 N   0  0  0  0  0  0  0  0  0  0  0  0
    2.5219   -0.4893    3.0140 N   0  0  0  0  0  0  0  0  0  0  0  0
    0.8267    0.3508    1.7730 O   0  0  0  0  0  0  0  0  0  0  0  0
    1.6411    1.9672   -0.0202 H   0  0  0  0  0  0  0  0  0  0  0  0
    1.6951    1.8246   -1.7843 H   0  0  0  0  0  0  0  0  0  0  0  0
    3.1935    1.7210   -0.8509 H   0  0  0  0  0  0  0  0  0  0  0  0
    1.6152    1.7609    5.4534 H   0  0  0  0  0  0  0  0  0  0  0  0
    1.7721    2.0898    3.7159 H   0  0  0  0  0  0  0  0  0  0  0  0
    3.2010    1.6304    4.6712 H   0  0  0  0  0  0  0  0  0  0  0  0
    4.6880   -3.0251    3.8685 H   0  0  0  0  0  0  0  0  0  0  0  0
    3.1646   -3.2103    2.9689 H   0  0  0  0  0  0  0  0  0  0  0  0
    3.1477   -2.6582    4.6574 H   0  0  0  0  0  0  0  0  0  0  0  0
    2.3786   -0.5589   -1.6150 H   0  0  0  0  0  0  0  0  0  0  0  0
    0.8724   -0.3064   -0.7351 H   0  0  0  0  0  0  0  0  0  0  0  0
    0.7608   -0.1564    4.0778 H   0  0  0  0  0  0  0  0  0  0  0  0
    2.1485   -0.6516    5.0563 H   0  0  0  0  0  0  0  0  0  0  0  0
    4.3779   -1.1355    2.2834 H   0  0  0  0  0  0  0  0  0  0  0  0
    4.3812   -0.5570    3.9402 H   0  0  0  0  0  0  0  0  0  0  0  0
   -1.0006   -5.8121   -0.1527 H   0  0  0  0  0  0  0  0  0  0  0  0
    1.3690   -6.2877   -0.7818 H   0  0  0  0  0  0  0  0  0  0  0  0
   -1.5865   -3.5578    0.7320 H   0  0  0  0  0  0  0  0  0  0  0  0
    3.0985   -4.5540   -0.5193 H   0  0  0  0  0  0  0  0  0  0  0  0
    0.1237   -1.8226    0.9930 H   0  0  0  0  0  0  0  0  0  0  0  0
    3.6341   -0.2791    0.5464 H   0  0  0  0  0  0  0  0  0  0  0  0
    3.6109   -2.3900   -0.0953 H   0  0  0  0  0  0  0  0  0  0  0  0
  1  4  1  0  0  0  0
  1 18  1  0  0  0  0
  2 23  1  0  0  0  0
  2 21  1  0  0  0  0
  3 24  1  0  0  0  0
  3 26  1  0  0  0  0
  4 28  1  0  0  0  0
  4 13  1  0  0  0  0
  5  2  1  0  0  0  0
  5 30  1  0  0  0  0
  6  3  1  0  0  0  0
  6 32  1  0  0  0  0
  7  9  2  0  0  0  0
  8 10  2  0  0  0  0
  8  7  1  0  0  0  0
  9 11  1  0  0  0  0
  9 35  1  0  0  0  0
 10 12  1  0  0  0  0
 11 37  1  0  0  0  0
 12 15  1  0  0  0  0
 12 11  2  0  0  0  0
 13 38  1  1  0  0  0
 13 14  1  0  0  0  0
 14 16  1  0  0  0  0
 15 13  1  0  0  0  0
 16  6  1  0  0  0  0
 16  5  1  0  0  0  0
 17 14  2  0  0  0  0
 19  1  1  0  0  0  0
 20  1  1  0  0  0  0
 22  2  1  0  0  0  0
 25  3  1  0  0  0  0
 27  4  1  0  0  0  0
 29  5  1  0  0  0  0
 31  6  1  0  0  0  0
 33  7  1  0  0  0  0
 34  8  1  0  0  0  0
 36 10  1  0  0  0  0
 39 15  1  0  0  0  0
M  END
>  <HBA>
3

>  <HBD>
1

>  <TPSA>
32.34

>  <cid>
56423

>  <dipole>
3.57

>  <excitation_energy_1>
4.328

>  <excitation_energy_2>
4.636

>  <excitation_energy_3>
4.871

>  <excitation_energy_4>
5.077

>  <homo_energy>
-5.26

>  <homo_lumo_gap>
5.499

>  <logP>
2.818

>  <lumo_energy>
0.239

>  <melting_point>
57.25

>  <molecular_refractivity>
72.49

>  <oscillator_strength_1>
0.0055

>  <oscillator_strength_2>
0.0285

>  <oscillator_strength_3>
0.001

>  <oscillator_strength_4>
0.0441

>  <open_babel_can_smiles>
CC[C@@H](C(=O)N(CC)CC)Nc1ccccc1

>  <mulliken_charges>
39
1   -0.459255
2   -0.446368
3   -0.449515
4   -0.238812
5   -0.142336
6   -0.13259
7   -0.136173
8   -0.132882
9   -0.145699
10   -0.199142
11   -0.192982
12   0.340305
13   -0.081394
14   0.630328
15   -0.666571
16   -0.405703
17   -0.541871
18   0.176515
19   0.144744
20   0.127657
21   0.145782
22   0.176038
23   0.140001
24   0.141243
25   0.186149
26   0.149469
27   0.122466
28   0.168654
29   0.180394
30   0.140656
31   0.151961
32   0.145965
33   0.119528
34   0.122934
35   0.127522
36   0.109953
37   0.168523
38   0.142745
39   0.311761

>  <lowdin_charges>
39
1   -0.449324
2   -0.450773
3   -0.455589
4   -0.279768
5   -0.193833
6   -0.19363
7   -0.188754
8   -0.148481
9   -0.143965
10   -0.202412
11   -0.20897
12   0.054239
13   -0.084941
14   0.148505
15   -0.302692
16   -0.089999
17   -0.32455
18   0.164328
19   0.152733
20   0.136869
21   0.154067
22   0.165412
23   0.143779
24   0.151385
25   0.170638
26   0.149964
27   0.141263
28   0.161531
29   0.166647
30   0.146546
31   0.154608
32   0.145673
33   0.155157
34   0.154513
35   0.155646
36   0.146767
37   0.175591
38   0.151094
39   0.270724

$$$$

