PCCDB-ID:  21786
public computational chemistry database (PCCDB) project, http://pccdb.org

 27 28  0  0  1  0  0  0  0  0999 V2000
   -1.6228    0.0105    0.2611 C   0  0  0  0  0  0  0  0  0  0  0  0
   -1.2042    0.4725   -0.9868 C   0  0  0  0  0  0  0  0  0  0  0  0
   -0.6691   -0.2670    1.2421 C   0  0  0  0  0  0  0  0  0  0  0  0
    4.5187    1.4000   -1.8245 C   0  0  0  0  0  0  0  0  0  0  0  0
    0.1550    0.6534   -1.2525 C   0  0  0  0  0  0  0  0  0  0  0  0
    0.6866   -0.0845    0.9712 C   0  0  0  0  0  0  0  0  0  0  0  0
    3.0882    1.7541   -1.3308 C   0  0  0  0  0  0  0  0  0  0  0  0
    4.6820   -0.1326   -1.6058 C   0  0  0  0  0  0  0  0  0  0  0  0
    1.1287    0.3779   -0.2785 C   0  0  0  0  0  0  0  0  0  0  0  0
    2.6125    0.5113   -0.5445 C   0  0  1  0  0  0  0  0  0  0  0  0
    3.2675   -0.6780   -1.3327 C   0  0  1  0  0  0  0  0  0  0  0  0
    2.6209   -1.0702   -2.5870 N   0  0  0  0  0  0  0  0  0  0  0  0
   -2.6806   -0.1274    0.4686 H   0  0  0  0  0  0  0  0  0  0  0  0
   -1.9365    0.6987   -1.7577 H   0  0  0  0  0  0  0  0  0  0  0  0
   -0.9805   -0.6233    2.2208 H   0  0  0  0  0  0  0  0  0  0  0  0
    5.2803    1.9556   -1.2675 H   0  0  0  0  0  0  0  0  0  0  0  0
    4.6488    1.6731   -2.8776 H   0  0  0  0  0  0  0  0  0  0  0  0
    0.4538    1.0269   -2.2276 H   0  0  0  0  0  0  0  0  0  0  0  0
    1.4212   -0.3010    1.7441 H   0  0  0  0  0  0  0  0  0  0  0  0
    2.4284    1.9454   -2.1847 H   0  0  0  0  0  0  0  0  0  0  0  0
    3.0617    2.6583   -0.7140 H   0  0  0  0  0  0  0  0  0  0  0  0
    5.3161   -0.3209   -0.7320 H   0  0  0  0  0  0  0  0  0  0  0  0
    5.1413   -0.6444   -2.4568 H   0  0  0  0  0  0  0  0  0  0  0  0
    3.1182    0.5298    0.4321 H   0  0  0  0  0  0  0  0  0  0  0  0
    3.2968   -1.5734   -0.7007 H   0  0  0  0  0  0  0  0  0  0  0  0
    2.6191   -0.2931   -3.2473 H   0  0  0  0  0  0  0  0  0  0  0  0
    1.6428   -1.3019   -2.4175 H   0  0  0  0  0  0  0  0  0  0  0  0
  1 13  1  0  0  0  0
  1  3  2  0  0  0  0
  2  1  1  0  0  0  0
  3 15  1  0  0  0  0
  4  8  1  0  0  0  0
  4  7  1  0  0  0  0
  4 16  1  0  0  0  0
  5  2  2  0  0  0  0
  5  9  1  0  0  0  0
  6  3  1  0  0  0  0
  6 19  1  0  0  0  0
  7 21  1  0  0  0  0
  7 10  1  0  0  0  0
  8 11  1  0  0  0  0
  8 22  1  0  0  0  0
  9  6  2  0  0  0  0
 10  9  1  0  0  0  0
 10 24  1  1  0  0  0
 11 25  1  1  0  0  0
 11 10  1  0  0  0  0
 12 27  1  0  0  0  0
 12 11  1  0  0  0  0
 14  2  1  0  0  0  0
 17  4  1  0  0  0  0
 18  5  1  0  0  0  0
 20  7  1  0  0  0  0
 23  8  1  0  0  0  0
 26 12  1  0  0  0  0
M  END
>  <HBA>
1

>  <HBD>
1

>  <TPSA>
26.02

>  <cid>
21786

>  <dipole>
1.18

>  <excitation_energy_1>
5.152

>  <excitation_energy_2>
5.317

>  <excitation_energy_3>
5.493

>  <excitation_energy_4>
5.564

>  <homo_energy>
-6.057

>  <homo_lumo_gap>
6.063

>  <logP>
2.982

>  <lumo_energy>
0.005

>  <melting_point>
81.32

>  <molecular_refractivity>
51.23

>  <oscillator_strength_1>
0.022

>  <oscillator_strength_2>
0.0305

>  <oscillator_strength_3>
0.05

>  <oscillator_strength_4>
0.0213

>  <open_babel_can_smiles>
N[C@H]1CCC[C@H]1c1ccccc1

>  <mulliken_charges>
27
1   -0.131095
2   -0.130631
3   -0.126675
4   -0.283659
5   -0.203062
6   -0.191385
7   -0.281316
8   -0.273651
9   0.188447
10   -0.189746
11   0.020775
12   -0.717496
13   0.12817
14   0.128118
15   0.128597
16   0.140195
17   0.137445
18   0.119615
19   0.123138
20   0.133159
21   0.144165
22   0.137657
23   0.151127
24   0.123622
25   0.130964
26   0.290041
27   0.30348

>  <lowdin_charges>
27
1   -0.159859
2   -0.158271
3   -0.154598
4   -0.29062
5   -0.177072
6   -0.168619
7   -0.286418
8   -0.290213
9   -0.00198
10   -0.147365
11   -0.069382
12   -0.547465
13   0.155601
14   0.157655
15   0.156782
16   0.148446
17   0.142987
18   0.151127
19   0.154969
20   0.139438
21   0.15049
22   0.147368
23   0.155523
24   0.14364
25   0.141643
26   0.250048
27   0.256144

$$$$

