PCCDB-ID:  11621
public computational chemistry database (PCCDB) project, http://pccdb.org

 24 23  0  0  0  0  0  0  0  0999 V2000
    0.8666    3.6468    0.7226 C   0  0  0  0  0  0  0  0  0  0  0  0
    8.7721    1.2685   -0.8966 C   0  0  0  0  0  0  0  0  0  0  0  0
    2.1052    2.8853    0.2408 C   0  0  0  0  0  0  0  0  0  0  0  0
    7.5333    2.0346   -0.4226 C   0  0  0  0  0  0  0  0  0  0  0  0
    3.0203    2.4322    1.3946 C   0  0  0  0  0  0  0  0  0  0  0  0
    6.6879    1.2423    0.5930 C   0  0  0  0  0  0  0  0  0  0  0  0
    4.2167    1.6498    0.9249 C   0  0  0  0  0  0  0  0  0  0  0  0
    5.4928    2.0090    1.0911 C   0  0  0  0  0  0  0  0  0  0  0  0
    0.2333    3.9522   -0.1182 H   0  0  0  0  0  0  0  0  0  0  0  0
    1.1470    4.5528    1.2741 H   0  0  0  0  0  0  0  0  0  0  0  0
    0.2562    3.0285    1.3926 H   0  0  0  0  0  0  0  0  0  0  0  0
    9.3534    1.8548   -1.6174 H   0  0  0  0  0  0  0  0  0  0  0  0
    8.4931    0.3253   -1.3825 H   0  0  0  0  0  0  0  0  0  0  0  0
    9.4330    1.0232   -0.0558 H   0  0  0  0  0  0  0  0  0  0  0  0
    2.6860    3.5136   -0.4472 H   0  0  0  0  0  0  0  0  0  0  0  0
    1.7931    2.0051   -0.3388 H   0  0  0  0  0  0  0  0  0  0  0  0
    6.9030    2.2943   -1.2833 H   0  0  0  0  0  0  0  0  0  0  0  0
    7.8408    2.9880    0.0295 H   0  0  0  0  0  0  0  0  0  0  0  0
    2.4257    1.8167    2.0882 H   0  0  0  0  0  0  0  0  0  0  0  0
    3.3515    3.3098    1.9665 H   0  0  0  0  0  0  0  0  0  0  0  0
    7.3323    0.9694    1.4438 H   0  0  0  0  0  0  0  0  0  0  0  0
    6.3598    0.2974    0.1386 H   0  0  0  0  0  0  0  0  0  0  0  0
    3.9987    0.7206    0.3923 H   0  0  0  0  0  0  0  0  0  0  0  0
    5.7111    2.9420    1.6169 H   0  0  0  0  0  0  0  0  0  0  0  0
  1 10  1  0  0  0  0
  1 11  1  0  0  0  0
  2  4  1  0  0  0  0
  2 14  1  0  0  0  0
  3  1  1  0  0  0  0
  3  5  1  0  0  0  0
  4 18  1  0  0  0  0
  4  6  1  0  0  0  0
  5 20  1  0  0  0  0
  5 19  1  0  0  0  0
  6  8  1  0  0  0  0
  6 21  1  0  0  0  0
  7  8  2  0  0  0  0
  7  5  1  0  0  0  0
  8 24  1  0  0  0  0
  9  1  1  0  0  0  0
 12  2  1  0  0  0  0
 13  2  1  0  0  0  0
 15  3  1  0  0  0  0
 16  3  1  0  0  0  0
 17  4  1  0  0  0  0
 22  6  1  0  0  0  0
 23  7  1  0  0  0  0
M  END
>  <HBA>
0

>  <HBD>
0

>  <TPSA>
0.0

>  <cid>
11621

>  <dipole>
0.11

>  <excitation_energy_1>
6.199

>  <excitation_energy_2>
6.319

>  <excitation_energy_3>
6.38

>  <excitation_energy_4>
6.621

>  <homo_energy>
-6.376

>  <homo_lumo_gap>
7.252

>  <logP>
3.143

>  <lumo_energy>
0.876

>  <melting_point>
-18.1

>  <molecular_refractivity>
40.1

>  <oscillator_strength_1>
0.0133

>  <oscillator_strength_2>
0.0018

>  <oscillator_strength_3>
0.0289

>  <oscillator_strength_4>
0.0036

>  <open_babel_can_smiles>
CCC/C=C/CCC

>  <mulliken_charges>
24
1   -0.441788
2   -0.441795
3   -0.245806
4   -0.245792
5   -0.294566
6   -0.294714
7   -0.09473
8   -0.094754
9   0.142897
10   0.142032
11   0.141298
12   0.142894
13   0.141994
14   0.141358
15   0.137871
16   0.131085
17   0.137884
18   0.131094
19   0.135796
20   0.133559
21   0.135775
22   0.133596
23   0.1124
24   0.112411

>  <lowdin_charges>
24
1   -0.447487
2   -0.447014
3   -0.273282
4   -0.271877
5   -0.272853
6   -0.271576
7   -0.169276
8   -0.169216
9   0.150771
10   0.146892
11   0.147573
12   0.151281
13   0.146587
14   0.146915
15   0.144212
16   0.139912
17   0.143461
18   0.139223
19   0.146131
20   0.144071
21   0.145441
22   0.143424
23   0.143354
24   0.143332

$$$$

