PCCDB-ID:  42810
public computational chemistry database (PCCDB) project, http://pccdb.org

 26 26  0  0  0  0  0  0  0  0999 V2000
    0.7288    1.4694   -0.4911 C   0  0  0  0  0  0  0  0  0  0  0  0
    1.5082    0.1871   -0.1642 C   0  0  0  0  0  0  0  0  0  0  0  0
   -0.6559    1.4683    0.1742 C   0  0  0  0  0  0  0  0  0  0  0  0
    0.7033   -1.0630   -0.5524 C   0  0  0  0  0  0  0  0  0  0  0  0
   -1.4557    0.2021   -0.1734 C   0  0  0  0  0  0  0  0  0  0  0  0
   -1.7920   -1.7187    2.2594 C   0  0  0  0  0  0  0  0  0  0  0  0
   -0.6921   -1.1102    0.0965 C   0  0  0  0  0  0  0  0  0  0  0  0
   -2.1851   -0.6255    3.2698 C   0  0  0  0  0  0  0  0  0  0  0  0
   -0.5505   -1.3819    1.5475 N   0  0  0  0  0  0  0  0  0  0  0  0
   -3.2489   -0.6054    3.8403 O   0  0  0  0  0  0  0  0  0  0  0  0
   -1.2097    0.2754    3.4755 O   0  0  0  0  0  0  0  0  0  0  0  0
    0.6087    1.5485   -1.5822 H   0  0  0  0  0  0  0  0  0  0  0  0
    1.2994    2.3518   -0.1761 H   0  0  0  0  0  0  0  0  0  0  0  0
    1.7380    0.1609    0.9092 H   0  0  0  0  0  0  0  0  0  0  0  0
    2.4708    0.1807   -0.6907 H   0  0  0  0  0  0  0  0  0  0  0  0
   -1.2275    2.3513   -0.1372 H   0  0  0  0  0  0  0  0  0  0  0  0
   -0.5440    1.5494    1.2617 H   0  0  0  0  0  0  0  0  0  0  0  0
    1.2608   -1.9772   -0.3012 H   0  0  0  0  0  0  0  0  0  0  0  0
    0.5662   -1.0801   -1.6421 H   0  0  0  0  0  0  0  0  0  0  0  0
   -1.7036    0.2139   -1.2440 H   0  0  0  0  0  0  0  0  0  0  0  0
   -2.4162    0.2009    0.3574 H   0  0  0  0  0  0  0  0  0  0  0  0
   -2.6393   -1.8819    1.5834 H   0  0  0  0  0  0  0  0  0  0  0  0
   -1.6679   -2.6448    2.8331 H   0  0  0  0  0  0  0  0  0  0  0  0
   -1.2618   -1.9329   -0.3701 H   0  0  0  0  0  0  0  0  0  0  0  0
    0.1283   -2.1293    1.6672 H   0  0  0  0  0  0  0  0  0  0  0  0
   -0.4963    0.0056    2.8402 H   0  0  0  0  0  0  0  0  0  0  0  0
  1 13  1  0  0  0  0
  1  2  1  0  0  0  0
  1  3  1  0  0  0  0
  2 14  1  0  0  0  0
  3 17  1  0  0  0  0
  4 18  1  0  0  0  0
  4  2  1  0  0  0  0
  4  7  1  0  0  0  0
  5  7  1  0  0  0  0
  5  3  1  0  0  0  0
  5 21  1  0  0  0  0
  6 23  1  0  0  0  0
  6  8  1  0  0  0  0
  7  9  1  0  0  0  0
  8 11  1  0  0  0  0
  8 10  2  0  0  0  0
  9 25  1  0  0  0  0
  9  6  1  0  0  0  0
 12  1  1  0  0  0  0
 15  2  1  0  0  0  0
 16  3  1  0  0  0  0
 19  4  1  0  0  0  0
 20  5  1  0  0  0  0
 22  6  1  0  0  0  0
 24  7  1  0  0  0  0
 26 11  1  0  0  0  0
M  END
>  <HBA>
3

>  <HBD>
2

>  <TPSA>
49.33

>  <cid>
42810

>  <dipole>
5.6

>  <excitation_energy_1>
5.474

>  <excitation_energy_2>
5.861

>  <excitation_energy_3>
6.389

>  <excitation_energy_4>
6.534

>  <homo_energy>
-6.645

>  <homo_lumo_gap>
7.192

>  <logP>
1.384

>  <lumo_energy>
0.547

>  <melting_point>
99.03

>  <molecular_refractivity>
43.03

>  <oscillator_strength_1>
0.0009

>  <oscillator_strength_2>
0.0055

>  <oscillator_strength_3>
0.0243

>  <oscillator_strength_4>
0.0039

>  <open_babel_can_smiles>
OC(=O)CNC1CCCCC1

>  <mulliken_charges>
26
1   -0.25992
2   -0.253111
3   -0.264375
4   -0.28806
5   -0.277857
6   -0.252956
7   0.049271
8   0.595661
9   -0.614517
10   -0.460395
11   -0.578855
12   0.127727
13   0.137278
14   0.136115
15   0.135538
16   0.139396
17   0.144748
18   0.126425
19   0.141596
20   0.137605
21   0.147897
22   0.182464
23   0.181659
24   0.119631
25   0.315301
26   0.431735

>  <lowdin_charges>
26
1   -0.276209
2   -0.277138
3   -0.280464
4   -0.282139
5   -0.285309
6   -0.253622
7   -0.063629
8   0.170798
9   -0.368302
10   -0.25671
11   -0.360955
12   0.135137
13   0.14775
14   0.1394
15   0.146087
16   0.150069
17   0.14411
18   0.140221
19   0.146596
20   0.145229
21   0.150706
22   0.168859
23   0.173251
24   0.128215
25   0.265353
26   0.352696

$$$$

