PCCDB-ID:  14366
public computational chemistry database (PCCDB) project, http://pccdb.org

 32 32  0  0  0  0  0  0  0  0999 V2000
    1.3989    3.0317   -4.4471 C   0  0  0  0  0  0  0  0  0  0  0  0
    2.9091    3.1907   -4.3805 C   0  0  0  0  0  0  0  0  0  0  0  0
    0.6450   -1.9658    5.4116 C   0  0  0  0  0  0  0  0  0  0  0  0
    1.0006   -0.6251    5.2680 C   0  0  0  0  0  0  0  0  0  0  0  0
    0.8280   -2.8447    4.3411 C   0  0  0  0  0  0  0  0  0  0  0  0
    1.5373   -0.1595    4.0649 C   0  0  0  0  0  0  0  0  0  0  0  0
    1.3611   -2.3805    3.1401 C   0  0  0  0  0  0  0  0  0  0  0  0
    4.2243    1.2564   -1.4563 C   0  0  0  0  0  0  0  0  0  0  0  0
    2.3088   -0.5898    1.6705 C   0  0  0  0  0  0  0  0  0  0  0  0
    1.7222   -1.0347    2.9908 C   0  0  0  0  0  0  0  0  0  0  0  0
    3.5633    2.3893   -2.2325 C   0  0  0  0  0  0  0  0  0  0  0  0
    3.1056    1.3764    0.6261 C   0  0  0  0  0  0  0  0  0  0  0  0
    3.3977    0.6790   -0.4079 N   0  0  0  0  0  0  0  0  0  0  0  0
    3.1474    3.4162   -1.7065 O   0  0  0  0  0  0  0  0  0  0  0  0
    3.3289    2.6739    0.8772 O   0  0  0  0  0  0  0  0  0  0  0  0
    3.5072    2.1595   -3.5441 O   0  0  0  0  0  0  0  0  0  0  0  0
    2.5022    0.8293    1.6918 O   0  0  0  0  0  0  0  0  0  0  0  0
    0.9824    3.7698   -5.1418 H   0  0  0  0  0  0  0  0  0  0  0  0
    0.9476    3.1935   -3.4643 H   0  0  0  0  0  0  0  0  0  0  0  0
    1.1279    2.0327   -4.8027 H   0  0  0  0  0  0  0  0  0  0  0  0
    3.1947    4.1685   -3.9864 H   0  0  0  0  0  0  0  0  0  0  0  0
    3.3756    3.0386   -5.3561 H   0  0  0  0  0  0  0  0  0  0  0  0
    0.2282   -2.3251    6.3487 H   0  0  0  0  0  0  0  0  0  0  0  0
    0.8605    0.0667    6.0946 H   0  0  0  0  0  0  0  0  0  0  0  0
    0.5525   -3.8915    4.4403 H   0  0  0  0  0  0  0  0  0  0  0  0
    1.8125    0.8834    3.9545 H   0  0  0  0  0  0  0  0  0  0  0  0
    1.4987   -3.0705    2.3094 H   0  0  0  0  0  0  0  0  0  0  0  0
    5.1600    1.6779   -1.0510 H   0  0  0  0  0  0  0  0  0  0  0  0
    4.4953    0.4655   -2.1588 H   0  0  0  0  0  0  0  0  0  0  0  0
    1.6484   -0.8485    0.8345 H   0  0  0  0  0  0  0  0  0  0  0  0
    3.2708   -1.0785    1.4736 H   0  0  0  0  0  0  0  0  0  0  0  0
    3.3579    3.1506    0.0106 H   0  0  0  0  0  0  0  0  0  0  0  0
  1  2  1  0  0  0  0
  1 19  1  0  0  0  0
  2 21  1  0  0  0  0
  2 16  1  0  0  0  0
  3 23  1  0  0  0  0
  4  3  1  0  0  0  0
  4 24  1  0  0  0  0
  5 25  1  0  0  0  0
  5  3  2  0  0  0  0
  6  4  2  0  0  0  0
  7  5  1  0  0  0  0
  8 28  1  0  0  0  0
  8 13  1  0  0  0  0
  9 17  1  0  0  0  0
  9 10  1  0  0  0  0
 10  7  2  0  0  0  0
 10  6  1  0  0  0  0
 11 14  2  0  0  0  0
 11  8  1  0  0  0  0
 12 15  1  0  0  0  0
 12 17  1  0  0  0  0
 13 12  2  0  0  0  0
 16 11  1  0  0  0  0
 18  1  1  0  0  0  0
 20  1  1  0  0  0  0
 22  2  1  0  0  0  0
 26  6  1  0  0  0  0
 27  7  1  0  0  0  0
 29  8  1  0  0  0  0
 30  9  1  0  0  0  0
 31  9  1  0  0  0  0
 32 15  1  0  0  0  0
M  END
>  <HBA>
5

>  <HBD>
1

>  <TPSA>
64.63

>  <cid>
14366

>  <dipole>
3.51

>  <excitation_energy_1>
5.194

>  <excitation_energy_2>
5.308

>  <excitation_energy_3>
5.465

>  <excitation_energy_4>
5.546

>  <homo_energy>
-6.419

>  <homo_lumo_gap>
6.03

>  <logP>
1.867

>  <lumo_energy>
-0.389

>  <melting_point>
66.23

>  <molecular_refractivity>
61.2

>  <oscillator_strength_1>
0.0266

>  <oscillator_strength_2>
0.0017

>  <oscillator_strength_3>
0.0008

>  <oscillator_strength_4>
0.0126

>  <open_babel_can_smiles>
CCOC(=O)C/N=C(/OCc1ccccc1)\O

>  <mulliken_charges>
32
1   -0.463554
2   -0.055573
3   -0.127108
4   -0.13374
5   -0.131143
6   -0.164458
7   -0.174349
8   -0.245181
9   -0.069583
10   0.09909
11   0.631082
12   0.689591
13   -0.476495
14   -0.507266
15   -0.614526
16   -0.436437
17   -0.463287
18   0.157486
19   0.180861
20   0.16573
21   0.177446
22   0.163234
23   0.126536
24   0.129422
25   0.12762
26   0.155829
27   0.122652
28   0.170955
29   0.177939
30   0.16787
31   0.168528
32   0.450828

>  <lowdin_charges>
32
1   -0.453456
2   -0.126656
3   -0.161262
4   -0.154511
5   -0.152998
6   -0.160586
7   -0.168345
8   -0.222586
9   -0.117619
10   -0.015434
11   0.20471
12   0.195829
13   -0.29097
14   -0.294424
15   -0.372093
16   -0.166032
17   -0.169864
18   0.164188
19   0.167603
20   0.160308
21   0.161841
22   0.157688
23   0.156521
24   0.158179
25   0.155196
26   0.169612
27   0.155045
28   0.161607
29   0.170357
30   0.160139
31   0.159763
32   0.368247

$$$$

