PCCDB-ID:  40953
public computational chemistry database (PCCDB) project, http://pccdb.org

 26 26  0  0  0  0  0  0  0  0999 V2000
    1.8081    0.6205    1.1250 C   0  0  0  0  0  0  0  0  0  0  0  0
    2.8187   -0.1219   -1.0864 C   0  0  0  0  0  0  0  0  0  0  0  0
    7.3009    1.0328   -0.4241 C   0  0  0  0  0  0  0  0  0  0  0  0
    5.9505    0.7803   -0.1780 C   0  0  0  0  0  0  0  0  0  0  0  0
    6.8493    3.4263   -0.3116 C   0  0  0  0  0  0  0  0  0  0  0  0
    3.0850    0.4141    0.3196 C   0  0  0  0  0  0  0  0  0  0  0  0
    7.7263    2.3536   -0.4902 C   0  0  0  0  0  0  0  0  0  0  0  0
    5.5017    3.1827   -0.0592 C   0  0  0  0  0  0  0  0  0  0  0  0
    5.0523    1.8337    0.0045 C   0  0  0  0  0  0  0  0  0  0  0  0
    4.5946    4.2056    0.1902 N   0  0  0  0  0  0  0  0  0  0  0  0
    9.1361    2.6363   -0.7583 N   0  0  0  0  0  0  0  0  0  0  0  0
    9.8989    1.6793   -0.9106 O   0  0  0  0  0  0  0  0  0  0  0  0
    9.4865    3.8176   -0.8190 O   0  0  0  0  0  0  0  0  0  0  0  0
    3.7180    1.7115    0.2541 O   0  0  0  0  0  0  0  0  0  0  0  0
    1.2758   -0.3296    1.2395 H   0  0  0  0  0  0  0  0  0  0  0  0
    1.1441    1.3282    0.6165 H   0  0  0  0  0  0  0  0  0  0  0  0
    2.0379    1.0141    2.1195 H   0  0  0  0  0  0  0  0  0  0  0  0
    2.3451   -1.1084   -1.0322 H   0  0  0  0  0  0  0  0  0  0  0  0
    3.7417   -0.2184   -1.6656 H   0  0  0  0  0  0  0  0  0  0  0  0
    2.1456    0.5539   -1.6253 H   0  0  0  0  0  0  0  0  0  0  0  0
    8.0087    0.2272   -0.5686 H   0  0  0  0  0  0  0  0  0  0  0  0
    5.6086   -0.2467   -0.1360 H   0  0  0  0  0  0  0  0  0  0  0  0
    7.2316    4.4387   -0.3667 H   0  0  0  0  0  0  0  0  0  0  0  0
    3.7480   -0.2660    0.8692 H   0  0  0  0  0  0  0  0  0  0  0  0
    4.8309    5.1030   -0.2123 H   0  0  0  0  0  0  0  0  0  0  0  0
    3.6264    3.9470    0.0528 H   0  0  0  0  0  0  0  0  0  0  0  0
  1 15  1  0  0  0  0
  1 17  1  0  0  0  0
  2 18  1  0  0  0  0
  2  6  1  0  0  0  0
  3  4  1  0  0  0  0
  4 22  1  0  0  0  0
  4  9  2  0  0  0  0
  5  8  2  0  0  0  0
  6 24  1  0  0  0  0
  6  1  1  0  0  0  0
  7  3  2  0  0  0  0
  7  5  1  0  0  0  0
  8  9  1  0  0  0  0
  8 10  1  0  0  0  0
  9 14  1  0  0  0  0
 11  7  1  0  0  0  0
 12 11  2  0  0  0  0
 13 11  2  0  0  0  0
 14  6  1  0  0  0  0
 16  1  1  0  0  0  0
 19  2  1  0  0  0  0
 20  2  1  0  0  0  0
 21  3  1  0  0  0  0
 23  5  1  0  0  0  0
 25 10  1  0  0  0  0
 26 10  1  0  0  0  0
M  END
>  <HBA>
2

>  <HBD>
1

>  <TPSA>
81.07

>  <cid>
40953

>  <dipole>
7.21

>  <excitation_energy_1>
3.149

>  <excitation_energy_2>
3.764

>  <excitation_energy_3>
4.181

>  <excitation_energy_4>
4.332

>  <homo_energy>
-5.714

>  <homo_lumo_gap>
3.78

>  <logP>
3.069

>  <lumo_energy>
-1.935

>  <melting_point>
97.05

>  <molecular_refractivity>
55.77

>  <oscillator_strength_1>
0.0817

>  <oscillator_strength_2>
0.0

>  <oscillator_strength_3>
0.1693

>  <oscillator_strength_4>
0.0004

>  <open_babel_can_smiles>
CC(Oc1ccc(cc1N)N(=O)=O)C

>  <mulliken_charges>
26
1   -0.452433
2   -0.459948
3   -0.173835
4   -0.208379
5   -0.222879
6   0.132222
7   0.277361
8   0.264693
9   0.384148
10   -0.792082
11   0.36953
12   -0.406818
13   -0.407129
14   -0.553988
15   0.153183
16   0.155808
17   0.166549
18   0.154111
19   0.165116
20   0.158045
21   0.173969
22   0.145645
23   0.168987
24   0.14308
25   0.326771
26   0.338275

>  <lowdin_charges>
26
1   -0.446935
2   -0.458594
3   -0.158479
4   -0.202502
5   -0.184369
6   0.012716
7   -0.006534
8   0.041477
9   0.092498
10   -0.478304
11   0.309647
12   -0.260288
13   -0.260095
14   -0.204115
15   0.159279
16   0.157976
17   0.162775
18   0.159591
19   0.161748
20   0.159749
21   0.185879
22   0.167029
23   0.182172
24   0.142907
25   0.280845
26   0.283925

$$$$

