PCCDB-ID:  68840
public computational chemistry database (PCCDB) project, http://pccdb.org

 37 38  0  0  0  0  0  0  0  0999 V2000
    1.4422    1.5898   -0.0410 C   0  0  0  0  0  0  0  0  0  0  0  0
    2.1903    0.2788    0.2634 C   0  0  0  0  0  0  0  0  0  0  0  0
    7.2534    1.2830    0.6252 C   0  0  0  0  0  0  0  0  0  0  0  0
    5.2379   -3.3395   -4.4601 C   0  0  0  0  0  0  0  0  0  0  0  0
    6.2039    2.0378    0.1006 C   0  0  0  0  0  0  0  0  0  0  0  0
    7.2190   -0.1094    0.5174 C   0  0  0  0  0  0  0  0  0  0  0  0
    4.4925   -3.8402   -3.3923 C   0  0  0  0  0  0  0  0  0  0  0  0
    5.5556   -1.9796   -4.4985 C   0  0  0  0  0  0  0  0  0  0  0  0
    5.1246    1.4051   -0.5183 C   0  0  0  0  0  0  0  0  0  0  0  0
    6.1441   -0.7384   -0.1079 C   0  0  0  0  0  0  0  0  0  0  0  0
    4.0614   -2.9851   -2.3766 C   0  0  0  0  0  0  0  0  0  0  0  0
    5.1291   -1.1296   -3.4796 C   0  0  0  0  0  0  0  0  0  0  0  0
    1.4917   -1.1225   -1.7498 C   0  0  0  0  0  0  0  0  0  0  0  0
    2.6322   -0.5089   -0.9559 C   0  0  0  0  0  0  0  0  0  0  0  0
    5.0684    0.0058   -0.6232 C   0  0  0  0  0  0  0  0  0  0  0  0
    4.3596   -1.6129   -2.4076 C   0  0  0  0  0  0  0  0  0  0  0  0
    3.9307   -0.6896   -1.3061 C   0  0  0  0  0  0  0  0  0  0  0  0
    0.7269   -2.0833   -0.9321 N   0  0  0  0  0  0  0  0  0  0  0  0
    1.1428    2.0791    0.8929 H   0  0  0  0  0  0  0  0  0  0  0  0
    0.5309    1.4145   -0.6229 H   0  0  0  0  0  0  0  0  0  0  0  0
    2.0670    2.2943   -0.6019 H   0  0  0  0  0  0  0  0  0  0  0  0
    1.5141   -0.3728    0.8315 H   0  0  0  0  0  0  0  0  0  0  0  0
    3.0480    0.4942    0.9059 H   0  0  0  0  0  0  0  0  0  0  0  0
    8.0943    1.7746    1.1071 H   0  0  0  0  0  0  0  0  0  0  0  0
    5.5752   -4.0037   -5.2513 H   0  0  0  0  0  0  0  0  0  0  0  0
    6.2259    3.1227    0.1661 H   0  0  0  0  0  0  0  0  0  0  0  0
    8.0333   -0.7073    0.9186 H   0  0  0  0  0  0  0  0  0  0  0  0
    4.2520   -4.8992   -3.3438 H   0  0  0  0  0  0  0  0  0  0  0  0
    6.1406   -1.5803   -5.3231 H   0  0  0  0  0  0  0  0  0  0  0  0
    4.3202    2.0001   -0.9400 H   0  0  0  0  0  0  0  0  0  0  0  0
    6.1308   -1.8211   -0.1985 H   0  0  0  0  0  0  0  0  0  0  0  0
    3.4986   -3.3853   -1.5371 H   0  0  0  0  0  0  0  0  0  0  0  0
    5.3911   -0.0754   -3.5097 H   0  0  0  0  0  0  0  0  0  0  0  0
    1.8671   -1.5394   -2.6930 H   0  0  0  0  0  0  0  0  0  0  0  0
    0.7905   -0.3207   -2.0194 H   0  0  0  0  0  0  0  0  0  0  0  0
    1.2961   -2.9132   -0.7685 H   0  0  0  0  0  0  0  0  0  0  0  0
   -0.0885   -2.3973   -1.4567 H   0  0  0  0  0  0  0  0  0  0  0  0
  1  2  1  0  0  0  0
  1 19  1  0  0  0  0
  2 22  1  0  0  0  0
  2 23  1  0  0  0  0
  3 24  1  0  0  0  0
  4  7  1  0  0  0  0
  5 26  1  0  0  0  0
  5  3  2  0  0  0  0
  6  3  1  0  0  0  0
  6 27  1  0  0  0  0
  7 28  1  0  0  0  0
  7 11  2  0  0  0  0
  8  4  2  0  0  0  0
  8 12  1  0  0  0  0
  9  5  1  0  0  0  0
 10  6  2  0  0  0  0
 11 32  1  0  0  0  0
 12 16  2  0  0  0  0
 13 14  1  0  0  0  0
 13 18  1  0  0  0  0
 14  2  1  0  0  0  0
 15  9  2  0  0  0  0
 15 10  1  0  0  0  0
 16 11  1  0  0  0  0
 16 17  1  0  0  0  0
 17 14  2  0  0  0  0
 17 15  1  0  0  0  0
 18 36  1  0  0  0  0
 20  1  1  0  0  0  0
 21  1  1  0  0  0  0
 25  4  1  0  0  0  0
 29  8  1  0  0  0  0
 30  9  1  0  0  0  0
 31 10  1  0  0  0  0
 33 12  1  0  0  0  0
 34 13  1  0  0  0  0
 35 13  1  0  0  0  0
 37 18  1  0  0  0  0
M  END
>  <HBA>
1

>  <HBD>
1

>  <TPSA>
26.02

>  <cid>
68840

>  <dipole>
1.24

>  <excitation_energy_1>
4.669

>  <excitation_energy_2>
4.705

>  <excitation_energy_3>
4.877

>  <excitation_energy_4>
4.995

>  <homo_energy>
-5.772

>  <homo_lumo_gap>
5.279

>  <logP>
4.558

>  <lumo_energy>
-0.493

>  <melting_point>
103.72

>  <molecular_refractivity>
78.15

>  <oscillator_strength_1>
0.1783

>  <oscillator_strength_2>
0.1106

>  <oscillator_strength_3>
0.0511

>  <oscillator_strength_4>
0.0062

>  <open_babel_can_smiles>
CCC(=C(c1ccccc1)c1ccccc1)CN

>  <mulliken_charges>
37
1   -0.450531
2   -0.323065
3   -0.128198
4   -0.128768
5   -0.133317
6   -0.132478
7   -0.131622
8   -0.131979
9   -0.171096
10   -0.164312
11   -0.170048
12   -0.161972
13   -0.222546
14   0.145715
15   0.093703
16   0.082968
17   -0.090703
18   -0.717043
19   0.144912
20   0.147958
21   0.142998
22   0.171432
23   0.149725
24   0.12771
25   0.128664
26   0.128191
27   0.128685
28   0.127953
29   0.13014
30   0.134282
31   0.133869
32   0.121452
33   0.135618
34   0.142776
35   0.145021
36   0.296844
37   0.297058

>  <lowdin_charges>
37
1   -0.444415
2   -0.283229
3   -0.15953
4   -0.16071
5   -0.156132
6   -0.157752
7   -0.156914
8   -0.155686
9   -0.164894
10   -0.1533
11   -0.168864
12   -0.153587
13   -0.212435
14   -0.009648
15   -0.000606
16   -0.000347
17   -0.037786
18   -0.558252
19   0.151637
20   0.147965
21   0.144259
22   0.166104
23   0.155368
24   0.15779
25   0.158439
26   0.154923
27   0.158267
28   0.155214
29   0.158687
30   0.160363
31   0.158909
32   0.153155
33   0.160201
34   0.138423
35   0.148503
36   0.249674
37   0.256205

$$$$

