PCCDB-ID:  32012
public computational chemistry database (PCCDB) project, http://pccdb.org

 23 22  0  0  0  0  0  0  0  0999 V2000
    5.7129    1.0161   -4.1870 C   0  0  0  0  0  0  0  0  0  0  0  0
    5.3599    1.0548   -2.9011 C   0  0  0  0  0  0  0  0  0  0  0  0
    6.2603    0.7373   -1.7375 C   0  0  0  0  0  0  0  0  0  0  0  0
    5.7297   -0.4027   -0.8417 C   0  0  0  0  0  0  0  0  0  0  0  0
    5.5877   -1.7729   -1.5405 C   0  0  0  0  0  0  0  0  0  0  0  0
    6.8905   -2.3618   -2.0098 C   0  0  0  0  0  0  0  0  0  0  0  0
    7.4428   -3.4862   -1.5426 C   0  0  0  0  0  0  0  0  0  0  0  0
    8.7504   -4.0524   -2.0185 C   0  0  0  0  0  0  0  0  0  0  0  0
    9.6922   -4.2112   -0.9553 O   0  0  0  0  0  0  0  0  0  0  0  0
    5.0139    1.2611   -4.9822 H   0  0  0  0  0  0  0  0  0  0  0  0
    6.7211    0.7447   -4.4948 H   0  0  0  0  0  0  0  0  0  0  0  0
    4.3357    1.3337   -2.6436 H   0  0  0  0  0  0  0  0  0  0  0  0
    6.3663    1.6351   -1.1104 H   0  0  0  0  0  0  0  0  0  0  0  0
    7.2663    0.4972   -2.1039 H   0  0  0  0  0  0  0  0  0  0  0  0
    4.7459   -0.1130   -0.4467 H   0  0  0  0  0  0  0  0  0  0  0  0
    6.3939   -0.5097    0.0256 H   0  0  0  0  0  0  0  0  0  0  0  0
    4.9144   -1.6574   -2.4019 H   0  0  0  0  0  0  0  0  0  0  0  0
    5.1016   -2.4729   -0.8496 H   0  0  0  0  0  0  0  0  0  0  0  0
    7.4115   -1.8190   -2.8011 H   0  0  0  0  0  0  0  0  0  0  0  0
    6.9462   -4.0504   -0.7513 H   0  0  0  0  0  0  0  0  0  0  0  0
    9.1600   -3.4285   -2.8299 H   0  0  0  0  0  0  0  0  0  0  0  0
    8.6136   -5.0626   -2.4225 H   0  0  0  0  0  0  0  0  0  0  0  0
    9.7813   -3.3434   -0.5304 H   0  0  0  0  0  0  0  0  0  0  0  0
  1  2  2  0  0  0  0
  2 12  1  0  0  0  0
  2  3  1  0  0  0  0
  3 13  1  0  0  0  0
  3  4  1  0  0  0  0
  4 15  1  0  0  0  0
  4 16  1  0  0  0  0
  5 18  1  0  0  0  0
  5  4  1  0  0  0  0
  6  7  2  0  0  0  0
  6  5  1  0  0  0  0
  7 20  1  0  0  0  0
  8  7  1  0  0  0  0
  8  9  1  0  0  0  0
  9 23  1  0  0  0  0
 10  1  1  0  0  0  0
 11  1  1  0  0  0  0
 14  3  1  0  0  0  0
 17  5  1  0  0  0  0
 19  6  1  0  0  0  0
 21  8  1  0  0  0  0
 22  8  1  0  0  0  0
M  END
>  <HBA>
1

>  <HBD>
1

>  <TPSA>
20.23

>  <cid>
32012

>  <dipole>
2.11

>  <excitation_energy_1>
6.141

>  <excitation_energy_2>
6.25

>  <excitation_energy_3>
6.295

>  <excitation_energy_4>
6.37

>  <homo_energy>
-6.678

>  <homo_lumo_gap>
6.991

>  <logP>
1.891

>  <lumo_energy>
0.313

>  <melting_point>
-20.08

>  <molecular_refractivity>
40.78

>  <oscillator_strength_1>
0.1302

>  <oscillator_strength_2>
0.0515

>  <oscillator_strength_3>
0.0085

>  <oscillator_strength_4>
0.0252

>  <open_babel_can_smiles>
OC/C=C/CCCC=C

>  <mulliken_charges>
23
1   -0.342952
2   -0.039376
3   -0.303986
4   -0.260338
5   -0.303715
6   -0.090989
7   -0.135756
8   -0.067772
9   -0.612415
10   0.140267
11   0.134441
12   0.124258
13   0.145789
14   0.139012
15   0.133968
16   0.137009
17   0.152539
18   0.1393
19   0.123933
20   0.128949
21   0.122642
22   0.151756
23   0.383435

>  <lowdin_charges>
23
1   -0.344534
2   -0.144694
3   -0.27559
4   -0.272307
5   -0.277523
6   -0.160709
7   -0.196288
8   -0.130955
9   -0.469227
10   0.159784
11   0.152385
12   0.147777
13   0.153529
14   0.14508
15   0.142648
16   0.145159
17   0.155484
18   0.150403
19   0.148406
20   0.152846
21   0.129258
22   0.150983
23   0.338085

$$$$

