PCCDB-ID:  36481
public computational chemistry database (PCCDB) project, http://pccdb.org

 25 26  0  0  1  0  0  0  0  0999 V2000
    0.9228   -0.0126   -0.0774 C   0  0  0  0  0  0  0  0  0  0  0  0
    4.6139   -1.1023   -0.0352 C   0  0  0  0  0  0  0  0  0  0  0  0
    3.2158   -1.1490   -0.0400 C   0  0  0  0  0  0  0  0  0  0  0  0
    5.2804    0.1276   -0.0677 C   0  0  0  0  0  0  0  0  0  0  0  0
    4.9152    2.7516   -0.1477 C   0  0  0  0  0  0  0  0  0  0  0  0
    3.3464    4.3344    1.1378 C   0  0  0  0  0  0  0  0  0  0  0  0
    2.4292    0.0107   -0.0767 C   0  0  0  0  0  0  0  0  0  0  0  0
    4.5234    1.2936   -0.1065 C   0  0  0  0  0  0  0  0  0  0  0  0
    3.5346    3.4728   -0.1106 C   0  0  2  0  0  0  0  0  0  0  0  0
    3.1318    1.2185   -0.1111 C   0  0  0  0  0  0  0  0  0  0  0  0
    2.0740    5.0530    1.1136 N   0  0  0  0  0  0  0  0  0  0  0  0
    2.5151    2.4372   -0.1527 O   0  0  0  0  0  0  0  0  0  0  0  0
    0.5459   -1.0384   -0.0179 H   0  0  0  0  0  0  0  0  0  0  0  0
    0.5162    0.4493   -0.9857 H   0  0  0  0  0  0  0  0  0  0  0  0
    0.5156    0.5542    0.7686 H   0  0  0  0  0  0  0  0  0  0  0  0
    5.1829   -2.0272   -0.0051 H   0  0  0  0  0  0  0  0  0  0  0  0
    2.7144   -2.1141   -0.0139 H   0  0  0  0  0  0  0  0  0  0  0  0
    6.3670    0.1680   -0.0630 H   0  0  0  0  0  0  0  0  0  0  0  0
    5.4786    3.0057   -1.0539 H   0  0  0  0  0  0  0  0  0  0  0  0
    5.5404    3.0429    0.7068 H   0  0  0  0  0  0  0  0  0  0  0  0
    4.2381    4.9854    1.2238 H   0  0  0  0  0  0  0  0  0  0  0  0
    3.3523    3.6708    2.0111 H   0  0  0  0  0  0  0  0  0  0  0  0
    3.3802    4.0893   -1.0047 H   0  0  0  0  0  0  0  0  0  0  0  0
    2.1120    5.8053    0.4270 H   0  0  0  0  0  0  0  0  0  0  0  0
    1.9088    5.4967    2.0145 H   0  0  0  0  0  0  0  0  0  0  0  0
  1  7  1  0  0  0  0
  1 13  1  0  0  0  0
  1 15  1  0  0  0  0
  2 16  1  0  0  0  0
  3  2  1  0  0  0  0
  3 17  1  0  0  0  0
  4 18  1  0  0  0  0
  4  2  2  0  0  0  0
  5  9  1  0  0  0  0
  5  8  1  0  0  0  0
  5 20  1  0  0  0  0
  6 21  1  0  0  0  0
  6 22  1  0  0  0  0
  7  3  2  0  0  0  0
  8  4  1  0  0  0  0
  9 23  1  6  0  0  0
  9  6  1  0  0  0  0
 10  8  2  0  0  0  0
 10  7  1  0  0  0  0
 11  6  1  0  0  0  0
 11 25  1  0  0  0  0
 12 10  1  0  0  0  0
 12  9  1  0  0  0  0
 14  1  1  0  0  0  0
 19  5  1  0  0  0  0
 24 11  1  0  0  0  0
M  END
>  <HBA>
2

>  <HBD>
1

>  <TPSA>
35.25

>  <cid>
36481

>  <dipole>
2.69

>  <excitation_energy_1>
4.764

>  <excitation_energy_2>
4.989

>  <excitation_energy_3>
5.275

>  <excitation_energy_4>
5.509

>  <homo_energy>
-5.412

>  <homo_lumo_gap>
5.652

>  <logP>
1.958

>  <lumo_energy>
0.239

>  <melting_point>
94.26

>  <molecular_refractivity>
48.27

>  <oscillator_strength_1>
0.055

>  <oscillator_strength_2>
0.0243

>  <oscillator_strength_3>
0.006

>  <oscillator_strength_4>
0.019

>  <open_babel_can_smiles>
NC[C@H]1Cc2c(O1)c(C)ccc2

>  <mulliken_charges>
25
1   -0.516142
2   -0.134874
3   -0.195757
4   -0.210375
5   -0.385182
6   -0.147078
7   0.122683
8   0.119971
9   0.145209
10   0.284777
11   -0.705771
12   -0.525232
13   0.145574
14   0.165886
15   0.169086
16   0.119634
17   0.117201
18   0.120373
19   0.160266
20   0.156187
21   0.113969
22   0.152693
23   0.133673
24   0.293002
25   0.300227

>  <lowdin_charges>
25
1   -0.436833
2   -0.180807
3   -0.162857
4   -0.161946
5   -0.288297
6   -0.216543
7   -0.029957
8   -0.04958
9   0.011383
10   0.084129
11   -0.549536
12   -0.203136
13   0.152605
14   0.163504
15   0.165544
16   0.154729
17   0.153373
18   0.152186
19   0.159009
20   0.156593
21   0.120746
22   0.152462
23   0.142252
24   0.252702
25   0.258272

$$$$

