PCCDB-ID:  58849
public computational chemistry database (PCCDB) project, http://pccdb.org

 26 26  0  0  0  0  0  0  0  0999 V2000
   -1.8220    0.8151    0.4454 C   0  0  0  0  0  0  0  0  0  0  0  0
   -0.5954    1.7024    0.1877 C   0  0  0  0  0  0  0  0  0  0  0  0
   -1.7522   -0.5948   -0.1539 C   0  0  0  0  0  0  0  0  0  0  0  0
    0.7114    1.1629    0.7989 C   0  0  0  0  0  0  0  0  0  0  0  0
   -0.5325   -1.4239    0.2821 C   0  0  0  0  0  0  0  0  0  0  0  0
    1.4702    0.1393   -0.0497 C   0  0  0  0  0  0  0  0  0  0  0  0
    3.3574   -0.9205   -2.1126 C   0  0  0  0  0  0  0  0  0  0  0  0
    2.4286   -2.9105   -3.1422 C   0  0  0  0  0  0  0  0  0  0  0  0
    1.1503   -1.8957   -1.3877 C   0  0  0  0  0  0  0  0  0  0  0  0
    2.2909   -1.8661   -2.1753 C   0  0  0  0  0  0  0  0  0  0  0  0
    4.2519   -0.1735   -2.0884 N   0  0  0  0  0  0  0  0  0  0  0  0
    2.5283   -3.7666   -3.9264 N   0  0  0  0  0  0  0  0  0  0  0  0
    0.7127   -1.0734   -0.4214 N   0  0  0  0  0  0  0  0  0  0  0  0
   -2.7181    1.3162    0.0585 H   0  0  0  0  0  0  0  0  0  0  0  0
   -1.9667    0.7285    1.5326 H   0  0  0  0  0  0  0  0  0  0  0  0
   -0.7961    2.6922    0.6155 H   0  0  0  0  0  0  0  0  0  0  0  0
   -0.4597    1.8583   -0.8921 H   0  0  0  0  0  0  0  0  0  0  0  0
   -1.7625   -0.5479   -1.2510 H   0  0  0  0  0  0  0  0  0  0  0  0
   -2.6533   -1.1477    0.1427 H   0  0  0  0  0  0  0  0  0  0  0  0
    0.5194    0.7710    1.8063 H   0  0  0  0  0  0  0  0  0  0  0  0
    1.4171    1.9914    0.9349 H   0  0  0  0  0  0  0  0  0  0  0  0
   -0.7203   -2.4831    0.0871 H   0  0  0  0  0  0  0  0  0  0  0  0
   -0.3674   -1.3328    1.3619 H   0  0  0  0  0  0  0  0  0  0  0  0
    2.3847   -0.1636    0.4754 H   0  0  0  0  0  0  0  0  0  0  0  0
    1.7846    0.6242   -0.9776 H   0  0  0  0  0  0  0  0  0  0  0  0
    0.4892   -2.7349   -1.5830 H   0  0  0  0  0  0  0  0  0  0  0  0
  1 15  1  0  0  0  0
  2  1  1  0  0  0  0
  2 16  1  0  0  0  0
  2  4  1  0  0  0  0
  3 19  1  0  0  0  0
  3  5  1  0  0  0  0
  3  1  1  0  0  0  0
  4 21  1  0  0  0  0
  4 20  1  0  0  0  0
  5 23  1  0  0  0  0
  6 24  1  0  0  0  0
  6  4  1  0  0  0  0
  7 11  3  0  0  0  0
  8 10  1  0  0  0  0
  9 13  1  0  0  0  0
 10  7  1  0  0  0  0
 10  9  2  0  0  0  0
 12  8  3  0  0  0  0
 13  6  1  0  0  0  0
 13  5  1  0  0  0  0
 14  1  1  0  0  0  0
 17  2  1  0  0  0  0
 18  3  1  0  0  0  0
 22  5  1  0  0  0  0
 25  6  1  0  0  0  0
 26  9  1  0  0  0  0
M  END
>  <HBA>
3

>  <HBD>
0

>  <TPSA>
50.82

>  <cid>
58849

>  <dipole>
9.3

>  <excitation_energy_1>
4.709

>  <excitation_energy_2>
5.037

>  <excitation_energy_3>
5.28

>  <excitation_energy_4>
5.661

>  <homo_energy>
-6.18

>  <homo_lumo_gap>
4.996

>  <logP>
1.731

>  <lumo_energy>
-1.184

>  <melting_point>
77.01

>  <molecular_refractivity>
53.91

>  <oscillator_strength_1>
0.464

>  <oscillator_strength_2>
0.0003

>  <oscillator_strength_3>
0.0234

>  <oscillator_strength_4>
0.006

>  <open_babel_can_smiles>
N#CC(=CN1CCCCCC1)C#N

>  <mulliken_charges>
26
1   -0.265397
2   -0.260348
3   -0.258296
4   -0.300652
5   -0.167987
6   -0.150911
7   0.284265
8   0.258625
9   0.091142
10   0.060981
11   -0.50767
12   -0.484739
13   -0.379435
14   0.147551
15   0.136526
16   0.148529
17   0.14431
18   0.151497
19   0.149362
20   0.14616
21   0.165933
22   0.167421
23   0.165184
24   0.181862
25   0.191247
26   0.184839

>  <lowdin_charges>
26
1   -0.276388
2   -0.277913
3   -0.284889
4   -0.285712
5   -0.191144
6   -0.20028
7   -0.016261
8   -0.01223
9   -0.036485
10   -0.13299
11   -0.138792
12   -0.137062
13   -0.054217
14   0.153241
15   0.139263
16   0.153334
17   0.145021
18   0.148779
19   0.155985
20   0.145047
21   0.167075
22   0.160727
23   0.153873
24   0.165643
25   0.17275
26   0.183628

$$$$

