PCCDB-ID:  40320
public computational chemistry database (PCCDB) project, http://pccdb.org

 29 31  0  0  0  0  0  0  0  0999 V2000
    4.7095   -3.3110    0.6357 C   0  0  0  0  0  0  0  0  0  0  0  0
    5.4206   -2.1609    0.9804 C   0  0  0  0  0  0  0  0  0  0  0  0
    3.4112   -3.2014    0.1280 C   0  0  0  0  0  0  0  0  0  0  0  0
    4.8459   -0.9019    0.7995 C   0  0  0  0  0  0  0  0  0  0  0  0
    2.8296   -1.9474   -0.0333 C   0  0  0  0  0  0  0  0  0  0  0  0
    3.0140    3.0066    0.1697 C   0  0  0  0  0  0  0  0  0  0  0  0
    3.6267    4.2270   -0.1206 C   0  0  0  0  0  0  0  0  0  0  0  0
    4.8330    1.7589   -0.8767 C   0  0  0  0  0  0  0  0  0  0  0  0
    3.5466   -0.7824    0.2830 C   0  0  0  0  0  0  0  0  0  0  0  0
    3.6027    1.7803   -0.1830 C   0  0  0  0  0  0  0  0  0  0  0  0
    4.8395    4.1948   -0.7990 C   0  0  0  0  0  0  0  0  0  0  0  0
    5.4316    2.9699   -1.1797 C   0  0  0  0  0  0  0  0  0  0  0  0
    2.8383    0.5356    0.1378 C   0  0  0  0  0  0  0  0  0  0  0  0
    6.8029    4.6672   -1.9136 C   0  0  0  0  0  0  0  0  0  0  0  0
    7.8078    5.2169   -2.4815 N   0  0  0  0  0  0  0  0  0  0  0  0
    5.6864    5.1987   -1.2457 N   0  0  0  0  0  0  0  0  0  0  0  0
    6.6081    3.2898   -1.8437 N   0  0  0  0  0  0  0  0  0  0  0  0
    1.6204    0.5803    0.2867 O   0  0  0  0  0  0  0  0  0  0  0  0
    5.1609   -4.2906    0.7689 H   0  0  0  0  0  0  0  0  0  0  0  0
    6.4217   -2.2423    1.3951 H   0  0  0  0  0  0  0  0  0  0  0  0
    2.8523   -4.0958   -0.1341 H   0  0  0  0  0  0  0  0  0  0  0  0
    5.3978   -0.0126    1.0873 H   0  0  0  0  0  0  0  0  0  0  0  0
    1.8141   -1.8450   -0.4020 H   0  0  0  0  0  0  0  0  0  0  0  0
    2.0566    2.9824    0.6781 H   0  0  0  0  0  0  0  0  0  0  0  0
    3.1666    5.1675    0.1679 H   0  0  0  0  0  0  0  0  0  0  0  0
    5.2811    0.8224   -1.1895 H   0  0  0  0  0  0  0  0  0  0  0  0
    7.7632    6.2337   -2.4227 H   0  0  0  0  0  0  0  0  0  0  0  0
    5.5361    6.1887   -1.1317 H   0  0  0  0  0  0  0  0  0  0  0  0
    7.2600    2.6512   -2.2714 H   0  0  0  0  0  0  0  0  0  0  0  0
  1 19  1  0  0  0  0
  1  2  2  0  0  0  0
  2 20  1  0  0  0  0
  3  1  1  0  0  0  0
  4  2  1  0  0  0  0
  4 22  1  0  0  0  0
  5  3  2  0  0  0  0
  5  9  1  0  0  0  0
  6 24  1  0  0  0  0
  7 25  1  0  0  0  0
  7  6  1  0  0  0  0
  8 10  1  0  0  0  0
  9  4  2  0  0  0  0
 10 13  1  0  0  0  0
 10  6  2  0  0  0  0
 11  7  2  0  0  0  0
 12  8  2  0  0  0  0
 12 11  1  0  0  0  0
 13  9  1  0  0  0  0
 13 18  2  0  0  0  0
 14 17  1  0  0  0  0
 14 16  1  0  0  0  0
 15 27  1  0  0  0  0
 15 14  2  0  0  0  0
 16 28  1  0  0  0  0
 16 11  1  0  0  0  0
 17 12  1  0  0  0  0
 21  3  1  0  0  0  0
 23  5  1  0  0  0  0
 26  8  1  0  0  0  0
 29 17  1  0  0  0  0
M  END
>  <HBA>
3

>  <HBD>
2

>  <TPSA>
71.77

>  <cid>
40320

>  <dipole>
1.86

>  <excitation_energy_1>
3.333

>  <excitation_energy_2>
3.648

>  <excitation_energy_3>
4.252

>  <excitation_energy_4>
4.491

>  <homo_energy>
-5.391

>  <homo_lumo_gap>
3.829

>  <logP>
2.957

>  <lumo_energy>
-1.562

>  <melting_point>
222.03

>  <molecular_refractivity>
70.37

>  <oscillator_strength_1>
0.1228

>  <oscillator_strength_2>
0.0192

>  <oscillator_strength_3>
0.01

>  <oscillator_strength_4>
0.002

>  <open_babel_can_smiles>
O=C(c1ccc2c(c1)[nH]c(=N)[nH]2)c1ccccc1

>  <mulliken_charges>
29
1   -0.120259
2   -0.137349
3   -0.135423
4   -0.177533
5   -0.15076
6   -0.176625
7   -0.186604
8   -0.244722
9   0.072137
10   0.060099
11   0.371301
12   0.36547
13   0.315983
14   0.699923
15   -0.672151
16   -0.772782
17   -0.74975
18   -0.472878
19   0.135747
20   0.134756
21   0.136935
22   0.14709
23   0.157879
24   0.159907
25   0.136756
26   0.151696
27   0.275453
28   0.3333
29   0.342404

>  <lowdin_charges>
29
1   -0.143987
2   -0.15763
3   -0.156215
4   -0.155935
5   -0.129537
6   -0.137064
7   -0.189602
8   -0.187754
9   -0.040535
10   -0.051894
11   0.046113
12   0.036653
13   0.151479
14   0.135368
15   -0.474685
16   -0.244874
17   -0.234201
18   -0.253641
19   0.160286
20   0.159038
21   0.161765
22   0.166144
23   0.172868
24   0.176699
25   0.163747
26   0.171188
27   0.254631
28   0.295449
29   0.306125

$$$$

