PCCDB-ID:  3778
public computational chemistry database (PCCDB) project, http://pccdb.org

 35 36  0  0  0  0  0  0  0  0999 V2000
    3.1937   -0.9652   -0.5532 C   0  0  0  0  0  0  0  0  0  0  0  0
    0.8497   -0.7185    0.3969 C   0  0  0  0  0  0  0  0  0  0  0  0
    2.6948    3.1968    0.6089 C   0  0  0  0  0  0  0  0  0  0  0  0
    3.0712    3.2993    3.5837 C   0  0  0  0  0  0  0  0  0  0  0  0
    6.4238    0.3176    6.4594 C   0  0  0  0  0  0  0  0  0  0  0  0
    6.6039    1.3734    5.5657 C   0  0  0  0  0  0  0  0  0  0  0  0
    5.3188   -0.5239    6.3113 C   0  0  0  0  0  0  0  0  0  0  0  0
    5.6933    1.5872    4.5322 C   0  0  0  0  0  0  0  0  0  0  0  0
    4.3883   -0.3131    5.2946 C   0  0  0  0  0  0  0  0  0  0  0  0
    2.1673    0.0083    0.0608 C   0  0  0  0  0  0  0  0  0  0  0  0
    2.9830    2.0179    1.4856 C   0  0  0  0  0  0  0  0  0  0  0  0
    4.5776    0.7487    4.3980 C   0  0  0  0  0  0  0  0  0  0  0  0
    2.7300    0.6982    1.2784 C   0  0  0  0  0  0  0  0  0  0  0  0
    3.1552   -0.0254    2.4797 C   0  0  0  0  0  0  0  0  0  0  0  0
    3.6065    2.2319    2.7242 N   0  0  0  0  0  0  0  0  0  0  0  0
    3.6329    0.9710    3.3636 N   0  0  0  0  0  0  0  0  0  0  0  0
    3.1563   -1.2274    2.7249 O   0  0  0  0  0  0  0  0  0  0  0  0
    2.7744   -1.4544   -1.4404 H   0  0  0  0  0  0  0  0  0  0  0  0
    3.4675   -1.7380    0.1715 H   0  0  0  0  0  0  0  0  0  0  0  0
    4.1068   -0.4387   -0.8535 H   0  0  0  0  0  0  0  0  0  0  0  0
    0.4432   -1.2071   -0.4966 H   0  0  0  0  0  0  0  0  0  0  0  0
    0.0957   -0.0188    0.7755 H   0  0  0  0  0  0  0  0  0  0  0  0
    1.0220   -1.4826    1.1608 H   0  0  0  0  0  0  0  0  0  0  0  0
    2.4205    2.8641   -0.3942 H   0  0  0  0  0  0  0  0  0  0  0  0
    3.5710    3.8498    0.5249 H   0  0  0  0  0  0  0  0  0  0  0  0
    1.8649    3.8024    0.9952 H   0  0  0  0  0  0  0  0  0  0  0  0
    3.1533    4.2484    3.0502 H   0  0  0  0  0  0  0  0  0  0  0  0
    3.6756    3.3595    4.4899 H   0  0  0  0  0  0  0  0  0  0  0  0
    2.0232    3.1163    3.8585 H   0  0  0  0  0  0  0  0  0  0  0  0
    7.1381    0.1507    7.2607 H   0  0  0  0  0  0  0  0  0  0  0  0
    7.4641    2.0311    5.6601 H   0  0  0  0  0  0  0  0  0  0  0  0
    5.1710   -1.3515    7.0000 H   0  0  0  0  0  0  0  0  0  0  0  0
    5.8491    2.3848    3.8141 H   0  0  0  0  0  0  0  0  0  0  0  0
    3.5332   -0.9660    5.1764 H   0  0  0  0  0  0  0  0  0  0  0  0
    1.9426    0.7778   -0.6906 H   0  0  0  0  0  0  0  0  0  0  0  0
  1 10  1  0  0  0  0
  1 19  1  0  0  0  0
  2 22  1  0  0  0  0
  2 23  1  0  0  0  0
  3 26  1  0  0  0  0
  3 11  1  0  0  0  0
  4 29  1  0  0  0  0
  4 28  1  0  0  0  0
  5 30  1  0  0  0  0
  6 31  1  0  0  0  0
  6  5  2  0  0  0  0
  7  5  1  0  0  0  0
  7 32  1  0  0  0  0
  8  6  1  0  0  0  0
  9  7  2  0  0  0  0
 10  2  1  0  0  0  0
 10 13  1  0  0  0  0
 11 15  1  0  0  0  0
 12  8  2  0  0  0  0
 12  9  1  0  0  0  0
 13 11  2  0  0  0  0
 13 14  1  0  0  0  0
 14 17  2  0  0  0  0
 14 16  1  0  0  0  0
 15 16  1  0  0  0  0
 15  4  1  0  0  0  0
 16 12  1  0  0  0  0
 18  1  1  0  0  0  0
 20  1  1  0  0  0  0
 21  2  1  0  0  0  0
 24  3  1  0  0  0  0
 25  3  1  0  0  0  0
 27  4  1  0  0  0  0
 33  8  1  0  0  0  0
 34  9  1  0  0  0  0
 35 10  1  0  0  0  0
M  END
>  <HBA>
3

>  <HBD>
0

>  <TPSA>
26.93

>  <cid>
3778

>  <dipole>
4.66

>  <excitation_energy_1>
4.473

>  <excitation_energy_2>
4.687

>  <excitation_energy_3>
4.747

>  <excitation_energy_4>
4.894

>  <homo_energy>
-5.587

>  <homo_lumo_gap>
5.053

>  <logP>
2.608

>  <lumo_energy>
-0.533

>  <melting_point>
84.69

>  <molecular_refractivity>
70.84

>  <oscillator_strength_1>
0.1856

>  <oscillator_strength_2>
0.0478

>  <oscillator_strength_3>
0.0077

>  <oscillator_strength_4>
0.0206

>  <open_babel_can_smiles>
CC(c1c(C)n(n(c1=O)c1ccccc1)C)C

>  <mulliken_charges>
35
1   -0.450088
2   -0.449822
3   -0.537137
4   -0.315938
5   -0.123736
6   -0.142481
7   -0.146339
8   -0.162943
9   -0.141757
10   -0.151478
11   0.299312
12   0.285269
13   -0.00481
14   0.574686
15   -0.32986
16   -0.430357
17   -0.545255
18   0.135467
19   0.182677
20   0.13664
21   0.136908
22   0.134372
23   0.180293
24   0.181346
25   0.17528
26   0.172913
27   0.168991
28   0.183298
29   0.163358
30   0.127523
31   0.129362
32   0.133699
33   0.144918
34   0.166756
35   0.118934

>  <lowdin_charges>
35
1   -0.448254
2   -0.447908
3   -0.44695
4   -0.355408
5   -0.167488
6   -0.153562
7   -0.149598
8   -0.187548
9   -0.162502
10   -0.11071
11   0.04163
12   0.049125
13   -0.08895
14   0.14318
15   -0.049436
16   -0.030241
17   -0.31314
18   0.1466
19   0.168179
20   0.146855
21   0.147267
22   0.146302
23   0.166835
24   0.173179
25   0.169181
26   0.167756
27   0.163542
28   0.170689
29   0.148606
30   0.158182
31   0.158142
32   0.160545
33   0.166475
34   0.180772
35   0.138652

$$$$

