PCCDB-ID:  31354
public computational chemistry database (PCCDB) project, http://pccdb.org

 26 25  0  0  0  0  0  0  0  0999 V2000
    2.0984    1.3708   -3.4470 C   0  0  0  0  0  0  0  0  0  0  0  0
    5.8318    3.9650    0.1529 C   0  0  0  0  0  0  0  0  0  0  0  0
    3.4673    1.2726    3.0058 C   0  0  0  0  0  0  0  0  0  0  0  0
    2.5071    0.1796   -2.5957 C   0  0  0  0  0  0  0  0  0  0  0  0
    5.3034    3.5732   -1.2183 C   0  0  0  0  0  0  0  0  0  0  0  0
    3.1165    1.4060    1.5361 C   0  0  0  0  0  0  0  0  0  0  0  0
    2.8512    0.5707   -1.2424 O   0  0  0  0  0  0  0  0  0  0  0  0
    4.1607    2.6837   -1.1329 O   0  0  0  0  0  0  0  0  0  0  0  0
    4.2606    0.9452    0.7683 O   0  0  0  0  0  0  0  0  0  0  0  0
    4.3201    1.0942   -0.8328 P   0  0  0  0  0  0  0  0  0  0  0  0
    5.8625    0.2243   -1.6209 S   0  0  0  0  0  0  0  0  0  0  0  0
    1.7702    1.0205   -4.4326 H   0  0  0  0  0  0  0  0  0  0  0  0
    2.9324    2.0641   -3.5878 H   0  0  0  0  0  0  0  0  0  0  0  0
    1.2723    1.9163   -2.9799 H   0  0  0  0  0  0  0  0  0  0  0  0
    6.6413    4.6955    0.0399 H   0  0  0  0  0  0  0  0  0  0  0  0
    6.2284    3.0968    0.6878 H   0  0  0  0  0  0  0  0  0  0  0  0
    5.0417    4.4205    0.7592 H   0  0  0  0  0  0  0  0  0  0  0  0
    2.6174    1.5900    3.6206 H   0  0  0  0  0  0  0  0  0  0  0  0
    4.3312    1.8948    3.2592 H   0  0  0  0  0  0  0  0  0  0  0  0
    3.7057    0.2335    3.2529 H   0  0  0  0  0  0  0  0  0  0  0  0
    3.3547   -0.3594   -3.0312 H   0  0  0  0  0  0  0  0  0  0  0  0
    1.6774   -0.5212   -2.4709 H   0  0  0  0  0  0  0  0  0  0  0  0
    6.0792    3.0923   -1.8224 H   0  0  0  0  0  0  0  0  0  0  0  0
    4.9263    4.4445   -1.7605 H   0  0  0  0  0  0  0  0  0  0  0  0
    2.9018    2.4456    1.2659 H   0  0  0  0  0  0  0  0  0  0  0  0
    2.2523    0.7907    1.2693 H   0  0  0  0  0  0  0  0  0  0  0  0
  1 14  1  0  0  0  0
  1  4  1  0  0  0  0
  2 16  1  0  0  0  0
  2 17  1  0  0  0  0
  3 20  1  0  0  0  0
  3 19  1  0  0  0  0
  3 18  1  0  0  0  0
  4 22  1  0  0  0  0
  4  7  1  0  0  0  0
  5  8  1  0  0  0  0
  5  2  1  0  0  0  0
  6  3  1  0  0  0  0
  7 10  1  0  0  0  0
  8 10  1  0  0  0  0
  9  6  1  0  0  0  0
 10  9  1  0  0  0  0
 11 10  1  0  0  0  0
 12  1  1  0  0  0  0
 13  1  1  0  0  0  0
 15  2  1  0  0  0  0
 21  4  1  0  0  0  0
 23  5  1  0  0  0  0
 24  5  1  0  0  0  0
 25  6  1  0  0  0  0
 26  6  1  0  0  0  0
M  RAD  1  11   2
M  END
>  <HBA>
4

>  <HBD>
0

>  <TPSA>
69.59

>  <cid>
31354

>  <dipole>
4.0

>  <excitation_energy_1>
5.851

>  <excitation_energy_2>
5.96

>  <excitation_energy_3>
6.212

>  <excitation_energy_4>
6.276

>  <homo_energy>
-6.365

>  <homo_lumo_gap>
7.66

>  <logP>
2.971

>  <lumo_energy>
1.295

>  <melting_point>
-37.0

>  <molecular_refractivity>
49.78

>  <oscillator_strength_1>
0.04

>  <oscillator_strength_2>
0.0431

>  <oscillator_strength_3>
0.0077

>  <oscillator_strength_4>
0.0011

>  <open_babel_can_smiles>
CCOP(OCC)(OCC)[S]

>  <mulliken_charges>
26
1   -0.454181
2   -0.4665
3   -0.457655
4   -0.045676
5   -0.05005
6   -0.037227
7   -0.526157
8   -0.535647
9   -0.511852
10   1.040372
11   -0.415244
12   0.150326
13   0.173374
14   0.160708
15   0.153711
16   0.183608
17   0.15516
18   0.149606
19   0.163279
20   0.170735
21   0.179906
22   0.158695
23   0.181031
24   0.156162
25   0.15689
26   0.166627

>  <lowdin_charges>
26
1   -0.45529
2   -0.459799
3   -0.447471
4   -0.117818
5   -0.12302
6   -0.116339
7   -0.397285
8   -0.409838
9   -0.39366
10   0.92589
11   -0.40053
12   0.158531
13   0.164945
14   0.159676
15   0.161356
16   0.169209
17   0.155948
18   0.159079
19   0.160179
20   0.16272
21   0.164876
22   0.155512
23   0.164734
24   0.154272
25   0.148376
26   0.155745

$$$$

