PCCDB-ID:  53662
public computational chemistry database (PCCDB) project, http://pccdb.org

 22 22  0  0  1  0  0  0  0  0999 V2000
   -1.5349    0.6393    0.1938 C   0  0  0  0  0  0  0  0  0  0  0  0
   -0.3744    1.4435   -0.4193 C   0  0  0  0  0  0  0  0  0  0  0  0
    1.6780   -0.0738    0.2942 C   0  0  0  0  0  0  0  0  0  0  0  0
   -1.5546   -0.8516   -0.1687 C   0  0  0  0  0  0  0  0  0  0  0  0
    0.9486   -1.2234   -0.4135 C   0  0  0  0  0  0  0  0  0  0  0  0
    0.9996    1.3305    0.2800 C   0  0  2  0  0  0  0  0  0  0  0  0
   -0.4331   -2.4236    1.2197 N   0  0  0  0  0  0  0  0  0  0  0  0
   -0.3345   -1.5481    0.2074 N   0  0  0  0  0  0  0  0  0  0  0  0
    0.9421    1.8835    1.5969 O   0  0  0  0  0  0  0  0  0  0  0  0
    0.6272   -2.9340    1.5756 O   0  0  0  0  0  0  0  0  0  0  0  0
   -2.4850    1.0704   -0.1468 H   0  0  0  0  0  0  0  0  0  0  0  0
   -1.5289    0.7472    1.2868 H   0  0  0  0  0  0  0  0  0  0  0  0
   -0.6359    2.5071   -0.3862 H   0  0  0  0  0  0  0  0  0  0  0  0
   -0.2663    1.1869   -1.4833 H   0  0  0  0  0  0  0  0  0  0  0  0
    2.6807    0.0058   -0.1438 H   0  0  0  0  0  0  0  0  0  0  0  0
    1.8346   -0.3728    1.3365 H   0  0  0  0  0  0  0  0  0  0  0  0
   -1.7054   -0.9700   -1.2509 H   0  0  0  0  0  0  0  0  0  0  0  0
   -2.3703   -1.3671    0.3458 H   0  0  0  0  0  0  0  0  0  0  0  0
    1.5597   -2.1281   -0.3557 H   0  0  0  0  0  0  0  0  0  0  0  0
    0.7567   -0.9980   -1.4677 H   0  0  0  0  0  0  0  0  0  0  0  0
    1.6631    2.0199   -0.2533 H   0  0  0  0  0  0  0  0  0  0  0  0
    0.4820    1.2476    2.1671 H   0  0  0  0  0  0  0  0  0  0  0  0
  1 12  1  0  0  0  0
  2 13  1  0  0  0  0
  2  1  1  0  0  0  0
  2  6  1  0  0  0  0
  3 16  1  0  0  0  0
  4  1  1  0  0  0  0
  4  8  1  0  0  0  0
  4 18  1  0  0  0  0
  5 19  1  0  0  0  0
  5  8  1  0  0  0  0
  5  3  1  0  0  0  0
  6 21  1  6  0  0  0
  6  3  1  0  0  0  0
  6  9  1  0  0  0  0
  7 10  2  0  0  0  0
  8  7  1  0  0  0  0
  9 22  1  0  0  0  0
 11  1  1  0  0  0  0
 14  2  1  0  0  0  0
 15  3  1  0  0  0  0
 17  4  1  0  0  0  0
 20  5  1  0  0  0  0
M  END
>  <HBA>
4

>  <HBD>
1

>  <TPSA>
52.9

>  <cid>
53662

>  <dipole>
3.72

>  <excitation_energy_1>
3.369

>  <excitation_energy_2>
5.589

>  <excitation_energy_3>
5.69

>  <excitation_energy_4>
5.745

>  <homo_energy>
-6.114

>  <homo_lumo_gap>
5.219

>  <logP>
0.453

>  <lumo_energy>
-0.895

>  <melting_point>
36.32

>  <molecular_refractivity>
41.55

>  <oscillator_strength_1>
0.0011

>  <oscillator_strength_2>
0.0371

>  <oscillator_strength_3>
0.0673

>  <oscillator_strength_4>
0.0666

>  <open_babel_can_smiles>
O=NN1CCC[C@H](CC1)O

>  <mulliken_charges>
22
1   -0.271284
2   -0.281621
3   -0.30637
4   -0.142143
5   -0.162799
6   0.144418
7   0.146012
8   -0.212886
9   -0.626001
10   -0.384048
11   0.149586
12   0.138032
13   0.157102
14   0.12722
15   0.152746
16   0.170282
17   0.151247
18   0.177671
19   0.189245
20   0.15263
21   0.142122
22   0.38884

>  <lowdin_charges>
22
1   -0.285283
2   -0.297097
3   -0.302047
4   -0.202622
5   -0.21954
6   -0.005632
7   0.049745
8   -0.044913
9   -0.464046
10   -0.27791
11   0.156596
12   0.141343
13   0.158596
14   0.139714
15   0.158201
16   0.162229
17   0.145398
18   0.169882
19   0.176639
20   0.151063
21   0.150135
22   0.339548

$$$$

