PCCDB-ID:  47255
public computational chemistry database (PCCDB) project, http://pccdb.org

 33 34  0  0  1  0  0  0  0  0999 V2000
    1.2626    0.6032    0.9517 C   0  0  0  0  0  0  0  0  0  0  0  0
    2.9351    1.7054   -3.4276 C   0  0  0  0  0  0  0  0  0  0  0  0
    0.8441    2.1531   -2.1657 C   0  0  0  0  0  0  0  0  0  0  0  0
    3.5059    2.0138   -0.5474 C   0  0  0  0  0  0  0  0  0  0  0  0
    2.7078   -1.9824   -1.6328 C   0  0  0  0  0  0  0  0  0  0  0  0
    2.5327   -1.3176   -3.0299 C   0  0  0  0  0  0  0  0  0  0  0  0
    0.5671   -0.9001   -1.7422 C   0  0  0  0  0  0  0  0  0  0  0  0
    2.2379   -0.0220   -0.0718 C   0  0  1  0  0  0  0  0  0  0  0  0
    1.6564   -1.2904   -0.7298 C   0  0  2  0  0  0  0  0  0  0  0  0
    1.4334   -0.2393   -2.8298 C   0  0  1  0  0  0  0  0  0  0  0  0
    1.9994    1.1300   -2.3382 C   0  0  0  0  0  0  0  0  0  0  0  0
    2.7840    0.8820   -1.1029 N   0  0  0  0  0  0  0  0  0  0  0  0
    1.0667   -0.1112    1.7610 H   0  0  0  0  0  0  0  0  0  0  0  0
    0.2989    0.8792    0.5135 H   0  0  0  0  0  0  0  0  0  0  0  0
    1.6901    1.5027    1.4070 H   0  0  0  0  0  0  0  0  0  0  0  0
    2.4472    1.6429   -4.4071 H   0  0  0  0  0  0  0  0  0  0  0  0
    3.8807    1.1591   -3.4771 H   0  0  0  0  0  0  0  0  0  0  0  0
    3.1641    2.7615   -3.2505 H   0  0  0  0  0  0  0  0  0  0  0  0
    0.3440    2.3295   -3.1261 H   0  0  0  0  0  0  0  0  0  0  0  0
    1.2321    3.1173   -1.8189 H   0  0  0  0  0  0  0  0  0  0  0  0
    0.0844    1.8270   -1.4522 H   0  0  0  0  0  0  0  0  0  0  0  0
    4.1484    1.6556    0.2659 H   0  0  0  0  0  0  0  0  0  0  0  0
    2.8726    2.8190   -0.1328 H   0  0  0  0  0  0  0  0  0  0  0  0
    4.1592    2.4627   -1.3012 H   0  0  0  0  0  0  0  0  0  0  0  0
    3.7216   -1.8517   -1.2410 H   0  0  0  0  0  0  0  0  0  0  0  0
    2.5133   -3.0603   -1.6833 H   0  0  0  0  0  0  0  0  0  0  0  0
    2.1843   -2.0516   -3.7664 H   0  0  0  0  0  0  0  0  0  0  0  0
    3.4704   -0.9068   -3.4095 H   0  0  0  0  0  0  0  0  0  0  0  0
   -0.2163   -0.2576   -1.3324 H   0  0  0  0  0  0  0  0  0  0  0  0
    0.0743   -1.7959   -2.1426 H   0  0  0  0  0  0  0  0  0  0  0  0
    3.1161   -0.3444    0.5100 H   0  0  0  0  0  0  0  0  0  0  0  0
    1.2886   -1.9542    0.0613 H   0  0  0  0  0  0  0  0  0  0  0  0
    0.8740   -0.0529   -3.7542 H   0  0  0  0  0  0  0  0  0  0  0  0
  1 15  1  0  0  0  0
  1 13  1  0  0  0  0
  2 18  1  0  0  0  0
  2 11  1  0  0  0  0
  3 20  1  0  0  0  0
  3 21  1  0  0  0  0
  4 23  1  0  0  0  0
  4 22  1  0  0  0  0
  5 25  1  0  0  0  0
  5  9  1  0  0  0  0
  6 10  1  0  0  0  0
  6  5  1  0  0  0  0
  7 29  1  0  0  0  0
  7  9  1  0  0  0  0
  8 31  1  1  0  0  0
  8  1  1  0  0  0  0
  9  8  1  0  0  0  0
  9 32  1  1  0  0  0
 10 33  1  6  0  0  0
 10 11  1  0  0  0  0
 10  7  1  0  0  0  0
 11  3  1  0  0  0  0
 11 12  1  0  0  0  0
 12  4  1  0  0  0  0
 12  8  1  0  0  0  0
 14  1  1  0  0  0  0
 16  2  1  0  0  0  0
 17  2  1  0  0  0  0
 19  3  1  0  0  0  0
 24  4  1  0  0  0  0
 26  5  1  0  0  0  0
 27  6  1  0  0  0  0
 28  6  1  0  0  0  0
 30  7  1  0  0  0  0
M  END
>  <HBA>
1

>  <HBD>
0

>  <TPSA>
3.24

>  <cid>
47255

>  <dipole>
0.32

>  <excitation_energy_1>
4.702

>  <excitation_energy_2>
5.005

>  <excitation_energy_3>
5.112

>  <excitation_energy_4>
5.22

>  <homo_energy>
-5.206

>  <homo_lumo_gap>
7.195

>  <logP>
2.453

>  <lumo_energy>
1.989

>  <melting_point>
28.93

>  <molecular_refractivity>
57.61

>  <oscillator_strength_1>
0.0061

>  <oscillator_strength_2>
0.0038

>  <oscillator_strength_3>
0.0115

>  <oscillator_strength_4>
0.0071

>  <open_babel_can_smiles>
C[C@H]1[C@@H]2CC[C@@H](C2)C(N1C)(C)C

>  <mulliken_charges>
33
1   -0.461715
2   -0.466415
3   -0.461167
4   -0.304075
5   -0.262911
6   -0.267702
7   -0.28452
8   0.062078
9   -0.104164
10   -0.105901
11   0.246723
12   -0.419011
13   0.13682
14   0.144441
15   0.144512
16   0.13919
17   0.154672
18   0.140647
19   0.135644
20   0.140679
21   0.143555
22   0.141999
23   0.123473
24   0.149172
25   0.136815
26   0.126128
27   0.126859
28   0.139267
29   0.132201
30   0.129385
31   0.119867
32   0.112854
33   0.110598

>  <lowdin_charges>
33
1   -0.466249
2   -0.447536
3   -0.461726
4   -0.361008
5   -0.280591
6   -0.285562
7   -0.288429
8   -0.058705
9   -0.137274
10   -0.134772
11   0.072536
12   -0.194057
13   0.149525
14   0.146519
15   0.151527
16   0.149993
17   0.153723
18   0.146051
19   0.148085
20   0.148663
21   0.148616
22   0.14854
23   0.122045
24   0.151463
25   0.146055
26   0.138278
27   0.141933
28   0.148929
29   0.143638
30   0.143443
31   0.135946
32   0.141289
33   0.139112

$$$$

