PCCDB-ID:  20853
public computational chemistry database (PCCDB) project, http://pccdb.org

 26 27  0  0  0  0  0  0  0  0999 V2000
    2.4785    0.8376   -0.0270 C   0  0  0  0  0  0  0  0  0  0  0  0
    2.4949   -0.5747    0.0495 C   0  0  0  0  0  0  0  0  0  0  0  0
   -2.3824    0.7971   -0.0260 C   0  0  0  0  0  0  0  0  0  0  0  0
    1.2772    1.5073   -0.0623 C   0  0  0  0  0  0  0  0  0  0  0  0
   -1.1985    1.4937   -0.0598 C   0  0  0  0  0  0  0  0  0  0  0  0
   -2.3721   -0.6150    0.0532 C   0  0  0  0  0  0  0  0  0  0  0  0
    1.3160   -1.2862    0.0930 C   0  0  0  0  0  0  0  0  0  0  0  0
   -1.2451   -2.8456    0.2285 C   0  0  0  0  0  0  0  0  0  0  0  0
   -1.0453   -3.3445    1.6710 C   0  0  0  0  0  0  0  0  0  0  0  0
    0.0429    0.8045   -0.0200 C   0  0  0  0  0  0  0  0  0  0  0  0
   -1.1950   -1.3375    0.1021 C   0  0  0  0  0  0  0  0  0  0  0  0
    0.0534   -0.6294    0.0622 C   0  0  0  0  0  0  0  0  0  0  0  0
   -1.0330   -4.8113    1.7000 N   0  0  0  0  0  0  0  0  0  0  0  0
    3.4144    1.3889   -0.0610 H   0  0  0  0  0  0  0  0  0  0  0  0
    3.4450   -1.1018    0.0731 H   0  0  0  0  0  0  0  0  0  0  0  0
   -3.3317    1.3248   -0.0615 H   0  0  0  0  0  0  0  0  0  0  0  0
    1.2534    2.5929   -0.1248 H   0  0  0  0  0  0  0  0  0  0  0  0
   -1.1936    2.5794   -0.1211 H   0  0  0  0  0  0  0  0  0  0  0  0
   -3.3200   -1.1485    0.0750 H   0  0  0  0  0  0  0  0  0  0  0  0
    1.3527   -2.3692    0.1485 H   0  0  0  0  0  0  0  0  0  0  0  0
   -2.2216   -3.1983   -0.1296 H   0  0  0  0  0  0  0  0  0  0  0  0
   -0.4949   -3.3284   -0.4075 H   0  0  0  0  0  0  0  0  0  0  0  0
   -1.8158   -2.8817    2.3135 H   0  0  0  0  0  0  0  0  0  0  0  0
   -0.0769   -2.9947    2.0472 H   0  0  0  0  0  0  0  0  0  0  0  0
   -1.9589   -5.1650    1.4593 H   0  0  0  0  0  0  0  0  0  0  0  0
   -0.8490   -5.1350    2.6484 H   0  0  0  0  0  0  0  0  0  0  0  0
  1  2  1  0  0  0  0
  2 15  1  0  0  0  0
  2  7  2  0  0  0  0
  3  6  1  0  0  0  0
  4  1  2  0  0  0  0
  4 10  1  0  0  0  0
  5  3  2  0  0  0  0
  5 10  1  0  0  0  0
  6 19  1  0  0  0  0
  6 11  2  0  0  0  0
  7 20  1  0  0  0  0
  8  9  1  0  0  0  0
  9 13  1  0  0  0  0
  9 24  1  0  0  0  0
  9 23  1  0  0  0  0
 10 12  2  0  0  0  0
 11  8  1  0  0  0  0
 12  7  1  0  0  0  0
 12 11  1  0  0  0  0
 13 26  1  0  0  0  0
 14  1  1  0  0  0  0
 16  3  1  0  0  0  0
 17  4  1  0  0  0  0
 18  5  1  0  0  0  0
 21  8  1  0  0  0  0
 22  8  1  0  0  0  0
 25 13  1  0  0  0  0
M  END
>  <HBA>
1

>  <HBD>
1

>  <TPSA>
26.02

>  <cid>
20853

>  <dipole>
1.37

>  <excitation_energy_1>
4.267

>  <excitation_energy_2>
4.405

>  <excitation_energy_3>
4.879

>  <excitation_energy_4>
5.289

>  <homo_energy>
-5.66

>  <homo_lumo_gap>
4.738

>  <logP>
3.041

>  <lumo_energy>
-0.922

>  <melting_point>
106.07

>  <molecular_refractivity>
56.43

>  <oscillator_strength_1>
0.0924

>  <oscillator_strength_2>
0.0004

>  <oscillator_strength_3>
0.0017

>  <oscillator_strength_4>
0.0071

>  <open_babel_can_smiles>
NCCc1cccc2c1cccc2

>  <mulliken_charges>
26
1   -0.132716
2   -0.136615
3   -0.129051
4   -0.195214
5   -0.193985
6   -0.203152
7   -0.201646
8   -0.344909
9   -0.134438
10   0.140448
11   0.118745
12   0.074656
13   -0.715935
14   0.128482
15   0.128916
16   0.127495
17   0.1281
18   0.126975
19   0.119638
20   0.141617
21   0.134882
22   0.160543
23   0.119384
24   0.148587
25   0.292062
26   0.29713

>  <lowdin_charges>
26
1   -0.16014
2   -0.158703
3   -0.15946
4   -0.153965
5   -0.157857
6   -0.171327
7   -0.16053
8   -0.280272
9   -0.205521
10   0.000865
11   -0.001402
12   -0.008253
13   -0.557589
14   0.158124
15   0.158071
16   0.157663
17   0.154536
18   0.154385
19   0.153432
20   0.161595
21   0.145854
22   0.158293
23   0.122108
24   0.145614
25   0.250039
26   0.254439

$$$$

