PCCDB-ID:  61020
public computational chemistry database (PCCDB) project, http://pccdb.org

 14 13  0  0  0  0  0  0  0  0999 V2000
    0.9945    0.1605   -0.1039 C   0  0  0  0  0  0  0  0  0  0  0  0
    3.0833   -1.0664   -0.8515 C   0  0  0  0  0  0  0  0  0  0  0  0
    3.2134    0.9922    0.6291 C   0  0  0  0  0  0  0  0  0  0  0  0
    4.6731    1.0475    0.7593 C   0  0  0  0  0  0  0  0  0  0  0  0
    2.4988    0.0812   -0.0670 C   0  0  0  0  0  0  0  0  0  0  0  0
    5.2524    1.9066    1.4038 O   0  0  0  0  0  0  0  0  0  0  0  0
    0.5480   -0.7590    0.2991 H   0  0  0  0  0  0  0  0  0  0  0  0
    0.6362    0.2512   -1.1384 H   0  0  0  0  0  0  0  0  0  0  0  0
    0.6127    1.0095    0.4696 H   0  0  0  0  0  0  0  0  0  0  0  0
    2.6867   -2.0192   -0.4761 H   0  0  0  0  0  0  0  0  0  0  0  0
    4.1724   -1.1174   -0.8193 H   0  0  0  0  0  0  0  0  0  0  0  0
    2.7768   -0.9973   -1.9038 H   0  0  0  0  0  0  0  0  0  0  0  0
    2.6935    1.7853    1.1636 H   0  0  0  0  0  0  0  0  0  0  0  0
    5.2561    0.2598    0.2380 H   0  0  0  0  0  0  0  0  0  0  0  0
  1  5  1  0  0  0  0
  1  7  1  0  0  0  0
  1  9  1  0  0  0  0
  2 11  1  0  0  0  0
  2 10  1  0  0  0  0
  2  5  1  0  0  0  0
  3  4  1  0  0  0  0
  3 13  1  0  0  0  0
  4  6  2  0  0  0  0
  5  3  2  0  0  0  0
  8  1  1  0  0  0  0
 12  2  1  0  0  0  0
 14  4  1  0  0  0  0
M  END
>  <HBA>
1

>  <HBD>
0

>  <TPSA>
17.07

>  <cid>
61020

>  <dipole>
4.21

>  <excitation_energy_1>
3.625

>  <excitation_energy_2>
5.642

>  <excitation_energy_3>
6.345

>  <excitation_energy_4>
6.603

>  <homo_energy>
-6.607

>  <homo_lumo_gap>
5.184

>  <logP>
1.151

>  <lumo_energy>
-1.423

>  <melting_point>
19.04

>  <molecular_refractivity>
25.88

>  <oscillator_strength_1>
0.0003

>  <oscillator_strength_2>
0.47

>  <oscillator_strength_3>
0.062

>  <oscillator_strength_4>
0.0

>  <open_babel_can_smiles>
O=CC=C(C)C

>  <mulliken_charges>
14
1   -0.511603
2   -0.518164
3   -0.223574
4   0.23255
5   0.198498
6   -0.420363
7   0.1653
8   0.164985
9   0.168376
10   0.167759
11   0.16944
12   0.167806
13   0.141205
14   0.097785

>  <lowdin_charges>
14
1   -0.440768
2   -0.443688
3   -0.227059
4   0.037272
5   0.047692
6   -0.237704
7   0.164104
8   0.16262
9   0.164218
10   0.165742
11   0.160331
12   0.164533
13   0.16654
14   0.116166

$$$$

