PCCDB-ID:  44344
public computational chemistry database (PCCDB) project, http://pccdb.org

 29 30  0  0  0  0  0  0  0  0999 V2000
    1.7502    0.3832   -0.5915 C   0  0  0  0  0  0  0  0  0  0  0  0
    3.8368    2.8890    2.1064 C   0  0  0  0  0  0  0  0  0  0  0  0
    4.7311    0.9185    3.1406 C   0  0  0  0  0  0  0  0  0  0  0  0
    5.5809    2.7775    5.3926 C   0  0  0  0  0  0  0  0  0  0  0  0
    3.1268    2.1036    1.1954 C   0  0  0  0  0  0  0  0  0  0  0  0
    4.0282    0.1230    2.2471 C   0  0  0  0  0  0  0  0  0  0  0  0
    6.2882    3.5756    6.2909 C   0  0  0  0  0  0  0  0  0  0  0  0
    5.9696    4.3935    3.6598 C   0  0  0  0  0  0  0  0  0  0  0  0
    4.6540    2.3247    3.0958 C   0  0  0  0  0  0  0  0  0  0  0  0
    5.4058    3.1663    4.0570 C   0  0  0  0  0  0  0  0  0  0  0  0
    3.2192    0.7095    1.2631 C   0  0  0  0  0  0  0  0  0  0  0  0
    6.8504    4.7943    5.8964 C   0  0  0  0  0  0  0  0  0  0  0  0
    6.6715    5.1897    4.5546 C   0  0  0  0  0  0  0  0  0  0  0  0
    7.6164    5.5886    6.7518 N   0  0  0  0  0  0  0  0  0  0  0  0
    7.2375    6.3977    4.2084 O   0  0  0  0  0  0  0  0  0  0  0  0
    2.5707   -0.1583    0.4295 O   0  0  0  0  0  0  0  0  0  0  0  0
    1.3461   -0.4716   -1.1373 H   0  0  0  0  0  0  0  0  0  0  0  0
    2.3261    1.0142   -1.2819 H   0  0  0  0  0  0  0  0  0  0  0  0
    0.9209    0.9715   -0.1758 H   0  0  0  0  0  0  0  0  0  0  0  0
    3.7266    3.9691    2.0575 H   0  0  0  0  0  0  0  0  0  0  0  0
    5.3752    0.4439    3.8754 H   0  0  0  0  0  0  0  0  0  0  0  0
    5.1338    1.8532    5.7461 H   0  0  0  0  0  0  0  0  0  0  0  0
    2.5003    2.5873    0.4543 H   0  0  0  0  0  0  0  0  0  0  0  0
    4.0994   -0.9599    2.2822 H   0  0  0  0  0  0  0  0  0  0  0  0
    6.4085    3.2518    7.3225 H   0  0  0  0  0  0  0  0  0  0  0  0
    5.8792    4.7181    2.6246 H   0  0  0  0  0  0  0  0  0  0  0  0
    7.3774    5.5053    7.7320 H   0  0  0  0  0  0  0  0  0  0  0  0
    7.6890    6.5544    6.4561 H   0  0  0  0  0  0  0  0  0  0  0  0
    7.0482    6.5756    3.2748 H   0  0  0  0  0  0  0  0  0  0  0  0
  1 19  1  0  0  0  0
  1 16  1  0  0  0  0
  2  9  2  0  0  0  0
  3 21  1  0  0  0  0
  4 22  1  0  0  0  0
  4  7  2  0  0  0  0
  5 11  2  0  0  0  0
  5  2  1  0  0  0  0
  6 24  1  0  0  0  0
  6  3  2  0  0  0  0
  7 25  1  0  0  0  0
  8 10  2  0  0  0  0
  8 13  1  0  0  0  0
  9  3  1  0  0  0  0
  9 10  1  0  0  0  0
 10  4  1  0  0  0  0
 11  6  1  0  0  0  0
 12  7  1  0  0  0  0
 12 14  1  0  0  0  0
 13 12  2  0  0  0  0
 14 27  1  0  0  0  0
 15 13  1  0  0  0  0
 16 11  1  0  0  0  0
 17  1  1  0  0  0  0
 18  1  1  0  0  0  0
 20  2  1  0  0  0  0
 23  5  1  0  0  0  0
 26  8  1  0  0  0  0
 28 14  1  0  0  0  0
 29 15  1  0  0  0  0
M  END
>  <HBA>
3

>  <HBD>
2

>  <TPSA>
55.48

>  <cid>
44344

>  <dipole>
2.52

>  <excitation_energy_1>
4.126

>  <excitation_energy_2>
4.249

>  <excitation_energy_3>
4.312

>  <excitation_energy_4>
4.509

>  <homo_energy>
-4.857

>  <homo_lumo_gap>
4.694

>  <logP>
3.231

>  <lumo_energy>
-0.163

>  <melting_point>
137.83

>  <molecular_refractivity>
64.8

>  <oscillator_strength_1>
0.2131

>  <oscillator_strength_2>
0.0674

>  <oscillator_strength_3>
0.1872

>  <oscillator_strength_4>
0.1348

>  <open_babel_can_smiles>
COc1ccc(cc1)c1ccc(c(c1)O)N

>  <mulliken_charges>
29
1   -0.213112
2   -0.187754
3   -0.180454
4   -0.190441
5   -0.200456
6   -0.177584
7   -0.189162
8   -0.256774
9   0.087752
10   0.090567
11   0.375957
12   0.284452
13   0.317465
14   -0.791857
15   -0.671131
16   -0.508073
17   0.168328
18   0.15004
19   0.150553
20   0.124573
21   0.132273
22   0.124836
23   0.127806
24   0.135997
25   0.117294
26   0.114745
27   0.317054
28   0.337228
29   0.409878

>  <lowdin_charges>
29
1   -0.281072
2   -0.154551
3   -0.154026
4   -0.172813
5   -0.214467
6   -0.179457
7   -0.190986
8   -0.21211
9   -0.016998
10   -0.016326
11   0.097045
12   0.033293
13   0.071492
14   -0.483469
15   -0.396283
16   -0.198789
17   0.163112
18   0.145507
19   0.144961
20   0.153764
21   0.16135
22   0.157734
23   0.161623
24   0.163706
25   0.152793
26   0.15148
27   0.273338
28   0.282099
29   0.358049

$$$$

