PCCDB-ID:  46522
public computational chemistry database (PCCDB) project, http://pccdb.org

 35 35  0  0  1  0  0  0  0  0999 V2000
    4.8488    1.8186    0.5209 C   0  0  0  0  0  0  0  0  0  0  0  0
    3.2812    2.4117   -1.3843 C   0  0  0  0  0  0  0  0  0  0  0  0
    7.2619   -1.6054   -2.0758 C   0  0  0  0  0  0  0  0  0  0  0  0
    6.5324   -2.7250   -4.2010 C   0  0  0  0  0  0  0  0  0  0  0  0
    4.5349    0.2423   -1.4028 C   0  0  0  0  0  0  0  0  0  0  0  0
    4.1534   -1.0393   -1.5105 C   0  0  0  0  0  0  0  0  0  0  0  0
    3.8611    1.2700   -0.5266 C   0  0  0  0  0  0  0  0  0  0  0  0
    6.1120   -1.7484   -3.0898 C   0  0  0  0  0  0  0  0  0  0  0  0
    3.6974   -2.3991   -3.5323 C   0  0  0  0  0  0  0  0  0  0  0  0
    4.8356   -3.4324   -1.6267 C   0  0  0  0  0  0  0  0  0  0  0  0
    3.9502   -4.6890   -3.3543 C   0  0  0  0  0  0  0  0  0  0  0  0
    4.7255   -2.1265   -2.4187 C   0  0  2  0  0  0  0  0  0  0  0  0
    3.3509   -3.5485   -3.9527 N   0  0  0  0  0  0  0  0  0  0  0  0
    4.5038   -4.5850   -2.0499 N   0  0  0  0  0  0  0  0  0  0  0  0
    3.1765   -1.3128   -4.1333 O   0  0  0  0  0  0  0  0  0  0  0  0
    5.3388   -3.3409   -0.3770 O   0  0  0  0  0  0  0  0  0  0  0  0
    3.9487   -5.7516   -3.9321 O   0  0  0  0  0  0  0  0  0  0  0  0
    4.3572    2.5608    1.1595 H   0  0  0  0  0  0  0  0  0  0  0  0
    5.7043    2.3082    0.0388 H   0  0  0  0  0  0  0  0  0  0  0  0
    5.2347    1.0205    1.1643 H   0  0  0  0  0  0  0  0  0  0  0  0
    2.7914    3.1581   -0.7489 H   0  0  0  0  0  0  0  0  0  0  0  0
    2.5392    2.0392   -2.0994 H   0  0  0  0  0  0  0  0  0  0  0  0
    4.0710    2.9225   -1.9493 H   0  0  0  0  0  0  0  0  0  0  0  0
    8.1471   -1.2125   -2.5872 H   0  0  0  0  0  0  0  0  0  0  0  0
    7.5358   -2.5747   -1.6464 H   0  0  0  0  0  0  0  0  0  0  0  0
    7.0308   -0.9190   -1.2549 H   0  0  0  0  0  0  0  0  0  0  0  0
    7.4836   -2.3926   -4.6301 H   0  0  0  0  0  0  0  0  0  0  0  0
    5.8020   -2.7778   -5.0124 H   0  0  0  0  0  0  0  0  0  0  0  0
    6.6820   -3.7379   -3.8117 H   0  0  0  0  0  0  0  0  0  0  0  0
    5.3918    0.6103   -1.9689 H   0  0  0  0  0  0  0  0  0  0  0  0
    3.2859   -1.3630   -0.9315 H   0  0  0  0  0  0  0  0  0  0  0  0
    3.0317    0.7816    0.0024 H   0  0  0  0  0  0  0  0  0  0  0  0
    5.9468   -0.7707   -3.5619 H   0  0  0  0  0  0  0  0  0  0  0  0
    3.4127   -0.5261   -3.6085 H   0  0  0  0  0  0  0  0  0  0  0  0
    5.5091   -2.4058   -0.1706 H   0  0  0  0  0  0  0  0  0  0  0  0
  1 18  1  0  0  0  0
  1 20  1  0  0  0  0
  2 21  1  0  0  0  0
  2  7  1  0  0  0  0
  3 25  1  0  0  0  0
  3 26  1  0  0  0  0
  4 29  1  0  0  0  0
  4  8  1  0  0  0  0
  5  7  1  0  0  0  0
  6  5  2  0  0  0  0
  6 31  1  0  0  0  0
  7 32  1  0  0  0  0
  7  1  1  0  0  0  0
  8 12  1  0  0  0  0
  8  3  1  0  0  0  0
  9 12  1  0  0  0  0
 10 16  1  0  0  0  0
 11 14  1  0  0  0  0
 12 10  1  0  0  0  0
 12  6  1  1  0  0  0
 13  9  2  0  0  0  0
 13 11  2  0  0  0  0
 14 10  2  0  0  0  0
 15 34  1  0  0  0  0
 15  9  1  0  0  0  0
 16 35  1  0  0  0  0
 17 11  2  0  0  0  0
 19  1  1  0  0  0  0
 22  2  1  0  0  0  0
 23  2  1  0  0  0  0
 24  3  1  0  0  0  0
 27  4  1  0  0  0  0
 28  4  1  0  0  0  0
 30  5  1  0  0  0  0
 33  8  1  0  0  0  0
M  END
>  <HBA>
5

>  <HBD>
2

>  <TPSA>
75.27

>  <cid>
46522

>  <dipole>
10.86

>  <excitation_energy_1>
3.987

>  <excitation_energy_2>
4.262

>  <excitation_energy_3>
4.981

>  <excitation_energy_4>
5.294

>  <homo_energy>
-6.762

>  <homo_lumo_gap>
5.317

>  <logP>
1.865

>  <lumo_energy>
-1.445

>  <melting_point>
149.37

>  <molecular_refractivity>
71.37

>  <oscillator_strength_1>
0.0013

>  <oscillator_strength_2>
0.0008

>  <oscillator_strength_3>
0.0581

>  <oscillator_strength_4>
0.0102

>  <open_babel_can_smiles>
CC(/C=C/[C@@]1(C(C)C)C(=N[C](=[N]=C1O)=O)O)C

>  <mulliken_charges>
35
1   -0.445943
2   -0.449747
3   -0.482661
4   -0.480644
5   -0.082875
6   -0.233649
7   -0.124553
8   -0.07628
9   0.540024
10   0.526931
11   0.614076
12   -0.140791
13   -0.462011
14   -0.464161
15   -0.577713
16   -0.574779
17   -0.433208
18   0.158906
19   0.148481
20   0.150093
21   0.160057
22   0.152893
23   0.148442
24   0.16294
25   0.178321
26   0.139659
27   0.154673
28   0.184989
29   0.179059
30   0.147798
31   0.166697
32   0.144052
33   0.135836
34   0.412971
35   0.422117

>  <lowdin_charges>
35
1   -0.445045
2   -0.446082
3   -0.461108
4   -0.454266
5   -0.151389
6   -0.209292
7   -0.120274
8   -0.112602
9   0.146179
10   0.143307
11   0.175572
12   -0.061702
13   -0.185052
14   -0.183484
15   -0.330582
16   -0.326496
17   -0.214298
18   0.159762
19   0.151589
20   0.153821
21   0.160394
22   0.154395
23   0.151917
24   0.162968
25   0.163967
26   0.14621
27   0.159213
28   0.169913
29   0.165065
30   0.159393
31   0.168906
32   0.149455
33   0.142565
34   0.358346
35   0.358735

$$$$

