PCCDB-ID:  1520
public computational chemistry database (PCCDB) project, http://pccdb.org

 23 22  0  0  0  0  0  0  0  0999 V2000
    0.4751   -0.4273   -0.5434 C   0  0  0  0  0  0  0  0  0  0  0  0
    1.8844    0.1155   -0.2850 C   0  0  0  0  0  0  0  0  0  0  0  0
    2.7082    0.2830   -1.5675 C   0  0  0  0  0  0  0  0  0  0  0  0
    4.1136    0.8321   -1.3138 C   0  0  0  0  0  0  0  0  0  0  0  0
    6.2128    1.4766   -2.3744 C   0  0  0  0  0  0  0  0  0  0  0  0
    6.9534    1.6050   -3.7047 C   0  0  0  0  0  0  0  0  0  0  0  0
    4.8762    0.9331   -2.5559 N   0  0  0  0  0  0  0  0  0  0  0  0
    6.2028    2.8138   -4.8838 S   0  0  0  0  0  0  0  0  0  0  0  0
   -0.0883   -0.5380    0.3902 H   0  0  0  0  0  0  0  0  0  0  0  0
    0.5119   -1.4100   -1.0293 H   0  0  0  0  0  0  0  0  0  0  0  0
   -0.0942    0.2436   -1.1984 H   0  0  0  0  0  0  0  0  0  0  0  0
    2.4152   -0.5599    0.4009 H   0  0  0  0  0  0  0  0  0  0  0  0
    1.8141    1.0824    0.2332 H   0  0  0  0  0  0  0  0  0  0  0  0
    2.1752    0.9575   -2.2551 H   0  0  0  0  0  0  0  0  0  0  0  0
    2.7973   -0.6801   -2.0869 H   0  0  0  0  0  0  0  0  0  0  0  0
    4.6550    0.1515   -0.6411 H   0  0  0  0  0  0  0  0  0  0  0  0
    4.0414    1.8006   -0.7779 H   0  0  0  0  0  0  0  0  0  0  0  0
    6.2253    2.4562   -1.8533 H   0  0  0  0  0  0  0  0  0  0  0  0
    6.7820    0.7832   -1.7382 H   0  0  0  0  0  0  0  0  0  0  0  0
    6.9214    0.6493   -4.2358 H   0  0  0  0  0  0  0  0  0  0  0  0
    8.0013    1.8728   -3.5440 H   0  0  0  0  0  0  0  0  0  0  0  0
    4.3734    1.5300   -3.2132 H   0  0  0  0  0  0  0  0  0  0  0  0
    6.4522    3.9212   -4.1497 H   0  0  0  0  0  0  0  0  0  0  0  0
  1  2  1  0  0  0  0
  1  9  1  0  0  0  0
  2 13  1  0  0  0  0
  2 12  1  0  0  0  0
  3  4  1  0  0  0  0
  3  2  1  0  0  0  0
  4 17  1  0  0  0  0
  4 16  1  0  0  0  0
  5 18  1  0  0  0  0
  5 19  1  0  0  0  0
  6 21  1  0  0  0  0
  6  5  1  0  0  0  0
  7  5  1  0  0  0  0
  7  4  1  0  0  0  0
  8 23  1  0  0  0  0
  8  6  1  0  0  0  0
 10  1  1  0  0  0  0
 11  1  1  0  0  0  0
 14  3  1  0  0  0  0
 15  3  1  0  0  0  0
 20  6  1  0  0  0  0
 22  7  1  0  0  0  0
M  END
>  <HBA>
2

>  <HBD>
2

>  <TPSA>
50.83

>  <cid>
1520

>  <dipole>
1.85

>  <excitation_energy_1>
5.226

>  <excitation_energy_2>
5.508

>  <excitation_energy_3>
5.701

>  <excitation_energy_4>
5.876

>  <homo_energy>
-5.957

>  <homo_lumo_gap>
6.68

>  <logP>
1.697

>  <lumo_energy>
0.724

>  <melting_point>
20.88

>  <molecular_refractivity>
41.69

>  <oscillator_strength_1>
0.0051

>  <oscillator_strength_2>
0.0165

>  <oscillator_strength_3>
0.0284

>  <oscillator_strength_4>
0.0122

>  <open_babel_can_smiles>
CCCCNCCS

>  <mulliken_charges>
23
1   -0.440833
2   -0.250771
3   -0.259014
4   -0.108595
5   -0.096355
6   -0.422803
7   -0.561261
8   -0.094309
9   0.141984
10   0.143624
11   0.142215
12   0.131847
13   0.131022
14   0.126506
15   0.145202
16   0.133232
17   0.106602
18   0.11003
19   0.145313
20   0.193237
21   0.176742
22   0.312321
23   0.094063

>  <lowdin_charges>
23
1   -0.444736
2   -0.272992
3   -0.279735
4   -0.201636
5   -0.203726
6   -0.37246
7   -0.367804
8   -0.092425
9   0.14953
10   0.147027
11   0.148084
12   0.140922
13   0.138688
14   0.138548
15   0.147376
16   0.13923
17   0.113421
18   0.114909
19   0.148033
20   0.175609
21   0.162038
22   0.25991
23   0.112189

$$$$

