PCCDB-ID:  20497
public computational chemistry database (PCCDB) project, http://pccdb.org

 17 16  0  0  1  0  0  0  0  0999 V2000
    3.5859   -1.5452   -1.0869 C   0  0  0  0  0  0  0  0  0  0  0  0
    4.4555   -0.8095    1.7840 C   0  0  0  0  0  0  0  0  0  0  0  0
    3.3628   -0.1780   -0.4536 C   0  0  1  0  0  0  0  0  0  0  0  0
    3.2442   -0.1993    1.0793 C   0  0  2  0  0  0  0  0  0  0  0  0
    4.3111   -0.4848    3.1726 O   0  0  0  0  0  0  0  0  0  0  0  0
    4.4412    0.6683   -0.8358 O   0  0  0  0  0  0  0  0  0  0  0  0
    3.1189    1.1679    1.4714 O   0  0  0  0  0  0  0  0  0  0  0  0
    2.7790   -2.2375   -0.8209 H   0  0  0  0  0  0  0  0  0  0  0  0
    4.5409   -1.9772   -0.7701 H   0  0  0  0  0  0  0  0  0  0  0  0
    3.6106   -1.4462   -2.1762 H   0  0  0  0  0  0  0  0  0  0  0  0
    5.3705   -0.3708    1.3657 H   0  0  0  0  0  0  0  0  0  0  0  0
    4.4839   -1.8979    1.6388 H   0  0  0  0  0  0  0  0  0  0  0  0
    2.4127    0.2379   -0.8291 H   0  0  0  0  0  0  0  0  0  0  0  0
    2.3405   -0.7595    1.3700 H   0  0  0  0  0  0  0  0  0  0  0  0
    5.1650   -0.6183    3.6089 H   0  0  0  0  0  0  0  0  0  0  0  0
    4.3298    1.4670   -0.2891 H   0  0  0  0  0  0  0  0  0  0  0  0
    3.3686    1.1859    2.4130 H   0  0  0  0  0  0  0  0  0  0  0  0
  1  8  1  0  0  0  0
  1  9  1  0  0  0  0
  1  3  1  0  0  0  0
  2  5  1  0  0  0  0
  3 13  1  6  0  0  0
  3  4  1  0  0  0  0
  4 14  1  1  0  0  0
  4  7  1  0  0  0  0
  4  2  1  0  0  0  0
  5 15  1  0  0  0  0
  6  3  1  0  0  0  0
  6 16  1  0  0  0  0
  7 17  1  0  0  0  0
 10  1  1  0  0  0  0
 11  2  1  0  0  0  0
 12  2  1  0  0  0  0
M  END
>  <HBA>
3

>  <HBD>
3

>  <TPSA>
60.69

>  <cid>
20497

>  <dipole>
2.42

>  <excitation_energy_1>
6.367

>  <excitation_energy_2>
6.626

>  <excitation_energy_3>
6.704

>  <excitation_energy_4>
6.875

>  <homo_energy>
-6.983

>  <homo_lumo_gap>
8.449

>  <logP>
-1.28

>  <lumo_energy>
1.467

>  <melting_point>
30.62

>  <molecular_refractivity>
24.83

>  <oscillator_strength_1>
0.0103

>  <oscillator_strength_2>
0.0104

>  <oscillator_strength_3>
0.0044

>  <oscillator_strength_4>
0.0137

>  <open_babel_can_smiles>
OC[C@H]([C@@H](O)C)O

>  <mulliken_charges>
17
1   -0.460071
2   -0.065611
3   0.139083
4   0.122456
5   -0.640331
6   -0.640881
7   -0.662868
8   0.14211
9   0.152321
10   0.164062
11   0.145509
12   0.134143
13   0.125566
14   0.122483
15   0.404238
16   0.403524
17   0.414267

>  <lowdin_charges>
17
1   -0.449529
2   -0.155452
3   -0.003525
4   -0.02953
5   -0.477036
6   -0.472349
7   -0.472879
8   0.153358
9   0.153142
10   0.161649
11   0.142485
12   0.136288
13   0.132943
14   0.134613
15   0.35211
16   0.345148
17   0.348563

$$$$

