PCCDB-ID:  70097
public computational chemistry database (PCCDB) project, http://pccdb.org

 22 21  0  0  0  0  0  0  0  0999 V2000
    4.8011   -3.0285    0.0263 C   0  0  0  0  0  0  0  0  0  0  0  0
    5.3254   -1.7724   -4.2250 C   0  0  0  0  0  0  0  0  0  0  0  0
    2.4747   -2.1898   -1.7028 C   0  0  0  0  0  0  0  0  0  0  0  0
    2.6681   -2.7037   -3.1473 C   0  0  0  0  0  0  0  0  0  0  0  0
    4.5344   -1.6938   -0.6380 C   0  0  0  0  0  0  0  0  0  0  0  0
    4.9455   -3.1237   -3.6561 C   0  0  0  0  0  0  0  0  0  0  0  0
    3.5559   -1.3012   -1.3391 N   0  0  0  0  0  0  0  0  0  0  0  0
    3.8352   -3.5537   -3.2251 N   0  0  0  0  0  0  0  0  0  0  0  0
    5.5469   -0.7784   -0.4640 O   0  0  0  0  0  0  0  0  0  0  0  0
    5.9991   -4.0040   -3.5692 O   0  0  0  0  0  0  0  0  0  0  0  0
    3.9434   -3.6982   -0.0273 H   0  0  0  0  0  0  0  0  0  0  0  0
    5.0657   -2.8852    1.0821 H   0  0  0  0  0  0  0  0  0  0  0  0
    5.6375   -3.5300   -0.4751 H   0  0  0  0  0  0  0  0  0  0  0  0
    4.4557   -1.1460   -4.4207 H   0  0  0  0  0  0  0  0  0  0  0  0
    5.8852   -1.8923   -5.1617 H   0  0  0  0  0  0  0  0  0  0  0  0
    5.9585   -1.2355   -3.5086 H   0  0  0  0  0  0  0  0  0  0  0  0
    2.3553   -3.0593   -1.0394 H   0  0  0  0  0  0  0  0  0  0  0  0
    1.5376   -1.6202   -1.6681 H   0  0  0  0  0  0  0  0  0  0  0  0
    2.6897   -1.8352   -3.8225 H   0  0  0  0  0  0  0  0  0  0  0  0
    1.7893   -3.3040   -3.4139 H   0  0  0  0  0  0  0  0  0  0  0  0
    6.2107   -1.1557    0.1335 H   0  0  0  0  0  0  0  0  0  0  0  0
    6.7776   -3.6023   -3.9845 H   0  0  0  0  0  0  0  0  0  0  0  0
  1 12  1  0  0  0  0
  2  6  1  0  0  0  0
  2 16  1  0  0  0  0
  3 18  1  0  0  0  0
  3  7  1  0  0  0  0
  3 17  1  0  0  0  0
  4  3  1  0  0  0  0
  5  9  1  0  0  0  0
  5  1  1  0  0  0  0
  6 10  1  0  0  0  0
  6  8  2  0  0  0  0
  7  5  2  0  0  0  0
  8  4  1  0  0  0  0
  9 21  1  0  0  0  0
 11  1  1  0  0  0  0
 13  1  1  0  0  0  0
 14  2  1  0  0  0  0
 15  2  1  0  0  0  0
 19  4  1  0  0  0  0
 20  4  1  0  0  0  0
 22 10  1  0  0  0  0
M  END
>  <HBA>
4

>  <HBD>
2

>  <TPSA>
58.2

>  <cid>
70097

>  <dipole>
2.48

>  <excitation_energy_1>
5.675

>  <excitation_energy_2>
5.678

>  <excitation_energy_3>
5.804

>  <excitation_energy_4>
5.817

>  <homo_energy>
-6.531

>  <homo_lumo_gap>
7.197

>  <logP>
0.04

>  <lumo_energy>
0.667

>  <melting_point>
70.58

>  <molecular_refractivity>
36.96

>  <oscillator_strength_1>
0.0003

>  <oscillator_strength_2>
0.0031

>  <oscillator_strength_3>
0.0028

>  <oscillator_strength_4>
0.0007

>  <open_babel_can_smiles>
C/C(=N\CC/N=C(/O)\C)/O

>  <mulliken_charges>
22
1   -0.548403
2   -0.547677
3   -0.152188
4   -0.152238
5   0.49376
6   0.492009
7   -0.41507
8   -0.414593
9   -0.588785
10   -0.588064
11   0.190867
12   0.154439
13   0.192526
14   0.189844
15   0.15239
16   0.195174
17   0.128104
18   0.143413
19   0.128177
20   0.14335
21   0.401573
22   0.401393

>  <lowdin_charges>
22
1   -0.482079
2   -0.483867
3   -0.203221
4   -0.203502
5   0.131644
6   0.131624
7   -0.211157
8   -0.211939
9   -0.382211
10   -0.381604
11   0.178677
12   0.157413
13   0.179677
14   0.178385
15   0.157724
16   0.181467
17   0.130164
18   0.148501
19   0.130056
20   0.149047
21   0.352839
22   0.352361

$$$$

