PCCDB-ID:  8914
public computational chemistry database (PCCDB) project, http://pccdb.org

 30 29  0  0  0  0  0  0  0  0999 V2000
    4.7903   -1.4604   -2.3833 C   0  0  0  0  0  0  0  0  0  0  0  0
    5.7423   -0.2642   -2.2607 C   0  0  0  0  0  0  0  0  0  0  0  0
    6.4833   -0.1674   -0.9158 C   0  0  0  0  0  0  0  0  0  0  0  0
    5.5741    0.1030    0.2924 C   0  0  0  0  0  0  0  0  0  0  0  0
    6.3133    0.1974    1.6388 C   0  0  0  0  0  0  0  0  0  0  0  0
    7.2661    1.3952    1.7607 C   0  0  0  0  0  0  0  0  0  0  0  0
    7.8365    1.6037    3.1750 C   0  0  0  0  0  0  0  0  0  0  0  0
    8.7047    0.4710    3.7538 C   0  0  0  0  0  0  0  0  0  0  0  0
   10.0196    0.2013    3.0278 C   0  0  0  0  0  0  0  0  0  0  0  0
    9.7494   -0.4523    1.7875 O   0  0  0  0  0  0  0  0  0  0  0  0
    4.3410   -1.5051   -3.3823 H   0  0  0  0  0  0  0  0  0  0  0  0
    3.9705   -1.4098   -1.6580 H   0  0  0  0  0  0  0  0  0  0  0  0
    5.3226   -2.4053   -2.2151 H   0  0  0  0  0  0  0  0  0  0  0  0
    5.1818    0.6666   -2.4315 H   0  0  0  0  0  0  0  0  0  0  0  0
    6.4859   -0.3212   -3.0674 H   0  0  0  0  0  0  0  0  0  0  0  0
    7.2347    0.6292   -0.9902 H   0  0  0  0  0  0  0  0  0  0  0  0
    7.0449   -1.0976   -0.7424 H   0  0  0  0  0  0  0  0  0  0  0  0
    4.8225   -0.6940    0.3675 H   0  0  0  0  0  0  0  0  0  0  0  0
    5.0128    1.0343    0.1189 H   0  0  0  0  0  0  0  0  0  0  0  0
    6.8759   -0.7309    1.8023 H   0  0  0  0  0  0  0  0  0  0  0  0
    5.5645    0.2550    2.4432 H   0  0  0  0  0  0  0  0  0  0  0  0
    6.7238    2.3101    1.4777 H   0  0  0  0  0  0  0  0  0  0  0  0
    8.0916    1.2828    1.0505 H   0  0  0  0  0  0  0  0  0  0  0  0
    7.0006    1.7757    3.8693 H   0  0  0  0  0  0  0  0  0  0  0  0
    8.4297    2.5301    3.1833 H   0  0  0  0  0  0  0  0  0  0  0  0
    8.1409   -0.4691    3.7975 H   0  0  0  0  0  0  0  0  0  0  0  0
    8.9538    0.7290    4.7926 H   0  0  0  0  0  0  0  0  0  0  0  0
   10.6611   -0.4324    3.6620 H   0  0  0  0  0  0  0  0  0  0  0  0
   10.5562    1.1516    2.8649 H   0  0  0  0  0  0  0  0  0  0  0  0
   10.5929   -0.5842    1.3290 H   0  0  0  0  0  0  0  0  0  0  0  0
  1  2  1  0  0  0  0
  1 13  1  0  0  0  0
  1 12  1  0  0  0  0
  2  3  1  0  0  0  0
  3 17  1  0  0  0  0
  3  4  1  0  0  0  0
  4 18  1  0  0  0  0
  4  5  1  0  0  0  0
  5  6  1  0  0  0  0
  5 20  1  0  0  0  0
  5 21  1  0  0  0  0
  6  7  1  0  0  0  0
  7 25  1  0  0  0  0
  7  8  1  0  0  0  0
  7 24  1  0  0  0  0
  8 26  1  0  0  0  0
  8 27  1  0  0  0  0
  9 28  1  0  0  0  0
  9  8  1  0  0  0  0
 10  9  1  0  0  0  0
 11  1  1  0  0  0  0
 14  2  1  0  0  0  0
 15  2  1  0  0  0  0
 16  3  1  0  0  0  0
 19  4  1  0  0  0  0
 22  6  1  0  0  0  0
 23  6  1  0  0  0  0
 29  9  1  0  0  0  0
 30 10  1  0  0  0  0
M  END
>  <HBA>
1

>  <HBD>
1

>  <TPSA>
20.23

>  <cid>
8914

>  <dipole>
1.82

>  <excitation_energy_1>
6.273

>  <excitation_energy_2>
7.046

>  <excitation_energy_3>
7.316

>  <excitation_energy_4>
7.344

>  <homo_energy>
-7.119

>  <homo_lumo_gap>
9.018

>  <logP>
2.729

>  <lumo_energy>
1.899

>  <melting_point>
-9.94

>  <molecular_refractivity>
46.54

>  <oscillator_strength_1>
0.0001

>  <oscillator_strength_2>
0.0099

>  <oscillator_strength_3>
0.0066

>  <oscillator_strength_4>
0.0084

>  <open_babel_can_smiles>
CCCCCCCCCO

>  <mulliken_charges>
30
1   -0.442384
2   -0.247999
3   -0.246793
4   -0.257246
5   -0.257183
6   -0.244758
7   -0.260917
8   -0.265497
9   -0.03104
10   -0.611667
11   0.138635
12   0.145731
13   0.139208
14   0.126765
15   0.126381
16   0.131302
17   0.12887
18   0.127255
19   0.120066
20   0.146107
21   0.115715
22   0.115358
23   0.152522
24   0.126117
25   0.121103
26   0.150584
27   0.129007
28   0.118192
29   0.115591
30   0.390975

>  <lowdin_charges>
30
1   -0.447385
2   -0.273928
3   -0.277635
4   -0.276904
5   -0.278704
6   -0.282592
7   -0.274777
8   -0.28341
9   -0.134411
10   -0.473314
11   0.147313
12   0.147181
13   0.145003
14   0.137197
15   0.139995
16   0.142128
17   0.138947
18   0.139921
19   0.133677
20   0.146119
21   0.134736
22   0.134339
23   0.149594
24   0.139576
25   0.136796
26   0.150768
27   0.145446
28   0.127936
29   0.122825
30   0.343562

$$$$

