PCCDB-ID:  70464
public computational chemistry database (PCCDB) project, http://pccdb.org

 30 29  0  0  0  0  0  0  0  0999 V2000
    4.3057   -0.0467    2.2372 C   0  0  0  0  0  0  0  0  0  0  0  0
   -5.4148    0.2232    5.0257 C   0  0  0  0  0  0  0  0  0  0  0  0
    2.4672    2.2035    1.3871 C   0  0  0  0  0  0  0  0  0  0  0  0
   -3.8413    0.3563    2.4454 C   0  0  0  0  0  0  0  0  0  0  0  0
    1.0200    1.7485    1.1323 C   0  0  0  0  0  0  0  0  0  0  0  0
   -2.3883    0.8101    2.6678 C   0  0  0  0  0  0  0  0  0  0  0  0
    3.4514    1.3969    0.5475 C   0  0  0  0  0  0  0  0  0  0  0  0
   -4.1732   -0.8574    3.3063 C   0  0  0  0  0  0  0  0  0  0  0  0
    4.2270    0.4594    0.8869 N   0  0  0  0  0  0  0  0  0  0  0  0
   -4.8296   -0.9302    4.3827 N   0  0  0  0  0  0  0  0  0  0  0  0
    3.4429    1.7234   -0.7864 O   0  0  0  0  0  0  0  0  0  0  0  0
   -3.6212   -2.0304    2.8519 O   0  0  0  0  0  0  0  0  0  0  0  0
   -0.1249    2.8327    2.1003 S   0  0  0  0  0  0  0  0  0  0  0  0
   -2.0116    2.1968    1.5018 S   0  0  0  0  0  0  0  0  0  0  0  0
    4.0397   -1.1113    2.2347 H   0  0  0  0  0  0  0  0  0  0  0  0
    3.6708    0.4552    2.9841 H   0  0  0  0  0  0  0  0  0  0  0  0
    5.3453    0.0151    2.5811 H   0  0  0  0  0  0  0  0  0  0  0  0
   -4.9977    0.3167    6.0362 H   0  0  0  0  0  0  0  0  0  0  0  0
   -6.4922    0.0562    5.1456 H   0  0  0  0  0  0  0  0  0  0  0  0
   -5.2755    1.1891    4.5154 H   0  0  0  0  0  0  0  0  0  0  0  0
    2.7055    2.1101    2.4492 H   0  0  0  0  0  0  0  0  0  0  0  0
    2.5722    3.2684    1.1364 H   0  0  0  0  0  0  0  0  0  0  0  0
   -3.9958    0.0961    1.3885 H   0  0  0  0  0  0  0  0  0  0  0  0
   -4.5237    1.1808    2.6638 H   0  0  0  0  0  0  0  0  0  0  0  0
    0.8907    0.7085    1.4446 H   0  0  0  0  0  0  0  0  0  0  0  0
    0.7592    1.8244    0.0732 H   0  0  0  0  0  0  0  0  0  0  0  0
   -1.6905   -0.0136    2.4910 H   0  0  0  0  0  0  0  0  0  0  0  0
   -2.2483    1.1654    3.6917 H   0  0  0  0  0  0  0  0  0  0  0  0
    2.9267    2.5334   -0.9168 H   0  0  0  0  0  0  0  0  0  0  0  0
   -3.2732   -1.8968    1.9572 H   0  0  0  0  0  0  0  0  0  0  0  0
  1 17  1  0  0  0  0
  1 16  1  0  0  0  0
  2 19  1  0  0  0  0
  2 18  1  0  0  0  0
  3 21  1  0  0  0  0
  4 24  1  0  0  0  0
  4  6  1  0  0  0  0
  4  8  1  0  0  0  0
  5  3  1  0  0  0  0
  5 25  1  0  0  0  0
  5 13  1  0  0  0  0
  6 28  1  0  0  0  0
  7  9  2  0  0  0  0
  7  3  1  0  0  0  0
  8 10  2  0  0  0  0
  9  1  1  0  0  0  0
 10  2  1  0  0  0  0
 11  7  1  0  0  0  0
 12  8  1  0  0  0  0
 14 13  1  0  0  0  0
 14  6  1  0  0  0  0
 15  1  1  0  0  0  0
 20  2  1  0  0  0  0
 22  3  1  0  0  0  0
 23  4  1  0  0  0  0
 26  5  1  0  0  0  0
 27  6  1  0  0  0  0
 29 11  1  0  0  0  0
 30 12  1  0  0  0  0
M  END
>  <HBA>
6

>  <HBD>
2

>  <TPSA>
108.8

>  <cid>
70464

>  <dipole>
2.49

>  <excitation_energy_1>
4.505

>  <excitation_energy_2>
4.559

>  <excitation_energy_3>
5.196

>  <excitation_energy_4>
5.225

>  <homo_energy>
-6.697

>  <homo_lumo_gap>
5.584

>  <logP>
1.422

>  <lumo_energy>
-1.113

>  <melting_point>
87.19

>  <molecular_refractivity>
61.76

>  <oscillator_strength_1>
0.0039

>  <oscillator_strength_2>
0.0037

>  <oscillator_strength_3>
0.0551

>  <oscillator_strength_4>
0.0086

>  <open_babel_can_smiles>
C/N=C(\CCSSCC/C(=N\C)/O)/O

>  <mulliken_charges>
30
1   -0.326989
2   -0.326927
3   -0.386989
4   -0.386182
5   -0.409211
6   -0.408852
7   0.487572
8   0.487106
9   -0.392671
10   -0.39239
11   -0.578534
12   -0.57855
13   0.020672
14   0.017398
15   0.163416
16   0.123098
17   0.166019
18   0.164156
19   0.165234
20   0.124349
21   0.184717
22   0.167734
23   0.163806
24   0.187221
25   0.189896
26   0.187215
27   0.177177
28   0.203496
29   0.404095
30   0.402918

>  <lowdin_charges>
30
1   -0.354537
2   -0.352955
3   -0.310745
4   -0.312413
5   -0.373968
6   -0.375879
7   0.122524
8   0.120318
9   -0.19187
10   -0.191016
11   -0.373266
12   -0.371387
13   0.032001
14   0.030143
15   0.155388
16   0.127171
17   0.157077
18   0.156648
19   0.155892
20   0.126324
21   0.16939
22   0.160216
23   0.15821
24   0.172918
25   0.16433
26   0.16327
27   0.159095
28   0.173065
29   0.352852
30   0.351206

$$$$

