PCCDB-ID:  71668
public computational chemistry database (PCCDB) project, http://pccdb.org

 16 16  0  0  0  0  0  0  0  0999 V2000
   -0.7430    1.1867   -0.1218 C   0  0  0  0  0  0  0  0  0  0  0  0
   -1.3873   -0.0444   -0.2406 C   0  0  0  0  0  0  0  0  0  0  0  0
    0.6267    1.2537    0.0598 C   0  0  0  0  0  0  0  0  0  0  0  0
    0.7598   -1.1020    0.0003 C   0  0  0  0  0  0  0  0  0  0  0  0
   -1.2536   -2.5812   -0.2607 C   0  0  0  0  0  0  0  0  0  0  0  0
   -0.6116   -1.2081   -0.1725 C   0  0  0  0  0  0  0  0  0  0  0  0
    1.3891    0.1131    0.1234 N   0  3  0  0  0  0  0  0  0  0  0  0
   -2.3905   -2.6140   -1.1097 O   0  0  0  0  0  0  0  0  0  0  0  0
    2.6518    0.1783    0.2846 O   0  5  0  0  0  0  0  0  0  0  0  0
   -1.3018    2.1165   -0.1674 H   0  0  0  0  0  0  0  0  0  0  0  0
   -2.4588   -0.1157   -0.3878 H   0  0  0  0  0  0  0  0  0  0  0  0
    1.2002    2.1652    0.1604 H   0  0  0  0  0  0  0  0  0  0  0  0
    1.4404   -1.9428    0.0493 H   0  0  0  0  0  0  0  0  0  0  0  0
   -1.6263   -2.8784    0.7261 H   0  0  0  0  0  0  0  0  0  0  0  0
   -0.5011   -3.3279   -0.5578 H   0  0  0  0  0  0  0  0  0  0  0  0
   -2.0957   -2.3804   -2.0044 H   0  0  0  0  0  0  0  0  0  0  0  0
  1  3  2  0  0  0  0
  2  6  2  0  0  0  0
  2  1  1  0  0  0  0
  3  7  1  0  0  0  0
  3 12  1  0  0  0  0
  4 13  1  0  0  0  0
  4  7  2  0  0  0  0
  5  6  1  0  0  0  0
  5 14  1  0  0  0  0
  6  4  1  0  0  0  0
  7  9  1  0  0  0  0
  8  5  1  0  0  0  0
 10  1  1  0  0  0  0
 11  2  1  0  0  0  0
 15  5  1  0  0  0  0
 16  8  1  0  0  0  0
M  CHG  2   7   1   9  -1
M  END
>  <HBA>
2

>  <HBD>
1

>  <TPSA>
45.69

>  <cid>
71668

>  <dipole>
2.88

>  <excitation_energy_1>
4.074

>  <excitation_energy_2>
4.171

>  <excitation_energy_3>
4.684

>  <excitation_energy_4>
4.865

>  <homo_energy>
-5.812

>  <homo_lumo_gap>
4.735

>  <logP>
0.607

>  <lumo_energy>
-1.078

>  <melting_point>
41.27

>  <molecular_refractivity>
33.73

>  <oscillator_strength_1>
0.0001

>  <oscillator_strength_2>
0.0207

>  <oscillator_strength_3>
0.2033

>  <oscillator_strength_4>
0.0005

>  <open_babel_can_smiles>
OCc1ccc[n+](c1)[O-]

>  <mulliken_charges>
16
1   -0.172585
2   -0.142594
3   0.070774
4   0.021555
5   -0.094598
6   0.057941
7   -0.002934
8   -0.603549
9   -0.51651
10   0.156014
11   0.159061
12   0.180434
13   0.173237
14   0.177365
15   0.14205
16   0.394339

>  <lowdin_charges>
16
1   -0.14677
2   -0.174395
3   -0.12953
4   -0.141076
5   -0.130357
6   -0.025087
7   0.220774
8   -0.452755
9   -0.386161
10   0.173969
11   0.172645
12   0.184896
13   0.182142
14   0.164643
15   0.1412
16   0.34586

$$$$

