PCCDB-ID:  3816
public computational chemistry database (PCCDB) project, http://pccdb.org

 30 30  0  0  1  0  0  0  0  0999 V2000
    3.5964    0.4085   -1.3289 C   0  0  0  0  0  0  0  0  0  0  0  0
    1.1769    0.5661   -0.8221 C   0  0  0  0  0  0  0  0  0  0  0  0
    1.2886   -2.7081   -0.0004 C   0  0  0  0  0  0  0  0  0  0  0  0
    4.1714   -0.5968    1.4228 C   0  0  0  0  0  0  0  0  0  0  0  0
    2.5829    0.1037   -0.5112 C   0  0  0  0  0  0  0  0  0  0  0  0
    2.5155   -2.1914    0.7705 C   0  0  2  0  0  0  0  0  0  0  0  0
    2.7586   -0.6468    0.8063 C   0  0  1  0  0  0  0  0  0  0  0  0
    0.9988   -4.1729    0.3520 C   0  0  0  0  0  0  0  0  0  0  0  0
    3.9078   -2.7728    0.3886 C   0  0  1  0  0  0  0  0  0  0  0  0
    4.1847   -3.0167   -1.1147 C   0  0  0  0  0  0  0  0  0  0  0  0
    4.8910   -1.7888    0.8960 N   0  0  0  0  0  0  0  0  0  0  0  0
    0.2318   -4.4779    1.2376 O   0  0  0  0  0  0  0  0  0  0  0  0
    1.6841   -5.1000   -0.3360 O   0  0  0  0  0  0  0  0  0  0  0  0
    3.4966   -3.7348   -1.8239 O   0  0  0  0  0  0  0  0  0  0  0  0
    5.2881   -2.4350   -1.5590 O   0  0  0  0  0  0  0  0  0  0  0  0
    3.4291    0.9586   -2.2508 H   0  0  0  0  0  0  0  0  0  0  0  0
    4.6241    0.1284   -1.1260 H   0  0  0  0  0  0  0  0  0  0  0  0
    1.1403    1.1152   -1.7674 H   0  0  0  0  0  0  0  0  0  0  0  0
    0.8042    1.2299   -0.0296 H   0  0  0  0  0  0  0  0  0  0  0  0
    0.4679   -0.2661   -0.8908 H   0  0  0  0  0  0  0  0  0  0  0  0
    1.4138   -2.5705   -1.0779 H   0  0  0  0  0  0  0  0  0  0  0  0
    0.4115   -2.1454    0.3274 H   0  0  0  0  0  0  0  0  0  0  0  0
    4.0926   -0.6492    2.5165 H   0  0  0  0  0  0  0  0  0  0  0  0
    4.7106    0.3193    1.1681 H   0  0  0  0  0  0  0  0  0  0  0  0
    2.3635   -2.4823    1.8186 H   0  0  0  0  0  0  0  0  0  0  0  0
    2.0471   -0.2137    1.5204 H   0  0  0  0  0  0  0  0  0  0  0  0
    4.0390   -3.7535    0.8616 H   0  0  0  0  0  0  0  0  0  0  0  0
    5.4972   -2.1945    1.6025 H   0  0  0  0  0  0  0  0  0  0  0  0
    2.2812   -4.6665   -0.9967 H   0  0  0  0  0  0  0  0  0  0  0  0
    5.6061   -1.9102   -0.7679 H   0  0  0  0  0  0  0  0  0  0  0  0
  1 17  1  0  0  0  0
  1  5  2  0  0  0  0
  2  5  1  0  0  0  0
  2 19  1  0  0  0  0
  3 22  1  0  0  0  0
  3  8  1  0  0  0  0
  3  6  1  0  0  0  0
  4 23  1  0  0  0  0
  5  7  1  0  0  0  0
  6  7  1  0  0  0  0
  6 25  1  1  0  0  0
  7  4  1  0  0  0  0
  7 26  1  1  0  0  0
  8 12  2  0  0  0  0
  9  6  1  0  0  0  0
  9 27  1  1  0  0  0
  9 11  1  0  0  0  0
 10  9  1  0  0  0  0
 11  4  1  0  0  0  0
 11 28  1  0  0  0  0
 13  8  1  0  0  0  0
 14 10  2  0  0  0  0
 15 10  1  0  0  0  0
 15 30  1  0  0  0  0
 16  1  1  0  0  0  0
 18  2  1  0  0  0  0
 20  2  1  0  0  0  0
 21  3  1  0  0  0  0
 24  4  1  0  0  0  0
 29 13  1  0  0  0  0
M  END
>  <HBA>
5

>  <HBD>
3

>  <TPSA>
86.63

>  <cid>
3816

>  <dipole>
6.93

>  <excitation_energy_1>
5.375

>  <excitation_energy_2>
5.554

>  <excitation_energy_3>
5.594

>  <excitation_energy_4>
5.751

>  <homo_energy>
-6.863

>  <homo_lumo_gap>
6.485

>  <logP>
0.655

>  <lumo_energy>
-0.378

>  <melting_point>
157.68

>  <molecular_refractivity>
57.86

>  <oscillator_strength_1>
0.0006

>  <oscillator_strength_2>
0.003

>  <oscillator_strength_3>
0.0015

>  <oscillator_strength_4>
0.0138

>  <open_babel_can_smiles>
OC(=O)C[C@@H]1[C@@H](CN[C@@H]1C(=O)O)C(=C)C

>  <mulliken_charges>
30
1   -0.395745
2   -0.521851
3   -0.384687
4   -0.134071
5   0.22094
6   -0.100791
7   -0.196027
8   0.57064
9   -0.103886
10   0.650178
11   -0.64544
12   -0.460366
13   -0.597596
14   -0.501467
15   -0.563097
16   0.146265
17   0.134286
18   0.161631
19   0.157448
20   0.168318
21   0.178464
22   0.174286
23   0.148409
24   0.16666
25   0.162789
26   0.149931
27   0.193547
28   0.329721
29   0.451182
30   0.440327

>  <lowdin_charges>
30
1   -0.3517
2   -0.44502
3   -0.320213
4   -0.200529
5   -0.003156
6   -0.116177
7   -0.13967
8   0.182012
9   -0.118515
10   0.192801
11   -0.368053
12   -0.265218
13   -0.369022
14   -0.278787
15   -0.327161
16   0.162825
17   0.154552
18   0.161466
19   0.158425
20   0.162006
21   0.166276
22   0.172745
23   0.142621
24   0.157702
25   0.157813
26   0.159392
27   0.176606
28   0.27515
29   0.361938
30   0.358889

$$$$

