PCCDB-ID:  15909
public computational chemistry database (PCCDB) project, http://pccdb.org

 21 21  0  0  0  0  0  0  0  0999 V2000
    1.7716   -0.9741   -1.5630 C   0  0  0  0  0  0  0  0  0  0  0  0
    4.7441    6.0269   -3.1267 C   0  0  0  0  0  0  0  0  0  0  0  0
    4.8398    4.7647   -3.7225 C   0  0  0  0  0  0  0  0  0  0  0  0
    3.9642    6.1936   -1.9816 C   0  0  0  0  0  0  0  0  0  0  0  0
    4.1618    3.6789   -3.1794 C   0  0  0  0  0  0  0  0  0  0  0  0
    3.2854    5.1052   -1.4378 C   0  0  0  0  0  0  0  0  0  0  0  0
    2.5710    1.4388   -1.7997 C   0  0  0  0  0  0  0  0  0  0  0  0
    2.6329    2.7266   -1.4069 C   0  0  0  0  0  0  0  0  0  0  0  0
    1.7619    0.4523   -1.0384 C   0  0  0  0  0  0  0  0  0  0  0  0
    3.3698    3.8285   -2.0237 C   0  0  0  0  0  0  0  0  0  0  0  0
    1.1206    0.7611   -0.0431 O   0  0  0  0  0  0  0  0  0  0  0  0
    2.7955   -1.3691   -1.5824 H   0  0  0  0  0  0  0  0  0  0  0  0
    1.3965   -1.0071   -2.5940 H   0  0  0  0  0  0  0  0  0  0  0  0
    1.1486   -1.6062   -0.9276 H   0  0  0  0  0  0  0  0  0  0  0  0
    5.2750    6.8730   -3.5544 H   0  0  0  0  0  0  0  0  0  0  0  0
    5.4458    4.6298   -4.6144 H   0  0  0  0  0  0  0  0  0  0  0  0
    3.8840    7.1703   -1.5124 H   0  0  0  0  0  0  0  0  0  0  0  0
    4.2466    2.7059   -3.6543 H   0  0  0  0  0  0  0  0  0  0  0  0
    2.6785    5.2361   -0.5452 H   0  0  0  0  0  0  0  0  0  0  0  0
    3.1035    1.0781   -2.6770 H   0  0  0  0  0  0  0  0  0  0  0  0
    2.0586    2.9767   -0.5151 H   0  0  0  0  0  0  0  0  0  0  0  0
  1  9  1  0  0  0  0
  1 14  1  0  0  0  0
  2  4  2  0  0  0  0
  3  5  2  0  0  0  0
  3  2  1  0  0  0  0
  4 17  1  0  0  0  0
  4  6  1  0  0  0  0
  5 10  1  0  0  0  0
  6 19  1  0  0  0  0
  7  8  2  0  0  0  0
  7  9  1  0  0  0  0
  8 21  1  0  0  0  0
  9 11  2  0  0  0  0
 10  6  2  0  0  0  0
 10  8  1  0  0  0  0
 12  1  1  0  0  0  0
 13  1  1  0  0  0  0
 15  2  1  0  0  0  0
 16  3  1  0  0  0  0
 18  5  1  0  0  0  0
 20  7  1  0  0  0  0
M  END
>  <HBA>
1

>  <HBD>
0

>  <TPSA>
17.07

>  <cid>
15909

>  <dipole>
3.34

>  <excitation_energy_1>
3.407

>  <excitation_energy_2>
4.22

>  <excitation_energy_3>
4.427

>  <excitation_energy_4>
5.431

>  <homo_energy>
-6.351

>  <homo_lumo_gap>
4.476

>  <logP>
2.289

>  <lumo_energy>
-1.875

>  <melting_point>
46.9

>  <molecular_refractivity>
46.35

>  <oscillator_strength_1>
0.0

>  <oscillator_strength_2>
0.6456

>  <oscillator_strength_3>
0.014

>  <oscillator_strength_4>
0.1012

>  <open_babel_can_smiles>
CC(=O)/C=C/c1ccccc1

>  <mulliken_charges>
21
1   -0.538261
2   -0.123881
3   -0.130427
4   -0.131162
5   -0.172499
6   -0.187053
7   -0.201322
8   -0.151433
9   0.437691
10   0.170277
11   -0.464011
12   0.166866
13   0.166826
14   0.177847
15   0.136933
16   0.136128
17   0.137785
18   0.133351
19   0.141754
20   0.127113
21   0.167479

>  <lowdin_charges>
21
1   -0.473658
2   -0.147367
3   -0.152165
4   -0.153945
5   -0.146688
6   -0.147131
7   -0.218211
8   -0.096538
9   0.156113
10   -0.008899
11   -0.254856
12   0.16713
13   0.167004
14   0.173331
15   0.162344
16   0.160759
17   0.16148
18   0.159133
19   0.162737
20   0.154272
21   0.175154

$$$$

