PCCDB-ID:  7252
public computational chemistry database (PCCDB) project, http://pccdb.org

 19 19  0  0  0  0  0  0  0  0999 V2000
    1.0003   -0.0225    0.0482 C   0  0  0  0  0  0  0  0  0  0  0  0
    5.3010   -0.0079   -0.2778 C   0  0  0  0  0  0  0  0  0  0  0  0
    4.6045   -1.2129   -0.2201 C   0  0  0  0  0  0  0  0  0  0  0  0
    3.2158    1.1757   -0.1493 C   0  0  0  0  0  0  0  0  0  0  0  0
    2.5037   -0.0231   -0.0802 C   0  0  0  0  0  0  0  0  0  0  0  0
    4.6142    1.2119   -0.2477 C   0  0  0  0  0  0  0  0  0  0  0  0
    3.2087   -1.2448   -0.1206 C   0  0  0  0  0  0  0  0  0  0  0  0
    5.3071    2.4403   -0.2448 N   0  0  0  0  0  0  0  0  0  0  0  0
    2.5172   -2.4697    0.0121 N   0  0  0  0  0  0  0  0  0  0  0  0
    0.6102    0.9963    0.1314 H   0  0  0  0  0  0  0  0  0  0  0  0
    0.6770   -0.5845    0.9340 H   0  0  0  0  0  0  0  0  0  0  0  0
    0.5090   -0.4873   -0.8203 H   0  0  0  0  0  0  0  0  0  0  0  0
    6.3867   -0.0167   -0.3477 H   0  0  0  0  0  0  0  0  0  0  0  0
    5.1580   -2.1498   -0.2508 H   0  0  0  0  0  0  0  0  0  0  0  0
    2.6633    2.1135   -0.1137 H   0  0  0  0  0  0  0  0  0  0  0  0
    6.2106    2.3934   -0.7030 H   0  0  0  0  0  0  0  0  0  0  0  0
    4.7673    3.2080   -0.6289 H   0  0  0  0  0  0  0  0  0  0  0  0
    3.0715   -3.2673   -0.2801 H   0  0  0  0  0  0  0  0  0  0  0  0
    1.6217   -2.4871   -0.4644 H   0  0  0  0  0  0  0  0  0  0  0  0
  1 10  1  0  0  0  0
  1 11  1  0  0  0  0
  2  6  2  0  0  0  0
  2  3  1  0  0  0  0
  3  7  2  0  0  0  0
  4 15  1  0  0  0  0
  4  5  2  0  0  0  0
  5  1  1  0  0  0  0
  6  8  1  0  0  0  0
  6  4  1  0  0  0  0
  7  5  1  0  0  0  0
  7  9  1  0  0  0  0
 12  1  1  0  0  0  0
 13  2  1  0  0  0  0
 14  3  1  0  0  0  0
 16  8  1  0  0  0  0
 17  8  1  0  0  0  0
 18  9  1  0  0  0  0
 19  9  1  0  0  0  0
M  END
>  <HBA>
2

>  <HBD>
2

>  <TPSA>
52.04

>  <cid>
7252

>  <dipole>
2.41

>  <excitation_energy_1>
4.116

>  <excitation_energy_2>
4.218

>  <excitation_energy_3>
4.288

>  <excitation_energy_4>
4.73

>  <homo_energy>
-4.601

>  <homo_lumo_gap>
5.007

>  <logP>
2.322

>  <lumo_energy>
0.405

>  <melting_point>
107.47

>  <molecular_refractivity>
40.22

>  <oscillator_strength_1>
0.0157

>  <oscillator_strength_2>
0.0424

>  <oscillator_strength_3>
0.0076

>  <oscillator_strength_4>
0.0013

>  <open_babel_can_smiles>
Nc1ccc(c(c1)C)N

>  <mulliken_charges>
19
1   -0.549038
2   -0.184025
3   -0.177154
4   -0.250579
5   0.165926
6   0.305095
7   0.223427
8   -0.78815
9   -0.788849
10   0.155176
11   0.171454
12   0.143894
13   0.110837
14   0.110523
15   0.105453
16   0.310953
17   0.311107
18   0.310659
19   0.313292

>  <lowdin_charges>
19
1   -0.444103
2   -0.192964
3   -0.189097
4   -0.201427
5   -0.023644
6   0.037211
7   0.024344
8   -0.501191
9   -0.50246
10   0.157151
11   0.163224
12   0.148514
13   0.148457
14   0.149675
15   0.147925
16   0.269038
17   0.270459
18   0.26939
19   0.269498

$$$$

