PCCDB-ID:  17888
public computational chemistry database (PCCDB) project, http://pccdb.org

 27 26  0  0  0  0  0  0  0  0999 V2000
    3.7191    0.0431    1.0300 C   0  0  0  0  0  0  0  0  0  0  0  0
    1.7778   -5.5066   -1.9203 C   0  0  0  0  0  0  0  0  0  0  0  0
    0.1685   -1.9809    0.0468 C   0  0  0  0  0  0  0  0  0  0  0  0
    0.4241   -0.9497   -2.2610 C   0  0  0  0  0  0  0  0  0  0  0  0
    2.9374   -0.3372    0.0125 C   0  0  0  0  0  0  0  0  0  0  0  0
    0.2250   -3.4295   -2.0363 C   0  0  0  0  0  0  0  0  0  0  0  0
    0.6246   -4.7249   -1.3283 C   0  0  0  0  0  0  0  0  0  0  0  0
    3.1110   -1.6112   -0.7388 C   0  0  0  0  0  0  0  0  0  0  0  0
    0.7948   -2.1431   -1.3534 C   0  0  0  0  0  0  0  0  0  0  0  0
    2.2512   -2.3381   -1.3217 N   0  0  0  0  0  0  0  0  0  0  0  0
    0.0390   -5.0933   -0.3243 O   0  0  0  0  0  0  0  0  0  0  0  0
    4.4033   -2.0752   -0.7831 O   0  0  0  0  0  0  0  0  0  0  0  0
    3.5469    0.9782    1.5545 H   0  0  0  0  0  0  0  0  0  0  0  0
    4.5308   -0.5766    1.4042 H   0  0  0  0  0  0  0  0  0  0  0  0
    2.6563   -4.8526   -1.9638 H   0  0  0  0  0  0  0  0  0  0  0  0
    1.5453   -5.8101   -2.9496 H   0  0  0  0  0  0  0  0  0  0  0  0
    1.9845   -6.3910   -1.3136 H   0  0  0  0  0  0  0  0  0  0  0  0
   -0.9233   -1.9414   -0.0339 H   0  0  0  0  0  0  0  0  0  0  0  0
    0.5039   -1.0604    0.5329 H   0  0  0  0  0  0  0  0  0  0  0  0
    0.4213   -2.8277    0.6887 H   0  0  0  0  0  0  0  0  0  0  0  0
   -0.6580   -0.9240   -2.4311 H   0  0  0  0  0  0  0  0  0  0  0  0
    0.9237   -1.0374   -3.2314 H   0  0  0  0  0  0  0  0  0  0  0  0
    0.7090    0.0100   -1.8173 H   0  0  0  0  0  0  0  0  0  0  0  0
    2.1104    0.2957   -0.2895 H   0  0  0  0  0  0  0  0  0  0  0  0
   -0.8693   -3.3729   -2.0400 H   0  0  0  0  0  0  0  0  0  0  0  0
    0.5782   -3.4461   -3.0734 H   0  0  0  0  0  0  0  0  0  0  0  0
    5.0006   -1.3422   -0.5662 H   0  0  0  0  0  0  0  0  0  0  0  0
  1 14  1  0  0  0  0
  1 13  1  0  0  0  0
  2  7  1  0  0  0  0
  2 17  1  0  0  0  0
  3 19  1  0  0  0  0
  3 20  1  0  0  0  0
  4 23  1  0  0  0  0
  4  9  1  0  0  0  0
  5  1  2  0  0  0  0
  6  9  1  0  0  0  0
  6  7  1  0  0  0  0
  7 11  2  0  0  0  0
  8  5  1  0  0  0  0
  9 10  1  0  0  0  0
  9  3  1  0  0  0  0
 10  8  2  0  0  0  0
 12  8  1  0  0  0  0
 12 27  1  0  0  0  0
 15  2  1  0  0  0  0
 16  2  1  0  0  0  0
 18  3  1  0  0  0  0
 21  4  1  0  0  0  0
 22  4  1  0  0  0  0
 24  5  1  0  0  0  0
 25  6  1  0  0  0  0
 26  6  1  0  0  0  0
M  END
>  <HBA>
3

>  <HBD>
1

>  <TPSA>
46.17

>  <cid>
17888

>  <dipole>
4.76

>  <excitation_energy_1>
4.063

>  <excitation_energy_2>
4.198

>  <excitation_energy_3>
4.356

>  <excitation_energy_4>
5.064

>  <homo_energy>
-6.163

>  <homo_lumo_gap>
4.852

>  <logP>
1.437

>  <lumo_energy>
-1.312

>  <melting_point>
31.83

>  <molecular_refractivity>
48.14

>  <oscillator_strength_1>
0.0007

>  <oscillator_strength_2>
0.0006

>  <oscillator_strength_3>
0.0017

>  <oscillator_strength_4>
0.1937

>  <open_babel_can_smiles>
C=C/C(=N\C(CC(=O)C)(C)C)/O

>  <mulliken_charges>
27
1   -0.350882
2   -0.534503
3   -0.452244
4   -0.45394
5   -0.123274
6   -0.322765
7   0.463346
8   0.461687
9   0.18245
10   -0.437657
11   -0.455392
12   -0.583717
13   0.165272
14   0.162593
15   0.20488
16   0.15497
17   0.164837
18   0.145384
19   0.131853
20   0.182919
21   0.148602
22   0.156344
23   0.140077
24   0.161437
25   0.150037
26   0.137745
27   0.399941

>  <lowdin_charges>
27
1   -0.310933
2   -0.478922
3   -0.453211
4   -0.444916
5   -0.185373
6   -0.305751
7   0.175283
8   0.135956
9   0.079899
10   -0.200154
11   -0.249157
12   -0.374419
13   0.172174
14   0.166572
15   0.187607
16   0.162639
17   0.165336
18   0.152659
19   0.14667
20   0.171237
21   0.152897
22   0.155949
23   0.144611
24   0.171821
25   0.157226
26   0.150941
27   0.353359

$$$$

