PCCDB-ID:  7881
public computational chemistry database (PCCDB) project, http://pccdb.org

 32 31  0  0  0  0  0  0  0  0999 V2000
    2.7317   -0.4362    1.4238 C   0  0  0  0  0  0  0  0  0  0  0  0
    8.7824   -0.3546    2.8014 C   0  0  0  0  0  0  0  0  0  0  0  0
    3.5950    0.7549    0.9970 C   0  0  0  0  0  0  0  0  0  0  0  0
    9.8476    0.6798    2.4198 C   0  0  0  0  0  0  0  0  0  0  0  0
    3.5928    1.8857    2.0329 C   0  0  0  0  0  0  0  0  0  0  0  0
    9.7980    1.1329    0.9516 C   0  0  0  0  0  0  0  0  0  0  0  0
    4.4296    3.0943    1.6443 C   0  0  0  0  0  0  0  0  0  0  0  0
    8.4912    1.7863    0.5269 C   0  0  0  0  0  0  0  0  0  0  0  0
    6.6913    4.1884   -0.2588 O   0  0  0  0  0  0  0  0  0  0  0  0
    6.9512    4.9980    2.2010 O   0  0  0  0  0  0  0  0  0  0  0  0
    5.8225    2.6922    1.5646 O   0  0  0  0  0  0  0  0  0  0  0  0
    8.2799    2.9572    1.3578 O   0  0  0  0  0  0  0  0  0  0  0  0
    6.9385    3.8209    1.3109 P   0  0  0  0  0  0  0  0  0  0  0  0
    2.7499   -1.2326    0.6714 H   0  0  0  0  0  0  0  0  0  0  0  0
    1.6856   -0.1384    1.5677 H   0  0  0  0  0  0  0  0  0  0  0  0
    3.0865   -0.8644    2.3694 H   0  0  0  0  0  0  0  0  0  0  0  0
    8.9246   -0.6957    3.8329 H   0  0  0  0  0  0  0  0  0  0  0  0
    8.8285   -1.2374    2.1505 H   0  0  0  0  0  0  0  0  0  0  0  0
    7.7707    0.0612    2.7339 H   0  0  0  0  0  0  0  0  0  0  0  0
    3.2357    1.1449    0.0341 H   0  0  0  0  0  0  0  0  0  0  0  0
    4.6271    0.4243    0.8291 H   0  0  0  0  0  0  0  0  0  0  0  0
   10.8446    0.2629    2.6124 H   0  0  0  0  0  0  0  0  0  0  0  0
    9.7508    1.5607    3.0651 H   0  0  0  0  0  0  0  0  0  0  0  0
    3.9497    1.5099    3.0008 H   0  0  0  0  0  0  0  0  0  0  0  0
    2.5644    2.2397    2.1933 H   0  0  0  0  0  0  0  0  0  0  0  0
    9.9566    0.2702    0.2878 H   0  0  0  0  0  0  0  0  0  0  0  0
   10.6185    1.8351    0.7584 H   0  0  0  0  0  0  0  0  0  0  0  0
    4.3413    3.8914    2.3895 H   0  0  0  0  0  0  0  0  0  0  0  0
    4.1293    3.4889    0.6659 H   0  0  0  0  0  0  0  0  0  0  0  0
    7.6418    1.1077    0.6497 H   0  0  0  0  0  0  0  0  0  0  0  0
    8.5325    2.1067   -0.5199 H   0  0  0  0  0  0  0  0  0  0  0  0
    6.8987    5.1271   -0.3992 H   0  0  0  0  0  0  0  0  0  0  0  0
  1 15  1  0  0  0  0
  1 16  1  0  0  0  0
  2 17  1  0  0  0  0
  3  1  1  0  0  0  0
  3  5  1  0  0  0  0
  4 22  1  0  0  0  0
  4  2  1  0  0  0  0
  4 23  1  0  0  0  0
  5 25  1  0  0  0  0
  5 24  1  0  0  0  0
  6  4  1  0  0  0  0
  7  5  1  0  0  0  0
  7 28  1  0  0  0  0
  8 30  1  0  0  0  0
  8  6  1  0  0  0  0
  8 12  1  0  0  0  0
  9 13  1  0  0  0  0
 11  7  1  0  0  0  0
 13 12  1  0  0  0  0
 13 11  1  0  0  0  0
 13 10  2  0  0  0  0
 14  1  1  0  0  0  0
 18  2  1  0  0  0  0
 19  2  1  0  0  0  0
 20  3  1  0  0  0  0
 21  3  1  0  0  0  0
 26  6  1  0  0  0  0
 27  6  1  0  0  0  0
 29  7  1  0  0  0  0
 31  8  1  0  0  0  0
 32  9  1  0  0  0  0
M  END
>  <HBA>
4

>  <HBD>
1

>  <TPSA>
65.57

>  <cid>
7881

>  <dipole>
3.28

>  <excitation_energy_1>
6.911

>  <excitation_energy_2>
7.081

>  <excitation_energy_3>
7.339

>  <excitation_energy_4>
7.685

>  <homo_energy>
-7.744

>  <homo_lumo_gap>
8.912

>  <logP>
2.72

>  <lumo_energy>
1.167

>  <melting_point>
7.44

>  <molecular_refractivity>
52.57

>  <oscillator_strength_1>
0.0263

>  <oscillator_strength_2>
0.0106

>  <oscillator_strength_3>
0.0087

>  <oscillator_strength_4>
0.0013

>  <open_babel_can_smiles>
CCCCOP(=O)(OCCCC)O

>  <mulliken_charges>
32
1   -0.443259
2   -0.454177
3   -0.250813
4   -0.250676
5   -0.271694
6   -0.276635
7   -0.045569
8   -0.047912
9   -0.674893
10   -0.549326
11   -0.540279
12   -0.504591
13   1.194669
14   0.145436
15   0.142224
16   0.14539
17   0.147029
18   0.136449
19   0.15693
20   0.132211
21   0.150827
22   0.133804
23   0.163379
24   0.15205
25   0.138546
26   0.134958
27   0.149832
28   0.171999
29   0.154313
30   0.166227
31   0.156664
32   0.436886

>  <lowdin_charges>
32
1   -0.443204
2   -0.448109
3   -0.272966
4   -0.2753
5   -0.279926
6   -0.28362
7   -0.117904
8   -0.11917
9   -0.583815
10   -0.582813
11   -0.399523
12   -0.384005
13   1.112305
14   0.151877
15   0.145334
16   0.148459
17   0.152143
18   0.143642
19   0.151151
20   0.140218
21   0.14664
22   0.143482
23   0.155625
24   0.15188
25   0.149151
26   0.148396
27   0.153424
28   0.161363
29   0.148569
30   0.153455
31   0.150629
32   0.382611

$$$$

