PCCDB-ID:  25648
public computational chemistry database (PCCDB) project, http://pccdb.org

 25 25  0  0  1  0  0  0  0  0999 V2000
    0.9506   -0.0628    0.0778 C   0  0  0  0  0  0  0  0  0  0  0  0
    6.7758    3.8542    1.8889 C   0  0  0  0  0  0  0  0  0  0  0  0
    4.4190   -1.3556    0.8142 C   0  0  0  0  0  0  0  0  0  0  0  0
    2.8817   -1.2933    0.8465 C   0  0  0  0  0  0  0  0  0  0  0  0
    2.8772    1.1159    0.9268 C   0  0  0  0  0  0  0  0  0  0  0  0
    4.4175    1.2007    0.8722 C   0  0  2  0  0  0  0  0  0  0  0  0
    5.0326   -0.1016    1.4105 C   0  0  0  0  0  0  0  0  0  0  0  0
    4.9444    2.3986    1.6409 C   0  0  0  0  0  0  0  0  0  0  0  0
    2.4020   -0.0676    0.2139 N   0  0  0  0  0  0  0  0  0  0  0  0
    5.9134   -0.1199    2.2454 O   0  0  0  0  0  0  0  0  0  0  0  0
    4.3696    2.9416    2.5591 O   0  0  0  0  0  0  0  0  0  0  0  0
    6.1443    2.7831    1.1670 O   0  0  0  0  0  0  0  0  0  0  0  0
    0.6350   -0.9311   -0.5103 H   0  0  0  0  0  0  0  0  0  0  0  0
    0.6339    0.8409   -0.4534 H   0  0  0  0  0  0  0  0  0  0  0  0
    0.4203   -0.0937    1.0489 H   0  0  0  0  0  0  0  0  0  0  0  0
    7.7242    4.0293    1.3805 H   0  0  0  0  0  0  0  0  0  0  0  0
    6.9446    3.5622    2.9284 H   0  0  0  0  0  0  0  0  0  0  0  0
    6.1535    4.7527    1.8652 H   0  0  0  0  0  0  0  0  0  0  0  0
    4.7437   -1.4291   -0.2327 H   0  0  0  0  0  0  0  0  0  0  0  0
    4.7973   -2.2250    1.3591 H   0  0  0  0  0  0  0  0  0  0  0  0
    2.5334   -1.3777    1.8959 H   0  0  0  0  0  0  0  0  0  0  0  0
    2.4705   -2.1513    0.3031 H   0  0  0  0  0  0  0  0  0  0  0  0
    2.4524    2.0064    0.4517 H   0  0  0  0  0  0  0  0  0  0  0  0
    2.5564    1.1325    1.9844 H   0  0  0  0  0  0  0  0  0  0  0  0
    4.7265    1.2826   -0.1778 H   0  0  0  0  0  0  0  0  0  0  0  0
  1  9  1  0  0  0  0
  1 15  1  0  0  0  0
  2 17  1  0  0  0  0
  3  4  1  0  0  0  0
  3 20  1  0  0  0  0
  3  7  1  0  0  0  0
  4 21  1  0  0  0  0
  5 24  1  0  0  0  0
  6 25  1  6  0  0  0
  6  5  1  0  0  0  0
  6  7  1  0  0  0  0
  6  8  1  0  0  0  0
  7 10  2  0  0  0  0
  8 11  2  0  0  0  0
  9  4  1  0  0  0  0
  9  5  1  0  0  0  0
 12  8  1  0  0  0  0
 12  2  1  0  0  0  0
 13  1  1  0  0  0  0
 14  1  1  0  0  0  0
 16  2  1  0  0  0  0
 18  2  1  0  0  0  0
 19  3  1  0  0  0  0
 22  4  1  0  0  0  0
 23  5  1  0  0  0  0
M  END
>  <HBA>
4

>  <HBD>
0

>  <TPSA>
46.61

>  <cid>
25648

>  <dipole>
2.66

>  <excitation_energy_1>
4.282

>  <excitation_energy_2>
4.459

>  <excitation_energy_3>
5.454

>  <excitation_energy_4>
5.771

>  <homo_energy>
-6.174

>  <homo_lumo_gap>
5.527

>  <logP>
-0.382

>  <lumo_energy>
-0.648

>  <melting_point>
31.16

>  <molecular_refractivity>
46.75

>  <oscillator_strength_1>
0.0001

>  <oscillator_strength_2>
0.0023

>  <oscillator_strength_3>
0.0093

>  <oscillator_strength_4>
0.0136

>  <open_babel_can_smiles>
COC(=O)[C@@H]1CN(C)CCC1=O

>  <mulliken_charges>
25
1   -0.295821
2   -0.219939
3   -0.340505
4   -0.132836
5   -0.125699
6   -0.283122
7   0.449038
8   0.65183
9   -0.392857
10   -0.434647
11   -0.480497
12   -0.45006
13   0.152389
14   0.154552
15   0.127486
16   0.165334
17   0.178678
18   0.168807
19   0.170961
20   0.168238
21   0.127969
22   0.148938
23   0.154244
24   0.150845
25   0.186673

>  <lowdin_charges>
25
1   -0.355112
2   -0.276857
3   -0.306505
4   -0.196048
5   -0.194139
6   -0.188628
7   0.162945
8   0.204627
9   -0.189322
10   -0.219355
11   -0.260017
12   -0.181874
13   0.152799
14   0.153736
15   0.126442
16   0.161175
17   0.162899
18   0.158846
19   0.168775
20   0.169378
21   0.122001
22   0.152617
23   0.156193
24   0.136087
25   0.179336

$$$$

