PCCDB-ID:  4386
public computational chemistry database (PCCDB) project, http://pccdb.org

 27 28  0  0  0  0  0  0  0  0999 V2000
    3.2502    3.6571   -1.0244 C   0  0  0  0  0  0  0  0  0  0  0  0
    4.0055    2.7150   -1.7271 C   0  0  0  0  0  0  0  0  0  0  0  0
    2.2314    3.2204   -0.1774 C   0  0  0  0  0  0  0  0  0  0  0  0
    5.4306   -3.4062   -0.1000 C   0  0  0  0  0  0  0  0  0  0  0  0
    5.5623   -2.1498    0.4962 C   0  0  0  0  0  0  0  0  0  0  0  0
    3.7472    1.3525   -1.5938 C   0  0  0  0  0  0  0  0  0  0  0  0
    1.9747    1.8577   -0.0258 C   0  0  0  0  0  0  0  0  0  0  0  0
    4.3168   -3.6812   -0.8853 C   0  0  0  0  0  0  0  0  0  0  0  0
    4.5747   -1.1850    0.3134 C   0  0  0  0  0  0  0  0  0  0  0  0
    2.7292    0.9151   -0.7346 C   0  0  0  0  0  0  0  0  0  0  0  0
    3.3205   -2.7170   -1.0997 C   0  0  0  0  0  0  0  0  0  0  0  0
    3.4545   -1.4579   -0.4797 C   0  0  0  0  0  0  0  0  0  0  0  0
    2.1887   -3.1294   -2.0186 C   0  0  0  0  0  0  0  0  0  0  0  0
    2.4070   -0.4696   -0.6377 N   0  0  0  0  0  0  0  0  0  0  0  0
    2.0663   -4.2734   -2.4001 O   0  0  0  0  0  0  0  0  0  0  0  0
    1.3357   -2.1706   -2.4150 O   0  0  0  0  0  0  0  0  0  0  0  0
    3.4535    4.7179   -1.1370 H   0  0  0  0  0  0  0  0  0  0  0  0
    4.7979    3.0414   -2.3951 H   0  0  0  0  0  0  0  0  0  0  0  0
    1.6353    3.9395    0.3777 H   0  0  0  0  0  0  0  0  0  0  0  0
    6.1944   -4.1647    0.0450 H   0  0  0  0  0  0  0  0  0  0  0  0
    6.4266   -1.9231    1.1146 H   0  0  0  0  0  0  0  0  0  0  0  0
    4.3279    0.6262   -2.1542 H   0  0  0  0  0  0  0  0  0  0  0  0
    1.1844    1.5241    0.6439 H   0  0  0  0  0  0  0  0  0  0  0  0
    4.1879   -4.6459   -1.3639 H   0  0  0  0  0  0  0  0  0  0  0  0
    4.6637   -0.2115    0.7853 H   0  0  0  0  0  0  0  0  0  0  0  0
    1.6547   -0.6246    0.0310 H   0  0  0  0  0  0  0  0  0  0  0  0
    1.6078   -1.3138   -1.9969 H   0  0  0  0  0  0  0  0  0  0  0  0
  1  3  2  0  0  0  0
  2  6  2  0  0  0  0
  2  1  1  0  0  0  0
  3  7  1  0  0  0  0
  3 19  1  0  0  0  0
  4 20  1  0  0  0  0
  4  5  2  0  0  0  0
  5 21  1  0  0  0  0
  6 10  1  0  0  0  0
  7 23  1  0  0  0  0
  8  4  1  0  0  0  0
  9  5  1  0  0  0  0
  9 25  1  0  0  0  0
 10 14  1  0  0  0  0
 10  7  2  0  0  0  0
 11  8  2  0  0  0  0
 11 12  1  0  0  0  0
 12  9  2  0  0  0  0
 13 11  1  0  0  0  0
 14 12  1  0  0  0  0
 14 26  1  0  0  0  0
 15 13  2  0  0  0  0
 16 13  1  0  0  0  0
 16 27  1  0  0  0  0
 17  1  1  0  0  0  0
 18  2  1  0  0  0  0
 22  6  1  0  0  0  0
 24  8  1  0  0  0  0
M  END
>  <HBA>
2

>  <HBD>
2

>  <TPSA>
49.33

>  <cid>
4386

>  <dipole>
6.05

>  <excitation_energy_1>
4.053

>  <excitation_energy_2>
4.584

>  <excitation_energy_3>
4.601

>  <excitation_energy_4>
4.923

>  <homo_energy>
-6.191

>  <homo_lumo_gap>
4.884

>  <logP>
3.201

>  <lumo_energy>
-1.306

>  <melting_point>
169.77

>  <molecular_refractivity>
62.95

>  <oscillator_strength_1>
0.0736

>  <oscillator_strength_2>
0.0095

>  <oscillator_strength_3>
0.0229

>  <oscillator_strength_4>
0.0265

>  <open_babel_can_smiles>
OC(=O)c1ccccc1Nc1ccccc1

>  <mulliken_charges>
27
1   -0.128747
2   -0.138573
3   -0.133004
4   -0.122611
5   -0.135077
6   -0.154052
7   -0.196344
8   -0.177237
9   -0.144325
10   0.318822
11   0.008585
12   0.225769
13   0.563609
14   -0.812881
15   -0.462521
16   -0.599311
17   0.133974
18   0.138704
19   0.137313
20   0.14286
21   0.143374
22   0.147005
23   0.127616
24   0.177022
25   0.152252
26   0.347179
27   0.440598

>  <lowdin_charges>
27
1   -0.167616
2   -0.143567
3   -0.14575
4   -0.155878
5   -0.138712
6   -0.182103
7   -0.192446
8   -0.123464
9   -0.167909
10   0.047439
11   -0.070062
12   0.033494
13   0.185312
14   -0.294486
15   -0.257808
16   -0.365764
17   0.15946
18   0.163047
19   0.163389
20   0.165753
21   0.16486
22   0.169233
23   0.157096
24   0.183949
25   0.170596
26   0.288084
27   0.353852

$$$$

