PCCDB-ID:  13845
public computational chemistry database (PCCDB) project, http://pccdb.org

 38 37  0  0  1  0  0  0  0  0999 V2000
    2.6226   -0.5404    2.0699 C   0  0  0  0  0  0  0  0  0  0  0  0
   10.3917    3.9913   -4.1559 C   0  0  0  0  0  0  0  0  0  0  0  0
    8.2617    5.5110   -5.9558 C   0  0  0  0  0  0  0  0  0  0  0  0
    3.1057    0.7828    1.4675 C   0  0  0  0  0  0  0  0  0  0  0  0
    9.4011    3.3707   -5.1504 C   0  0  0  0  0  0  0  0  0  0  0  0
    4.0257    0.5971    0.2538 C   0  0  0  0  0  0  0  0  0  0  0  0
    4.5086    1.9187   -0.3572 C   0  0  0  0  0  0  0  0  0  0  0  0
    5.4286    1.7373   -1.5716 C   0  0  0  0  0  0  0  0  0  0  0  0
    5.8890    3.0632   -2.1912 C   0  0  0  0  0  0  0  0  0  0  0  0
    6.8061    2.8917   -3.4099 C   0  0  0  0  0  0  0  0  0  0  0  0
    7.2242    4.2290   -4.0373 C   0  0  0  0  0  0  0  0  0  0  0  0
    8.0602    4.1214   -5.3296 C   0  0  1  0  0  0  0  0  0  0  0  0
    1.9679   -0.3728    2.9329 H   0  0  0  0  0  0  0  0  0  0  0  0
    3.4668   -1.1546    2.4070 H   0  0  0  0  0  0  0  0  0  0  0  0
    2.0600   -1.1288    1.3345 H   0  0  0  0  0  0  0  0  0  0  0  0
   11.3167    3.4043   -4.1199 H   0  0  0  0  0  0  0  0  0  0  0  0
    9.9853    4.0217   -3.1384 H   0  0  0  0  0  0  0  0  0  0  0  0
   10.6656    5.0151   -4.4348 H   0  0  0  0  0  0  0  0  0  0  0  0
    8.8402    5.4497   -6.8857 H   0  0  0  0  0  0  0  0  0  0  0  0
    8.7934    6.1886   -5.2769 H   0  0  0  0  0  0  0  0  0  0  0  0
    7.2978    5.9773   -6.1922 H   0  0  0  0  0  0  0  0  0  0  0  0
    3.6347    1.3637    2.2364 H   0  0  0  0  0  0  0  0  0  0  0  0
    2.2374    1.3895    1.1732 H   0  0  0  0  0  0  0  0  0  0  0  0
    9.1950    2.3364   -4.8461 H   0  0  0  0  0  0  0  0  0  0  0  0
    9.8841    3.2997   -6.1350 H   0  0  0  0  0  0  0  0  0  0  0  0
    3.4975    0.0130   -0.5149 H   0  0  0  0  0  0  0  0  0  0  0  0
    4.8961   -0.0081    0.5485 H   0  0  0  0  0  0  0  0  0  0  0  0
    5.0343    2.5034    0.4124 H   0  0  0  0  0  0  0  0  0  0  0  0
    3.6362    2.5212   -0.6513 H   0  0  0  0  0  0  0  0  0  0  0  0
    4.9076    1.1421   -2.3363 H   0  0  0  0  0  0  0  0  0  0  0  0
    6.3090    1.1472   -1.2763 H   0  0  0  0  0  0  0  0  0  0  0  0
    6.4087    3.6601   -1.4268 H   0  0  0  0  0  0  0  0  0  0  0  0
    5.0057    3.6505   -2.4835 H   0  0  0  0  0  0  0  0  0  0  0  0
    6.2910    2.2816   -4.1673 H   0  0  0  0  0  0  0  0  0  0  0  0
    7.6948    2.3185   -3.1115 H   0  0  0  0  0  0  0  0  0  0  0  0
    7.7699    4.8265   -3.2926 H   0  0  0  0  0  0  0  0  0  0  0  0
    6.3151    4.8037   -4.2677 H   0  0  0  0  0  0  0  0  0  0  0  0
    7.4702    3.5270   -6.0452 H   0  0  0  0  0  0  0  0  0  0  0  0
  1 14  1  0  0  0  0
  1 13  1  0  0  0  0
  2 16  1  0  0  0  0
  2 17  1  0  0  0  0
  3 12  1  0  0  0  0
  3 20  1  0  0  0  0
  4  1  1  0  0  0  0
  4 22  1  0  0  0  0
  5 24  1  0  0  0  0
  5  2  1  0  0  0  0
  6 27  1  0  0  0  0
  6  4  1  0  0  0  0
  7  6  1  0  0  0  0
  7 28  1  0  0  0  0
  8 31  1  0  0  0  0
  8  7  1  0  0  0  0
  9  8  1  0  0  0  0
  9 32  1  0  0  0  0
 10 35  1  0  0  0  0
 10  9  1  0  0  0  0
 11 10  1  0  0  0  0
 11 36  1  0  0  0  0
 12 38  1  6  0  0  0
 12  5  1  0  0  0  0
 12 11  1  0  0  0  0
 15  1  1  0  0  0  0
 18  2  1  0  0  0  0
 19  3  1  0  0  0  0
 21  3  1  0  0  0  0
 23  4  1  0  0  0  0
 25  5  1  0  0  0  0
 26  6  1  0  0  0  0
 29  7  1  0  0  0  0
 30  8  1  0  0  0  0
 33  9  1  0  0  0  0
 34 10  1  0  0  0  0
 37 11  1  0  0  0  0
M  END
>  <HBA>
0

>  <HBD>
0

>  <TPSA>
0.0

>  <cid>
13845

>  <dipole>
0.05

>  <excitation_energy_1>
7.487

>  <excitation_energy_2>
7.735

>  <excitation_energy_3>
7.74

>  <excitation_energy_4>
7.845

>  <homo_energy>
-7.832

>  <homo_lumo_gap>
9.995

>  <logP>
4.783

>  <lumo_energy>
2.163

>  <melting_point>
-30.55

>  <molecular_refractivity>
59.8

>  <oscillator_strength_1>
0.015

>  <oscillator_strength_2>
0.0063

>  <oscillator_strength_3>
0.0083

>  <oscillator_strength_4>
0.0133

>  <open_babel_can_smiles>
CCCCCCCC[C@H](CC)C

>  <mulliken_charges>
38
1   -0.440984
2   -0.450653
3   -0.449717
4   -0.246634
5   -0.254231
6   -0.245369
7   -0.252093
8   -0.252813
9   -0.25301
10   -0.260214
11   -0.253453
12   -0.065464
13   0.140857
14   0.140755
15   0.140734
16   0.141349
17   0.145036
18   0.14539
19   0.137466
20   0.141739
21   0.138802
22   0.129533
23   0.129521
24   0.133146
25   0.126839
26   0.125783
27   0.1258
28   0.126221
29   0.126178
30   0.126199
31   0.126129
32   0.126295
33   0.126169
34   0.125596
35   0.132229
36   0.127318
37   0.123957
38   0.115595

>  <lowdin_charges>
38
1   -0.446972
2   -0.447972
3   -0.448044
4   -0.274209
5   -0.276022
6   -0.276575
7   -0.276195
8   -0.276217
9   -0.275445
10   -0.278722
11   -0.27955
12   -0.125766
13   0.149183
14   0.146741
15   0.14723
16   0.150174
17   0.145857
18   0.146679
19   0.146499
20   0.147182
21   0.147433
22   0.139725
23   0.139078
24   0.139882
25   0.139563
26   0.138171
27   0.13756
28   0.138462
29   0.13776
30   0.138409
31   0.137665
32   0.138491
33   0.137461
34   0.138301
35   0.139571
36   0.138982
37   0.139398
38   0.136233

$$$$

