PCCDB-ID:  21876
public computational chemistry database (PCCDB) project, http://pccdb.org

 16 17  0  0  0  0  0  0  0  0999 V2000
   -2.3252    0.0352    0.0206 C   0  0  0  0  0  0  0  0  0  0  0  0
    1.9938    0.6355   -0.0300 C   0  0  0  0  0  0  0  0  0  0  0  0
   -0.3332   -0.6946    0.0028 C   0  0  0  0  0  0  0  0  0  0  0  0
   -0.2159    0.7005   -0.0306 C   0  0  0  0  0  0  0  0  0  0  0  0
    0.8895   -1.3967    0.0121 C   0  0  0  0  0  0  0  0  0  0  0  0
   -1.6570   -1.0930    0.0375 N   0  0  0  0  0  0  0  0  0  0  0  0
   -1.5163    1.1524   -0.0215 N   0  0  0  0  0  0  0  0  0  0  0  0
    0.9167    1.4189   -0.0517 N   0  0  0  0  0  0  0  0  0  0  0  0
    2.0446   -0.7090    0.0043 N   0  0  0  0  0  0  0  0  0  0  0  0
    0.9788   -2.7575   -0.0428 N   0  0  0  0  0  0  0  0  0  0  0  0
    2.2302   -3.3140    0.3000 O   0  0  0  0  0  0  0  0  0  0  0  0
   -3.4039    0.1197    0.0367 H   0  0  0  0  0  0  0  0  0  0  0  0
    2.9576    1.1390   -0.0354 H   0  0  0  0  0  0  0  0  0  0  0  0
   -1.8048    2.1205   -0.0414 H   0  0  0  0  0  0  0  0  0  0  0  0
    0.2400   -3.2891    0.4034 H   0  0  0  0  0  0  0  0  0  0  0  0
    2.8149   -2.5229    0.2478 H   0  0  0  0  0  0  0  0  0  0  0  0
  1 12  1  0  0  0  0
  1  6  2  0  0  0  0
  2  9  1  0  0  0  0
  3  5  1  0  0  0  0
  3  6  1  0  0  0  0
  4  7  1  0  0  0  0
  4  3  2  0  0  0  0
  7  1  1  0  0  0  0
  8  4  1  0  0  0  0
  8  2  2  0  0  0  0
  9  5  2  0  0  0  0
 10  5  1  0  0  0  0
 10 11  1  0  0  0  0
 10 15  1  0  0  0  0
 13  2  1  0  0  0  0
 14  7  1  0  0  0  0
 16 11  1  0  0  0  0
M  END
>  <HBA>
5

>  <HBD>
3

>  <TPSA>
86.72

>  <cid>
21876

>  <dipole>
3.82

>  <excitation_energy_1>
4.534

>  <excitation_energy_2>
4.931

>  <excitation_energy_3>
5.081

>  <excitation_energy_4>
5.277

>  <homo_energy>
-5.826

>  <homo_lumo_gap>
4.944

>  <logP>
0.227

>  <lumo_energy>
-0.882

>  <melting_point>
231.57

>  <molecular_refractivity>
36.91

>  <oscillator_strength_1>
0.1808

>  <oscillator_strength_2>
0.0959

>  <oscillator_strength_3>
0.0027

>  <oscillator_strength_4>
0.0017

>  <open_babel_can_smiles>
ONc1ncnc2c1nc[nH]2

>  <mulliken_charges>
16
1   0.234029
2   0.172309
3   0.211408
4   0.517711
5   0.502805
6   -0.509712
7   -0.650043
8   -0.492997
9   -0.565123
10   -0.367455
11   -0.518641
12   0.172419
13   0.153876
14   0.347014
15   0.359271
16   0.433129

>  <lowdin_charges>
16
1   -0.052363
2   -0.027482
3   -0.054331
4   0.064466
5   0.097746
6   -0.185579
7   -0.185705
8   -0.196885
9   -0.233004
10   -0.13115
11   -0.394077
12   0.173118
13   0.16282
14   0.30477
15   0.302244
16   0.355411

$$$$

