PCCDB-ID:  13629
public computational chemistry database (PCCDB) project, http://pccdb.org

 24 24  0  0  0  0  0  0  0  0999 V2000
    1.0647    0.3420    0.1159 C   0  0  0  0  0  0  0  0  0  0  0  0
    3.5578   -2.4795   -5.2942 C   0  0  0  0  0  0  0  0  0  0  0  0
    2.8310   -4.1632   -2.9660 C   0  0  0  0  0  0  0  0  0  0  0  0
    2.5464   -0.0347   -0.0634 C   0  0  0  0  0  0  0  0  0  0  0  0
    3.4089   -0.4806   -3.7580 C   0  0  0  0  0  0  0  0  0  0  0  0
    3.1828    0.1131   -2.5164 C   0  0  0  0  0  0  0  0  0  0  0  0
    2.7314   -2.0509   -1.5927 C   0  0  0  0  0  0  0  0  0  0  0  0
    3.3009   -1.8630   -3.9392 C   0  0  0  0  0  0  0  0  0  0  0  0
    2.9550   -2.6634   -2.8296 C   0  0  0  0  0  0  0  0  0  0  0  0
    2.8363   -0.6663   -1.4089 C   0  0  0  0  0  0  0  0  0  0  0  0
    0.8903    0.7964    1.0983 H   0  0  0  0  0  0  0  0  0  0  0  0
    0.4223   -0.5418    0.0307 H   0  0  0  0  0  0  0  0  0  0  0  0
    0.7468    1.0570   -0.6514 H   0  0  0  0  0  0  0  0  0  0  0  0
    3.7971   -1.7122   -6.0370 H   0  0  0  0  0  0  0  0  0  0  0  0
    2.6863   -3.0377   -5.6609 H   0  0  0  0  0  0  0  0  0  0  0  0
    4.3955   -3.1890   -5.2674 H   0  0  0  0  0  0  0  0  0  0  0  0
    2.5787   -4.6270   -2.0075 H   0  0  0  0  0  0  0  0  0  0  0  0
    3.7645   -4.6189   -3.3214 H   0  0  0  0  0  0  0  0  0  0  0  0
    2.0513   -4.4431   -3.6868 H   0  0  0  0  0  0  0  0  0  0  0  0
    2.8410   -0.7246    0.7379 H   0  0  0  0  0  0  0  0  0  0  0  0
    3.1631    0.8649    0.0594 H   0  0  0  0  0  0  0  0  0  0  0  0
    3.6817    0.1433   -4.6067 H   0  0  0  0  0  0  0  0  0  0  0  0
    3.2808    1.1915   -2.4087 H   0  0  0  0  0  0  0  0  0  0  0  0
    2.4698   -2.6764   -0.7402 H   0  0  0  0  0  0  0  0  0  0  0  0
  1 11  1  0  0  0  0
  2 16  1  0  0  0  0
  2  8  1  0  0  0  0
  3  9  1  0  0  0  0
  3 17  1  0  0  0  0
  4 21  1  0  0  0  0
  4  1  1  0  0  0  0
  4 20  1  0  0  0  0
  5  6  1  0  0  0  0
  6 23  1  0  0  0  0
  6 10  2  0  0  0  0
  7 10  1  0  0  0  0
  7 24  1  0  0  0  0
  8  5  2  0  0  0  0
  8  9  1  0  0  0  0
  9  7  2  0  0  0  0
 10  4  1  0  0  0  0
 12  1  1  0  0  0  0
 13  1  1  0  0  0  0
 14  2  1  0  0  0  0
 15  2  1  0  0  0  0
 18  3  1  0  0  0  0
 19  3  1  0  0  0  0
 22  5  1  0  0  0  0
M  END
>  <HBA>
0

>  <HBD>
0

>  <TPSA>
0.0

>  <cid>
13629

>  <dipole>
0.34

>  <excitation_energy_1>
5.148

>  <excitation_energy_2>
5.614

>  <excitation_energy_3>
5.771

>  <excitation_energy_4>
5.986

>  <homo_energy>
-6.041

>  <homo_lumo_gap>
6.283

>  <logP>
2.866

>  <lumo_energy>
0.242

>  <melting_point>
16.16

>  <molecular_refractivity>
46.15

>  <oscillator_strength_1>
0.003

>  <oscillator_strength_2>
0.0667

>  <oscillator_strength_3>
0.0125

>  <oscillator_strength_4>
0.0089

>  <open_babel_can_smiles>
CCc1ccc(c(c1)C)C

>  <mulliken_charges>
24
1   -0.432301
2   -0.532126
3   -0.53267
4   -0.340321
5   -0.183854
6   -0.185686
7   -0.247493
8   0.129055
9   0.138462
10   0.186863
11   0.140977
12   0.147993
13   0.148362
14   0.153088
15   0.156983
16   0.157487
17   0.153453
18   0.157596
19   0.15795
20   0.140592
21   0.140645
22   0.117263
23   0.116549
24   0.111135

>  <lowdin_charges>
24
1   -0.441585
2   -0.44313
3   -0.442648
4   -0.271777
5   -0.167653
6   -0.170879
7   -0.179625
8   -0.013432
9   -0.006747
10   -0.004071
11   0.147548
12   0.150254
13   0.151024
14   0.156977
15   0.157578
16   0.157408
17   0.156109
18   0.157595
19   0.158263
20   0.148268
21   0.147925
22   0.15274
23   0.150036
24   0.149823

$$$$

