PCCDB-ID:  27154
public computational chemistry database (PCCDB) project, http://pccdb.org

 33 32  0  0  1  0  0  0  0  0999 V2000
    2.8965   -1.8424    3.1939 C   0  0  0  0  0  0  0  0  0  0  0  0
    0.8212   -0.4103    3.3023 C   0  0  0  0  0  0  0  0  0  0  0  0
    7.6782    3.8191    3.4321 C   0  0  0  0  0  0  0  0  0  0  0  0
    4.4344    0.7703    2.3052 C   0  0  0  0  0  0  0  0  0  0  0  0
    5.1786    2.0901    2.5521 C   0  0  0  0  0  0  0  0  0  0  0  0
    3.0718    0.7055    3.0093 C   0  0  0  0  0  0  0  0  0  0  0  0
    6.5431    2.1479    1.8507 C   0  0  0  0  0  0  0  0  0  0  0  0
    8.5212    3.4911    1.0773 C   0  0  0  0  0  0  0  0  0  0  0  0
    2.2288   -0.5486    2.7028 C   0  0  0  0  0  0  0  0  0  0  0  0
    7.2880    3.4904    1.9842 C   0  0  2  0  0  0  0  0  0  0  0  0
    9.1134    4.7874    1.1087 O   0  0  0  0  0  0  0  0  0  0  0  0
    2.2712   -2.7151    2.9707 H   0  0  0  0  0  0  0  0  0  0  0  0
    3.0486   -1.8135    4.2813 H   0  0  0  0  0  0  0  0  0  0  0  0
    3.8726   -2.0078    2.7254 H   0  0  0  0  0  0  0  0  0  0  0  0
    0.1974   -1.2786    3.0585 H   0  0  0  0  0  0  0  0  0  0  0  0
    0.3125    0.4855    2.9265 H   0  0  0  0  0  0  0  0  0  0  0  0
    0.8674   -0.3322    4.3966 H   0  0  0  0  0  0  0  0  0  0  0  0
    6.7978    3.9420    4.0715 H   0  0  0  0  0  0  0  0  0  0  0  0
    8.2587    4.7448    3.4697 H   0  0  0  0  0  0  0  0  0  0  0  0
    8.2928    3.0153    3.8604 H   0  0  0  0  0  0  0  0  0  0  0  0
    5.0696   -0.0631    2.6350 H   0  0  0  0  0  0  0  0  0  0  0  0
    4.2906    0.6341    1.2226 H   0  0  0  0  0  0  0  0  0  0  0  0
    5.3050    2.2323    3.6338 H   0  0  0  0  0  0  0  0  0  0  0  0
    4.5562    2.9279    2.2043 H   0  0  0  0  0  0  0  0  0  0  0  0
    2.4891    1.5940    2.7243 H   0  0  0  0  0  0  0  0  0  0  0  0
    3.2193    0.7783    4.0982 H   0  0  0  0  0  0  0  0  0  0  0  0
    6.3925    1.9313    0.7822 H   0  0  0  0  0  0  0  0  0  0  0  0
    7.1829    1.3392    2.2368 H   0  0  0  0  0  0  0  0  0  0  0  0
    8.2226    3.2242    0.0501 H   0  0  0  0  0  0  0  0  0  0  0  0
    9.2334    2.7227    1.4248 H   0  0  0  0  0  0  0  0  0  0  0  0
    2.1224   -0.6177    1.6088 H   0  0  0  0  0  0  0  0  0  0  0  0
    6.6277    4.2891    1.6138 H   0  0  0  0  0  0  0  0  0  0  0  0
    9.9223    4.7581    0.5765 H   0  0  0  0  0  0  0  0  0  0  0  0
  1 13  1  0  0  0  0
  2 17  1  0  0  0  0
  3 19  1  0  0  0  0
  3 20  1  0  0  0  0
  3 18  1  0  0  0  0
  4  5  1  0  0  0  0
  4 21  1  0  0  0  0
  4  6  1  0  0  0  0
  5 23  1  0  0  0  0
  6 26  1  0  0  0  0
  7 10  1  0  0  0  0
  7 28  1  0  0  0  0
  7  5  1  0  0  0  0
  8 11  1  0  0  0  0
  8 30  1  0  0  0  0
  8 10  1  0  0  0  0
  9  6  1  0  0  0  0
  9  1  1  0  0  0  0
  9  2  1  0  0  0  0
 10 32  1  6  0  0  0
 10  3  1  0  0  0  0
 12  1  1  0  0  0  0
 14  1  1  0  0  0  0
 15  2  1  0  0  0  0
 16  2  1  0  0  0  0
 22  4  1  0  0  0  0
 24  5  1  0  0  0  0
 25  6  1  0  0  0  0
 27  7  1  0  0  0  0
 29  8  1  0  0  0  0
 31  9  1  0  0  0  0
 33 11  1  0  0  0  0
M  END
>  <HBA>
1

>  <HBD>
1

>  <TPSA>
20.23

>  <cid>
27154

>  <dipole>
1.47

>  <excitation_energy_1>
6.304

>  <excitation_energy_2>
7.266

>  <excitation_energy_3>
7.394

>  <excitation_energy_4>
7.493

>  <homo_energy>
-7.119

>  <homo_lumo_gap>
9.184

>  <logP>
2.831

>  <lumo_energy>
2.065

>  <melting_point>
-10.6

>  <molecular_refractivity>
51.35

>  <oscillator_strength_1>
0.0005

>  <oscillator_strength_2>
0.0096

>  <oscillator_strength_3>
0.0051

>  <oscillator_strength_4>
0.0048

>  <open_babel_can_smiles>
OC[C@@H](CCCCC(C)C)C

>  <mulliken_charges>
33
1   -0.444457
2   -0.441605
3   -0.452654
4   -0.259432
5   -0.257701
6   -0.246418
7   -0.259557
8   -0.025921
9   -0.064941
10   -0.083017
11   -0.622223
12   0.138837
13   0.136954
14   0.144181
15   0.138213
16   0.138741
17   0.137869
18   0.14174
19   0.168932
20   0.129703
21   0.131679
22   0.125298
23   0.13473
24   0.128085
25   0.12454
26   0.122951
27   0.123685
28   0.124019
29   0.114614
30   0.111432
31   0.118566
32   0.132051
33   0.391106

>  <lowdin_charges>
33
1   -0.445108
2   -0.443348
3   -0.450744
4   -0.27499
5   -0.27306
6   -0.273965
7   -0.274786
8   -0.136016
9   -0.117693
10   -0.130802
11   -0.473966
12   0.148166
13   0.142716
14   0.147892
15   0.147477
16   0.147243
17   0.142972
18   0.148455
19   0.162515
20   0.142577
21   0.139956
22   0.134569
23   0.139039
24   0.138858
25   0.139097
26   0.134307
27   0.135822
28   0.137175
29   0.12355
30   0.122837
31   0.131352
32   0.1433
33   0.344605

$$$$

