PCCDB-ID:  10329
public computational chemistry database (PCCDB) project, http://pccdb.org

 17 18  0  0  0  0  0  0  0  0999 V2000
    1.9651    1.0427    0.0080 C   0  0  0  0  0  0  0  0  0  0  0  0
    2.1788   -0.3388   -0.0024 C   0  0  0  0  0  0  0  0  0  0  0  0
    0.6607    1.5547    0.0110 C   0  0  0  0  0  0  0  0  0  0  0  0
    1.1076   -1.2388   -0.0098 C   0  0  0  0  0  0  0  0  0  0  0  0
   -1.9075    0.8987    0.0050 C   0  0  0  0  0  0  0  0  0  0  0  0
   -2.4551   -0.5556   -0.0068 C   0  0  0  0  0  0  0  0  0  0  0  0
   -0.4122    0.6717    0.0038 C   0  0  0  0  0  0  0  0  0  0  0  0
   -0.1772   -0.7050   -0.0069 C   0  0  0  0  0  0  0  0  0  0  0  0
   -1.3170   -1.4557   -0.0144 O   0  0  0  0  0  0  0  0  0  0  0  0
    2.8125    1.7221    0.0126 H   0  0  0  0  0  0  0  0  0  0  0  0
    3.1946   -0.7253   -0.0043 H   0  0  0  0  0  0  0  0  0  0  0  0
    0.4932    2.6292    0.0201 H   0  0  0  0  0  0  0  0  0  0  0  0
    1.2615   -2.3129   -0.0172 H   0  0  0  0  0  0  0  0  0  0  0  0
   -2.2446    1.4499    0.8911 H   0  0  0  0  0  0  0  0  0  0  0  0
   -2.2440    1.4644   -0.8721 H   0  0  0  0  0  0  0  0  0  0  0  0
   -3.0537   -0.7735   -0.8968 H   0  0  0  0  0  0  0  0  0  0  0  0
   -3.0532   -0.7877    0.8799 H   0  0  0  0  0  0  0  0  0  0  0  0
  1  3  1  0  0  0  0
  1 10  1  0  0  0  0
  2  1  2  0  0  0  0
  3 12  1  0  0  0  0
  4  8  2  0  0  0  0
  4  2  1  0  0  0  0
  5 14  1  0  0  0  0
  6  5  1  0  0  0  0
  6 17  1  0  0  0  0
  7  5  1  0  0  0  0
  7  3  2  0  0  0  0
  8  7  1  0  0  0  0
  9  8  1  0  0  0  0
  9  6  1  0  0  0  0
 11  2  1  0  0  0  0
 13  4  1  0  0  0  0
 15  5  1  0  0  0  0
 16  6  1  0  0  0  0
M  END
>  <HBA>
1

>  <HBD>
0

>  <TPSA>
9.23

>  <cid>
10329

>  <dipole>
1.62

>  <excitation_energy_1>
4.764

>  <excitation_energy_2>
5.334

>  <excitation_energy_3>
5.553

>  <excitation_energy_4>
5.592

>  <homo_energy>
-5.611

>  <homo_lumo_gap>
5.636

>  <logP>
1.621

>  <lumo_energy>
0.024

>  <melting_point>
35.84

>  <molecular_refractivity>
35.79

>  <oscillator_strength_1>
0.0608

>  <oscillator_strength_2>
0.0001

>  <oscillator_strength_3>
0.0057

>  <oscillator_strength_4>
0.0428

>  <open_babel_can_smiles>
c1ccc2c(c1)OCC2

>  <mulliken_charges>
17
1   -0.139292
2   -0.13812
3   -0.200977
4   -0.183852
5   -0.378617
6   -0.03598
7   0.107465
8   0.349539
9   -0.529712
10   0.12327
11   0.127925
12   0.124876
13   0.136443
14   0.163742
15   0.16375
16   0.154782
17   0.15476

>  <lowdin_charges>
17
1   -0.181821
2   -0.147567
3   -0.154577
4   -0.189241
5   -0.290234
6   -0.120124
7   -0.048639
8   0.093279
9   -0.213485
10   0.156726
11   0.156914
12   0.154255
13   0.164147
14   0.160004
15   0.160054
16   0.150158
17   0.150151

$$$$

