PCCDB-ID:  61715
public computational chemistry database (PCCDB) project, http://pccdb.org

 23 23  0  0  0  0  0  0  0  0999 V2000
    3.4560    1.9926    0.5186 C   0  0  0  0  0  0  0  0  0  0  0  0
    1.7136    0.2616    1.1258 C   0  0  0  0  0  0  0  0  0  0  0  0
    6.9940    0.3732   -2.0267 C   0  0  0  0  0  0  0  0  0  0  0  0
    5.6181    0.3852   -1.8006 C   0  0  0  0  0  0  0  0  0  0  0  0
    7.8005   -0.3881   -1.1816 C   0  0  0  0  0  0  0  0  0  0  0  0
    3.6066   -0.3820   -0.4248 C   0  0  0  0  0  0  0  0  0  0  0  0
    5.9977   -1.0889    0.0333 C   0  0  0  0  0  0  0  0  0  0  0  0
    3.1888    0.5039    0.7771 C   0  0  0  0  0  0  0  0  0  0  0  0
    5.0849   -0.3579   -0.7425 C   0  0  0  0  0  0  0  0  0  0  0  0
    7.3194   -1.1145   -0.1641 N   0  0  0  0  0  0  0  0  0  0  0  0
    3.1932    2.5944    1.3963 H   0  0  0  0  0  0  0  0  0  0  0  0
    2.8547    2.3570   -0.3253 H   0  0  0  0  0  0  0  0  0  0  0  0
    4.5094    2.1813    0.2867 H   0  0  0  0  0  0  0  0  0  0  0  0
    1.4075    0.8664    1.9873 H   0  0  0  0  0  0  0  0  0  0  0  0
    1.5260   -0.7907    1.3707 H   0  0  0  0  0  0  0  0  0  0  0  0
    1.0616    0.5297    0.2841 H   0  0  0  0  0  0  0  0  0  0  0  0
    7.4330    0.9394   -2.8432 H   0  0  0  0  0  0  0  0  0  0  0  0
    4.9592    0.9645   -2.4439 H   0  0  0  0  0  0  0  0  0  0  0  0
    8.8790   -0.4223   -1.3273 H   0  0  0  0  0  0  0  0  0  0  0  0
    3.0351   -0.0682   -1.3092 H   0  0  0  0  0  0  0  0  0  0  0  0
    3.3038   -1.4160   -0.2115 H   0  0  0  0  0  0  0  0  0  0  0  0
    5.6318   -1.6963    0.8622 H   0  0  0  0  0  0  0  0  0  0  0  0
    3.7974    0.1950    1.6400 H   0  0  0  0  0  0  0  0  0  0  0  0
  1  8  1  0  0  0  0
  1 11  1  0  0  0  0
  2 15  1  0  0  0  0
  2 14  1  0  0  0  0
  3  4  2  0  0  0  0
  3  5  1  0  0  0  0
  4  9  1  0  0  0  0
  5 10  2  0  0  0  0
  6 21  1  0  0  0  0
  6  8  1  0  0  0  0
  7 22  1  0  0  0  0
  8  2  1  0  0  0  0
  8 23  1  0  0  0  0
  9  6  1  0  0  0  0
  9  7  2  0  0  0  0
 10  7  1  0  0  0  0
 12  1  1  0  0  0  0
 13  1  1  0  0  0  0
 16  2  1  0  0  0  0
 17  3  1  0  0  0  0
 18  4  1  0  0  0  0
 19  5  1  0  0  0  0
 20  6  1  0  0  0  0
M  END
>  <HBA>
1

>  <HBD>
0

>  <TPSA>
12.89

>  <cid>
61715

>  <dipole>
2.29

>  <excitation_energy_1>
4.846

>  <excitation_energy_2>
5.124

>  <excitation_energy_3>
5.351

>  <excitation_energy_4>
6.019

>  <homo_energy>
-6.751

>  <homo_lumo_gap>
6.24

>  <logP>
2.28

>  <lumo_energy>
-0.512

>  <melting_point>
20.66

>  <molecular_refractivity>
43.62

>  <oscillator_strength_1>
0.0043

>  <oscillator_strength_2>
0.0002

>  <oscillator_strength_3>
0.0464

>  <oscillator_strength_4>
0.085

>  <open_babel_can_smiles>
CC(Cc1cccnc1)C

>  <mulliken_charges>
23
1   -0.446925
2   -0.441303
3   -0.13822
4   -0.153105
5   0.035263
6   -0.347833
7   -0.008548
8   -0.06664
9   0.157456
10   -0.409434
11   0.144075
12   0.13502
13   0.153286
14   0.144596
15   0.141464
16   0.14002
17   0.135488
18   0.13681
19   0.139385
20   0.136841
21   0.146083
22   0.134607
23   0.131614

>  <lowdin_charges>
23
1   -0.448669
2   -0.44473
3   -0.175611
4   -0.143682
5   -0.093991
6   -0.274034
7   -0.1019
8   -0.117684
9   -0.018926
10   -0.146654
11   0.151269
12   0.144424
13   0.153262
14   0.1514
15   0.146929
16   0.146869
17   0.163974
18   0.161039
19   0.153529
20   0.1475
21   0.152282
22   0.153022
23   0.140382

$$$$

