PCCDB-ID:  70491
public computational chemistry database (PCCDB) project, http://pccdb.org

 26 26  0  0  1  0  0  0  0  0999 V2000
    2.1709    0.9554   -0.7751 C   0  0  0  0  0  0  0  0  0  0  0  0
    0.0219   -2.7039    1.3156 C   0  0  0  0  0  0  0  0  0  0  0  0
    2.2583    0.0312    0.1826 C   0  0  0  0  0  0  0  0  0  0  0  0
    1.3521   -2.6108    1.3638 C   0  0  0  0  0  0  0  0  0  0  0  0
    5.1065   -2.4585    1.0918 C   0  0  0  0  0  0  0  0  0  0  0  0
    4.2911   -3.7596    1.1197 C   0  0  0  0  0  0  0  0  0  0  0  0
    4.2063   -1.2177    1.1973 C   0  0  0  0  0  0  0  0  0  0  0  0
    3.1894   -3.7503    0.0479 C   0  0  0  0  0  0  0  0  0  0  0  0
    3.1065   -1.2110    0.1088 C   0  0  1  0  0  0  0  0  0  0  0  0
    2.2517   -2.5200    0.1536 C   0  0  2  0  0  0  0  0  0  0  0  0
    1.5452    1.8375   -0.6652 H   0  0  0  0  0  0  0  0  0  0  0  0
    2.7228    0.8667   -1.7093 H   0  0  0  0  0  0  0  0  0  0  0  0
   -0.5801   -2.7856    2.2171 H   0  0  0  0  0  0  0  0  0  0  0  0
   -0.5182   -2.7028    0.3705 H   0  0  0  0  0  0  0  0  0  0  0  0
    1.6819    0.1609    1.0994 H   0  0  0  0  0  0  0  0  0  0  0  0
    1.8359   -2.6152    2.3409 H   0  0  0  0  0  0  0  0  0  0  0  0
    5.6720   -2.4099    0.1494 H   0  0  0  0  0  0  0  0  0  0  0  0
    5.8491   -2.4553    1.9000 H   0  0  0  0  0  0  0  0  0  0  0  0
    3.8432   -3.8902    2.1146 H   0  0  0  0  0  0  0  0  0  0  0  0
    4.9508   -4.6229    0.9653 H   0  0  0  0  0  0  0  0  0  0  0  0
    4.8065   -0.3043    1.1039 H   0  0  0  0  0  0  0  0  0  0  0  0
    3.7435   -1.1786    2.1939 H   0  0  0  0  0  0  0  0  0  0  0  0
    2.5934   -4.6696    0.1019 H   0  0  0  0  0  0  0  0  0  0  0  0
    3.6623   -3.7381   -0.9451 H   0  0  0  0  0  0  0  0  0  0  0  0
    3.6169   -1.2118   -0.8665 H   0  0  0  0  0  0  0  0  0  0  0  0
    1.6021   -2.5114   -0.7317 H   0  0  0  0  0  0  0  0  0  0  0  0
  1 11  1  0  0  0  0
  1  3  2  0  0  0  0
  2  4  2  0  0  0  0
  2 13  1  0  0  0  0
  3 15  1  0  0  0  0
  4 16  1  0  0  0  0
  5  6  1  0  0  0  0
  5  7  1  0  0  0  0
  5 18  1  0  0  0  0
  6 19  1  0  0  0  0
  7 22  1  0  0  0  0
  8 23  1  0  0  0  0
  8 10  1  0  0  0  0
  8  6  1  0  0  0  0
  9 25  1  6  0  0  0
  9 10  1  0  0  0  0
  9  3  1  0  0  0  0
  9  7  1  0  0  0  0
 10 26  1  6  0  0  0
 10  4  1  0  0  0  0
 12  1  1  0  0  0  0
 14  2  1  0  0  0  0
 17  5  1  0  0  0  0
 20  6  1  0  0  0  0
 21  7  1  0  0  0  0
 24  8  1  0  0  0  0
M  END
>  <HBA>
0

>  <HBD>
0

>  <TPSA>
0.0

>  <cid>
70491

>  <dipole>
0.53

>  <excitation_energy_1>
6.208

>  <excitation_energy_2>
6.325

>  <excitation_energy_3>
6.331

>  <excitation_energy_4>
6.424

>  <homo_energy>
-6.626

>  <homo_lumo_gap>
7.187

>  <logP>
3.165

>  <lumo_energy>
0.561

>  <melting_point>
-47.84

>  <molecular_refractivity>
47.12

>  <oscillator_strength_1>
0.0392

>  <oscillator_strength_2>
0.0094

>  <oscillator_strength_3>
0.0077

>  <oscillator_strength_4>
0.0341

>  <open_babel_can_smiles>
C=C[C@@H]1CCCC[C@@H]1C=C

>  <mulliken_charges>
26
1   -0.352454
2   -0.346524
3   -0.032747
4   -0.046863
5   -0.258756
6   -0.264475
7   -0.266763
8   -0.265435
9   -0.139131
10   -0.128612
11   0.136395
12   0.131961
13   0.136889
14   0.137524
15   0.128055
16   0.124946
17   0.12816
18   0.131212
19   0.132701
20   0.13272
21   0.139109
22   0.129783
23   0.137598
24   0.12858
25   0.119636
26   0.126489

>  <lowdin_charges>
26
1   -0.346285
2   -0.341649
3   -0.141665
4   -0.149923
5   -0.277889
6   -0.280732
7   -0.279169
8   -0.276582
9   -0.126121
10   -0.126435
11   0.156804
12   0.151284
13   0.157247
14   0.154645
15   0.152746
16   0.147993
17   0.137683
18   0.144597
19   0.138323
20   0.145633
21   0.148549
22   0.137891
23   0.147395
24   0.139353
25   0.139777
26   0.146529

$$$$

