PCCDB-ID:  47467
public computational chemistry database (PCCDB) project, http://pccdb.org

 24 25  0  0  0  0  0  0  0  0999 V2000
    1.0099   -0.2452    0.2093 C   0  0  0  0  0  0  0  0  0  0  0  0
    9.5171   -0.0722   -0.9482 C   0  0  0  0  0  0  0  0  0  0  0  0
    8.7171   -1.1303   -1.3858 C   0  0  0  0  0  0  0  0  0  0  0  0
    8.9257    1.0124   -0.2986 C   0  0  0  0  0  0  0  0  0  0  0  0
    7.3400   -1.1025   -1.1810 C   0  0  0  0  0  0  0  0  0  0  0  0
    7.5468    1.0421   -0.0955 C   0  0  0  0  0  0  0  0  0  0  0  0
    3.1615    1.1134    0.1011 C   0  0  0  0  0  0  0  0  0  0  0  0
    4.5376    1.1767   -0.0797 C   0  0  0  0  0  0  0  0  0  0  0  0
    3.3023   -1.2268   -0.2721 C   0  0  0  0  0  0  0  0  0  0  0  0
    2.4992   -0.1166    0.0135 C   0  0  0  0  0  0  0  0  0  0  0  0
    6.7306   -0.0117   -0.5386 C   0  0  0  0  0  0  0  0  0  0  0  0
    5.2559   -0.0031   -0.3419 C   0  0  0  0  0  0  0  0  0  0  0  0
    4.6243   -1.1871   -0.4440 N   0  0  0  0  0  0  0  0  0  0  0  0
    0.4561    0.4066   -0.4775 H   0  0  0  0  0  0  0  0  0  0  0  0
    0.7135    0.0359    1.2279 H   0  0  0  0  0  0  0  0  0  0  0  0
    0.6745   -1.2731    0.0384 H   0  0  0  0  0  0  0  0  0  0  0  0
   10.5920   -0.0946   -1.1073 H   0  0  0  0  0  0  0  0  0  0  0  0
    9.1681   -1.9813   -1.8899 H   0  0  0  0  0  0  0  0  0  0  0  0
    9.5392    1.8353    0.0589 H   0  0  0  0  0  0  0  0  0  0  0  0
    6.7126   -1.9230   -1.5109 H   0  0  0  0  0  0  0  0  0  0  0  0
    7.1115    1.8837    0.4352 H   0  0  0  0  0  0  0  0  0  0  0  0
    2.5983    2.0230    0.3001 H   0  0  0  0  0  0  0  0  0  0  0  0
    5.0436    2.1353   -0.0387 H   0  0  0  0  0  0  0  0  0  0  0  0
    2.8432   -2.2114   -0.3677 H   0  0  0  0  0  0  0  0  0  0  0  0
  1 15  1  0  0  0  0
  2  4  2  0  0  0  0
  3  5  2  0  0  0  0
  3  2  1  0  0  0  0
  4  6  1  0  0  0  0
  4 19  1  0  0  0  0
  5 11  1  0  0  0  0
  6 21  1  0  0  0  0
  7 22  1  0  0  0  0
  8 23  1  0  0  0  0
  8  7  2  0  0  0  0
  9 10  2  0  0  0  0
 10  7  1  0  0  0  0
 10  1  1  0  0  0  0
 11 12  1  0  0  0  0
 11  6  2  0  0  0  0
 12  8  1  0  0  0  0
 13 12  2  0  0  0  0
 13  9  1  0  0  0  0
 14  1  1  0  0  0  0
 16  1  1  0  0  0  0
 17  2  1  0  0  0  0
 18  3  1  0  0  0  0
 20  5  1  0  0  0  0
 24  9  1  0  0  0  0
M  END
>  <HBA>
1

>  <HBD>
0

>  <TPSA>
12.89

>  <cid>
47467

>  <dipole>
2.03

>  <excitation_energy_1>
4.476

>  <excitation_energy_2>
4.546

>  <excitation_energy_3>
4.694

>  <excitation_energy_4>
4.906

>  <homo_energy>
-6.008

>  <homo_lumo_gap>
4.996

>  <logP>
3.057

>  <lumo_energy>
-1.012

>  <melting_point>
60.93

>  <molecular_refractivity>
54.64

>  <oscillator_strength_1>
0.3535

>  <oscillator_strength_2>
0.0268

>  <oscillator_strength_3>
0.1306

>  <oscillator_strength_4>
0.0823

>  <open_babel_can_smiles>
Cc1ccc(nc1)c1ccccc1

>  <mulliken_charges>
24
1   -0.536521
2   -0.12397
3   -0.133793
4   -0.136894
5   -0.16145
6   -0.182372
7   -0.148321
8   -0.163553
9   -0.008649
10   0.160155
11   0.106575
12   0.242753
13   -0.480875
14   0.165189
15   0.166955
16   0.161979
17   0.128418
18   0.129833
19   0.128037
20   0.155836
21   0.126493
22   0.133858
23   0.138488
24   0.131829

>  <lowdin_charges>
24
1   -0.44128
2   -0.152445
3   -0.156628
4   -0.158961
5   -0.145522
6   -0.162124
7   -0.13784
8   -0.175551
9   -0.099999
10   -0.019684
11   -0.012015
12   0.05052
13   -0.152034
14   0.163731
15   0.162391
16   0.159754
17   0.155416
18   0.158465
19   0.157887
20   0.174074
21   0.156375
22   0.159928
23   0.163402
24   0.152141

$$$$

