PCCDB-ID:  41198
public computational chemistry database (PCCDB) project, http://pccdb.org

 34 34  0  0  0  0  0  0  0  0999 V2000
    9.1715    1.5915    0.0982 C   0  0  0  0  0  0  0  0  0  0  0  0
    7.3016    5.3118   -1.1272 C   0  0  0  0  0  0  0  0  0  0  0  0
    9.5026   -1.6554   -6.0609 C   0  0  0  0  0  0  0  0  0  0  0  0
    8.1647    3.1741   -5.4586 C   0  0  0  0  0  0  0  0  0  0  0  0
    9.0930    2.5397   -1.1026 C   0  0  0  0  0  0  0  0  0  0  0  0
    7.0080    3.8676   -0.7094 C   0  0  0  0  0  0  0  0  0  0  0  0
    8.4925   -0.8403   -3.8818 C   0  0  0  0  0  0  0  0  0  0  0  0
    7.9631    0.1778   -3.0887 C   0  0  0  0  0  0  0  0  0  0  0  0
    8.8284    0.7484   -5.6487 C   0  0  0  0  0  0  0  0  0  0  0  0
    8.9385   -0.5675   -5.1771 C   0  0  0  0  0  0  0  0  0  0  0  0
    8.2838    1.7817   -4.8824 C   0  0  0  0  0  0  0  0  0  0  0  0
    7.8572    1.4868   -3.5693 C   0  0  0  0  0  0  0  0  0  0  0  0
    7.1769    2.5449   -2.7340 C   0  0  0  0  0  0  0  0  0  0  0  0
    7.7261    2.8704   -1.5152 N   0  0  0  0  0  0  0  0  0  0  0  0
    6.1353    3.0699   -3.1295 O   0  0  0  0  0  0  0  0  0  0  0  0
   10.2180    1.4397    0.3867 H   0  0  0  0  0  0  0  0  0  0  0  0
    8.7385    0.6154   -0.1412 H   0  0  0  0  0  0  0  0  0  0  0  0
    8.6411    1.9928    0.9685 H   0  0  0  0  0  0  0  0  0  0  0  0
    6.7640    6.0111   -0.4762 H   0  0  0  0  0  0  0  0  0  0  0  0
    6.9721    5.4764   -2.1565 H   0  0  0  0  0  0  0  0  0  0  0  0
    8.3707    5.5449   -1.0577 H   0  0  0  0  0  0  0  0  0  0  0  0
    9.7151   -2.5651   -5.4903 H   0  0  0  0  0  0  0  0  0  0  0  0
   10.4323   -1.3364   -6.5464 H   0  0  0  0  0  0  0  0  0  0  0  0
    8.7989   -1.9235   -6.8598 H   0  0  0  0  0  0  0  0  0  0  0  0
    8.5489    3.2060   -6.4826 H   0  0  0  0  0  0  0  0  0  0  0  0
    8.7282    3.9065   -4.8662 H   0  0  0  0  0  0  0  0  0  0  0  0
    7.1221    3.5045   -5.4602 H   0  0  0  0  0  0  0  0  0  0  0  0
    9.6136    2.1016   -1.9559 H   0  0  0  0  0  0  0  0  0  0  0  0
    9.6135    3.4773   -0.8625 H   0  0  0  0  0  0  0  0  0  0  0  0
    5.9401    3.6646   -0.8115 H   0  0  0  0  0  0  0  0  0  0  0  0
    7.2828    3.7071    0.3386 H   0  0  0  0  0  0  0  0  0  0  0  0
    8.5560   -1.8524   -3.4892 H   0  0  0  0  0  0  0  0  0  0  0  0
    7.6102   -0.0510   -2.0868 H   0  0  0  0  0  0  0  0  0  0  0  0
    9.1721    0.9758   -6.6565 H   0  0  0  0  0  0  0  0  0  0  0  0
  1 16  1  0  0  0  0
  1 18  1  0  0  0  0
  2 21  1  0  0  0  0
  2  6  1  0  0  0  0
  2 19  1  0  0  0  0
  3 22  1  0  0  0  0
  3 10  1  0  0  0  0
  4 11  1  0  0  0  0
  4 26  1  0  0  0  0
  5 29  1  0  0  0  0
  5  1  1  0  0  0  0
  6 31  1  0  0  0  0
  7 32  1  0  0  0  0
  7  8  2  0  0  0  0
  8 33  1  0  0  0  0
  9 10  2  0  0  0  0
  9 11  1  0  0  0  0
 10  7  1  0  0  0  0
 11 12  2  0  0  0  0
 12  8  1  0  0  0  0
 12 13  1  0  0  0  0
 13 14  1  0  0  0  0
 14  5  1  0  0  0  0
 14  6  1  0  0  0  0
 15 13  2  0  0  0  0
 17  1  1  0  0  0  0
 20  2  1  0  0  0  0
 23  3  1  0  0  0  0
 24  3  1  0  0  0  0
 25  4  1  0  0  0  0
 27  4  1  0  0  0  0
 28  5  1  0  0  0  0
 30  6  1  0  0  0  0
 34  9  1  0  0  0  0
M  END
>  <HBA>
2

>  <HBD>
0

>  <TPSA>
20.31

>  <cid>
41198

>  <dipole>
3.33

>  <excitation_energy_1>
4.866

>  <excitation_energy_2>
5.01

>  <excitation_energy_3>
5.26

>  <excitation_energy_4>
5.503

>  <homo_energy>
-6.125

>  <homo_lumo_gap>
5.763

>  <logP>
2.785

>  <lumo_energy>
-0.362

>  <melting_point>
48.53

>  <molecular_refractivity>
63.89

>  <oscillator_strength_1>
0.0426

>  <oscillator_strength_2>
0.0031

>  <oscillator_strength_3>
0.0536

>  <oscillator_strength_4>
0.0159

>  <open_babel_can_smiles>
CCN(C(=O)c1ccc(cc1C)C)CC

>  <mulliken_charges>
34
1   -0.445852
2   -0.450312
3   -0.531469
4   -0.534951
5   -0.148924
6   -0.139948
7   -0.191914
8   -0.158872
9   -0.250373
10   0.195353
11   0.163234
12   0.000155
13   0.503097
14   -0.401145
15   -0.522411
16   0.14846
17   0.156856
18   0.153123
19   0.144961
20   0.179151
21   0.139812
22   0.154891
23   0.15989
24   0.167563
25   0.147069
26   0.153602
27   0.197945
28   0.172181
29   0.14728
30   0.179015
31   0.137458
32   0.121728
33   0.136175
34   0.11717

>  <lowdin_charges>
34
1   -0.452022
2   -0.452755
3   -0.443109
4   -0.446096
5   -0.19875
6   -0.192913
7   -0.174466
8   -0.154213
9   -0.175265
10   0.006128
11   0.014802
12   -0.046999
13   0.157289
14   -0.104114
15   -0.314454
16   0.154092
17   0.152945
18   0.15225
19   0.154934
20   0.164958
21   0.143291
22   0.157105
23   0.159927
24   0.164051
25   0.152501
26   0.158614
27   0.178684
28   0.16628
29   0.144663
30   0.16645
31   0.142268
32   0.154042
33   0.158245
34   0.151639

$$$$

