PCCDB-ID:  25209
public computational chemistry database (PCCDB) project, http://pccdb.org

 42 41  0  0  0  0  0  0  0  0999 V2000
    3.8385   -0.8110    2.6050 C   0  0  0  0  0  0  0  0  0  0  0  0
    9.2960   -4.9454   -3.5200 C   0  0  0  0  0  0  0  0  0  0  0  0
    4.9496   -0.6745    3.6529 C   0  0  0  0  0  0  0  0  0  0  0  0
    8.1959   -5.8406   -4.1019 C   0  0  0  0  0  0  0  0  0  0  0  0
    6.3738   -0.8507    3.0997 C   0  0  0  0  0  0  0  0  0  0  0  0
    8.1578   -7.2611   -3.5117 C   0  0  0  0  0  0  0  0  0  0  0  0
    6.6894   -2.2587    2.5760 C   0  0  0  0  0  0  0  0  0  0  0  0
    7.8294   -7.3991   -2.0124 C   0  0  0  0  0  0  0  0  0  0  0  0
    8.1407   -2.4113    2.1038 C   0  0  0  0  0  0  0  0  0  0  0  0
    6.3950   -7.0032   -1.5983 C   0  0  0  0  0  0  0  0  0  0  0  0
    8.4808   -3.8166    1.5633 C   0  0  0  0  0  0  0  0  0  0  0  0
    6.1937   -5.5366   -1.1530 C   0  0  0  0  0  0  0  0  0  0  0  0
    7.7625   -4.1644    0.2863 C   0  0  0  0  0  0  0  0  0  0  0  0
    6.9238   -5.1922    0.1183 C   0  0  0  0  0  0  0  0  0  0  0  0
    2.8534   -0.6280    3.0496 H   0  0  0  0  0  0  0  0  0  0  0  0
    3.8168   -1.8117    2.1594 H   0  0  0  0  0  0  0  0  0  0  0  0
    3.9747   -0.0885    1.7902 H   0  0  0  0  0  0  0  0  0  0  0  0
    9.3095   -3.9659   -4.0125 H   0  0  0  0  0  0  0  0  0  0  0  0
   10.2854   -5.3997   -3.6590 H   0  0  0  0  0  0  0  0  0  0  0  0
    9.1600   -4.7743   -2.4465 H   0  0  0  0  0  0  0  0  0  0  0  0
    4.7832   -1.4038    4.4588 H   0  0  0  0  0  0  0  0  0  0  0  0
    4.8756    0.3164    4.1212 H   0  0  0  0  0  0  0  0  0  0  0  0
    8.3476   -5.9273   -5.1867 H   0  0  0  0  0  0  0  0  0  0  0  0
    7.2188   -5.3546   -3.9788 H   0  0  0  0  0  0  0  0  0  0  0  0
    7.0929   -0.5980    3.8924 H   0  0  0  0  0  0  0  0  0  0  0  0
    6.5416   -0.1187    2.2952 H   0  0  0  0  0  0  0  0  0  0  0  0
    9.1350   -7.7326   -3.6930 H   0  0  0  0  0  0  0  0  0  0  0  0
    7.4273   -7.8560   -4.0793 H   0  0  0  0  0  0  0  0  0  0  0  0
    6.0145   -2.5162    1.7502 H   0  0  0  0  0  0  0  0  0  0  0  0
    6.4910   -2.9932    3.3717 H   0  0  0  0  0  0  0  0  0  0  0  0
    8.5526   -6.8375   -1.4069 H   0  0  0  0  0  0  0  0  0  0  0  0
    7.9828   -8.4543   -1.7499 H   0  0  0  0  0  0  0  0  0  0  0  0
    8.8200   -2.1790    2.9360 H   0  0  0  0  0  0  0  0  0  0  0  0
    8.3508   -1.6651    1.3231 H   0  0  0  0  0  0  0  0  0  0  0  0
    6.0776   -7.6456   -0.7649 H   0  0  0  0  0  0  0  0  0  0  0  0
    5.7019   -7.2226   -2.4226 H   0  0  0  0  0  0  0  0  0  0  0  0
    8.2568   -4.5698    2.3310 H   0  0  0  0  0  0  0  0  0  0  0  0
    9.5663   -3.8632    1.3881 H   0  0  0  0  0  0  0  0  0  0  0  0
    5.1147   -5.3836   -0.9949 H   0  0  0  0  0  0  0  0  0  0  0  0
    6.4894   -4.8421   -1.9477 H   0  0  0  0  0  0  0  0  0  0  0  0
    7.9513   -3.4977   -0.5592 H   0  0  0  0  0  0  0  0  0  0  0  0
    6.7316   -5.8535    0.9675 H   0  0  0  0  0  0  0  0  0  0  0  0
  1 15  1  0  0  0  0
  1  3  1  0  0  0  0
  2 20  1  0  0  0  0
  3 22  1  0  0  0  0
  3 21  1  0  0  0  0
  4 24  1  0  0  0  0
  4  2  1  0  0  0  0
  4  6  1  0  0  0  0
  5  3  1  0  0  0  0
  5 25  1  0  0  0  0
  6  8  1  0  0  0  0
  7  5  1  0  0  0  0
  7 30  1  0  0  0  0
  8 32  1  0  0  0  0
  8 10  1  0  0  0  0
  8 31  1  0  0  0  0
  9  7  1  0  0  0  0
  9 33  1  0  0  0  0
 10 12  1  0  0  0  0
 10 35  1  0  0  0  0
 11  9  1  0  0  0  0
 11 37  1  0  0  0  0
 12 39  1  0  0  0  0
 12 14  1  0  0  0  0
 13 11  1  0  0  0  0
 14 13  2  0  0  0  0
 14 42  1  0  0  0  0
 16  1  1  0  0  0  0
 17  1  1  0  0  0  0
 18  2  1  0  0  0  0
 19  2  1  0  0  0  0
 23  4  1  0  0  0  0
 26  5  1  0  0  0  0
 27  6  1  0  0  0  0
 28  6  1  0  0  0  0
 29  7  1  0  0  0  0
 34  9  1  0  0  0  0
 36 10  1  0  0  0  0
 38 11  1  0  0  0  0
 40 12  1  0  0  0  0
 41 13  1  0  0  0  0
M  END
>  <HBA>
0

>  <HBD>
0

>  <TPSA>
0.0

>  <cid>
25209

>  <dipole>
0.1

>  <excitation_energy_1>
6.002

>  <excitation_energy_2>
6.174

>  <excitation_energy_3>
6.234

>  <excitation_energy_4>
6.39

>  <homo_energy>
-6.406

>  <homo_lumo_gap>
7.165

>  <logP>
5.483

>  <lumo_energy>
0.759

>  <melting_point>
-22.09

>  <molecular_refractivity>
68.94

>  <oscillator_strength_1>
0.0565

>  <oscillator_strength_2>
0.0003

>  <oscillator_strength_3>
0.0005

>  <oscillator_strength_4>
0.0108

>  <open_babel_can_smiles>
CCCCCC/C=C/CCCCCC

>  <mulliken_charges>
42
1   -0.443012
2   -0.452273
3   -0.24792
4   -0.249541
5   -0.248595
6   -0.252476
7   -0.249624
8   -0.257511
9   -0.258007
10   -0.261894
11   -0.303995
12   -0.307319
13   -0.094874
14   -0.091065
15   0.140442
16   0.147454
17   0.139635
18   0.138751
19   0.139525
20   0.155105
21   0.128437
22   0.129037
23   0.129118
24   0.133817
25   0.125179
26   0.124768
27   0.124889
28   0.12502
29   0.142599
30   0.122548
31   0.143508
32   0.127106
33   0.128194
34   0.12819
35   0.129202
36   0.129159
37   0.133999
38   0.138778
39   0.139048
40   0.143536
41   0.117321
42   0.11374

>  <lowdin_charges>
42
1   -0.446857
2   -0.44852
3   -0.272786
4   -0.274229
5   -0.276887
6   -0.276651
7   -0.280737
8   -0.284022
9   -0.274688
10   -0.278237
11   -0.27065
12   -0.274501
13   -0.173574
14   -0.169636
15   0.148409
16   0.147258
17   0.145883
18   0.147719
19   0.145308
20   0.148332
21   0.138588
22   0.140314
23   0.138904
24   0.137809
25   0.139383
26   0.13702
27   0.138228
28   0.139261
29   0.145862
30   0.136509
31   0.147485
32   0.141701
33   0.140579
34   0.138743
35   0.141729
36   0.141365
37   0.144518
38   0.146836
39   0.146965
40   0.147574
41   0.145289
42   0.144405

$$$$

