PCCDB-ID:  67154
public computational chemistry database (PCCDB) project, http://pccdb.org

 44 43  0  0  0  0  0  0  0  0999 V2000
    3.8185   -0.8958   -1.5518 C   0  0  0  0  0  0  0  0  0  0  0  0
    4.1366    2.3444    2.2290 C   0  0  0  0  0  0  0  0  0  0  0  0
   10.7696   -1.6438    5.4014 C   0  0  0  0  0  0  0  0  0  0  0  0
   11.5407    0.8930    2.8355 C   0  0  0  0  0  0  0  0  0  0  0  0
    3.3364   -0.5024   -0.1542 C   0  0  0  0  0  0  0  0  0  0  0  0
    3.4828    1.0779    1.6731 C   0  0  0  0  0  0  0  0  0  0  0  0
    9.7682   -0.8093    4.5821 C   0  0  0  0  0  0  0  0  0  0  0  0
   11.1404   -0.5543    2.5432 C   0  0  0  0  0  0  0  0  0  0  0  0
    5.9074   -0.9370    1.6129 C   0  0  0  0  0  0  0  0  0  0  0  0
    7.7949   -2.2044    2.5177 C   0  0  0  0  0  0  0  0  0  0  0  0
    5.5571    0.2116    0.6464 C   0  0  0  0  0  0  0  0  0  0  0  0
    9.3246   -2.2013    2.6059 C   0  0  0  0  0  0  0  0  0  0  0  0
    7.3493   -1.1540    1.6129 N   0  0  0  0  0  0  0  0  0  0  0  0
    4.1417    0.5463    0.4770 N   0  0  0  0  0  0  0  0  0  0  0  0
    9.8431   -0.9259    3.1190 N   0  0  0  0  0  0  0  0  0  0  0  0
    3.0794   -1.5502   -2.0277 H   0  0  0  0  0  0  0  0  0  0  0  0
    4.7692   -1.4387   -1.5316 H   0  0  0  0  0  0  0  0  0  0  0  0
    3.9455   -0.0054   -2.1772 H   0  0  0  0  0  0  0  0  0  0  0  0
    3.4984    2.7797    3.0063 H   0  0  0  0  0  0  0  0  0  0  0  0
    4.2697    3.0874    1.4351 H   0  0  0  0  0  0  0  0  0  0  0  0
    5.1137    2.1491    2.6835 H   0  0  0  0  0  0  0  0  0  0  0  0
   10.5822   -1.5010    6.4720 H   0  0  0  0  0  0  0  0  0  0  0  0
   11.8062   -1.3480    5.2055 H   0  0  0  0  0  0  0  0  0  0  0  0
   10.6819   -2.7153    5.1905 H   0  0  0  0  0  0  0  0  0  0  0  0
   12.4383    1.1530    2.2634 H   0  0  0  0  0  0  0  0  0  0  0  0
   11.7691    1.0605    3.8936 H   0  0  0  0  0  0  0  0  0  0  0  0
   10.7365    1.5788    2.5469 H   0  0  0  0  0  0  0  0  0  0  0  0
    3.2528   -1.4121    0.4735 H   0  0  0  0  0  0  0  0  0  0  0  0
    2.3172   -0.1043   -0.2400 H   0  0  0  0  0  0  0  0  0  0  0  0
    2.4538    1.3228    1.3802 H   0  0  0  0  0  0  0  0  0  0  0  0
    3.3967    0.3262    2.4825 H   0  0  0  0  0  0  0  0  0  0  0  0
    9.8841    0.2479    4.8463 H   0  0  0  0  0  0  0  0  0  0  0  0
    8.7490   -1.0797    4.8799 H   0  0  0  0  0  0  0  0  0  0  0  0
   11.9565   -1.2304    2.8619 H   0  0  0  0  0  0  0  0  0  0  0  0
   11.0494   -0.6757    1.4578 H   0  0  0  0  0  0  0  0  0  0  0  0
    5.4240   -1.8651    1.2791 H   0  0  0  0  0  0  0  0  0  0  0  0
    5.5061   -0.7262    2.6242 H   0  0  0  0  0  0  0  0  0  0  0  0
    7.3535   -2.1143    3.5308 H   0  0  0  0  0  0  0  0  0  0  0  0
    7.4687   -3.1792    2.1288 H   0  0  0  0  0  0  0  0  0  0  0  0
    5.9778   -0.0334   -0.3334 H   0  0  0  0  0  0  0  0  0  0  0  0
    6.0811    1.1180    0.9740 H   0  0  0  0  0  0  0  0  0  0  0  0
    9.7137   -2.3355    1.5913 H   0  0  0  0  0  0  0  0  0  0  0  0
    9.6631   -3.0707    3.1964 H   0  0  0  0  0  0  0  0  0  0  0  0
    7.8312   -0.3000    1.8964 H   0  0  0  0  0  0  0  0  0  0  0  0
  1 17  1  0  0  0  0
  1  5  1  0  0  0  0
  2 21  1  0  0  0  0
  2 19  1  0  0  0  0
  3 22  1  0  0  0  0
  4 26  1  0  0  0  0
  5 28  1  0  0  0  0
  5 14  1  0  0  0  0
  6  2  1  0  0  0  0
  6 31  1  0  0  0  0
  7 32  1  0  0  0  0
  7 33  1  0  0  0  0
  7  3  1  0  0  0  0
  8  4  1  0  0  0  0
  8 34  1  0  0  0  0
  8 15  1  0  0  0  0
  9 37  1  0  0  0  0
 10 12  1  0  0  0  0
 10 38  1  0  0  0  0
 11 41  1  0  0  0  0
 11  9  1  0  0  0  0
 12 15  1  0  0  0  0
 12 43  1  0  0  0  0
 13  9  1  0  0  0  0
 13 44  1  0  0  0  0
 13 10  1  0  0  0  0
 14 11  1  0  0  0  0
 14  6  1  0  0  0  0
 15  7  1  0  0  0  0
 16  1  1  0  0  0  0
 18  1  1  0  0  0  0
 20  2  1  0  0  0  0
 23  3  1  0  0  0  0
 24  3  1  0  0  0  0
 25  4  1  0  0  0  0
 27  4  1  0  0  0  0
 29  5  1  0  0  0  0
 30  6  1  0  0  0  0
 35  8  1  0  0  0  0
 36  9  1  0  0  0  0
 39 10  1  0  0  0  0
 40 11  1  0  0  0  0
 42 12  1  0  0  0  0
M  END
>  <HBA>
3

>  <HBD>
1

>  <TPSA>
18.51

>  <cid>
67154

>  <dipole>
1.64

>  <excitation_energy_1>
4.907

>  <excitation_energy_2>
5.014

>  <excitation_energy_3>
5.185

>  <excitation_energy_4>
5.225

>  <homo_energy>
-5.287

>  <homo_lumo_gap>
7.334

>  <logP>
1.651

>  <lumo_energy>
2.046

>  <melting_point>
1.9

>  <molecular_refractivity>
68.39

>  <oscillator_strength_1>
0.0026

>  <oscillator_strength_2>
0.0023

>  <oscillator_strength_3>
0.0063

>  <oscillator_strength_4>
0.034

>  <open_babel_can_smiles>
CCN(CCNCCN(CC)CC)CC

>  <mulliken_charges>
44
1   -0.459039
2   -0.457654
3   -0.460139
4   -0.456778
5   -0.102428
6   -0.101822
7   -0.138259
8   -0.109875
9   -0.123834
10   -0.10764
11   -0.155398
12   -0.138786
13   -0.564003
14   -0.385811
15   -0.390386
16   0.140532
17   0.15366
18   0.154885
19   0.141718
20   0.155638
21   0.146042
22   0.143939
23   0.149769
24   0.149981
25   0.144956
26   0.147819
27   0.152965
28   0.109714
29   0.132465
30   0.132909
31   0.110813
32   0.143567
33   0.141649
34   0.115073
35   0.143864
36   0.135353
37   0.10903
38   0.106829
39   0.132371
40   0.154905
41   0.134292
42   0.147239
43   0.118446
44   0.301432

>  <lowdin_charges>
44
1   -0.453529
2   -0.452929
3   -0.46089
4   -0.451746
5   -0.195713
6   -0.196873
7   -0.204496
8   -0.196979
9   -0.218518
10   -0.204716
11   -0.214621
12   -0.206038
13   -0.368309
14   -0.190957
15   -0.193807
16   0.153352
17   0.150877
18   0.154716
19   0.153825
20   0.155145
21   0.146895
22   0.152194
23   0.148521
24   0.147885
25   0.154704
26   0.146897
27   0.153922
28   0.114373
29   0.140639
30   0.140472
31   0.115283
32   0.143217
33   0.144458
34   0.119131
35   0.144828
36   0.13853
37   0.113764
38   0.111819
39   0.140175
40   0.152072
41   0.142483
42   0.151066
43   0.126609
44   0.252269

$$$$

