PCCDB-ID:  40151
public computational chemistry database (PCCDB) project, http://pccdb.org

 28 28  0  0  0  0  0  0  0  0999 V2000
    2.7023    0.1003   -1.3840 C   0  0  0  0  0  0  0  0  0  0  0  0
    0.9680    0.3599    0.4522 C   0  0  0  0  0  0  0  0  0  0  0  0
    4.4486   -2.2681    2.3886 C   0  0  0  0  0  0  0  0  0  0  0  0
    2.9212   -3.5842    1.0823 C   0  0  0  0  0  0  0  0  0  0  0  0
    3.9712   -1.1086    1.7733 C   0  0  0  0  0  0  0  0  0  0  0  0
    2.4520   -2.4268    0.4671 C   0  0  0  0  0  0  0  0  0  0  0  0
    4.4299   -4.7792    2.7312 C   0  0  0  0  0  0  0  0  0  0  0  0
    2.4546    0.1071    0.1363 C   0  0  0  0  0  0  0  0  0  0  0  0
    3.9275   -3.5216    2.0576 C   0  0  0  0  0  0  0  0  0  0  0  0
    2.9660   -1.1636    0.8021 C   0  0  0  0  0  0  0  0  0  0  0  0
    5.4812   -6.8971    2.4355 N   0  0  0  0  0  0  0  0  0  0  0  0
    4.7934   -5.7933    1.7300 N   0  0  0  0  0  0  0  0  0  0  0  0
    2.3814    1.0484   -1.8321 H   0  0  0  0  0  0  0  0  0  0  0  0
    2.1431   -0.7050   -1.8751 H   0  0  0  0  0  0  0  0  0  0  0  0
    3.7639   -0.0443   -1.6120 H   0  0  0  0  0  0  0  0  0  0  0  0
    0.6328    1.3046    0.0075 H   0  0  0  0  0  0  0  0  0  0  0  0
    0.7953    0.4097    1.5327 H   0  0  0  0  0  0  0  0  0  0  0  0
    0.3352   -0.4401    0.0497 H   0  0  0  0  0  0  0  0  0  0  0  0
    5.2353   -2.1945    3.1363 H   0  0  0  0  0  0  0  0  0  0  0  0
    2.5185   -4.5533    0.8019 H   0  0  0  0  0  0  0  0  0  0  0  0
    4.3930   -0.1447    2.0508 H   0  0  0  0  0  0  0  0  0  0  0  0
    1.6703   -2.5091   -0.2847 H   0  0  0  0  0  0  0  0  0  0  0  0
    3.6339   -5.2146    3.3552 H   0  0  0  0  0  0  0  0  0  0  0  0
    5.2681   -4.5445    3.4082 H   0  0  0  0  0  0  0  0  0  0  0  0
    3.0272    0.9443    0.5587 H   0  0  0  0  0  0  0  0  0  0  0  0
    5.5763   -7.6187    1.7157 H   0  0  0  0  0  0  0  0  0  0  0  0
    4.7551   -7.2824    3.0470 H   0  0  0  0  0  0  0  0  0  0  0  0
    5.5379   -5.3737    1.1688 H   0  0  0  0  0  0  0  0  0  0  0  0
  1  8  1  0  0  0  0
  2 17  1  0  0  0  0
  3 19  1  0  0  0  0
  4  9  2  0  0  0  0
  5 21  1  0  0  0  0
  5  3  2  0  0  0  0
  6 10  2  0  0  0  0
  6  4  1  0  0  0  0
  7 23  1  0  0  0  0
  7 24  1  0  0  0  0
  8  2  1  0  0  0  0
  8 25  1  0  0  0  0
  8 10  1  0  0  0  0
  9  3  1  0  0  0  0
  9  7  1  0  0  0  0
 10  5  1  0  0  0  0
 11 27  1  0  0  0  0
 12 11  1  0  0  0  0
 12  7  1  0  0  0  0
 13  1  1  0  0  0  0
 14  1  1  0  0  0  0
 15  1  1  0  0  0  0
 16  2  1  0  0  0  0
 18  2  1  0  0  0  0
 20  4  1  0  0  0  0
 22  6  1  0  0  0  0
 26 11  1  0  0  0  0
 28 12  1  0  0  0  0
M  END
>  <HBA>
2

>  <HBD>
2

>  <TPSA>
38.05

>  <cid>
40151

>  <dipole>
0.5

>  <excitation_energy_1>
4.548

>  <excitation_energy_2>
4.727

>  <excitation_energy_3>
4.962

>  <excitation_energy_4>
5.222

>  <homo_energy>
-5.347

>  <homo_lumo_gap>
5.423

>  <logP>
2.865

>  <lumo_energy>
0.076

>  <melting_point>
92.09

>  <molecular_refractivity>
51.5

>  <oscillator_strength_1>
0.0042

>  <oscillator_strength_2>
0.0092

>  <oscillator_strength_3>
0.007

>  <oscillator_strength_4>
0.0017

>  <open_babel_can_smiles>
NNCc1ccc(cc1)C(C)C

>  <mulliken_charges>
28
1   -0.438656
2   -0.438223
3   -0.183277
4   -0.163133
5   -0.199326
6   -0.188703
7   -0.194165
8   -0.159659
9   0.130337
10   0.190245
11   -0.593416
12   -0.46474
13   0.140471
14   0.143446
15   0.149136
16   0.140429
17   0.149263
18   0.143424
19   0.123733
20   0.139296
21   0.121158
22   0.12335
23   0.145204
24   0.137694
25   0.127645
26   0.305469
27   0.30294
28   0.310057

>  <lowdin_charges>
28
1   -0.441846
2   -0.441277
3   -0.165181
4   -0.156235
5   -0.171734
6   -0.164749
7   -0.208097
8   -0.118819
9   -0.020252
10   -0.000717
11   -0.498234
12   -0.320755
13   0.148142
14   0.148522
15   0.151159
16   0.148015
17   0.15091
18   0.148548
19   0.154901
20   0.163447
21   0.153114
22   0.153677
23   0.144988
24   0.134532
25   0.142275
26   0.255438
27   0.253596
28   0.256632

$$$$

