PCCDB-ID:  20923
public computational chemistry database (PCCDB) project, http://pccdb.org

 28 29  0  0  0  0  0  0  0  0999 V2000
    0.9977    0.1805   -0.1789 C   0  0  0  0  0  0  0  0  0  0  0  0
    3.2694    0.5489   -1.2463 C   0  0  0  0  0  0  0  0  0  0  0  0
    5.3685    1.1956    3.7018 C   0  0  0  0  0  0  0  0  0  0  0  0
    4.5041    1.9369    2.8871 C   0  0  0  0  0  0  0  0  0  0  0  0
    5.4690   -0.1902    3.5500 C   0  0  0  0  0  0  0  0  0  0  0  0
    2.7102    1.7535    0.9406 C   0  0  0  0  0  0  0  0  0  0  0  0
    3.7435    1.2719    1.9319 C   0  0  0  0  0  0  0  0  0  0  0  0
    4.7093   -0.8520    2.5884 C   0  0  0  0  0  0  0  0  0  0  0  0
    3.8380   -0.1134    1.7916 C   0  0  0  0  0  0  0  0  0  0  0  0
    5.3291   -2.7859    1.4034 C   0  0  0  0  0  0  0  0  0  0  0  0
    2.4709    0.4899    0.0575 C   0  0  0  0  0  0  0  0  0  0  0  0
    5.9187   -2.1086    0.5069 N   0  0  0  0  0  0  0  0  0  0  0  0
    5.1377   -4.1267    1.5059 O   0  0  0  0  0  0  0  0  0  0  0  0
    4.7657   -2.2413    2.5034 O   0  0  0  0  0  0  0  0  0  0  0  0
    3.0229   -0.6329    0.8389 O   0  0  0  0  0  0  0  0  0  0  0  0
    0.5302    0.9792   -0.7660 H   0  0  0  0  0  0  0  0  0  0  0  0
    0.4648    0.0919    0.7733 H   0  0  0  0  0  0  0  0  0  0  0  0
    0.8845   -0.7607   -0.7266 H   0  0  0  0  0  0  0  0  0  0  0  0
    2.9116    1.3678   -1.8815 H   0  0  0  0  0  0  0  0  0  0  0  0
    3.1672   -0.3912   -1.7973 H   0  0  0  0  0  0  0  0  0  0  0  0
    4.3322    0.7065   -1.0357 H   0  0  0  0  0  0  0  0  0  0  0  0
    5.9712    1.6967    4.4531 H   0  0  0  0  0  0  0  0  0  0  0  0
    4.4297    3.0151    3.0034 H   0  0  0  0  0  0  0  0  0  0  0  0
    6.1396   -0.7759    4.1709 H   0  0  0  0  0  0  0  0  0  0  0  0
    3.0523    2.6018    0.3371 H   0  0  0  0  0  0  0  0  0  0  0  0
    1.7857    2.0655    1.4457 H   0  0  0  0  0  0  0  0  0  0  0  0
    6.2762   -2.6945   -0.2471 H   0  0  0  0  0  0  0  0  0  0  0  0
    5.5533   -4.5515    0.7401 H   0  0  0  0  0  0  0  0  0  0  0  0
  1 11  1  0  0  0  0
  1 17  1  0  0  0  0
  2 21  1  0  0  0  0
  2 11  1  0  0  0  0
  3 22  1  0  0  0  0
  4 23  1  0  0  0  0
  4  3  2  0  0  0  0
  5  3  1  0  0  0  0
  5 24  1  0  0  0  0
  6 26  1  0  0  0  0
  6  7  1  0  0  0  0
  7  4  1  0  0  0  0
  8  5  2  0  0  0  0
  9  7  2  0  0  0  0
  9  8  1  0  0  0  0
 10 13  1  0  0  0  0
 10 14  1  0  0  0  0
 11 15  1  0  0  0  0
 11  6  1  0  0  0  0
 12 10  2  0  0  0  0
 14  8  1  0  0  0  0
 15  9  1  0  0  0  0
 16  1  1  0  0  0  0
 18  1  1  0  0  0  0
 19  2  1  0  0  0  0
 20  2  1  0  0  0  0
 25  6  1  0  0  0  0
 27 12  1  0  0  0  0
 28 13  1  0  0  0  0
M  END
>  <HBA>
4

>  <HBD>
1

>  <TPSA>
61.55

>  <cid>
20923

>  <dipole>
2.25

>  <excitation_energy_1>
4.808

>  <excitation_energy_2>
4.841

>  <excitation_energy_3>
5.343

>  <excitation_energy_4>
5.549

>  <homo_energy>
-5.595

>  <homo_lumo_gap>
5.701

>  <logP>
2.558

>  <lumo_energy>
0.106

>  <melting_point>
137.61

>  <molecular_refractivity>
55.23

>  <oscillator_strength_1>
0.0304

>  <oscillator_strength_2>
0.0351

>  <oscillator_strength_3>
0.0082

>  <oscillator_strength_4>
0.0284

>  <open_babel_can_smiles>
OC(=N)Oc1cccc2c1OC(C2)(C)C

>  <mulliken_charges>
28
1   -0.459216
2   -0.444212
3   -0.151121
4   -0.19716
5   -0.165368
6   -0.37696
7   0.100347
8   0.297437
9   0.373186
10   0.636435
11   0.301938
12   -0.60313
13   -0.565029
14   -0.510205
15   -0.552306
16   0.145676
17   0.156766
18   0.157562
19   0.137861
20   0.153846
21   0.171299
22   0.127092
23   0.124844
24   0.138445
25   0.158017
26   0.158817
27   0.275572
28   0.409567

>  <lowdin_charges>
28
1   -0.446967
2   -0.448447
3   -0.173725
4   -0.160267
5   -0.162806
6   -0.283813
7   -0.042589
8   0.077568
9   0.086839
10   0.198845
11   0.144171
12   -0.453753
13   -0.361948
14   -0.140593
15   -0.202815
16   0.155828
17   0.158071
18   0.159161
19   0.150808
20   0.157637
21   0.164753
22   0.159458
23   0.155407
24   0.169613
25   0.160725
26   0.157368
27   0.25853
28   0.362942

$$$$

