PCCDB-ID:  20748
public computational chemistry database (PCCDB) project, http://pccdb.org

 24 24  0  0  0  0  0  0  0  0999 V2000
    4.2704    1.8284   -0.3344 C   0  0  0  0  0  0  0  0  0  0  0  0
   -0.7870    0.0155   -2.5654 C   0  0  0  0  0  0  0  0  0  0  0  0
    0.0348    1.3133   -2.5901 C   0  0  0  0  0  0  0  0  0  0  0  0
    0.0209   -1.1468   -1.9676 C   0  0  0  0  0  0  0  0  0  0  0  0
    1.3559    1.1216   -3.3498 C   0  0  0  0  0  0  0  0  0  0  0  0
    1.3680   -1.3390   -2.6854 C   0  0  0  0  0  0  0  0  0  0  0  0
    2.1976   -0.0438   -2.7712 C   0  0  0  0  0  0  0  0  0  0  0  0
    2.8153    0.3238   -1.4262 C   0  0  0  0  0  0  0  0  0  0  0  0
    2.6464   -0.2550   -0.3733 O   0  0  0  0  0  0  0  0  0  0  0  0
    3.6257    1.4041   -1.5452 O   0  0  0  0  0  0  0  0  0  0  0  0
    4.8623    2.7026   -0.6078 H   0  0  0  0  0  0  0  0  0  0  0  0
    4.9141    1.0359    0.0570 H   0  0  0  0  0  0  0  0  0  0  0  0
    3.5298    2.0878    0.4269 H   0  0  0  0  0  0  0  0  0  0  0  0
   -1.0880   -0.2371   -3.5935 H   0  0  0  0  0  0  0  0  0  0  0  0
   -1.7137    0.1642   -1.9966 H   0  0  0  0  0  0  0  0  0  0  0  0
    0.2452    1.6313   -1.5583 H   0  0  0  0  0  0  0  0  0  0  0  0
   -0.5426    2.1235   -3.0531 H   0  0  0  0  0  0  0  0  0  0  0  0
   -0.5581   -2.0773   -2.0254 H   0  0  0  0  0  0  0  0  0  0  0  0
    0.2086   -0.9562   -0.9046 H   0  0  0  0  0  0  0  0  0  0  0  0
    1.9471    2.0428   -3.3484 H   0  0  0  0  0  0  0  0  0  0  0  0
    1.1343    0.8854   -4.3999 H   0  0  0  0  0  0  0  0  0  0  0  0
    1.1842   -1.6843   -3.7126 H   0  0  0  0  0  0  0  0  0  0  0  0
    1.9503   -2.1200   -2.1845 H   0  0  0  0  0  0  0  0  0  0  0  0
    3.0504   -0.2032   -3.4459 H   0  0  0  0  0  0  0  0  0  0  0  0
  1 12  1  0  0  0  0
  1 13  1  0  0  0  0
  2 15  1  0  0  0  0
  2  4  1  0  0  0  0
  3  2  1  0  0  0  0
  3 16  1  0  0  0  0
  4 19  1  0  0  0  0
  5 20  1  0  0  0  0
  5  7  1  0  0  0  0
  5  3  1  0  0  0  0
  6 23  1  0  0  0  0
  6  4  1  0  0  0  0
  7  6  1  0  0  0  0
  7  8  1  0  0  0  0
  8  9  2  0  0  0  0
 10  8  1  0  0  0  0
 10  1  1  0  0  0  0
 11  1  1  0  0  0  0
 14  2  1  0  0  0  0
 17  3  1  0  0  0  0
 18  4  1  0  0  0  0
 21  5  1  0  0  0  0
 22  6  1  0  0  0  0
 24  7  1  0  0  0  0
M  END
>  <HBA>
2

>  <HBD>
0

>  <TPSA>
26.3

>  <cid>
20748

>  <dipole>
1.61

>  <excitation_energy_1>
5.674

>  <excitation_energy_2>
6.793

>  <excitation_energy_3>
7.155

>  <excitation_energy_4>
7.179

>  <homo_energy>
-7.178

>  <homo_lumo_gap>
7.524

>  <logP>
1.74

>  <lumo_energy>
0.346

>  <melting_point>
7.13

>  <molecular_refractivity>
39.74

>  <oscillator_strength_1>
0.0015

>  <oscillator_strength_2>
0.0037

>  <oscillator_strength_3>
0.0031

>  <oscillator_strength_4>
0.0036

>  <open_babel_can_smiles>
COC(=O)C1CCCCC1

>  <mulliken_charges>
24
1   -0.216608
2   -0.254888
3   -0.264434
4   -0.268293
5   -0.26938
6   -0.256826
7   -0.18172
8   0.624871
9   -0.484682
10   -0.456141
11   0.162697
12   0.168866
13   0.168683
14   0.123828
15   0.131117
16   0.136442
17   0.132628
18   0.128353
19   0.160404
20   0.153166
21   0.133834
22   0.126207
23   0.147568
24   0.154307

>  <lowdin_charges>
24
1   -0.281691
2   -0.277187
3   -0.280763
4   -0.281527
5   -0.274382
6   -0.275042
7   -0.15474
8   0.195721
9   -0.265368
10   -0.196846
11   0.159975
12   0.159629
13   0.159476
14   0.13408
15   0.143942
16   0.139746
17   0.146159
18   0.143513
19   0.151744
20   0.153643
21   0.141428
22   0.139651
23   0.155279
24   0.163562

$$$$

