PCCDB-ID:  47337
public computational chemistry database (PCCDB) project, http://pccdb.org

 47 48  0  0  1  0  0  0  0  0999 V2000
    2.9009   -1.0340    1.9992 C   0  0  0  0  0  0  0  0  0  0  0  0
    5.8473   -3.7821    3.7263 C   0  0  0  0  0  0  0  0  0  0  0  0
    4.1028   -1.3247    1.0952 C   0  0  0  0  0  0  0  0  0  0  0  0
    7.1075   -3.6673    2.8607 C   0  0  0  0  0  0  0  0  0  0  0  0
    3.8338   -1.0095   -0.3805 C   0  0  0  0  0  0  0  0  0  0  0  0
    7.6817   -5.0205    2.4113 C   0  0  0  0  0  0  0  0  0  0  0  0
    5.0285   -1.2843   -1.3040 C   0  0  0  0  0  0  0  0  0  0  0  0
    6.8016   -5.7953    1.4180 C   0  0  0  0  0  0  0  0  0  0  0  0
    6.3512   -5.0643   -2.7517 C   0  0  0  0  0  0  0  0  0  0  0  0
    4.5429   -3.6169   -1.7994 C   0  0  0  0  0  0  0  0  0  0  0  0
    6.8279   -2.7589   -1.9196 C   0  0  0  0  0  0  0  0  0  0  0  0
    5.3991   -5.7159   -0.5380 C   0  0  0  0  0  0  0  0  0  0  0  0
    7.6806   -4.8462   -0.6410 C   0  0  0  0  0  0  0  0  0  0  0  0
    5.0823   -5.0567   -1.8924 C   0  0  2  0  0  0  0  0  0  0  0  0
    7.3684   -4.1970   -2.0020 C   0  0  1  0  0  0  0  0  0  0  0  0
    5.5177   -2.6609   -1.2766 N   0  0  0  0  0  0  0  0  0  0  0  0
    6.4950   -5.0716    0.1860 N   0  0  0  0  0  0  0  0  0  0  0  0
    3.1236   -1.2667    3.0470 H   0  0  0  0  0  0  0  0  0  0  0  0
    2.0285   -1.6315    1.7055 H   0  0  0  0  0  0  0  0  0  0  0  0
    2.6073    0.0223    1.9480 H   0  0  0  0  0  0  0  0  0  0  0  0
    5.5012   -2.7938    4.0504 H   0  0  0  0  0  0  0  0  0  0  0  0
    6.0367   -4.3801    4.6274 H   0  0  0  0  0  0  0  0  0  0  0  0
    5.0211   -4.2535    3.1820 H   0  0  0  0  0  0  0  0  0  0  0  0
    4.4024   -2.3750    1.1873 H   0  0  0  0  0  0  0  0  0  0  0  0
    4.9678   -0.7363    1.4342 H   0  0  0  0  0  0  0  0  0  0  0  0
    7.8803   -3.1309    3.4279 H   0  0  0  0  0  0  0  0  0  0  0  0
    6.8858   -3.0630    1.9732 H   0  0  0  0  0  0  0  0  0  0  0  0
    3.5713    0.0524   -0.4912 H   0  0  0  0  0  0  0  0  0  0  0  0
    2.9503   -1.5664   -0.7216 H   0  0  0  0  0  0  0  0  0  0  0  0
    7.8317   -5.6669    3.2881 H   0  0  0  0  0  0  0  0  0  0  0  0
    8.6805   -4.8680    1.9830 H   0  0  0  0  0  0  0  0  0  0  0  0
    5.8615   -0.6409   -0.9903 H   0  0  0  0  0  0  0  0  0  0  0  0
    4.7655   -0.9737   -2.3384 H   0  0  0  0  0  0  0  0  0  0  0  0
    5.8454   -6.0321    1.9004 H   0  0  0  0  0  0  0  0  0  0  0  0
    7.2864   -6.7709    1.1980 H   0  0  0  0  0  0  0  0  0  0  0  0
    6.1504   -4.6565   -3.7512 H   0  0  0  0  0  0  0  0  0  0  0  0
    6.7286   -6.0871   -2.8831 H   0  0  0  0  0  0  0  0  0  0  0  0
    3.6594   -3.6032   -1.1510 H   0  0  0  0  0  0  0  0  0  0  0  0
    4.1957   -3.3218   -2.8146 H   0  0  0  0  0  0  0  0  0  0  0  0
    6.8015   -2.3544   -2.9557 H   0  0  0  0  0  0  0  0  0  0  0  0
    7.5258   -2.1263   -1.3551 H   0  0  0  0  0  0  0  0  0  0  0  0
    5.6195   -6.7882   -0.7356 H   0  0  0  0  0  0  0  0  0  0  0  0
    4.5117   -5.6940    0.1083 H   0  0  0  0  0  0  0  0  0  0  0  0
    8.3754   -4.2062   -0.0858 H   0  0  0  0  0  0  0  0  0  0  0  0
    8.2166   -5.8012   -0.8388 H   0  0  0  0  0  0  0  0  0  0  0  0
    4.2978   -5.6613   -2.3674 H   0  0  0  0  0  0  0  0  0  0  0  0
    8.3141   -4.1526   -2.5590 H   0  0  0  0  0  0  0  0  0  0  0  0
  1 18  1  0  0  0  0
  2 21  1  0  0  0  0
  2 22  1  0  0  0  0
  3 24  1  0  0  0  0
  3 25  1  0  0  0  0
  3  1  1  0  0  0  0
  4 26  1  0  0  0  0
  4  2  1  0  0  0  0
  5  3  1  0  0  0  0
  6  4  1  0  0  0  0
  6 30  1  0  0  0  0
  7 16  1  0  0  0  0
  7 32  1  0  0  0  0
  7  5  1  0  0  0  0
  8 34  1  0  0  0  0
  8  6  1  0  0  0  0
  9 15  1  0  0  0  0
  9 14  1  0  0  0  0
 10 16  1  0  0  0  0
 10 38  1  0  0  0  0
 11 41  1  0  0  0  0
 11 16  1  0  0  0  0
 12 43  1  0  0  0  0
 12 17  1  0  0  0  0
 13 44  1  0  0  0  0
 13 17  1  0  0  0  0
 14 46  1  6  0  0  0
 14 10  1  0  0  0  0
 14 12  1  0  0  0  0
 15 47  1  6  0  0  0
 15 11  1  0  0  0  0
 15 13  1  0  0  0  0
 17  8  1  0  0  0  0
 19  1  1  0  0  0  0
 20  1  1  0  0  0  0
 23  2  1  0  0  0  0
 27  4  1  0  0  0  0
 28  5  1  0  0  0  0
 29  5  1  0  0  0  0
 31  6  1  0  0  0  0
 33  7  1  0  0  0  0
 35  8  1  0  0  0  0
 36  9  1  0  0  0  0
 37  9  1  0  0  0  0
 39 10  1  0  0  0  0
 40 11  1  0  0  0  0
 42 12  1  0  0  0  0
 45 13  1  0  0  0  0
M  END
>  <HBA>
2

>  <HBD>
0

>  <TPSA>
6.48

>  <cid>
47337

>  <dipole>
0.88

>  <excitation_energy_1>
4.478

>  <excitation_energy_2>
4.812

>  <excitation_energy_3>
4.949

>  <excitation_energy_4>
5.007

>  <homo_energy>
-5.037

>  <homo_lumo_gap>
6.827

>  <logP>
2.716

>  <lumo_energy>
1.791

>  <melting_point>
17.89

>  <molecular_refractivity>
83.61

>  <oscillator_strength_1>
0.0265

>  <oscillator_strength_2>
0.0005

>  <oscillator_strength_3>
0.0011

>  <oscillator_strength_4>
0.0112

>  <open_babel_can_smiles>
CCCCN1C[C@@H]2CN(C[C@H](C1)C2)CCCC

>  <mulliken_charges>
47
1   -0.444487
2   -0.446971
3   -0.250894
4   -0.250872
5   -0.269855
6   -0.272604
7   -0.108248
8   -0.109117
9   -0.269608
10   -0.110971
11   -0.105905
12   -0.106682
13   -0.111299
14   -0.122681
15   -0.122633
16   -0.371884
17   -0.37225
18   0.14225
19   0.13674
20   0.136983
21   0.142795
22   0.133894
23   0.147284
24   0.169717
25   0.1252
26   0.122051
27   0.166432
28   0.127104
29   0.131348
30   0.12616
31   0.132185
32   0.129551
33   0.100373
34   0.132971
35   0.100751
36   0.129271
37   0.129347
38   0.138322
39   0.098419
40   0.09891
41   0.133319
42   0.099274
43   0.132652
44   0.139309
45   0.098488
46   0.12295
47   0.122908

>  <lowdin_charges>
47
1   -0.442862
2   -0.447663
3   -0.27543
4   -0.27968
5   -0.281844
6   -0.283927
7   -0.197648
8   -0.198872
9   -0.281484
10   -0.198897
11   -0.196728
12   -0.195617
13   -0.201404
14   -0.138764
15   -0.137385
16   -0.182865
17   -0.182955
18   0.147126
19   0.144319
20   0.142222
21   0.148887
22   0.142544
23   0.147772
24   0.153749
25   0.138249
26   0.139084
27   0.155472
28   0.140921
29   0.138717
30   0.142435
31   0.140086
32   0.141974
33   0.111352
34   0.14198
35   0.112308
36   0.140696
37   0.140495
38   0.144739
39   0.111116
40   0.11053
41   0.143457
42   0.110154
43   0.141767
44   0.146287
45   0.112139
46   0.147378
47   0.146069

$$$$

