PCCDB-ID:  7895
public computational chemistry database (PCCDB) project, http://pccdb.org

 16 15  0  0  0  0  0  0  0  0999 V2000
    1.0279   -0.0356    0.3655 C   0  0  0  0  0  0  0  0  0  0  0  0
    5.4207   -0.3647   -2.2820 C   0  0  0  0  0  0  0  0  0  0  0  0
    2.5549    0.0761    0.4006 C   0  0  0  0  0  0  0  0  0  0  0  0
    3.1998   -0.2080   -0.9570 C   0  0  0  0  0  0  0  0  0  0  0  0
    4.7217   -0.1044   -0.9563 C   0  0  0  0  0  0  0  0  0  0  0  0
    5.3479    0.1712    0.0498 O   0  0  0  0  0  0  0  0  0  0  0  0
    0.5950    0.1712    1.3506 H   0  0  0  0  0  0  0  0  0  0  0  0
    0.7060   -1.0409    0.0661 H   0  0  0  0  0  0  0  0  0  0  0  0
    0.5897    0.6763   -0.3454 H   0  0  0  0  0  0  0  0  0  0  0  0
    5.1834   -1.3702   -2.6517 H   0  0  0  0  0  0  0  0  0  0  0  0
    6.5009   -0.2673   -2.1563 H   0  0  0  0  0  0  0  0  0  0  0  0
    5.0749    0.3441   -3.0449 H   0  0  0  0  0  0  0  0  0  0  0  0
    2.9673   -0.6177    1.1425 H   0  0  0  0  0  0  0  0  0  0  0  0
    2.8528    1.0772    0.7336 H   0  0  0  0  0  0  0  0  0  0  0  0
    2.8123    0.4784   -1.7261 H   0  0  0  0  0  0  0  0  0  0  0  0
    2.9291   -1.2135   -1.3157 H   0  0  0  0  0  0  0  0  0  0  0  0
  1  3  1  0  0  0  0
  1  7  1  0  0  0  0
  2 11  1  0  0  0  0
  2  5  1  0  0  0  0
  3 14  1  0  0  0  0
  3 13  1  0  0  0  0
  4  5  1  0  0  0  0
  4  3  1  0  0  0  0
  5  6  2  0  0  0  0
  8  1  1  0  0  0  0
  9  1  1  0  0  0  0
 10  2  1  0  0  0  0
 12  2  1  0  0  0  0
 15  4  1  0  0  0  0
 16  4  1  0  0  0  0
M  END
>  <HBA>
1

>  <HBD>
0

>  <TPSA>
17.07

>  <cid>
7895

>  <dipole>
2.62

>  <excitation_energy_1>
4.426

>  <excitation_energy_2>
6.174

>  <excitation_energy_3>
6.803

>  <excitation_energy_4>
7.081

>  <homo_energy>
-6.604

>  <homo_lumo_gap>
6.343

>  <logP>
1.375

>  <lumo_energy>
-0.261

>  <melting_point>
-4.51

>  <molecular_refractivity>
26.35

>  <oscillator_strength_1>
0.0001

>  <oscillator_strength_2>
0.0341

>  <oscillator_strength_3>
0.0005

>  <oscillator_strength_4>
0.0067

>  <open_babel_can_smiles>
CCCC(=O)C

>  <mulliken_charges>
16
1   -0.446836
2   -0.528129
3   -0.23991
4   -0.349066
5   0.452304
6   -0.435667
7   0.147709
8   0.139978
9   0.139994
10   0.166305
11   0.17924
12   0.166516
13   0.150773
14   0.150335
15   0.152986
16   0.153468

>  <lowdin_charges>
16
1   -0.445493
2   -0.475057
3   -0.268928
4   -0.312564
5   0.167471
6   -0.236565
7   0.152076
8   0.144863
9   0.146571
10   0.167762
11   0.170739
12   0.169336
13   0.152638
14   0.1507
15   0.158822
16   0.157628

$$$$

