PCCDB-ID:  14125
public computational chemistry database (PCCDB) project, http://pccdb.org

 31 32  0  0  0  0  0  0  0  0999 V2000
    3.3488    2.5779   -3.9050 C   0  0  0  0  0  0  0  0  0  0  0  0
    7.8720   -3.9612    0.2745 C   0  0  0  0  0  0  0  0  0  0  0  0
    3.6993    3.0545   -2.6417 C   0  0  0  0  0  0  0  0  0  0  0  0
    2.7825    1.3067   -4.0271 C   0  0  0  0  0  0  0  0  0  0  0  0
    7.5974   -3.3817   -0.9658 C   0  0  0  0  0  0  0  0  0  0  0  0
    7.2786   -3.4374    1.4243 C   0  0  0  0  0  0  0  0  0  0  0  0
    3.7120   -1.0506   -0.2613 C   0  0  0  0  0  0  0  0  0  0  0  0
    3.4866    2.2640   -1.5100 C   0  0  0  0  0  0  0  0  0  0  0  0
    2.5726    0.5221   -2.8938 C   0  0  0  0  0  0  0  0  0  0  0  0
    6.7347   -2.2884   -1.0527 C   0  0  0  0  0  0  0  0  0  0  0  0
    6.4164   -2.3439    1.3311 C   0  0  0  0  0  0  0  0  0  0  0  0
    2.7040    0.1115   -0.3979 C   0  0  0  0  0  0  0  0  0  0  0  0
    5.1623   -0.5933   -0.0110 C   0  0  0  0  0  0  0  0  0  0  0  0
    2.9226    0.9857   -1.6167 C   0  0  0  0  0  0  0  0  0  0  0  0
    6.1300   -1.7530    0.0932 C   0  0  0  0  0  0  0  0  0  0  0  0
    3.5109    3.1916   -4.7871 H   0  0  0  0  0  0  0  0  0  0  0  0
    8.5458   -4.8110    0.3446 H   0  0  0  0  0  0  0  0  0  0  0  0
    4.1363    4.0440   -2.5337 H   0  0  0  0  0  0  0  0  0  0  0  0
    2.4997    0.9279   -5.0061 H   0  0  0  0  0  0  0  0  0  0  0  0
    8.0587   -3.7784   -1.8668 H   0  0  0  0  0  0  0  0  0  0  0  0
    7.4895   -3.8775    2.3957 H   0  0  0  0  0  0  0  0  0  0  0  0
    3.6804   -1.6700   -1.1673 H   0  0  0  0  0  0  0  0  0  0  0  0
    3.3939   -1.6992    0.5655 H   0  0  0  0  0  0  0  0  0  0  0  0
    3.7568    2.6468   -0.5282 H   0  0  0  0  0  0  0  0  0  0  0  0
    2.1236   -0.4638   -2.9988 H   0  0  0  0  0  0  0  0  0  0  0  0
    6.5302   -1.8384   -2.0222 H   0  0  0  0  0  0  0  0  0  0  0  0
    5.9625   -1.9379    2.2331 H   0  0  0  0  0  0  0  0  0  0  0  0
    2.7444    0.7296    0.5085 H   0  0  0  0  0  0  0  0  0  0  0  0
    1.6930   -0.3154   -0.4366 H   0  0  0  0  0  0  0  0  0  0  0  0
    5.1932   -0.0026    0.9146 H   0  0  0  0  0  0  0  0  0  0  0  0
    5.4727    0.0779   -0.8209 H   0  0  0  0  0  0  0  0  0  0  0  0
  1  3  1  0  0  0  0
  2 17  1  0  0  0  0
  2  6  2  0  0  0  0
  3 18  1  0  0  0  0
  3  8  2  0  0  0  0
  4  1  2  0  0  0  0
  4  9  1  0  0  0  0
  5  2  1  0  0  0  0
  6 21  1  0  0  0  0
  7 13  1  0  0  0  0
  7 23  1  0  0  0  0
  8 24  1  0  0  0  0
  9 14  2  0  0  0  0
 10  5  2  0  0  0  0
 10 15  1  0  0  0  0
 11  6  1  0  0  0  0
 11 27  1  0  0  0  0
 12  7  1  0  0  0  0
 12 28  1  0  0  0  0
 13 15  1  0  0  0  0
 13 30  1  0  0  0  0
 14  8  1  0  0  0  0
 14 12  1  0  0  0  0
 15 11  2  0  0  0  0
 16  1  1  0  0  0  0
 19  4  1  0  0  0  0
 20  5  1  0  0  0  0
 22  7  1  0  0  0  0
 25  9  1  0  0  0  0
 26 10  1  0  0  0  0
 29 12  1  0  0  0  0
 31 13  1  0  0  0  0
M  END
>  <HBA>
0

>  <HBD>
0

>  <TPSA>
0.0

>  <cid>
14125

>  <dipole>
0.3

>  <excitation_energy_1>
5.265

>  <excitation_energy_2>
5.285

>  <excitation_energy_3>
5.625

>  <excitation_energy_4>
5.811

>  <homo_energy>
-6.289

>  <homo_lumo_gap>
6.28

>  <logP>
3.862

>  <lumo_energy>
-0.008

>  <melting_point>
36.22

>  <molecular_refractivity>
65.51

>  <oscillator_strength_1>
0.0023

>  <oscillator_strength_2>
0.0009

>  <oscillator_strength_3>
0.1087

>  <oscillator_strength_4>
0.0045

>  <open_babel_can_smiles>
C(Cc1ccccc1)Cc1ccccc1

>  <mulliken_charges>
31
1   -0.132317
2   -0.131959
3   -0.126736
4   -0.127829
5   -0.128288
6   -0.127943
7   -0.246064
8   -0.186689
9   -0.181208
10   -0.181646
11   -0.18117
12   -0.351255
13   -0.34999
14   0.176444
15   0.171466
16   0.127483
17   0.125838
18   0.128102
19   0.127907
20   0.126667
21   0.126123
22   0.141797
23   0.137095
24   0.122594
25   0.123363
26   0.125313
27   0.119402
28   0.138164
29   0.145742
30   0.13457
31   0.155022

>  <lowdin_charges>
31
1   -0.163116
2   -0.162001
3   -0.154185
4   -0.155048
5   -0.15672
6   -0.156349
7   -0.269985
8   -0.170324
9   -0.16609
10   -0.168043
11   -0.170197
12   -0.274859
13   -0.278194
14   -0.001927
15   0.002317
16   0.157388
17   0.156045
18   0.156089
19   0.156363
20   0.156669
21   0.155662
22   0.145085
23   0.14565
24   0.153617
25   0.153189
26   0.155031
27   0.153155
28   0.146757
29   0.152501
30   0.145191
31   0.15633

$$$$

