PCCDB-ID:  10686
public computational chemistry database (PCCDB) project, http://pccdb.org

 21 21  0  0  0  0  0  0  0  0999 V2000
    0.8370    0.0350   -0.1421 C   0  0  0  0  0  0  0  0  0  0  0  0
    5.1928   -2.6029    0.1176 C   0  0  0  0  0  0  0  0  0  0  0  0
    2.2947   -2.5850   -0.2137 C   0  0  0  0  0  0  0  0  0  0  0  0
    4.4471    1.1193    0.3755 C   0  0  0  0  0  0  0  0  0  0  0  0
    3.0644    1.1379    0.2178 C   0  0  0  0  0  0  0  0  0  0  0  0
    5.1238   -0.0973    0.3413 C   0  0  0  0  0  0  0  0  0  0  0  0
    2.3406   -0.0459    0.0236 C   0  0  0  0  0  0  0  0  0  0  0  0
    4.4313   -1.2973    0.1495 C   0  0  0  0  0  0  0  0  0  0  0  0
    3.0287   -1.2767   -0.0121 C   0  0  0  0  0  0  0  0  0  0  0  0
    0.4985    1.0736   -0.0772 H   0  0  0  0  0  0  0  0  0  0  0  0
    0.3044   -0.5325    0.6312 H   0  0  0  0  0  0  0  0  0  0  0  0
    0.5062   -0.3570   -1.1122 H   0  0  0  0  0  0  0  0  0  0  0  0
    6.2620   -2.4372    0.2815 H   0  0  0  0  0  0  0  0  0  0  0  0
    5.0809   -3.1188   -0.8453 H   0  0  0  0  0  0  0  0  0  0  0  0
    4.8421   -3.3007    0.8891 H   0  0  0  0  0  0  0  0  0  0  0  0
    1.2271   -2.4425   -0.3894 H   0  0  0  0  0  0  0  0  0  0  0  0
    2.3977   -3.2413    0.6611 H   0  0  0  0  0  0  0  0  0  0  0  0
    2.6965   -3.1429   -1.0692 H   0  0  0  0  0  0  0  0  0  0  0  0
    4.9933    2.0466    0.5272 H   0  0  0  0  0  0  0  0  0  0  0  0
    2.5296    2.0846    0.2455 H   0  0  0  0  0  0  0  0  0  0  0  0
    6.2041   -0.1225    0.4652 H   0  0  0  0  0  0  0  0  0  0  0  0
  1 10  1  0  0  0  0
  1  7  1  0  0  0  0
  1 11  1  0  0  0  0
  2  8  1  0  0  0  0
  2 13  1  0  0  0  0
  2 15  1  0  0  0  0
  3  9  1  0  0  0  0
  3 17  1  0  0  0  0
  4 19  1  0  0  0  0
  5 20  1  0  0  0  0
  5  4  2  0  0  0  0
  6  4  1  0  0  0  0
  6 21  1  0  0  0  0
  7  5  1  0  0  0  0
  8  6  2  0  0  0  0
  9  7  2  0  0  0  0
  9  8  1  0  0  0  0
 12  1  1  0  0  0  0
 14  2  1  0  0  0  0
 16  3  1  0  0  0  0
 18  3  1  0  0  0  0
M  END
>  <HBA>
0

>  <HBD>
0

>  <TPSA>
0.0

>  <cid>
10686

>  <dipole>
0.62

>  <excitation_energy_1>
5.179

>  <excitation_energy_2>
5.783

>  <excitation_energy_3>
5.86

>  <excitation_energy_4>
5.911

>  <homo_energy>
-6.166

>  <homo_lumo_gap>
6.387

>  <logP>
2.612

>  <lumo_energy>
0.22

>  <melting_point>
16.83

>  <molecular_refractivity>
41.34

>  <oscillator_strength_1>
0.0002

>  <oscillator_strength_2>
0.0024

>  <oscillator_strength_3>
0.0094

>  <oscillator_strength_4>
0.0001

>  <open_babel_can_smiles>
Cc1c(C)cccc1C

>  <mulliken_charges>
21
1   -0.538298
2   -0.531834
3   -0.535639
4   -0.123474
5   -0.187708
6   -0.187733
7   0.133894
8   0.134745
9   0.069534
10   0.153223
11   0.159231
12   0.159524
13   0.153
14   0.157611
15   0.156946
16   0.155401
17   0.158875
18   0.157646
19   0.122429
20   0.11608
21   0.116545

>  <lowdin_charges>
21
1   -0.444671
2   -0.440547
3   -0.445565
4   -0.161906
5   -0.173753
6   -0.170442
7   -0.008434
8   -0.007233
9   -0.019143
10   0.154974
11   0.158655
12   0.157339
13   0.154398
14   0.156802
15   0.157805
16   0.157865
17   0.15865
18   0.158714
19   0.155252
20   0.15163
21   0.14961

$$$$

