PCCDB-ID:  8107
public computational chemistry database (PCCDB) project, http://pccdb.org

 19 18  0  0  0  0  0  0  0  0999 V2000
    1.4501   -2.4171   -0.1258 C   0  0  0  0  0  0  0  0  0  0  0  0
    5.3901   -2.0025   -2.2540 C   0  0  0  0  0  0  0  0  0  0  0  0
    4.6958   -1.0287   -1.2826 C   0  0  0  0  0  0  0  0  0  0  0  0
    5.4541   -3.4749   -1.8252 C   0  0  0  0  0  0  0  0  0  0  0  0
    3.1804   -1.1488   -1.1353 C   0  0  0  0  0  0  0  0  0  0  0  0
    4.2100   -4.1463   -1.8781 O   0  0  0  0  0  0  0  0  0  0  0  0
    2.8458   -2.2837   -0.3363 O   0  0  0  0  0  0  0  0  0  0  0  0
    1.3012   -3.3053    0.4927 H   0  0  0  0  0  0  0  0  0  0  0  0
    0.9072   -2.5414   -1.0748 H   0  0  0  0  0  0  0  0  0  0  0  0
    1.0453   -1.5392    0.3994 H   0  0  0  0  0  0  0  0  0  0  0  0
    6.4217   -1.6494   -2.3957 H   0  0  0  0  0  0  0  0  0  0  0  0
    4.9033   -1.9522   -3.2380 H   0  0  0  0  0  0  0  0  0  0  0  0
    4.8935   -0.0043   -1.6261 H   0  0  0  0  0  0  0  0  0  0  0  0
    5.1431   -1.1089   -0.2822 H   0  0  0  0  0  0  0  0  0  0  0  0
    5.9096   -3.5435   -0.8207 H   0  0  0  0  0  0  0  0  0  0  0  0
    6.1178   -4.0125   -2.5123 H   0  0  0  0  0  0  0  0  0  0  0  0
    2.6959   -1.2307   -2.1221 H   0  0  0  0  0  0  0  0  0  0  0  0
    2.7827   -0.2467   -0.6439 H   0  0  0  0  0  0  0  0  0  0  0  0
    3.6325   -3.6999   -1.2290 H   0  0  0  0  0  0  0  0  0  0  0  0
  1 10  1  0  0  0  0
  1  8  1  0  0  0  0
  2  4  1  0  0  0  0
  2  3  1  0  0  0  0
  3  5  1  0  0  0  0
  3 14  1  0  0  0  0
  4 15  1  0  0  0  0
  5 18  1  0  0  0  0
  5  7  1  0  0  0  0
  6  4  1  0  0  0  0
  6 19  1  0  0  0  0
  7  1  1  0  0  0  0
  9  1  1  0  0  0  0
 11  2  1  0  0  0  0
 12  2  1  0  0  0  0
 13  3  1  0  0  0  0
 16  4  1  0  0  0  0
 17  5  1  0  0  0  0
M  END
>  <HBA>
2

>  <HBD>
1

>  <TPSA>
29.46

>  <cid>
8107

>  <dipole>
2.94

>  <excitation_energy_1>
6.357

>  <excitation_energy_2>
6.668

>  <excitation_energy_3>
6.831

>  <excitation_energy_4>
6.834

>  <homo_energy>
-6.504

>  <homo_lumo_gap>
8.544

>  <logP>
0.405

>  <lumo_energy>
2.041

>  <melting_point>
-16.23

>  <molecular_refractivity>
28.4

>  <oscillator_strength_1>
0.0063

>  <oscillator_strength_2>
0.0117

>  <oscillator_strength_3>
0.0144

>  <oscillator_strength_4>
0.0131

>  <open_babel_can_smiles>
COCCCCO

>  <mulliken_charges>
19
1   -0.200613
2   -0.273094
3   -0.284575
4   -0.021269
5   -0.021186
6   -0.653029
7   -0.476753
8   0.167829
9   0.144828
10   0.141768
11   0.127203
12   0.138879
13   0.139234
14   0.149001
15   0.108553
16   0.134126
17   0.132926
18   0.128569
19   0.417602

>  <lowdin_charges>
19
1   -0.281593
2   -0.295225
3   -0.284797
4   -0.135167
5   -0.133686
6   -0.497527
7   -0.273659
8   0.160762
9   0.140169
10   0.140291
11   0.145009
12   0.144301
13   0.151637
14   0.150061
15   0.118754
16   0.14332
17   0.132545
18   0.134675
19   0.340128

$$$$

