PCCDB-ID:  8697
public computational chemistry database (PCCDB) project, http://pccdb.org

 26 25  0  0  1  0  0  0  0  0999 V2000
    1.2954    0.2328    0.5305 C   0  0  0  0  0  0  0  0  0  0  0  0
    6.9732   -2.7867   -3.7397 C   0  0  0  0  0  0  0  0  0  0  0  0
    2.7987    0.1015    0.2671 C   0  0  0  0  0  0  0  0  0  0  0  0
    6.5439   -1.9658   -2.5197 C   0  0  0  0  0  0  0  0  0  0  0  0
    3.1317   -0.9198   -0.8288 C   0  0  0  0  0  0  0  0  0  0  0  0
    4.6392   -1.0477   -1.0893 C   0  0  0  0  0  0  0  0  0  0  0  0
    5.0328   -2.0168   -2.2322 C   0  0  2  0  0  0  0  0  0  0  0  0
    4.6133   -3.4399   -1.8508 C   0  0  0  0  0  0  0  0  0  0  0  0
    5.2765   -4.1738   -1.1601 O   0  0  0  0  0  0  0  0  0  0  0  0
    3.3932   -3.8541   -2.2963 O   0  0  0  0  0  0  0  0  0  0  0  0
    1.0915    0.9676    1.3173 H   0  0  0  0  0  0  0  0  0  0  0  0
    0.8636   -0.7240    0.8482 H   0  0  0  0  0  0  0  0  0  0  0  0
    0.7603    0.5544   -0.3717 H   0  0  0  0  0  0  0  0  0  0  0  0
    8.0518   -2.6959   -3.9087 H   0  0  0  0  0  0  0  0  0  0  0  0
    6.4653   -2.4470   -4.6514 H   0  0  0  0  0  0  0  0  0  0  0  0
    6.7500   -3.8499   -3.6005 H   0  0  0  0  0  0  0  0  0  0  0  0
    3.3096   -0.1889    1.1956 H   0  0  0  0  0  0  0  0  0  0  0  0
    3.2101    1.0813   -0.0139 H   0  0  0  0  0  0  0  0  0  0  0  0
    6.8276   -0.9152   -2.6637 H   0  0  0  0  0  0  0  0  0  0  0  0
    7.0731   -2.3244   -1.6298 H   0  0  0  0  0  0  0  0  0  0  0  0
    2.6238   -0.6220   -1.7603 H   0  0  0  0  0  0  0  0  0  0  0  0
    2.7137   -1.8956   -0.5465 H   0  0  0  0  0  0  0  0  0  0  0  0
    5.1461   -1.3752   -0.1721 H   0  0  0  0  0  0  0  0  0  0  0  0
    5.0465   -0.0580   -1.3367 H   0  0  0  0  0  0  0  0  0  0  0  0
    4.4927   -1.7122   -3.1431 H   0  0  0  0  0  0  0  0  0  0  0  0
    2.9857   -3.1524   -2.8297 H   0  0  0  0  0  0  0  0  0  0  0  0
  1 12  1  0  0  0  0
  1 11  1  0  0  0  0
  2 16  1  0  0  0  0
  2  4  1  0  0  0  0
  3  1  1  0  0  0  0
  3 17  1  0  0  0  0
  4  7  1  0  0  0  0
  4 20  1  0  0  0  0
  5 22  1  0  0  0  0
  5  3  1  0  0  0  0
  6  5  1  0  0  0  0
  6 23  1  0  0  0  0
  7 25  1  6  0  0  0
  7  8  1  0  0  0  0
  7  6  1  0  0  0  0
  8  9  2  0  0  0  0
 10  8  1  0  0  0  0
 13  1  1  0  0  0  0
 14  2  1  0  0  0  0
 15  2  1  0  0  0  0
 18  3  1  0  0  0  0
 19  4  1  0  0  0  0
 21  5  1  0  0  0  0
 24  6  1  0  0  0  0
 26 10  1  0  0  0  0
M  END
>  <HBA>
2

>  <HBD>
1

>  <TPSA>
37.3

>  <cid>
8697

>  <dipole>
4.03

>  <excitation_energy_1>
5.629

>  <excitation_energy_2>
6.491

>  <excitation_energy_3>
7.141

>  <excitation_energy_4>
7.463

>  <homo_energy>
-7.246

>  <homo_lumo_gap>
7.529

>  <logP>
2.287

>  <lumo_energy>
0.283

>  <melting_point>
49.27

>  <molecular_refractivity>
42.34

>  <oscillator_strength_1>
0.0021

>  <oscillator_strength_2>
0.009

>  <oscillator_strength_3>
0.0037

>  <oscillator_strength_4>
0.0052

>  <open_babel_can_smiles>
CCCC[C@H](C(=O)O)CC

>  <mulliken_charges>
26
1   -0.443688
2   -0.459246
3   -0.248326
4   -0.250683
5   -0.27603
6   -0.260721
7   -0.189766
8   0.60435
9   -0.451488
10   -0.569118
11   0.146377
12   0.147029
13   0.140658
14   0.150158
15   0.13601
16   0.167096
17   0.139582
18   0.132661
19   0.131437
20   0.165177
21   0.117803
22   0.150164
23   0.158503
24   0.140007
25   0.114271
26   0.407777

>  <lowdin_charges>
26
1   -0.445654
2   -0.446189
3   -0.270686
4   -0.267967
5   -0.285629
6   -0.269343
7   -0.166724
8   0.198168
9   -0.245454
10   -0.359655
11   0.152654
12   0.149158
13   0.146445
14   0.153396
15   0.143564
16   0.15695
17   0.143923
18   0.139517
19   0.141986
20   0.159848
21   0.13196
22   0.146617
23   0.155042
24   0.146172
25   0.135413
26   0.356489

$$$$

