PCCDB-ID:  28014
public computational chemistry database (PCCDB) project, http://pccdb.org

 23 24  0  0  0  0  0  0  0  0999 V2000
   -1.8921   -0.8800   -0.6061 C   0  0  0  0  0  0  0  0  0  0  0  0
   -1.3624   -0.6171    0.6570 C   0  0  0  0  0  0  0  0  0  0  0  0
   -1.0311   -1.1212   -1.6797 C   0  0  0  0  0  0  0  0  0  0  0  0
    0.0216   -0.5959    0.8451 C   0  0  0  0  0  0  0  0  0  0  0  0
    0.3498   -1.0991   -1.4890 C   0  0  0  0  0  0  0  0  0  0  0  0
    2.4027   -0.8093   -0.0231 C   0  0  0  0  0  0  0  0  0  0  0  0
    4.0191   -2.4378   -1.1826 C   0  0  0  0  0  0  0  0  0  0  0  0
    2.6979   -3.3941    0.4443 C   0  0  0  0  0  0  0  0  0  0  0  0
    0.8924   -0.8341   -0.2237 C   0  0  0  0  0  0  0  0  0  0  0  0
    3.0602   -2.1318   -0.2995 C   0  0  0  0  0  0  0  0  0  0  0  0
    4.3462   -3.8778   -1.0780 C   0  0  0  0  0  0  0  0  0  0  0  0
    5.1461   -4.5387   -1.6900 O   0  0  0  0  0  0  0  0  0  0  0  0
    3.5381   -4.4155   -0.0948 O   0  0  0  0  0  0  0  0  0  0  0  0
   -2.9682   -0.8968   -0.7549 H   0  0  0  0  0  0  0  0  0  0  0  0
   -2.0237   -0.4274    1.4982 H   0  0  0  0  0  0  0  0  0  0  0  0
   -1.4357   -1.3263   -2.6672 H   0  0  0  0  0  0  0  0  0  0  0  0
    0.4283   -0.3871    1.8323 H   0  0  0  0  0  0  0  0  0  0  0  0
    1.0148   -1.2925   -2.3276 H   0  0  0  0  0  0  0  0  0  0  0  0
    2.6180   -0.5147    1.0134 H   0  0  0  0  0  0  0  0  0  0  0  0
    2.8589   -0.0461   -0.6649 H   0  0  0  0  0  0  0  0  0  0  0  0
    4.5196   -1.7838   -1.8851 H   0  0  0  0  0  0  0  0  0  0  0  0
    1.6483   -3.6770    0.2997 H   0  0  0  0  0  0  0  0  0  0  0  0
    2.8823   -3.3102    1.5238 H   0  0  0  0  0  0  0  0  0  0  0  0
  1  2  2  0  0  0  0
  2  4  1  0  0  0  0
  2 15  1  0  0  0  0
  3  5  2  0  0  0  0
  3  1  1  0  0  0  0
  4 17  1  0  0  0  0
  5  9  1  0  0  0  0
  6 19  1  0  0  0  0
  7 11  1  0  0  0  0
  7 10  2  0  0  0  0
  8 23  1  0  0  0  0
  9  6  1  0  0  0  0
  9  4  2  0  0  0  0
 10  6  1  0  0  0  0
 10  8  1  0  0  0  0
 11 13  1  0  0  0  0
 12 11  2  0  0  0  0
 13  8  1  0  0  0  0
 14  1  1  0  0  0  0
 16  3  1  0  0  0  0
 18  5  1  0  0  0  0
 20  6  1  0  0  0  0
 21  7  1  0  0  0  0
 22  8  1  0  0  0  0
M  END
>  <HBA>
2

>  <HBD>
0

>  <TPSA>
26.3

>  <cid>
28014

>  <dipole>
5.65

>  <excitation_energy_1>
4.743

>  <excitation_energy_2>
5.025

>  <excitation_energy_3>
5.212

>  <excitation_energy_4>
5.434

>  <homo_energy>
-6.974

>  <homo_lumo_gap>
5.812

>  <logP>
1.712

>  <lumo_energy>
-1.162

>  <melting_point>
52.72

>  <molecular_refractivity>
49.33

>  <oscillator_strength_1>
0.0024

>  <oscillator_strength_2>
0.0377

>  <oscillator_strength_3>
0.0022

>  <oscillator_strength_4>
0.0154

>  <open_babel_can_smiles>
O=C1OCC(=C1)Cc1ccccc1

>  <mulliken_charges>
23
1   -0.128758
2   -0.12532
3   -0.127295
4   -0.193167
5   -0.174235
6   -0.433561
7   -0.244961
8   -0.079721
9   0.164841
10   0.153437
11   0.605469
12   -0.46996
13   -0.466164
14   0.136072
15   0.135881
16   0.137903
17   0.127608
18   0.135767
19   0.16599
20   0.173567
21   0.155492
22   0.183443
23   0.167672

>  <lowdin_charges>
23
1   -0.152348
2   -0.15295
3   -0.149155
4   -0.16944
5   -0.164308
6   -0.269919
7   -0.219284
8   -0.124759
9   -0.008218
10   0.015575
11   0.192567
12   -0.240433
13   -0.19703
14   0.159118
15   0.161705
16   0.161202
17   0.155413
18   0.161479
19   0.16415
20   0.17002
21   0.179287
22   0.167856
23   0.159472

$$$$

