PCCDB-ID:  62118
public computational chemistry database (PCCDB) project, http://pccdb.org

 22 21  0  0  0  0  0  0  0  0999 V2000
    0.7306   -0.3645    0.6582 C   0  0  0  0  0  0  0  0  0  0  0  0
    2.3830    1.5159    0.4983 C   0  0  0  0  0  0  0  0  0  0  0  0
    2.6535   -1.7981   -1.0810 C   0  0  0  0  0  0  0  0  0  0  0  0
    3.0100   -0.6442    1.7016 C   0  0  0  0  0  0  0  0  0  0  0  0
    4.5203   -0.4395    1.6555 C   0  0  0  0  0  0  0  0  0  0  0  0
    2.2221   -0.0099    0.5326 C   0  0  0  0  0  0  0  0  0  0  0  0
    5.0778   -1.1854    2.7373 O   0  0  0  0  0  0  0  0  0  0  0  0
    2.7522   -0.4284   -0.7434 O   0  0  0  0  0  0  0  0  0  0  0  0
    0.3022    0.1085    1.5486 H   0  0  0  0  0  0  0  0  0  0  0  0
    0.5678   -1.4436    0.7513 H   0  0  0  0  0  0  0  0  0  0  0  0
    0.1820   -0.0046   -0.2191 H   0  0  0  0  0  0  0  0  0  0  0  0
    2.0804    1.9627    1.4516 H   0  0  0  0  0  0  0  0  0  0  0  0
    1.7617    1.9386   -0.2978 H   0  0  0  0  0  0  0  0  0  0  0  0
    3.4208    1.7950    0.2944 H   0  0  0  0  0  0  0  0  0  0  0  0
    3.1315   -1.9038   -2.0591 H   0  0  0  0  0  0  0  0  0  0  0  0
    1.6122   -2.1395   -1.1669 H   0  0  0  0  0  0  0  0  0  0  0  0
    3.1764   -2.4525   -0.3683 H   0  0  0  0  0  0  0  0  0  0  0  0
    2.6264   -0.2417    2.6475 H   0  0  0  0  0  0  0  0  0  0  0  0
    2.8217   -1.7245    1.7356 H   0  0  0  0  0  0  0  0  0  0  0  0
    4.7684    0.6289    1.7507 H   0  0  0  0  0  0  0  0  0  0  0  0
    4.9137   -0.7823    0.6874 H   0  0  0  0  0  0  0  0  0  0  0  0
    6.0393   -1.0676    2.7107 H   0  0  0  0  0  0  0  0  0  0  0  0
  1 10  1  0  0  0  0
  1  9  1  0  0  0  0
  2  6  1  0  0  0  0
  2 12  1  0  0  0  0
  3  8  1  0  0  0  0
  3 17  1  0  0  0  0
  4 19  1  0  0  0  0
  4 18  1  0  0  0  0
  5  4  1  0  0  0  0
  5 20  1  0  0  0  0
  5  7  1  0  0  0  0
  6  1  1  0  0  0  0
  6  4  1  0  0  0  0
  8  6  1  0  0  0  0
 11  1  1  0  0  0  0
 13  2  1  0  0  0  0
 14  2  1  0  0  0  0
 15  3  1  0  0  0  0
 16  3  1  0  0  0  0
 21  5  1  0  0  0  0
 22  7  1  0  0  0  0
M  END
>  <HBA>
2

>  <HBD>
1

>  <TPSA>
29.46

>  <cid>
62118

>  <dipole>
0.4

>  <excitation_energy_1>
6.212

>  <excitation_energy_2>
6.371

>  <excitation_energy_3>
6.527

>  <excitation_energy_4>
6.711

>  <homo_energy>
-6.713

>  <homo_lumo_gap>
8.825

>  <logP>
0.794

>  <lumo_energy>
2.112

>  <melting_point>
-5.87

>  <molecular_refractivity>
33.24

>  <oscillator_strength_1>
0.001

>  <oscillator_strength_2>
0.001

>  <oscillator_strength_3>
0.005

>  <oscillator_strength_4>
0.0137

>  <open_babel_can_smiles>
OCCC(OC)(C)C

>  <mulliken_charges>
22
1   -0.467084
2   -0.454519
3   -0.202115
4   -0.284956
5   -0.036199
6   0.32427
7   -0.625595
8   -0.492998
9   0.145871
10   0.14458
11   0.151812
12   0.138271
13   0.150621
14   0.154397
15   0.154844
16   0.133481
17   0.134501
18   0.143011
19   0.144518
20   0.119766
21   0.133768
22   0.389756

>  <lowdin_charges>
22
1   -0.455915
2   -0.44681
3   -0.284821
4   -0.294529
5   -0.134481
6   0.129497
7   -0.47403
8   -0.280216
9   0.156381
10   0.148508
11   0.156092
12   0.150014
13   0.15691
14   0.154443
15   0.153595
16   0.132481
17   0.134561
18   0.153357
19   0.148117
20   0.12417
21   0.131943
22   0.340734

$$$$

