PCCDB-ID:  13690
public computational chemistry database (PCCDB) project, http://pccdb.org

 37 37  0  0  0  0  0  0  0  0999 V2000
    1.5562    2.5788    0.4921 C   0  0  0  0  0  0  0  0  0  0  0  0
    0.2239    2.4479   -0.2800 C   0  0  0  0  0  0  0  0  0  0  0  0
    2.6889    1.5924    0.1385 C   0  0  0  0  0  0  0  0  0  0  0  0
   -0.8065    1.5272    0.3906 C   0  0  0  0  0  0  0  0  0  0  0  0
    2.4512    0.0849    0.3930 C   0  0  0  0  0  0  0  0  0  0  0  0
   -2.0939    1.3586   -0.4307 C   0  0  0  0  0  0  0  0  0  0  0  0
    1.8939   -0.6900   -0.8136 C   0  0  0  0  0  0  0  0  0  0  0  0
   -3.1533    0.4307    0.1957 C   0  0  0  0  0  0  0  0  0  0  0  0
    1.6950   -2.1964   -0.5753 C   0  0  0  0  0  0  0  0  0  0  0  0
   -2.9287   -1.0824   -0.0409 C   0  0  0  0  0  0  0  0  0  0  0  0
    0.5343   -2.5463    0.3691 C   0  0  0  0  0  0  0  0  0  0  0  0
   -1.6440   -1.6332    0.5321 C   0  0  0  0  0  0  0  0  0  0  0  0
   -0.7273   -2.0938   -0.2111 N   0  0  0  0  0  0  0  0  0  0  0  0
   -1.5286   -1.5808    1.9040 O   0  0  0  0  0  0  0  0  0  0  0  0
    1.3510    2.5161    1.5714 H   0  0  0  0  0  0  0  0  0  0  0  0
    1.9557    3.5887    0.3276 H   0  0  0  0  0  0  0  0  0  0  0  0
    0.4235    2.0991   -1.3032 H   0  0  0  0  0  0  0  0  0  0  0  0
   -0.2266    3.4449   -0.3881 H   0  0  0  0  0  0  0  0  0  0  0  0
    3.5664    1.9058    0.7203 H   0  0  0  0  0  0  0  0  0  0  0  0
    2.9694    1.7349   -0.9159 H   0  0  0  0  0  0  0  0  0  0  0  0
   -1.0616    1.9425    1.3775 H   0  0  0  0  0  0  0  0  0  0  0  0
   -0.3544    0.5509    0.5798 H   0  0  0  0  0  0  0  0  0  0  0  0
    1.8026   -0.0427    1.2705 H   0  0  0  0  0  0  0  0  0  0  0  0
    3.4108   -0.3767    0.6665 H   0  0  0  0  0  0  0  0  0  0  0  0
   -1.8410    0.9839   -1.4328 H   0  0  0  0  0  0  0  0  0  0  0  0
   -2.5433    2.3501   -0.5819 H   0  0  0  0  0  0  0  0  0  0  0  0
    2.5926   -0.5588   -1.6521 H   0  0  0  0  0  0  0  0  0  0  0  0
    0.9399   -0.2639   -1.1459 H   0  0  0  0  0  0  0  0  0  0  0  0
   -4.1388    0.6733   -0.2208 H   0  0  0  0  0  0  0  0  0  0  0  0
   -3.2329    0.6436    1.2739 H   0  0  0  0  0  0  0  0  0  0  0  0
    2.6197   -2.6350   -0.1729 H   0  0  0  0  0  0  0  0  0  0  0  0
    1.5033   -2.6845   -1.5391 H   0  0  0  0  0  0  0  0  0  0  0  0
   -2.9116   -1.2888   -1.1139 H   0  0  0  0  0  0  0  0  0  0  0  0
   -3.7777   -1.6373    0.3862 H   0  0  0  0  0  0  0  0  0  0  0  0
    0.7085   -2.1356    1.3728 H   0  0  0  0  0  0  0  0  0  0  0  0
    0.4888   -3.6391    0.4816 H   0  0  0  0  0  0  0  0  0  0  0  0
   -2.3037   -1.1299    2.2737 H   0  0  0  0  0  0  0  0  0  0  0  0
  1 15  1  0  0  0  0
  2  4  1  0  0  0  0
  2  1  1  0  0  0  0
  3  5  1  0  0  0  0
  3  1  1  0  0  0  0
  3 19  1  0  0  0  0
  4 22  1  0  0  0  0
  4 21  1  0  0  0  0
  5 24  1  0  0  0  0
  5 23  1  0  0  0  0
  6  8  1  0  0  0  0
  6  4  1  0  0  0  0
  7  9  1  0  0  0  0
  7  5  1  0  0  0  0
  8 30  1  0  0  0  0
  9 31  1  0  0  0  0
  9 11  1  0  0  0  0
 10  8  1  0  0  0  0
 10 34  1  0  0  0  0
 10 12  1  0  0  0  0
 11 36  1  0  0  0  0
 11 35  1  0  0  0  0
 12 14  1  0  0  0  0
 13 11  1  0  0  0  0
 13 12  2  0  0  0  0
 14 37  1  0  0  0  0
 16  1  1  0  0  0  0
 17  2  1  0  0  0  0
 18  2  1  0  0  0  0
 20  3  1  0  0  0  0
 25  6  1  0  0  0  0
 26  6  1  0  0  0  0
 27  7  1  0  0  0  0
 28  7  1  0  0  0  0
 29  8  1  0  0  0  0
 32  9  1  0  0  0  0
 33 10  1  0  0  0  0
M  END
>  <HBA>
2

>  <HBD>
1

>  <TPSA>
29.1

>  <cid>
13690

>  <dipole>
2.48

>  <excitation_energy_1>
5.722

>  <excitation_energy_2>
5.931

>  <excitation_energy_3>
6.019

>  <excitation_energy_4>
6.611

>  <homo_energy>
-6.593

>  <homo_lumo_gap>
7.388

>  <logP>
3.346

>  <lumo_energy>
0.795

>  <melting_point>
40.6

>  <molecular_refractivity>
64.6

>  <oscillator_strength_1>
0.0067

>  <oscillator_strength_2>
0.0101

>  <oscillator_strength_3>
0.0117

>  <oscillator_strength_4>
0.0235

>  <open_babel_can_smiles>
O/C/1=N\CCCCCCCCCCC1

>  <mulliken_charges>
37
1   -0.260851
2   -0.254037
3   -0.259315
4   -0.2757
5   -0.258125
6   -0.254304
7   -0.265389
8   -0.276482
9   -0.254847
10   -0.35033
11   -0.154175
12   0.514372
13   -0.439519
14   -0.613924
15   0.126815
16   0.126771
17   0.133709
18   0.124415
19   0.126258
20   0.127671
21   0.119994
22   0.170311
23   0.135896
24   0.124486
25   0.143038
26   0.13049
27   0.123161
28   0.154052
29   0.145164
30   0.115983
31   0.119498
32   0.136383
33   0.176371
34   0.144704
35   0.147133
36   0.141118
37   0.409205

>  <lowdin_charges>
37
1   -0.274212
2   -0.277481
3   -0.275783
4   -0.285108
5   -0.283635
6   -0.275892
7   -0.283242
8   -0.274127
9   -0.278877
10   -0.296324
11   -0.203627
12   0.126279
13   -0.222141
14   -0.394971
15   0.13553
16   0.141288
17   0.139407
18   0.137563
19   0.14234
20   0.136368
21   0.133132
22   0.15486
23   0.140111
24   0.138784
25   0.145397
26   0.141521
27   0.138941
28   0.147678
29   0.150548
30   0.128141
31   0.137433
32   0.146644
33   0.17029
34   0.152361
35   0.137199
36   0.145953
37   0.35765

$$$$

