PCCDB-ID:  12800
public computational chemistry database (PCCDB) project, http://pccdb.org

 32 34  0  0  1  0  0  0  0  0999 V2000
    0.9751    0.0910    0.0228 C   0  0  0  0  0  0  0  0  0  0  0  0
    5.1076    2.6767   -1.3380 C   0  0  0  0  0  0  0  0  0  0  0  0
    5.1065   -1.1993    0.7047 C   0  0  0  0  0  0  0  0  0  0  0  0
    3.0505   -1.1403   -0.7460 C   0  0  0  0  0  0  0  0  0  0  0  0
    3.0506    0.0308    1.4751 C   0  0  0  0  0  0  0  0  0  0  0  0
    5.1044    0.1450   -1.4228 C   0  0  0  0  0  0  0  0  0  0  0  0
    5.1043    1.3162    0.7985 C   0  0  0  0  0  0  0  0  0  0  0  0
    3.0548    1.3671   -0.6485 C   0  0  0  0  0  0  0  0  0  0  0  0
    4.5920   -1.1426   -0.7477 C   0  0  1  0  0  0  0  0  0  0  0  0
    4.5921    0.0311    1.4788 C   0  0  2  0  0  0  0  0  0  0  0  0
    2.5079    0.0863    0.0264 C   0  0  2  0  0  0  0  0  0  0  0  0
    4.6019    1.3965   -0.6633 C   0  0  1  0  0  0  0  0  0  0  0  0
    0.5754   -0.8132    0.4992 H   0  0  0  0  0  0  0  0  0  0  0  0
    0.5819    0.1317   -1.0010 H   0  0  0  0  0  0  0  0  0  0  0  0
    0.5804    0.9583    0.5674 H   0  0  0  0  0  0  0  0  0  0  0  0
    6.2045    2.7087   -1.3549 H   0  0  0  0  0  0  0  0  0  0  0  0
    4.7553    3.5701   -0.8068 H   0  0  0  0  0  0  0  0  0  0  0  0
    4.7552    2.7438   -2.3752 H   0  0  0  0  0  0  0  0  0  0  0  0
    6.2052   -1.2213    0.7163 H   0  0  0  0  0  0  0  0  0  0  0  0
    4.7635   -2.1230    1.1914 H   0  0  0  0  0  0  0  0  0  0  0  0
    2.6719   -2.0646   -0.2865 H   0  0  0  0  0  0  0  0  0  0  0  0
    2.6729   -1.1224   -1.7788 H   0  0  0  0  0  0  0  0  0  0  0  0
    2.6722    0.8923    2.0443 H   0  0  0  0  0  0  0  0  0  0  0  0
    2.6719   -0.8709    1.9778 H   0  0  0  0  0  0  0  0  0  0  0  0
    4.7614    0.1850   -2.4670 H   0  0  0  0  0  0  0  0  0  0  0  0
    6.2036    0.1452   -1.4514 H   0  0  0  0  0  0  0  0  0  0  0  0
    6.2035    1.3401    0.8144 H   0  0  0  0  0  0  0  0  0  0  0  0
    4.7608    2.1999    1.3557 H   0  0  0  0  0  0  0  0  0  0  0  0
    2.6748    2.2536   -0.1187 H   0  0  0  0  0  0  0  0  0  0  0  0
    2.6754    1.4319   -1.6793 H   0  0  0  0  0  0  0  0  0  0  0  0
    4.9564   -2.0174   -1.3030 H   0  0  0  0  0  0  0  0  0  0  0  0
    4.9558   -0.0054    2.5145 H   0  0  0  0  0  0  0  0  0  0  0  0
  1 13  1  0  0  0  0
  1 15  1  0  0  0  0
  2 17  1  0  0  0  0
  3 19  1  0  0  0  0
  3 20  1  0  0  0  0
  3 10  1  0  0  0  0
  4 21  1  0  0  0  0
  4 11  1  0  0  0  0
  5 10  1  0  0  0  0
  5 24  1  0  0  0  0
  5 23  1  0  0  0  0
  6  9  1  0  0  0  0
  6 12  1  0  0  0  0
  7 27  1  0  0  0  0
  7 28  1  0  0  0  0
  7 10  1  0  0  0  0
  8 29  1  0  0  0  0
  8 11  1  0  0  0  0
  9 31  1  6  0  0  0
  9  4  1  0  0  0  0
  9  3  1  0  0  0  0
 10 32  1  1  0  0  0
 11  1  1  6  0  0  0
 11  5  1  0  0  0  0
 12  2  1  6  0  0  0
 12  8  1  0  0  0  0
 12  7  1  0  0  0  0
 14  1  1  0  0  0  0
 16  2  1  0  0  0  0
 18  2  1  0  0  0  0
 22  4  1  0  0  0  0
 25  6  1  0  0  0  0
 26  6  1  0  0  0  0
 30  8  1  0  0  0  0
M  END
>  <HBA>
0

>  <HBD>
0

>  <TPSA>
0.0

>  <cid>
12800

>  <dipole>
0.12

>  <excitation_energy_1>
6.727

>  <excitation_energy_2>
6.798

>  <excitation_energy_3>
6.861

>  <excitation_energy_4>
7.326

>  <homo_energy>
-7.391

>  <homo_lumo_gap>
9.26

>  <logP>
3.613

>  <lumo_energy>
1.869

>  <melting_point>
74.56

>  <molecular_refractivity>
52.94

>  <oscillator_strength_1>
0.0071

>  <oscillator_strength_2>
0.0209

>  <oscillator_strength_3>
0.0579

>  <oscillator_strength_4>
0.0049

>  <open_babel_can_smiles>
C[C@]12C[C@@H]3C[C@H](C1)C[C@](C2)(C3)C

>  <mulliken_charges>
32
1   -0.450669
2   -0.450731
3   -0.264232
4   -0.265893
5   -0.265676
6   -0.265839
7   -0.265835
8   -0.266804
9   -0.092401
10   -0.092756
11   0.090714
12   0.090904
13   0.136079
14   0.136028
15   0.135967
16   0.13609
17   0.135961
18   0.135983
19   0.12383
20   0.123804
21   0.12139
22   0.121421
23   0.121376
24   0.12129
25   0.121354
26   0.121368
27   0.121366
28   0.121406
29   0.118759
30   0.118822
31   0.113419
32   0.113504

>  <lowdin_charges>
32
1   -0.441257
2   -0.437646
3   -0.278884
4   -0.278355
5   -0.280556
6   -0.275203
7   -0.27744
8   -0.276659
9   -0.131904
10   -0.12988
11   0.004052
12   0.003703
13   0.146591
14   0.145267
15   0.146742
16   0.144014
17   0.146435
18   0.144893
19   0.136838
20   0.139298
21   0.138489
22   0.136959
23   0.138772
24   0.138684
25   0.136633
26   0.135936
27   0.135957
28   0.13856
29   0.137673
30   0.136134
31   0.138999
32   0.137153

$$$$

