PCCDB-ID:  41331
public computational chemistry database (PCCDB) project, http://pccdb.org

 18 17  0  0  0  0  0  0  0  0999 V2000
    1.5563    2.0394    0.6856 C   0  0  0  0  0  0  0  0  0  0  0  0
    1.7886    1.1249   -0.5075 C   0  0  0  0  0  0  0  0  0  0  0  0
    6.0126   -1.0895    0.2063 C   0  0  0  0  0  0  0  0  0  0  0  0
    4.6761   -1.0540    0.1899 C   0  0  0  0  0  0  0  0  0  0  0  0
    6.7400   -2.3339    0.5965 C   0  0  0  0  0  0  0  0  0  0  0  0
    3.9568    0.1882   -0.2006 C   0  0  0  0  0  0  0  0  0  0  0  0
    6.1971   -3.3632    0.9198 O   0  0  0  0  0  0  0  0  0  0  0  0
    8.0968   -2.2524    0.5705 O   0  0  0  0  0  0  0  0  0  0  0  0
    4.4955    1.2290   -0.5248 O   0  0  0  0  0  0  0  0  0  0  0  0
    2.6241   -0.0050   -0.1488 O   0  0  0  0  0  0  0  0  0  0  0  0
    0.8644    2.8420    0.4060 H   0  0  0  0  0  0  0  0  0  0  0  0
    2.4954    2.4950    1.0118 H   0  0  0  0  0  0  0  0  0  0  0  0
    1.1199    1.4848    1.5224 H   0  0  0  0  0  0  0  0  0  0  0  0
    2.2613    1.6601   -1.3344 H   0  0  0  0  0  0  0  0  0  0  0  0
    0.8580    0.6686   -0.8526 H   0  0  0  0  0  0  0  0  0  0  0  0
    6.5665   -0.1944   -0.0718 H   0  0  0  0  0  0  0  0  0  0  0  0
    4.0942   -1.9291    0.4617 H   0  0  0  0  0  0  0  0  0  0  0  0
    8.3803   -1.3662    0.2915 H   0  0  0  0  0  0  0  0  0  0  0  0
  1 12  1  0  0  0  0
  1 13  1  0  0  0  0
  2 10  1  0  0  0  0
  2  1  1  0  0  0  0
  3  5  1  0  0  0  0
  4  3  2  0  0  0  0
  4 17  1  0  0  0  0
  5  7  2  0  0  0  0
  6 10  1  0  0  0  0
  6  4  1  0  0  0  0
  8  5  1  0  0  0  0
  9  6  2  0  0  0  0
 11  1  1  0  0  0  0
 14  2  1  0  0  0  0
 15  2  1  0  0  0  0
 16  3  1  0  0  0  0
 18  8  1  0  0  0  0
M  END
>  <HBA>
4

>  <HBD>
1

>  <TPSA>
63.6

>  <cid>
41331

>  <dipole>
3.55

>  <excitation_energy_1>
4.012

>  <excitation_energy_2>
4.224

>  <excitation_energy_3>
5.378

>  <excitation_energy_4>
5.458

>  <homo_energy>
-7.706

>  <homo_lumo_gap>
5.26

>  <logP>
0.19

>  <lumo_energy>
-2.446

>  <melting_point>
72.83

>  <molecular_refractivity>
33.54

>  <oscillator_strength_1>
0.0001

>  <oscillator_strength_2>
0.0002

>  <oscillator_strength_3>
0.0722

>  <oscillator_strength_4>
0.2939

>  <open_babel_can_smiles>
CCOC(=O)/C=C/C(=O)O

>  <mulliken_charges>
18
1   -0.463943
2   -0.048366
3   -0.201399
4   -0.15373
5   0.609159
6   0.621691
7   -0.441653
8   -0.573874
9   -0.488015
10   -0.466305
11   0.155358
12   0.177507
13   0.162413
14   0.174326
15   0.160192
16   0.168094
17   0.194467
18   0.414077

>  <lowdin_charges>
18
1   -0.456089
2   -0.128585
3   -0.174746
4   -0.131897
5   0.196377
6   0.194539
7   -0.233888
8   -0.34931
9   -0.269299
10   -0.182943
11   0.162512
12   0.166332
13   0.159764
14   0.161926
15   0.156776
16   0.175076
17   0.193555
18   0.3599

$$$$

