PCCDB-ID:  11749
public computational chemistry database (PCCDB) project, http://pccdb.org

 16 15  0  0  1  0  0  0  0  0999 V2000
    3.9032   -1.0253   -0.1953 C   0  0  0  0  0  0  0  0  0  0  0  0
    2.4576    2.5700    0.5026 C   0  0  0  0  0  0  0  0  0  0  0  0
    3.1173    0.0969    0.4902 C   0  0  0  0  0  0  0  0  0  0  0  0
    3.2617    1.4669   -0.1828 C   0  0  2  0  0  0  0  0  0  0  0  0
    4.7322    1.8648   -0.1687 N   0  0  0  0  0  0  0  0  0  0  0  0
    5.2630    2.0091    0.9303 O   0  0  0  0  0  0  0  0  0  0  0  0
    5.2926    2.0085   -1.2512 O   0  0  0  0  0  0  0  0  0  0  0  0
    3.7200   -1.9814    0.3058 H   0  0  0  0  0  0  0  0  0  0  0  0
    4.9819   -0.8377   -0.1646 H   0  0  0  0  0  0  0  0  0  0  0  0
    3.6109   -1.1351   -1.2461 H   0  0  0  0  0  0  0  0  0  0  0  0
    1.3933    2.3157    0.4687 H   0  0  0  0  0  0  0  0  0  0  0  0
    2.5946    3.5324   -0.0008 H   0  0  0  0  0  0  0  0  0  0  0  0
    2.7620    2.6732    1.5475 H   0  0  0  0  0  0  0  0  0  0  0  0
    3.4237    0.1939    1.5379 H   0  0  0  0  0  0  0  0  0  0  0  0
    2.0464   -0.1429    0.4909 H   0  0  0  0  0  0  0  0  0  0  0  0
    3.0230    1.4054   -1.2466 H   0  0  0  0  0  0  0  0  0  0  0  0
  1  9  1  0  0  0  0
  1  8  1  0  0  0  0
  1  3  1  0  0  0  0
  2 13  1  0  0  0  0
  3 15  1  0  0  0  0
  3 14  1  0  0  0  0
  4 16  1  6  0  0  0
  4  5  1  0  0  0  0
  4  3  1  0  0  0  0
  4  2  1  0  0  0  0
  5  6  2  0  0  0  0
  7  5  2  0  0  0  0
 10  1  1  0  0  0  0
 11  2  1  0  0  0  0
 12  2  1  0  0  0  0
M  END
>  <HBA>
0

>  <HBD>
0

>  <TPSA>
45.82

>  <cid>
11749

>  <dipole>
3.69

>  <excitation_energy_1>
4.123

>  <excitation_energy_2>
4.4

>  <excitation_energy_3>
6.669

>  <excitation_energy_4>
6.718

>  <homo_energy>
-7.834

>  <homo_lumo_gap>
6.144

>  <logP>
1.585

>  <lumo_energy>
-1.69

>  <melting_point>
5.52

>  <molecular_refractivity>
29.45

>  <oscillator_strength_1>
0.0002

>  <oscillator_strength_2>
0.0002

>  <oscillator_strength_3>
0.0145

>  <oscillator_strength_4>
0.0384

>  <open_babel_can_smiles>
CC[C@H](N(=O)=O)C

>  <mulliken_charges>
16
1   -0.457956
2   -0.460071
3   -0.267615
4   -0.000267
5   0.455172
6   -0.378747
7   -0.37636
8   0.156225
9   0.169596
10   0.152956
11   0.162406
12   0.16986
13   0.182616
14   0.169698
15   0.150336
16   0.17215

>  <lowdin_charges>
16
1   -0.445783
2   -0.442843
3   -0.274236
4   -0.075293
5   0.292983
6   -0.25137
7   -0.242594
8   0.158502
9   0.157913
10   0.151726
11   0.162619
12   0.164105
13   0.168688
14   0.159469
15   0.153308
16   0.162805

$$$$

