PCCDB-ID:  14129
public computational chemistry database (PCCDB) project, http://pccdb.org

 26 27  0  0  0  0  0  0  0  0999 V2000
   -1.3098    0.4424    0.6918 C   0  0  0  0  0  0  0  0  0  0  0  0
   -0.0281    0.2908   -1.3478 C   0  0  0  0  0  0  0  0  0  0  0  0
   -1.7885   -0.8484    0.5002 C   0  0  0  0  0  0  0  0  0  0  0  0
   -0.4979   -1.0037   -1.5590 C   0  0  0  0  0  0  0  0  0  0  0  0
   -1.8620    3.7301   -0.9658 C   0  0  0  0  0  0  0  0  0  0  0  0
   -1.1410    4.2815    1.2410 C   0  0  0  0  0  0  0  0  0  0  0  0
   -2.8337    4.7203   -0.8371 C   0  0  0  0  0  0  0  0  0  0  0  0
   -2.1487    5.2483    1.2707 C   0  0  0  0  0  0  0  0  0  0  0  0
    0.1043    2.4361    0.0074 C   0  0  0  0  0  0  0  0  0  0  0  0
   -0.4226    1.0299   -0.2249 C   0  0  0  0  0  0  0  0  0  0  0  0
   -0.9815    3.4948    0.0975 C   0  0  0  0  0  0  0  0  0  0  0  0
   -1.3735   -1.5552   -0.6283 C   0  0  0  0  0  0  0  0  0  0  0  0
   -2.9903    5.4781    0.2575 N   0  0  0  0  0  0  0  0  0  0  0  0
   -1.8723   -2.9222   -0.8428 N   0  0  0  0  0  0  0  0  0  0  0  0
   -2.6428   -3.3891   -0.0039 O   0  0  0  0  0  0  0  0  0  0  0  0
   -1.4887   -3.5188   -1.8489 O   0  0  0  0  0  0  0  0  0  0  0  0
   -1.6328    1.0067    1.5622 H   0  0  0  0  0  0  0  0  0  0  0  0
    0.6596    0.7302   -2.0654 H   0  0  0  0  0  0  0  0  0  0  0  0
   -2.4707   -1.3135    1.2011 H   0  0  0  0  0  0  0  0  0  0  0  0
   -0.1995   -1.5852   -2.4223 H   0  0  0  0  0  0  0  0  0  0  0  0
   -1.7971    3.1476   -1.8811 H   0  0  0  0  0  0  0  0  0  0  0  0
   -0.4879    4.1507    2.1003 H   0  0  0  0  0  0  0  0  0  0  0  0
   -3.5243    4.9167   -1.6557 H   0  0  0  0  0  0  0  0  0  0  0  0
   -2.2838    5.8684    2.1557 H   0  0  0  0  0  0  0  0  0  0  0  0
    0.7967    2.6945   -0.8034 H   0  0  0  0  0  0  0  0  0  0  0  0
    0.6935    2.4536    0.9330 H   0  0  0  0  0  0  0  0  0  0  0  0
  1 17  1  0  0  0  0
  2 10  1  0  0  0  0
  3  1  1  0  0  0  0
  3 19  1  0  0  0  0
  4  2  2  0  0  0  0
  4 12  1  0  0  0  0
  5  7  2  0  0  0  0
  5 11  1  0  0  0  0
  6  8  1  0  0  0  0
  6 22  1  0  0  0  0
  7 13  1  0  0  0  0
  8 24  1  0  0  0  0
  9 11  1  0  0  0  0
  9 26  1  0  0  0  0
 10  9  1  0  0  0  0
 10  1  2  0  0  0  0
 11  6  2  0  0  0  0
 12  3  2  0  0  0  0
 13  8  2  0  0  0  0
 14 12  1  0  0  0  0
 14 15  2  0  0  0  0
 16 14  2  0  0  0  0
 18  2  1  0  0  0  0
 20  4  1  0  0  0  0
 21  5  1  0  0  0  0
 23  7  1  0  0  0  0
 25  9  1  0  0  0  0
M  END
>  <HBA>
1

>  <HBD>
0

>  <TPSA>
58.71

>  <cid>
14129

>  <dipole>
4.35

>  <excitation_energy_1>
3.741

>  <excitation_energy_2>
4.094

>  <excitation_energy_3>
4.217

>  <excitation_energy_4>
4.262

>  <homo_energy>
-7.102

>  <homo_lumo_gap>
4.623

>  <logP>
3.104

>  <lumo_energy>
-2.479

>  <melting_point>
92.85

>  <molecular_refractivity>
62.51

>  <oscillator_strength_1>
0.0

>  <oscillator_strength_2>
0.0142

>  <oscillator_strength_3>
0.0454

>  <oscillator_strength_4>
0.0011

>  <open_babel_can_smiles>
O=N(=O)c1ccc(cc1)Cc1ccncc1

>  <mulliken_charges>
26
1   -0.184598
2   -0.208182
3   -0.146709
4   -0.144624
5   -0.179046
6   -0.201141
7   0.039156
8   0.043323
9   -0.443136
10   0.20063
11   0.196863
12   0.272163
13   -0.405448
14   0.380009
15   -0.394313
16   -0.395031
17   0.150455
18   0.144168
19   0.185425
20   0.185029
21   0.138338
22   0.133773
23   0.146189
24   0.144987
25   0.170797
26   0.170923

>  <lowdin_charges>
26
1   -0.15304
2   -0.164242
3   -0.134746
4   -0.134992
5   -0.181011
6   -0.191588
7   -0.085407
8   -0.085096
9   -0.272608
10   0.019904
11   0.020766
12   9.7e-05
13   -0.148088
14   0.310615
15   -0.24723
16   -0.247754
17   0.169506
18   0.165896
19   0.190083
20   0.189498
21   0.164877
22   0.162052
23   0.159903
24   0.158868
25   0.167154
26   0.166582

$$$$

