PCCDB-ID:  51886
public computational chemistry database (PCCDB) project, http://pccdb.org

 26 26  0  0  1  0  0  0  0  0999 V2000
    4.3473    1.8829   -2.7201 C   0  0  0  0  0  0  0  0  0  0  0  0
    4.0378   -4.3390    0.9767 C   0  0  0  0  0  0  0  0  0  0  0  0
    5.3634   -3.9103    1.0740 C   0  0  0  0  0  0  0  0  0  0  0  0
    3.0127   -3.3921    0.9420 C   0  0  0  0  0  0  0  0  0  0  0  0
    5.6659   -2.5505    1.1293 C   0  0  0  0  0  0  0  0  0  0  0  0
    3.3083   -2.0292    0.9907 C   0  0  0  0  0  0  0  0  0  0  0  0
    3.3786    1.3405   -1.6762 C   0  0  1  0  0  0  0  0  0  0  0  0
    4.6426   -1.5942    1.0718 C   0  0  0  0  0  0  0  0  0  0  0  0
    2.1490    0.6877   -2.3315 C   0  0  0  0  0  0  0  0  0  0  0  0
    4.6219    0.6184    0.3075 C   0  0  0  0  0  0  0  0  0  0  0  0
    4.9812   -0.2278    1.1802 N   0  0  0  0  0  0  0  0  0  0  0  0
    1.4474    1.3160   -3.0852 O   0  0  0  0  0  0  0  0  0  0  0  0
    1.9066   -0.5942   -2.0133 O   0  0  0  0  0  0  0  0  0  0  0  0
    4.8688    1.9367    0.4541 O   0  0  0  0  0  0  0  0  0  0  0  0
    4.0093    0.3202   -0.8558 O   0  0  0  0  0  0  0  0  0  0  0  0
    3.8091    2.5620   -3.3861 H   0  0  0  0  0  0  0  0  0  0  0  0
    4.7651    1.0648   -3.3154 H   0  0  0  0  0  0  0  0  0  0  0  0
    5.1624    2.4245   -2.2337 H   0  0  0  0  0  0  0  0  0  0  0  0
    3.8052   -5.3993    0.9382 H   0  0  0  0  0  0  0  0  0  0  0  0
    6.1694   -4.6386    1.1110 H   0  0  0  0  0  0  0  0  0  0  0  0
    1.9757   -3.7119    0.8821 H   0  0  0  0  0  0  0  0  0  0  0  0
    6.6938   -2.2109    1.2139 H   0  0  0  0  0  0  0  0  0  0  0  0
    2.5049   -1.2967    0.9955 H   0  0  0  0  0  0  0  0  0  0  0  0
    3.0182    2.1448   -1.0298 H   0  0  0  0  0  0  0  0  0  0  0  0
    2.6074   -0.9128   -1.4096 H   0  0  0  0  0  0  0  0  0  0  0  0
    5.2979    2.0267    1.3241 H   0  0  0  0  0  0  0  0  0  0  0  0
  1 18  1  0  0  0  0
  1  7  1  0  0  0  0
  2  3  1  0  0  0  0
  3 20  1  0  0  0  0
  3  5  2  0  0  0  0
  4  2  2  0  0  0  0
  4  6  1  0  0  0  0
  5 22  1  0  0  0  0
  6 23  1  0  0  0  0
  6  8  2  0  0  0  0
  7 24  1  1  0  0  0
  7 15  1  0  0  0  0
  8  5  1  0  0  0  0
  8 11  1  0  0  0  0
  9 13  1  0  0  0  0
  9  7  1  0  0  0  0
 10 14  1  0  0  0  0
 10 11  2  0  0  0  0
 12  9  2  0  0  0  0
 13 25  1  0  0  0  0
 14 26  1  0  0  0  0
 15 10  1  0  0  0  0
 16  1  1  0  0  0  0
 17  1  1  0  0  0  0
 19  2  1  0  0  0  0
 21  4  1  0  0  0  0
M  END
>  <HBA>
5

>  <HBD>
2

>  <TPSA>
75.63

>  <cid>
51886

>  <dipole>
3.62

>  <excitation_energy_1>
5.021

>  <excitation_energy_2>
5.147

>  <excitation_energy_3>
5.374

>  <excitation_energy_4>
5.537

>  <homo_energy>
-6.193

>  <homo_lumo_gap>
5.886

>  <logP>
1.781

>  <lumo_energy>
-0.307

>  <melting_point>
135.81

>  <molecular_refractivity>
53.61

>  <oscillator_strength_1>
0.015

>  <oscillator_strength_2>
0.1694

>  <oscillator_strength_3>
0.046

>  <oscillator_strength_4>
0.0043

>  <open_babel_can_smiles>
C[C@@H](C(=O)O)O/C(=N\c1ccccc1)/O

>  <mulliken_charges>
26
1   -0.460128
2   -0.128167
3   -0.136774
4   -0.139823
5   -0.147156
6   -0.179159
7   0.032012
8   0.25668
9   0.587415
10   0.732876
11   -0.556076
12   -0.448816
13   -0.577992
14   -0.593832
15   -0.514984
16   0.189768
17   0.168179
18   0.173787
19   0.130757
20   0.132887
21   0.137061
22   0.132526
23   0.128702
24   0.199534
25   0.447025
26   0.433699

>  <lowdin_charges>
26
1   -0.449361
2   -0.166103
3   -0.149509
4   -0.149795
5   -0.169298
6   -0.197512
7   -0.026183
8   0.054391
9   0.183552
10   0.207463
11   -0.231855
12   -0.242797
13   -0.341842
14   -0.354154
15   -0.202521
16   0.181156
17   0.165037
18   0.167512
19   0.157544
20   0.160324
21   0.159978
22   0.161947
23   0.157196
24   0.179103
25   0.367257
26   0.37847

$$$$

