PCCDB-ID:  70956
public computational chemistry database (PCCDB) project, http://pccdb.org

 13 13  0  0  0  0  0  0  0  0999 V2000
   -0.7083    1.2435    0.0019 C   0  0  0  0  0  0  0  0  0  0  0  0
   -2.8289   -0.0145   -0.0030 C   0  0  0  0  0  0  0  0  0  0  0  0
    1.4585    2.4202    0.0086 C   0  0  0  0  0  0  0  0  0  0  0  0
   -0.6530   -1.1690   -0.0050 C   0  0  0  0  0  0  0  0  0  0  0  0
    1.3353   -0.0398   -0.0012 C   0  0  0  0  0  0  0  0  0  0  0  0
   -1.3970    0.0258   -0.0021 C   0  0  0  0  0  0  0  0  0  0  0  0
    0.6903    1.2112    0.0029 C   0  0  0  0  0  0  0  0  0  0  0  0
   -3.9907   -0.0571   -0.0036 N   0  0  0  0  0  0  0  0  0  0  0  0
    2.0913    3.3955    0.0136 N   0  0  0  0  0  0  0  0  0  0  0  0
    0.6801   -1.2013   -0.0050 N   0  0  0  0  0  0  0  0  0  0  0  0
   -1.2439    2.1864    0.0034 H   0  0  0  0  0  0  0  0  0  0  0  0
   -1.1666   -2.1273   -0.0076 H   0  0  0  0  0  0  0  0  0  0  0  0
    2.4214   -0.0897   -0.0017 H   0  0  0  0  0  0  0  0  0  0  0  0
  1  7  1  0  0  0  0
  1 11  1  0  0  0  0
  2  6  1  0  0  0  0
  3  9  3  0  0  0  0
  4  6  1  0  0  0  0
  5  7  2  0  0  0  0
  6  1  2  0  0  0  0
  7  3  1  0  0  0  0
  8  2  3  0  0  0  0
 10  4  2  0  0  0  0
 10  5  1  0  0  0  0
 12  4  1  0  0  0  0
 13  5  1  0  0  0  0
M  END
>  <HBA>
3

>  <HBD>
0

>  <TPSA>
60.47

>  <cid>
70956

>  <dipole>
1.65

>  <excitation_energy_1>
4.374

>  <excitation_energy_2>
4.629

>  <excitation_energy_3>
4.885

>  <excitation_energy_4>
5.354

>  <homo_energy>
-8.188

>  <homo_lumo_gap>
5.603

>  <logP>
0.825

>  <lumo_energy>
-2.585

>  <melting_point>
95.3

>  <molecular_refractivity>
33.67

>  <oscillator_strength_1>
0.0

>  <oscillator_strength_2>
0.0026

>  <oscillator_strength_3>
0.032

>  <oscillator_strength_4>
0.1376

>  <open_babel_can_smiles>
N#Cc1cncc(c1)C#N

>  <mulliken_charges>
13
1   -0.101266
2   0.244762
3   0.244767
4   0.057282
5   0.057357
6   0.113907
7   0.113871
8   -0.455771
9   -0.455776
10   -0.397212
11   0.200038
12   0.189017
13   0.189023

>  <lowdin_charges>
13
1   -0.084199
2   -0.01484
3   -0.013366
4   -0.050245
5   -0.046626
6   -0.026498
7   -0.029157
8   -0.086356
9   -0.086302
10   -0.119895
11   0.195394
12   0.182377
13   0.179712

$$$$

