PCCDB-ID:  56163
public computational chemistry database (PCCDB) project, http://pccdb.org

 27 27  0  0  0  0  0  0  0  0999 V2000
    0.2996    1.0775    1.6660 C   0  0  0  0  0  0  0  0  0  0  0  0
    1.3151   -0.7343   -0.7407 C   0  0  0  0  0  0  0  0  0  0  0  0
    3.8624   -5.0445    3.2794 C   0  0  0  0  0  0  0  0  0  0  0  0
    4.0254   -5.0563    1.8904 C   0  0  0  0  0  0  0  0  0  0  0  0
    3.6817   -3.8274    3.9331 C   0  0  0  0  0  0  0  0  0  0  0  0
    4.0135   -3.8666    1.1693 C   0  0  0  0  0  0  0  0  0  0  0  0
    3.6623   -2.6214    3.2245 C   0  0  0  0  0  0  0  0  0  0  0  0
    3.8948   -0.2471    1.6309 C   0  0  0  0  0  0  0  0  0  0  0  0
    3.8342   -2.6474    1.8364 C   0  0  0  0  0  0  0  0  0  0  0  0
    2.5607    0.2522    2.2054 C   0  0  0  0  0  0  0  0  0  0  0  0
    1.5068    0.3415    1.3260 N   0  0  0  0  0  0  0  0  0  0  0  0
    2.4353    0.5348    3.3916 O   0  0  0  0  0  0  0  0  0  0  0  0
    1.8355    0.4042   -0.0406 O   0  0  0  0  0  0  0  0  0  0  0  0
    3.8386   -1.5337    1.0263 O   0  0  0  0  0  0  0  0  0  0  0  0
    0.1601    1.0013    2.7441 H   0  0  0  0  0  0  0  0  0  0  0  0
   -0.5579    0.6366    1.1503 H   0  0  0  0  0  0  0  0  0  0  0  0
    0.3921    2.1324    1.3801 H   0  0  0  0  0  0  0  0  0  0  0  0
    0.2216   -0.7789   -0.6675 H   0  0  0  0  0  0  0  0  0  0  0  0
    1.7615   -1.6574   -0.3648 H   0  0  0  0  0  0  0  0  0  0  0  0
    1.6016   -0.5728   -1.7829 H   0  0  0  0  0  0  0  0  0  0  0  0
    3.8736   -5.9737    3.8417 H   0  0  0  0  0  0  0  0  0  0  0  0
    4.1693   -5.9968    1.3650 H   0  0  0  0  0  0  0  0  0  0  0  0
    3.5463   -3.8032    5.0112 H   0  0  0  0  0  0  0  0  0  0  0  0
    4.1526   -3.8559    0.0924 H   0  0  0  0  0  0  0  0  0  0  0  0
    3.4935   -1.6894    3.7521 H   0  0  0  0  0  0  0  0  0  0  0  0
    4.6166   -0.2259    2.4531 H   0  0  0  0  0  0  0  0  0  0  0  0
    4.2252    0.4269    0.8372 H   0  0  0  0  0  0  0  0  0  0  0  0
  1 15  1  0  0  0  0
  2 18  1  0  0  0  0
  2 19  1  0  0  0  0
  2 13  1  0  0  0  0
  3 21  1  0  0  0  0
  3  5  1  0  0  0  0
  4  3  2  0  0  0  0
  5 23  1  0  0  0  0
  6  9  2  0  0  0  0
  6  4  1  0  0  0  0
  7 25  1  0  0  0  0
  7  5  2  0  0  0  0
  8 10  1  0  0  0  0
  8 26  1  0  0  0  0
  9  7  1  0  0  0  0
 10 12  2  0  0  0  0
 11  1  1  0  0  0  0
 11 10  1  0  0  0  0
 13 11  1  0  0  0  0
 14  8  1  0  0  0  0
 14  9  1  0  0  0  0
 16  1  1  0  0  0  0
 17  1  1  0  0  0  0
 20  2  1  0  0  0  0
 22  4  1  0  0  0  0
 24  6  1  0  0  0  0
 27  8  1  0  0  0  0
M  END
>  <HBA>
4

>  <HBD>
0

>  <TPSA>
38.77

>  <cid>
56163

>  <dipole>
2.55

>  <excitation_energy_1>
4.753

>  <excitation_energy_2>
5.063

>  <excitation_energy_3>
5.339

>  <excitation_energy_4>
5.62

>  <homo_energy>
-5.924

>  <homo_lumo_gap>
5.821

>  <logP>
1.085

>  <lumo_energy>
-0.103

>  <melting_point>
23.85

>  <molecular_refractivity>
51.54

>  <oscillator_strength_1>
0.0026

>  <oscillator_strength_2>
0.024

>  <oscillator_strength_3>
0.0079

>  <oscillator_strength_4>
0.0074

>  <open_babel_can_smiles>
CON(C(=O)COc1ccccc1)C

>  <mulliken_charges>
27
1   -0.309287
2   -0.195086
3   -0.130718
4   -0.133843
5   -0.142984
6   -0.181877
7   -0.197582
8   -0.109998
9   0.361168
10   0.569071
11   -0.184505
12   -0.50308
13   -0.382998
14   -0.527126
15   0.201949
16   0.160521
17   0.16982
18   0.143203
19   0.178594
20   0.16465
21   0.125491
22   0.129188
23   0.133554
24   0.134029
25   0.173511
26   0.17325
27   0.181083

>  <lowdin_charges>
27
1   -0.352594
2   -0.280567
3   -0.177568
4   -0.148636
5   -0.142102
6   -0.184575
7   -0.212493
8   -0.152702
9   0.09704
10   0.135524
11   0.008065
12   -0.293717
13   -0.20231
14   -0.199852
15   0.184081
16   0.158166
17   0.155453
18   0.138546
19   0.158829
20   0.159821
21   0.157106
22   0.158074
23   0.157502
24   0.161669
25   0.179078
26   0.162917
27   0.175245

$$$$

