PCCDB-ID:  56818
public computational chemistry database (PCCDB) project, http://pccdb.org

 40 41  0  0  0  0  0  0  0  0999 V2000
    1.1626   -0.2600    0.3050 C   0  0  0  0  0  0  0  0  0  0  0  0
    1.2527    0.3293   -5.0722 C   0  0  0  0  0  0  0  0  0  0  0  0
    4.5350    2.6605    0.8768 C   0  0  0  0  0  0  0  0  0  0  0  0
    0.4556    0.8076   -4.0326 C   0  0  0  0  0  0  0  0  0  0  0  0
    2.5988    0.0666   -4.8243 C   0  0  0  0  0  0  0  0  0  0  0  0
    5.0908    1.3546    0.3008 C   0  0  0  0  0  0  0  0  0  0  0  0
    3.0041    2.6105    0.9214 C   0  0  0  0  0  0  0  0  0  0  0  0
    0.9997    1.0163   -2.7649 C   0  0  0  0  0  0  0  0  0  0  0  0
    3.1373    0.2753   -3.5531 C   0  0  0  0  0  0  0  0  0  0  0  0
    4.4795    1.0297   -1.0707 C   0  0  0  0  0  0  0  0  0  0  0  0
    2.4161    2.2682   -0.4559 C   0  0  0  0  0  0  0  0  0  0  0  0
    2.9350   -1.5533   -0.6594 C   0  0  0  0  0  0  0  0  0  0  0  0
    3.5027   -2.4168    0.4665 C   0  0  0  0  0  0  0  0  0  0  0  0
    2.3540    0.7513   -2.4882 C   0  0  0  0  0  0  0  0  0  0  0  0
    2.9258    0.9256   -1.0571 C   0  0  0  0  0  0  0  0  0  0  0  0
    2.5427   -0.2235   -0.1716 N   0  0  0  0  0  0  0  0  0  0  0  0
    3.7664   -3.7045   -0.0833 O   0  0  0  0  0  0  0  0  0  0  0  0
    1.0517   -1.1110    0.9844 H   0  0  0  0  0  0  0  0  0  0  0  0
    0.4168   -0.3854   -0.4997 H   0  0  0  0  0  0  0  0  0  0  0  0
    0.9131    0.6363    0.8776 H   0  0  0  0  0  0  0  0  0  0  0  0
    0.8320    0.1688   -6.0613 H   0  0  0  0  0  0  0  0  0  0  0  0
    4.8540    3.5041    0.2461 H   0  0  0  0  0  0  0  0  0  0  0  0
    4.9442    2.8454    1.8783 H   0  0  0  0  0  0  0  0  0  0  0  0
   -0.5953    1.0259   -4.2059 H   0  0  0  0  0  0  0  0  0  0  0  0
    3.2398   -0.3000   -5.6222 H   0  0  0  0  0  0  0  0  0  0  0  0
    4.8729    0.5331    0.9933 H   0  0  0  0  0  0  0  0  0  0  0  0
    6.1826    1.4123    0.2021 H   0  0  0  0  0  0  0  0  0  0  0  0
    2.5976    3.5739    1.2561 H   0  0  0  0  0  0  0  0  0  0  0  0
    2.6899    1.8597    1.6571 H   0  0  0  0  0  0  0  0  0  0  0  0
    0.3510    1.4051   -1.9878 H   0  0  0  0  0  0  0  0  0  0  0  0
    4.1912    0.0677   -3.4045 H   0  0  0  0  0  0  0  0  0  0  0  0
    4.9344    0.1083   -1.4469 H   0  0  0  0  0  0  0  0  0  0  0  0
    4.7529    1.8172   -1.7860 H   0  0  0  0  0  0  0  0  0  0  0  0
    2.6945    3.0551   -1.1694 H   0  0  0  0  0  0  0  0  0  0  0  0
    1.3245    2.2921   -0.4041 H   0  0  0  0  0  0  0  0  0  0  0  0
    2.0891   -2.0858   -1.1236 H   0  0  0  0  0  0  0  0  0  0  0  0
    3.6974   -1.4738   -1.4357 H   0  0  0  0  0  0  0  0  0  0  0  0
    2.7863   -2.4798    1.3012 H   0  0  0  0  0  0  0  0  0  0  0  0
    4.4191   -1.9474    0.8564 H   0  0  0  0  0  0  0  0  0  0  0  0
    4.1376   -4.2581    0.6194 H   0  0  0  0  0  0  0  0  0  0  0  0
  1 20  1  0  0  0  0
  1 18  1  0  0  0  0
  2  5  2  0  0  0  0
  2  4  1  0  0  0  0
  3  7  1  0  0  0  0
  3 23  1  0  0  0  0
  4  8  2  0  0  0  0
  5  9  1  0  0  0  0
  6  3  1  0  0  0  0
  6 26  1  0  0  0  0
  7 28  1  0  0  0  0
  7 29  1  0  0  0  0
  8 14  1  0  0  0  0
  8 30  1  0  0  0  0
  9 31  1  0  0  0  0
  9 14  2  0  0  0  0
 10 15  1  0  0  0  0
 10  6  1  0  0  0  0
 11 35  1  0  0  0  0
 11  7  1  0  0  0  0
 12 16  1  0  0  0  0
 12 13  1  0  0  0  0
 13 39  1  0  0  0  0
 13 38  1  0  0  0  0
 14 15  1  0  0  0  0
 15 11  1  0  0  0  0
 15 16  1  0  0  0  0
 16  1  1  0  0  0  0
 17 13  1  0  0  0  0
 17 40  1  0  0  0  0
 19  1  1  0  0  0  0
 21  2  1  0  0  0  0
 22  3  1  0  0  0  0
 24  4  1  0  0  0  0
 25  5  1  0  0  0  0
 27  6  1  0  0  0  0
 32 10  1  0  0  0  0
 33 10  1  0  0  0  0
 34 11  1  0  0  0  0
 36 12  1  0  0  0  0
 37 12  1  0  0  0  0
M  END
>  <HBA>
2

>  <HBD>
1

>  <TPSA>
23.47

>  <cid>
56818

>  <dipole>
1.22

>  <excitation_energy_1>
4.691

>  <excitation_energy_2>
4.737

>  <excitation_energy_3>
4.946

>  <excitation_energy_4>
5.186

>  <homo_energy>
-5.491

>  <homo_lumo_gap>
5.587

>  <logP>
2.77

>  <lumo_energy>
0.095

>  <melting_point>
52.62

>  <molecular_refractivity>
71.69

>  <oscillator_strength_1>
0.0461

>  <oscillator_strength_2>
0.0062

>  <oscillator_strength_3>
0.0008

>  <oscillator_strength_4>
0.0058

>  <open_babel_can_smiles>
OCCN(C1(CCCCC1)c1ccccc1)C

>  <mulliken_charges>
40
1   -0.314405
2   -0.127782
3   -0.257588
4   -0.135251
5   -0.133069
6   -0.256389
7   -0.256303
8   -0.183887
9   -0.185809
10   -0.285123
11   -0.299566
12   -0.145856
13   -0.0297
14   0.16389
15   0.131044
16   -0.399009
17   -0.62286
18   0.148233
19   0.132445
20   0.150282
21   0.126582
22   0.124291
23   0.127507
24   0.126122
25   0.127044
26   0.145945
27   0.124671
28   0.12696
29   0.142936
30   0.126582
31   0.126774
32   0.136105
33   0.134872
34   0.140383
35   0.137386
36   0.141987
37   0.154873
38   0.11784
39   0.125909
40   0.391936

>  <lowdin_charges>
40
1   -0.365226
2   -0.159677
3   -0.27663
4   -0.155888
5   -0.157972
6   -0.277547
7   -0.280354
8   -0.170544
9   -0.168883
10   -0.285043
11   -0.281457
12   -0.209902
13   -0.141014
14   -0.014224
15   0.068557
16   -0.185808
17   -0.477132
18   0.149985
19   0.129727
20   0.14982
21   0.155989
22   0.135863
23   0.14149
24   0.154258
25   0.157466
26   0.145945
27   0.139497
28   0.142375
29   0.146264
30   0.156929
31   0.156236
32   0.145292
33   0.145566
34   0.150318
35   0.14256
36   0.140279
37   0.154799
38   0.124224
39   0.127998
40   0.345863

$$$$

