PCCDB-ID:  29444
public computational chemistry database (PCCDB) project, http://pccdb.org

 34 36  0  0  1  0  0  0  0  0999 V2000
    0.9390    0.0455   -0.9908 C   0  0  0  0  0  0  0  0  0  0  0  0
    1.6728    0.0872    1.4073 C   0  0  0  0  0  0  0  0  0  0  0  0
    8.9428   -0.3559   -1.8679 C   0  0  0  0  0  0  0  0  0  0  0  0
    9.7392   -0.3748   -0.7044 C   0  0  0  0  0  0  0  0  0  0  0  0
    7.5559   -0.3616   -1.7878 C   0  0  0  0  0  0  0  0  0  0  0  0
    9.1643   -0.4026    0.5610 C   0  0  0  0  0  0  0  0  0  0  0  0
    3.9499    1.0450   -1.4161 C   0  0  0  0  0  0  0  0  0  0  0  0
    2.9475    1.4701   -0.3368 C   0  0  0  0  0  0  0  0  0  0  0  0
    5.6134   -0.4382    1.2959 C   0  0  0  0  0  0  0  0  0  0  0  0
    6.9424   -0.3895   -0.5226 C   0  0  0  0  0  0  0  0  0  0  0  0
    5.5671   -0.4092   -0.0764 C   0  0  0  0  0  0  0  0  0  0  0  0
    7.7676   -0.4089    0.6357 C   0  0  0  0  0  0  0  0  0  0  0  0
    4.3535   -0.3889   -0.9764 C   0  0  1  0  0  0  0  0  0  0  0  0
    2.1532    0.1724   -0.0478 C   0  0  0  0  0  0  0  0  0  0  0  0
    6.9283   -0.4368    1.7296 N   0  0  0  0  0  0  0  0  0  0  0  0
    3.1200   -0.9154   -0.3620 N   0  0  0  0  0  0  0  0  0  0  0  0
    0.1979    0.8321   -0.7991 H   0  0  0  0  0  0  0  0  0  0  0  0
    0.4566   -0.9285   -0.8549 H   0  0  0  0  0  0  0  0  0  0  0  0
    1.2499    0.1133   -2.0388 H   0  0  0  0  0  0  0  0  0  0  0  0
    0.9349    0.8681    1.6229 H   0  0  0  0  0  0  0  0  0  0  0  0
    2.5045    0.2124    2.1118 H   0  0  0  0  0  0  0  0  0  0  0  0
    1.1953   -0.8806    1.6066 H   0  0  0  0  0  0  0  0  0  0  0  0
    9.4248   -0.3356   -2.8415 H   0  0  0  0  0  0  0  0  0  0  0  0
   10.8218   -0.3688   -0.7975 H   0  0  0  0  0  0  0  0  0  0  0  0
    6.9542   -0.3454   -2.6929 H   0  0  0  0  0  0  0  0  0  0  0  0
    9.7787   -0.4178    1.4578 H   0  0  0  0  0  0  0  0  0  0  0  0
    4.8144    1.7097   -1.4976 H   0  0  0  0  0  0  0  0  0  0  0  0
    3.4639    1.0078   -2.3984 H   0  0  0  0  0  0  0  0  0  0  0  0
    2.3046    2.3005   -0.6479 H   0  0  0  0  0  0  0  0  0  0  0  0
    3.4876    1.7847    0.5649 H   0  0  0  0  0  0  0  0  0  0  0  0
    4.8073   -0.4650    2.0154 H   0  0  0  0  0  0  0  0  0  0  0  0
    4.6008   -0.9835   -1.8684 H   0  0  0  0  0  0  0  0  0  0  0  0
    7.2225   -0.4703    2.6927 H   0  0  0  0  0  0  0  0  0  0  0  0
    3.3203   -1.5037    0.4399 H   0  0  0  0  0  0  0  0  0  0  0  0
  1 18  1  0  0  0  0
  1 17  1  0  0  0  0
  1 14  1  0  0  0  0
  2 22  1  0  0  0  0
  2 20  1  0  0  0  0
  2 21  1  0  0  0  0
  3  5  2  0  0  0  0
  3  4  1  0  0  0  0
  4  6  2  0  0  0  0
  5 10  1  0  0  0  0
  6 12  1  0  0  0  0
  6 26  1  0  0  0  0
  7 13  1  0  0  0  0
  7  8  1  0  0  0  0
  8 14  1  0  0  0  0
  8 30  1  0  0  0  0
  9 15  1  0  0  0  0
  9 31  1  0  0  0  0
 10 11  1  0  0  0  0
 10 12  2  0  0  0  0
 11  9  2  0  0  0  0
 12 15  1  0  0  0  0
 13 32  1  6  0  0  0
 13 16  1  0  0  0  0
 13 11  1  0  0  0  0
 14  2  1  0  0  0  0
 15 33  1  0  0  0  0
 16 14  1  0  0  0  0
 16 34  1  0  0  0  0
 19  1  1  0  0  0  0
 23  3  1  0  0  0  0
 24  4  1  0  0  0  0
 25  5  1  0  0  0  0
 27  7  1  0  0  0  0
 28  7  1  0  0  0  0
 29  8  1  0  0  0  0
M  END
>  <HBA>
1

>  <HBD>
2

>  <TPSA>
27.82

>  <cid>
29444

>  <dipole>
2.74

>  <excitation_energy_1>
4.417

>  <excitation_energy_2>
4.604

>  <excitation_energy_3>
4.786

>  <excitation_energy_4>
4.82

>  <homo_energy>
-5.268

>  <homo_lumo_gap>
5.135

>  <logP>
3.7

>  <lumo_energy>
-0.133

>  <melting_point>
157.22

>  <molecular_refractivity>
71.94

>  <oscillator_strength_1>
0.0357

>  <oscillator_strength_2>
0.0023

>  <oscillator_strength_3>
0.0213

>  <oscillator_strength_4>
0.0288

>  <open_babel_can_smiles>
CC1(C)CC[C@H](N1)c1c[nH]c2c1cccc2

>  <mulliken_charges>
34
1   -0.422717
2   -0.481318
3   -0.140387
4   -0.150788
5   -0.209743
6   -0.163673
7   -0.286071
8   -0.28461
9   -0.016342
10   0.078966
11   0.049639
12   0.316817
13   -0.018405
14   0.245304
15   -0.696859
16   -0.59721
17   0.125164
18   0.141329
19   0.141714
20   0.147798
21   0.137014
22   0.144871
23   0.12002
24   0.122102
25   0.126671
26   0.119614
27   0.149868
28   0.139492
29   0.134138
30   0.13326
31   0.14428
32   0.132317
33   0.325083
34   0.292661

>  <lowdin_charges>
34
1   -0.446793
2   -0.453378
3   -0.176635
4   -0.161022
5   -0.164282
6   -0.189022
7   -0.28343
8   -0.288114
9   -0.150655
10   -0.035274
11   -0.072046
12   0.031842
13   -0.055135
14   0.071113
15   -0.200363
16   -0.368087
17   0.140206
18   0.150179
19   0.148069
20   0.154839
21   0.141982
22   0.14926
23   0.154284
24   0.153312
25   0.156962
26   0.155053
27   0.155035
28   0.144131
29   0.147727
30   0.14413
31   0.16151
32   0.141457
33   0.289056
34   0.254092

$$$$

