PCCDB-ID:  21030
public computational chemistry database (PCCDB) project, http://pccdb.org

 27 27  0  0  0  0  0  0  0  0999 V2000
    3.8415   -0.1515    0.9366 C   0  0  0  0  0  0  0  0  0  0  0  0
    4.9619   -1.8613   -4.4728 C   0  0  0  0  0  0  0  0  0  0  0  0
    2.5080   -1.8264   -5.1219 C   0  0  0  0  0  0  0  0  0  0  0  0
    2.5759   -0.0222    0.0699 C   0  0  0  0  0  0  0  0  0  0  0  0
    3.2240    2.3098   -2.8825 C   0  0  0  0  0  0  0  0  0  0  0  0
    2.9123    1.8548   -1.6028 C   0  0  0  0  0  0  0  0  0  0  0  0
    3.4953    1.3989   -3.9049 C   0  0  0  0  0  0  0  0  0  0  0  0
    3.1412   -0.4150   -2.3690 C   0  0  0  0  0  0  0  0  0  0  0  0
    3.7442   -0.9709   -4.7848 C   0  0  0  0  0  0  0  0  0  0  0  0
    2.8694    0.4808   -1.3288 C   0  0  0  0  0  0  0  0  0  0  0  0
    3.4581    0.0205   -3.6637 C   0  0  0  0  0  0  0  0  0  0  0  0
    3.5935   -0.5105    1.9423 H   0  0  0  0  0  0  0  0  0  0  0  0
    4.3497    0.8143    1.0358 H   0  0  0  0  0  0  0  0  0  0  0  0
    4.5524   -0.8555    0.4895 H   0  0  0  0  0  0  0  0  0  0  0  0
    5.1959   -2.5088   -5.3264 H   0  0  0  0  0  0  0  0  0  0  0  0
    4.7722   -2.5081   -3.6079 H   0  0  0  0  0  0  0  0  0  0  0  0
    5.8478   -1.2569   -4.2495 H   0  0  0  0  0  0  0  0  0  0  0  0
    2.7177   -2.4942   -5.9662 H   0  0  0  0  0  0  0  0  0  0  0  0
    1.6516   -1.1974   -5.3880 H   0  0  0  0  0  0  0  0  0  0  0  0
    2.2123   -2.4494   -4.2694 H   0  0  0  0  0  0  0  0  0  0  0  0
    1.8702    0.6580    0.5639 H   0  0  0  0  0  0  0  0  0  0  0  0
    2.0783   -0.9986    0.0122 H   0  0  0  0  0  0  0  0  0  0  0  0
    3.2514    3.3772   -3.0875 H   0  0  0  0  0  0  0  0  0  0  0  0
    2.6965    2.5677   -0.8096 H   0  0  0  0  0  0  0  0  0  0  0  0
    3.7340    1.7614   -4.9025 H   0  0  0  0  0  0  0  0  0  0  0  0
    3.0994   -1.4826   -2.1593 H   0  0  0  0  0  0  0  0  0  0  0  0
    3.9897   -0.3825   -5.6795 H   0  0  0  0  0  0  0  0  0  0  0  0
  1 13  1  0  0  0  0
  1 12  1  0  0  0  0
  2 17  1  0  0  0  0
  2 16  1  0  0  0  0
  3  9  1  0  0  0  0
  3 20  1  0  0  0  0
  4 21  1  0  0  0  0
  4  1  1  0  0  0  0
  5  6  2  0  0  0  0
  6 10  1  0  0  0  0
  6 24  1  0  0  0  0
  7 11  2  0  0  0  0
  7  5  1  0  0  0  0
  8 26  1  0  0  0  0
  8 10  2  0  0  0  0
  9  2  1  0  0  0  0
  9 11  1  0  0  0  0
 10  4  1  0  0  0  0
 11  8  1  0  0  0  0
 14  1  1  0  0  0  0
 15  2  1  0  0  0  0
 18  3  1  0  0  0  0
 19  3  1  0  0  0  0
 22  4  1  0  0  0  0
 23  5  1  0  0  0  0
 25  7  1  0  0  0  0
 27  9  1  0  0  0  0
M  END
>  <HBA>
0

>  <HBD>
0

>  <TPSA>
0.0

>  <cid>
21030

>  <dipole>
0.23

>  <excitation_energy_1>
5.215

>  <excitation_energy_2>
5.76

>  <excitation_energy_3>
5.893

>  <excitation_energy_4>
6.009

>  <homo_energy>
-6.278

>  <homo_lumo_gap>
6.438

>  <logP>
3.372

>  <lumo_energy>
0.161

>  <melting_point>
10.0

>  <molecular_refractivity>
50.8

>  <oscillator_strength_1>
0.002

>  <oscillator_strength_2>
0.0279

>  <oscillator_strength_3>
0.0034

>  <oscillator_strength_4>
0.02

>  <open_babel_can_smiles>
CCc1cccc(c1)C(C)C

>  <mulliken_charges>
27
1   -0.432566
2   -0.438878
3   -0.437504
4   -0.339344
5   -0.123304
6   -0.186059
7   -0.201702
8   -0.245477
9   -0.158315
10   0.180254
11   0.192286
12   0.142061
13   0.148983
14   0.148552
15   0.140033
16   0.142448
17   0.149323
18   0.139765
19   0.149115
20   0.142954
21   0.141599
22   0.140954
23   0.124703
24   0.118403
25   0.119235
26   0.115344
27   0.127138

>  <lowdin_charges>
27
1   -0.440616
2   -0.443333
3   -0.443316
4   -0.272015
5   -0.152922
6   -0.174848
7   -0.175347
8   -0.175417
9   -0.11838
10   0.001746
11   0.001235
12   0.147817
13   0.15024
14   0.15138
15   0.148463
16   0.147273
17   0.153014
18   0.148092
19   0.153166
20   0.147969
21   0.149432
22   0.147314
23   0.153778
24   0.153581
25   0.151855
26   0.148078
27   0.141761

$$$$

