PCCDB-ID:  30498
public computational chemistry database (PCCDB) project, http://pccdb.org

 35 35  0  0  1  0  0  0  0  0999 V2000
    3.1831    0.8531   -1.5514 C   0  0  0  0  0  0  0  0  0  0  0  0
    1.4217   -4.7019   -0.9532 C   0  0  0  0  0  0  0  0  0  0  0  0
    3.3131   -4.4091    0.6922 C   0  0  0  0  0  0  0  0  0  0  0  0
    2.4054   -0.0834   -0.6236 C   0  0  0  0  0  0  0  0  0  0  0  0
    1.3794   -2.4325   -5.0070 C   0  0  0  0  0  0  0  0  0  0  0  0
    0.4509   -1.9781   -4.0685 C   0  0  0  0  0  0  0  0  0  0  0  0
    2.7058   -2.6188   -4.6194 C   0  0  0  0  0  0  0  0  0  0  0  0
    0.8475   -1.7196   -2.7567 C   0  0  0  0  0  0  0  0  0  0  0  0
    3.1027   -2.3575   -3.3057 C   0  0  0  0  0  0  0  0  0  0  0  0
    1.8031   -2.3944    0.1515 C   0  0  0  0  0  0  0  0  0  0  0  0
    2.1773   -1.9124   -2.3532 C   0  0  0  0  0  0  0  0  0  0  0  0
    1.9118   -3.9334    0.2812 C   0  0  0  0  0  0  0  0  0  0  0  0
    2.6036   -1.6001   -0.9165 C   0  0  1  0  0  0  0  0  0  0  0  0
    1.0015   -4.1885    1.3761 O   0  0  0  0  0  0  0  0  0  0  0  0
    4.0063   -1.8994   -0.8284 O   0  0  0  0  0  0  0  0  0  0  0  0
    3.0600    1.8946   -1.2338 H   0  0  0  0  0  0  0  0  0  0  0  0
    2.8343    0.7720   -2.5857 H   0  0  0  0  0  0  0  0  0  0  0  0
    4.2509    0.6144   -1.5384 H   0  0  0  0  0  0  0  0  0  0  0  0
    2.0811   -4.5657   -1.8139 H   0  0  0  0  0  0  0  0  0  0  0  0
    0.4140   -4.3823   -1.2354 H   0  0  0  0  0  0  0  0  0  0  0  0
    1.3868   -5.7762   -0.7253 H   0  0  0  0  0  0  0  0  0  0  0  0
    4.0520   -4.2160   -0.0886 H   0  0  0  0  0  0  0  0  0  0  0  0
    3.2969   -5.4890    0.8924 H   0  0  0  0  0  0  0  0  0  0  0  0
    3.6312   -3.9074    1.6138 H   0  0  0  0  0  0  0  0  0  0  0  0
    1.3349    0.1530   -0.6627 H   0  0  0  0  0  0  0  0  0  0  0  0
    2.7146    0.0930    0.4178 H   0  0  0  0  0  0  0  0  0  0  0  0
    1.0717   -2.6352   -6.0294 H   0  0  0  0  0  0  0  0  0  0  0  0
   -0.5860   -1.8238   -4.3557 H   0  0  0  0  0  0  0  0  0  0  0  0
    3.4405   -2.9673   -5.3410 H   0  0  0  0  0  0  0  0  0  0  0  0
    0.1070   -1.3673   -2.0432 H   0  0  0  0  0  0  0  0  0  0  0  0
    4.1353   -2.4978   -3.0106 H   0  0  0  0  0  0  0  0  0  0  0  0
    2.0775   -1.9893    1.1361 H   0  0  0  0  0  0  0  0  0  0  0  0
    0.7384   -2.1640    0.0325 H   0  0  0  0  0  0  0  0  0  0  0  0
    1.0023   -5.1479    1.5260 H   0  0  0  0  0  0  0  0  0  0  0  0
    4.2775   -1.7131    0.0841 H   0  0  0  0  0  0  0  0  0  0  0  0
  1 18  1  0  0  0  0
  1 16  1  0  0  0  0
  1  4  1  0  0  0  0
  2 21  1  0  0  0  0
  2 12  1  0  0  0  0
  3 23  1  0  0  0  0
  3 24  1  0  0  0  0
  4 26  1  0  0  0  0
  5  7  2  0  0  0  0
  5  6  1  0  0  0  0
  6  8  2  0  0  0  0
  7  9  1  0  0  0  0
  8 11  1  0  0  0  0
  8 30  1  0  0  0  0
  9 31  1  0  0  0  0
  9 11  2  0  0  0  0
 10 12  1  0  0  0  0
 10 32  1  0  0  0  0
 11 13  1  0  0  0  0
 12  3  1  0  0  0  0
 12 14  1  0  0  0  0
 13 15  1  1  0  0  0
 13  4  1  0  0  0  0
 13 10  1  0  0  0  0
 14 34  1  0  0  0  0
 15 35  1  0  0  0  0
 17  1  1  0  0  0  0
 19  2  1  0  0  0  0
 20  2  1  0  0  0  0
 22  3  1  0  0  0  0
 25  4  1  0  0  0  0
 27  5  1  0  0  0  0
 28  6  1  0  0  0  0
 29  7  1  0  0  0  0
 33 10  1  0  0  0  0
M  END
>  <HBA>
2

>  <HBD>
2

>  <TPSA>
40.46

>  <cid>
30498

>  <dipole>
0.46

>  <excitation_energy_1>
5.288

>  <excitation_energy_2>
5.817

>  <excitation_energy_3>
5.85

>  <excitation_energy_4>
6.067

>  <homo_energy>
-6.427

>  <homo_lumo_gap>
6.457

>  <logP>
2.445

>  <lumo_energy>
0.03

>  <melting_point>
58.37

>  <molecular_refractivity>
62.49

>  <oscillator_strength_1>
0.0004

>  <oscillator_strength_2>
0.0123

>  <oscillator_strength_3>
0.0292

>  <oscillator_strength_4>
0.0031

>  <open_babel_can_smiles>
CC[C@](c1ccccc1)(CC(O)(C)C)O

>  <mulliken_charges>
35
1   -0.447393
2   -0.457816
3   -0.467372
4   -0.263014
5   -0.127274
6   -0.136725
7   -0.131247
8   -0.183169
9   -0.173926
10   -0.291121
11   0.118569
12   0.31291
13   0.253099
14   -0.645192
15   -0.652913
16   0.138943
17   0.159019
18   0.153358
19   0.164177
20   0.152356
21   0.120018
22   0.169268
23   0.123067
24   0.13563
25   0.136971
26   0.119938
27   0.127047
28   0.127985
29   0.128097
30   0.127853
31   0.156033
32   0.131031
33   0.148555
34   0.380662
35   0.392576

>  <lowdin_charges>
35
1   -0.445983
2   -0.457439
3   -0.465011
4   -0.279979
5   -0.1599
6   -0.155126
7   -0.157839
8   -0.170808
9   -0.164504
10   -0.291375
11   -0.005633
12   0.130498
13   0.120927
14   -0.468879
15   -0.448541
16   0.148385
17   0.155586
18   0.1518
19   0.164369
20   0.155443
21   0.138403
22   0.163945
23   0.139296
24   0.14653
25   0.145224
26   0.134835
27   0.1556
28   0.155567
29   0.157984
30   0.15611
31   0.170696
32   0.146564
33   0.156559
34   0.333401
35   0.343293

$$$$

