PCCDB-ID:  28026
public computational chemistry database (PCCDB) project, http://pccdb.org

 29 28  0  0  0  0  0  0  0  0999 V2000
    1.2291   -0.3543   -0.1677 C   0  0  0  0  0  0  0  0  0  0  0  0
    2.9775   -1.9659    2.9057 C   0  0  0  0  0  0  0  0  0  0  0  0
    5.6026   -0.8036    0.9408 C   0  0  0  0  0  0  0  0  0  0  0  0
    5.1269    1.6014    0.4484 C   0  0  0  0  0  0  0  0  0  0  0  0
    5.2692    0.8384    2.8093 C   0  0  0  0  0  0  0  0  0  0  0  0
    2.7404   -0.4710    0.0740 C   0  0  0  0  0  0  0  0  0  0  0  0
    2.6271   -0.4949    2.6370 C   0  0  0  0  0  0  0  0  0  0  0  0
    3.2338    0.1915    1.3829 C   0  0  0  0  0  0  0  0  0  0  0  0
    4.7927    0.4289    1.4000 C   0  0  0  0  0  0  0  0  0  0  0  0
    0.9613   -0.7606   -1.1500 H   0  0  0  0  0  0  0  0  0  0  0  0
    0.9039    0.6934   -0.1421 H   0  0  0  0  0  0  0  0  0  0  0  0
    0.6441   -0.9007    0.5801 H   0  0  0  0  0  0  0  0  0  0  0  0
    2.3792   -2.3474    3.7416 H   0  0  0  0  0  0  0  0  0  0  0  0
    4.0302   -2.1006    3.1743 H   0  0  0  0  0  0  0  0  0  0  0  0
    2.7719   -2.6062    2.0405 H   0  0  0  0  0  0  0  0  0  0  0  0
    6.6768   -0.5862    0.9935 H   0  0  0  0  0  0  0  0  0  0  0  0
    5.3768   -1.0758   -0.0956 H   0  0  0  0  0  0  0  0  0  0  0  0
    5.4150   -1.6822    1.5650 H   0  0  0  0  0  0  0  0  0  0  0  0
    6.2073    1.7907    0.4362 H   0  0  0  0  0  0  0  0  0  0  0  0
    4.6313    2.5255    0.7709 H   0  0  0  0  0  0  0  0  0  0  0  0
    4.8209    1.4008   -0.5842 H   0  0  0  0  0  0  0  0  0  0  0  0
    6.3253    1.1332    2.7805 H   0  0  0  0  0  0  0  0  0  0  0  0
    5.1778    0.0219    3.5333 H   0  0  0  0  0  0  0  0  0  0  0  0
    4.6989    1.6941    3.1922 H   0  0  0  0  0  0  0  0  0  0  0  0
    3.2558   -0.0147   -0.7794 H   0  0  0  0  0  0  0  0  0  0  0  0
    3.0239   -1.5311    0.0587 H   0  0  0  0  0  0  0  0  0  0  0  0
    2.8829    0.0949    3.5246 H   0  0  0  0  0  0  0  0  0  0  0  0
    1.5358   -0.4172    2.5512 H   0  0  0  0  0  0  0  0  0  0  0  0
    2.8001    1.2051    1.3949 H   0  0  0  0  0  0  0  0  0  0  0  0
  1 11  1  0  0  0  0
  1  6  1  0  0  0  0
  1 12  1  0  0  0  0
  2 14  1  0  0  0  0
  2 13  1  0  0  0  0
  3 16  1  0  0  0  0
  3  9  1  0  0  0  0
  3 18  1  0  0  0  0
  4 20  1  0  0  0  0
  4  9  1  0  0  0  0
  5 24  1  0  0  0  0
  5 23  1  0  0  0  0
  6  8  1  0  0  0  0
  7  2  1  0  0  0  0
  7 27  1  0  0  0  0
  8 29  1  0  0  0  0
  8  9  1  0  0  0  0
  8  7  1  0  0  0  0
  9  5  1  0  0  0  0
 10  1  1  0  0  0  0
 15  2  1  0  0  0  0
 17  3  1  0  0  0  0
 19  4  1  0  0  0  0
 21  4  1  0  0  0  0
 22  5  1  0  0  0  0
 25  6  1  0  0  0  0
 26  6  1  0  0  0  0
 28  7  1  0  0  0  0
M  END
>  <HBA>
0

>  <HBD>
0

>  <TPSA>
0.0

>  <cid>
28026

>  <dipole>
0.06

>  <excitation_energy_1>
7.299

>  <excitation_energy_2>
7.421

>  <excitation_energy_3>
7.614

>  <excitation_energy_4>
7.725

>  <homo_energy>
-7.829

>  <homo_lumo_gap>
9.793

>  <logP>
3.469

>  <lumo_energy>
1.965

>  <melting_point>
-9.87

>  <molecular_refractivity>
45.12

>  <oscillator_strength_1>
0.0121

>  <oscillator_strength_2>
0.0198

>  <oscillator_strength_3>
0.0468

>  <oscillator_strength_4>
0.0196

>  <open_babel_can_smiles>
CCC(C(C)(C)C)CC

>  <mulliken_charges>
29
1   -0.450812
2   -0.45208
3   -0.454011
4   -0.449983
5   -0.45457
6   -0.268224
7   -0.271065
8   -0.060602
9   0.102915
10   0.140414
11   0.140675
12   0.146429
13   0.139952
14   0.14867
15   0.14526
16   0.134253
17   0.141823
18   0.144275
19   0.136137
20   0.136671
21   0.141254
22   0.135318
23   0.144018
24   0.137188
25   0.133012
26   0.136281
27   0.13445
28   0.132936
29   0.109416

>  <lowdin_charges>
29
1   -0.446723
2   -0.451444
3   -0.445792
4   -0.441801
5   -0.444085
6   -0.278671
7   -0.278629
8   -0.127037
9   0.013678
10   0.1489
11   0.144523
12   0.148155
13   0.150211
14   0.144654
15   0.147582
16   0.144231
17   0.147384
18   0.149543
19   0.144026
20   0.145054
21   0.144849
22   0.144919
23   0.148623
24   0.14621
25   0.142543
26   0.139354
27   0.144422
28   0.140905
29   0.134412

$$$$

