PCCDB-ID:  52191
public computational chemistry database (PCCDB) project, http://pccdb.org

 35 35  0  0  1  0  0  0  0  0999 V2000
    1.9249    2.2808    0.4238 C   0  0  0  0  0  0  0  0  0  0  0  0
    7.6001    1.8967    0.6724 C   0  0  0  0  0  0  0  0  0  0  0  0
    6.6395    0.6537    2.6475 C   0  0  0  0  0  0  0  0  0  0  0  0
    2.9185    0.4366   -2.5716 C   0  0  0  0  0  0  0  0  0  0  0  0
    2.5685    2.0825   -0.7302 C   0  0  0  0  0  0  0  0  0  0  0  0
    5.1786    0.9940    0.6378 C   0  0  0  0  0  0  0  0  0  0  0  0
    6.6353    0.7853    1.1150 C   0  0  0  0  0  0  0  0  0  0  0  0
    3.2897    0.8115   -1.1255 C   0  0  2  0  0  0  0  0  0  0  0  0
    5.4616    2.0475   -1.6846 C   0  0  0  0  0  0  0  0  0  0  0  0
    5.4868   -0.3941   -1.4564 C   0  0  0  0  0  0  0  0  0  0  0  0
    6.5162    0.6778   -3.2379 C   0  0  0  0  0  0  0  0  0  0  0  0
    4.8713    0.8833   -0.8920 C   0  0  1  0  0  0  0  0  0  0  0  0
    6.1775    1.9600   -2.7353 N   0  0  0  0  0  0  0  0  0  0  0  0
    6.2238   -0.4923   -2.4879 N   0  0  0  0  0  0  0  0  0  0  0  0
    5.1865    3.2928   -1.2399 O   0  0  0  0  0  0  0  0  0  0  0  0
    5.1863   -1.5479   -0.8136 O   0  0  0  0  0  0  0  0  0  0  0  0
    7.0710    0.5793   -4.3088 O   0  0  0  0  0  0  0  0  0  0  0  0
    1.3960    3.2077    0.6284 H   0  0  0  0  0  0  0  0  0  0  0  0
    1.8855    1.5194    1.2002 H   0  0  0  0  0  0  0  0  0  0  0  0
    8.5934    1.7202    1.0996 H   0  0  0  0  0  0  0  0  0  0  0  0
    7.2588    2.8798    1.0199 H   0  0  0  0  0  0  0  0  0  0  0  0
    7.7174    1.9464   -0.4130 H   0  0  0  0  0  0  0  0  0  0  0  0
    7.6535    0.4676    3.0169 H   0  0  0  0  0  0  0  0  0  0  0  0
    6.0036   -0.1729    2.9875 H   0  0  0  0  0  0  0  0  0  0  0  0
    6.2773    1.5738    3.1244 H   0  0  0  0  0  0  0  0  0  0  0  0
    1.8292    0.3934   -2.6708 H   0  0  0  0  0  0  0  0  0  0  0  0
    3.3229   -0.5387   -2.8560 H   0  0  0  0  0  0  0  0  0  0  0  0
    3.2909    1.1804   -3.2847 H   0  0  0  0  0  0  0  0  0  0  0  0
    2.5508    2.8685   -1.4862 H   0  0  0  0  0  0  0  0  0  0  0  0
    4.8196    1.9598    1.0133 H   0  0  0  0  0  0  0  0  0  0  0  0
    4.5395    0.2617    1.1550 H   0  0  0  0  0  0  0  0  0  0  0  0
    6.9990   -0.1653    0.7012 H   0  0  0  0  0  0  0  0  0  0  0  0
    2.9376    0.0121   -0.4596 H   0  0  0  0  0  0  0  0  0  0  0  0
    4.5627    3.2510   -0.4953 H   0  0  0  0  0  0  0  0  0  0  0  0
    4.6711   -1.3625   -0.0132 H   0  0  0  0  0  0  0  0  0  0  0  0
  1 18  1  0  0  0  0
  1 19  1  0  0  0  0
  2 21  1  0  0  0  0
  2 20  1  0  0  0  0
  2  7  1  0  0  0  0
  3 24  1  0  0  0  0
  3 23  1  0  0  0  0
  3 25  1  0  0  0  0
  4  8  1  0  0  0  0
  5  1  2  0  0  0  0
  6 30  1  0  0  0  0
  6  7  1  0  0  0  0
  6 31  1  0  0  0  0
  7  3  1  0  0  0  0
  8 12  1  0  0  0  0
  8  5  1  0  0  0  0
  8 33  1  1  0  0  0
  9 15  1  0  0  0  0
  9 12  1  0  0  0  0
 10 12  1  0  0  0  0
 10 16  1  0  0  0  0
 11 13  2  0  0  0  0
 11 14  1  0  0  0  0
 12  6  1  1  0  0  0
 13  9  2  0  0  0  0
 14 10  2  0  0  0  0
 15 34  1  0  0  0  0
 16 35  1  0  0  0  0
 17 11  2  0  0  0  0
 22  2  1  0  0  0  0
 26  4  1  0  0  0  0
 27  4  1  0  0  0  0
 28  4  1  0  0  0  0
 29  5  1  0  0  0  0
 32  7  1  0  0  0  0
M  END
>  <HBA>
5

>  <HBD>
2

>  <TPSA>
75.27

>  <cid>
52191

>  <dipole>
9.99

>  <excitation_energy_1>
3.958

>  <excitation_energy_2>
4.145

>  <excitation_energy_3>
5.203

>  <excitation_energy_4>
5.411

>  <homo_energy>
-6.855

>  <homo_lumo_gap>
5.293

>  <logP>
1.865

>  <lumo_energy>
-1.562

>  <melting_point>
118.98

>  <molecular_refractivity>
71.37

>  <oscillator_strength_1>
0.0003

>  <oscillator_strength_2>
0.0002

>  <oscillator_strength_3>
0.0014

>  <oscillator_strength_4>
0.0285

>  <open_babel_can_smiles>
C=C[C@H]([C@@]1(CC(C)C)C(=N[C](=[N]=C1O)=O)O)C

>  <mulliken_charges>
35
1   -0.340057
2   -0.457757
3   -0.445357
4   -0.487435
5   -0.105886
6   -0.301456
7   -0.085807
8   -0.116309
9   0.545723
10   0.548685
11   0.614519
12   -0.136855
13   -0.474859
14   -0.469271
15   -0.585743
16   -0.585528
17   -0.432685
18   0.163034
19   0.149874
20   0.153496
21   0.142518
22   0.176589
23   0.158142
24   0.137841
25   0.144596
26   0.166221
27   0.187762
28   0.178361
29   0.166843
30   0.144882
31   0.123182
32   0.15428
33   0.130148
34   0.420321
35   0.417989

>  <lowdin_charges>
35
1   -0.32701
2   -0.448895
3   -0.443928
4   -0.452074
5   -0.171992
6   -0.281772
7   -0.128126
8   -0.116977
9   0.146422
10   0.145164
11   0.166986
12   -0.062687
13   -0.188051
14   -0.18327
15   -0.329854
16   -0.333274
17   -0.210268
18   0.170195
19   0.160631
20   0.156741
21   0.148052
22   0.163504
23   0.157594
24   0.146509
25   0.148486
26   0.162498
27   0.171225
28   0.166909
29   0.167634
30   0.15041
31   0.139416
32   0.150027
33   0.145198
34   0.356479
35   0.358101

$$$$

