PCCDB-ID:  65040
public computational chemistry database (PCCDB) project, http://pccdb.org

 16 16  0  0  0  0  0  0  0  0999 V2000
    0.9943    0.1778    0.0941 C   0  0  0  0  0  0  0  0  0  0  0  0
    3.2397    1.3053   -0.0582 C   0  0  0  0  0  0  0  0  0  0  0  0
    2.4917    0.1665   -0.0251 C   0  0  0  0  0  0  0  0  0  0  0  0
    3.1790   -1.1222   -0.1097 C   0  0  0  0  0  0  0  0  0  0  0  0
    5.2067    0.2119   -0.2420 C   0  0  0  0  0  0  0  0  0  0  0  0
    2.7218   -2.3230   -0.1000 N   0  0  0  0  0  0  0  0  0  0  0  0
    4.6137    1.3649   -0.1670 N   0  0  0  0  0  0  0  0  0  0  0  0
    4.5796   -0.9845   -0.2192 N   0  0  0  0  0  0  0  0  0  0  0  0
    6.5437    0.1265   -0.3521 O   0  0  0  0  0  0  0  0  0  0  0  0
    0.6147    1.2023    0.1514 H   0  0  0  0  0  0  0  0  0  0  0  0
    0.6567   -0.3560    0.9929 H   0  0  0  0  0  0  0  0  0  0  0  0
    0.5167   -0.3094   -0.7669 H   0  0  0  0  0  0  0  0  0  0  0  0
    2.7512    2.2756    0.0041 H   0  0  0  0  0  0  0  0  0  0  0  0
    1.7051   -2.3151   -0.0184 H   0  0  0  0  0  0  0  0  0  0  0  0
    5.1138   -1.8441   -0.2823 H   0  0  0  0  0  0  0  0  0  0  0  0
    6.8640    1.0465   -0.3571 H   0  0  0  0  0  0  0  0  0  0  0  0
  1 10  1  0  0  0  0
  1 11  1  0  0  0  0
  2  3  2  0  0  0  0
  2 13  1  0  0  0  0
  3  1  1  0  0  0  0
  4  6  2  0  0  0  0
  4  3  1  0  0  0  0
  5  8  1  0  0  0  0
  5  7  2  0  0  0  0
  6 14  1  0  0  0  0
  7  2  1  0  0  0  0
  8  4  1  0  0  0  0
  9  5  1  0  0  0  0
 12  1  1  0  0  0  0
 15  8  1  0  0  0  0
 16  9  1  0  0  0  0
M  END
>  <HBA>
3

>  <HBD>
2

>  <TPSA>
71.77

>  <cid>
65040

>  <dipole>
1.59

>  <excitation_energy_1>
4.425

>  <excitation_energy_2>
5.083

>  <excitation_energy_3>
5.393

>  <excitation_energy_4>
5.41

>  <homo_energy>
-5.676

>  <homo_lumo_gap>
5.061

>  <logP>
0.242

>  <lumo_energy>
-0.615

>  <melting_point>
155.53

>  <molecular_refractivity>
34.23

>  <oscillator_strength_1>
0.1268

>  <oscillator_strength_2>
0.0004

>  <oscillator_strength_3>
0.0017

>  <oscillator_strength_4>
0.004

>  <open_babel_can_smiles>
Oc1ncc(c(=N)[nH]1)C

>  <mulliken_charges>
16
1   -0.547763
2   -0.033928
3   0.134001
4   0.443584
5   0.729536
6   -0.667061
7   -0.517305
8   -0.645498
9   -0.600689
10   0.161549
11   0.164424
12   0.164588
13   0.142335
14   0.287414
15   0.354571
16   0.430241

>  <lowdin_charges>
16
1   -0.439276
2   -0.08466
3   -0.07956
4   0.091999
5   0.181635
6   -0.451927
7   -0.252273
8   -0.199259
9   -0.347498
10   0.161962
11   0.159706
12   0.16012
13   0.159629
14   0.255037
15   0.30962
16   0.374745

$$$$

