PCCDB-ID:  33856
public computational chemistry database (PCCDB) project, http://pccdb.org

 32 33  0  0  1  0  0  0  0  0999 V2000
    3.2005   -0.2048    0.5481 C   0  0  0  0  0  0  0  0  0  0  0  0
    2.6780    0.6212   -0.6367 C   0  0  0  0  0  0  0  0  0  0  0  0
    2.1912   -1.2904    0.9515 C   0  0  0  0  0  0  0  0  0  0  0  0
    1.2948    1.2217   -0.3375 C   0  0  0  0  0  0  0  0  0  0  0  0
    0.8086   -0.6882    1.2516 C   0  0  0  0  0  0  0  0  0  0  0  0
   -2.9168   -0.5783    0.1509 C   0  0  0  0  0  0  0  0  0  0  0  0
   -1.1575   -0.1903   -1.6656 C   0  0  0  0  0  0  0  0  0  0  0  0
   -1.9637    0.4184   -0.5136 C   0  0  2  0  0  0  0  0  0  0  0  0
   -5.0334   -0.2003   -0.8624 C   0  0  0  0  0  0  0  0  0  0  0  0
    0.2834    0.1440    0.0809 C   0  0  0  0  0  0  0  0  0  0  0  0
   -5.1478    0.9157   -0.2603 N   0  0  0  0  0  0  0  0  0  0  0  0
   -5.8979   -0.8215   -1.7078 O   0  0  0  0  0  0  0  0  0  0  0  0
   -3.9624   -0.9968   -0.7497 O   0  0  0  0  0  0  0  0  0  0  0  0
   -0.0199   -0.7335   -1.0037 O   0  0  0  0  0  0  0  0  0  0  0  0
   -0.9581    0.7761    0.4388 O   0  0  0  0  0  0  0  0  0  0  0  0
    3.3821    0.4609    1.4052 H   0  0  0  0  0  0  0  0  0  0  0  0
    4.1656   -0.6617    0.2955 H   0  0  0  0  0  0  0  0  0  0  0  0
    2.6043   -0.0221   -1.5236 H   0  0  0  0  0  0  0  0  0  0  0  0
    3.3822    1.4243   -0.8876 H   0  0  0  0  0  0  0  0  0  0  0  0
    2.5500   -1.8433    1.8286 H   0  0  0  0  0  0  0  0  0  0  0  0
    2.0892   -2.0172    0.1355 H   0  0  0  0  0  0  0  0  0  0  0  0
    0.9088    1.7711   -1.2046 H   0  0  0  0  0  0  0  0  0  0  0  0
    1.3688    1.9445    0.4855 H   0  0  0  0  0  0  0  0  0  0  0  0
    0.8632   -0.0303    2.1286 H   0  0  0  0  0  0  0  0  0  0  0  0
    0.0780   -1.4728    1.4769 H   0  0  0  0  0  0  0  0  0  0  0  0
   -3.3512   -0.1381    1.0503 H   0  0  0  0  0  0  0  0  0  0  0  0
   -2.3825   -1.4985    0.3975 H   0  0  0  0  0  0  0  0  0  0  0  0
   -0.8666    0.5732   -2.4013 H   0  0  0  0  0  0  0  0  0  0  0  0
   -1.6797   -1.0014   -2.1789 H   0  0  0  0  0  0  0  0  0  0  0  0
   -2.5141    1.3175   -0.8038 H   0  0  0  0  0  0  0  0  0  0  0  0
   -6.0386    1.3738   -0.4475 H   0  0  0  0  0  0  0  0  0  0  0  0
   -6.6778   -0.2562   -1.8167 H   0  0  0  0  0  0  0  0  0  0  0  0
  1  3  1  0  0  0  0
  1 16  1  0  0  0  0
  2  4  1  0  0  0  0
  2  1  1  0  0  0  0
  3  5  1  0  0  0  0
  3 20  1  0  0  0  0
  4 10  1  0  0  0  0
  4 23  1  0  0  0  0
  5 25  1  0  0  0  0
  5 24  1  0  0  0  0
  6 27  1  0  0  0  0
  6 26  1  0  0  0  0
  7 14  1  0  0  0  0
  7  8  1  0  0  0  0
  8 30  1  6  0  0  0
  8  6  1  0  0  0  0
  8 15  1  0  0  0  0
  9 13  1  0  0  0  0
  9 11  2  0  0  0  0
 10 15  1  0  0  0  0
 10  5  1  0  0  0  0
 12  9  1  0  0  0  0
 13  6  1  0  0  0  0
 14 10  1  0  0  0  0
 17  1  1  0  0  0  0
 18  2  1  0  0  0  0
 19  2  1  0  0  0  0
 21  3  1  0  0  0  0
 22  4  1  0  0  0  0
 28  7  1  0  0  0  0
 29  7  1  0  0  0  0
 31 11  1  0  0  0  0
 32 12  1  0  0  0  0
M  END
>  <HBA>
5

>  <HBD>
1

>  <TPSA>
70.78

>  <cid>
33856

>  <dipole>
2.07

>  <excitation_energy_1>
5.687

>  <excitation_energy_2>
6.054

>  <excitation_energy_3>
6.273

>  <excitation_energy_4>
6.371

>  <homo_energy>
-6.596

>  <homo_lumo_gap>
7.725

>  <logP>
1.858

>  <lumo_energy>
1.129

>  <melting_point>
86.08

>  <molecular_refractivity>
52.55

>  <oscillator_strength_1>
0.0011

>  <oscillator_strength_2>
0.0043

>  <oscillator_strength_3>
0.0019

>  <oscillator_strength_4>
0.0097

>  <open_babel_can_smiles>
OC(=N)OC[C@@H]1COC2(O1)CCCCC2

>  <mulliken_charges>
32
1   -0.260654
2   -0.264863
3   -0.268804
4   -0.275137
5   -0.278945
6   -0.056533
7   -0.069895
8   0.110137
9   0.641278
10   0.540712
11   -0.623918
12   -0.56653
13   -0.452368
14   -0.510266
15   -0.541664
16   0.127544
17   0.132047
18   0.145145
19   0.130672
20   0.131699
21   0.150342
22   0.132036
23   0.140887
24   0.141737
25   0.138691
26   0.185636
27   0.163718
28   0.136232
29   0.16935
30   0.163929
31   0.278504
32   0.40928

>  <lowdin_charges>
32
1   -0.278457
2   -0.28152
3   -0.280628
4   -0.296217
5   -0.288722
6   -0.142148
7   -0.150301
8   -0.023521
9   0.187384
10   0.2125
11   -0.470318
12   -0.361539
13   -0.179207
14   -0.265963
15   -0.264864
16   0.137473
17   0.144767
18   0.146783
19   0.145436
20   0.145729
21   0.149494
22   0.148792
23   0.150915
24   0.15142
25   0.151583
26   0.170068
27   0.159656
28   0.137127
29   0.163817
30   0.159708
31   0.258156
32   0.362599

$$$$

