PCCDB-ID:  32144
public computational chemistry database (PCCDB) project, http://pccdb.org

 33 34  0  0  1  0  0  0  0  0999 V2000
    5.3910    2.8070   -3.9567 C   0  0  0  0  0  0  0  0  0  0  0  0
    3.0889    2.2241   -3.5532 C   0  0  0  0  0  0  0  0  0  0  0  0
    3.5250   -4.8712   -3.2330 C   0  0  0  0  0  0  0  0  0  0  0  0
    2.8903   -3.6383   -3.5103 C   0  0  0  0  0  0  0  0  0  0  0  0
    6.5754   -2.6335   -0.1790 C   0  0  0  0  0  0  0  0  0  0  0  0
    4.5796   -4.9123   -2.3507 C   0  0  0  0  0  0  0  0  0  0  0  0
    6.1348   -3.7805   -0.7942 C   0  0  0  0  0  0  0  0  0  0  0  0
    3.3239   -2.4774   -2.9084 C   0  0  0  0  0  0  0  0  0  0  0  0
    5.9579   -1.3925   -0.4572 C   0  0  0  0  0  0  0  0  0  0  0  0
    4.8543    0.6474   -2.9669 C   0  0  0  0  0  0  0  0  0  0  0  0
    5.0504   -3.7346   -1.7100 C   0  0  0  0  0  0  0  0  0  0  0  0
    4.4162   -2.4768   -1.9942 C   0  0  0  0  0  0  0  0  0  0  0  0
    4.9044   -1.2947   -1.3439 C   0  0  0  0  0  0  0  0  0  0  0  0
    4.3068    0.0714   -1.6375 C   0  0  1  0  0  0  0  0  0  0  0  0
    4.4703    2.0575   -3.1061 N   0  0  0  0  0  0  0  0  0  0  0  0
    4.6238    0.9820   -0.5983 O   0  0  0  0  0  0  0  0  0  0  0  0
    5.1129    3.8666   -3.9509 H   0  0  0  0  0  0  0  0  0  0  0  0
    5.3895    2.4596   -5.0066 H   0  0  0  0  0  0  0  0  0  0  0  0
    6.4099    2.7187   -3.5673 H   0  0  0  0  0  0  0  0  0  0  0  0
    2.8293    3.2878   -3.5524 H   0  0  0  0  0  0  0  0  0  0  0  0
    2.4037    1.7124   -2.8712 H   0  0  0  0  0  0  0  0  0  0  0  0
    2.9220    1.8283   -4.5726 H   0  0  0  0  0  0  0  0  0  0  0  0
    3.1763   -5.7808   -3.7145 H   0  0  0  0  0  0  0  0  0  0  0  0
    2.0520   -3.6075   -4.2014 H   0  0  0  0  0  0  0  0  0  0  0  0
    7.3995   -2.6730    0.5285 H   0  0  0  0  0  0  0  0  0  0  0  0
    5.0731   -5.8553   -2.1264 H   0  0  0  0  0  0  0  0  0  0  0  0
    6.6034   -4.7396   -0.5861 H   0  0  0  0  0  0  0  0  0  0  0  0
    2.8158   -1.5468   -3.1385 H   0  0  0  0  0  0  0  0  0  0  0  0
    6.2993   -0.4903    0.0375 H   0  0  0  0  0  0  0  0  0  0  0  0
    4.5361    0.0337   -3.8269 H   0  0  0  0  0  0  0  0  0  0  0  0
    5.9470    0.6011   -2.9141 H   0  0  0  0  0  0  0  0  0  0  0  0
    3.2113   -0.0290   -1.7085 H   0  0  0  0  0  0  0  0  0  0  0  0
    4.6050    1.8542   -1.0436 H   0  0  0  0  0  0  0  0  0  0  0  0
  1 17  1  0  0  0  0
  1 19  1  0  0  0  0
  1 15  1  0  0  0  0
  2 20  1  0  0  0  0
  2 15  1  0  0  0  0
  2 21  1  0  0  0  0
  3  6  1  0  0  0  0
  4  3  2  0  0  0  0
  4  8  1  0  0  0  0
  5 25  1  0  0  0  0
  6 26  1  0  0  0  0
  6 11  2  0  0  0  0
  7 27  1  0  0  0  0
  7  5  2  0  0  0  0
  8 12  2  0  0  0  0
  9  5  1  0  0  0  0
  9 29  1  0  0  0  0
 10 31  1  0  0  0  0
 10 14  1  0  0  0  0
 11  7  1  0  0  0  0
 12 11  1  0  0  0  0
 12 13  1  0  0  0  0
 13  9  2  0  0  0  0
 14 32  1  6  0  0  0
 14 13  1  0  0  0  0
 14 16  1  0  0  0  0
 15 10  1  0  0  0  0
 18  1  1  0  0  0  0
 22  2  1  0  0  0  0
 23  3  1  0  0  0  0
 24  4  1  0  0  0  0
 28  8  1  0  0  0  0
 30 10  1  0  0  0  0
 33 16  1  0  0  0  0
M  END
>  <HBA>
2

>  <HBD>
1

>  <TPSA>
23.47

>  <cid>
32144

>  <dipole>
2.69

>  <excitation_energy_1>
4.212

>  <excitation_energy_2>
4.399

>  <excitation_energy_3>
4.796

>  <excitation_energy_4>
5.215

>  <homo_energy>
-5.597

>  <homo_lumo_gap>
4.694

>  <logP>
2.435

>  <lumo_energy>
-0.903

>  <melting_point>
71.75

>  <molecular_refractivity>
67.39

>  <oscillator_strength_1>
0.1079

>  <oscillator_strength_2>
0.0002

>  <oscillator_strength_3>
0.0012

>  <oscillator_strength_4>
0.0082

>  <open_babel_can_smiles>
CN(C[C@@H](c1cccc2c1cccc2)O)C

>  <mulliken_charges>
33
1   -0.296951
2   -0.306744
3   -0.13308
4   -0.137826
5   -0.133554
6   -0.194726
7   -0.189397
8   -0.196876
9   -0.188372
10   -0.151546
11   0.13468
12   0.08533
13   0.065309
14   0.08749
15   -0.403056
16   -0.654911
17   0.152914
18   0.129145
19   0.158338
20   0.155989
21   0.163053
22   0.129123
23   0.128005
24   0.126558
25   0.128196
26   0.128425
27   0.125983
28   0.124224
29   0.153714
30   0.132084
31   0.151926
32   0.123602
33   0.40295

>  <lowdin_charges>
33
1   -0.35187
2   -0.359344
3   -0.162571
4   -0.158358
5   -0.156294
6   -0.155174
7   -0.160771
8   -0.168817
9   -0.161101
10   -0.221668
11   0.001089
12   -0.007339
13   -0.016923
14   -0.003067
15   -0.186339
16   -0.466774
17   0.150285
18   0.126426
19   0.153725
20   0.152649
21   0.156681
22   0.127046
23   0.158261
24   0.157016
25   0.157785
26   0.156992
27   0.155921
28   0.155377
29   0.172741
30   0.135789
31   0.152776
32   0.126995
33   0.338855

$$$$

