PCCDB-ID:  27392
public computational chemistry database (PCCDB) project, http://pccdb.org

 37 37  0  0  1  0  0  0  0  0999 V2000
    1.5127    0.1695   -0.9466 C   0  0  0  0  0  0  0  0  0  0  0  0
    4.7918    1.0510    1.9550 C   0  0  0  0  0  0  0  0  0  0  0  0
    3.0130    1.1688    3.7398 C   0  0  0  0  0  0  0  0  0  0  0  0
    4.0236   -6.2505    2.3173 C   0  0  0  0  0  0  0  0  0  0  0  0
    2.9368   -5.3738    2.2872 C   0  0  0  0  0  0  0  0  0  0  0  0
    4.9817   -6.1970    1.3028 C   0  0  0  0  0  0  0  0  0  0  0  0
    2.8052   -4.4453    1.2558 C   0  0  0  0  0  0  0  0  0  0  0  0
    4.8499   -5.2773    0.2645 C   0  0  0  0  0  0  0  0  0  0  0  0
    2.3547    0.4622    1.4175 C   0  0  0  0  0  0  0  0  0  0  0  0
    2.6243   -0.1822    0.0466 C   0  0  1  0  0  0  0  0  0  0  0  0
    3.7620   -4.3845    0.2263 C   0  0  0  0  0  0  0  0  0  0  0  0
    3.6244   -3.4454   -0.9173 C   0  0  0  0  0  0  0  0  0  0  0  0
    3.4818    0.4386    2.4714 C   0  0  0  0  0  0  0  0  0  0  0  0
    2.7010   -1.6443    0.2030 N   0  0  0  0  0  0  0  0  0  0  0  0
    3.1483   -2.2594   -0.9499 N   0  0  0  0  0  0  0  0  0  0  0  0
    4.1228   -3.9015   -2.1241 O   0  0  0  0  0  0  0  0  0  0  0  0
    3.6950   -0.9549    2.7946 O   0  0  0  0  0  0  0  0  0  0  0  0
    1.5045    1.2457   -1.1560 H   0  0  0  0  0  0  0  0  0  0  0  0
    0.5336   -0.1181   -0.5454 H   0  0  0  0  0  0  0  0  0  0  0  0
    1.6708   -0.3681   -1.8849 H   0  0  0  0  0  0  0  0  0  0  0  0
    4.6451    2.0861    1.6267 H   0  0  0  0  0  0  0  0  0  0  0  0
    5.1937    0.4763    1.1158 H   0  0  0  0  0  0  0  0  0  0  0  0
    5.5480    1.0621    2.7512 H   0  0  0  0  0  0  0  0  0  0  0  0
    2.8290    2.2319    3.5463 H   0  0  0  0  0  0  0  0  0  0  0  0
    3.7750    1.1013    4.5271 H   0  0  0  0  0  0  0  0  0  0  0  0
    2.0900    0.7192    4.1197 H   0  0  0  0  0  0  0  0  0  0  0  0
    4.1235   -6.9698    3.1258 H   0  0  0  0  0  0  0  0  0  0  0  0
    2.1838   -5.4140    3.0698 H   0  0  0  0  0  0  0  0  0  0  0  0
    5.8337   -6.8715    1.3203 H   0  0  0  0  0  0  0  0  0  0  0  0
    1.9575   -3.7692    1.2347 H   0  0  0  0  0  0  0  0  0  0  0  0
    5.6046   -5.2282   -0.5154 H   0  0  0  0  0  0  0  0  0  0  0  0
    1.4719   -0.0216    1.8562 H   0  0  0  0  0  0  0  0  0  0  0  0
    2.0871    1.5124    1.2480 H   0  0  0  0  0  0  0  0  0  0  0  0
    3.5734    0.2041   -0.3596 H   0  0  0  0  0  0  0  0  0  0  0  0
    3.2298   -1.8892    1.0424 H   0  0  0  0  0  0  0  0  0  0  0  0
    4.0255   -4.8670   -2.1384 H   0  0  0  0  0  0  0  0  0  0  0  0
    4.4546   -1.0092    3.3964 H   0  0  0  0  0  0  0  0  0  0  0  0
  1 19  1  0  0  0  0
  1 10  1  0  0  0  0
  2 13  1  0  0  0  0
  2 23  1  0  0  0  0
  3 26  1  0  0  0  0
  3 25  1  0  0  0  0
  4 27  1  0  0  0  0
  5  4  1  0  0  0  0
  5 28  1  0  0  0  0
  6 29  1  0  0  0  0
  6  4  2  0  0  0  0
  7  5  2  0  0  0  0
  8  6  1  0  0  0  0
  9 32  1  0  0  0  0
  9 13  1  0  0  0  0
 10 34  1  6  0  0  0
 10 14  1  0  0  0  0
 10  9  1  0  0  0  0
 11  8  2  0  0  0  0
 11  7  1  0  0  0  0
 12 11  1  0  0  0  0
 13 17  1  0  0  0  0
 13  3  1  0  0  0  0
 14 35  1  0  0  0  0
 15 12  2  0  0  0  0
 15 14  1  0  0  0  0
 16 12  1  0  0  0  0
 17 37  1  0  0  0  0
 18  1  1  0  0  0  0
 20  1  1  0  0  0  0
 21  2  1  0  0  0  0
 22  2  1  0  0  0  0
 24  3  1  0  0  0  0
 30  7  1  0  0  0  0
 31  8  1  0  0  0  0
 33  9  1  0  0  0  0
 36 16  1  0  0  0  0
M  END
>  <HBA>
4

>  <HBD>
3

>  <TPSA>
61.36

>  <cid>
27392

>  <dipole>
3.88

>  <excitation_energy_1>
3.634

>  <excitation_energy_2>
3.985

>  <excitation_energy_3>
4.536

>  <excitation_energy_4>
4.771

>  <homo_energy>
-4.993

>  <homo_lumo_gap>
4.272

>  <logP>
2.252

>  <lumo_energy>
-0.721

>  <melting_point>
118.89

>  <molecular_refractivity>
67.47

>  <oscillator_strength_1>
0.1622

>  <oscillator_strength_2>
0.0092

>  <oscillator_strength_3>
0.001

>  <oscillator_strength_4>
0.007

>  <open_babel_can_smiles>
C[C@@H](CC(O)(C)C)N/N=C(\c1ccccc1)/O

>  <mulliken_charges>
37
1   -0.442855
2   -0.46752
3   -0.448703
4   -0.125807
5   -0.135462
6   -0.131871
7   -0.169851
8   -0.192197
9   -0.28482
10   0.073044
11   0.055246
12   0.404561
13   0.299013
14   -0.481991
15   -0.290169
16   -0.602262
17   -0.640125
18   0.127539
19   0.139384
20   0.1769
21   0.148252
22   0.168308
23   0.13099
24   0.143711
25   0.129999
26   0.156648
27   0.132468
28   0.135421
29   0.133225
30   0.172948
31   0.143324
32   0.147887
33   0.135212
34   0.119989
35   0.351881
36   0.397589
37   0.390092

>  <lowdin_charges>
37
1   -0.447092
2   -0.46087
3   -0.453302
4   -0.153928
5   -0.154172
6   -0.156076
7   -0.152639
8   -0.168894
9   -0.286526
10   -0.056566
11   -0.044371
12   0.076612
13   0.123984
14   -0.27659
15   -0.122854
16   -0.387043
17   -0.464619
18   0.141584
19   0.147152
20   0.167426
21   0.155188
22   0.161624
23   0.14544
24   0.151378
25   0.14502
26   0.157833
27   0.159553
28   0.160994
29   0.159546
30   0.177524
31   0.163783
32   0.15471
33   0.151297
34   0.127412
35   0.266137
36   0.348257
37   0.343089

$$$$

