PCCDB-ID:  69161
public computational chemistry database (PCCDB) project, http://pccdb.org

 23 23  0  0  0  0  0  0  0  0999 V2000
   -1.7755   -0.6775    0.4119 C   0  0  0  0  0  0  0  0  0  0  0  0
   -0.6908   -1.3822   -0.1168 C   0  0  0  0  0  0  0  0  0  0  0  0
   -1.9943    0.6261   -0.0120 C   0  0  0  0  0  0  0  0  0  0  0  0
    0.1691   -0.7862   -1.0310 C   0  0  0  0  0  0  0  0  0  0  0  0
    2.1657    0.6109   -2.6127 C   0  0  0  0  0  0  0  0  0  0  0  0
   -1.1575    1.2548   -0.9512 C   0  0  0  0  0  0  0  0  0  0  0  0
   -0.0274    0.5438   -1.4529 C   0  0  0  0  0  0  0  0  0  0  0  0
    2.2034   -0.4945   -3.6831 C   0  0  0  0  0  0  0  0  0  0  0  0
   -1.4163    2.6571   -1.3802 C   0  0  0  0  0  0  0  0  0  0  0  0
    0.8294    1.1363   -2.3759 N   0  0  0  0  0  0  0  0  0  0  0  0
    3.1292   -1.2587   -3.7984 O   0  0  0  0  0  0  0  0  0  0  0  0
    1.1340   -0.5114   -4.4998 O   0  0  0  0  0  0  0  0  0  0  0  0
   -0.5825    3.3872   -1.8888 O   0  0  0  0  0  0  0  0  0  0  0  0
   -2.6647    3.1497   -1.1871 O   0  0  0  0  0  0  0  0  0  0  0  0
   -2.4318   -1.1343    1.1454 H   0  0  0  0  0  0  0  0  0  0  0  0
   -0.5047   -2.4071    0.1919 H   0  0  0  0  0  0  0  0  0  0  0  0
   -2.8115    1.1851    0.4385 H   0  0  0  0  0  0  0  0  0  0  0  0
    1.0032   -1.3584   -1.4217 H   0  0  0  0  0  0  0  0  0  0  0  0
    2.7910    1.4317   -2.9802 H   0  0  0  0  0  0  0  0  0  0  0  0
    2.6442    0.2210   -1.7071 H   0  0  0  0  0  0  0  0  0  0  0  0
    0.7274    2.1492   -2.3955 H   0  0  0  0  0  0  0  0  0  0  0  0
    0.5172    0.1755   -4.1662 H   0  0  0  0  0  0  0  0  0  0  0  0
   -3.2758    2.4339   -0.9497 H   0  0  0  0  0  0  0  0  0  0  0  0
  1 15  1  0  0  0  0
  2 16  1  0  0  0  0
  2  1  2  0  0  0  0
  3  1  1  0  0  0  0
  3 17  1  0  0  0  0
  4  2  1  0  0  0  0
  5 10  1  0  0  0  0
  5 20  1  0  0  0  0
  6  3  2  0  0  0  0
  7  4  2  0  0  0  0
  7  6  1  0  0  0  0
  8  5  1  0  0  0  0
  9 14  1  0  0  0  0
  9  6  1  0  0  0  0
 10  7  1  0  0  0  0
 11  8  2  0  0  0  0
 12 22  1  0  0  0  0
 12  8  1  0  0  0  0
 13  9  2  0  0  0  0
 14 23  1  0  0  0  0
 18  4  1  0  0  0  0
 19  5  1  0  0  0  0
 21 10  1  0  0  0  0
M  END
>  <HBA>
5

>  <HBD>
3

>  <TPSA>
86.63

>  <cid>
69161

>  <dipole>
4.8

>  <excitation_energy_1>
3.936

>  <excitation_energy_2>
4.836

>  <excitation_energy_3>
5.078

>  <excitation_energy_4>
5.227

>  <homo_energy>
-6.365

>  <homo_lumo_gap>
4.612

>  <logP>
0.954

>  <lumo_energy>
-1.752

>  <melting_point>
206.69

>  <molecular_refractivity>
49.29

>  <oscillator_strength_1>
0.0939

>  <oscillator_strength_2>
0.0109

>  <oscillator_strength_3>
0.0417

>  <oscillator_strength_4>
0.0202

>  <open_babel_can_smiles>
OC(=O)CNc1ccccc1C(=O)O

>  <mulliken_charges>
23
1   -0.131515
2   -0.131526
3   -0.222056
4   -0.177956
5   -0.253277
6   0.020298
7   0.302899
8   0.595909
9   0.575801
10   -0.721911
11   -0.452533
12   -0.563032
13   -0.48366
14   -0.565592
15   0.141889
16   0.150888
17   0.136102
18   0.162795
19   0.199769
20   0.191521
21   0.381293
22   0.427698
23   0.416197

>  <lowdin_charges>
23
1   -0.178611
2   -0.118462
3   -0.15107
4   -0.198402
5   -0.245224
6   -0.099822
7   0.077707
8   0.172411
9   0.208269
10   -0.307997
11   -0.245765
12   -0.349738
13   -0.268945
14   -0.347388
15   0.166769
16   0.167614
17   0.15935
18   0.175782
19   0.186329
20   0.171961
21   0.301817
22   0.361937
23   0.361478

$$$$

