PCCDB-ID:  39138
public computational chemistry database (PCCDB) project, http://pccdb.org

 41 42  0  0  0  0  0  0  0  0999 V2000
    2.5130    1.0771    1.2423 C   0  0  0  0  0  0  0  0  0  0  0  0
    1.1646    0.1050   -0.6211 C   0  0  0  0  0  0  0  0  0  0  0  0
    5.0450   -7.7329    2.9703 C   0  0  0  0  0  0  0  0  0  0  0  0
    6.0221   -6.8504    2.1841 C   0  0  0  0  0  0  0  0  0  0  0  0
    3.6105   -7.4896    2.4850 C   0  0  0  0  0  0  0  0  0  0  0  0
    2.2189   -2.4601    0.2426 C   0  0  0  0  0  0  0  0  0  0  0  0
    4.1643   -1.4962    1.2194 C   0  0  0  0  0  0  0  0  0  0  0  0
    2.6337   -3.7236    0.6535 C   0  0  0  0  0  0  0  0  0  0  0  0
    4.5863   -2.7540    1.6487 C   0  0  0  0  0  0  0  0  0  0  0  0
    5.6060   -5.3751    2.2302 C   0  0  0  0  0  0  0  0  0  0  0  0
    3.2690   -5.9976    2.5263 C   0  0  0  0  0  0  0  0  0  0  0  0
    3.6078    0.5849   -0.9950 C   0  0  0  0  0  0  0  0  0  0  0  0
    2.9696   -1.3047    0.5112 C   0  0  0  0  0  0  0  0  0  0  0  0
    3.8281   -3.9051    1.3731 C   0  0  0  0  0  0  0  0  0  0  0  0
    2.5537    0.1011    0.0454 C   0  0  0  0  0  0  0  0  0  0  0  0
    3.3021    1.9182   -1.5325 N   0  0  0  0  0  0  0  0  0  0  0  0
    4.2361   -5.2068    1.7501 N   0  0  0  0  0  0  0  0  0  0  0  0
    2.3042    2.0906    0.8881 H   0  0  0  0  0  0  0  0  0  0  0  0
    3.4666    1.1017    1.7799 H   0  0  0  0  0  0  0  0  0  0  0  0
    1.7364    0.7812    1.9571 H   0  0  0  0  0  0  0  0  0  0  0  0
    0.8863    1.1290   -0.8907 H   0  0  0  0  0  0  0  0  0  0  0  0
    0.3941   -0.2749    0.0589 H   0  0  0  0  0  0  0  0  0  0  0  0
    1.1420   -0.5049   -1.5328 H   0  0  0  0  0  0  0  0  0  0  0  0
    5.1121   -7.4876    4.0406 H   0  0  0  0  0  0  0  0  0  0  0  0
    5.3144   -8.7915    2.8712 H   0  0  0  0  0  0  0  0  0  0  0  0
    6.0476   -7.1739    1.1353 H   0  0  0  0  0  0  0  0  0  0  0  0
    7.0407   -6.9478    2.5801 H   0  0  0  0  0  0  0  0  0  0  0  0
    2.8906   -8.0423    3.1017 H   0  0  0  0  0  0  0  0  0  0  0  0
    3.5034   -7.8503    1.4534 H   0  0  0  0  0  0  0  0  0  0  0  0
    1.2901   -2.3896   -0.3135 H   0  0  0  0  0  0  0  0  0  0  0  0
    4.7903   -0.6422    1.4651 H   0  0  0  0  0  0  0  0  0  0  0  0
    2.0336   -4.5885    0.3852 H   0  0  0  0  0  0  0  0  0  0  0  0
    5.5069   -2.8255    2.2176 H   0  0  0  0  0  0  0  0  0  0  0  0
    6.2707   -4.7879    1.5897 H   0  0  0  0  0  0  0  0  0  0  0  0
    5.7245   -4.9933    3.2642 H   0  0  0  0  0  0  0  0  0  0  0  0
    3.2528   -5.6539    3.5794 H   0  0  0  0  0  0  0  0  0  0  0  0
    2.2685   -5.8296    2.1238 H   0  0  0  0  0  0  0  0  0  0  0  0
    3.7007   -0.1934   -1.7725 H   0  0  0  0  0  0  0  0  0  0  0  0
    4.5842    0.6484   -0.5018 H   0  0  0  0  0  0  0  0  0  0  0  0
    2.6023    1.8463   -2.2682 H   0  0  0  0  0  0  0  0  0  0  0  0
    4.1332    2.3047   -1.9753 H   0  0  0  0  0  0  0  0  0  0  0  0
  1 19  1  0  0  0  0
  1 20  1  0  0  0  0
  2 15  1  0  0  0  0
  2 22  1  0  0  0  0
  3 24  1  0  0  0  0
  4 10  1  0  0  0  0
  4 27  1  0  0  0  0
  4  3  1  0  0  0  0
  5 11  1  0  0  0  0
  5  3  1  0  0  0  0
  5 28  1  0  0  0  0
  6 13  2  0  0  0  0
  6  8  1  0  0  0  0
  7 31  1  0  0  0  0
  7  9  2  0  0  0  0
  8 14  2  0  0  0  0
  9 33  1  0  0  0  0
 10 35  1  0  0  0  0
 11 36  1  0  0  0  0
 12 39  1  0  0  0  0
 12 15  1  0  0  0  0
 13  7  1  0  0  0  0
 14  9  1  0  0  0  0
 14 17  1  0  0  0  0
 15 13  1  0  0  0  0
 15  1  1  0  0  0  0
 16 12  1  0  0  0  0
 17 10  1  0  0  0  0
 17 11  1  0  0  0  0
 18  1  1  0  0  0  0
 21  2  1  0  0  0  0
 23  2  1  0  0  0  0
 25  3  1  0  0  0  0
 26  4  1  0  0  0  0
 29  5  1  0  0  0  0
 30  6  1  0  0  0  0
 32  8  1  0  0  0  0
 34 10  1  0  0  0  0
 37 11  1  0  0  0  0
 38 12  1  0  0  0  0
 40 16  1  0  0  0  0
 41 16  1  0  0  0  0
M  END
>  <HBA>
2

>  <HBD>
1

>  <TPSA>
29.26

>  <cid>
39138

>  <dipole>
1.51

>  <excitation_energy_1>
4.462

>  <excitation_energy_2>
4.632

>  <excitation_energy_3>
4.91

>  <excitation_energy_4>
4.958

>  <homo_energy>
-5.091

>  <homo_lumo_gap>
5.35

>  <logP>
3.679

>  <lumo_energy>
0.259

>  <melting_point>
97.29

>  <molecular_refractivity>
77.87

>  <oscillator_strength_1>
0.0326

>  <oscillator_strength_2>
0.1157

>  <oscillator_strength_3>
0.0068

>  <oscillator_strength_4>
0.1759

>  <open_babel_can_smiles>
NCC(c1ccc(cc1)N1CCCCC1)(C)C

>  <mulliken_charges>
41
1   -0.444068
2   -0.479792
3   -0.264947
4   -0.261554
5   -0.258625
6   -0.204266
7   -0.204851
8   -0.173673
9   -0.190874
10   -0.124819
11   -0.132157
12   -0.142878
13   0.174371
14   0.329971
15   0.031934
16   -0.721148
17   -0.493467
18   0.165597
19   0.132857
20   0.136851
21   0.152387
22   0.147524
23   0.136049
24   0.129459
25   0.135626
26   0.141937
27   0.132237
28   0.132725
29   0.139867
30   0.120489
31   0.121103
32   0.123259
33   0.124327
34   0.150448
35   0.117171
36   0.121677
37   0.149732
38   0.119998
39   0.134272
40   0.297158
41   0.298096

>  <lowdin_charges>
41
1   -0.442907
2   -0.450246
3   -0.276425
4   -0.278426
5   -0.282959
6   -0.166042
7   -0.16131
8   -0.187143
9   -0.199946
10   -0.199739
11   -0.191675
12   -0.208379
13   -0.019238
14   0.049076
15   0.010274
16   -0.560516
17   -0.147731
18   0.15918
19   0.144076
20   0.147633
21   0.153782
22   0.15279
23   0.143955
24   0.136559
25   0.144274
26   0.144696
27   0.145267
28   0.147733
29   0.143813
30   0.156588
31   0.153032
32   0.15588
33   0.157372
34   0.155193
35   0.118988
36   0.12192
37   0.152929
38   0.124825
39   0.141641
40   0.253451
41   0.257759

$$$$

