PCCDB-ID:  278
public computational chemistry database (PCCDB) project, http://pccdb.org

 12 11  0  0  0  0  0  0  0  0999 V2000
    1.2236   -0.1523    0.3039 C   0  0  0  0  0  0  0  0  0  0  0  0
    0.7041    1.0151    0.2446 N   0  0  0  0  0  0  0  0  0  0  0  0
    0.6382   -1.3522    0.1555 O   0  0  0  0  0  0  0  0  0  0  0  0
    4.9237    0.4601    0.6100 O   0  0  0  0  0  0  0  0  0  0  0  0
    3.0975    2.1600    0.3305 O   0  0  0  0  0  0  0  0  0  0  0  0
    3.4053    0.8927    2.6539 O   0  0  0  0  0  0  0  0  0  0  0  0
    2.5351   -0.3390    0.5066 O   0  0  0  0  0  0  0  0  0  0  0  0
    3.4931    0.8759    1.1893 P   0  0  0  0  0  0  0  0  0  0  0  0
   -0.3028    1.0269    0.1051 H   0  0  0  0  0  0  0  0  0  0  0  0
   -0.3021   -1.2297   -0.0520 H   0  0  0  0  0  0  0  0  0  0  0  0
    5.0080    0.6534   -0.3386 H   0  0  0  0  0  0  0  0  0  0  0  0
    2.1002    2.1532    0.2323 H   0  0  0  0  0  0  0  0  0  0  0  0
  1  7  1  0  0  0  0
  2  1  2  0  0  0  0
  3  1  1  0  0  0  0
  4  8  1  0  0  0  0
  5  8  1  0  0  0  0
  7  8  1  0  0  0  0
  8  6  2  0  0  0  0
  9  2  1  0  0  0  0
 10  3  1  0  0  0  0
 11  4  1  0  0  0  0
 12  5  1  0  0  0  0
M  END
>  <HBA>
6

>  <HBD>
3

>  <TPSA>
119.66

>  <cid>
278

>  <dipole>
6.43

>  <excitation_energy_1>
6.388

>  <excitation_energy_2>
6.753

>  <excitation_energy_3>
6.924

>  <excitation_energy_4>
7.13

>  <homo_energy>
-8.008

>  <homo_lumo_gap>
8.117

>  <logP>
-0.125

>  <lumo_energy>
0.109

>  <melting_point>
142.46

>  <molecular_refractivity>
22.29

>  <oscillator_strength_1>
0.0036

>  <oscillator_strength_2>
0.0022

>  <oscillator_strength_3>
0.011

>  <oscillator_strength_4>
0.0289

>  <open_babel_can_smiles>
OC(=N)OP(=O)(O)O

>  <mulliken_charges>
12
1   0.706113
2   -0.692437
3   -0.5383
4   -0.607424
5   -0.670654
6   -0.492401
7   -0.508648
8   1.167846
9   0.304901
10   0.421685
11   0.443247
12   0.466072

>  <lowdin_charges>
12
1   0.221508
2   -0.466722
3   -0.324955
4   -0.536291
5   -0.579514
6   -0.539295
7   -0.317385
8   1.135133
9   0.271292
10   0.370086
11   0.387017
12   0.379125

$$$$

