PCCDB-ID:  1000
public computational chemistry database (PCCDB) project, http://pccdb.org

 21 21  0  0  1  0  0  0  0  0999 V2000
   -2.1886    0.5709    0.0472 C   0  0  0  0  0  0  0  0  0  0  0  0
   -1.2495    1.5273    0.4333 C   0  0  0  0  0  0  0  0  0  0  0  0
   -1.7549   -0.6913   -0.3668 C   0  0  0  0  0  0  0  0  0  0  0  0
    0.1150    1.2288    0.4010 C   0  0  0  0  0  0  0  0  0  0  0  0
   -0.3923   -0.9856   -0.3999 C   0  0  0  0  0  0  0  0  0  0  0  0
    2.5330   -0.5693   -1.5355 C   0  0  0  0  0  0  0  0  0  0  0  0
    0.5598   -0.0274   -0.0218 C   0  0  0  0  0  0  0  0  0  0  0  0
    2.0527   -0.3585   -0.0807 C   0  0  2  0  0  0  0  0  0  0  0  0
    2.5974    0.7462   -2.1867 N   0  0  0  0  0  0  0  0  0  0  0  0
    2.8611    0.6384    0.5151 O   0  0  0  0  0  0  0  0  0  0  0  0
   -3.2502    0.8022    0.0742 H   0  0  0  0  0  0  0  0  0  0  0  0
   -1.5777    2.5089    0.7664 H   0  0  0  0  0  0  0  0  0  0  0  0
   -2.4787   -1.4481   -0.6586 H   0  0  0  0  0  0  0  0  0  0  0  0
    0.8496    1.9586    0.7246 H   0  0  0  0  0  0  0  0  0  0  0  0
   -0.0665   -1.9760   -0.7137 H   0  0  0  0  0  0  0  0  0  0  0  0
    1.8930   -1.3006   -2.0518 H   0  0  0  0  0  0  0  0  0  0  0  0
    3.5505   -0.9739   -1.5046 H   0  0  0  0  0  0  0  0  0  0  0  0
    2.2237   -1.2890    0.4768 H   0  0  0  0  0  0  0  0  0  0  0  0
    1.6634    1.0573   -2.4480 H   0  0  0  0  0  0  0  0  0  0  0  0
    3.1530    0.7062   -3.0369 H   0  0  0  0  0  0  0  0  0  0  0  0
    3.0638    1.2462   -0.2269 H   0  0  0  0  0  0  0  0  0  0  0  0
  1 11  1  0  0  0  0
  1  2  2  0  0  0  0
  2 12  1  0  0  0  0
  3  1  1  0  0  0  0
  4  2  1  0  0  0  0
  4 14  1  0  0  0  0
  5  3  2  0  0  0  0
  5  7  1  0  0  0  0
  6 17  1  0  0  0  0
  6  8  1  0  0  0  0
  7  4  2  0  0  0  0
  8  7  1  0  0  0  0
  8 18  1  1  0  0  0
  8 10  1  0  0  0  0
  9  6  1  0  0  0  0
 13  3  1  0  0  0  0
 15  5  1  0  0  0  0
 16  6  1  0  0  0  0
 19  9  1  0  0  0  0
 20  9  1  0  0  0  0
 21 10  1  0  0  0  0
M  END
>  <HBA>
2

>  <HBD>
2

>  <TPSA>
46.25

>  <cid>
1000

>  <dipole>
3.11

>  <excitation_energy_1>
5.305

>  <excitation_energy_2>
5.829

>  <excitation_energy_3>
5.918

>  <excitation_energy_4>
5.929

>  <homo_energy>
-6.455

>  <homo_lumo_gap>
6.49

>  <logP>
1.379

>  <lumo_energy>
0.035

>  <melting_point>
79.35

>  <molecular_refractivity>
40.08

>  <oscillator_strength_1>
0.0019

>  <oscillator_strength_2>
0.0427

>  <oscillator_strength_3>
0.0003

>  <oscillator_strength_4>
0.007

>  <open_babel_can_smiles>
NC[C@H](c1ccccc1)O

>  <mulliken_charges>
21
1   -0.129902
2   -0.130205
3   -0.13238
4   -0.181579
5   -0.183354
6   -0.168195
7   0.12372
8   0.085532
9   -0.750044
10   -0.643821
11   0.126318
12   0.12784
13   0.126422
14   0.140876
15   0.119289
16   0.131929
17   0.153128
18   0.142318
19   0.31704
20   0.313569
21   0.411498

>  <lowdin_charges>
21
1   -0.160665
2   -0.154952
3   -0.158752
4   -0.167255
5   -0.171875
6   -0.223548
7   -0.026832
8   -0.007663
9   -0.555379
10   -0.463568
11   0.154507
12   0.155949
13   0.156945
14   0.166933
15   0.150792
16   0.133558
17   0.149769
18   0.148717
19   0.264542
20   0.265459
21   0.343316

$$$$

