PCCDB-ID:  18145
public computational chemistry database (PCCDB) project, http://pccdb.org

 27 26  0  0  1  0  0  0  0  0999 V2000
    4.1885   -2.0488   -3.7147 C   0  0  0  0  0  0  0  0  0  0  0  0
    8.9994   -0.0582    1.9345 C   0  0  0  0  0  0  0  0  0  0  0  0
    3.8977   -1.5206   -2.3062 C   0  0  0  0  0  0  0  0  0  0  0  0
    4.9307   -1.9710   -1.2646 C   0  0  0  0  0  0  0  0  0  0  0  0
    4.6354   -1.4415    0.1451 C   0  0  0  0  0  0  0  0  0  0  0  0
    5.6020   -1.9466    1.2327 C   0  0  0  0  0  0  0  0  0  0  0  0
    7.0862   -1.5303    1.1362 C   0  0  0  0  0  0  0  0  0  0  0  0
    7.4829   -0.1690    1.7376 C   0  0  2  0  0  0  0  0  0  0  0  0
    6.8407    1.3089    0.8086 S   0  0  0  0  0  0  0  0  0  0  0  0
    3.4342   -1.7098   -4.4341 H   0  0  0  0  0  0  0  0  0  0  0  0
    4.1968   -3.1458   -3.7332 H   0  0  0  0  0  0  0  0  0  0  0  0
    5.1673   -1.7054   -4.0719 H   0  0  0  0  0  0  0  0  0  0  0  0
    9.3612   -0.8640    2.5860 H   0  0  0  0  0  0  0  0  0  0  0  0
    9.2717    0.9008    2.3838 H   0  0  0  0  0  0  0  0  0  0  0  0
    9.5262   -0.1451    0.9761 H   0  0  0  0  0  0  0  0  0  0  0  0
    2.8981   -1.8517   -1.9909 H   0  0  0  0  0  0  0  0  0  0  0  0
    3.8610   -0.4222   -2.3259 H   0  0  0  0  0  0  0  0  0  0  0  0
    5.9275   -1.6408   -1.5901 H   0  0  0  0  0  0  0  0  0  0  0  0
    4.9673   -3.0712   -1.2435 H   0  0  0  0  0  0  0  0  0  0  0  0
    3.6215   -1.7586    0.4294 H   0  0  0  0  0  0  0  0  0  0  0  0
    4.6244   -0.3464    0.1307 H   0  0  0  0  0  0  0  0  0  0  0  0
    5.5679   -3.0454    1.2272 H   0  0  0  0  0  0  0  0  0  0  0  0
    5.2187   -1.6439    2.2177 H   0  0  0  0  0  0  0  0  0  0  0  0
    7.4402   -1.5830    0.0978 H   0  0  0  0  0  0  0  0  0  0  0  0
    7.6732   -2.2813    1.6848 H   0  0  0  0  0  0  0  0  0  0  0  0
    6.9917   -0.0596    2.7129 H   0  0  0  0  0  0  0  0  0  0  0  0
    7.5561    1.0961   -0.3190 H   0  0  0  0  0  0  0  0  0  0  0  0
  1  3  1  0  0  0  0
  2 14  1  0  0  0  0
  2 13  1  0  0  0  0
  3 16  1  0  0  0  0
  3  4  1  0  0  0  0
  4 19  1  0  0  0  0
  4  5  1  0  0  0  0
  5 20  1  0  0  0  0
  5  6  1  0  0  0  0
  6 23  1  0  0  0  0
  7  6  1  0  0  0  0
  7 25  1  0  0  0  0
  7  8  1  0  0  0  0
  8  2  1  0  0  0  0
  8 26  1  1  0  0  0
  9  8  1  0  0  0  0
 10  1  1  0  0  0  0
 11  1  1  0  0  0  0
 12  1  1  0  0  0  0
 15  2  1  0  0  0  0
 17  3  1  0  0  0  0
 18  4  1  0  0  0  0
 21  5  1  0  0  0  0
 22  6  1  0  0  0  0
 24  7  1  0  0  0  0
 27  9  1  0  0  0  0
M  END
>  <HBA>
1

>  <HBD>
1

>  <TPSA>
38.8

>  <cid>
18145

>  <dipole>
1.68

>  <excitation_energy_1>
5.228

>  <excitation_energy_2>
5.727

>  <excitation_energy_3>
5.995

>  <excitation_energy_4>
6.244

>  <homo_energy>
-6.267

>  <homo_lumo_gap>
7.023

>  <logP>
3.275

>  <lumo_energy>
0.756

>  <melting_point>
-7.63

>  <molecular_refractivity>
48.5

>  <oscillator_strength_1>
0.0113

>  <oscillator_strength_2>
0.0329

>  <oscillator_strength_3>
0.0012

>  <oscillator_strength_4>
0.0073

>  <open_babel_can_smiles>
CCCCCC[C@H](S)C

>  <mulliken_charges>
27
1   -0.441497
2   -0.435055
3   -0.247074
4   -0.246894
5   -0.258242
6   -0.262206
7   -0.245116
8   -0.237648
9   -0.093699
10   0.141159
11   0.139915
12   0.139075
13   0.147544
14   0.166127
15   0.146087
16   0.129374
17   0.134103
18   0.124705
19   0.121575
20   0.122616
21   0.166448
22   0.129079
23   0.127695
24   0.138577
25   0.136301
26   0.167537
27   0.089513

>  <lowdin_charges>
27
1   -0.443302
2   -0.448264
3   -0.268707
4   -0.273504
5   -0.280321
6   -0.272135
7   -0.281604
8   -0.21014
9   -0.096312
10   0.149803
11   0.143314
12   0.144688
13   0.151666
14   0.16188
15   0.149673
16   0.137706
17   0.138595
18   0.134068
19   0.131909
20   0.137943
21   0.152462
22   0.139004
23   0.140983
24   0.143177
25   0.148609
26   0.158852
27   0.109957

$$$$

