PCCDB-ID:  69075
public computational chemistry database (PCCDB) project, http://pccdb.org

 29 29  0  0  0  0  0  0  0  0999 V2000
    3.2801   -1.8681   -0.5841 C   0  0  0  0  0  0  0  0  0  0  0  0
    1.4162    0.9320   -2.5240 C   0  0  0  0  0  0  0  0  0  0  0  0
    5.2696    2.0820    0.3055 C   0  0  0  0  0  0  0  0  0  0  0  0
    3.1941   -0.3480   -0.3757 C   0  0  0  0  0  0  0  0  0  0  0  0
    2.8326    0.3844   -2.7199 C   0  0  0  0  0  0  0  0  0  0  0  0
    7.8547    0.6131   -2.0858 C   0  0  0  0  0  0  0  0  0  0  0  0
    7.0564   -0.1154   -2.9651 C   0  0  0  0  0  0  0  0  0  0  0  0
    7.2547    1.2953   -1.0274 C   0  0  0  0  0  0  0  0  0  0  0  0
    5.6774   -0.1694   -2.7657 C   0  0  0  0  0  0  0  0  0  0  0  0
    5.8716    1.2689   -0.8153 C   0  0  0  0  0  0  0  0  0  0  0  0
    5.0653    0.5074   -1.6972 C   0  0  0  0  0  0  0  0  0  0  0  0
    3.6501    0.4789   -1.5062 N   0  0  0  0  0  0  0  0  0  0  0  0
    2.9669   -2.3898    0.3281 H   0  0  0  0  0  0  0  0  0  0  0  0
    4.3055   -2.1756   -0.8157 H   0  0  0  0  0  0  0  0  0  0  0  0
    2.6310   -2.2101   -1.3979 H   0  0  0  0  0  0  0  0  0  0  0  0
    0.8923    0.9561   -3.4863 H   0  0  0  0  0  0  0  0  0  0  0  0
    1.4504    1.9498   -2.1211 H   0  0  0  0  0  0  0  0  0  0  0  0
    0.8192    0.3152   -1.8439 H   0  0  0  0  0  0  0  0  0  0  0  0
    5.9061    2.9399    0.5463 H   0  0  0  0  0  0  0  0  0  0  0  0
    5.1522    1.5004    1.2304 H   0  0  0  0  0  0  0  0  0  0  0  0
    4.2761    2.4457    0.0255 H   0  0  0  0  0  0  0  0  0  0  0  0
    3.7904   -0.0751    0.4990 H   0  0  0  0  0  0  0  0  0  0  0  0
    2.1621   -0.0645   -0.1405 H   0  0  0  0  0  0  0  0  0  0  0  0
    3.3370    0.9800   -3.4872 H   0  0  0  0  0  0  0  0  0  0  0  0
    2.7675   -0.6447   -3.1164 H   0  0  0  0  0  0  0  0  0  0  0  0
    8.9308    0.6637   -2.2278 H   0  0  0  0  0  0  0  0  0  0  0  0
    7.5016   -0.6501   -3.8003 H   0  0  0  0  0  0  0  0  0  0  0  0
    7.8715    1.8891   -0.3557 H   0  0  0  0  0  0  0  0  0  0  0  0
    5.0649   -0.7531   -3.4461 H   0  0  0  0  0  0  0  0  0  0  0  0
  1  4  1  0  0  0  0
  1 13  1  0  0  0  0
  2 17  1  0  0  0  0
  2 18  1  0  0  0  0
  3 19  1  0  0  0  0
  3 20  1  0  0  0  0
  4 23  1  0  0  0  0
  4 22  1  0  0  0  0
  5  2  1  0  0  0  0
  5 12  1  0  0  0  0
  6  8  2  0  0  0  0
  7  9  2  0  0  0  0
  7  6  1  0  0  0  0
  8 10  1  0  0  0  0
  8 28  1  0  0  0  0
  9 11  1  0  0  0  0
 10  3  1  0  0  0  0
 11 12  1  0  0  0  0
 11 10  2  0  0  0  0
 12  4  1  0  0  0  0
 14  1  1  0  0  0  0
 15  1  1  0  0  0  0
 16  2  1  0  0  0  0
 21  3  1  0  0  0  0
 24  5  1  0  0  0  0
 25  5  1  0  0  0  0
 26  6  1  0  0  0  0
 27  7  1  0  0  0  0
 29  9  1  0  0  0  0
M  END
>  <HBA>
1

>  <HBD>
0

>  <TPSA>
3.24

>  <cid>
69075

>  <dipole>
0.89

>  <excitation_energy_1>
4.558

>  <excitation_energy_2>
4.773

>  <excitation_energy_3>
4.975

>  <excitation_energy_4>
5.215

>  <homo_energy>
-5.317

>  <homo_lumo_gap>
5.567

>  <logP>
2.841

>  <lumo_energy>
0.25

>  <melting_point>
16.17

>  <molecular_refractivity>
55.23

>  <oscillator_strength_1>
0.0212

>  <oscillator_strength_2>
0.113

>  <oscillator_strength_3>
0.0306

>  <oscillator_strength_4>
0.0019

>  <open_babel_can_smiles>
CCN(c1ccccc1C)CC

>  <mulliken_charges>
29
1   -0.455724
2   -0.453411
3   -0.534456
4   -0.141545
5   -0.11989
6   -0.123522
7   -0.14647
8   -0.198439
9   -0.166716
10   0.160597
11   0.221849
12   -0.467184
13   0.142391
14   0.159454
15   0.145472
16   0.143955
17   0.155689
18   0.147921
19   0.149784
20   0.155763
21   0.171448
22   0.149125
23   0.14246
24   0.151793
25   0.121525
26   0.121774
27   0.12338
28   0.117931
29   0.125044

>  <lowdin_charges>
29
1   -0.464579
2   -0.451166
3   -0.446193
4   -0.196179
5   -0.197498
6   -0.167411
7   -0.161187
8   -0.166357
9   -0.190086
10   -0.014981
11   0.035054
12   -0.159678
13   0.153171
14   0.155672
15   0.148429
16   0.153398
17   0.153906
18   0.149848
19   0.155797
20   0.154146
21   0.164768
22   0.151695
23   0.142686
24   0.154667
25   0.120747
26   0.152962
27   0.155459
28   0.153867
29   0.159043

$$$$

