PCCDB-ID:  12977
public computational chemistry database (PCCDB) project, http://pccdb.org

 19 18  0  0  0  0  0  0  0  0999 V2000
    4.0287   -2.0649   -0.9911 C   0  0  0  0  0  0  0  0  0  0  0  0
    8.3646   -2.9245    3.3055 C   0  0  0  0  0  0  0  0  0  0  0  0
    4.0097   -1.0042    0.0972 C   0  0  0  0  0  0  0  0  0  0  0  0
    7.5117   -2.1794    2.2933 C   0  0  0  0  0  0  0  0  0  0  0  0
    4.4983   -0.0876    3.4098 O   0  0  0  0  0  0  0  0  0  0  0  0
    4.7438   -1.4903    1.2327 O   0  0  0  0  0  0  0  0  0  0  0  0
    6.4674   -1.4933    3.0031 O   0  0  0  0  0  0  0  0  0  0  0  0
    5.5513   -0.3835    2.1824 P   0  0  0  0  0  0  0  0  0  0  0  0
    3.4415   -1.7345   -1.8556 H   0  0  0  0  0  0  0  0  0  0  0  0
    3.6015   -3.0023   -0.6207 H   0  0  0  0  0  0  0  0  0  0  0  0
    5.0538   -2.2618   -1.3221 H   0  0  0  0  0  0  0  0  0  0  0  0
    9.1739   -3.4609    2.7973 H   0  0  0  0  0  0  0  0  0  0  0  0
    7.7596   -3.6518    3.8565 H   0  0  0  0  0  0  0  0  0  0  0  0
    8.8063   -2.2281    4.0254 H   0  0  0  0  0  0  0  0  0  0  0  0
    2.9796   -0.7874    0.4085 H   0  0  0  0  0  0  0  0  0  0  0  0
    4.4497   -0.0647   -0.2675 H   0  0  0  0  0  0  0  0  0  0  0  0
    7.0622   -2.8713    1.5711 H   0  0  0  0  0  0  0  0  0  0  0  0
    8.1212   -1.4554    1.7324 H   0  0  0  0  0  0  0  0  0  0  0  0
    4.2829   -0.9078    3.8933 H   0  0  0  0  0  0  0  0  0  0  0  0
  1 10  1  0  0  0  0
  1  3  1  0  0  0  0
  2 13  1  0  0  0  0
  2 14  1  0  0  0  0
  3 15  1  0  0  0  0
  3  6  1  0  0  0  0
  4  7  1  0  0  0  0
  4  2  1  0  0  0  0
  5 19  1  0  0  0  0
  6  8  1  0  0  0  0
  8  7  1  0  0  0  0
  8  5  1  0  0  0  0
  9  1  1  0  0  0  0
 11  1  1  0  0  0  0
 12  2  1  0  0  0  0
 16  3  1  0  0  0  0
 17  4  1  0  0  0  0
 18  4  1  0  0  0  0
M  END
>  <HBA>
3

>  <HBD>
1

>  <TPSA>
52.28

>  <cid>
12977

>  <dipole>
2.04

>  <excitation_energy_1>
6.134

>  <excitation_energy_2>
6.479

>  <excitation_energy_3>
6.507

>  <excitation_energy_4>
6.919

>  <homo_energy>
-6.651

>  <homo_lumo_gap>
7.51

>  <logP>
1.279

>  <lumo_energy>
0.86

>  <melting_point>
-11.93

>  <molecular_refractivity>
32.65

>  <oscillator_strength_1>
0.1152

>  <oscillator_strength_2>
0.0647

>  <oscillator_strength_3>
0.0537

>  <oscillator_strength_4>
0.1199

>  <open_babel_can_smiles>
CCOP(OCC)O

>  <mulliken_charges>
19
1   -0.446565
2   -0.450368
3   -0.030384
4   -0.029258
5   -0.660623
6   -0.565371
7   -0.565543
8   0.841905
9   0.145316
10   0.160558
11   0.154399
12   0.144808
13   0.159622
14   0.161395
15   0.145635
16   0.140846
17   0.152015
18   0.136837
19   0.404776

>  <lowdin_charges>
19
1   -0.44956
2   -0.451315
3   -0.125029
4   -0.128725
5   -0.584903
6   -0.436389
7   -0.430427
8   0.744576
9   0.155722
10   0.158226
11   0.153939
12   0.156038
13   0.159001
14   0.159694
15   0.140026
16   0.141146
17   0.145871
18   0.139854
19   0.352255

$$$$

