PCCDB-ID:  997
public computational chemistry database (PCCDB) project, http://pccdb.org

 20 20  0  0  0  0  0  0  0  0999 V2000
   -1.8024    0.0726   -0.1677 C   0  0  0  0  0  0  0  0  0  0  0  0
   -1.0232    1.1655   -0.5542 C   0  0  0  0  0  0  0  0  0  0  0  0
   -1.1850   -1.0716    0.3395 C   0  0  0  0  0  0  0  0  0  0  0  0
    0.3651    1.1116   -0.4364 C   0  0  0  0  0  0  0  0  0  0  0  0
    0.2047   -1.1243    0.4589 C   0  0  0  0  0  0  0  0  0  0  0  0
    2.5109   -0.0756    0.1901 C   0  0  0  0  0  0  0  0  0  0  0  0
    0.9935   -0.0373    0.0646 C   0  0  0  0  0  0  0  0  0  0  0  0
    2.9710    0.8789    1.2819 C   0  0  0  0  0  0  0  0  0  0  0  0
    2.7355    0.4747    2.7603 C   0  0  0  0  0  0  0  0  0  0  0  0
    3.4691    1.9592    1.0640 O   0  0  0  0  0  0  0  0  0  0  0  0
    2.5451   -0.8601    2.8962 O   0  0  0  0  0  0  0  0  0  0  0  0
    2.7443    1.2516    3.6804 O   0  0  0  0  0  0  0  0  0  0  0  0
   -2.8842    0.1135   -0.2612 H   0  0  0  0  0  0  0  0  0  0  0  0
   -1.4962    2.0608   -0.9485 H   0  0  0  0  0  0  0  0  0  0  0  0
   -1.7845   -1.9261    0.6421 H   0  0  0  0  0  0  0  0  0  0  0  0
    0.9696    1.9653   -0.7333 H   0  0  0  0  0  0  0  0  0  0  0  0
    0.6822   -2.0143    0.8596 H   0  0  0  0  0  0  0  0  0  0  0  0
    2.9875    0.2520   -0.7388 H   0  0  0  0  0  0  0  0  0  0  0  0
    2.8435   -1.0918    0.4203 H   0  0  0  0  0  0  0  0  0  0  0  0
    2.4147   -1.0251    3.8501 H   0  0  0  0  0  0  0  0  0  0  0  0
  1  3  2  0  0  0  0
  2  4  2  0  0  0  0
  2  1  1  0  0  0  0
  3  5  1  0  0  0  0
  3 15  1  0  0  0  0
  4  7  1  0  0  0  0
  5 17  1  0  0  0  0
  6 19  1  0  0  0  0
  6  8  1  0  0  0  0
  7  6  1  0  0  0  0
  7  5  2  0  0  0  0
  8  9  1  0  0  0  0
  9 11  1  0  0  0  0
  9 12  2  0  0  0  0
 10  8  2  0  0  0  0
 11 20  1  0  0  0  0
 13  1  1  0  0  0  0
 14  2  1  0  0  0  0
 16  4  1  0  0  0  0
 18  6  1  0  0  0  0
M  END
>  <HBA>
3

>  <HBD>
1

>  <TPSA>
54.37

>  <cid>
997

>  <dipole>
3.78

>  <excitation_energy_1>
3.311

>  <excitation_energy_2>
4.038

>  <excitation_energy_3>
4.101

>  <excitation_energy_4>
4.631

>  <homo_energy>
-6.727

>  <homo_lumo_gap>
4.623

>  <logP>
0.883

>  <lumo_energy>
-2.103

>  <melting_point>
104.37

>  <molecular_refractivity>
42.99

>  <oscillator_strength_1>
0.0105

>  <oscillator_strength_2>
0.0045

>  <oscillator_strength_3>
0.0268

>  <oscillator_strength_4>
0.0002

>  <open_babel_can_smiles>
O=C(C(=O)O)Cc1ccccc1

>  <mulliken_charges>
20
1   -0.127341
2   -0.126637
3   -0.128416
4   -0.171467
5   -0.174519
6   -0.42271
7   0.13781
8   0.410517
9   0.524873
10   -0.399618
11   -0.566524
12   -0.419546
13   0.134457
14   0.137158
15   0.133548
16   0.147077
17   0.134008
18   0.181767
19   0.178713
20   0.416848

>  <lowdin_charges>
20
1   -0.151171
2   -0.150805
3   -0.154687
4   -0.160598
5   -0.163219
6   -0.299902
7   -0.007963
8   0.138717
9   0.168403
10   -0.174264
11   -0.351772
12   -0.214464
13   0.158169
14   0.161944
15   0.160483
16   0.166216
17   0.16044
18   0.175565
19   0.174117
20   0.364793

$$$$

