PCCDB-ID:  47798
public computational chemistry database (PCCDB) project, http://pccdb.org

 27 27  0  0  1  0  0  0  0  0999 V2000
    3.0109   -2.4362   -0.4234 C   0  0  0  0  0  0  0  0  0  0  0  0
    4.1128   -1.4026   -0.1694 C   0  0  0  0  0  0  0  0  0  0  0  0
    4.4055   -1.1840    1.3206 C   0  0  0  0  0  0  0  0  0  0  0  0
    5.5055   -0.1465    1.5829 C   0  0  0  0  0  0  0  0  0  0  0  0
    6.9682    1.0181    3.4642 C   0  0  0  0  0  0  0  0  0  0  0  0
    6.4789   -1.0625    3.8732 C   0  0  0  0  0  0  0  0  0  0  0  0
    5.7955    0.0781    3.0628 C   0  0  2  0  0  0  0  0  0  0  0  0
    7.3647    0.0216    4.5792 C   0  0  2  0  0  0  0  0  0  0  0  0
    6.8390    0.3985    5.9543 C   0  0  0  0  0  0  0  0  0  0  0  0
    6.2188    1.3982    6.2186 O   0  0  0  0  0  0  0  0  0  0  0  0
    7.0931   -0.5188    6.9327 O   0  0  0  0  0  0  0  0  0  0  0  0
    2.8266   -2.5695   -1.4955 H   0  0  0  0  0  0  0  0  0  0  0  0
    2.0657   -2.1301    0.0415 H   0  0  0  0  0  0  0  0  0  0  0  0
    3.2814   -3.4148   -0.0078 H   0  0  0  0  0  0  0  0  0  0  0  0
    3.8284   -0.4439   -0.6260 H   0  0  0  0  0  0  0  0  0  0  0  0
    5.0356   -1.7181   -0.6771 H   0  0  0  0  0  0  0  0  0  0  0  0
    4.6916   -2.1438    1.7762 H   0  0  0  0  0  0  0  0  0  0  0  0
    3.4823   -0.8698    1.8297 H   0  0  0  0  0  0  0  0  0  0  0  0
    5.2193    0.8125    1.1260 H   0  0  0  0  0  0  0  0  0  0  0  0
    6.4328   -0.4596    1.0784 H   0  0  0  0  0  0  0  0  0  0  0  0
    6.7126    2.0254    3.8001 H   0  0  0  0  0  0  0  0  0  0  0  0
    7.7353    1.0724    2.6841 H   0  0  0  0  0  0  0  0  0  0  0  0
    7.0862   -1.7122    3.2328 H   0  0  0  0  0  0  0  0  0  0  0  0
    5.8473   -1.6906    4.5108 H   0  0  0  0  0  0  0  0  0  0  0  0
    4.8803    0.3963    3.5774 H   0  0  0  0  0  0  0  0  0  0  0  0
    8.4318   -0.2229    4.6619 H   0  0  0  0  0  0  0  0  0  0  0  0
    7.5891   -1.2664    6.5594 H   0  0  0  0  0  0  0  0  0  0  0  0
  1  2  1  0  0  0  0
  1 14  1  0  0  0  0
  1 13  1  0  0  0  0
  2  3  1  0  0  0  0
  3  4  1  0  0  0  0
  3 17  1  0  0  0  0
  3 18  1  0  0  0  0
  4  7  1  0  0  0  0
  5 21  1  0  0  0  0
  5  8  1  0  0  0  0
  6 24  1  0  0  0  0
  6  8  1  0  0  0  0
  7  5  1  0  0  0  0
  7 25  1  1  0  0  0
  7  6  1  0  0  0  0
  8 26  1  6  0  0  0
  8  9  1  0  0  0  0
  9 10  2  0  0  0  0
  9 11  1  0  0  0  0
 12  1  1  0  0  0  0
 15  2  1  0  0  0  0
 16  2  1  0  0  0  0
 19  4  1  0  0  0  0
 20  4  1  0  0  0  0
 22  5  1  0  0  0  0
 23  6  1  0  0  0  0
 27 11  1  0  0  0  0
M  END
>  <HBA>
2

>  <HBD>
1

>  <TPSA>
37.3

>  <cid>
47798

>  <dipole>
4.2

>  <excitation_energy_1>
5.614

>  <excitation_energy_2>
6.394

>  <excitation_energy_3>
6.971

>  <excitation_energy_4>
7.144

>  <homo_energy>
-7.26

>  <homo_lumo_gap>
7.513

>  <logP>
2.287

>  <lumo_energy>
0.253

>  <melting_point>
71.18

>  <molecular_refractivity>
45.03

>  <oscillator_strength_1>
0.0019

>  <oscillator_strength_2>
0.0095

>  <oscillator_strength_3>
0.0071

>  <oscillator_strength_4>
0.0071

>  <open_babel_can_smiles>
CCCC[C@@H]1C[C@H](C1)C(=O)O

>  <mulliken_charges>
27
1   -0.442088
2   -0.246939
3   -0.251022
4   -0.26533
5   -0.275729
6   -0.293652
7   -0.075238
8   -0.250846
9   0.601401
10   -0.439596
11   -0.570582
12   0.143093
13   0.143262
14   0.140834
15   0.132592
16   0.129686
17   0.129161
18   0.131397
19   0.135701
20   0.121187
21   0.172906
22   0.134211
23   0.143436
24   0.150179
25   0.145799
26   0.147147
27   0.409029

>  <lowdin_charges>
27
1   -0.44243
2   -0.272105
3   -0.27573
4   -0.276156
5   -0.280241
6   -0.291856
7   -0.125096
8   -0.177042
9   0.192137
10   -0.238986
11   -0.360858
12   0.148462
13   0.147219
14   0.145633
15   0.13983
16   0.138819
17   0.137769
18   0.140084
19   0.144262
20   0.135319
21   0.162801
22   0.148612
23   0.150894
24   0.148547
25   0.151255
26   0.149872
27   0.358984

$$$$

