PCCDB-ID:  9362
public computational chemistry database (PCCDB) project, http://pccdb.org

 23 25  0  0  0  0  0  0  0  0999 V2000
   -3.5723   -0.7223    0.0004 C   0  0  0  0  0  0  0  0  0  0  0  0
    3.5831   -0.6971    0.0003 C   0  0  0  0  0  0  0  0  0  0  0  0
   -3.5925    0.7012    0.0006 C   0  0  0  0  0  0  0  0  0  0  0  0
    3.5933    0.7265    0.0006 C   0  0  0  0  0  0  0  0  0  0  0  0
   -2.3842   -1.4069    0.0003 C   0  0  0  0  0  0  0  0  0  0  0  0
    2.3998   -1.3900    0.0004 C   0  0  0  0  0  0  0  0  0  0  0  0
   -2.4205    1.4172    0.0013 C   0  0  0  0  0  0  0  0  0  0  0  0
    2.4163    1.4343    0.0012 C   0  0  0  0  0  0  0  0  0  0  0  0
   -1.1363   -0.7109    0.0005 C   0  0  0  0  0  0  0  0  0  0  0  0
    1.1471   -0.7028    0.0005 C   0  0  0  0  0  0  0  0  0  0  0  0
   -1.1887    0.7218    0.0009 C   0  0  0  0  0  0  0  0  0  0  0  0
    1.1894    0.7302    0.0010 C   0  0  0  0  0  0  0  0  0  0  0  0
    0.0079   -1.4154    0.0005 N   0  0  0  0  0  0  0  0  0  0  0  0
   -0.0022    1.4381    0.0018 N   0  3  0  0  0  0  0  0  0  0  0  0
   -0.0066    2.7067    0.0028 O   0  5  0  0  0  0  0  0  0  0  0  0
   -4.5118   -1.2678   -0.0001 H   0  0  0  0  0  0  0  0  0  0  0  0
    4.5264   -1.2359    0.0000 H   0  0  0  0  0  0  0  0  0  0  0  0
   -4.5446    1.2236    0.0008 H   0  0  0  0  0  0  0  0  0  0  0  0
    4.5417    1.2557    0.0006 H   0  0  0  0  0  0  0  0  0  0  0  0
   -2.3425   -2.4911   -0.0002 H   0  0  0  0  0  0  0  0  0  0  0  0
    2.3659   -2.4745   -0.0000 H   0  0  0  0  0  0  0  0  0  0  0  0
   -2.3971    2.4997    0.0016 H   0  0  0  0  0  0  0  0  0  0  0  0
    2.3853    2.5165    0.0015 H   0  0  0  0  0  0  0  0  0  0  0  0
  1  3  1  0  0  0  0
  2  6  2  0  0  0  0
  2  4  1  0  0  0  0
  3 18  1  0  0  0  0
  3  7  2  0  0  0  0
  4 19  1  0  0  0  0
  4  8  2  0  0  0  0
  5  1  2  0  0  0  0
  5  9  1  0  0  0  0
  6 10  1  0  0  0  0
  7 22  1  0  0  0  0
  8 23  1  0  0  0  0
  9 11  1  0  0  0  0
 10 12  2  0  0  0  0
 11  7  1  0  0  0  0
 11 14  2  0  0  0  0
 12  8  1  0  0  0  0
 12 14  1  0  0  0  0
 13  9  2  0  0  0  0
 13 10  1  0  0  0  0
 14 15  1  0  0  0  0
 16  1  1  0  0  0  0
 17  2  1  0  0  0  0
 20  5  1  0  0  0  0
 21  6  1  0  0  0  0
M  CHG  2  14   1  15  -1
M  END
>  <HBA>
2

>  <HBD>
0

>  <TPSA>
38.35

>  <cid>
9362

>  <dipole>
1.14

>  <excitation_energy_1>
2.94

>  <excitation_energy_2>
3.378

>  <excitation_energy_3>
3.712

>  <excitation_energy_4>
3.748

>  <homo_energy>
-5.728

>  <homo_lumo_gap>
3.121

>  <logP>
2.817

>  <lumo_energy>
-2.607

>  <melting_point>
124.0

>  <molecular_refractivity>
60.41

>  <oscillator_strength_1>
0.0823

>  <oscillator_strength_2>
0.0

>  <oscillator_strength_3>
0.0222

>  <oscillator_strength_4>
0.0005

>  <open_babel_can_smiles>
[O-][n+]1c2ccccc2nc2c1cccc2

>  <mulliken_charges>
23
1   -0.1259
2   -0.12587
3   -0.13933
4   -0.139342
5   -0.160844
6   -0.160858
7   -0.147851
8   -0.147859
9   0.26986
10   0.26983
11   0.298545
12   0.298578
13   -0.58651
14   -0.15796
15   -0.486506
16   0.143096
17   0.143087
18   0.14495
19   0.144955
20   0.153365
21   0.153367
22   0.179605
23   0.179595

>  <lowdin_charges>
23
1   -0.144934
2   -0.144885
3   -0.146881
4   -0.14693
5   -0.147414
6   -0.147412
7   -0.148083
8   -0.148098
9   0.040816
10   0.040807
11   -0.000197
12   -0.000159
13   -0.162404
14   0.219258
15   -0.341253
16   0.165544
17   0.165502
18   0.166011
19   0.166053
20   0.172514
21   0.172508
22   0.184816
23   0.18482

$$$$

