PCCDB-ID:  67522
public computational chemistry database (PCCDB) project, http://pccdb.org

 30 30  0  0  0  0  0  0  0  0999 V2000
   -2.2894   -0.8050    0.0783 C   0  0  0  0  0  0  0  0  0  0  0  0
   -0.4203   -2.3923    0.0753 C   0  0  0  0  0  0  0  0  0  0  0  0
    0.4343    2.4389    0.0834 C   0  0  0  0  0  0  0  0  0  0  0  0
    2.3330    0.8289    0.0785 C   0  0  0  0  0  0  0  0  0  0  0  0
   -2.6269    0.6390   -0.2799 C   0  0  0  0  0  0  0  0  0  0  0  0
    1.0594   -2.4880   -0.2836 C   0  0  0  0  0  0  0  0  0  0  0  0
   -1.0557    2.5153   -0.2608 C   0  0  0  0  0  0  0  0  0  0  0  0
    2.6496   -0.6278   -0.2707 C   0  0  0  0  0  0  0  0  0  0  0  0
   -0.9662   -1.1402   -0.4231 N   0  0  0  0  0  0  0  0  0  0  0  0
    1.0260    1.2139   -0.4382 N   0  0  0  0  0  0  0  0  0  0  0  0
   -1.7678    1.5165    0.4441 O   0  0  0  0  0  0  0  0  0  0  0  0
    1.7823   -1.4928    0.4371 O   0  0  0  0  0  0  0  0  0  0  0  0
   -3.0435   -1.4658   -0.3762 H   0  0  0  0  0  0  0  0  0  0  0  0
   -2.3844   -0.9219    1.1762 H   0  0  0  0  0  0  0  0  0  0  0  0
   -0.5205   -2.5071    1.1729 H   0  0  0  0  0  0  0  0  0  0  0  0
   -0.9492   -3.2430   -0.3811 H   0  0  0  0  0  0  0  0  0  0  0  0
    0.5305    2.4233    1.1751 H   0  0  0  0  0  0  0  0  0  0  0  0
    0.9313    3.3631   -0.2711 H   0  0  0  0  0  0  0  0  0  0  0  0
    3.1626    1.4711   -0.2765 H   0  0  0  0  0  0  0  0  0  0  0  0
    2.3047    0.9178    1.1706 H   0  0  0  0  0  0  0  0  0  0  0  0
   -3.6724    0.8612   -0.0200 H   0  0  0  0  0  0  0  0  0  0  0  0
   -2.5030    0.7836   -1.3621 H   0  0  0  0  0  0  0  0  0  0  0  0
    1.1803   -2.3441   -1.3663 H   0  0  0  0  0  0  0  0  0  0  0  0
    1.4521   -3.4815   -0.0216 H   0  0  0  0  0  0  0  0  0  0  0  0
   -1.1958    2.4054   -1.3476 H   0  0  0  0  0  0  0  0  0  0  0  0
   -1.4377    3.5100    0.0178 H   0  0  0  0  0  0  0  0  0  0  0  0
    3.6948   -0.8442    0.0009 H   0  0  0  0  0  0  0  0  0  0  0  0
    2.5572   -0.7812   -1.3573 H   0  0  0  0  0  0  0  0  0  0  0  0
   -0.3248   -0.3859   -0.1580 H   0  0  0  0  0  0  0  0  0  0  0  0
    1.0417    1.2357   -1.4566 H   0  0  0  0  0  0  0  0  0  0  0  0
  1 14  1  0  0  0  0
  2 15  1  0  0  0  0
  3 17  1  0  0  0  0
  4 20  1  0  0  0  0
  5 21  1  0  0  0  0
  5  1  1  0  0  0  0
  5 11  1  0  0  0  0
  6 24  1  0  0  0  0
  6  2  1  0  0  0  0
  6 12  1  0  0  0  0
  7 26  1  0  0  0  0
  7  3  1  0  0  0  0
  7 11  1  0  0  0  0
  8 27  1  0  0  0  0
  8  4  1  0  0  0  0
  8 12  1  0  0  0  0
  9 29  1  0  0  0  0
  9  2  1  0  0  0  0
  9  1  1  0  0  0  0
 10  4  1  0  0  0  0
 10  3  1  0  0  0  0
 13  1  1  0  0  0  0
 16  2  1  0  0  0  0
 18  3  1  0  0  0  0
 19  4  1  0  0  0  0
 22  5  1  0  0  0  0
 23  6  1  0  0  0  0
 25  7  1  0  0  0  0
 28  8  1  0  0  0  0
 30 10  1  0  0  0  0
M  END
>  <HBA>
4

>  <HBD>
2

>  <TPSA>
42.52

>  <cid>
67522

>  <dipole>
2.47

>  <excitation_energy_1>
5.243

>  <excitation_energy_2>
5.481

>  <excitation_energy_3>
5.529

>  <excitation_energy_4>
5.638

>  <homo_energy>
-5.377

>  <homo_lumo_gap>
7.576

>  <logP>
-0.13

>  <lumo_energy>
2.199

>  <melting_point>
31.15

>  <molecular_refractivity>
54.06

>  <oscillator_strength_1>
0.0186

>  <oscillator_strength_2>
0.0037

>  <oscillator_strength_3>
0.0092

>  <oscillator_strength_4>
0.0171

>  <open_babel_can_smiles>
C1CNCCOCCNCCO1

>  <mulliken_charges>
30
1   -0.105106
2   -0.104935
3   -0.120688
4   -0.12078
5   -0.036014
6   -0.035709
7   -0.018493
8   -0.018821
9   -0.618024
10   -0.560743
11   -0.473191
12   -0.473219
13   0.121648
14   0.116727
15   0.116586
16   0.12166
17   0.158272
18   0.109701
19   0.109872
20   0.158442
21   0.126354
22   0.129189
23   0.129132
24   0.126314
25   0.118854
26   0.128339
27   0.128344
28   0.118974
29   0.371795
30   0.295519

>  <lowdin_charges>
30
1   -0.206251
2   -0.205925
3   -0.210985
4   -0.211739
5   -0.126827
6   -0.127755
7   -0.128221
8   -0.127329
9   -0.393466
10   -0.3407
11   -0.275442
12   -0.275372
13   0.136435
14   0.119263
15   0.119177
16   0.136048
17   0.152458
18   0.120913
19   0.121666
20   0.152549
21   0.132907
22   0.132666
23   0.132641
24   0.133808
25   0.127502
26   0.134034
27   0.13307
28   0.127546
29   0.266492
30   0.250837

$$$$

