PCCDB-ID:  14131
public computational chemistry database (PCCDB) project, http://pccdb.org

 36 36  0  0  1  0  0  0  0  0999 V2000
    0.8347   -1.2007   -0.2047 C   0  0  0  0  0  0  0  0  0  0  0  0
    5.1154   -0.2749   -0.9989 C   0  0  0  0  0  0  0  0  0  0  0  0
    4.2688   -2.5265    1.0881 C   0  0  0  0  0  0  0  0  0  0  0  0
    2.7444   -2.4453    0.9356 C   0  0  0  0  0  0  0  0  0  0  0  0
    4.8704   -1.1448    1.3904 C   0  0  0  0  0  0  0  0  0  0  0  0
    4.7699    1.3560    0.8970 C   0  0  0  0  0  0  0  0  0  0  0  0
    6.2455    1.6330    1.1997 C   0  0  0  0  0  0  0  0  0  0  0  0
    2.3507   -1.3778   -0.1025 C   0  0  2  0  0  0  0  0  0  0  0  0
    7.6376    3.3828    2.2101 C   0  0  0  0  0  0  0  0  0  0  0  0
    4.4360   -0.0603    0.3679 C   0  0  1  0  0  0  0  0  0  0  0  0
    8.5898    2.5340    2.3558 N   0  0  0  0  0  0  0  0  0  0  0  0
    7.6779    4.7646    2.4771 N   0  0  0  0  0  0  0  0  0  0  0  0
    6.4000    2.9923    1.7144 N   0  0  0  0  0  0  0  0  0  0  0  0
    2.9643   -0.0653    0.1634 N   0  0  0  0  0  0  0  0  0  0  0  0
    0.3475   -2.1451   -0.4729 H   0  0  0  0  0  0  0  0  0  0  0  0
    0.5846   -0.4489   -0.9599 H   0  0  0  0  0  0  0  0  0  0  0  0
    0.4134   -0.8717    0.7550 H   0  0  0  0  0  0  0  0  0  0  0  0
    6.2058   -0.2520   -0.9059 H   0  0  0  0  0  0  0  0  0  0  0  0
    4.8050    0.5107   -1.6956 H   0  0  0  0  0  0  0  0  0  0  0  0
    4.8527   -1.2371   -1.4498 H   0  0  0  0  0  0  0  0  0  0  0  0
    4.7080   -2.9319    0.1662 H   0  0  0  0  0  0  0  0  0  0  0  0
    4.5368   -3.2287    1.8875 H   0  0  0  0  0  0  0  0  0  0  0  0
    2.2904   -2.1801    1.9038 H   0  0  0  0  0  0  0  0  0  0  0  0
    2.3313   -3.4225    0.6508 H   0  0  0  0  0  0  0  0  0  0  0  0
    5.9645   -1.2162    1.4325 H   0  0  0  0  0  0  0  0  0  0  0  0
    4.5394   -0.8275    2.3909 H   0  0  0  0  0  0  0  0  0  0  0  0
    4.3984    2.0784    0.1559 H   0  0  0  0  0  0  0  0  0  0  0  0
    4.1962    1.5331    1.8184 H   0  0  0  0  0  0  0  0  0  0  0  0
    6.8698    1.4799    0.3078 H   0  0  0  0  0  0  0  0  0  0  0  0
    6.6298    0.9564    1.9657 H   0  0  0  0  0  0  0  0  0  0  0  0
    2.7154   -1.7096   -1.0845 H   0  0  0  0  0  0  0  0  0  0  0  0
    9.3856    2.9606    2.8339 H   0  0  0  0  0  0  0  0  0  0  0  0
    8.4888    5.0444    3.0161 H   0  0  0  0  0  0  0  0  0  0  0  0
    6.8243    5.1225    2.8948 H   0  0  0  0  0  0  0  0  0  0  0  0
    5.9626    3.7023    1.1365 H   0  0  0  0  0  0  0  0  0  0  0  0
    2.5294    0.3109    1.0081 H   0  0  0  0  0  0  0  0  0  0  0  0
  1  8  1  0  0  0  0
  1 17  1  0  0  0  0
  2 18  1  0  0  0  0
  3  5  1  0  0  0  0
  3 22  1  0  0  0  0
  4  3  1  0  0  0  0
  4 23  1  0  0  0  0
  5 25  1  0  0  0  0
  5 26  1  0  0  0  0
  6  7  1  0  0  0  0
  6 28  1  0  0  0  0
  7 13  1  0  0  0  0
  7 30  1  0  0  0  0
  8 31  1  6  0  0  0
  8 14  1  0  0  0  0
  8  4  1  0  0  0  0
  9 11  1  0  0  0  0
  9 12  2  0  0  0  0
 10  2  1  6  0  0  0
 10  6  1  0  0  0  0
 10  5  1  0  0  0  0
 11 32  1  0  0  0  0
 12 34  1  0  0  0  0
 12 33  1  0  0  0  0
 13  9  1  0  0  0  0
 14 10  1  0  0  0  0
 14 36  1  0  0  0  0
 15  1  1  0  0  0  0
 16  1  1  0  0  0  0
 19  2  1  0  0  0  0
 20  2  1  0  0  0  0
 21  3  1  0  0  0  0
 24  4  1  0  0  0  0
 27  6  1  0  0  0  0
 29  7  1  0  0  0  0
 35 13  1  0  0  0  0
M  RAD  1  11   2
M  END
>  <HBA>
4

>  <HBD>
3

>  <TPSA>
76.43

>  <cid>
14131

>  <dipole>
2.36

>  <excitation_energy_1>
5.231

>  <excitation_energy_2>
5.245

>  <excitation_energy_3>
5.398

>  <excitation_energy_4>
5.575

>  <homo_energy>
-5.693

>  <homo_lumo_gap>
7.306

>  <logP>
2.3

>  <lumo_energy>
1.614

>  <melting_point>
157.92

>  <molecular_refractivity>
63.92

>  <oscillator_strength_1>
0.0018

>  <oscillator_strength_2>
0.0091

>  <oscillator_strength_3>
0.0093

>  <oscillator_strength_4>
0.005

>  <open_babel_can_smiles>
C[C@]1(CCNC(=[NH2])[NH])CCC[C@H](N1)C

>  <mulliken_charges>
36
1   -0.449826
2   -0.456831
3   -0.272754
4   -0.251786
5   -0.268957
6   -0.296744
7   -0.107969
8   0.039197
9   0.587739
10   0.215236
11   -0.646544
12   -0.75671
13   -0.612251
14   -0.567254
15   0.141427
16   0.155917
17   0.13181
18   0.146615
19   0.149976
20   0.143705
21   0.132182
22   0.132952
23   0.116705
24   0.125797
25   0.138775
26   0.120375
27   0.134358
28   0.129188
29   0.146769
30   0.17898
31   0.128573
32   0.262006
33   0.317043
34   0.320272
35   0.31401
36   0.278019

>  <lowdin_charges>
36
1   -0.447074
2   -0.449686
3   -0.281313
4   -0.29199
5   -0.289115
6   -0.285476
7   -0.195268
8   -0.065763
9   0.124846
10   0.063192
11   -0.480697
12   -0.517687
13   -0.312689
14   -0.362342
15   0.150862
16   0.15771
17   0.142249
18   0.149083
19   0.155896
20   0.148322
21   0.139787
22   0.145975
23   0.1331
24   0.142484
25   0.145498
26   0.136306
27   0.144332
28   0.140741
29   0.140354
30   0.166645
31   0.136446
32   0.246219
33   0.274861
34   0.276977
35   0.272647
36   0.244566

$$$$

