PCCDB-ID:  23732
public computational chemistry database (PCCDB) project, http://pccdb.org

 21 20  0  0  0  0  0  0  0  0999 V2000
    0.6701   -1.9927    1.3785 C   0  0  0  0  0  0  0  0  0  0  0  0
    6.8289    0.7718    1.6562 C   0  0  0  0  0  0  0  0  0  0  0  0
    2.1935   -2.1497    1.3969 C   0  0  0  0  0  0  0  0  0  0  0  0
    2.9019   -1.0892    0.5532 C   0  0  0  0  0  0  0  0  0  0  0  0
    5.1736   -0.0622   -0.1469 C   0  0  0  0  0  0  0  0  0  0  0  0
    5.5209    0.9819    0.9265 C   0  0  0  0  0  0  0  0  0  0  0  0
    4.4141   -1.2067    0.5446 C   0  0  0  0  0  0  0  0  0  0  0  0
    4.7476    1.8824    1.1876 O   0  0  0  0  0  0  0  0  0  0  0  0
    5.0196   -2.1097    1.0900 O   0  0  0  0  0  0  0  0  0  0  0  0
    0.1877   -2.7641    1.9888 H   0  0  0  0  0  0  0  0  0  0  0  0
    0.2711   -2.0772    0.3600 H   0  0  0  0  0  0  0  0  0  0  0  0
    0.3639   -1.0162    1.7734 H   0  0  0  0  0  0  0  0  0  0  0  0
    6.9001   -0.2683    1.9965 H   0  0  0  0  0  0  0  0  0  0  0  0
    6.9055    1.4590    2.5010 H   0  0  0  0  0  0  0  0  0  0  0  0
    7.6690    0.9407    0.9701 H   0  0  0  0  0  0  0  0  0  0  0  0
    2.4757   -3.1441    1.0317 H   0  0  0  0  0  0  0  0  0  0  0  0
    2.5653   -2.0934    2.4270 H   0  0  0  0  0  0  0  0  0  0  0  0
    2.6572   -0.0704    0.8919 H   0  0  0  0  0  0  0  0  0  0  0  0
    2.5607   -1.1270   -0.4937 H   0  0  0  0  0  0  0  0  0  0  0  0
    6.0802   -0.4770   -0.5959 H   0  0  0  0  0  0  0  0  0  0  0  0
    4.5518    0.4197   -0.9055 H   0  0  0  0  0  0  0  0  0  0  0  0
  1  3  1  0  0  0  0
  1 12  1  0  0  0  0
  1 10  1  0  0  0  0
  2 13  1  0  0  0  0
  2 14  1  0  0  0  0
  3 17  1  0  0  0  0
  4 18  1  0  0  0  0
  4  3  1  0  0  0  0
  5  7  1  0  0  0  0
  5  6  1  0  0  0  0
  6  8  2  0  0  0  0
  6  2  1  0  0  0  0
  7  4  1  0  0  0  0
  7  9  2  0  0  0  0
 11  1  1  0  0  0  0
 15  2  1  0  0  0  0
 16  3  1  0  0  0  0
 19  4  1  0  0  0  0
 20  5  1  0  0  0  0
 21  5  1  0  0  0  0
M  END
>  <HBA>
2

>  <HBD>
0

>  <TPSA>
34.14

>  <cid>
23732

>  <dipole>
1.45

>  <excitation_energy_1>
4.133

>  <excitation_energy_2>
4.343

>  <excitation_energy_3>
5.511

>  <excitation_energy_4>
6.019

>  <homo_energy>
-6.781

>  <homo_lumo_gap>
5.614

>  <logP>
1.335

>  <lumo_energy>
-1.167

>  <melting_point>
15.55

>  <molecular_refractivity>
36.16

>  <oscillator_strength_1>
0.0125

>  <oscillator_strength_2>
0.0003

>  <oscillator_strength_3>
0.0003

>  <oscillator_strength_4>
0.0558

>  <open_babel_can_smiles>
CCCC(=O)CC(=O)C

>  <mulliken_charges>
21
1   -0.447526
2   -0.53123
3   -0.243712
4   -0.35573
5   -0.415533
6   0.441789
7   0.44032
8   -0.42704
9   -0.438403
10   0.148601
11   0.141224
12   0.145776
13   0.195222
14   0.180248
15   0.173698
16   0.151728
17   0.150599
18   0.182474
19   0.161172
20   0.17318
21   0.173145

>  <lowdin_charges>
21
1   -0.444842
2   -0.474705
3   -0.267497
4   -0.307506
5   -0.341297
6   0.172027
7   0.169387
8   -0.232698
9   -0.235535
10   0.154278
11   0.145481
12   0.148217
13   0.181908
14   0.173781
15   0.174798
16   0.151188
17   0.150298
18   0.171776
19   0.162106
20   0.174363
21   0.174472

$$$$

