PCCDB-ID:  69181
public computational chemistry database (PCCDB) project, http://pccdb.org

 24 24  0  0  0  0  0  0  0  0999 V2000
    1.1977    0.2734    0.5371 C   0  0  0  0  0  0  0  0  0  0  0  0
    5.9671    3.2394    2.7051 C   0  0  0  0  0  0  0  0  0  0  0  0
    6.4178    1.7924   -3.3378 C   0  0  0  0  0  0  0  0  0  0  0  0
    6.3112    1.0184   -2.1372 C   0  0  0  0  0  0  0  0  0  0  0  0
    5.4345    2.7317   -3.2661 C   0  0  0  0  0  0  0  0  0  0  0  0
    2.6853    0.3342    0.7735 C   0  0  0  0  0  0  0  0  0  0  0  0
    5.9689    2.1346    1.6784 C   0  0  0  0  0  0  0  0  0  0  0  0
    5.2699    1.5464   -1.4330 C   0  0  0  0  0  0  0  0  0  0  0  0
    4.7028    1.1987   -0.1073 C   0  0  0  0  0  0  0  0  0  0  0  0
    3.2816   -0.1538    1.7031 O   0  0  0  0  0  0  0  0  0  0  0  0
    6.7963    1.2587    1.5790 O   0  0  0  0  0  0  0  0  0  0  0  0
    4.7250    2.6002   -2.1121 O   0  0  0  0  0  0  0  0  0  0  0  0
    3.2960    1.0357   -0.2312 O   0  0  0  0  0  0  0  0  0  0  0  0
    4.8909    2.2562    0.8511 O   0  0  0  0  0  0  0  0  0  0  0  0
    0.7779    1.2846    0.5640 H   0  0  0  0  0  0  0  0  0  0  0  0
    0.7325   -0.3414    1.3081 H   0  0  0  0  0  0  0  0  0  0  0  0
    0.9881   -0.1402   -0.4544 H   0  0  0  0  0  0  0  0  0  0  0  0
    6.8759    3.1786    3.3046 H   0  0  0  0  0  0  0  0  0  0  0  0
    5.0890    3.1398    3.3520 H   0  0  0  0  0  0  0  0  0  0  0  0
    5.9036    4.2148    2.2126 H   0  0  0  0  0  0  0  0  0  0  0  0
    7.1316    1.6647   -4.1394 H   0  0  0  0  0  0  0  0  0  0  0  0
    6.9298    0.1863   -1.8315 H   0  0  0  0  0  0  0  0  0  0  0  0
    5.1153    3.5275   -3.9220 H   0  0  0  0  0  0  0  0  0  0  0  0
    5.1684    0.2929    0.2806 H   0  0  0  0  0  0  0  0  0  0  0  0
  1 15  1  0  0  0  0
  1  6  1  0  0  0  0
  1 16  1  0  0  0  0
  2 18  1  0  0  0  0
  2 19  1  0  0  0  0
  3  5  2  0  0  0  0
  3  4  1  0  0  0  0
  4 22  1  0  0  0  0
  4  8  2  0  0  0  0
  5 12  1  0  0  0  0
  6 10  2  0  0  0  0
  7  2  1  0  0  0  0
  8  9  1  0  0  0  0
  9 24  1  0  0  0  0
  9 14  1  0  0  0  0
 11  7  2  0  0  0  0
 12  8  1  0  0  0  0
 13  9  1  0  0  0  0
 13  6  1  0  0  0  0
 14  7  1  0  0  0  0
 17  1  1  0  0  0  0
 20  2  1  0  0  0  0
 21  3  1  0  0  0  0
 23  5  1  0  0  0  0
M  END
>  <HBA>
5

>  <HBD>
0

>  <TPSA>
65.74

>  <cid>
69181

>  <dipole>
2.77

>  <excitation_energy_1>
5.51

>  <excitation_energy_2>
5.694

>  <excitation_energy_3>
5.79

>  <excitation_energy_4>
5.911

>  <homo_energy>
-6.376

>  <homo_lumo_gap>
6.155

>  <logP>
1.404

>  <lumo_energy>
-0.22

>  <melting_point>
28.61

>  <molecular_refractivity>
45.47

>  <oscillator_strength_1>
0.1169

>  <oscillator_strength_2>
0.0095

>  <oscillator_strength_3>
0.0441

>  <oscillator_strength_4>
0.039

>  <open_babel_can_smiles>
CC(=O)OC(c1ccco1)OC(=O)C

>  <mulliken_charges>
24
1   -0.527088
2   -0.527559
3   -0.19004
4   -0.184856
5   0.094372
6   0.614024
7   0.618366
8   0.310451
9   0.282235
10   -0.452657
11   -0.458622
12   -0.430377
13   -0.470142
14   -0.466682
15   0.19044
16   0.185869
17   0.187275
18   0.184457
19   0.190049
20   0.184121
21   0.147696
22   0.159519
23   0.159735
24   0.199412

>  <lowdin_charges>
24
1   -0.463235
2   -0.463787
3   -0.204832
4   -0.191824
5   -0.070533
6   0.210925
7   0.213077
8   0.0393
9   0.107505
10   -0.246881
11   -0.253877
12   -0.084078
13   -0.183431
14   -0.19494
15   0.182383
16   0.179011
17   0.180606
18   0.177311
19   0.182874
20   0.178817
21   0.173037
22   0.178919
23   0.174344
24   0.179307

$$$$

