PCCDB-ID:  30771
public computational chemistry database (PCCDB) project, http://pccdb.org

 30 30  0  0  0  0  0  0  0  0999 V2000
    2.0730   -0.3636    5.9778 C   0  0  0  0  0  0  0  0  0  0  0  0
    9.5576    0.1224    6.3200 C   0  0  0  0  0  0  0  0  0  0  0  0
    8.6784   -1.0456    5.8450 C   0  0  0  0  0  0  0  0  0  0  0  0
    8.9051    1.4807    6.0165 C   0  0  0  0  0  0  0  0  0  0  0  0
    8.3186   -0.9006    4.3569 C   0  0  0  0  0  0  0  0  0  0  0  0
    8.5293    1.6059    4.5298 C   0  0  0  0  0  0  0  0  0  0  0  0
    6.1988    0.5722    4.5948 C   0  0  0  0  0  0  0  0  0  0  0  0
    5.2248   -0.4544    4.0229 C   0  0  0  0  0  0  0  0  0  0  0  0
    3.5137   -0.6969    5.6636 C   0  0  0  0  0  0  0  0  0  0  0  0
    7.6324    0.4481    4.0343 C   0  0  0  0  0  0  0  0  0  0  0  0
    4.2530   -1.3430    6.3750 O   0  0  0  0  0  0  0  0  0  0  0  0
    3.8697   -0.1895    4.4605 O   0  0  0  0  0  0  0  0  0  0  0  0
    1.4105   -0.9129    5.2996 H   0  0  0  0  0  0  0  0  0  0  0  0
    1.8839    0.7032    5.8265 H   0  0  0  0  0  0  0  0  0  0  0  0
    1.8515   -0.6452    7.0079 H   0  0  0  0  0  0  0  0  0  0  0  0
   10.5302    0.0695    5.8077 H   0  0  0  0  0  0  0  0  0  0  0  0
    9.7655    0.0319    7.3938 H   0  0  0  0  0  0  0  0  0  0  0  0
    7.7614   -1.0886    6.4488 H   0  0  0  0  0  0  0  0  0  0  0  0
    9.1965   -1.9992    6.0084 H   0  0  0  0  0  0  0  0  0  0  0  0
    9.5831    2.2976    6.2954 H   0  0  0  0  0  0  0  0  0  0  0  0
    8.0088    1.6007    6.6409 H   0  0  0  0  0  0  0  0  0  0  0  0
    7.6972   -1.7446    4.0330 H   0  0  0  0  0  0  0  0  0  0  0  0
    9.2430   -0.9601    3.7638 H   0  0  0  0  0  0  0  0  0  0  0  0
    9.4530    1.6081    3.9330 H   0  0  0  0  0  0  0  0  0  0  0  0
    8.0364    2.5692    4.3422 H   0  0  0  0  0  0  0  0  0  0  0  0
    6.1943    0.4783    5.6855 H   0  0  0  0  0  0  0  0  0  0  0  0
    5.8135    1.5735    4.3600 H   0  0  0  0  0  0  0  0  0  0  0  0
    5.4902   -1.4724    4.3152 H   0  0  0  0  0  0  0  0  0  0  0  0
    5.1762   -0.3911    2.9319 H   0  0  0  0  0  0  0  0  0  0  0  0
    7.5575    0.5325    2.9391 H   0  0  0  0  0  0  0  0  0  0  0  0
  1 15  1  0  0  0  0
  2 17  1  0  0  0  0
  3 19  1  0  0  0  0
  3  2  1  0  0  0  0
  3 18  1  0  0  0  0
  4 20  1  0  0  0  0
  4  2  1  0  0  0  0
  4 21  1  0  0  0  0
  5  3  1  0  0  0  0
  6  4  1  0  0  0  0
  7 26  1  0  0  0  0
  8 28  1  0  0  0  0
  8 12  1  0  0  0  0
  8  7  1  0  0  0  0
  9  1  1  0  0  0  0
  9 11  2  0  0  0  0
 10  5  1  0  0  0  0
 10  6  1  0  0  0  0
 10  7  1  0  0  0  0
 12  9  1  0  0  0  0
 13  1  1  0  0  0  0
 14  1  1  0  0  0  0
 16  2  1  0  0  0  0
 22  5  1  0  0  0  0
 23  5  1  0  0  0  0
 24  6  1  0  0  0  0
 25  6  1  0  0  0  0
 27  7  1  0  0  0  0
 29  8  1  0  0  0  0
 30 10  1  0  0  0  0
M  END
>  <HBA>
2

>  <HBD>
0

>  <TPSA>
26.3

>  <cid>
30771

>  <dipole>
1.58

>  <excitation_energy_1>
5.809

>  <excitation_energy_2>
6.977

>  <excitation_energy_3>
7.206

>  <excitation_energy_4>
7.278

>  <homo_energy>
-7.274

>  <homo_lumo_gap>
7.706

>  <logP>
2.52

>  <lumo_energy>
0.433

>  <melting_point>
5.8

>  <molecular_refractivity>
49.35

>  <oscillator_strength_1>
0.0011

>  <oscillator_strength_2>
0.0296

>  <oscillator_strength_3>
0.0336

>  <oscillator_strength_4>
0.0062

>  <open_babel_can_smiles>
CC(=O)OCCC1CCCCC1

>  <mulliken_charges>
30
1   -0.52303
2   -0.254875
3   -0.266564
4   -0.262149
5   -0.269768
6   -0.263472
7   -0.287095
8   -0.04872
9   0.601264
10   -0.084483
11   -0.471757
12   -0.456816
13   0.182666
14   0.1791
15   0.181408
16   0.124855
17   0.130664
18   0.150194
19   0.130656
20   0.129922
21   0.134658
22   0.131342
23   0.127066
24   0.126919
25   0.126665
26   0.163435
27   0.1382
28   0.169071
29   0.146525
30   0.114119

>  <lowdin_charges>
30
1   -0.464366
2   -0.275299
3   -0.281816
4   -0.281719
5   -0.2833
6   -0.27794
7   -0.291038
8   -0.129283
9   0.202745
10   -0.126196
11   -0.271798
12   -0.199412
13   0.179934
14   0.174259
15   0.174147
16   0.135338
17   0.141805
18   0.147017
19   0.144285
20   0.144386
21   0.13996
22   0.142295
23   0.139785
24   0.139502
25   0.140773
26   0.15281
27   0.146392
28   0.156073
29   0.147341
30   0.133319

$$$$

