PCCDB-ID:  8827
public computational chemistry database (PCCDB) project, http://pccdb.org

 16 15  0  0  0  0  0  0  0  0999 V2000
    2.1427    0.4091    0.1558 C   0  0  0  0  0  0  0  0  0  0  0  0
   -1.3732   -1.5226    1.6148 C   0  0  0  0  0  0  0  0  0  0  0  0
   -0.0905    0.4317    0.8339 C   0  0  0  0  0  0  0  0  0  0  0  0
    0.8806    1.0903    0.3132 N   0  0  0  0  0  0  0  0  0  0  0  0
   -0.1309   -0.8862    1.2069 N   0  0  0  0  0  0  0  0  0  0  0  0
    2.0717   -0.8362   -0.5629 O   0  0  0  0  0  0  0  0  0  0  0  0
   -2.3440   -1.6305    0.5943 O   0  0  0  0  0  0  0  0  0  0  0  0
   -1.2644    1.0791    1.0818 O   0  0  0  0  0  0  0  0  0  0  0  0
    2.5791    0.1319    1.1250 H   0  0  0  0  0  0  0  0  0  0  0  0
    2.8345    1.0895   -0.3546 H   0  0  0  0  0  0  0  0  0  0  0  0
   -1.7648   -0.9785    2.4808 H   0  0  0  0  0  0  0  0  0  0  0  0
   -1.1290   -2.5427    1.9170 H   0  0  0  0  0  0  0  0  0  0  0  0
    0.5405   -1.4466    0.6888 H   0  0  0  0  0  0  0  0  0  0  0  0
    1.7028   -0.6298   -1.4378 H   0  0  0  0  0  0  0  0  0  0  0  0
   -2.6680   -0.7293    0.4313 H   0  0  0  0  0  0  0  0  0  0  0  0
   -1.0854    2.0084    0.8496 H   0  0  0  0  0  0  0  0  0  0  0  0
  1  4  1  0  0  0  0
  1  9  1  0  0  0  0
  2 12  1  0  0  0  0
  2 11  1  0  0  0  0
  3  8  1  0  0  0  0
  3  5  1  0  0  0  0
  4  3  2  0  0  0  0
  5  2  1  0  0  0  0
  6  1  1  0  0  0  0
  7  2  1  0  0  0  0
 10  1  1  0  0  0  0
 13  5  1  0  0  0  0
 14  6  1  0  0  0  0
 15  7  1  0  0  0  0
 16  8  1  0  0  0  0
M  END
>  <HBA>
5

>  <HBD>
4

>  <TPSA>
81.59

>  <cid>
8827

>  <dipole>
1.09

>  <excitation_energy_1>
5.661

>  <excitation_energy_2>
6.114

>  <excitation_energy_3>
6.18

>  <excitation_energy_4>
6.59

>  <homo_energy>
-6.422

>  <homo_lumo_gap>
7.192

>  <logP>
-1.033

>  <lumo_energy>
0.77

>  <melting_point>
98.75

>  <molecular_refractivity>
25.05

>  <oscillator_strength_1>
0.0703

>  <oscillator_strength_2>
0.0153

>  <oscillator_strength_3>
0.0433

>  <oscillator_strength_4>
0.061

>  <open_babel_can_smiles>
OCN/C(=N\CO)/O

>  <mulliken_charges>
16
1   0.039548
2   0.070732
3   0.690517
4   -0.523103
5   -0.61524
6   -0.620677
7   -0.608959
8   -0.625186
9   0.151899
10   0.14425
11   0.156297
12   0.159767
13   0.363443
14   0.393798
15   0.402245
16   0.420669

>  <lowdin_charges>
16
1   -0.083541
2   -0.079792
3   0.172475
4   -0.321194
5   -0.30453
6   -0.47717
7   -0.464525
8   -0.379305
9   0.140694
10   0.141501
11   0.14502
12   0.156467
13   0.298032
14   0.344455
15   0.344264
16   0.367149

$$$$

