PCCDB-ID:  65260
public computational chemistry database (PCCDB) project, http://pccdb.org

 19 20  0  0  0  0  0  0  0  0999 V2000
    2.3160   -0.7689   -0.0858 C   0  0  0  0  0  0  0  0  0  0  0  0
    2.4311    0.7222    0.1890 C   0  0  0  0  0  0  0  0  0  0  0  0
    0.0223   -0.6723    0.0199 C   0  0  0  0  0  0  0  0  0  0  0  0
    0.0055    0.7103   -0.0493 C   0  0  0  0  0  0  0  0  0  0  0  0
   -1.2539   -1.3293    0.0329 C   0  0  0  0  0  0  0  0  0  0  0  0
   -2.4587    0.6453    0.0223 C   0  0  0  0  0  0  0  0  0  0  0  0
   -3.5722    1.2799    0.0599 N   0  0  0  0  0  0  0  0  0  0  0  0
    1.1993   -1.3986   -0.1145 N   0  0  0  0  0  0  0  0  0  0  0  0
    1.1785    1.3900   -0.1879 N   0  0  0  0  0  0  0  0  0  0  0  0
   -1.1901    1.3475   -0.0534 N   0  0  0  0  0  0  0  0  0  0  0  0
   -2.4056   -0.7272    0.0500 N   0  0  0  0  0  0  0  0  0  0  0  0
   -1.2440   -2.6728    0.0295 O   0  0  0  0  0  0  0  0  0  0  0  0
    3.2400   -1.3307   -0.2141 H   0  0  0  0  0  0  0  0  0  0  0  0
    3.2511    1.1577   -0.3924 H   0  0  0  0  0  0  0  0  0  0  0  0
    2.6679    0.8864    1.2573 H   0  0  0  0  0  0  0  0  0  0  0  0
   -3.4292    2.2925    0.0294 H   0  0  0  0  0  0  0  0  0  0  0  0
    1.1618    2.3998   -0.1380 H   0  0  0  0  0  0  0  0  0  0  0  0
   -1.2234    2.3578   -0.1128 H   0  0  0  0  0  0  0  0  0  0  0  0
   -0.3039   -2.9397   -0.0220 H   0  0  0  0  0  0  0  0  0  0  0  0
  1  2  1  0  0  0  0
  2 15  1  0  0  0  0
  3  5  1  0  0  0  0
  4  3  2  0  0  0  0
  5 11  2  0  0  0  0
  6 11  2  0  0  0  0
  6  7  1  0  0  0  0
  8  1  2  0  0  0  0
  8  3  1  0  0  0  0
  9 17  1  0  0  0  0
  9  4  1  0  0  0  0
  9  2  1  0  0  0  0
 10  4  1  0  0  0  0
 10  6  1  0  0  0  0
 12  5  1  0  0  0  0
 13  1  1  0  0  0  0
 14  2  1  0  0  0  0
 16  7  1  0  0  0  0
 18 10  1  0  0  0  0
 19 12  1  0  0  0  0
M  RAD  1   7   2
M  END
>  <HBA>
5

>  <HBD>
3

>  <TPSA>
96.16

>  <cid>
65260

>  <dipole>
10.04

>  <excitation_energy_1>
3.475

>  <excitation_energy_2>
3.873

>  <excitation_energy_3>
4.389

>  <excitation_energy_4>
4.68

>  <homo_energy>
-5.284

>  <homo_lumo_gap>
4.084

>  <logP>
-0.365

>  <lumo_energy>
-1.2

>  <melting_point>
235.07

>  <molecular_refractivity>
51.92

>  <oscillator_strength_1>
0.099

>  <oscillator_strength_2>
0.0061

>  <oscillator_strength_3>
0.2486

>  <oscillator_strength_4>
0.0061

>  <open_babel_can_smiles>
[NH]C1=[N]=C(C2=C(N1)NCC=N2)O

>  <mulliken_charges>
19
1   0.030256
2   -0.166227
3   0.137106
4   0.652576
5   0.520169
6   0.609107
7   -0.618861
8   -0.468231
9   -0.659041
10   -0.744103
11   -0.514313
12   -0.597235
13   0.152568
14   0.171423
15   0.166911
16   0.252084
17   0.330188
18   0.319389
19   0.426237

>  <lowdin_charges>
19
1   -0.113809
2   -0.201497
3   -0.13618
4   0.132624
5   0.153982
6   0.130524
7   -0.424001
8   -0.132791
9   -0.265423
10   -0.243572
11   -0.201554
12   -0.334295
13   0.163025
14   0.16501
15   0.14514
16   0.235159
17   0.284244
18   0.282791
19   0.360625

$$$$

