PCCDB-ID:  56240
public computational chemistry database (PCCDB) project, http://pccdb.org

 30 32  0  0  0  0  0  0  0  0999 V2000
    3.2384    1.8897   -0.3582 C   0  0  0  0  0  0  0  0  0  0  0  0
    4.2491   -8.4578   -4.9830 C   0  0  0  0  0  0  0  0  0  0  0  0
    4.9089   -7.3971   -5.6101 C   0  0  0  0  0  0  0  0  0  0  0  0
    3.5043   -8.2215   -3.8265 C   0  0  0  0  0  0  0  0  0  0  0  0
    4.8249   -6.1105   -5.0881 C   0  0  0  0  0  0  0  0  0  0  0  0
    3.4176   -6.9339   -3.3003 C   0  0  0  0  0  0  0  0  0  0  0  0
    4.2224   -0.1331   -2.3377 C   0  0  0  0  0  0  0  0  0  0  0  0
    4.7037   -1.0334   -3.2783 C   0  0  0  0  0  0  0  0  0  0  0  0
    2.9697   -1.8764   -1.1637 C   0  0  0  0  0  0  0  0  0  0  0  0
    2.8394    0.4247   -0.2652 C   0  0  0  0  0  0  0  0  0  0  0  0
    4.0760   -5.8626   -3.9249 C   0  0  0  0  0  0  0  0  0  0  0  0
    3.3627   -0.5362   -1.2850 C   0  0  0  0  0  0  0  0  0  0  0  0
    4.3164   -2.3765   -3.1666 C   0  0  0  0  0  0  0  0  0  0  0  0
    3.4552   -2.7691   -2.1081 C   0  0  0  0  0  0  0  0  0  0  0  0
    4.0133   -4.4909   -3.4102 C   0  0  0  0  0  0  0  0  0  0  0  0
    4.6415   -3.4615   -3.9511 N   0  0  0  0  0  0  0  0  0  0  0  0
    3.2840   -4.1292   -2.2938 N   0  0  0  0  0  0  0  0  0  0  0  0
    2.1000    0.0442    0.6328 O   0  0  0  0  0  0  0  0  0  0  0  0
    4.3267    2.0084   -0.2963 H   0  0  0  0  0  0  0  0  0  0  0  0
    2.7688    2.4307    0.4651 H   0  0  0  0  0  0  0  0  0  0  0  0
    2.9154    2.3272   -1.3103 H   0  0  0  0  0  0  0  0  0  0  0  0
    4.3155   -9.4619   -5.3926 H   0  0  0  0  0  0  0  0  0  0  0  0
    5.4916   -7.5747   -6.5098 H   0  0  0  0  0  0  0  0  0  0  0  0
    2.9898   -9.0399   -3.3307 H   0  0  0  0  0  0  0  0  0  0  0  0
    5.3312   -5.2771   -5.5628 H   0  0  0  0  0  0  0  0  0  0  0  0
    2.8356   -6.7787   -2.3953 H   0  0  0  0  0  0  0  0  0  0  0  0
    4.5155    0.9087   -2.4155 H   0  0  0  0  0  0  0  0  0  0  0  0
    5.3618   -0.7187   -4.0819 H   0  0  0  0  0  0  0  0  0  0  0  0
    2.3121   -2.1606   -0.3488 H   0  0  0  0  0  0  0  0  0  0  0  0
    2.7162   -4.7363   -1.7231 H   0  0  0  0  0  0  0  0  0  0  0  0
  1 19  1  0  0  0  0
  1 10  1  0  0  0  0
  1 20  1  0  0  0  0
  2  4  2  0  0  0  0
  3  5  2  0  0  0  0
  3  2  1  0  0  0  0
  4 24  1  0  0  0  0
  4  6  1  0  0  0  0
  5 11  1  0  0  0  0
  6 26  1  0  0  0  0
  7 12  2  0  0  0  0
  8 13  2  0  0  0  0
  8  7  1  0  0  0  0
  9 29  1  0  0  0  0
 10 18  2  0  0  0  0
 11 15  1  0  0  0  0
 11  6  2  0  0  0  0
 12  9  1  0  0  0  0
 12 10  1  0  0  0  0
 13 14  1  0  0  0  0
 14  9  2  0  0  0  0
 15 17  1  0  0  0  0
 16 15  2  0  0  0  0
 16 13  1  0  0  0  0
 17 14  1  0  0  0  0
 17 30  1  0  0  0  0
 21  1  1  0  0  0  0
 22  2  1  0  0  0  0
 23  3  1  0  0  0  0
 25  5  1  0  0  0  0
 27  7  1  0  0  0  0
 28  8  1  0  0  0  0
M  END
>  <HBA>
2

>  <HBD>
1

>  <TPSA>
45.75

>  <cid>
56240

>  <dipole>
2.78

>  <excitation_energy_1>
3.715

>  <excitation_energy_2>
3.927

>  <excitation_energy_3>
4.084

>  <excitation_energy_4>
4.65

>  <homo_energy>
-5.987

>  <homo_lumo_gap>
4.294

>  <logP>
3.433

>  <lumo_energy>
-1.693

>  <melting_point>
184.6

>  <molecular_refractivity>
71.72

>  <oscillator_strength_1>
0.0001

>  <oscillator_strength_2>
0.8517

>  <oscillator_strength_3>
0.0147

>  <oscillator_strength_4>
0.0095

>  <open_babel_can_smiles>
CC(=O)c1ccc2c(c1)[nH]c(n2)c1ccccc1

>  <mulliken_charges>
30
1   -0.54406
2   -0.121773
3   -0.13565
4   -0.135211
5   -0.161539
6   -0.180818
7   -0.199036
8   -0.184503
9   -0.218044
10   0.409058
11   0.120061
12   0.056398
13   0.264438
14   0.376218
15   0.479826
16   -0.576793
17   -0.780669
18   -0.463599
19   0.17021
20   0.178984
21   0.170447
22   0.13753
23   0.139753
24   0.136975
25   0.172625
26   0.113785
27   0.130814
28   0.143856
29   0.161901
30   0.338817

>  <lowdin_charges>
30
1   -0.475129
2   -0.147243
3   -0.149885
4   -0.153888
5   -0.135647
6   -0.160385
7   -0.162854
8   -0.16047
9   -0.156372
10   0.160217
11   -0.017692
12   -0.056736
13   0.025557
14   0.02154
15   0.092195
16   -0.200402
17   -0.205193
18   -0.254408
19   0.167483
20   0.174597
21   0.169457
22   0.161304
23   0.162796
24   0.162717
25   0.181958
26   0.149571
27   0.160443
28   0.169525
29   0.178529
30   0.298414

$$$$

