PCCDB-ID:  11266
public computational chemistry database (PCCDB) project, http://pccdb.org

 15 14  0  0  1  0  0  0  0  0999 V2000
    3.2086   -0.0773   -1.3556 C   0  0  0  0  0  0  0  0  0  0  0  0
    2.7062   -0.2682    0.0778 C   0  0  0  0  0  0  0  0  0  0  0  0
    3.0106    0.9215    0.9885 C   0  0  1  0  0  0  0  0  0  0  0  0
    2.3257    0.7820    2.3643 C   0  0  0  0  0  0  0  0  0  0  0  0
    4.4193    1.1632    1.1587 O   0  0  0  0  0  0  0  0  0  0  0  0
    1.1855    0.4083    2.4987 O   0  0  0  0  0  0  0  0  0  0  0  0
    3.1063    1.1429    3.3986 O   0  0  0  0  0  0  0  0  0  0  0  0
    2.9866   -0.9591   -1.9653 H   0  0  0  0  0  0  0  0  0  0  0  0
    4.2908    0.0905   -1.3851 H   0  0  0  0  0  0  0  0  0  0  0  0
    2.7280    0.7874   -1.8279 H   0  0  0  0  0  0  0  0  0  0  0  0
    3.1490   -1.1731    0.5229 H   0  0  0  0  0  0  0  0  0  0  0  0
    1.6233   -0.4243    0.0975 H   0  0  0  0  0  0  0  0  0  0  0  0
    2.6172    1.8399    0.5344 H   0  0  0  0  0  0  0  0  0  0  0  0
    4.8690    0.3017    1.1525 H   0  0  0  0  0  0  0  0  0  0  0  0
    3.9676    1.4021    3.0045 H   0  0  0  0  0  0  0  0  0  0  0  0
  1  2  1  0  0  0  0
  2 12  1  0  0  0  0
  2 11  1  0  0  0  0
  2  3  1  0  0  0  0
  3 13  1  6  0  0  0
  3  5  1  0  0  0  0
  3  4  1  0  0  0  0
  4  6  2  0  0  0  0
  4  7  1  0  0  0  0
  8  1  1  0  0  0  0
  9  1  1  0  0  0  0
 10  1  1  0  0  0  0
 14  5  1  0  0  0  0
 15  7  1  0  0  0  0
M  END
>  <HBA>
3

>  <HBD>
2

>  <TPSA>
57.53

>  <cid>
11266

>  <dipole>
4.02

>  <excitation_energy_1>
5.499

>  <excitation_energy_2>
6.337

>  <excitation_energy_3>
7.162

>  <excitation_energy_4>
7.321

>  <homo_energy>
-7.1

>  <homo_lumo_gap>
7.317

>  <logP>
-0.158

>  <lumo_energy>
0.218

>  <melting_point>
70.54

>  <molecular_refractivity>
24.28

>  <oscillator_strength_1>
0.0006

>  <oscillator_strength_2>
0.0037

>  <oscillator_strength_3>
0.0191

>  <oscillator_strength_4>
0.0011

>  <open_babel_can_smiles>
CC[C@@H](C(=O)O)O

>  <mulliken_charges>
15
1   -0.445697
2   -0.291904
3   0.031491
4   0.583144
5   -0.640848
6   -0.454893
7   -0.576097
8   0.156295
9   0.14843
10   0.154739
11   0.135632
12   0.186993
13   0.183394
14   0.404449
15   0.424872

>  <lowdin_charges>
15
1   -0.445439
2   -0.284216
3   -0.040564
4   0.164382
5   -0.458903
6   -0.247403
7   -0.347663
8   0.158241
9   0.148114
10   0.154988
11   0.143738
12   0.173284
13   0.170098
14   0.350514
15   0.360829

$$$$

