PCCDB-ID:  71721
public computational chemistry database (PCCDB) project, http://pccdb.org

 30 30  0  0  1  0  0  0  0  0999 V2000
    2.6329    1.4405   -0.7574 C   0  0  0  0  0  0  0  0  0  0  0  0
    1.0312   -0.2279    0.2526 C   0  0  0  0  0  0  0  0  0  0  0  0
   10.4803   -3.5531   -2.1641 C   0  0  0  0  0  0  0  0  0  0  0  0
   10.4397   -4.8117   -2.6756 C   0  0  0  0  0  0  0  0  0  0  0  0
    4.5877   -0.9518   -0.7549 C   0  0  0  0  0  0  0  0  0  0  0  0
    6.6317   -2.2517   -1.4634 C   0  0  0  0  0  0  0  0  0  0  0  0
    2.5029    0.1214    0.0135 C   0  0  0  0  0  0  0  0  0  0  0  0
    5.1144   -2.2548   -1.3486 C   0  0  1  0  0  0  0  0  0  0  0  0
    8.2988   -3.7749   -2.1671 C   0  0  0  0  0  0  0  0  0  0  0  0
    9.2635   -2.9608   -1.8741 N   0  0  0  0  0  0  0  0  0  0  0  0
    3.1299   -0.9792   -0.7303 N   0  0  0  0  0  0  0  0  0  0  0  0
    4.6826   -3.3084   -0.4895 O   0  0  0  0  0  0  0  0  0  0  0  0
    6.9895   -3.5405   -2.0212 O   0  0  0  0  0  0  0  0  0  0  0  0
    8.7783   -5.3389   -2.8254 S   0  0  0  0  0  0  0  0  0  0  0  0
    2.1484    2.2553   -0.2074 H   0  0  0  0  0  0  0  0  0  0  0  0
    2.1578    1.3514   -1.7412 H   0  0  0  0  0  0  0  0  0  0  0  0
    3.6795    1.7258   -0.9104 H   0  0  0  0  0  0  0  0  0  0  0  0
    0.5252    0.5710    0.8052 H   0  0  0  0  0  0  0  0  0  0  0  0
    0.9333   -1.1523    0.8357 H   0  0  0  0  0  0  0  0  0  0  0  0
    0.5137   -0.3722   -0.7026 H   0  0  0  0  0  0  0  0  0  0  0  0
   11.3883   -2.9931   -1.9716 H   0  0  0  0  0  0  0  0  0  0  0  0
   11.2585   -5.4521   -2.9713 H   0  0  0  0  0  0  0  0  0  0  0  0
    4.9309   -0.1176   -1.3789 H   0  0  0  0  0  0  0  0  0  0  0  0
    5.0347   -0.8141    0.2496 H   0  0  0  0  0  0  0  0  0  0  0  0
    7.1086   -2.1445   -0.4845 H   0  0  0  0  0  0  0  0  0  0  0  0
    6.9962   -1.4609   -2.1273 H   0  0  0  0  0  0  0  0  0  0  0  0
    2.9883    0.2569    1.0016 H   0  0  0  0  0  0  0  0  0  0  0  0
    4.6809   -2.3811   -2.3526 H   0  0  0  0  0  0  0  0  0  0  0  0
    2.8592   -1.8622   -0.2994 H   0  0  0  0  0  0  0  0  0  0  0  0
    5.0167   -4.1374   -0.8676 H   0  0  0  0  0  0  0  0  0  0  0  0
  1 15  1  0  0  0  0
  1  7  1  0  0  0  0
  2 18  1  0  0  0  0
  2 19  1  0  0  0  0
  3 21  1  0  0  0  0
  3 10  1  0  0  0  0
  4  3  2  0  0  0  0
  5 11  1  0  0  0  0
  5 24  1  0  0  0  0
  6  8  1  0  0  0  0
  6 25  1  0  0  0  0
  7  2  1  0  0  0  0
  7 27  1  0  0  0  0
  8 28  1  6  0  0  0
  8  5  1  0  0  0  0
  8 12  1  0  0  0  0
  9 13  1  0  0  0  0
  9 10  2  0  0  0  0
 11 29  1  0  0  0  0
 11  7  1  0  0  0  0
 13  6  1  0  0  0  0
 14  4  1  0  0  0  0
 14  9  1  0  0  0  0
 16  1  1  0  0  0  0
 17  1  1  0  0  0  0
 20  2  1  0  0  0  0
 22  4  1  0  0  0  0
 23  5  1  0  0  0  0
 26  6  1  0  0  0  0
 30 12  1  0  0  0  0
M  END
>  <HBA>
5

>  <HBD>
2

>  <TPSA>
82.62

>  <cid>
71721

>  <dipole>
1.14

>  <excitation_energy_1>
5.103

>  <excitation_energy_2>
5.129

>  <excitation_energy_3>
5.406

>  <excitation_energy_4>
5.501

>  <homo_energy>
-5.924

>  <homo_lumo_gap>
5.606

>  <logP>
1.272

>  <lumo_energy>
-0.318

>  <melting_point>
65.63

>  <molecular_refractivity>
56.6

>  <oscillator_strength_1>
0.0009

>  <oscillator_strength_2>
0.0069

>  <oscillator_strength_3>
0.1828

>  <oscillator_strength_4>
0.0013

>  <open_babel_can_smiles>
O[C@H](COc1nccs1)CNC(C)C

>  <mulliken_charges>
30
1   -0.438809
2   -0.456733
3   0.062541
4   -0.356215
5   -0.115535
6   -0.041044
7   0.069675
8   0.09733
9   0.350421
10   -0.444623
11   -0.573732
12   -0.639227
13   -0.498787
14   0.228352
15   0.138286
16   0.15067
17   0.140479
18   0.14297
19   0.13942
20   0.154425
21   0.153941
22   0.177966
23   0.140772
24   0.119408
25   0.170996
26   0.161949
27   0.102535
28   0.141551
29   0.314498
30   0.406519

>  <lowdin_charges>
30
1   -0.44946
2   -0.449112
3   -0.118757
4   -0.344092
5   -0.207043
6   -0.13512
7   -0.053428
8   -0.012141
9   0.005245
10   -0.204427
11   -0.365546
12   -0.467065
13   -0.19053
14   0.27636
15   0.150379
16   0.152394
17   0.145884
18   0.152945
19   0.147224
20   0.15405
21   0.169362
22   0.188763
23   0.146604
24   0.123248
25   0.160197
26   0.159465
27   0.112635
28   0.140149
29   0.261356
30   0.350459

$$$$

