PCCDB-ID:  1110
public computational chemistry database (PCCDB) project, http://pccdb.org

 14 13  0  0  0  0  0  0  0  0999 V2000
    1.2595   -0.2713    0.0378 C   0  0  0  0  0  0  0  0  0  0  0  0
    1.2045   -1.4397   -0.9650 C   0  0  0  0  0  0  0  0  0  0  0  0
    2.6598    0.3082    0.2789 C   0  0  0  0  0  0  0  0  0  0  0  0
    1.2788   -1.0161   -2.4252 C   0  0  0  0  0  0  0  0  0  0  0  0
    3.2141    0.2266    1.3496 O   0  0  0  0  0  0  0  0  0  0  0  0
    3.2400    0.9202   -0.7683 O   0  0  0  0  0  0  0  0  0  0  0  0
    1.5905    0.0942   -2.8045 O   0  0  0  0  0  0  0  0  0  0  0  0
    0.9721   -1.9597   -3.3372 O   0  0  0  0  0  0  0  0  0  0  0  0
    0.9060   -0.6225    1.0086 H   0  0  0  0  0  0  0  0  0  0  0  0
    0.5868    0.5253   -0.3022 H   0  0  0  0  0  0  0  0  0  0  0  0
    0.2682   -1.9949   -0.8180 H   0  0  0  0  0  0  0  0  0  0  0  0
    2.0156   -2.1563   -0.7721 H   0  0  0  0  0  0  0  0  0  0  0  0
    2.6589    0.8630   -1.5606 H   0  0  0  0  0  0  0  0  0  0  0  0
    0.7300   -2.7934   -2.8999 H   0  0  0  0  0  0  0  0  0  0  0  0
  1  3  1  0  0  0  0
  1  9  1  0  0  0  0
  2 11  1  0  0  0  0
  2 12  1  0  0  0  0
  2  1  1  0  0  0  0
  3  5  2  0  0  0  0
  4  2  1  0  0  0  0
  6  3  1  0  0  0  0
  7  4  2  0  0  0  0
  8 14  1  0  0  0  0
  8  4  1  0  0  0  0
 10  1  1  0  0  0  0
 13  6  1  0  0  0  0
M  END
>  <HBA>
4

>  <HBD>
2

>  <TPSA>
74.6

>  <cid>
1110

>  <dipole>
6.15

>  <excitation_energy_1>
5.47

>  <excitation_energy_2>
5.641

>  <excitation_energy_3>
5.858

>  <excitation_energy_4>
6.114

>  <homo_energy>
-7.124

>  <homo_lumo_gap>
6.321

>  <logP>
-0.064

>  <lumo_energy>
-0.803

>  <melting_point>
129.08

>  <molecular_refractivity>
24.89

>  <oscillator_strength_1>
0.0019

>  <oscillator_strength_2>
0.0014

>  <oscillator_strength_3>
0.0009

>  <oscillator_strength_4>
0.0031

>  <open_babel_can_smiles>
OC(=O)CCC(=O)O

>  <mulliken_charges>
14
1   -0.373915
2   -0.417598
3   0.577902
4   0.626915
5   -0.444924
6   -0.582568
7   -0.458486
8   -0.544295
9   0.184194
10   0.182341
11   0.1774
12   0.206651
13   0.444017
14   0.422367

>  <lowdin_charges>
14
1   -0.314575
2   -0.321084
3   0.185527
4   0.207868
5   -0.251885
6   -0.36307
7   -0.250262
8   -0.327246
9   0.178675
10   0.172902
11   0.170452
12   0.183416
13   0.361242
14   0.368041

$$$$

