PCCDB-ID:  17230
public computational chemistry database (PCCDB) project, http://pccdb.org

 15 15  0  0  0  0  0  0  0  0999 V2000
   -1.1968   -0.1376    0.1282 C   0  0  0  0  0  0  0  0  0  0  0  0
   -0.2859   -1.2303    0.0685 C   0  0  0  0  0  0  0  0  0  0  0  0
   -0.7633    2.4684    0.1516 C   0  0  0  0  0  0  0  0  0  0  0  0
   -0.4441    1.0080    0.1305 C   0  0  0  0  0  0  0  0  0  0  0  0
    0.9540   -0.6588    0.0331 C   0  0  0  0  0  0  0  0  0  0  0  0
    2.2508   -1.2519   -0.0392 N   0  0  0  0  0  0  0  0  0  0  0  0
   -0.4230    3.1268   -1.0612 O   0  0  0  0  0  0  0  0  0  0  0  0
    2.2782   -2.4863   -0.0589 O   0  0  0  0  0  0  0  0  0  0  0  0
    3.2274   -0.5041   -0.0762 O   0  0  0  0  0  0  0  0  0  0  0  0
    0.8847    0.6934    0.0738 O   0  0  0  0  0  0  0  0  0  0  0  0
   -2.2761   -0.1885    0.1594 H   0  0  0  0  0  0  0  0  0  0  0  0
   -0.4974   -2.2884    0.0504 H   0  0  0  0  0  0  0  0  0  0  0  0
   -0.2705    2.9406    1.0156 H   0  0  0  0  0  0  0  0  0  0  0  0
   -1.8423    2.5876    0.2775 H   0  0  0  0  0  0  0  0  0  0  0  0
    0.5419    3.0836   -1.1573 H   0  0  0  0  0  0  0  0  0  0  0  0
  1  4  2  0  0  0  0
  1 11  1  0  0  0  0
  2  1  1  0  0  0  0
  3 14  1  0  0  0  0
  3 13  1  0  0  0  0
  4  3  1  0  0  0  0
  5  2  2  0  0  0  0
  5 10  1  0  0  0  0
  6  5  1  0  0  0  0
  7  3  1  0  0  0  0
  8  6  2  0  0  0  0
  9  6  2  0  0  0  0
 10  4  1  0  0  0  0
 12  2  1  0  0  0  0
 15  7  1  0  0  0  0
M  END
>  <HBA>
2

>  <HBD>
1

>  <TPSA>
79.19

>  <cid>
17230

>  <dipole>
4.15

>  <excitation_energy_1>
3.762

>  <excitation_energy_2>
4.236

>  <excitation_energy_3>
4.267

>  <excitation_energy_4>
4.794

>  <homo_energy>
-7.233

>  <homo_lumo_gap>
4.653

>  <logP>
1.203

>  <lumo_energy>
-2.58

>  <melting_point>
64.8

>  <molecular_refractivity>
33.66

>  <oscillator_strength_1>
0.0

>  <oscillator_strength_2>
0.2727

>  <oscillator_strength_3>
0.0333

>  <oscillator_strength_4>
0.0025

>  <open_babel_can_smiles>
OCc1ccc(o1)N(=O)=O

>  <mulliken_charges>
15
1   -0.206706
2   -0.139522
3   -0.117695
4   0.346588
5   0.524985
6   0.335887
7   -0.594866
8   -0.402173
9   -0.391307
10   -0.448687
11   0.166384
12   0.190371
13   0.158742
14   0.172788
15   0.405211

>  <lowdin_charges>
15
1   -0.194184
2   -0.148296
3   -0.133214
4   0.081112
5   0.06804
6   0.302135
7   -0.44912
8   -0.250892
9   -0.240387
10   -0.078407
11   0.17957
12   0.194724
13   0.152863
14   0.166472
15   0.349584

$$$$

