PCCDB-ID:  30931
public computational chemistry database (PCCDB) project, http://pccdb.org

 30 31  0  0  0  0  0  0  0  0999 V2000
    5.0757   -3.3170    0.5053 C   0  0  0  0  0  0  0  0  0  0  0  0
    5.7279   -2.1550    0.9205 C   0  0  0  0  0  0  0  0  0  0  0  0
    3.8434   -3.2307   -0.1500 C   0  0  0  0  0  0  0  0  0  0  0  0
    5.9404    3.0281   -1.1742 C   0  0  0  0  0  0  0  0  0  0  0  0
    5.3045    4.2167   -0.8261 C   0  0  0  0  0  0  0  0  0  0  0  0
    5.1619   -0.9058    0.6645 C   0  0  0  0  0  0  0  0  0  0  0  0
    3.2676   -1.9868   -0.3884 C   0  0  0  0  0  0  0  0  0  0  0  0
    5.3040    1.8012   -0.9694 C   0  0  0  0  0  0  0  0  0  0  0  0
    3.3790    2.9712   -0.0896 C   0  0  0  0  0  0  0  0  0  0  0  0
    3.3043    5.4996    0.0575 C   0  0  0  0  0  0  0  0  0  0  0  0
    4.0106    4.2033   -0.2765 C   0  0  0  0  0  0  0  0  0  0  0  0
    3.9285   -0.8102    0.0010 C   0  0  0  0  0  0  0  0  0  0  0  0
    4.0170    1.7634   -0.4186 C   0  0  0  0  0  0  0  0  0  0  0  0
    2.6223    6.1977   -1.1323 C   0  0  0  0  0  0  0  0  0  0  0  0
    3.2314    0.4931   -0.2415 C   0  0  0  0  0  0  0  0  0  0  0  0
    2.5051    7.3944   -1.2075 O   0  0  0  0  0  0  0  0  0  0  0  0
    2.1063    5.3876   -2.0865 O   0  0  0  0  0  0  0  0  0  0  0  0
    2.0076    0.5340   -0.3043 O   0  0  0  0  0  0  0  0  0  0  0  0
    5.5229   -4.2888    0.6968 H   0  0  0  0  0  0  0  0  0  0  0  0
    6.6770   -2.2203    1.4453 H   0  0  0  0  0  0  0  0  0  0  0  0
    3.3309   -4.1348   -0.4669 H   0  0  0  0  0  0  0  0  0  0  0  0
    6.9353    3.0545   -1.6095 H   0  0  0  0  0  0  0  0  0  0  0  0
    5.8095    5.1671   -0.9819 H   0  0  0  0  0  0  0  0  0  0  0  0
    5.6661   -0.0077    1.0065 H   0  0  0  0  0  0  0  0  0  0  0  0
    2.3026   -1.9009   -0.8771 H   0  0  0  0  0  0  0  0  0  0  0  0
    5.7999    0.8809   -1.2597 H   0  0  0  0  0  0  0  0  0  0  0  0
    2.3766    2.9209    0.3278 H   0  0  0  0  0  0  0  0  0  0  0  0
    3.9899    6.2329    0.4896 H   0  0  0  0  0  0  0  0  0  0  0  0
    2.5188    5.3189    0.8030 H   0  0  0  0  0  0  0  0  0  0  0  0
    2.3319    4.4599   -1.8918 H   0  0  0  0  0  0  0  0  0  0  0  0
  1 19  1  0  0  0  0
  1  2  2  0  0  0  0
  2 20  1  0  0  0  0
  3  1  1  0  0  0  0
  4  8  2  0  0  0  0
  4  5  1  0  0  0  0
  5 11  2  0  0  0  0
  6  2  1  0  0  0  0
  6 24  1  0  0  0  0
  7  3  2  0  0  0  0
  7 12  1  0  0  0  0
  8 13  1  0  0  0  0
  9 27  1  0  0  0  0
 10 28  1  0  0  0  0
 10 29  1  0  0  0  0
 11  9  1  0  0  0  0
 11 10  1  0  0  0  0
 12  6  2  0  0  0  0
 13 15  1  0  0  0  0
 13  9  2  0  0  0  0
 14 10  1  0  0  0  0
 15 12  1  0  0  0  0
 16 14  2  0  0  0  0
 17 30  1  0  0  0  0
 17 14  1  0  0  0  0
 18 15  2  0  0  0  0
 21  3  1  0  0  0  0
 22  4  1  0  0  0  0
 23  5  1  0  0  0  0
 25  7  1  0  0  0  0
 26  8  1  0  0  0  0
M  END
>  <HBA>
3

>  <HBD>
1

>  <TPSA>
54.37

>  <cid>
30931

>  <dipole>
6.75

>  <excitation_energy_1>
3.549

>  <excitation_energy_2>
4.311

>  <excitation_energy_3>
4.407

>  <excitation_energy_4>
4.573

>  <homo_energy>
-6.974

>  <homo_lumo_gap>
4.863

>  <logP>
2.545

>  <lumo_energy>
-2.112

>  <melting_point>
145.08

>  <molecular_refractivity>
67.86

>  <oscillator_strength_1>
0.001

>  <oscillator_strength_2>
0.0236

>  <oscillator_strength_3>
0.0055

>  <oscillator_strength_4>
0.2619

>  <open_babel_can_smiles>
OC(=O)Cc1cccc(c1)C(=O)c1ccccc1

>  <mulliken_charges>
30
1   -0.117888
2   -0.136572
3   -0.134883
4   -0.133513
5   -0.153088
6   -0.176634
7   -0.149392
8   -0.177149
9   -0.236849
10   -0.456145
11   0.110785
12   0.071676
13   0.08167
14   0.594705
15   0.322686
16   -0.438627
17   -0.562079
18   -0.461963
19   0.140985
20   0.13962
21   0.142076
22   0.14697
23   0.149887
24   0.148698
25   0.162249
26   0.156708
27   0.164347
28   0.190242
29   0.193512
30   0.417967

>  <lowdin_charges>
30
1   -0.138621
2   -0.15544
3   -0.1538
4   -0.147217
5   -0.14537
6   -0.152483
7   -0.126708
8   -0.149681
9   -0.156725
10   -0.315941
11   -0.023223
12   -0.044373
13   -0.037661
14   0.188085
15   0.154111
16   -0.238005
17   -0.349328
18   -0.242819
19   0.162961
20   0.161994
21   0.164254
22   0.16547
23   0.167095
24   0.167052
25   0.175297
26   0.171491
27   0.173846
28   0.1832
29   0.18193
30   0.360612

$$$$

