PCCDB-ID:  19633
public computational chemistry database (PCCDB) project, http://pccdb.org

 36 35  0  0  0  0  0  0  0  0999 V2000
    4.9510    6.8222    4.3582 C   0  0  0  0  0  0  0  0  0  0  0  0
    7.1286    6.1185    3.2610 C   0  0  0  0  0  0  0  0  0  0  0  0
    5.0553    0.7212    0.8462 C   0  0  0  0  0  0  0  0  0  0  0  0
    8.8503   -2.9279    4.5712 C   0  0  0  0  0  0  0  0  0  0  0  0
    5.5455    3.6446    2.1218 C   0  0  0  0  0  0  0  0  0  0  0  0
    7.8104   -0.6279    1.5309 C   0  0  0  0  0  0  0  0  0  0  0  0
    5.0148    4.7547    2.9884 C   0  0  0  0  0  0  0  0  0  0  0  0
    5.4982    2.2689    2.8366 C   0  0  0  0  0  0  0  0  0  0  0  0
    7.1480    0.5160    2.2540 C   0  0  0  0  0  0  0  0  0  0  0  0
    7.9136   -1.9033    2.3870 C   0  0  0  0  0  0  0  0  0  0  0  0
    5.6679    5.8145    3.4903 C   0  0  0  0  0  0  0  0  0  0  0  0
    5.9757    1.1115    1.9795 C   0  0  0  0  0  0  0  0  0  0  0  0
    8.8981   -1.8044    3.5487 C   0  0  0  0  0  0  0  0  0  0  0  0
    9.6868   -0.8832    3.6524 O   0  0  0  0  0  0  0  0  0  0  0  0
    5.4203    6.8966    5.3496 H   0  0  0  0  0  0  0  0  0  0  0  0
    3.8969    6.5634    4.5010 H   0  0  0  0  0  0  0  0  0  0  0  0
    4.9972    7.8288    3.9184 H   0  0  0  0  0  0  0  0  0  0  0  0
    7.6660    6.1749    4.2180 H   0  0  0  0  0  0  0  0  0  0  0  0
    7.2501    7.0996    2.7806 H   0  0  0  0  0  0  0  0  0  0  0  0
    7.6337    5.3766    2.6386 H   0  0  0  0  0  0  0  0  0  0  0  0
    4.9374    1.5401    0.1242 H   0  0  0  0  0  0  0  0  0  0  0  0
    4.0493    0.4991    1.2287 H   0  0  0  0  0  0  0  0  0  0  0  0
    5.4015   -0.1551    0.2933 H   0  0  0  0  0  0  0  0  0  0  0  0
    7.9293   -2.8461    5.1633 H   0  0  0  0  0  0  0  0  0  0  0  0
    9.7102   -2.8590    5.2407 H   0  0  0  0  0  0  0  0  0  0  0  0
    8.8309   -3.9103    4.0845 H   0  0  0  0  0  0  0  0  0  0  0  0
    6.5747    3.8370    1.8016 H   0  0  0  0  0  0  0  0  0  0  0  0
    4.9418    3.5930    1.2040 H   0  0  0  0  0  0  0  0  0  0  0  0
    8.8288   -0.3294    1.2508 H   0  0  0  0  0  0  0  0  0  0  0  0
    7.2840   -0.8737    0.6036 H   0  0  0  0  0  0  0  0  0  0  0  0
    3.9567    4.6578    3.2420 H   0  0  0  0  0  0  0  0  0  0  0  0
    4.4641    2.0837    3.1665 H   0  0  0  0  0  0  0  0  0  0  0  0
    6.1089    2.3319    3.7447 H   0  0  0  0  0  0  0  0  0  0  0  0
    7.7134    0.8856    3.1091 H   0  0  0  0  0  0  0  0  0  0  0  0
    8.2472   -2.7505    1.7666 H   0  0  0  0  0  0  0  0  0  0  0  0
    6.9289   -2.1958    2.7769 H   0  0  0  0  0  0  0  0  0  0  0  0
  1 16  1  0  0  0  0
  1 15  1  0  0  0  0
  2 11  1  0  0  0  0
  2 18  1  0  0  0  0
  3 22  1  0  0  0  0
  3 12  1  0  0  0  0
  4 24  1  0  0  0  0
  4 25  1  0  0  0  0
  5  8  1  0  0  0  0
  5  7  1  0  0  0  0
  6  9  1  0  0  0  0
  6 10  1  0  0  0  0
  7 31  1  0  0  0  0
  7 11  2  0  0  0  0
  8 32  1  0  0  0  0
  8 33  1  0  0  0  0
  9 34  1  0  0  0  0
 10 36  1  0  0  0  0
 10 13  1  0  0  0  0
 11  1  1  0  0  0  0
 12  9  2  0  0  0  0
 12  8  1  0  0  0  0
 13 14  2  0  0  0  0
 13  4  1  0  0  0  0
 17  1  1  0  0  0  0
 19  2  1  0  0  0  0
 20  2  1  0  0  0  0
 21  3  1  0  0  0  0
 23  3  1  0  0  0  0
 26  4  1  0  0  0  0
 27  5  1  0  0  0  0
 28  5  1  0  0  0  0
 29  6  1  0  0  0  0
 30  6  1  0  0  0  0
 35 10  1  0  0  0  0
M  END
>  <HBA>
1

>  <HBD>
0

>  <TPSA>
17.07

>  <cid>
19633

>  <dipole>
2.43

>  <excitation_energy_1>
4.412

>  <excitation_energy_2>
4.873

>  <excitation_energy_3>
5.383

>  <excitation_energy_4>
5.417

>  <homo_energy>
-5.94

>  <homo_lumo_gap>
5.641

>  <logP>
4.048

>  <lumo_energy>
-0.299

>  <melting_point>
16.6

>  <molecular_refractivity>
63.86

>  <oscillator_strength_1>
0.0001

>  <oscillator_strength_2>
0.0013

>  <oscillator_strength_3>
0.0016

>  <oscillator_strength_4>
0.0347

>  <open_babel_can_smiles>
C/C(=C\CCC(=O)C)/CCC=C(C)C

>  <mulliken_charges>
36
1   -0.505576
2   -0.513206
3   -0.52098
4   -0.528665
5   -0.301331
6   -0.30099
7   -0.161346
8   -0.324028
9   -0.182515
10   -0.350937
11   0.189213
12   0.189854
13   0.458923
14   -0.43965
15   0.148237
16   0.149475
17   0.147822
18   0.151699
19   0.15027
20   0.157121
21   0.158011
22   0.149388
23   0.151003
24   0.173797
25   0.179369
26   0.162811
27   0.143712
28   0.138073
29   0.163128
30   0.134715
31   0.107267
32   0.128692
33   0.144551
34   0.135957
35   0.159195
36   0.156941

>  <lowdin_charges>
36
1   -0.436539
2   -0.445451
3   -0.447488
4   -0.475745
5   -0.272999
6   -0.272246
7   -0.189849
8   -0.268509
9   -0.193249
10   -0.311417
11   -0.010139
12   -0.014947
13   0.167828
14   -0.23887
15   0.151291
16   0.15198
17   0.1509
18   0.155016
19   0.153895
20   0.158
21   0.156821
22   0.153139
23   0.154505
24   0.173389
25   0.173053
26   0.165272
27   0.147376
28   0.145682
29   0.161083
30   0.147674
31   0.141403
32   0.13931
33   0.149667
34   0.156634
35   0.164686
36   0.15884

$$$$

