PCCDB-ID:  14315
public computational chemistry database (PCCDB) project, http://pccdb.org

 24 25  0  0  0  0  0  0  0  0999 V2000
    3.4527   -0.8344   -1.1603 C   0  0  0  0  0  0  0  0  0  0  0  0
    2.5101   -0.1132   -0.1783 C   0  0  0  0  0  0  0  0  0  0  0  0
    6.0513    2.2459    2.8945 C   0  0  0  0  0  0  0  0  0  0  0  0
    5.6742    0.8991    2.6830 C   0  0  0  0  0  0  0  0  0  0  0  0
    2.6940    3.7052   -0.3036 C   0  0  0  0  0  0  0  0  0  0  0  0
    5.4094    3.2518    2.2097 C   0  0  0  0  0  0  0  0  0  0  0  0
    2.3144    2.3603   -0.5214 C   0  0  0  0  0  0  0  0  0  0  0  0
    3.7030    4.0019    0.5806 C   0  0  0  0  0  0  0  0  0  0  0  0
    4.6708    0.5864    1.7923 C   0  0  0  0  0  0  0  0  0  0  0  0
    2.9328    1.3099    0.1298 C   0  0  0  0  0  0  0  0  0  0  0  0
    4.3695    2.9640    1.2850 C   0  0  0  0  0  0  0  0  0  0  0  0
    3.9852    1.5981    1.0625 C   0  0  0  0  0  0  0  0  0  0  0  0
    3.0952   -1.8498   -1.3674 H   0  0  0  0  0  0  0  0  0  0  0  0
    4.4699   -0.9073   -0.7612 H   0  0  0  0  0  0  0  0  0  0  0  0
    3.5091   -0.2928   -2.1109 H   0  0  0  0  0  0  0  0  0  0  0  0
    2.4296   -0.6980    0.7466 H   0  0  0  0  0  0  0  0  0  0  0  0
    1.5017   -0.0917   -0.6087 H   0  0  0  0  0  0  0  0  0  0  0  0
    6.8446    2.4815    3.5988 H   0  0  0  0  0  0  0  0  0  0  0  0
    6.1803    0.1065    3.2278 H   0  0  0  0  0  0  0  0  0  0  0  0
    2.1810    4.4998   -0.8390 H   0  0  0  0  0  0  0  0  0  0  0  0
    5.6893    4.2910    2.3675 H   0  0  0  0  0  0  0  0  0  0  0  0
    1.5117    2.1461   -1.2237 H   0  0  0  0  0  0  0  0  0  0  0  0
    4.0035    5.0321    0.7565 H   0  0  0  0  0  0  0  0  0  0  0  0
    4.3976   -0.4536    1.6474 H   0  0  0  0  0  0  0  0  0  0  0  0
  1 14  1  0  0  0  0
  1  2  1  0  0  0  0
  2 10  1  0  0  0  0
  2 16  1  0  0  0  0
  3 18  1  0  0  0  0
  4  3  1  0  0  0  0
  4 19  1  0  0  0  0
  5  8  1  0  0  0  0
  6 21  1  0  0  0  0
  6  3  2  0  0  0  0
  7  5  2  0  0  0  0
  7 10  1  0  0  0  0
  8 23  1  0  0  0  0
  8 11  2  0  0  0  0
  9  4  2  0  0  0  0
 10 12  2  0  0  0  0
 11  6  1  0  0  0  0
 12 11  1  0  0  0  0
 12  9  1  0  0  0  0
 13  1  1  0  0  0  0
 15  1  1  0  0  0  0
 17  2  1  0  0  0  0
 20  5  1  0  0  0  0
 22  7  1  0  0  0  0
 24  9  1  0  0  0  0
M  END
>  <HBA>
0

>  <HBD>
0

>  <TPSA>
0.0

>  <cid>
14315

>  <dipole>
0.28

>  <excitation_energy_1>
4.263

>  <excitation_energy_2>
4.405

>  <excitation_energy_3>
5.289

>  <excitation_energy_4>
5.473

>  <homo_energy>
-5.66

>  <homo_lumo_gap>
4.738

>  <logP>
3.402

>  <lumo_energy>
-0.922

>  <melting_point>
51.82

>  <molecular_refractivity>
53.72

>  <oscillator_strength_1>
0.0906

>  <oscillator_strength_2>
0.0005

>  <oscillator_strength_3>
0.0071

>  <oscillator_strength_4>
0.0019

>  <open_babel_can_smiles>
CCc1cccc2c1cccc2

>  <mulliken_charges>
24
1   -0.438457
2   -0.343599
3   -0.133234
4   -0.135638
5   -0.128317
6   -0.194473
7   -0.204361
8   -0.194612
9   -0.197899
10   0.126318
11   0.140411
12   0.076305
13   0.143213
14   0.153652
15   0.15075
16   0.145886
17   0.143226
18   0.128515
19   0.127724
20   0.127763
21   0.128308
22   0.121002
23   0.126892
24   0.130624

>  <lowdin_charges>
24
1   -0.441146
2   -0.272556
3   -0.159583
4   -0.160657
5   -0.160108
6   -0.155033
7   -0.170716
8   -0.16022
9   -0.161884
10   -0.001309
11   0.00166
12   -0.00792
13   0.148627
14   0.151057
15   0.151814
16   0.148827
17   0.149506
18   0.158347
19   0.158725
20   0.15897
21   0.155542
22   0.154383
23   0.155444
24   0.158231

$$$$

