PCCDB-ID:  8683
public computational chemistry database (PCCDB) project, http://pccdb.org

 28 29  0  0  0  0  0  0  0  0999 V2000
   -0.0772    0.5565   -1.2633 C   0  0  0  0  0  0  0  0  0  0  0  0
    0.6588   -0.0111   -0.2206 C   0  0  0  0  0  0  0  0  0  0  0  0
    0.4640    0.5491   -2.5504 C   0  0  0  0  0  0  0  0  0  0  0  0
    1.9119   -0.5760   -0.4479 C   0  0  0  0  0  0  0  0  0  0  0  0
    1.7120   -0.0193   -2.7927 C   0  0  0  0  0  0  0  0  0  0  0  0
    4.3452   -4.2873   -0.1201 C   0  0  0  0  0  0  0  0  0  0  0  0
    3.6993   -3.2914   -0.8450 C   0  0  0  0  0  0  0  0  0  0  0  0
    6.3846   -2.9877   -0.2034 C   0  0  0  0  0  0  0  0  0  0  0  0
    5.7059   -4.1434    0.2035 C   0  0  0  0  0  0  0  0  0  0  0  0
    2.4576   -0.5883   -1.7443 C   0  0  0  0  0  0  0  0  0  0  0  0
    5.7298   -1.9749   -0.9157 C   0  0  0  0  0  0  0  0  0  0  0  0
    4.3634   -2.1285   -1.2431 C   0  0  0  0  0  0  0  0  0  0  0  0
    6.3581   -5.1121    0.9771 N   0  0  0  0  0  0  0  0  0  0  0  0
    6.4136   -0.8441   -1.3643 N   0  0  0  0  0  0  0  0  0  0  0  0
    3.7392   -1.0908   -2.0036 N   0  0  0  0  0  0  0  0  0  0  0  0
   -1.0539    0.9934   -1.0770 H   0  0  0  0  0  0  0  0  0  0  0  0
    0.2562   -0.0129    0.7895 H   0  0  0  0  0  0  0  0  0  0  0  0
   -0.0913    0.9823   -3.3787 H   0  0  0  0  0  0  0  0  0  0  0  0
    2.4758   -1.0049    0.3739 H   0  0  0  0  0  0  0  0  0  0  0  0
    2.1199   -0.0254   -3.8021 H   0  0  0  0  0  0  0  0  0  0  0  0
    3.8037   -5.1767    0.1920 H   0  0  0  0  0  0  0  0  0  0  0  0
    2.6504   -3.4075   -1.1035 H   0  0  0  0  0  0  0  0  0  0  0  0
    7.4376   -2.8667    0.0456 H   0  0  0  0  0  0  0  0  0  0  0  0
    5.9512   -6.0376    0.9145 H   0  0  0  0  0  0  0  0  0  0  0  0
    7.3619   -5.1490    0.8470 H   0  0  0  0  0  0  0  0  0  0  0  0
    7.2240   -0.5941   -0.8105 H   0  0  0  0  0  0  0  0  0  0  0  0
    5.7939   -0.0545   -1.5174 H   0  0  0  0  0  0  0  0  0  0  0  0
    3.9820   -1.0916   -2.9892 H   0  0  0  0  0  0  0  0  0  0  0  0
  1 16  1  0  0  0  0
  1  2  2  0  0  0  0
  2 17  1  0  0  0  0
  3  1  1  0  0  0  0
  4  2  1  0  0  0  0
  4 19  1  0  0  0  0
  5  3  2  0  0  0  0
  5 10  1  0  0  0  0
  6 21  1  0  0  0  0
  6  9  1  0  0  0  0
  7  6  2  0  0  0  0
  8 23  1  0  0  0  0
  8  9  2  0  0  0  0
  9 13  1  0  0  0  0
 10  4  2  0  0  0  0
 11  8  1  0  0  0  0
 12 11  2  0  0  0  0
 12  7  1  0  0  0  0
 14 11  1  0  0  0  0
 14 26  1  0  0  0  0
 15 10  1  0  0  0  0
 15 12  1  0  0  0  0
 18  3  1  0  0  0  0
 20  5  1  0  0  0  0
 22  7  1  0  0  0  0
 24 13  1  0  0  0  0
 25 13  1  0  0  0  0
 27 14  1  0  0  0  0
 28 15  1  0  0  0  0
M  END
>  <HBA>
2

>  <HBD>
3

>  <TPSA>
64.07

>  <cid>
8683

>  <dipole>
2.3

>  <excitation_energy_1>
4.045

>  <excitation_energy_2>
4.295

>  <excitation_energy_3>
4.395

>  <excitation_energy_4>
4.49

>  <homo_energy>
-4.773

>  <homo_lumo_gap>
4.977

>  <logP>
3.83

>  <lumo_energy>
0.204

>  <melting_point>
177.76

>  <molecular_refractivity>
64.79

>  <oscillator_strength_1>
0.0403

>  <oscillator_strength_2>
0.02

>  <oscillator_strength_3>
0.099

>  <oscillator_strength_4>
0.0105

>  <open_babel_can_smiles>
Nc1ccc(c(c1)N)Nc1ccccc1

>  <mulliken_charges>
28
1   -0.138374
2   -0.138477
3   -0.132366
4   -0.17536
5   -0.204528
6   -0.198317
7   -0.162497
8   -0.241742
9   0.316649
10   0.353895
11   0.277291
12   0.239067
13   -0.79075
14   -0.796784
15   -0.786067
16   0.118807
17   0.124203
18   0.123003
19   0.139569
20   0.112165
21   0.111634
22   0.138368
23   0.104076
24   0.318068
25   0.316737
26   0.315694
27   0.330919
28   0.325115

>  <lowdin_charges>
28
1   -0.18803
2   -0.146803
3   -0.149666
4   -0.200725
5   -0.205272
6   -0.228048
7   -0.148387
8   -0.244717
9   0.068003
10   0.061665
11   0.057733
12   -0.029356
13   -0.487419
14   -0.493411
15   -0.278807
16   0.153262
17   0.154424
18   0.155961
19   0.165881
20   0.14864
21   0.152161
22   0.163029
23   0.146512
24   0.273275
25   0.271219
26   0.273809
27   0.279262
28   0.275806

$$$$

