PCCDB-ID:  15037
public computational chemistry database (PCCDB) project, http://pccdb.org

 20 21  0  0  0  0  0  0  0  0999 V2000
    0.4207   -2.9891   -0.0500 C   0  0  0  0  0  0  0  0  0  0  0  0
    0.3479   -2.4645   -1.3732 C   0  0  0  0  0  0  0  0  0  0  0  0
    5.8626   -0.8678   -0.2803 C   0  0  0  0  0  0  0  0  0  0  0  0
    4.4781   -1.2444   -0.3515 C   0  0  0  0  0  0  0  0  0  0  0  0
    1.1228   -2.0817    0.7119 C   0  0  0  0  0  0  0  0  0  0  0  0
    1.0090   -1.2563   -1.3713 C   0  0  0  0  0  0  0  0  0  0  0  0
    5.8889    0.3960    0.2187 C   0  0  0  0  0  0  0  0  0  0  0  0
    2.3067    0.0986    0.3028 C   0  0  0  0  0  0  0  0  0  0  0  0
    3.7699   -0.1775    0.1122 C   0  0  0  0  0  0  0  0  0  0  0  0
    1.4740   -1.0201   -0.0949 N   0  0  0  0  0  0  0  0  0  0  0  0
    4.6171    0.8362    0.4659 O   0  0  0  0  0  0  0  0  0  0  0  0
   -0.0066   -3.9171    0.3057 H   0  0  0  0  0  0  0  0  0  0  0  0
   -0.1438   -2.9152   -2.2248 H   0  0  0  0  0  0  0  0  0  0  0  0
    6.7172   -1.4652   -0.5662 H   0  0  0  0  0  0  0  0  0  0  0  0
    4.0647   -2.1798   -0.7001 H   0  0  0  0  0  0  0  0  0  0  0  0
    1.4042   -2.0929    1.7556 H   0  0  0  0  0  0  0  0  0  0  0  0
    1.1873   -0.5396   -2.1607 H   0  0  0  0  0  0  0  0  0  0  0  0
    6.6774    1.0949    0.4520 H   0  0  0  0  0  0  0  0  0  0  0  0
    2.0068    0.9810   -0.2762 H   0  0  0  0  0  0  0  0  0  0  0  0
    2.0970    0.3339    1.3538 H   0  0  0  0  0  0  0  0  0  0  0  0
  1 12  1  0  0  0  0
  1  5  2  0  0  0  0
  2  6  2  0  0  0  0
  2  1  1  0  0  0  0
  3  7  2  0  0  0  0
  4  3  1  0  0  0  0
  4  9  2  0  0  0  0
  5 16  1  0  0  0  0
  6 10  1  0  0  0  0
  7 18  1  0  0  0  0
  7 11  1  0  0  0  0
  8 20  1  0  0  0  0
  9  8  1  0  0  0  0
  9 11  1  0  0  0  0
 10  8  1  0  0  0  0
 10  5  1  0  0  0  0
 13  2  1  0  0  0  0
 14  3  1  0  0  0  0
 15  4  1  0  0  0  0
 17  6  1  0  0  0  0
 19  8  1  0  0  0  0
M  END
>  <HBA>
2

>  <HBD>
0

>  <TPSA>
18.07

>  <cid>
15037

>  <dipole>
1.35

>  <excitation_energy_1>
5.094

>  <excitation_energy_2>
5.124

>  <excitation_energy_3>
5.579

>  <excitation_energy_4>
5.642

>  <homo_energy>
-5.529

>  <homo_lumo_gap>
5.883

>  <logP>
2.129

>  <lumo_energy>
0.354

>  <melting_point>
35.1

>  <molecular_refractivity>
42.45

>  <oscillator_strength_1>
0.0215

>  <oscillator_strength_2>
0.0053

>  <oscillator_strength_3>
0.0523

>  <oscillator_strength_4>
0.0004

>  <open_babel_can_smiles>
c1ccn(c1)Cc1ccco1

>  <mulliken_charges>
20
1   -0.187328
2   -0.187513
3   -0.184154
4   -0.197533
5   0.020229
6   0.020284
7   0.081775
8   -0.24183
9   0.342147
10   -0.366996
11   -0.442534
12   0.122854
13   0.122872
14   0.142483
15   0.161069
16   0.141689
17   0.141691
18   0.154173
19   0.178335
20   0.178285

>  <lowdin_charges>
20
1   -0.214099
2   -0.214897
3   -0.203327
4   -0.212423
5   -0.161137
6   -0.16406
7   -0.08403
8   -0.187386
9   0.04709
10   0.001147
11   -0.107865
12   0.159219
13   0.159992
14   0.170635
15   0.179722
16   0.160808
17   0.16319
18   0.171875
19   0.168692
20   0.166853

$$$$

