PCCDB-ID:  66285
public computational chemistry database (PCCDB) project, http://pccdb.org

 21 20  0  0  0  0  0  0  0  0999 V2000
    1.0975   -0.0171   -0.0047 C   0  0  0  0  0  0  0  0  0  0  0  0
    4.4111   -0.5231   -3.7996 C   0  0  0  0  0  0  0  0  0  0  0  0
    6.0199    2.7700    0.6006 C   0  0  0  0  0  0  0  0  0  0  0  0
    2.3000    0.0056   -0.0976 C   0  0  0  0  0  0  0  0  0  0  0  0
    3.8240    0.1843   -2.5902 C   0  0  0  0  0  0  0  0  0  0  0  0
    5.6569    1.3270    0.2964 C   0  0  0  0  0  0  0  0  0  0  0  0
    3.7721   -0.0328   -0.1940 C   0  0  0  0  0  0  0  0  0  0  0  0
    4.2292   -0.5474   -1.4245 O   0  0  0  0  0  0  0  0  0  0  0  0
    4.2444    1.2659    0.0770 O   0  0  0  0  0  0  0  0  0  0  0  0
    0.0336   -0.0332    0.0699 H   0  0  0  0  0  0  0  0  0  0  0  0
    4.1340    0.0049   -4.7187 H   0  0  0  0  0  0  0  0  0  0  0  0
    4.0397   -1.5510   -3.8640 H   0  0  0  0  0  0  0  0  0  0  0  0
    5.5038   -0.5579   -3.7357 H   0  0  0  0  0  0  0  0  0  0  0  0
    7.0963    2.8592    0.7844 H   0  0  0  0  0  0  0  0  0  0  0  0
    5.4838    3.1248    1.4864 H   0  0  0  0  0  0  0  0  0  0  0  0
    5.7579    3.4187   -0.2416 H   0  0  0  0  0  0  0  0  0  0  0  0
    2.7274    0.2148   -2.6445 H   0  0  0  0  0  0  0  0  0  0  0  0
    4.1846    1.2183   -2.5219 H   0  0  0  0  0  0  0  0  0  0  0  0
    5.9253    0.6693    1.1391 H   0  0  0  0  0  0  0  0  0  0  0  0
    6.1907    0.9625   -0.5906 H   0  0  0  0  0  0  0  0  0  0  0  0
    4.1715   -0.7421    0.5470 H   0  0  0  0  0  0  0  0  0  0  0  0
  1 10  1  0  0  0  0
  2 13  1  0  0  0  0
  2  5  1  0  0  0  0
  3 14  1  0  0  0  0
  3 15  1  0  0  0  0
  4  1  3  0  0  0  0
  5 18  1  0  0  0  0
  5  8  1  0  0  0  0
  6  3  1  0  0  0  0
  6 19  1  0  0  0  0
  7  4  1  0  0  0  0
  7  9  1  0  0  0  0
  7 21  1  0  0  0  0
  8  7  1  0  0  0  0
  9  6  1  0  0  0  0
 11  2  1  0  0  0  0
 12  2  1  0  0  0  0
 16  3  1  0  0  0  0
 17  5  1  0  0  0  0
 20  6  1  0  0  0  0
M  END
>  <HBA>
2

>  <HBD>
0

>  <TPSA>
18.46

>  <cid>
66285

>  <dipole>
0.53

>  <excitation_energy_1>
6.414

>  <excitation_energy_2>
6.58

>  <excitation_energy_3>
6.624

>  <excitation_energy_4>
6.949

>  <homo_energy>
-7.176

>  <homo_lumo_gap>
8.259

>  <logP>
1.019

>  <lumo_energy>
1.083

>  <melting_point>
-27.78

>  <molecular_refractivity>
36.09

>  <oscillator_strength_1>
0.0008

>  <oscillator_strength_2>
0.0014

>  <oscillator_strength_3>
0.0001

>  <oscillator_strength_4>
0.0029

>  <open_babel_can_smiles>
CCOC(C#C)OCC

>  <mulliken_charges>
21
1   -0.524604
2   -0.455493
3   -0.454659
4   0.361411
5   -0.028867
6   -0.015191
7   0.250426
8   -0.476797
9   -0.481031
10   0.197425
11   0.144842
12   0.159067
13   0.154923
14   0.145369
15   0.161268
16   0.159557
17   0.142284
18   0.141184
19   0.125609
20   0.143886
21   0.149392

>  <lowdin_charges>
21
1   -0.22904
2   -0.444862
3   -0.446832
4   -0.048707
5   -0.127248
6   -0.128372
7   0.109681
8   -0.262834
9   -0.26011
10   0.206057
11   0.155033
12   0.156205
13   0.152847
14   0.153731
15   0.159
16   0.158233
17   0.138887
18   0.136332
19   0.130934
20   0.13968
21   0.151384

$$$$

