PCCDB-ID:  2360
public computational chemistry database (PCCDB) project, http://pccdb.org

 20 19  0  0  1  0  0  0  0  0999 V2000
    0.8378   -0.5778    1.5906 C   0  0  0  0  0  0  0  0  0  0  0  0
   -0.0240   -1.6079    0.8340 C   0  0  1  0  0  0  0  0  0  0  0  0
   -0.8004    0.1823    3.2742 C   0  0  0  0  0  0  0  0  0  0  0  0
    0.5299   -1.7943   -0.5932 C   0  0  0  0  0  0  0  0  0  0  0  0
   -0.9237    0.4216    4.7935 C   0  0  0  0  0  0  0  0  0  0  0  0
   -0.1797   -2.9256    1.4648 N   0  0  0  0  0  0  0  0  0  0  0  0
    0.3998   -0.3645    2.9650 N   0  0  0  0  0  0  0  0  0  0  0  0
   -1.6924    0.4483    2.4834 O   0  0  0  0  0  0  0  0  0  0  0  0
    1.0848   -0.9132   -1.2080 O   0  0  0  0  0  0  0  0  0  0  0  0
    0.3175   -3.0208   -1.0923 O   0  0  0  0  0  0  0  0  0  0  0  0
   -2.1077    0.9423    5.1255 O   0  0  0  0  0  0  0  0  0  0  0  0
   -0.0371    0.1623    5.5821 O   0  0  0  0  0  0  0  0  0  0  0  0
    0.8169    0.3617    1.0307 H   0  0  0  0  0  0  0  0  0  0  0  0
    1.8787   -0.9141    1.6283 H   0  0  0  0  0  0  0  0  0  0  0  0
   -1.0282   -1.1836    0.7264 H   0  0  0  0  0  0  0  0  0  0  0  0
    0.6852   -3.2250    1.9140 H   0  0  0  0  0  0  0  0  0  0  0  0
   -0.8994   -2.9063    2.1824 H   0  0  0  0  0  0  0  0  0  0  0  0
    1.0524   -0.4691    3.7316 H   0  0  0  0  0  0  0  0  0  0  0  0
   -0.0975   -3.5294   -0.3519 H   0  0  0  0  0  0  0  0  0  0  0  0
   -2.0967    1.0684    6.0937 H   0  0  0  0  0  0  0  0  0  0  0  0
  1 14  1  0  0  0  0
  1  7  1  0  0  0  0
  2 15  1  6  0  0  0
  2  6  1  0  0  0  0
  2  1  1  0  0  0  0
  3  5  1  0  0  0  0
  4  2  1  0  0  0  0
  5 11  1  0  0  0  0
  5 12  2  0  0  0  0
  6 16  1  0  0  0  0
  6 17  1  0  0  0  0
  7  3  1  0  0  0  0
  7 18  1  0  0  0  0
  8  3  2  0  0  0  0
  9  4  2  0  0  0  0
 10  4  1  0  0  0  0
 10 19  1  0  0  0  0
 11 20  1  0  0  0  0
 13  1  1  0  0  0  0
M  END
>  <HBA>
7

>  <HBD>
4

>  <TPSA>
129.72

>  <cid>
2360

>  <dipole>
5.96

>  <excitation_energy_1>
3.984

>  <excitation_energy_2>
4.57

>  <excitation_energy_3>
5.338

>  <excitation_energy_4>
5.456

>  <homo_energy>
-6.983

>  <homo_lumo_gap>
5.146

>  <logP>
-1.31

>  <lumo_energy>
-1.837

>  <melting_point>
231.24

>  <molecular_refractivity>
35.4

>  <oscillator_strength_1>
0.0004

>  <oscillator_strength_2>
0.0281

>  <oscillator_strength_3>
0.0415

>  <oscillator_strength_4>
0.002

>  <open_babel_can_smiles>
N[C@H](C(=O)O)CNC(=O)C(=O)O

>  <mulliken_charges>
20
1   -0.13396
2   -0.110507
3   0.551394
4   0.62105
5   0.530904
6   -0.764761
7   -0.603388
8   -0.494766
9   -0.466468
10   -0.580235
11   -0.529406
12   -0.470472
13   0.20623
14   0.157729
15   0.22193
16   0.316595
17   0.332984
18   0.359928
19   0.433565
20   0.421654

>  <lowdin_charges>
20
1   -0.201128
2   -0.122219
3   0.122808
4   0.179099
5   0.169644
6   -0.542879
7   -0.259652
8   -0.272422
9   -0.256429
10   -0.352509
11   -0.303574
12   -0.263212
13   0.181031
14   0.158025
15   0.187841
16   0.265489
17   0.277179
18   0.301744
19   0.362146
20   0.369018

$$$$

