PCCDB-ID:  13904
public computational chemistry database (PCCDB) project, http://pccdb.org

 29 29  0  0  1  0  0  0  0  0999 V2000
    2.4660    1.2423    0.9579 C   0  0  0  0  0  0  0  0  0  0  0  0
    1.5911   -1.0538    0.3318 C   0  0  0  0  0  0  0  0  0  0  0  0
    5.3238    0.7514   -5.4085 C   0  0  0  0  0  0  0  0  0  0  0  0
    9.5683    0.7038   -0.7682 C   0  0  0  0  0  0  0  0  0  0  0  0
    2.8015   -0.1132    0.3137 C   0  0  0  0  0  0  0  0  0  0  0  0
    6.1072    0.6064   -3.2046 C   0  0  0  0  0  0  0  0  0  0  0  0
    4.4393    0.2465   -1.3839 C   0  0  0  0  0  0  0  0  0  0  0  0
    6.8314    0.4522   -1.0180 C   0  0  2  0  0  0  0  0  0  0  0  0
    6.4020    0.7592   -4.4383 N   0  0  0  0  0  0  0  0  0  0  0  0
    3.2154    0.0764   -1.0724 N   0  0  0  0  0  0  0  0  0  0  0  0
    4.8019    0.4319   -2.7103 N   0  0  0  0  0  0  0  0  0  0  0  0
    7.1337    0.6111   -2.2537 N   0  0  0  0  0  0  0  0  0  0  0  0
    5.5491    0.2765   -0.5303 N   0  0  0  0  0  0  0  0  0  0  0  0
    8.0764    0.4470    0.2518 S   0  0  0  0  0  0  0  0  0  0  0  0
    2.1181    1.1107    1.9891 H   0  0  0  0  0  0  0  0  0  0  0  0
    1.6763    1.7420    0.3864 H   0  0  0  0  0  0  0  0  0  0  0  0
    3.3386    1.9058    0.9728 H   0  0  0  0  0  0  0  0  0  0  0  0
    1.2432   -1.2250    1.3571 H   0  0  0  0  0  0  0  0  0  0  0  0
    1.8462   -2.0201   -0.1150 H   0  0  0  0  0  0  0  0  0  0  0  0
    0.7701   -0.6195   -0.2492 H   0  0  0  0  0  0  0  0  0  0  0  0
    5.7426    0.8884   -6.4095 H   0  0  0  0  0  0  0  0  0  0  0  0
    4.5957    1.5647   -5.2451 H   0  0  0  0  0  0  0  0  0  0  0  0
    4.7622   -0.1989   -5.4174 H   0  0  0  0  0  0  0  0  0  0  0  0
   10.4108    0.6728   -0.0732 H   0  0  0  0  0  0  0  0  0  0  0  0
    9.5210    1.6712   -1.2689 H   0  0  0  0  0  0  0  0  0  0  0  0
    9.6545   -0.0894   -1.5110 H   0  0  0  0  0  0  0  0  0  0  0  0
    3.5917   -0.5971    0.9202 H   0  0  0  0  0  0  0  0  0  0  0  0
    4.0220    0.4102   -3.3527 H   0  0  0  0  0  0  0  0  0  0  0  0
    5.3941    0.1514    0.4596 H   0  0  0  0  0  0  0  0  0  0  0  0
  1 17  1  0  0  0  0
  1 15  1  0  0  0  0
  2 18  1  0  0  0  0
  3 22  1  0  0  0  0
  3  9  1  0  0  0  0
  4 24  1  0  0  0  0
  4 14  1  0  0  0  0
  5  2  1  0  0  0  0
  5 27  1  0  0  0  0
  5  1  1  0  0  0  0
  6 11  1  0  0  0  0
  6 12  2  0  0  0  0
  7 10  2  0  0  0  0
  7 13  1  0  0  0  0
  8 13  1  0  0  0  0
  8 14  1  1  0  0  0
  9  6  1  0  0  0  0
 10  5  1  0  0  0  0
 11  7  1  0  0  0  0
 12  8  1  0  0  0  0
 13 29  1  0  0  0  0
 16  1  1  0  0  0  0
 19  2  1  0  0  0  0
 20  2  1  0  0  0  0
 21  3  1  0  0  0  0
 23  3  1  0  0  0  0
 25  4  1  0  0  0  0
 26  4  1  0  0  0  0
 28 11  1  0  0  0  0
M  RAD  2   8   2   9   2
M  END
>  <HBA>
6

>  <HBD>
2

>  <TPSA>
88.03

>  <cid>
13904

>  <dipole>
2.67

>  <excitation_energy_1>
4.874

>  <excitation_energy_2>
4.921

>  <excitation_energy_3>
5.008

>  <excitation_energy_4>
5.068

>  <homo_energy>
-6.065

>  <homo_lumo_gap>
5.472

>  <logP>
1.601

>  <lumo_energy>
-0.593

>  <melting_point>
132.43

>  <molecular_refractivity>
59.77

>  <oscillator_strength_1>
0.0883

>  <oscillator_strength_2>
0.0003

>  <oscillator_strength_3>
0.0025

>  <oscillator_strength_4>
0.1022

>  <open_babel_can_smiles>
CS[C]1N/C(=N\C(C)C)/NC(=N1)[N]C

>  <mulliken_charges>
29
1   -0.432657
2   -0.427777
3   -0.347337
4   -0.573188
5   0.009245
6   0.647925
7   0.746683
8   0.324214
9   -0.43892
10   -0.488795
11   -0.717982
12   -0.475581
13   -0.694318
14   0.131524
15   0.142237
16   0.159639
17   0.137739
18   0.134927
19   0.148895
20   0.153477
21   0.166643
22   0.138765
23   0.138096
24   0.182954
25   0.212718
26   0.215701
27   0.095071
28   0.348739
29   0.36136

>  <lowdin_charges>
29
1   -0.450343
2   -0.442453
3   -0.367694
4   -0.526817
5   -0.0549
6   0.119379
7   0.136843
8   -0.003347
9   -0.223516
10   -0.257516
11   -0.257379
12   -0.201696
13   -0.250124
14   0.168452
15   0.149445
16   0.158981
17   0.146596
18   0.145688
19   0.153737
20   0.156167
21   0.15813
22   0.137646
23   0.136627
24   0.178398
25   0.184316
26   0.187311
27   0.112396
28   0.303729
29   0.301943

$$$$

