PCCDB-ID:  62554
public computational chemistry database (PCCDB) project, http://pccdb.org

 15 16  0  0  1  0  0  0  0  0999 V2000
   -0.4208    0.8149   -0.2822 C   0  0  0  0  0  0  0  0  0  0  0  0
   -0.1742   -0.5004   -0.7113 C   0  0  0  0  0  0  0  0  0  0  0  0
    0.6513    1.4309    0.3856 C   0  0  0  0  0  0  0  0  0  0  0  0
    1.4080   -0.7574    1.1097 C   0  0  0  0  0  0  0  0  0  0  0  0
    0.8391   -1.2490   -0.0720 C   0  0  2  0  0  0  0  0  0  0  0  0
    1.6375    0.6186    0.9881 C   0  0  1  0  0  0  0  0  0  0  0  0
    2.0944   -1.5225   -0.8995 C   0  0  0  0  0  0  0  0  0  0  0  0
    3.0098    0.6185    0.3166 C   0  0  0  0  0  0  0  0  0  0  0  0
    2.3186   -2.2806   -1.7913 O   0  0  0  0  0  0  0  0  0  0  0  0
    3.8994    1.4114    0.3045 O   0  0  0  0  0  0  0  0  0  0  0  0
    3.1010   -0.5144   -0.5955 O   0  0  0  0  0  0  0  0  0  0  0  0
   -1.2318    1.4013   -0.7037 H   0  0  0  0  0  0  0  0  0  0  0  0
   -0.6060   -0.8563   -1.6428 H   0  0  0  0  0  0  0  0  0  0  0  0
    0.8263    2.4962    0.2610 H   0  0  0  0  0  0  0  0  0  0  0  0
    2.1881   -1.3566    1.5781 H   0  0  0  0  0  0  0  0  0  0  0  0
  1  3  1  0  0  0  0
  2  1  1  0  0  0  0
  2  5  1  0  0  0  0
  3  6  1  0  0  0  0
  4 15  1  0  0  0  0
  5  7  1  6  0  0  0
  5  4  1  0  0  0  0
  6  8  1  6  0  0  0
  6  4  1  0  0  0  0
  7 11  1  0  0  0  0
  9  7  2  0  0  0  0
 10  8  2  0  0  0  0
 11  8  1  0  0  0  0
 12  1  1  0  0  0  0
 13  2  1  0  0  0  0
 14  3  1  0  0  0  0
M  RAD  6   1   2   2   2   3   2   4   2   5   2   6   2
M  END
>  <HBA>
3

>  <HBD>
0

>  <TPSA>
43.37

>  <cid>
62554

>  <dipole>
4.32

>  <excitation_energy_1>
2.176

>  <excitation_energy_2>
3.347

>  <excitation_energy_3>
3.791

>  <excitation_energy_4>
3.986

>  <homo_energy>
-6.645

>  <homo_lumo_gap>
3.328

>  <logP>
0.997

>  <lumo_energy>
-3.317

>  <melting_point>
89.07

>  <molecular_refractivity>
36.19

>  <oscillator_strength_1>
0.007

>  <oscillator_strength_2>
0.0156

>  <oscillator_strength_3>
0.0019

>  <oscillator_strength_4>
0.0512

>  <open_babel_can_smiles>
O=C1OC(=O)[C]2[CH][C]1[CH][CH][CH]2

>  <mulliken_charges>
15
1   -0.110985
2   -0.142461
3   -0.142506
4   -0.158106
5   -0.030269
6   -0.029933
7   0.583247
8   0.582874
9   -0.388845
10   -0.388681
11   -0.482465
12   0.160229
13   0.181765
14   0.181744
15   0.184391

>  <lowdin_charges>
15
1   -0.13229
2   -0.142785
3   -0.141294
4   -0.078293
5   -0.072264
6   -0.071699
7   0.239995
8   0.242325
9   -0.166481
10   -0.167281
11   -0.225004
12   0.174489
13   0.184221
14   0.18261
15   0.173748

$$$$

