PCCDB-ID:  62424
public computational chemistry database (PCCDB) project, http://pccdb.org

 18 17  0  0  1  0  0  0  0  0999 V2000
    0.8492   -0.0288   -0.0343 C   0  0  0  0  0  0  0  0  0  0  0  0
    5.0071    0.0512    2.9007 C   0  0  0  0  0  0  0  0  0  0  0  0
    2.3810   -0.0660   -0.0267 C   0  0  0  0  0  0  0  0  0  0  0  0
    2.9643   -0.1291    1.3892 C   0  0  0  0  0  0  0  0  0  0  0  0
    4.4998   -0.1400    1.4685 C   0  0  2  0  0  0  0  0  0  0  0  0
    5.2590   -1.6451    0.6846 S   0  0  0  0  0  0  0  0  0  0  0  0
    0.4589    0.0246   -1.0568 H   0  0  0  0  0  0  0  0  0  0  0  0
    0.4665    0.8411    0.5140 H   0  0  0  0  0  0  0  0  0  0  0  0
    0.4284   -0.9266    0.4353 H   0  0  0  0  0  0  0  0  0  0  0  0
    4.6335    0.9970    3.3138 H   0  0  0  0  0  0  0  0  0  0  0  0
    6.1000    0.0647    2.9376 H   0  0  0  0  0  0  0  0  0  0  0  0
    4.6551   -0.7578    3.5527 H   0  0  0  0  0  0  0  0  0  0  0  0
    2.7714    0.8271   -0.5357 H   0  0  0  0  0  0  0  0  0  0  0  0
    2.7355   -0.9286   -0.6027 H   0  0  0  0  0  0  0  0  0  0  0  0
    2.5725   -1.0120    1.9157 H   0  0  0  0  0  0  0  0  0  0  0  0
    2.6121    0.7441    1.9599 H   0  0  0  0  0  0  0  0  0  0  0  0
    4.8927    0.6706    0.8412 H   0  0  0  0  0  0  0  0  0  0  0  0
    4.8027   -2.5326    1.5976 H   0  0  0  0  0  0  0  0  0  0  0  0
  1  3  1  0  0  0  0
  1  9  1  0  0  0  0
  1  8  1  0  0  0  0
  2 11  1  0  0  0  0
  2 10  1  0  0  0  0
  2 12  1  0  0  0  0
  3  4  1  0  0  0  0
  4  5  1  0  0  0  0
  4 15  1  0  0  0  0
  4 16  1  0  0  0  0
  5 17  1  6  0  0  0
  5  2  1  0  0  0  0
  6  5  1  0  0  0  0
  6 18  1  0  0  0  0
  7  1  1  0  0  0  0
 13  3  1  0  0  0  0
 14  3  1  0  0  0  0
M  END
>  <HBA>
1

>  <HBD>
1

>  <TPSA>
38.8

>  <cid>
62424

>  <dipole>
1.75

>  <excitation_energy_1>
5.32

>  <excitation_energy_2>
5.819

>  <excitation_energy_3>
6.206

>  <excitation_energy_4>
6.432

>  <homo_energy>
-6.324

>  <homo_lumo_gap>
7.11

>  <logP>
2.105

>  <lumo_energy>
0.786

>  <melting_point>
-5.64

>  <molecular_refractivity>
34.08

>  <oscillator_strength_1>
0.0118

>  <oscillator_strength_2>
0.0439

>  <oscillator_strength_3>
0.0037

>  <oscillator_strength_4>
0.0048

>  <open_babel_can_smiles>
CCC[C@H](S)C

>  <mulliken_charges>
18
1   -0.443398
2   -0.434709
3   -0.253162
4   -0.233491
5   -0.24083
6   -0.093955
7   0.145096
8   0.139553
9   0.142335
10   0.14786
11   0.165848
12   0.145887
13   0.1282
14   0.162768
15   0.13144
16   0.134152
17   0.1678
18   0.088607

>  <lowdin_charges>
18
1   -0.444519
2   -0.445246
3   -0.277535
4   -0.279136
5   -0.211618
6   -0.099614
7   0.150439
8   0.145643
9   0.147283
10   0.151477
11   0.159934
12   0.150763
13   0.139142
14   0.155606
15   0.14177
16   0.143933
17   0.160819
18   0.110858

$$$$

