PCCDB-ID:  14042
public computational chemistry database (PCCDB) project, http://pccdb.org

 18 17  0  0  1  0  0  0  0  0999 V2000
    3.2364    1.5706    0.5264 C   0  0  0  0  0  0  0  0  0  0  0  0
    1.2572   -0.8439   -3.2557 C   0  0  0  0  0  0  0  0  0  0  0  0
    2.3025    0.7218    0.0960 C   0  0  0  0  0  0  0  0  0  0  0  0
    1.2054   -1.2175   -1.9775 C   0  0  0  0  0  0  0  0  0  0  0  0
    2.3738   -0.7818    0.2658 C   0  0  1  0  0  0  0  0  0  0  0  0
    2.4081   -1.4991   -1.1139 C   0  0  2  0  0  0  0  0  0  0  0  0
    3.5014   -1.2003    1.0135 O   0  0  0  0  0  0  0  0  0  0  0  0
    3.6518   -1.1984   -1.7468 O   0  0  0  0  0  0  0  0  0  0  0  0
    3.1473    2.6424    0.3723 H   0  0  0  0  0  0  0  0  0  0  0  0
    4.1024    1.2141    1.0763 H   0  0  0  0  0  0  0  0  0  0  0  0
    0.3552   -0.6568   -3.8309 H   0  0  0  0  0  0  0  0  0  0  0  0
    2.2061   -0.7332   -3.7728 H   0  0  0  0  0  0  0  0  0  0  0  0
    1.4262    1.0949   -0.4342 H   0  0  0  0  0  0  0  0  0  0  0  0
    0.2400   -1.3486   -1.4866 H   0  0  0  0  0  0  0  0  0  0  0  0
    1.4858   -1.1253    0.8149 H   0  0  0  0  0  0  0  0  0  0  0  0
    2.4589   -2.5751   -0.9016 H   0  0  0  0  0  0  0  0  0  0  0  0
    4.2293   -1.2437    0.3665 H   0  0  0  0  0  0  0  0  0  0  0  0
    3.6654   -0.2337   -1.8841 H   0  0  0  0  0  0  0  0  0  0  0  0
  1 10  1  0  0  0  0
  2  4  2  0  0  0  0
  3  5  1  0  0  0  0
  3  1  2  0  0  0  0
  4 14  1  0  0  0  0
  4  6  1  0  0  0  0
  5 15  1  1  0  0  0
  5  7  1  0  0  0  0
  6 16  1  1  0  0  0
  6  5  1  0  0  0  0
  8  6  1  0  0  0  0
  9  1  1  0  0  0  0
 11  2  1  0  0  0  0
 12  2  1  0  0  0  0
 13  3  1  0  0  0  0
 17  7  1  0  0  0  0
 18  8  1  0  0  0  0
M  END
>  <HBA>
2

>  <HBD>
2

>  <TPSA>
40.46

>  <cid>
14042

>  <dipole>
2.06

>  <excitation_energy_1>
6.133

>  <excitation_energy_2>
6.296

>  <excitation_energy_3>
6.431

>  <excitation_energy_4>
6.536

>  <homo_energy>
-7.007

>  <homo_lumo_gap>
7.241

>  <logP>
0.08

>  <lumo_energy>
0.234

>  <melting_point>
-30.52

>  <molecular_refractivity>
32.33

>  <oscillator_strength_1>
0.0089

>  <oscillator_strength_2>
0.0518

>  <oscillator_strength_3>
0.0122

>  <oscillator_strength_4>
0.0182

>  <open_babel_can_smiles>
C=C[C@H]([C@H](C=C)O)O

>  <mulliken_charges>
18
1   -0.339021
2   -0.34328
3   -0.102432
4   -0.080643
5   0.094883
6   0.06183
7   -0.630331
8   -0.63063
9   0.143075
10   0.156776
11   0.145837
12   0.149976
13   0.137408
14   0.132494
15   0.143178
16   0.167781
17   0.39937
18   0.393727

>  <lowdin_charges>
18
1   -0.332309
2   -0.334653
3   -0.183175
4   -0.173184
5   -0.020233
6   -0.017022
7   -0.453192
8   -0.449969
9   0.158891
10   0.16616
11   0.163456
12   0.16284
13   0.157976
14   0.1565
15   0.151868
16   0.159469
17   0.344547
18   0.342031

$$$$

