PCCDB-ID:  2080
public computational chemistry database (PCCDB) project, http://pccdb.org

 33 33  0  0  1  0  0  0  0  0999 V2000
    2.5148   -0.5972   -1.5227 C   0  0  0  0  0  0  0  0  0  0  0  0
    9.2075    1.5042    1.0665 C   0  0  0  0  0  0  0  0  0  0  0  0
    8.8986    0.6563    2.1310 C   0  0  0  0  0  0  0  0  0  0  0  0
    8.3373    1.5896   -0.0220 C   0  0  0  0  0  0  0  0  0  0  0  0
    7.7282   -0.1033    2.1059 C   0  0  0  0  0  0  0  0  0  0  0  0
    7.1668    0.8312   -0.0430 C   0  0  0  0  0  0  0  0  0  0  0  0
    5.5745   -0.8472    1.0012 C   0  0  0  0  0  0  0  0  0  0  0  0
    1.9816    0.1790   -0.3087 C   0  0  1  0  0  0  0  0  0  0  0  0
    6.8457   -0.0243    1.0193 C   0  0  0  0  0  0  0  0  0  0  0  0
    4.3227   -0.1511    1.6150 C   0  0  1  0  0  0  0  0  0  0  0  0
    3.0096    1.2339    0.1543 C   0  0  0  0  0  0  0  0  0  0  0  0
    4.6120    0.1586    3.1014 C   0  0  0  0  0  0  0  0  0  0  0  0
    0.6645    0.7168   -0.6367 N   0  0  0  0  0  0  0  0  0  0  0  0
    3.9965    1.0914    0.9432 N   0  0  0  0  0  0  0  0  0  0  0  0
    2.8337    2.4672   -0.3814 O   0  0  0  0  0  0  0  0  0  0  0  0
    4.7285   -0.7166    3.9285 O   0  0  0  0  0  0  0  0  0  0  0  0
    4.7499    1.4596    3.3856 O   0  0  0  0  0  0  0  0  0  0  0  0
    3.4401   -1.1253   -1.2808 H   0  0  0  0  0  0  0  0  0  0  0  0
    2.7255    0.0843   -2.3563 H   0  0  0  0  0  0  0  0  0  0  0  0
    1.7658   -1.3257   -1.8469 H   0  0  0  0  0  0  0  0  0  0  0  0
   10.1209    2.0930    1.0834 H   0  0  0  0  0  0  0  0  0  0  0  0
    9.5695    0.5822    2.9828 H   0  0  0  0  0  0  0  0  0  0  0  0
    8.5699    2.2461   -0.8565 H   0  0  0  0  0  0  0  0  0  0  0  0
    7.4901   -0.7576    2.9407 H   0  0  0  0  0  0  0  0  0  0  0  0
    6.4925    0.9046   -0.8925 H   0  0  0  0  0  0  0  0  0  0  0  0
    5.7182   -1.7728    1.5684 H   0  0  0  0  0  0  0  0  0  0  0  0
    5.3289   -1.1306   -0.0292 H   0  0  0  0  0  0  0  0  0  0  0  0
    1.8403   -0.5247    0.5179 H   0  0  0  0  0  0  0  0  0  0  0  0
    3.5117   -0.8920    1.6176 H   0  0  0  0  0  0  0  0  0  0  0  0
    0.5796    1.1125   -1.5676 H   0  0  0  0  0  0  0  0  0  0  0  0
    0.2582    1.3257    0.0659 H   0  0  0  0  0  0  0  0  0  0  0  0
    1.9725    2.4592   -0.8366 H   0  0  0  0  0  0  0  0  0  0  0  0
    4.6208    1.9354    2.5295 H   0  0  0  0  0  0  0  0  0  0  0  0
  1 18  1  0  0  0  0
  1  8  1  0  0  0  0
  2 21  1  0  0  0  0
  2  3  2  0  0  0  0
  3 22  1  0  0  0  0
  4  2  1  0  0  0  0
  5  3  1  0  0  0  0
  5 24  1  0  0  0  0
  6  4  2  0  0  0  0
  6  9  1  0  0  0  0
  7  9  1  0  0  0  0
  7 26  1  0  0  0  0
  7 10  1  0  0  0  0
  8 11  1  0  0  0  0
  8 28  1  1  0  0  0
  9  5  2  0  0  0  0
 10 29  1  6  0  0  0
 10 12  1  0  0  0  0
 11 14  2  0  0  0  0
 12 17  1  0  0  0  0
 12 16  2  0  0  0  0
 13  8  1  0  0  0  0
 13 31  1  0  0  0  0
 14 10  1  0  0  0  0
 15 11  1  0  0  0  0
 19  1  1  0  0  0  0
 20  1  1  0  0  0  0
 23  4  1  0  0  0  0
 25  6  1  0  0  0  0
 27  7  1  0  0  0  0
 30 13  1  0  0  0  0
 32 15  1  0  0  0  0
 33 17  1  0  0  0  0
M  END
>  <HBA>
5

>  <HBD>
3

>  <TPSA>
92.42

>  <cid>
2080

>  <dipole>
6.99

>  <excitation_energy_1>
5.22

>  <excitation_energy_2>
5.303

>  <excitation_energy_3>
5.347

>  <excitation_energy_4>
5.49

>  <homo_energy>
-6.381

>  <homo_lumo_gap>
6.153

>  <logP>
1.237

>  <lumo_energy>
-0.229

>  <melting_point>
183.81

>  <molecular_refractivity>
62.92

>  <oscillator_strength_1>
0.0073

>  <oscillator_strength_2>
0.0049

>  <oscillator_strength_3>
0.0013

>  <oscillator_strength_4>
0.005

>  <open_babel_can_smiles>
C[C@@H](/C(=N\[C@H](C(=O)O)Cc1ccccc1)/O)N

>  <mulliken_charges>
33
1   -0.459047
2   -0.128945
3   -0.128477
4   -0.130664
5   -0.181475
6   -0.166271
7   -0.3659
8   -0.044718
9   0.161545
10   -0.080129
11   0.485444
12   0.615734
13   -0.740196
14   -0.476465
15   -0.571534
16   -0.479259
17   -0.57454
18   0.177421
19   0.151394
20   0.178775
21   0.126997
22   0.131453
23   0.125949
24   0.149843
25   0.119586
26   0.174973
27   0.148003
28   0.175636
29   0.149533
30   0.312526
31   0.323806
32   0.385352
33   0.433653

>  <lowdin_charges>
33
1   -0.444438
2   -0.157765
3   -0.154338
4   -0.157965
5   -0.16313
6   -0.161411
7   -0.270539
8   -0.090719
9   -0.011147
10   -0.103348
11   0.120244
12   0.185018
13   -0.550319
14   -0.225508
15   -0.355739
16   -0.267851
17   -0.345432
18   0.165876
19   0.154069
20   0.16919
21   0.156495
22   0.159233
23   0.156547
24   0.166989
25   0.153927
26   0.168715
27   0.148019
28   0.163958
29   0.150675
30   0.26525
31   0.273032
32   0.340741
33   0.36167

$$$$

