PCCDB-ID:  27826
public computational chemistry database (PCCDB) project, http://pccdb.org

 20 20  0  0  0  0  0  0  0  0999 V2000
    1.0655    0.1716    0.2802 C   0  0  0  0  0  0  0  0  0  0  0  0
    2.9592    1.2932   -0.7195 C   0  0  0  0  0  0  0  0  0  0  0  0
    2.8361   -1.1115   -0.7519 C   0  0  0  0  0  0  0  0  0  0  0  0
    4.4830    1.2528   -0.8706 C   0  0  0  0  0  0  0  0  0  0  0  0
    4.3545   -1.2349   -0.9104 C   0  0  0  0  0  0  0  0  0  0  0  0
    5.6343    0.0567   -2.5933 N   0  0  0  0  0  0  0  0  0  0  0  0
    2.4909    0.1024   -0.0108 N   0  0  0  0  0  0  0  0  0  0  0  0
    4.8861   -0.0025   -1.4801 N   0  0  0  0  0  0  0  0  0  0  0  0
    5.9216   -1.0243   -3.0983 O   0  0  0  0  0  0  0  0  0  0  0  0
    0.8563    1.0609    0.8844 H   0  0  0  0  0  0  0  0  0  0  0  0
    0.7654   -0.7097    0.8572 H   0  0  0  0  0  0  0  0  0  0  0  0
    0.4350    0.2179   -0.6288 H   0  0  0  0  0  0  0  0  0  0  0  0
    2.4954    1.3858   -1.7222 H   0  0  0  0  0  0  0  0  0  0  0  0
    2.6783    2.1807   -0.1409 H   0  0  0  0  0  0  0  0  0  0  0  0
    2.4625   -1.9795   -0.1965 H   0  0  0  0  0  0  0  0  0  0  0  0
    2.3622   -1.1280   -1.7537 H   0  0  0  0  0  0  0  0  0  0  0  0
    4.9501    1.3446    0.1192 H   0  0  0  0  0  0  0  0  0  0  0  0
    4.8469    2.0584   -1.5134 H   0  0  0  0  0  0  0  0  0  0  0  0
    4.6330   -2.0458   -1.5858 H   0  0  0  0  0  0  0  0  0  0  0  0
    4.8200   -1.4055    0.0688 H   0  0  0  0  0  0  0  0  0  0  0  0
  1 11  1  0  0  0  0
  1 10  1  0  0  0  0
  2 14  1  0  0  0  0
  2  7  1  0  0  0  0
  3 15  1  0  0  0  0
  3  7  1  0  0  0  0
  4  2  1  0  0  0  0
  4 17  1  0  0  0  0
  5  3  1  0  0  0  0
  5 20  1  0  0  0  0
  6  8  1  0  0  0  0
  7  1  1  0  0  0  0
  8  5  1  0  0  0  0
  8  4  1  0  0  0  0
  9  6  2  0  0  0  0
 12  1  1  0  0  0  0
 13  2  1  0  0  0  0
 16  3  1  0  0  0  0
 18  4  1  0  0  0  0
 19  5  1  0  0  0  0
M  END
>  <HBA>
4

>  <HBD>
0

>  <TPSA>
35.91

>  <cid>
27826

>  <dipole>
4.18

>  <excitation_energy_1>
3.402

>  <excitation_energy_2>
4.559

>  <excitation_energy_3>
5.688

>  <excitation_energy_4>
5.765

>  <homo_energy>
-6.019

>  <homo_lumo_gap>
5.249

>  <logP>
-0.209

>  <lumo_energy>
-0.77

>  <melting_point>
21.0

>  <molecular_refractivity>
42.4

>  <oscillator_strength_1>
0.0008

>  <oscillator_strength_2>
0.0122

>  <oscillator_strength_3>
0.0746

>  <oscillator_strength_4>
0.1051

>  <open_babel_can_smiles>
O=NN1CCN(CC1)C

>  <mulliken_charges>
20
1   -0.29481
2   -0.127504
3   -0.129036
4   -0.129762
5   -0.151577
6   0.147206
7   -0.386959
8   -0.229332
9   -0.379089
10   0.153076
11   0.153768
12   0.125508
13   0.125888
14   0.148065
15   0.14934
16   0.128528
17   0.160791
18   0.175338
19   0.195574
20   0.164988

>  <lowdin_charges>
20
1   -0.356703
2   -0.206691
3   -0.203626
4   -0.202823
5   -0.221944
6   0.054267
7   -0.190963
8   -0.047097
9   -0.273955
10   0.152956
11   0.153535
12   0.125758
13   0.123665
14   0.153856
15   0.154542
16   0.124966
17   0.152069
18   0.170662
19   0.180292
20   0.157234

$$$$

