PCCDB-ID:  43673
public computational chemistry database (PCCDB) project, http://pccdb.org

 28 29  0  0  1  0  0  0  0  0999 V2000
    1.6044    0.0683    1.1588 C   0  0  0  0  0  0  0  0  0  0  0  0
    3.7447   -0.9644    0.3945 C   0  0  0  0  0  0  0  0  0  0  0  0
    1.7912   -0.8516   -1.1548 C   0  0  0  0  0  0  0  0  0  0  0  0
    4.0025    1.1982   -1.7924 C   0  0  0  0  0  0  0  0  0  0  0  0
    3.8233    2.1131    0.5269 C   0  0  0  0  0  0  0  0  0  0  0  0
    1.8609    2.2289   -1.0183 C   0  0  0  0  0  0  0  0  0  0  0  0
    2.5564   -0.0795   -0.0529 C   0  0  0  0  0  0  0  0  0  0  0  0
    3.0511    1.3375   -0.5739 C   0  0  1  0  0  0  0  0  0  0  0  0
    4.3538    5.0773   -1.9468 O   0  0  0  0  0  0  0  0  0  0  0  0
    4.4631    2.4867   -2.2737 O   0  0  0  0  0  0  0  0  0  0  0  0
    4.2753    3.4107    0.0637 O   0  0  0  0  0  0  0  0  0  0  0  0
    2.3011    3.5244   -1.4987 O   0  0  0  0  0  0  0  0  0  0  0  0
    3.8993    3.7710   -1.4676 P   0  0  1  0  0  0  0  0  0  0  0  0
    1.2880   -0.9264    1.4914 H   0  0  0  0  0  0  0  0  0  0  0  0
    0.6965    0.6283    0.9132 H   0  0  0  0  0  0  0  0  0  0  0  0
    2.0833    0.5546    2.0145 H   0  0  0  0  0  0  0  0  0  0  0  0
    3.3617   -1.9301    0.7425 H   0  0  0  0  0  0  0  0  0  0  0  0
    4.3085   -0.5264    1.2243 H   0  0  0  0  0  0  0  0  0  0  0  0
    4.4450   -1.1716   -0.4206 H   0  0  0  0  0  0  0  0  0  0  0  0
    1.4632   -1.8177   -0.7553 H   0  0  0  0  0  0  0  0  0  0  0  0
    2.4124   -1.0620   -2.0313 H   0  0  0  0  0  0  0  0  0  0  0  0
    0.8937   -0.3248   -1.4944 H   0  0  0  0  0  0  0  0  0  0  0  0
    3.5016    0.7110   -2.6333 H   0  0  0  0  0  0  0  0  0  0  0  0
    4.8955    0.6232   -1.5339 H   0  0  0  0  0  0  0  0  0  0  0  0
    4.7146    1.5668    0.8465 H   0  0  0  0  0  0  0  0  0  0  0  0
    3.1922    2.2969    1.4005 H   0  0  0  0  0  0  0  0  0  0  0  0
    1.1757    2.4190   -0.1882 H   0  0  0  0  0  0  0  0  0  0  0  0
    1.3023    1.7660   -1.8362 H   0  0  0  0  0  0  0  0  0  0  0  0
  1 14  1  0  0  0  0
  1 16  1  0  0  0  0
  2 17  1  0  0  0  0
  2 18  1  0  0  0  0
  3 20  1  0  0  0  0
  3  7  1  0  0  0  0
  4 24  1  0  0  0  0
  4  8  1  0  0  0  0
  5 25  1  0  0  0  0
  5 26  1  0  0  0  0
  6  8  1  0  0  0  0
  6 27  1  0  0  0  0
  7  2  1  0  0  0  0
  7  1  1  0  0  0  0
  8  7  1  1  0  0  0
  8  5  1  0  0  0  0
 10  4  1  0  0  0  0
 10 13  1  0  0  0  0
 11  5  1  0  0  0  0
 12 13  1  0  0  0  0
 12  6  1  0  0  0  0
 13  9  2  6  0  0  0
 13 11  1  0  0  0  0
 15  1  1  0  0  0  0
 19  2  1  0  0  0  0
 21  3  1  0  0  0  0
 22  3  1  0  0  0  0
 23  4  1  0  0  0  0
 28  6  1  0  0  0  0
M  END
>  <HBA>
4

>  <HBD>
0

>  <TPSA>
54.57

>  <cid>
43673

>  <dipole>
8.54

>  <excitation_energy_1>
6.852

>  <excitation_energy_2>
7.208

>  <excitation_energy_3>
7.21

>  <excitation_energy_4>
7.222

>  <homo_energy>
-7.818

>  <homo_lumo_gap>
8.762

>  <logP>
2.204

>  <lumo_energy>
0.944

>  <melting_point>
45.57

>  <molecular_refractivity>
47.74

>  <oscillator_strength_1>
0.0

>  <oscillator_strength_2>
0.0024

>  <oscillator_strength_3>
0.0024

>  <oscillator_strength_4>
0.0

>  <open_babel_can_smiles>
CC([C@]12CO[P@](=O)(OC1)OC2)(C)C

>  <mulliken_charges>
28
1   -0.46604
2   -0.46588
3   -0.466319
4   -0.028021
5   -0.02756
6   -0.027487
7   0.085579
8   -0.109672
9   -0.496924
10   -0.544132
11   -0.543919
12   -0.544074
13   1.259705
14   0.154373
15   0.153323
16   0.153345
17   0.1544
18   0.15338
19   0.153255
20   0.154483
21   0.153431
22   0.153341
23   0.165296
24   0.165225
25   0.165224
26   0.165205
27   0.165269
28   0.165196

>  <lowdin_charges>
28
1   -0.448512
2   -0.449438
3   -0.448758
4   -0.12563
5   -0.125406
6   -0.126223
7   0.019216
8   -0.052851
9   -0.535843
10   -0.395814
11   -0.39778
12   -0.398866
13   1.146696
14   0.157268
15   0.152904
16   0.153421
17   0.157537
18   0.15357
19   0.153371
20   0.157566
21   0.153157
22   0.153036
23   0.15828
24   0.157831
25   0.157837
26   0.157407
27   0.157666
28   0.158359

$$$$

