PCCDB-ID:  15756
public computational chemistry database (PCCDB) project, http://pccdb.org

 39 41  0  0  1  0  0  0  0  0999 V2000
    1.2726    2.1317   -0.4087 C   0  0  0  0  0  0  0  0  0  0  0  0
    1.5313   -7.2672   -0.0630 C   0  0  0  0  0  0  0  0  0  0  0  0
    0.3193    1.5265    0.5918 C   0  0  0  0  0  0  0  0  0  0  0  0
    1.8446    1.0735   -1.3638 C   0  0  0  0  0  0  0  0  0  0  0  0
    1.7732   -6.7362    1.1394 C   0  0  0  0  0  0  0  0  0  0  0  0
    0.6362   -6.6159   -1.0863 C   0  0  0  0  0  0  0  0  0  0  0  0
    0.1985    0.2118    0.8038 C   0  0  0  0  0  0  0  0  0  0  0  0
    2.2491   -0.1963   -0.6039 C   0  0  0  0  0  0  0  0  0  0  0  0
    1.1993   -5.4238    1.6139 C   0  0  0  0  0  0  0  0  0  0  0  0
   -0.2082   -5.4822   -0.4784 C   0  0  0  0  0  0  0  0  0  0  0  0
    1.7236   -3.8408   -0.2921 C   0  0  0  0  0  0  0  0  0  0  0  0
   -0.3118   -3.4712    1.0313 C   0  0  0  0  0  0  0  0  0  0  0  0
    1.0370   -0.8339    0.1002 C   0  0  1  0  0  0  0  0  0  0  0  0
    1.4983   -1.9109    1.1113 C   0  0  2  0  0  0  0  0  0  0  0  0
    0.6007   -4.5743    0.4695 C   0  0  2  0  0  0  0  0  0  0  0  0
    2.3673   -2.8707    0.5357 O   0  0  0  0  0  0  0  0  0  0  0  0
    0.4209   -2.5209    1.8041 O   0  0  0  0  0  0  0  0  0  0  0  0
    2.0905    2.6405    0.1264 H   0  0  0  0  0  0  0  0  0  0  0  0
    0.7615    2.9214   -0.9772 H   0  0  0  0  0  0  0  0  0  0  0  0
    1.9971   -8.2121   -0.3404 H   0  0  0  0  0  0  0  0  0  0  0  0
   -0.3026    2.2161    1.1620 H   0  0  0  0  0  0  0  0  0  0  0  0
    2.7035    1.4799   -1.9119 H   0  0  0  0  0  0  0  0  0  0  0  0
    1.0845    0.8170   -2.1153 H   0  0  0  0  0  0  0  0  0  0  0  0
    2.4233   -7.2635    1.8367 H   0  0  0  0  0  0  0  0  0  0  0  0
   -0.0283   -7.3670   -1.5347 H   0  0  0  0  0  0  0  0  0  0  0  0
    1.2450   -6.2372   -1.9226 H   0  0  0  0  0  0  0  0  0  0  0  0
   -0.5204   -0.1579    1.5317 H   0  0  0  0  0  0  0  0  0  0  0  0
    3.0070    0.0600    0.1515 H   0  0  0  0  0  0  0  0  0  0  0  0
    2.7171   -0.9223   -1.2764 H   0  0  0  0  0  0  0  0  0  0  0  0
    1.9701   -4.8409    2.1302 H   0  0  0  0  0  0  0  0  0  0  0  0
    0.4235   -5.6187    2.3715 H   0  0  0  0  0  0  0  0  0  0  0  0
   -1.0349   -5.9246    0.0952 H   0  0  0  0  0  0  0  0  0  0  0  0
   -0.6673   -4.8858   -1.2785 H   0  0  0  0  0  0  0  0  0  0  0  0
    1.3115   -3.3702   -1.1996 H   0  0  0  0  0  0  0  0  0  0  0  0
    2.5183   -4.5262   -0.5975 H   0  0  0  0  0  0  0  0  0  0  0  0
   -1.0620   -3.8868    1.7124 H   0  0  0  0  0  0  0  0  0  0  0  0
   -0.8488   -2.9736    0.2074 H   0  0  0  0  0  0  0  0  0  0  0  0
    0.4110   -1.3225   -0.6626 H   0  0  0  0  0  0  0  0  0  0  0  0
    2.0928   -1.4266    1.8918 H   0  0  0  0  0  0  0  0  0  0  0  0
  1 18  1  0  0  0  0
  1  3  1  0  0  0  0
  2  5  2  0  0  0  0
  3  7  2  0  0  0  0
  3 21  1  0  0  0  0
  4  8  1  0  0  0  0
  4  1  1  0  0  0  0
  5  9  1  0  0  0  0
  5 24  1  0  0  0  0
  6 10  1  0  0  0  0
  6  2  1  0  0  0  0
  7 27  1  0  0  0  0
  8 13  1  0  0  0  0
  8 28  1  0  0  0  0
  9 30  1  0  0  0  0
  9 31  1  0  0  0  0
 10 32  1  0  0  0  0
 11 15  1  0  0  0  0
 11 16  1  0  0  0  0
 12 36  1  0  0  0  0
 12 17  1  0  0  0  0
 13 38  1  6  0  0  0
 13  7  1  0  0  0  0
 13 14  1  0  0  0  0
 14 17  1  0  0  0  0
 14 39  1  1  0  0  0
 15 10  1  6  0  0  0
 15 12  1  0  0  0  0
 15  9  1  0  0  0  0
 16 14  1  0  0  0  0
 19  1  1  0  0  0  0
 20  2  1  0  0  0  0
 22  4  1  0  0  0  0
 23  4  1  0  0  0  0
 25  6  1  0  0  0  0
 26  6  1  0  0  0  0
 29  8  1  0  0  0  0
 33 10  1  0  0  0  0
 34 11  1  0  0  0  0
 35 11  1  0  0  0  0
 37 12  1  0  0  0  0
M  END
>  <HBA>
2

>  <HBD>
0

>  <TPSA>
18.46

>  <cid>
15756

>  <dipole>
1.85

>  <excitation_energy_1>
5.716

>  <excitation_energy_2>
5.852

>  <excitation_energy_3>
6.082

>  <excitation_energy_4>
6.222

>  <homo_energy>
-6.28

>  <homo_lumo_gap>
7.029

>  <logP>
3.442

>  <lumo_energy>
0.748

>  <melting_point>
55.56

>  <molecular_refractivity>
68.84

>  <oscillator_strength_1>
0.0177

>  <oscillator_strength_2>
0.0066

>  <oscillator_strength_3>
0.0007

>  <oscillator_strength_4>
0.0141

>  <open_babel_can_smiles>
C1CC[C@H](C=C1)[C@@H]1OC[C@@]2(CO1)CCC=CC2

>  <mulliken_charges>
39
1   -0.293998
2   -0.106474
3   -0.117307
4   -0.269402
5   -0.109408
6   -0.308396
7   -0.108325
8   -0.266805
9   -0.304979
10   -0.282779
11   -0.050071
12   -0.051082
13   -0.167697
14   0.358081
15   0.039065
16   -0.492413
17   -0.491682
18   0.144464
19   0.139521
20   0.121118
21   0.120216
22   0.131477
23   0.133335
24   0.122332
25   0.144758
26   0.14681
27   0.137442
28   0.134834
29   0.142498
30   0.169974
31   0.140944
32   0.14012
33   0.128531
34   0.121809
35   0.158917
36   0.1451
37   0.124653
38   0.132979
39   0.141839

>  <lowdin_charges>
39
1   -0.279422
2   -0.1814
3   -0.173486
4   -0.276675
5   -0.173661
6   -0.279503
7   -0.181667
8   -0.275535
9   -0.280611
10   -0.276984
11   -0.140698
12   -0.140052
13   -0.157682
14   0.092528
15   -0.026468
16   -0.261196
17   -0.264079
18   0.149384
19   0.150126
20   0.15143
21   0.152321
22   0.145325
23   0.141428
24   0.154112
25   0.153964
26   0.148468
27   0.16018
28   0.143769
29   0.150807
30   0.165801
31   0.151199
32   0.147911
33   0.143203
34   0.128592
35   0.159421
36   0.151635
37   0.130116
38   0.145179
39   0.15222

$$$$

