PCCDB-ID:  52304
public computational chemistry database (PCCDB) project, http://pccdb.org

 32 31  0  0  0  0  0  0  0  0999 V2000
    1.0203    0.8854    1.5388 C   0  0  0  0  0  0  0  0  0  0  0  0
    9.6633   -4.6462    6.7617 C   0  0  0  0  0  0  0  0  0  0  0  0
    2.5015    0.8269    1.9236 C   0  0  0  0  0  0  0  0  0  0  0  0
    9.9232   -3.1469    6.9585 C   0  0  0  0  0  0  0  0  0  0  0  0
    3.3847    0.2478    0.8111 C   0  0  0  0  0  0  0  0  0  0  0  0
    9.6084   -2.2756    5.7319 C   0  0  0  0  0  0  0  0  0  0  0  0
    4.8612    0.1752    1.1758 C   0  0  0  0  0  0  0  0  0  0  0  0
    8.1301   -2.2345    5.3658 C   0  0  0  0  0  0  0  0  0  0  0  0
    6.3178   -0.9653    2.6319 C   0  0  0  0  0  0  0  0  0  0  0  0
    6.6701   -1.0947    3.9135 C   0  0  0  0  0  0  0  0  0  0  0  0
    5.0172   -0.7271    2.2732 O   0  0  0  0  0  0  0  0  0  0  0  0
    7.9712   -1.3299    4.2714 O   0  0  0  0  0  0  0  0  0  0  0  0
    0.4141    1.3049    2.3496 H   0  0  0  0  0  0  0  0  0  0  0  0
    0.6287   -0.1145    1.3143 H   0  0  0  0  0  0  0  0  0  0  0  0
    0.8636    1.5086    0.6493 H   0  0  0  0  0  0  0  0  0  0  0  0
    9.9723   -5.2165    7.6450 H   0  0  0  0  0  0  0  0  0  0  0  0
   10.2245   -5.0333    5.9022 H   0  0  0  0  0  0  0  0  0  0  0  0
    8.6030   -4.8616    6.5881 H   0  0  0  0  0  0  0  0  0  0  0  0
    2.6299    0.2227    2.8291 H   0  0  0  0  0  0  0  0  0  0  0  0
    2.8562    1.8372    2.1740 H   0  0  0  0  0  0  0  0  0  0  0  0
   10.9790   -3.0005    7.2204 H   0  0  0  0  0  0  0  0  0  0  0  0
    9.3463   -2.7842    7.8213 H   0  0  0  0  0  0  0  0  0  0  0  0
    3.2912    0.8602   -0.0971 H   0  0  0  0  0  0  0  0  0  0  0  0
    3.0399   -0.7612    0.5476 H   0  0  0  0  0  0  0  0  0  0  0  0
   10.1761   -2.6326    4.8623 H   0  0  0  0  0  0  0  0  0  0  0  0
    9.9354   -1.2448    5.9172 H   0  0  0  0  0  0  0  0  0  0  0  0
    5.2444    1.1690    1.4553 H   0  0  0  0  0  0  0  0  0  0  0  0
    5.4553   -0.1823    0.3195 H   0  0  0  0  0  0  0  0  0  0  0  0
    7.5300   -1.8883    6.2240 H   0  0  0  0  0  0  0  0  0  0  0  0
    7.7553   -3.2275    5.0793 H   0  0  0  0  0  0  0  0  0  0  0  0
    7.0427   -1.0688    1.8239 H   0  0  0  0  0  0  0  0  0  0  0  0
    5.9445   -0.9932    4.7213 H   0  0  0  0  0  0  0  0  0  0  0  0
  1  3  1  0  0  0  0
  1 13  1  0  0  0  0
  2  4  1  0  0  0  0
  2 16  1  0  0  0  0
  3 20  1  0  0  0  0
  3 19  1  0  0  0  0
  4 21  1  0  0  0  0
  4 22  1  0  0  0  0
  5  7  1  0  0  0  0
  5  3  1  0  0  0  0
  6 26  1  0  0  0  0
  6  4  1  0  0  0  0
  7 27  1  0  0  0  0
  7 11  1  0  0  0  0
  8  6  1  0  0  0  0
  8 29  1  0  0  0  0
  9 10  2  0  0  0  0
 10 12  1  0  0  0  0
 10 32  1  0  0  0  0
 11  9  1  0  0  0  0
 12  8  1  0  0  0  0
 14  1  1  0  0  0  0
 15  1  1  0  0  0  0
 17  2  1  0  0  0  0
 18  2  1  0  0  0  0
 23  5  1  0  0  0  0
 24  5  1  0  0  0  0
 25  6  1  0  0  0  0
 28  7  1  0  0  0  0
 30  8  1  0  0  0  0
 31  9  1  0  0  0  0
M  END
>  <HBA>
2

>  <HBD>
0

>  <TPSA>
18.46

>  <cid>
52304

>  <dipole>
0.25

>  <excitation_energy_1>
5.265

>  <excitation_energy_2>
5.296

>  <excitation_energy_3>
5.504

>  <excitation_energy_4>
5.663

>  <homo_energy>
-5.347

>  <homo_lumo_gap>
6.64

>  <logP>
3.091

>  <lumo_energy>
1.293

>  <melting_point>
-37.33

>  <molecular_refractivity>
51.88

>  <oscillator_strength_1>
0.028

>  <oscillator_strength_2>
0.0005

>  <oscillator_strength_3>
0.0102

>  <oscillator_strength_4>
0.2027

>  <open_babel_can_smiles>
CCCCO/C=C/OCCCC

>  <mulliken_charges>
32
1   -0.442727
2   -0.445269
3   -0.247414
4   -0.260216
5   -0.269024
6   -0.269828
7   -0.020859
8   -0.015239
9   0.084375
10   0.083926
11   -0.472753
12   -0.476693
13   0.143096
14   0.143151
15   0.138888
16   0.145327
17   0.145239
18   0.146509
19   0.155154
20   0.127874
21   0.139252
22   0.132966
23   0.131242
24   0.144547
25   0.144294
26   0.146736
27   0.130711
28   0.126361
29   0.123144
30   0.135675
31   0.125895
32   0.12566

>  <lowdin_charges>
32
1   -0.445165
2   -0.448197
3   -0.273515
4   -0.272245
5   -0.281079
6   -0.281806
7   -0.124058
8   -0.125999
9   -0.09175
10   -0.091046
11   -0.22399
12   -0.221959
13   0.151081
14   0.146668
15   0.145039
16   0.152055
17   0.149011
18   0.145517
19   0.15125
20   0.137667
21   0.145095
22   0.140621
23   0.145644
24   0.147714
25   0.148646
26   0.15051
27   0.132052
28   0.133379
29   0.129704
30   0.134108
31   0.147718
32   0.147331

$$$$

