PCCDB-ID:  45537
public computational chemistry database (PCCDB) project, http://pccdb.org

 38 39  0  0  0  0  0  0  0  0999 V2000
    1.9350   -1.4630    0.3066 C   0  0  0  0  0  0  0  0  0  0  0  0
    3.0360    3.7873   -1.0205 C   0  0  0  0  0  0  0  0  0  0  0  0
   11.6407    0.7112    1.2400 C   0  0  0  0  0  0  0  0  0  0  0  0
    3.4503   -1.4580    0.4120 C   0  0  0  0  0  0  0  0  0  0  0  0
    4.0064    2.6215   -1.0894 C   0  0  0  0  0  0  0  0  0  0  0  0
    8.6304   -1.4994    0.8933 C   0  0  0  0  0  0  0  0  0  0  0  0
   10.0312   -0.9732    0.5743 C   0  0  0  0  0  0  0  0  0  0  0  0
    6.2192   -0.8004    0.5571 C   0  0  0  0  0  0  0  0  0  0  0  0
    6.9319    1.8720    0.4264 C   0  0  0  0  0  0  0  0  0  0  0  0
    9.3822    1.3397    0.7160 C   0  0  0  0  0  0  0  0  0  0  0  0
    7.5711   -0.4391    0.6760 C   0  0  0  0  0  0  0  0  0  0  0  0
    7.9323    0.9088    0.6181 C   0  0  0  0  0  0  0  0  0  0  0  0
    5.2240    0.1605    0.3821 C   0  0  0  0  0  0  0  0  0  0  0  0
    5.5936    1.5235    0.3076 C   0  0  0  0  0  0  0  0  0  0  0  0
   10.2477    0.2974    1.2606 N   0  0  0  0  0  0  0  0  0  0  0  0
    3.8870   -0.1074    0.2783 O   0  0  0  0  0  0  0  0  0  0  0  0
    4.6484    2.5158    0.1912 O   0  0  0  0  0  0  0  0  0  0  0  0
    1.5540   -2.4850    0.4077 H   0  0  0  0  0  0  0  0  0  0  0  0
    1.6133   -1.0673   -0.6620 H   0  0  0  0  0  0  0  0  0  0  0  0
    1.4925   -0.8465    1.0951 H   0  0  0  0  0  0  0  0  0  0  0  0
    2.5184    3.9071   -1.9789 H   0  0  0  0  0  0  0  0  0  0  0  0
    3.5646    4.7182   -0.7910 H   0  0  0  0  0  0  0  0  0  0  0  0
    2.2875    3.6160   -0.2402 H   0  0  0  0  0  0  0  0  0  0  0  0
   12.2624   -0.0583    1.7104 H   0  0  0  0  0  0  0  0  0  0  0  0
   11.7575    1.6395    1.8109 H   0  0  0  0  0  0  0  0  0  0  0  0
   12.0295    0.8913    0.2173 H   0  0  0  0  0  0  0  0  0  0  0  0
    3.9001   -2.0783   -0.3771 H   0  0  0  0  0  0  0  0  0  0  0  0
    3.7776   -1.8595    1.3817 H   0  0  0  0  0  0  0  0  0  0  0  0
    4.7698    2.7904   -1.8633 H   0  0  0  0  0  0  0  0  0  0  0  0
    3.4833    1.6871   -1.3224 H   0  0  0  0  0  0  0  0  0  0  0  0
    8.6111   -1.8289    1.9414 H   0  0  0  0  0  0  0  0  0  0  0  0
    8.4169   -2.3841    0.2791 H   0  0  0  0  0  0  0  0  0  0  0  0
   10.1598   -0.8737   -0.5239 H   0  0  0  0  0  0  0  0  0  0  0  0
   10.7859   -1.6884    0.9209 H   0  0  0  0  0  0  0  0  0  0  0  0
    5.9570   -1.8521    0.6104 H   0  0  0  0  0  0  0  0  0  0  0  0
    7.1815    2.9294    0.3801 H   0  0  0  0  0  0  0  0  0  0  0  0
    9.4623    2.2245    1.3611 H   0  0  0  0  0  0  0  0  0  0  0  0
    9.7320    1.6593   -0.2910 H   0  0  0  0  0  0  0  0  0  0  0  0
  1 18  1  0  0  0  0
  1  4  1  0  0  0  0
  1 20  1  0  0  0  0
  2 22  1  0  0  0  0
  2 23  1  0  0  0  0
  3 15  1  0  0  0  0
  3 24  1  0  0  0  0
  3 25  1  0  0  0  0
  4 28  1  0  0  0  0
  5  2  1  0  0  0  0
  5 17  1  0  0  0  0
  6 31  1  0  0  0  0
  7  6  1  0  0  0  0
  7 34  1  0  0  0  0
  7 15  1  0  0  0  0
  8 35  1  0  0  0  0
  8 11  2  0  0  0  0
  9 12  2  0  0  0  0
 10 15  1  0  0  0  0
 10 37  1  0  0  0  0
 11  6  1  0  0  0  0
 12 11  1  0  0  0  0
 12 10  1  0  0  0  0
 13  8  1  0  0  0  0
 14 13  2  0  0  0  0
 14  9  1  0  0  0  0
 16 13  1  0  0  0  0
 16  4  1  0  0  0  0
 17 14  1  0  0  0  0
 19  1  1  0  0  0  0
 21  2  1  0  0  0  0
 26  3  1  0  0  0  0
 27  4  1  0  0  0  0
 29  5  1  0  0  0  0
 30  5  1  0  0  0  0
 32  6  1  0  0  0  0
 33  7  1  0  0  0  0
 36  9  1  0  0  0  0
 38 10  1  0  0  0  0
M  END
>  <HBA>
3

>  <HBD>
0

>  <TPSA>
21.7

>  <cid>
45537

>  <dipole>
2.23

>  <excitation_energy_1>
4.771

>  <excitation_energy_2>
5.017

>  <excitation_energy_3>
5.163

>  <excitation_energy_4>
5.263

>  <homo_energy>
-5.467

>  <homo_lumo_gap>
5.701

>  <logP>
2.41

>  <lumo_energy>
0.234

>  <melting_point>
46.77

>  <molecular_refractivity>
73.28

>  <oscillator_strength_1>
0.0566

>  <oscillator_strength_2>
0.0284

>  <oscillator_strength_3>
0.0239

>  <oscillator_strength_4>
0.0306

>  <open_babel_can_smiles>
CCOc1cc2CN(C)CCc2cc1OCC

>  <mulliken_charges>
38
1   -0.457771
2   -0.455305
3   -0.287061
4   -0.025522
5   -0.021696
6   -0.334144
7   -0.132209
8   -0.282485
9   -0.241142
10   -0.179171
11   0.128091
12   0.097989
13   0.35798
14   0.322205
15   -0.38852
16   -0.523101
17   -0.537828
18   0.147868
19   0.160478
20   0.16648
21   0.141452
22   0.155905
23   0.160794
24   0.148107
25   0.148448
26   0.11584
27   0.138343
28   0.142152
29   0.124551
30   0.147459
31   0.159073
32   0.136613
33   0.112595
34   0.134536
35   0.125423
36   0.124498
37   0.149426
38   0.119647

>  <lowdin_charges>
38
1   -0.44764
2   -0.449
3   -0.355562
4   -0.123517
5   -0.121679
6   -0.275669
7   -0.196173
8   -0.216942
9   -0.176775
10   -0.195599
11   -0.012284
12   -0.030845
13   0.078526
14   0.06881
15   -0.18356
16   -0.201276
17   -0.230248
18   0.156077
19   0.157939
20   0.162452
21   0.153212
22   0.155565
23   0.158771
24   0.150884
25   0.150087
26   0.118907
27   0.137781
28   0.139216
29   0.130927
30   0.141471
31   0.155728
32   0.149086
33   0.113912
34   0.146626
35   0.157585
36   0.160456
37   0.151713
38   0.12104

$$$$

