PCCDB-ID:  9339
public computational chemistry database (PCCDB) project, http://pccdb.org

 29 29  0  0  0  0  0  0  0  0999 V2000
    1.4085    0.4308    0.0459 C   0  0  0  0  0  0  0  0  0  0  0  0
    3.5794    0.0551   -1.2256 C   0  0  0  0  0  0  0  0  0  0  0  0
    4.0272   -4.4625    3.6567 C   0  0  0  0  0  0  0  0  0  0  0  0
    3.4859   -1.2170    1.6554 C   0  0  0  0  0  0  0  0  0  0  0  0
    2.3716   -0.6166   -0.5439 C   0  0  0  0  0  0  0  0  0  0  0  0
    3.7026   -3.5068    2.5298 C   0  0  0  0  0  0  0  0  0  0  0  0
    2.8249   -1.6186    0.5109 C   0  0  0  0  0  0  0  0  0  0  0  0
    3.9131   -2.1266    2.6315 C   0  0  0  0  0  0  0  0  0  0  0  0
    3.0613   -3.9209    1.3325 C   0  0  0  0  0  0  0  0  0  0  0  0
    2.5825   -3.0030    0.3508 C   0  0  0  0  0  0  0  0  0  0  0  0
    4.6109   -1.5293    3.7811 N   0  0  0  0  0  0  0  0  0  0  0  0
    2.9215   -5.3441    1.0510 N   0  0  0  0  0  0  0  0  0  0  0  0
    1.9219   -3.3834   -0.7454 O   0  0  0  0  0  0  0  0  0  0  0  0
    4.3338   -0.3624    4.0640 O   0  0  0  0  0  0  0  0  0  0  0  0
    5.4529   -2.2054    4.3728 O   0  0  0  0  0  0  0  0  0  0  0  0
    3.6835   -6.1426    1.5786 O   0  0  0  0  0  0  0  0  0  0  0  0
    2.0355   -5.7091    0.2425 O   0  0  0  0  0  0  0  0  0  0  0  0
    1.0567    1.1048   -0.7431 H   0  0  0  0  0  0  0  0  0  0  0  0
    1.8969    1.0452    0.8115 H   0  0  0  0  0  0  0  0  0  0  0  0
    0.5334   -0.0437    0.5026 H   0  0  0  0  0  0  0  0  0  0  0  0
    3.2388    0.7370   -2.0130 H   0  0  0  0  0  0  0  0  0  0  0  0
    4.2433   -0.6866   -1.6824 H   0  0  0  0  0  0  0  0  0  0  0  0
    4.1693    0.6412   -0.5105 H   0  0  0  0  0  0  0  0  0  0  0  0
    4.0080   -3.9417    4.6126 H   0  0  0  0  0  0  0  0  0  0  0  0
    5.0269   -4.8894    3.5367 H   0  0  0  0  0  0  0  0  0  0  0  0
    3.3191   -5.2907    3.6830 H   0  0  0  0  0  0  0  0  0  0  0  0
    3.6815   -0.1663    1.8330 H   0  0  0  0  0  0  0  0  0  0  0  0
    1.8272   -1.1771   -1.3081 H   0  0  0  0  0  0  0  0  0  0  0  0
    1.7343   -4.3520   -0.6550 H   0  0  0  0  0  0  0  0  0  0  0  0
  1 20  1  0  0  0  0
  1 19  1  0  0  0  0
  2  5  1  0  0  0  0
  2 23  1  0  0  0  0
  3 26  1  0  0  0  0
  3 24  1  0  0  0  0
  4 27  1  0  0  0  0
  4  8  2  0  0  0  0
  5  1  1  0  0  0  0
  5  7  1  0  0  0  0
  6  8  1  0  0  0  0
  6  3  1  0  0  0  0
  7  4  1  0  0  0  0
  8 11  1  0  0  0  0
  9  6  2  0  0  0  0
 10  7  2  0  0  0  0
 10  9  1  0  0  0  0
 11 14  2  0  0  0  0
 11 15  2  0  0  0  0
 12  9  1  0  0  0  0
 12 16  2  0  0  0  0
 13 29  1  0  0  0  0
 13 10  1  0  0  0  0
 17 12  2  0  0  0  0
 18  1  1  0  0  0  0
 21  2  1  0  0  0  0
 22  2  1  0  0  0  0
 25  3  1  0  0  0  0
 28  5  1  0  0  0  0
M  END
>  <HBA>
1

>  <HBD>
1

>  <TPSA>
111.87

>  <cid>
9339

>  <dipole>
3.03

>  <excitation_energy_1>
3.257

>  <excitation_energy_2>
3.669

>  <excitation_energy_3>
3.743

>  <excitation_energy_4>
4.064

>  <homo_energy>
-7.102

>  <homo_lumo_gap>
4.006

>  <logP>
3.687

>  <lumo_energy>
-3.097

>  <melting_point>
131.23

>  <molecular_refractivity>
65.66

>  <oscillator_strength_1>
0.0309

>  <oscillator_strength_2>
0.0455

>  <oscillator_strength_3>
0.0197

>  <oscillator_strength_4>
0.0287

>  <open_babel_can_smiles>
O=N(=O)c1cc(C(C)C)c(c(c1C)N(=O)=O)O

>  <mulliken_charges>
29
1   -0.445661
2   -0.44245
3   -0.486462
4   -0.203602
5   -0.160021
6   0.149877
7   0.131487
8   0.199438
9   0.166024
10   0.293186
11   0.350756
12   0.364613
13   -0.629185
14   -0.383954
15   -0.38313
16   -0.361147
17   -0.441321
18   0.153073
19   0.150198
20   0.155214
21   0.153351
22   0.155193
23   0.147131
24   0.179445
25   0.201608
26   0.170644
27   0.188986
28   0.171683
29   0.455025

>  <lowdin_charges>
29
1   -0.442994
2   -0.442903
3   -0.440541
4   -0.115551
5   -0.123571
6   0.049514
7   -0.022003
8   -0.020736
9   -0.05518
10   0.126768
11   0.3057
12   0.318616
13   -0.342203
14   -0.245657
15   -0.238835
16   -0.205822
17   -0.286414
18   0.156338
19   0.15113
20   0.156258
21   0.15607
22   0.15673
23   0.150204
24   0.173134
25   0.187323
26   0.168908
27   0.188472
28   0.166381
29   0.370865

$$$$

