PCCDB-ID:  69963
public computational chemistry database (PCCDB) project, http://pccdb.org

 19 18  0  0  0  0  0  0  0  0999 V2000
    2.0139   -1.7248    0.0112 C   0  0  0  0  0  0  0  0  0  0  0  0
    2.5113   -0.4879    0.0440 C   0  0  0  0  0  0  0  0  0  0  0  0
    2.9024    0.3248   -1.1601 C   0  0  0  0  0  0  0  0  0  0  0  0
    4.3925    0.7168   -1.1615 C   0  0  0  0  0  0  0  0  0  0  0  0
    4.7850    1.5829   -2.3649 C   0  0  0  0  0  0  0  0  0  0  0  0
    6.2655    1.9691   -2.3694 C   0  0  0  0  0  0  0  0  0  0  0  0
    6.6144    2.8229   -3.4536 O   0  0  0  0  0  0  0  0  0  0  0  0
    1.7555   -2.2638    0.9188 H   0  0  0  0  0  0  0  0  0  0  0  0
    1.8410   -2.2459   -0.9287 H   0  0  0  0  0  0  0  0  0  0  0  0
    2.6689   -0.0070    1.0116 H   0  0  0  0  0  0  0  0  0  0  0  0
    2.2995    1.2455   -1.1916 H   0  0  0  0  0  0  0  0  0  0  0  0
    2.6662   -0.2339   -2.0755 H   0  0  0  0  0  0  0  0  0  0  0  0
    5.0018   -0.1974   -1.1445 H   0  0  0  0  0  0  0  0  0  0  0  0
    4.6250    1.2571   -0.2323 H   0  0  0  0  0  0  0  0  0  0  0  0
    4.1862    2.5032   -2.3821 H   0  0  0  0  0  0  0  0  0  0  0  0
    4.5529    1.0419   -3.2958 H   0  0  0  0  0  0  0  0  0  0  0  0
    6.8924    1.0614   -2.3595 H   0  0  0  0  0  0  0  0  0  0  0  0
    6.5088    2.5360   -1.4639 H   0  0  0  0  0  0  0  0  0  0  0  0
    6.4587    2.3289   -4.2735 H   0  0  0  0  0  0  0  0  0  0  0  0
  1  2  2  0  0  0  0
  1  8  1  0  0  0  0
  2 10  1  0  0  0  0
  3  2  1  0  0  0  0
  4  3  1  0  0  0  0
  4 13  1  0  0  0  0
  4 14  1  0  0  0  0
  5  4  1  0  0  0  0
  6  5  1  0  0  0  0
  6 17  1  0  0  0  0
  6 18  1  0  0  0  0
  7  6  1  0  0  0  0
  9  1  1  0  0  0  0
 11  3  1  0  0  0  0
 12  3  1  0  0  0  0
 15  5  1  0  0  0  0
 16  5  1  0  0  0  0
 19  7  1  0  0  0  0
M  END
>  <HBA>
1

>  <HBD>
1

>  <TPSA>
20.23

>  <cid>
69963

>  <dipole>
1.41

>  <excitation_energy_1>
6.412

>  <excitation_energy_2>
6.54

>  <excitation_energy_3>
6.746

>  <excitation_energy_4>
6.868

>  <homo_energy>
-6.833

>  <homo_lumo_gap>
7.453

>  <logP>
1.335

>  <lumo_energy>
0.62

>  <melting_point>
-28.54

>  <molecular_refractivity>
31.64

>  <oscillator_strength_1>
0.0122

>  <oscillator_strength_2>
0.0455

>  <oscillator_strength_3>
0.0034

>  <oscillator_strength_4>
0.2039

>  <open_babel_can_smiles>
OCCCCC=C

>  <mulliken_charges>
19
1   -0.341371
2   -0.041604
3   -0.299386
4   -0.262463
5   -0.276445
6   -0.02698
7   -0.614749
8   0.13823
9   0.133571
10   0.123596
11   0.142953
12   0.136434
13   0.139593
14   0.134284
15   0.145757
16   0.120267
17   0.117835
18   0.145158
19   0.385319

>  <lowdin_charges>
19
1   -0.344943
2   -0.144694
3   -0.270467
4   -0.274126
5   -0.293825
6   -0.136529
7   -0.467685
8   0.158489
9   0.153312
10   0.148545
11   0.149018
12   0.145522
13   0.143767
14   0.141356
15   0.147733
16   0.134326
17   0.124047
18   0.145983
19   0.340172

$$$$

