PCCDB-ID:  72060
public computational chemistry database (PCCDB) project, http://pccdb.org

 29 29  0  0  1  0  0  0  0  0999 V2000
    1.1743    1.6553    1.1652 C   0  0  0  0  0  0  0  0  0  0  0  0
    1.9957    0.7443    0.2420 C   0  0  0  0  0  0  0  0  0  0  0  0
    2.0565    3.9118   -3.9668 C   0  0  0  0  0  0  0  0  0  0  0  0
    1.0555    3.2618   -3.2469 C   0  0  0  0  0  0  0  0  0  0  0  0
    3.3892    3.7637   -3.5759 C   0  0  0  0  0  0  0  0  0  0  0  0
    1.3796    2.4719   -2.1404 C   0  0  0  0  0  0  0  0  0  0  0  0
    3.7106    2.9745   -2.4735 C   0  0  0  0  0  0  0  0  0  0  0  0
    2.7114    2.3164   -1.7322 C   0  0  0  0  0  0  0  0  0  0  0  0
    3.1385    1.4255   -0.5628 C   0  0  1  0  0  0  0  0  0  0  0  0
    4.0612    2.1626    0.4176 C   0  0  2  0  0  0  0  0  0  0  0  0
    5.3466    0.3103    1.0146 C   0  0  0  0  0  0  0  0  0  0  0  0
    5.2398   -0.6003    1.9021 N   0  0  0  0  0  0  0  0  0  0  0  0
    4.9858    1.6476    1.1265 N   0  0  0  0  0  0  0  0  0  0  0  0
    3.8091    3.4737    0.6224 O   0  0  0  0  0  0  0  0  0  0  0  0
    5.9560    0.0200   -0.1708 O   0  0  0  0  0  0  0  0  0  0  0  0
    0.3810    1.0776    1.6519 H   0  0  0  0  0  0  0  0  0  0  0  0
    0.6964    2.4807    0.6263 H   0  0  0  0  0  0  0  0  0  0  0  0
    1.7960    2.0918    1.9538 H   0  0  0  0  0  0  0  0  0  0  0  0
    1.3379    0.2312   -0.4700 H   0  0  0  0  0  0  0  0  0  0  0  0
    2.4589   -0.0434    0.8463 H   0  0  0  0  0  0  0  0  0  0  0  0
    1.8027    4.5263   -4.8261 H   0  0  0  0  0  0  0  0  0  0  0  0
    0.0153    3.3648   -3.5437 H   0  0  0  0  0  0  0  0  0  0  0  0
    4.1808    4.2585   -4.1320 H   0  0  0  0  0  0  0  0  0  0  0  0
    0.5816    1.9684   -1.6057 H   0  0  0  0  0  0  0  0  0  0  0  0
    4.7526    2.8572   -2.1838 H   0  0  0  0  0  0  0  0  0  0  0  0
    3.7444    0.6183   -0.9880 H   0  0  0  0  0  0  0  0  0  0  0  0
    4.8008   -0.2197    2.7409 H   0  0  0  0  0  0  0  0  0  0  0  0
    3.1491    3.7683   -0.0293 H   0  0  0  0  0  0  0  0  0  0  0  0
    6.2332   -0.9112   -0.0874 H   0  0  0  0  0  0  0  0  0  0  0  0
  1 16  1  0  0  0  0
  1 18  1  0  0  0  0
  2 20  1  0  0  0  0
  2  1  1  0  0  0  0
  3  5  2  0  0  0  0
  3  4  1  0  0  0  0
  4  6  2  0  0  0  0
  5  7  1  0  0  0  0
  6  8  1  0  0  0  0
  6 24  1  0  0  0  0
  7 25  1  0  0  0  0
  7  8  2  0  0  0  0
  8  9  1  0  0  0  0
  9 26  1  6  0  0  0
  9  2  1  0  0  0  0
  9 10  1  0  0  0  0
 10 14  1  1  0  0  0
 10 13  1  0  0  0  0
 11 13  2  0  0  0  0
 11 12  1  0  0  0  0
 12 27  1  0  0  0  0
 15 29  1  0  0  0  0
 15 11  1  0  0  0  0
 17  1  1  0  0  0  0
 19  2  1  0  0  0  0
 21  3  1  0  0  0  0
 22  4  1  0  0  0  0
 23  5  1  0  0  0  0
 28 14  1  0  0  0  0
M  RAD  2  10   2  12   2
M  END
>  <HBA>
4

>  <HBD>
2

>  <TPSA>
72.19

>  <cid>
72060

>  <dipole>
4.78

>  <excitation_energy_1>
5.218

>  <excitation_energy_2>
5.28

>  <excitation_energy_3>
5.395

>  <excitation_energy_4>
5.642

>  <homo_energy>
-6.55

>  <homo_lumo_gap>
5.924

>  <logP>
2.466

>  <lumo_energy>
-0.626

>  <melting_point>
139.04

>  <molecular_refractivity>
56.93

>  <oscillator_strength_1>
0.0408

>  <oscillator_strength_2>
0.0105

>  <oscillator_strength_3>
0.0263

>  <oscillator_strength_4>
0.0033

>  <open_babel_can_smiles>
CC[C@H]([C](/N=C(\O)/[NH])O)c1ccccc1

>  <mulliken_charges>
29
1   -0.470499
2   -0.274527
3   -0.125949
4   -0.13165
5   -0.129257
6   -0.185548
7   -0.173291
8   0.069884
9   -0.232197
10   0.501502
11   0.560583
12   -0.627474
13   -0.456199
14   -0.57228
15   -0.582354
16   0.154963
17   0.145051
18   0.170734
19   0.149768
20   0.167141
21   0.138324
22   0.137849
23   0.141801
24   0.139876
25   0.157433
26   0.195667
27   0.292479
28   0.422899
29   0.415272

>  <lowdin_charges>
29
1   -0.461255
2   -0.277084
3   -0.151488
4   -0.151648
5   -0.15177
6   -0.171345
7   -0.163508
8   -0.030997
9   -0.16428
10   0.161456
11   0.151779
12   -0.458926
13   -0.190487
14   -0.341252
15   -0.378323
16   0.158866
17   0.147807
18   0.161431
19   0.151762
20   0.16343
21   0.16245
22   0.16036
23   0.164886
24   0.165086
25   0.167772
26   0.184588
27   0.26462
28   0.363273
29   0.362795

$$$$

