PCCDB-ID:  61839
public computational chemistry database (PCCDB) project, http://pccdb.org

 30 29  0  0  0  0  0  0  0  0999 V2000
    0.8756   -2.9705    3.5619 C   0  0  0  0  0  0  0  0  0  0  0  0
    4.5962   -6.5330   -5.1582 C   0  0  0  0  0  0  0  0  0  0  0  0
    2.2465   -3.5406    3.1590 C   0  0  0  0  0  0  0  0  0  0  0  0
    4.7782   -5.1302   -4.5718 C   0  0  0  0  0  0  0  0  0  0  0  0
    3.0035   -2.6363    2.2241 C   0  0  0  0  0  0  0  0  0  0  0  0
    3.3914   -2.9530    0.9857 C   0  0  0  0  0  0  0  0  0  0  0  0
    4.1419   -2.0383    0.0555 C   0  0  0  0  0  0  0  0  0  0  0  0
    4.9320   -5.1497   -3.0493 C   0  0  0  0  0  0  0  0  0  0  0  0
    5.4913   -2.6016   -0.4025 C   0  0  0  0  0  0  0  0  0  0  0  0
    5.0893   -3.7672   -2.4459 C   0  0  0  0  0  0  0  0  0  0  0  0
    5.0075   -2.7212   -3.0538 O   0  0  0  0  0  0  0  0  0  0  0  0
    5.3353   -3.8514   -1.1155 O   0  0  0  0  0  0  0  0  0  0  0  0
    0.3637   -3.6365    4.2659 H   0  0  0  0  0  0  0  0  0  0  0  0
    0.2323   -2.8411    2.6845 H   0  0  0  0  0  0  0  0  0  0  0  0
    0.9806   -1.9912    4.0443 H   0  0  0  0  0  0  0  0  0  0  0  0
    4.4895   -6.4932   -6.2477 H   0  0  0  0  0  0  0  0  0  0  0  0
    3.7012   -7.0225   -4.7541 H   0  0  0  0  0  0  0  0  0  0  0  0
    5.4553   -7.1766   -4.9314 H   0  0  0  0  0  0  0  0  0  0  0  0
    2.1173   -4.5263    2.6940 H   0  0  0  0  0  0  0  0  0  0  0  0
    2.8414   -3.7020    4.0707 H   0  0  0  0  0  0  0  0  0  0  0  0
    3.9246   -4.4957   -4.8365 H   0  0  0  0  0  0  0  0  0  0  0  0
    5.6579   -4.6486   -5.0152 H   0  0  0  0  0  0  0  0  0  0  0  0
    3.2273   -1.6373    2.6076 H   0  0  0  0  0  0  0  0  0  0  0  0
    3.1666   -3.9479    0.5988 H   0  0  0  0  0  0  0  0  0  0  0  0
    4.3306   -1.0745    0.5469 H   0  0  0  0  0  0  0  0  0  0  0  0
    3.5477   -1.8250   -0.8434 H   0  0  0  0  0  0  0  0  0  0  0  0
    5.7945   -5.7556   -2.7420 H   0  0  0  0  0  0  0  0  0  0  0  0
    4.0604   -5.6217   -2.5740 H   0  0  0  0  0  0  0  0  0  0  0  0
    6.1239   -2.8511    0.4529 H   0  0  0  0  0  0  0  0  0  0  0  0
    6.0062   -1.8883   -1.0508 H   0  0  0  0  0  0  0  0  0  0  0  0
  1 15  1  0  0  0  0
  1 13  1  0  0  0  0
  2 18  1  0  0  0  0
  2 17  1  0  0  0  0
  2  4  1  0  0  0  0
  3  1  1  0  0  0  0
  3 20  1  0  0  0  0
  4  8  1  0  0  0  0
  5 23  1  0  0  0  0
  5  3  1  0  0  0  0
  6  5  2  0  0  0  0
  7 25  1  0  0  0  0
  7  6  1  0  0  0  0
  8 27  1  0  0  0  0
  8 28  1  0  0  0  0
  8 10  1  0  0  0  0
  9  7  1  0  0  0  0
  9 29  1  0  0  0  0
 10 12  1  0  0  0  0
 11 10  2  0  0  0  0
 12  9  1  0  0  0  0
 14  1  1  0  0  0  0
 16  2  1  0  0  0  0
 19  3  1  0  0  0  0
 21  4  1  0  0  0  0
 22  4  1  0  0  0  0
 24  6  1  0  0  0  0
 26  7  1  0  0  0  0
 30  9  1  0  0  0  0
M  END
>  <HBA>
2

>  <HBD>
0

>  <TPSA>
26.3

>  <cid>
61839

>  <dipole>
1.63

>  <excitation_energy_1>
5.801

>  <excitation_energy_2>
6.075

>  <excitation_energy_3>
6.246

>  <excitation_energy_4>
6.411

>  <homo_energy>
-6.544

>  <homo_lumo_gap>
6.972

>  <logP>
2.686

>  <lumo_energy>
0.427

>  <melting_point>
-6.99

>  <molecular_refractivity>
50.99

>  <oscillator_strength_1>
0.0002

>  <oscillator_strength_2>
0.0422

>  <oscillator_strength_3>
0.0571

>  <oscillator_strength_4>
0.001

>  <open_babel_can_smiles>
CC/C=C/CCOC(=O)CCC

>  <mulliken_charges>
30
1   -0.439499
2   -0.447024
3   -0.29544
4   -0.242958
5   -0.089952
6   -0.091414
7   -0.335088
8   -0.354515
9   -0.047123
10   0.622437
11   -0.479656
12   -0.466633
13   0.143407
14   0.150458
15   0.143303
16   0.14829
17   0.141746
18   0.142119
19   0.139105
20   0.141609
21   0.15354
22   0.149607
23   0.113734
24   0.125296
25   0.143609
26   0.170701
27   0.168725
28   0.168688
29   0.154467
30   0.168462

>  <lowdin_charges>
30
1   -0.444132
2   -0.444015
3   -0.268127
4   -0.269333
5   -0.164788
6   -0.173191
7   -0.282702
8   -0.303211
9   -0.133244
10   0.201182
11   -0.268674
12   -0.202004
13   0.151044
14   0.151296
15   0.147047
16   0.151092
17   0.14701
18   0.147204
19   0.14548
20   0.147798
21   0.153293
22   0.151282
23   0.142843
24   0.149123
25   0.154307
26   0.163252
27   0.167259
28   0.167629
29   0.154306
30   0.160974

$$$$

