PCCDB-ID:  10225
public computational chemistry database (PCCDB) project, http://pccdb.org

 33 34  0  0  0  0  0  0  0  0999 V2000
    1.7084    0.9719    1.3203 C   0  0  0  0  0  0  0  0  0  0  0  0
    3.5143    0.9768   -0.5001 C   0  0  0  0  0  0  0  0  0  0  0  0
    6.2508    0.6148    4.0293 C   0  0  0  0  0  0  0  0  0  0  0  0
    4.0502   -5.3068    1.8329 C   0  0  0  0  0  0  0  0  0  0  0  0
    5.9203   -1.8776    3.6929 C   0  0  0  0  0  0  0  0  0  0  0  0
    2.7181   -3.6505    0.5037 C   0  0  0  0  0  0  0  0  0  0  0  0
    5.3073   -2.9453    3.0824 C   0  0  0  0  0  0  0  0  0  0  0  0
    2.3537   -2.3360    0.1417 C   0  0  0  0  0  0  0  0  0  0  0  0
    4.6009   -0.3534    2.3846 C   0  0  0  0  0  0  0  0  0  0  0  0
    2.4380    0.1510    0.2359 C   0  0  0  0  0  0  0  0  0  0  0  0
    5.5699   -0.5483    3.3483 C   0  0  0  0  0  0  0  0  0  0  0  0
    3.6777   -3.8913    1.4613 C   0  0  0  0  0  0  0  0  0  0  0  0
    2.9263   -1.2177    0.7164 C   0  0  0  0  0  0  0  0  0  0  0  0
    4.3062   -2.7671    2.0879 C   0  0  0  0  0  0  0  0  0  0  0  0
    3.9363   -1.4250    1.7216 C   0  0  0  0  0  0  0  0  0  0  0  0
    1.2584    1.8666    0.8729 H   0  0  0  0  0  0  0  0  0  0  0  0
    2.3714    1.3028    2.1248 H   0  0  0  0  0  0  0  0  0  0  0  0
    0.9056    0.3821    1.7763 H   0  0  0  0  0  0  0  0  0  0  0  0
    3.0616    1.8729   -0.9421 H   0  0  0  0  0  0  0  0  0  0  0  0
    3.9638    0.3912   -1.3095 H   0  0  0  0  0  0  0  0  0  0  0  0
    4.3243    1.3060    0.1570 H   0  0  0  0  0  0  0  0  0  0  0  0
    7.3363    0.5930    3.8682 H   0  0  0  0  0  0  0  0  0  0  0  0
    6.0899    0.5921    5.1149 H   0  0  0  0  0  0  0  0  0  0  0  0
    5.8769    1.5736    3.6567 H   0  0  0  0  0  0  0  0  0  0  0  0
    3.4615   -6.0240    1.2529 H   0  0  0  0  0  0  0  0  0  0  0  0
    3.8700   -5.5126    2.8957 H   0  0  0  0  0  0  0  0  0  0  0  0
    5.1103   -5.5159    1.6409 H   0  0  0  0  0  0  0  0  0  0  0  0
    6.6827   -2.0509    4.4495 H   0  0  0  0  0  0  0  0  0  0  0  0
    2.2273   -4.4874    0.0121 H   0  0  0  0  0  0  0  0  0  0  0  0
    5.5947   -3.9525    3.3664 H   0  0  0  0  0  0  0  0  0  0  0  0
    1.5879   -2.2043   -0.6196 H   0  0  0  0  0  0  0  0  0  0  0  0
    4.3408    0.6650    2.1268 H   0  0  0  0  0  0  0  0  0  0  0  0
    1.6751   -0.0739   -0.5213 H   0  0  0  0  0  0  0  0  0  0  0  0
  1 18  1  0  0  0  0
  1 17  1  0  0  0  0
  2 21  1  0  0  0  0
  2 10  1  0  0  0  0
  3 23  1  0  0  0  0
  4 26  1  0  0  0  0
  5 28  1  0  0  0  0
  6 12  1  0  0  0  0
  7 30  1  0  0  0  0
  7  5  2  0  0  0  0
  8  6  2  0  0  0  0
  8 13  1  0  0  0  0
  9 11  2  0  0  0  0
 10 13  1  0  0  0  0
 10  1  1  0  0  0  0
 11  5  1  0  0  0  0
 11  3  1  0  0  0  0
 12  4  1  0  0  0  0
 12 14  2  0  0  0  0
 13 15  2  0  0  0  0
 14  7  1  0  0  0  0
 15 14  1  0  0  0  0
 15  9  1  0  0  0  0
 16  1  1  0  0  0  0
 19  2  1  0  0  0  0
 20  2  1  0  0  0  0
 22  3  1  0  0  0  0
 24  3  1  0  0  0  0
 25  4  1  0  0  0  0
 27  4  1  0  0  0  0
 29  6  1  0  0  0  0
 31  8  1  0  0  0  0
 32  9  1  0  0  0  0
 33 10  1  0  0  0  0
M  END
>  <HBA>
0

>  <HBD>
0

>  <TPSA>
0.0

>  <cid>
10225

>  <dipole>
0.28

>  <excitation_energy_1>
4.17

>  <excitation_energy_2>
4.332

>  <excitation_energy_3>
5.154

>  <excitation_energy_4>
5.395

>  <homo_energy>
-5.478

>  <homo_lumo_gap>
4.683

>  <logP>
4.58

>  <lumo_energy>
-0.795

>  <melting_point>
60.84

>  <molecular_refractivity>
68.46

>  <oscillator_strength_1>
0.0944

>  <oscillator_strength_2>
0.0166

>  <oscillator_strength_3>
0.003

>  <oscillator_strength_4>
0.2821

>  <open_babel_can_smiles>
Cc1ccc2c(c1)c(ccc2C)C(C)C

>  <mulliken_charges>
33
1   -0.445463
2   -0.445461
3   -0.534449
4   -0.53694
5   -0.180518
6   -0.197989
7   -0.200465
8   -0.212734
9   -0.276508
10   -0.156995
11   0.190208
12   0.139189
13   0.129244
14   0.075866
15   0.087327
16   0.139121
17   0.149109
18   0.149744
19   0.139126
20   0.149716
21   0.149143
22   0.160762
23   0.160845
24   0.154267
25   0.155013
26   0.161038
27   0.161057
28   0.119502
29   0.117761
30   0.126503
31   0.11967
32   0.122927
33   0.130381

>  <lowdin_charges>
33
1   -0.448494
2   -0.448424
3   -0.43766
4   -0.441888
5   -0.165356
6   -0.175894
7   -0.159475
8   -0.171542
9   -0.177115
10   -0.11948
11   -0.002361
12   -0.00264
13   -0.007802
14   -0.010689
15   -0.002493
16   0.148137
17   0.150132
18   0.154427
19   0.148116
20   0.15438
21   0.150108
22   0.157646
23   0.15768
24   0.155828
25   0.158863
26   0.157233
27   0.157284
28   0.154299
29   0.154159
30   0.158299
31   0.152722
32   0.155671
33   0.14633

$$$$

