PCCDB-ID:  18210
public computational chemistry database (PCCDB) project, http://pccdb.org

 14 14  0  0  0  0  0  0  0  0999 V2000
    0.9823   -0.0731   -0.1692 C   0  0  0  0  0  0  0  0  0  0  0  0
    4.5704    0.6094    0.0626 C   0  0  0  0  0  0  0  0  0  0  0  0
    3.2761   -1.0803   -0.0430 C   0  0  0  0  0  0  0  0  0  0  0  0
    3.2776    1.0931   -0.0114 C   0  0  0  0  0  0  0  0  0  0  0  0
    4.5573   -0.7491    0.0420 N   0  0  0  0  0  0  0  0  0  0  0  0
    2.4405   -0.0105   -0.0803 N   0  0  0  0  0  0  0  0  0  0  0  0
    2.8344    2.4429   -0.0209 N   0  0  0  0  0  0  0  0  0  0  0  0
    3.7033    3.3139    0.0516 O   0  0  0  0  0  0  0  0  0  0  0  0
    1.6168    2.6594   -0.1004 O   0  0  0  0  0  0  0  0  0  0  0  0
    0.7011   -1.1280   -0.1958 H   0  0  0  0  0  0  0  0  0  0  0  0
    0.6336    0.4273   -1.0733 H   0  0  0  0  0  0  0  0  0  0  0  0
    0.5265    0.4108    0.6953 H   0  0  0  0  0  0  0  0  0  0  0  0
    5.4800    1.1886    0.1277 H   0  0  0  0  0  0  0  0  0  0  0  0
    2.8949   -2.0927   -0.0811 H   0  0  0  0  0  0  0  0  0  0  0  0
  1  6  1  0  0  0  0
  1 12  1  0  0  0  0
  2 13  1  0  0  0  0
  3  5  2  0  0  0  0
  4  2  2  0  0  0  0
  5  2  1  0  0  0  0
  6  3  1  0  0  0  0
  6  4  1  0  0  0  0
  7  4  1  0  0  0  0
  7  8  2  0  0  0  0
  9  7  2  0  0  0  0
 10  1  1  0  0  0  0
 11  1  1  0  0  0  0
 14  3  1  0  0  0  0
M  END
>  <HBA>
2

>  <HBD>
0

>  <TPSA>
63.64

>  <cid>
18210

>  <dipole>
4.2

>  <excitation_energy_1>
3.828

>  <excitation_energy_2>
4.255

>  <excitation_energy_3>
4.355

>  <excitation_energy_4>
4.794

>  <homo_energy>
-7.26

>  <homo_lumo_gap>
4.844

>  <logP>
0.852

>  <lumo_energy>
-2.416

>  <melting_point>
60.78

>  <molecular_refractivity>
32.31

>  <oscillator_strength_1>
0.0

>  <oscillator_strength_2>
0.0006

>  <oscillator_strength_3>
0.2045

>  <oscillator_strength_4>
0.0

>  <open_babel_can_smiles>
O=N(=O)c1cncn1C

>  <mulliken_charges>
14
1   -0.312575
2   0.009888
3   0.214675
4   0.48391
5   -0.423202
6   -0.423369
7   0.339375
8   -0.398178
9   -0.42402
10   0.169708
11   0.202604
12   0.202577
13   0.182675
14   0.175931

>  <lowdin_charges>
14
1   -0.340779
2   -0.105405
3   -0.068055
4   -0.012768
5   -0.168009
6   0.010501
7   0.309903
8   -0.247691
9   -0.266781
10   0.164909
11   0.180097
12   0.180526
13   0.187797
14   0.175756

$$$$

