PCCDB-ID:  42603
public computational chemistry database (PCCDB) project, http://pccdb.org

 24 25  0  0  1  0  0  0  0  0999 V2000
   -1.5948    0.0002   -0.9767 C   0  0  0  0  0  0  0  0  0  0  0  0
   -1.3043    1.2919   -0.1852 C   0  0  0  0  0  0  0  0  0  0  0  0
   -1.3257   -1.2759   -0.1529 C   0  0  0  0  0  0  0  0  0  0  0  0
    0.0170    0.0185    1.5355 C   0  0  0  0  0  0  0  0  0  0  0  0
    1.2885    1.2118   -0.2533 C   0  0  0  0  0  0  0  0  0  0  0  0
    1.2679   -1.2413   -0.2219 C   0  0  0  0  0  0  0  0  0  0  0  0
    0.0166    1.2528    0.6159 C   0  0  1  0  0  0  0  0  0  0  0  0
   -0.0045   -1.2386    0.6478 C   0  0  2  0  0  0  0  0  0  0  0  0
    1.3566   -0.0256   -1.0351 N   0  0  0  0  0  0  0  0  0  0  0  0
   -0.9683   -0.0163   -1.8706 H   0  0  0  0  0  0  0  0  0  0  0  0
   -2.6417    0.0048   -1.3101 H   0  0  0  0  0  0  0  0  0  0  0  0
   -2.1181    1.4681    0.5338 H   0  0  0  0  0  0  0  0  0  0  0  0
   -1.3057    2.1526   -0.8679 H   0  0  0  0  0  0  0  0  0  0  0  0
   -1.3411   -2.1533   -0.8139 H   0  0  0  0  0  0  0  0  0  0  0  0
   -2.1424   -1.4207    0.5698 H   0  0  0  0  0  0  0  0  0  0  0  0
   -0.8561    0.0346    2.2017 H   0  0  0  0  0  0  0  0  0  0  0  0
    0.9109    0.0191    2.1747 H   0  0  0  0  0  0  0  0  0  0  0  0
    2.1606    1.3383    0.4210 H   0  0  0  0  0  0  0  0  0  0  0  0
    1.2984    2.0573   -0.9534 H   0  0  0  0  0  0  0  0  0  0  0  0
    1.2635   -2.1046   -0.8999 H   0  0  0  0  0  0  0  0  0  0  0  0
    2.1379   -1.3650    0.4558 H   0  0  0  0  0  0  0  0  0  0  0  0
    0.0742    2.1660    1.2247 H   0  0  0  0  0  0  0  0  0  0  0  0
    0.0376   -2.1368    1.2797 H   0  0  0  0  0  0  0  0  0  0  0  0
    2.2107   -0.0399   -1.5876 H   0  0  0  0  0  0  0  0  0  0  0  0
  1  2  1  0  0  0  0
  1  3  1  0  0  0  0
  2 12  1  0  0  0  0
  2  7  1  0  0  0  0
  3 15  1  0  0  0  0
  3  8  1  0  0  0  0
  4 17  1  0  0  0  0
  4 16  1  0  0  0  0
  5 18  1  0  0  0  0
  5  7  1  0  0  0  0
  6 21  1  0  0  0  0
  6  8  1  0  0  0  0
  7 22  1  1  0  0  0
  7  4  1  0  0  0  0
  8 23  1  1  0  0  0
  8  4  1  0  0  0  0
  9  5  1  0  0  0  0
  9  6  1  0  0  0  0
 10  1  1  0  0  0  0
 11  1  1  0  0  0  0
 13  2  1  0  0  0  0
 14  3  1  0  0  0  0
 19  5  1  0  0  0  0
 20  6  1  0  0  0  0
 24  9  1  0  0  0  0
M  END
>  <HBA>
1

>  <HBD>
1

>  <TPSA>
12.03

>  <cid>
42603

>  <dipole>
0.95

>  <excitation_energy_1>
4.96

>  <excitation_energy_2>
5.598

>  <excitation_energy_3>
5.715

>  <excitation_energy_4>
5.828

>  <homo_energy>
-5.671

>  <homo_lumo_gap>
7.627

>  <logP>
1.725

>  <lumo_energy>
1.957

>  <melting_point>
44.44

>  <molecular_refractivity>
43.06

>  <oscillator_strength_1>
0.0053

>  <oscillator_strength_2>
0.0026

>  <oscillator_strength_3>
0.0045

>  <oscillator_strength_4>
0.0584

>  <open_babel_can_smiles>
C1C[C@@H]2CNC[C@H](C1)C2

>  <mulliken_charges>
24
1   -0.250043
2   -0.25849
3   -0.258586
4   -0.268892
5   -0.123256
6   -0.123227
7   -0.087862
8   -0.087883
9   -0.555826
10   0.162497
11   0.116597
12   0.12192
13   0.124018
14   0.124045
15   0.12192
16   0.126032
17   0.121861
18   0.104073
19   0.130955
20   0.130961
21   0.104048
22   0.115515
23   0.115527
24   0.294098

>  <lowdin_charges>
24
1   -0.285968
2   -0.277552
3   -0.277459
4   -0.283095
5   -0.20604
6   -0.206054
7   -0.134662
8   -0.134759
9   -0.365042
10   0.155456
11   0.134955
12   0.137232
13   0.140654
14   0.140603
15   0.137182
16   0.14008
17   0.137969
18   0.114229
19   0.14173
20   0.141665
21   0.114227
22   0.140143
23   0.140232
24   0.254273

$$$$

