PCCDB-ID:  10698
public computational chemistry database (PCCDB) project, http://pccdb.org

 22 22  0  0  0  0  0  0  0  0999 V2000
    0.9718   -0.0265   -0.0891 C   0  0  0  0  0  0  0  0  0  0  0  0
    5.3744    2.4935   -0.1038 C   0  0  0  0  0  0  0  0  0  0  0  0
    5.3697   -2.5552   -0.1028 C   0  0  0  0  0  0  0  0  0  0  0  0
    3.2078    1.1693   -0.0958 C   0  0  0  0  0  0  0  0  0  0  0  0
    3.2050   -1.2256   -0.0972 C   0  0  0  0  0  0  0  0  0  0  0  0
    2.4837   -0.0238   -0.0943 C   0  0  0  0  0  0  0  0  0  0  0  0
    4.6079    1.1907   -0.1000 C   0  0  0  0  0  0  0  0  0  0  0  0
    4.5993   -1.2589   -0.1003 C   0  0  0  0  0  0  0  0  0  0  0  0
    5.2889   -0.0347   -0.1014 C   0  0  0  0  0  0  0  0  0  0  0  0
    6.6623   -0.1080   -0.1034 O   0  0  0  0  0  0  0  0  0  0  0  0
    0.5723    0.9929   -0.0921 H   0  0  0  0  0  0  0  0  0  0  0  0
    0.5708   -0.5365    0.7961 H   0  0  0  0  0  0  0  0  0  0  0  0
    0.5648   -0.5441   -0.9672 H   0  0  0  0  0  0  0  0  0  0  0  0
    4.6908    3.3471   -0.1083 H   0  0  0  0  0  0  0  0  0  0  0  0
    6.0189    2.5953   -0.9896 H   0  0  0  0  0  0  0  0  0  0  0  0
    6.0164    2.6021    0.7829 H   0  0  0  0  0  0  0  0  0  0  0  0
    4.6901   -3.4129   -0.1080 H   0  0  0  0  0  0  0  0  0  0  0  0
    6.0188   -2.6364    0.7775 H   0  0  0  0  0  0  0  0  0  0  0  0
    6.0242   -2.6296   -0.9796 H   0  0  0  0  0  0  0  0  0  0  0  0
    2.6737    2.1179   -0.0936 H   0  0  0  0  0  0  0  0  0  0  0  0
    2.6644   -2.1708   -0.0974 H   0  0  0  0  0  0  0  0  0  0  0  0
    7.0270    0.7894   -0.1097 H   0  0  0  0  0  0  0  0  0  0  0  0
  1 12  1  0  0  0  0
  2  7  1  0  0  0  0
  2 16  1  0  0  0  0
  3  8  1  0  0  0  0
  3 18  1  0  0  0  0
  4  6  1  0  0  0  0
  4 20  1  0  0  0  0
  5  6  2  0  0  0  0
  6  1  1  0  0  0  0
  7  4  2  0  0  0  0
  8  5  1  0  0  0  0
  9  8  2  0  0  0  0
  9  7  1  0  0  0  0
 10  9  1  0  0  0  0
 11  1  1  0  0  0  0
 13  1  1  0  0  0  0
 14  2  1  0  0  0  0
 15  2  1  0  0  0  0
 17  3  1  0  0  0  0
 19  3  1  0  0  0  0
 21  5  1  0  0  0  0
 22 10  1  0  0  0  0
M  END
>  <HBA>
1

>  <HBD>
1

>  <TPSA>
20.23

>  <cid>
10698

>  <dipole>
1.38

>  <excitation_energy_1>
4.873

>  <excitation_energy_2>
4.911

>  <excitation_energy_3>
5.493

>  <excitation_energy_4>
5.563

>  <homo_energy>
-5.524

>  <homo_lumo_gap>
5.826

>  <logP>
2.317

>  <lumo_energy>
0.302

>  <melting_point>
57.8

>  <molecular_refractivity>
43.36

>  <oscillator_strength_1>
0.0025

>  <oscillator_strength_2>
0.0412

>  <oscillator_strength_3>
0.0001

>  <oscillator_strength_4>
0.031

>  <open_babel_can_smiles>
Cc1cc(C)c(c(c1)C)O

>  <mulliken_charges>
22
1   -0.532224
2   -0.579823
3   -0.513541
4   -0.269019
5   -0.256813
6   0.201383
7   0.180415
8   0.158866
9   0.198148
10   -0.649827
11   0.150477
12   0.157498
13   0.157371
14   0.169985
15   0.158937
16   0.159489
17   0.145209
18   0.164572
19   0.164624
20   0.110147
21   0.111278
22   0.412846

>  <lowdin_charges>
22
1   -0.44176
2   -0.453647
3   -0.437205
4   -0.177035
5   -0.172503
6   -0.017294
7   -0.051697
8   -0.024184
9   0.082907
10   -0.388624
11   0.153349
12   0.157705
13   0.157716
14   0.167301
15   0.154456
16   0.154726
17   0.153325
18   0.162795
19   0.162851
20   0.149636
21   0.151008
22   0.356176

$$$$

