PCCDB-ID:  14311
public computational chemistry database (PCCDB) project, http://pccdb.org

 25 25  0  0  0  0  0  0  0  0999 V2000
    0.4247   -0.8436    2.3086 C   0  0  0  0  0  0  0  0  0  0  0  0
    1.9317   -0.7791    2.5748 C   0  0  0  0  0  0  0  0  0  0  0  0
    2.7614   -0.7096    1.2867 C   0  0  0  0  0  0  0  0  0  0  0  0
    8.6248   -2.5740    3.2490 C   0  0  0  0  0  0  0  0  0  0  0  0
    8.3027   -1.3650    2.6372 C   0  0  0  0  0  0  0  0  0  0  0  0
    7.6127   -3.5132    3.4775 C   0  0  0  0  0  0  0  0  0  0  0  0
    6.9886   -1.0806    2.2511 C   0  0  0  0  0  0  0  0  0  0  0  0
    6.3020   -3.2457    3.0997 C   0  0  0  0  0  0  0  0  0  0  0  0
    4.2645   -0.6424    1.5241 C   0  0  0  0  0  0  0  0  0  0  0  0
    5.9823   -2.0260    2.4838 C   0  0  0  0  0  0  0  0  0  0  0  0
    4.6684   -1.8595    2.1495 O   0  0  0  0  0  0  0  0  0  0  0  0
   -0.1427   -0.8967    3.2445 H   0  0  0  0  0  0  0  0  0  0  0  0
    0.1651   -1.7267    1.7119 H   0  0  0  0  0  0  0  0  0  0  0  0
    0.0782    0.0401    1.7582 H   0  0  0  0  0  0  0  0  0  0  0  0
    2.2457   -1.6549    3.1545 H   0  0  0  0  0  0  0  0  0  0  0  0
    2.1579    0.0994    3.1961 H   0  0  0  0  0  0  0  0  0  0  0  0
    2.4748    0.1783    0.7055 H   0  0  0  0  0  0  0  0  0  0  0  0
    2.5455   -1.5816    0.6551 H   0  0  0  0  0  0  0  0  0  0  0  0
    9.6481   -2.7851    3.5454 H   0  0  0  0  0  0  0  0  0  0  0  0
    9.0773   -0.6248    2.4529 H   0  0  0  0  0  0  0  0  0  0  0  0
    7.8469   -4.4618    3.9537 H   0  0  0  0  0  0  0  0  0  0  0  0
    6.7645   -0.1335    1.7740 H   0  0  0  0  0  0  0  0  0  0  0  0
    5.5051   -3.9634    3.2695 H   0  0  0  0  0  0  0  0  0  0  0  0
    4.5171    0.2114    2.1710 H   0  0  0  0  0  0  0  0  0  0  0  0
    4.8024   -0.5175    0.5731 H   0  0  0  0  0  0  0  0  0  0  0  0
  1  2  1  0  0  0  0
  1 12  1  0  0  0  0
  2 15  1  0  0  0  0
  2 16  1  0  0  0  0
  3  9  1  0  0  0  0
  3  2  1  0  0  0  0
  4  6  1  0  0  0  0
  4 19  1  0  0  0  0
  5  4  2  0  0  0  0
  6 21  1  0  0  0  0
  7 10  2  0  0  0  0
  7  5  1  0  0  0  0
  8 23  1  0  0  0  0
  8  6  2  0  0  0  0
  9 11  1  0  0  0  0
  9 24  1  0  0  0  0
 10  8  1  0  0  0  0
 11 10  1  0  0  0  0
 13  1  1  0  0  0  0
 14  1  1  0  0  0  0
 17  3  1  0  0  0  0
 18  3  1  0  0  0  0
 20  5  1  0  0  0  0
 22  7  1  0  0  0  0
 25  9  1  0  0  0  0
M  END
>  <HBA>
1

>  <HBD>
0

>  <TPSA>
9.23

>  <cid>
14311

>  <dipole>
1.21

>  <excitation_energy_1>
5.038

>  <excitation_energy_2>
5.49

>  <excitation_energy_3>
5.739

>  <excitation_energy_4>
5.811

>  <homo_energy>
-5.818

>  <homo_lumo_gap>
5.951

>  <logP>
2.865

>  <lumo_energy>
0.133

>  <melting_point>
6.43

>  <molecular_refractivity>
47.35

>  <oscillator_strength_1>
0.0329

>  <oscillator_strength_2>
0.0016

>  <oscillator_strength_3>
0.1106

>  <oscillator_strength_4>
0.0103

>  <open_babel_can_smiles>
CCCCOc1ccccc1

>  <mulliken_charges>
25
1   -0.442811
2   -0.248717
3   -0.270595
4   -0.133879
5   -0.137653
6   -0.132805
7   -0.195137
8   -0.175919
9   -0.034923
10   0.380337
11   -0.521795
12   0.144822
13   0.143874
14   0.139667
15   0.156157
16   0.128723
17   0.133237
18   0.147476
19   0.123869
20   0.127653
21   0.128442
22   0.131518
23   0.134132
24   0.135999
25   0.138329

>  <lowdin_charges>
25
1   -0.445357
2   -0.275248
3   -0.28145
4   -0.17941
5   -0.148314
6   -0.14686
7   -0.215096
8   -0.186006
9   -0.127625
10   0.103948
11   -0.204211
12   0.151135
13   0.148054
14   0.145741
15   0.152019
16   0.139183
17   0.146961
18   0.150372
19   0.155025
20   0.157546
21   0.157327
22   0.161138
23   0.16541
24   0.136863
25   0.138854

$$$$

