PCCDB-ID:  12614
public computational chemistry database (PCCDB) project, http://pccdb.org

 20 21  0  0  1  0  0  0  0  0999 V2000
    0.7881   -1.6752    0.2638 C   0  0  0  0  0  0  0  0  0  0  0  0
   -0.5069   -1.7206   -0.0716 C   0  0  0  0  0  0  0  0  0  0  0  0
    1.7601   -0.5222    0.2676 C   0  0  0  0  0  0  0  0  0  0  0  0
   -1.4520   -0.6514   -0.5748 C   0  0  0  0  0  0  0  0  0  0  0  0
    1.4174    0.7048   -0.5877 C   0  0  0  0  0  0  0  0  0  0  0  0
   -0.5946    1.2537    1.0827 C   0  0  0  0  0  0  0  0  0  0  0  0
   -1.2125    0.8086   -0.2223 C   0  0  1  0  0  0  0  0  0  0  0  0
    0.1482    1.4603   -0.2222 C   0  0  2  0  0  0  0  0  0  0  0  0
    1.2270   -2.6150    0.6030 H   0  0  0  0  0  0  0  0  0  0  0  0
   -0.9826   -2.6991    0.0069 H   0  0  0  0  0  0  0  0  0  0  0  0
    2.7341   -0.9062   -0.0676 H   0  0  0  0  0  0  0  0  0  0  0  0
    1.9281   -0.2004    1.3079 H   0  0  0  0  0  0  0  0  0  0  0  0
   -2.4568   -0.9178   -0.2153 H   0  0  0  0  0  0  0  0  0  0  0  0
   -1.5194   -0.7382   -1.6725 H   0  0  0  0  0  0  0  0  0  0  0  0
    1.3648    0.4024   -1.6435 H   0  0  0  0  0  0  0  0  0  0  0  0
    2.2643    1.4007   -0.5143 H   0  0  0  0  0  0  0  0  0  0  0  0
   -0.2432    0.4803    1.7593 H   0  0  0  0  0  0  0  0  0  0  0  0
   -1.0115    2.1224    1.5859 H   0  0  0  0  0  0  0  0  0  0  0  0
   -2.0185    1.4428   -0.5913 H   0  0  0  0  0  0  0  0  0  0  0  0
    0.1520    2.4863   -0.5890 H   0  0  0  0  0  0  0  0  0  0  0  0
  1  3  1  0  0  0  0
  1  9  1  0  0  0  0
  2 10  1  0  0  0  0
  2  1  2  0  0  0  0
  3 12  1  0  0  0  0
  4  7  1  0  0  0  0
  4 13  1  0  0  0  0
  4  2  1  0  0  0  0
  5 16  1  0  0  0  0
  5  8  1  0  0  0  0
  5  3  1  0  0  0  0
  6 18  1  0  0  0  0
  6 17  1  0  0  0  0
  7 19  1  6  0  0  0
  7  8  1  0  0  0  0
  7  6  1  0  0  0  0
  8 20  1  6  0  0  0
  8  6  1  0  0  0  0
 11  3  1  0  0  0  0
 14  4  1  0  0  0  0
 15  5  1  0  0  0  0
M  END
>  <HBA>
0

>  <HBD>
0

>  <TPSA>
0.0

>  <cid>
12614

>  <dipole>
0.23

>  <excitation_energy_1>
5.758

>  <excitation_energy_2>
6.234

>  <excitation_energy_3>
6.365

>  <excitation_energy_4>
6.486

>  <homo_energy>
-6.327

>  <homo_lumo_gap>
7.203

>  <logP>
2.363

>  <lumo_energy>
0.876

>  <melting_point>
27.06

>  <molecular_refractivity>
35.87

>  <oscillator_strength_1>
0.0086

>  <oscillator_strength_2>
0.014

>  <oscillator_strength_3>
0.0116

>  <oscillator_strength_4>
0.0128

>  <open_babel_can_smiles>
C1=CC[C@@H]2[C@H](CC1)C2

>  <mulliken_charges>
20
1   -0.105413
2   -0.121594
3   -0.31044
4   -0.298252
5   -0.258169
6   -0.325271
7   -0.106304
8   -0.112085
9   0.117085
10   0.117967
11   0.138542
12   0.148628
13   0.141053
14   0.14865
15   0.138082
16   0.130991
17   0.1566
18   0.141445
19   0.128318
20   0.130169

>  <lowdin_charges>
20
1   -0.180245
2   -0.177734
3   -0.276769
4   -0.267942
5   -0.267452
6   -0.328852
7   -0.157937
8   -0.158112
9   0.150594
10   0.150994
11   0.150505
12   0.149569
13   0.1513
14   0.151529
15   0.143109
16   0.147277
17   0.163775
18   0.156325
19   0.15093
20   0.149138

$$$$

