PCCDB-ID:  70516
public computational chemistry database (PCCDB) project, http://pccdb.org

 20 21  0  0  0  0  0  0  0  0999 V2000
   -1.3787   -0.1121    0.0982 C   0  0  0  0  0  0  0  0  0  0  0  0
   -0.7503    1.1291    0.2187 C   0  0  0  0  0  0  0  0  0  0  0  0
   -0.6034   -1.2391   -0.1696 C   0  0  0  0  0  0  0  0  0  0  0  0
    0.6291    1.2495    0.0747 C   0  0  0  0  0  0  0  0  0  0  0  0
    0.7794   -1.1343   -0.3153 C   0  0  0  0  0  0  0  0  0  0  0  0
    3.6974   -0.9170   -0.6528 C   0  0  0  0  0  0  0  0  0  0  0  0
    3.6088    1.3039   -0.2349 C   0  0  0  0  0  0  0  0  0  0  0  0
    1.4111    0.1129   -0.1932 C   0  0  0  0  0  0  0  0  0  0  0  0
    5.0790   -0.2161   -0.6911 C   0  0  0  0  0  0  0  0  0  0  0  0
    4.8885    1.1542   -0.4158 N   0  0  0  0  0  0  0  0  0  0  0  0
    2.8106    0.1991   -0.3433 N   0  0  0  0  0  0  0  0  0  0  0  0
    6.1287   -0.7705   -0.9184 O   0  0  0  0  0  0  0  0  0  0  0  0
   -2.4553   -0.1969    0.2099 H   0  0  0  0  0  0  0  0  0  0  0  0
   -1.3372    2.0194    0.4264 H   0  0  0  0  0  0  0  0  0  0  0  0
   -1.0716   -2.2144   -0.2680 H   0  0  0  0  0  0  0  0  0  0  0  0
    1.0834    2.2293    0.1722 H   0  0  0  0  0  0  0  0  0  0  0  0
    1.3635   -2.0243   -0.5218 H   0  0  0  0  0  0  0  0  0  0  0  0
    3.6717   -1.6901    0.1223 H   0  0  0  0  0  0  0  0  0  0  0  0
    3.4616   -1.3729   -1.6201 H   0  0  0  0  0  0  0  0  0  0  0  0
    3.1683    2.2671   -0.0035 H   0  0  0  0  0  0  0  0  0  0  0  0
  1 13  1  0  0  0  0
  1  2  1  0  0  0  0
  2 14  1  0  0  0  0
  3  1  2  0  0  0  0
  4 16  1  0  0  0  0
  4  2  2  0  0  0  0
  5  8  2  0  0  0  0
  5  3  1  0  0  0  0
  6 11  1  0  0  0  0
  6 18  1  0  0  0  0
  7 20  1  0  0  0  0
  8  4  1  0  0  0  0
  9  6  1  0  0  0  0
  9 10  1  0  0  0  0
 10  7  2  0  0  0  0
 11  7  1  0  0  0  0
 11  8  1  0  0  0  0
 12  9  2  0  0  0  0
 15  3  1  0  0  0  0
 17  5  1  0  0  0  0
 19  6  1  0  0  0  0
M  END
>  <HBA>
3

>  <HBD>
0

>  <TPSA>
32.67

>  <cid>
70516

>  <dipole>
6.0

>  <excitation_energy_1>
4.006

>  <excitation_energy_2>
4.139

>  <excitation_energy_3>
4.716

>  <excitation_energy_4>
5.29

>  <homo_energy>
-6.204

>  <homo_lumo_gap>
4.74

>  <logP>
0.562

>  <lumo_energy>
-1.464

>  <melting_point>
73.83

>  <molecular_refractivity>
53.49

>  <oscillator_strength_1>
0.0009

>  <oscillator_strength_2>
0.3367

>  <oscillator_strength_3>
0.0087

>  <oscillator_strength_4>
0.0457

>  <open_babel_can_smiles>
O=C1N=CN(C1)c1ccccc1

>  <mulliken_charges>
20
1   -0.125517
2   -0.138738
3   -0.135401
4   -0.169861
5   -0.182352
6   -0.230921
7   0.270284
8   0.353584
9   0.521378
10   -0.458431
11   -0.536215
12   -0.455246
13   0.137237
14   0.141132
15   0.140886
16   0.139896
17   0.14285
18   0.202033
19   0.202348
20   0.181054

>  <lowdin_charges>
20
1   -0.16405
2   -0.140863
3   -0.140656
4   -0.18647
5   -0.190209
6   -0.239021
7   -0.006315
8   0.057157
9   0.152771
10   -0.213319
11   -0.055647
12   -0.228627
13   0.160827
14   0.164374
15   0.163494
16   0.161419
17   0.165967
18   0.18218
19   0.181579
20   0.175408

$$$$

