PCCDB-ID:  27244
public computational chemistry database (PCCDB) project, http://pccdb.org

 30 31  0  0  0  0  0  0  0  0999 V2000
    4.8885   -1.0046   -1.4339 C   0  0  0  0  0  0  0  0  0  0  0  0
   10.1766    3.5885    0.4492 C   0  0  0  0  0  0  0  0  0  0  0  0
    9.7264    2.2481    0.3705 C   0  0  0  0  0  0  0  0  0  0  0  0
    5.7102    5.1604   -0.6654 C   0  0  0  0  0  0  0  0  0  0  0  0
    9.3046    4.6266    0.2135 C   0  0  0  0  0  0  0  0  0  0  0  0
    7.0223    5.4335   -0.3532 C   0  0  0  0  0  0  0  0  0  0  0  0
    8.4160    1.9687    0.0546 C   0  0  0  0  0  0  0  0  0  0  0  0
    5.2536    3.8251   -0.7572 C   0  0  0  0  0  0  0  0  0  0  0  0
    3.2998   -0.8969    0.5136 C   0  0  0  0  0  0  0  0  0  0  0  0
    7.9434    4.3800   -0.1121 C   0  0  0  0  0  0  0  0  0  0  0  0
    7.4942    3.0204   -0.1932 C   0  0  0  0  0  0  0  0  0  0  0  0
    6.1297    2.7929   -0.5233 C   0  0  0  0  0  0  0  0  0  0  0  0
    4.7056    0.9692    0.0746 C   0  0  0  0  0  0  0  0  0  0  0  0
    4.4475   -0.3407   -0.2095 N   0  0  0  0  0  0  0  0  0  0  0  0
    2.0725   -0.3114    0.1583 O   0  0  0  0  0  0  0  0  0  0  0  0
    4.0982    1.6162    0.9125 O   0  0  0  0  0  0  0  0  0  0  0  0
    5.7422    1.4605   -0.6791 O   0  0  0  0  0  0  0  0  0  0  0  0
    4.1095   -0.9670   -2.2066 H   0  0  0  0  0  0  0  0  0  0  0  0
    5.1169   -2.0528   -1.2157 H   0  0  0  0  0  0  0  0  0  0  0  0
    5.7881   -0.5228   -1.8119 H   0  0  0  0  0  0  0  0  0  0  0  0
   11.2142    3.7942    0.6976 H   0  0  0  0  0  0  0  0  0  0  0  0
   10.4225    1.4357    0.5605 H   0  0  0  0  0  0  0  0  0  0  0  0
    5.0106    5.9710   -0.8476 H   0  0  0  0  0  0  0  0  0  0  0  0
    9.6455    5.6574    0.2739 H   0  0  0  0  0  0  0  0  0  0  0  0
    7.3711    6.4608   -0.2865 H   0  0  0  0  0  0  0  0  0  0  0  0
    8.0697    0.9428   -0.0079 H   0  0  0  0  0  0  0  0  0  0  0  0
    4.2195    3.6121   -1.0015 H   0  0  0  0  0  0  0  0  0  0  0  0
    3.4986   -0.7897    1.5853 H   0  0  0  0  0  0  0  0  0  0  0  0
    3.2356   -1.9563    0.2585 H   0  0  0  0  0  0  0  0  0  0  0  0
    2.1099    0.5916    0.5204 H   0  0  0  0  0  0  0  0  0  0  0  0
  1 19  1  0  0  0  0
  1 14  1  0  0  0  0
  2 21  1  0  0  0  0
  3  2  1  0  0  0  0
  3 22  1  0  0  0  0
  4  6  1  0  0  0  0
  5 24  1  0  0  0  0
  5  2  2  0  0  0  0
  6 25  1  0  0  0  0
  6 10  2  0  0  0  0
  7  3  2  0  0  0  0
  8  4  2  0  0  0  0
  8 12  1  0  0  0  0
  9 28  1  0  0  0  0
 10  5  1  0  0  0  0
 11 10  1  0  0  0  0
 11  7  1  0  0  0  0
 12 11  2  0  0  0  0
 13 16  2  0  0  0  0
 14 13  1  0  0  0  0
 14  9  1  0  0  0  0
 15  9  1  0  0  0  0
 15 30  1  0  0  0  0
 17 12  1  0  0  0  0
 17 13  1  0  0  0  0
 18  1  1  0  0  0  0
 20  1  1  0  0  0  0
 23  4  1  0  0  0  0
 26  7  1  0  0  0  0
 27  8  1  0  0  0  0
 29  9  1  0  0  0  0
M  END
>  <HBA>
4

>  <HBD>
1

>  <TPSA>
49.77

>  <cid>
27244

>  <dipole>
2.26

>  <excitation_energy_1>
4.24

>  <excitation_energy_2>
4.405

>  <excitation_energy_3>
5.304

>  <excitation_energy_4>
5.428

>  <homo_energy>
-5.815

>  <homo_lumo_gap>
4.716

>  <logP>
2.22

>  <lumo_energy>
-1.099

>  <melting_point>
105.41

>  <molecular_refractivity>
64.7

>  <oscillator_strength_1>
0.1051

>  <oscillator_strength_2>
0.0011

>  <oscillator_strength_3>
0.0107

>  <oscillator_strength_4>
0.0079

>  <open_babel_can_smiles>
OCN(C(=O)Oc1cccc2c1cccc2)C

>  <mulliken_charges>
30
1   -0.325732
2   -0.1303
3   -0.136165
4   -0.150653
5   -0.195572
6   -0.17976
7   -0.179345
8   -0.139761
9   0.072113
10   0.123619
11   0.096672
12   0.28892
13   0.795188
14   -0.44197
15   -0.611919
16   -0.52641
17   -0.562078
18   0.1726
19   0.161416
20   0.195565
21   0.131927
22   0.131395
23   0.13677
24   0.132323
25   0.131241
26   0.139506
27   0.144542
28   0.160981
29   0.151869
30   0.413019

>  <lowdin_charges>
30
1   -0.353056
2   -0.154746
3   -0.156999
4   -0.152631
5   -0.153612
6   -0.159795
7   -0.154515
8   -0.165051
9   -0.06811
10   0.004312
11   -0.014148
12   0.104033
13   0.218979
14   -0.121279
15   -0.457921
16   -0.314669
17   -0.170568
18   0.156615
19   0.15414
20   0.177202
21   0.158382
22   0.160331
23   0.163414
24   0.157938
25   0.158651
26   0.163471
27   0.170325
28   0.146807
29   0.15156
30   0.35094

$$$$

