PCCDB-ID:  51714
public computational chemistry database (PCCDB) project, http://pccdb.org

 36 36  0  0  1  0  0  0  0  0999 V2000
    2.6909    0.1695   -1.4445 C   0  0  0  0  0  0  0  0  0  0  0  0
    5.5049    1.5436   -0.3257 C   0  0  0  0  0  0  0  0  0  0  0  0
    4.7608   -1.5607    0.3462 C   0  0  0  0  0  0  0  0  0  0  0  0
    3.2286   -1.5067    0.4165 C   0  0  0  0  0  0  0  0  0  0  0  0
    5.3639   -0.4769    1.2501 C   0  0  0  0  0  0  0  0  0  0  0  0
    2.6026    2.7769    2.3856 C   0  0  0  0  0  0  0  0  0  0  0  0
    2.7396    1.2592    2.1488 C   0  0  0  0  0  0  0  0  0  0  0  0
    2.6852   -0.1011    0.0704 C   0  0  1  0  0  0  0  0  0  0  0  0
    4.8253    0.9337    0.9121 C   0  0  2  0  0  0  0  0  0  0  0  0
    2.6616    2.8690    4.8967 C   0  0  0  0  0  0  0  0  0  0  0  0
    1.9328    2.5079    5.8929 N   0  0  0  0  0  0  0  0  0  0  0  0
    4.0350    3.1244    4.9347 N   0  0  0  0  0  0  0  0  0  0  0  0
    2.0409    3.1477    3.6805 N   0  0  0  0  0  0  0  0  0  0  0  0
    3.3443    0.9788    0.8428 N   0  0  0  0  0  0  0  0  0  0  0  0
    1.9842   -0.5054   -1.9425 H   0  0  0  0  0  0  0  0  0  0  0  0
    3.6693    0.0117   -1.9067 H   0  0  0  0  0  0  0  0  0  0  0  0
    2.3845    1.2009   -1.6434 H   0  0  0  0  0  0  0  0  0  0  0  0
    6.5657    1.7262   -0.1151 H   0  0  0  0  0  0  0  0  0  0  0  0
    5.0317    2.4959   -0.5838 H   0  0  0  0  0  0  0  0  0  0  0  0
    5.4565    0.8946   -1.2043 H   0  0  0  0  0  0  0  0  0  0  0  0
    5.0999   -1.4257   -0.6894 H   0  0  0  0  0  0  0  0  0  0  0  0
    5.1187   -2.5501    0.6568 H   0  0  0  0  0  0  0  0  0  0  0  0
    2.9130   -1.7683    1.4367 H   0  0  0  0  0  0  0  0  0  0  0  0
    2.7809   -2.2540   -0.2516 H   0  0  0  0  0  0  0  0  0  0  0  0
    6.4599   -0.4794    1.1874 H   0  0  0  0  0  0  0  0  0  0  0  0
    5.1104   -0.7141    2.2933 H   0  0  0  0  0  0  0  0  0  0  0  0
    1.9570    3.1989    1.6088 H   0  0  0  0  0  0  0  0  0  0  0  0
    3.5740    3.2689    2.2485 H   0  0  0  0  0  0  0  0  0  0  0  0
    1.7378    0.8177    2.1911 H   0  0  0  0  0  0  0  0  0  0  0  0
    3.3029    0.8130    2.9867 H   0  0  0  0  0  0  0  0  0  0  0  0
    1.6317   -0.0683    0.3707 H   0  0  0  0  0  0  0  0  0  0  0  0
    5.0937    1.5917    1.7487 H   0  0  0  0  0  0  0  0  0  0  0  0
    2.4816    2.4860    6.7548 H   0  0  0  0  0  0  0  0  0  0  0  0
    4.5480    2.5765    5.6112 H   0  0  0  0  0  0  0  0  0  0  0  0
    4.5204    3.2151    4.0528 H   0  0  0  0  0  0  0  0  0  0  0  0
    1.0496    2.9553    3.7739 H   0  0  0  0  0  0  0  0  0  0  0  0
  1  8  1  0  0  0  0
  2 18  1  0  0  0  0
  2  9  1  0  0  0  0
  3  4  1  0  0  0  0
  3 22  1  0  0  0  0
  3  5  1  0  0  0  0
  4 23  1  0  0  0  0
  5 26  1  0  0  0  0
  6 13  1  0  0  0  0
  7 29  1  0  0  0  0
  7  6  1  0  0  0  0
  7 30  1  0  0  0  0
  8 31  1  1  0  0  0
  8  4  1  0  0  0  0
  8 14  1  0  0  0  0
  9  5  1  0  0  0  0
  9 32  1  1  0  0  0
 10 12  2  0  0  0  0
 10 11  1  0  0  0  0
 11 33  1  0  0  0  0
 12 34  1  0  0  0  0
 13 36  1  0  0  0  0
 13 10  1  0  0  0  0
 14  9  1  0  0  0  0
 14  7  1  0  0  0  0
 15  1  1  0  0  0  0
 16  1  1  0  0  0  0
 17  1  1  0  0  0  0
 19  2  1  0  0  0  0
 20  2  1  0  0  0  0
 21  3  1  0  0  0  0
 24  4  1  0  0  0  0
 25  5  1  0  0  0  0
 27  6  1  0  0  0  0
 28  6  1  0  0  0  0
 35 12  1  0  0  0  0
M  RAD  1  11   2
M  END
>  <HBA>
4

>  <HBD>
2

>  <TPSA>
67.64

>  <cid>
51714

>  <dipole>
3.8

>  <excitation_energy_1>
4.504

>  <excitation_energy_2>
4.986

>  <excitation_energy_3>
5.035

>  <excitation_energy_4>
5.157

>  <homo_energy>
-5.385

>  <homo_lumo_gap>
6.602

>  <logP>
1.861

>  <lumo_energy>
1.216

>  <melting_point>
122.36

>  <molecular_refractivity>
63.98

>  <oscillator_strength_1>
0.0016

>  <oscillator_strength_2>
0.0029

>  <oscillator_strength_3>
0.0029

>  <oscillator_strength_4>
0.0152

>  <open_babel_can_smiles>
C[C@@H]1CCC[C@@H](N1CCNC(=[NH2])[NH])C

>  <mulliken_charges>
36
1   -0.445703
2   -0.446259
3   -0.267957
4   -0.262573
5   -0.263595
6   -0.158374
7   -0.132608
8   0.034671
9   0.037713
10   0.576582
11   -0.657059
12   -0.750422
13   -0.566623
14   -0.396279
15   0.137845
16   0.144301
17   0.150676
18   0.136117
19   0.152044
20   0.14771
21   0.133776
22   0.135372
23   0.131204
24   0.130532
25   0.12983
26   0.129662
27   0.157699
28   0.139784
29   0.138978
30   0.127656
31   0.127275
32   0.111631
33   0.261691
34   0.323593
35   0.32354
36   0.32757

>  <lowdin_charges>
36
1   -0.453992
2   -0.451742
3   -0.279056
4   -0.29187
5   -0.287086
6   -0.213755
7   -0.216411
8   -0.056464
9   -0.057745
10   0.128933
11   -0.49442
12   -0.510847
13   -0.302258
14   -0.19397
15   0.149944
16   0.146397
17   0.154393
18   0.146216
19   0.155504
20   0.149064
21   0.137995
22   0.145854
23   0.140028
24   0.146174
25   0.142459
26   0.13838
27   0.157582
28   0.139033
29   0.145327
30   0.128388
31   0.140441
32   0.13479
33   0.244497
34   0.281498
35   0.275425
36   0.281295

$$$$

