PCCDB-ID:  72861
public computational chemistry database (PCCDB) project, http://pccdb.org

 25 27  0  0  0  0  0  0  0  0999 V2000
    3.6704    0.5653    0.2045 C   0  0  0  0  0  0  0  0  0  0  0  0
   -3.6693    0.5673    0.2042 C   0  0  0  0  0  0  0  0  0  0  0  0
    3.5809   -0.8276    0.0958 C   0  0  0  0  0  0  0  0  0  0  0  0
   -3.5805   -0.8257    0.0959 C   0  0  0  0  0  0  0  0  0  0  0  0
    2.5113    1.3338    0.1618 C   0  0  0  0  0  0  0  0  0  0  0  0
   -2.5098    1.3352    0.1615 C   0  0  0  0  0  0  0  0  0  0  0  0
    2.3408   -1.4394   -0.0463 C   0  0  0  0  0  0  0  0  0  0  0  0
   -2.3407   -1.4382   -0.0461 C   0  0  0  0  0  0  0  0  0  0  0  0
    1.2501    0.7411    0.0100 C   0  0  0  0  0  0  0  0  0  0  0  0
   -1.2488    0.7418    0.0096 C   0  0  0  0  0  0  0  0  0  0  0  0
    1.1850   -0.6529   -0.0867 C   0  0  0  0  0  0  0  0  0  0  0  0
   -1.1845   -0.6522   -0.0866 C   0  0  0  0  0  0  0  0  0  0  0  0
    0.0009    1.5964   -0.0652 C   0  0  0  0  0  0  0  0  0  0  0  0
    0.0010    2.6386    0.9191 O   0  0  0  0  0  0  0  0  0  0  0  0
    0.0001   -1.3360   -0.2265 O   0  0  0  0  0  0  0  0  0  0  0  0
    4.6382    1.0446    0.3196 H   0  0  0  0  0  0  0  0  0  0  0  0
   -4.6368    1.0470    0.3196 H   0  0  0  0  0  0  0  0  0  0  0  0
    4.4791   -1.4380    0.1264 H   0  0  0  0  0  0  0  0  0  0  0  0
   -4.4790   -1.4357    0.1269 H   0  0  0  0  0  0  0  0  0  0  0  0
    2.5608    2.4149    0.2561 H   0  0  0  0  0  0  0  0  0  0  0  0
   -2.5587    2.4163    0.2554 H   0  0  0  0  0  0  0  0  0  0  0  0
    2.2406   -2.5176   -0.1216 H   0  0  0  0  0  0  0  0  0  0  0  0
   -2.2411   -2.5164   -0.1213 H   0  0  0  0  0  0  0  0  0  0  0  0
    0.0012    2.1590   -1.0084 H   0  0  0  0  0  0  0  0  0  0  0  0
    0.0003    2.2037    1.7886 H   0  0  0  0  0  0  0  0  0  0  0  0
  1 16  1  0  0  0  0
  2 17  1  0  0  0  0
  3 18  1  0  0  0  0
  3  1  2  0  0  0  0
  4 19  1  0  0  0  0
  4  2  2  0  0  0  0
  5  1  1  0  0  0  0
  5 20  1  0  0  0  0
  6  2  1  0  0  0  0
  6 21  1  0  0  0  0
  7  3  1  0  0  0  0
  8  4  1  0  0  0  0
  9  5  2  0  0  0  0
 10  6  2  0  0  0  0
 11  7  2  0  0  0  0
 11  9  1  0  0  0  0
 12  8  2  0  0  0  0
 12 10  1  0  0  0  0
 13 10  1  0  0  0  0
 13  9  1  0  0  0  0
 13 14  1  0  0  0  0
 14 25  1  0  0  0  0
 15 11  1  0  0  0  0
 15 12  1  0  0  0  0
 22  7  1  0  0  0  0
 23  8  1  0  0  0  0
 24 13  1  0  0  0  0
M  END
>  <HBA>
2

>  <HBD>
1

>  <TPSA>
29.46

>  <cid>
72861

>  <dipole>
0.89

>  <excitation_energy_1>
4.474

>  <excitation_energy_2>
4.852

>  <excitation_energy_3>
5.04

>  <excitation_energy_4>
5.414

>  <homo_energy>
-5.845

>  <homo_lumo_gap>
5.295

>  <logP>
2.874

>  <lumo_energy>
-0.55

>  <melting_point>
92.29

>  <molecular_refractivity>
57.13

>  <oscillator_strength_1>
0.0445

>  <oscillator_strength_2>
0.0936

>  <oscillator_strength_3>
0.1028

>  <oscillator_strength_4>
0.1163

>  <open_babel_can_smiles>
OC1c2ccccc2Oc2c1cccc2

>  <mulliken_charges>
25
1   -0.131584
2   -0.131556
3   -0.133019
4   -0.133017
5   -0.188438
6   -0.188502
7   -0.185712
8   -0.185719
9   0.067874
10   0.067871
11   0.312169
12   0.312186
13   0.034339
14   -0.611557
15   -0.571935
16   0.131211
17   0.131211
18   0.134479
19   0.134479
20   0.147578
21   0.147573
22   0.143364
23   0.143365
24   0.16925
25   0.38409

>  <lowdin_charges>
25
1   -0.169978
2   -0.169983
3   -0.146539
4   -0.146536
5   -0.143448
6   -0.143459
7   -0.174963
8   -0.174959
9   -0.067351
10   -0.067356
11   0.095818
12   0.095816
13   0.004735
14   -0.454155
15   -0.145617
16   0.159399
17   0.159403
18   0.161468
19   0.161467
20   0.166022
21   0.16602
22   0.167177
23   0.167177
24   0.159271
25   0.340571

$$$$

