PCCDB-ID:  70122
public computational chemistry database (PCCDB) project, http://pccdb.org

 18 18  0  0  0  0  0  0  0  0999 V2000
    1.0735    0.0277    0.1621 C   0  0  0  0  0  0  0  0  0  0  0  0
    5.2872    2.4222   -0.0114 C   0  0  0  0  0  0  0  0  0  0  0  0
    4.5584   -1.2744   -0.1421 C   0  0  0  0  0  0  0  0  0  0  0  0
    3.2131   -1.2164   -0.0464 C   0  0  0  0  0  0  0  0  0  0  0  0
    5.3531   -0.0576   -0.1366 C   0  0  0  0  0  0  0  0  0  0  0  0
    3.2029    1.1990    0.0739 C   0  0  0  0  0  0  0  0  0  0  0  0
    2.5318   -0.0294    0.0600 N   0  0  0  0  0  0  0  0  0  0  0  0
    4.5866    1.1349   -0.0264 N   0  0  0  0  0  0  0  0  0  0  0  0
    6.5727   -0.0197   -0.2186 O   0  0  0  0  0  0  0  0  0  0  0  0
    2.5904    2.2525    0.1693 O   0  0  0  0  0  0  0  0  0  0  0  0
    0.6849   -0.9921    0.1581 H   0  0  0  0  0  0  0  0  0  0  0  0
    0.6549    0.5851   -0.6797 H   0  0  0  0  0  0  0  0  0  0  0  0
    0.7786    0.5317    1.0857 H   0  0  0  0  0  0  0  0  0  0  0  0
    6.3483    2.2106   -0.1261 H   0  0  0  0  0  0  0  0  0  0  0  0
    5.0985    2.9410    0.9320 H   0  0  0  0  0  0  0  0  0  0  0  0
    4.9277    3.0512   -0.8293 H   0  0  0  0  0  0  0  0  0  0  0  0
    5.0834   -2.2163   -0.2247 H   0  0  0  0  0  0  0  0  0  0  0  0
    2.5932   -2.1069   -0.0471 H   0  0  0  0  0  0  0  0  0  0  0  0
  1 13  1  0  0  0  0
  2 15  1  0  0  0  0
  3  5  1  0  0  0  0
  3  4  2  0  0  0  0
  4  7  1  0  0  0  0
  5  8  1  0  0  0  0
  6 10  2  0  0  0  0
  7  6  1  0  0  0  0
  7  1  1  0  0  0  0
  8  2  1  0  0  0  0
  8  6  1  0  0  0  0
  9  5  2  0  0  0  0
 11  1  1  0  0  0  0
 12  1  1  0  0  0  0
 14  2  1  0  0  0  0
 16  2  1  0  0  0  0
 17  3  1  0  0  0  0
 18  4  1  0  0  0  0
M  END
>  <HBA>
4

>  <HBD>
0

>  <TPSA>
44.0

>  <cid>
70122

>  <dipole>
4.11

>  <excitation_energy_1>
4.748

>  <excitation_energy_2>
5.034

>  <excitation_energy_3>
5.657

>  <excitation_energy_4>
5.742

>  <homo_energy>
-6.52

>  <homo_lumo_gap>
5.573

>  <logP>
-0.916

>  <lumo_energy>
-0.947

>  <melting_point>
79.53

>  <molecular_refractivity>
37.49

>  <oscillator_strength_1>
0.0

>  <oscillator_strength_2>
0.1505

>  <oscillator_strength_3>
0.0389

>  <oscillator_strength_4>
0.0181

>  <open_babel_can_smiles>
Cn1ccc(=O)n(c1=O)C

>  <mulliken_charges>
18
1   -0.309469
2   -0.320093
3   -0.250708
4   0.100028
5   0.618834
6   0.795706
7   -0.482967
8   -0.550452
9   -0.514823
10   -0.521812
11   0.160509
12   0.191807
13   0.193097
14   0.202933
15   0.176725
16   0.177687
17   0.161557
18   0.17144

>  <lowdin_charges>
18
1   -0.338135
2   -0.349997
3   -0.242961
4   -0.066669
5   0.161489
6   0.18657
7   -0.054717
8   -0.082733
9   -0.289823
10   -0.30677
11   0.159948
12   0.173434
13   0.173806
14   0.182891
15   0.165907
16   0.167694
17   0.185399
18   0.174668

$$$$

