PCCDB-ID:  50919
public computational chemistry database (PCCDB) project, http://pccdb.org

 23 24  0  0  0  0  0  0  0  0999 V2000
    1.1186   -0.0926    0.5298 C   0  0  0  0  0  0  0  0  0  0  0  0
    4.4876   -1.2501   -0.2655 C   0  0  0  0  0  0  0  0  0  0  0  0
    5.2215   -2.4209   -0.4184 C   0  0  0  0  0  0  0  0  0  0  0  0
    2.4910   -2.5431    0.2233 C   0  0  0  0  0  0  0  0  0  0  0  0
    3.1475   -6.0282   -0.4294 C   0  0  0  0  0  0  0  0  0  0  0  0
    3.1242   -1.3040    0.0586 C   0  0  0  0  0  0  0  0  0  0  0  0
    4.5968   -3.6569   -0.2429 C   0  0  0  0  0  0  0  0  0  0  0  0
    3.2336   -3.7116    0.0765 C   0  0  0  0  0  0  0  0  0  0  0  0
    4.6676   -6.0944   -0.4320 C   0  0  0  0  0  0  0  0  0  0  0  0
    5.2669   -4.8865   -0.3308 N   0  0  0  0  0  0  0  0  0  0  0  0
    5.3251   -7.1286   -0.5688 O   0  0  0  0  0  0  0  0  0  0  0  0
    6.6582   -4.8648   -0.4121 O   0  0  0  0  0  0  0  0  0  0  0  0
    2.4941   -0.1004    0.1822 O   0  0  0  0  0  0  0  0  0  0  0  0
    2.6211   -4.9200    0.3030 O   0  0  0  0  0  0  0  0  0  0  0  0
    0.8307    0.9586    0.5863 H   0  0  0  0  0  0  0  0  0  0  0  0
    0.9454   -0.5693    1.5036 H   0  0  0  0  0  0  0  0  0  0  0  0
    0.5069   -0.5951   -0.2315 H   0  0  0  0  0  0  0  0  0  0  0  0
    4.9548   -0.2796   -0.3920 H   0  0  0  0  0  0  0  0  0  0  0  0
    6.2778   -2.3885   -0.6570 H   0  0  0  0  0  0  0  0  0  0  0  0
    1.4404   -2.6346    0.4679 H   0  0  0  0  0  0  0  0  0  0  0  0
    2.7618   -6.9304    0.0468 H   0  0  0  0  0  0  0  0  0  0  0  0
    2.7925   -6.0023   -1.4718 H   0  0  0  0  0  0  0  0  0  0  0  0
    6.8407   -5.8243   -0.5536 H   0  0  0  0  0  0  0  0  0  0  0  0
  1 15  1  0  0  0  0
  1 16  1  0  0  0  0
  2  6  1  0  0  0  0
  3  2  2  0  0  0  0
  3  7  1  0  0  0  0
  4 20  1  0  0  0  0
  5 21  1  0  0  0  0
  5 14  1  0  0  0  0
  6 13  1  0  0  0  0
  6  4  2  0  0  0  0
  7  8  2  0  0  0  0
  8  4  1  0  0  0  0
  8 14  1  0  0  0  0
  9  5  1  0  0  0  0
  9 10  1  0  0  0  0
 10  7  1  0  0  0  0
 11  9  2  0  0  0  0
 12 10  1  0  0  0  0
 13  1  1  0  0  0  0
 17  1  1  0  0  0  0
 18  2  1  0  0  0  0
 19  3  1  0  0  0  0
 22  5  1  0  0  0  0
 23 12  1  0  0  0  0
M  END
>  <HBA>
5

>  <HBD>
1

>  <TPSA>
59.0

>  <cid>
50919

>  <dipole>
3.01

>  <excitation_energy_1>
4.411

>  <excitation_energy_2>
4.471

>  <excitation_energy_3>
4.968

>  <excitation_energy_4>
5.179

>  <homo_energy>
-5.429

>  <homo_lumo_gap>
4.939

>  <logP>
0.875

>  <lumo_energy>
-0.49

>  <melting_point>
123.42

>  <molecular_refractivity>
50.58

>  <oscillator_strength_1>
0.2407

>  <oscillator_strength_2>
0.0288

>  <oscillator_strength_3>
0.0051

>  <oscillator_strength_4>
0.0181

>  <open_babel_can_smiles>
COc1ccc2c(c1)OCC(=O)N2O

>  <mulliken_charges>
23
1   -0.215799
2   -0.184456
3   -0.170447
4   -0.269092
5   -0.130175
6   0.386972
7   0.337089
8   0.313779
9   0.565658
10   -0.291151
11   -0.539318
12   -0.51765
13   -0.509262
14   -0.524633
15   0.173251
16   0.155195
17   0.153141
18   0.144642
19   0.168003
20   0.147803
21   0.196311
22   0.175943
23   0.434196

>  <lowdin_charges>
23
1   -0.276329
2   -0.186668
3   -0.154872
4   -0.227941
5   -0.139948
6   0.103008
7   -0.005449
8   0.090692
9   0.122448
10   0.063669
11   -0.318398
12   -0.360704
13   -0.195908
14   -0.202739
15   0.163572
16   0.146611
17   0.147243
18   0.171469
19   0.17866
20   0.174382
21   0.182877
22   0.159672
23   0.364651

$$$$

