PCCDB-ID:  13856
public computational chemistry database (PCCDB) project, http://pccdb.org

 22 22  0  0  0  0  0  0  0  0999 V2000
    0.8960    0.0413    0.2313 C   0  0  0  0  0  0  0  0  0  0  0  0
    2.3969    0.0351    0.0466 C   0  0  0  0  0  0  0  0  0  0  0  0
    4.4135    0.2166   -3.6392 C   0  0  0  0  0  0  0  0  0  0  0  0
    5.0569    0.6416   -2.3108 C   0  0  0  0  0  0  0  0  0  0  0  0
    2.8810    0.2056   -3.5402 C   0  0  0  0  0  0  0  0  0  0  0  0
    4.5733   -0.2474   -1.1460 C   0  0  0  0  0  0  0  0  0  0  0  0
    2.3957   -0.6808   -2.3721 C   0  0  0  0  0  0  0  0  0  0  0  0
    3.0620   -0.2872   -1.0714 C   0  0  0  0  0  0  0  0  0  0  0  0
    0.6331    0.3088    1.2594 H   0  0  0  0  0  0  0  0  0  0  0  0
    0.4472   -0.9391    0.0259 H   0  0  0  0  0  0  0  0  0  0  0  0
    0.3992    0.7654   -0.4279 H   0  0  0  0  0  0  0  0  0  0  0  0
    2.9861    0.3171    0.9197 H   0  0  0  0  0  0  0  0  0  0  0  0
    4.7656   -0.7917   -3.9051 H   0  0  0  0  0  0  0  0  0  0  0  0
    4.7367    0.8830   -4.4492 H   0  0  0  0  0  0  0  0  0  0  0  0
    4.7915    1.6865   -2.0966 H   0  0  0  0  0  0  0  0  0  0  0  0
    6.1513    0.6004   -2.3850 H   0  0  0  0  0  0  0  0  0  0  0  0
    2.4390   -0.1445   -4.4818 H   0  0  0  0  0  0  0  0  0  0  0  0
    2.5209    1.2321   -3.3826 H   0  0  0  0  0  0  0  0  0  0  0  0
    4.9970    0.0990   -0.1958 H   0  0  0  0  0  0  0  0  0  0  0  0
    4.9567   -1.2679   -1.3112 H   0  0  0  0  0  0  0  0  0  0  0  0
    2.6514   -1.7278   -2.6039 H   0  0  0  0  0  0  0  0  0  0  0  0
    1.3047   -0.6362   -2.2921 H   0  0  0  0  0  0  0  0  0  0  0  0
  1  9  1  0  0  0  0
  2  1  1  0  0  0  0
  2 12  1  0  0  0  0
  3  5  1  0  0  0  0
  3  4  1  0  0  0  0
  4 15  1  0  0  0  0
  4  6  1  0  0  0  0
  5 18  1  0  0  0  0
  5  7  1  0  0  0  0
  6  8  1  0  0  0  0
  6 19  1  0  0  0  0
  7 22  1  0  0  0  0
  7  8  1  0  0  0  0
  8  2  2  0  0  0  0
 10  1  1  0  0  0  0
 11  1  1  0  0  0  0
 13  3  1  0  0  0  0
 14  3  1  0  0  0  0
 16  4  1  0  0  0  0
 17  5  1  0  0  0  0
 20  6  1  0  0  0  0
 21  7  1  0  0  0  0
M  END
>  <HBA>
0

>  <HBD>
0

>  <TPSA>
0.0

>  <cid>
13856

>  <dipole>
0.29

>  <excitation_energy_1>
5.598

>  <excitation_energy_2>
6.005

>  <excitation_energy_3>
6.07

>  <excitation_energy_4>
6.214

>  <homo_energy>
-6.065

>  <homo_lumo_gap>
6.836

>  <logP>
2.897

>  <lumo_energy>
0.77

>  <melting_point>
7.9

>  <molecular_refractivity>
37.98

>  <oscillator_strength_1>
0.0444

>  <oscillator_strength_2>
0.0901

>  <oscillator_strength_3>
0.0142

>  <oscillator_strength_4>
0.0233

>  <open_babel_can_smiles>
CC=C1CCCCC1

>  <mulliken_charges>
22
1   -0.485171
2   -0.194761
3   -0.258047
4   -0.254784
5   -0.255232
6   -0.325985
7   -0.330576
8   0.204393
9   0.146831
10   0.157093
11   0.156378
12   0.115568
13   0.126836
14   0.131337
15   0.133003
16   0.129183
17   0.129592
18   0.133575
19   0.134083
20   0.133011
21   0.136055
22   0.137616

>  <lowdin_charges>
22
1   -0.448703
2   -0.195449
3   -0.279437
4   -0.273028
5   -0.274173
6   -0.272717
7   -0.274777
8   -0.016551
9   0.153909
10   0.155957
11   0.157181
12   0.146367
13   0.135962
14   0.144846
15   0.138896
16   0.1404
17   0.14286
18   0.139446
19   0.146628
20   0.141099
21   0.143614
22   0.147671

$$$$

