PCCDB-ID:  10243
public computational chemistry database (PCCDB) project, http://pccdb.org

 20 21  0  0  0  0  0  0  0  0999 V2000
   -2.4775   -0.6141   -0.1712 C   0  0  0  0  0  0  0  0  0  0  0  0
   -2.4204    0.7994   -0.1423 C   0  0  0  0  0  0  0  0  0  0  0  0
   -1.3303   -1.3760   -0.1187 C   0  0  0  0  0  0  0  0  0  0  0  0
   -1.2037    1.4334   -0.0599 C   0  0  0  0  0  0  0  0  0  0  0  0
    2.3651   -0.6983    0.1109 C   0  0  0  0  0  0  0  0  0  0  0  0
    2.2923    0.7118    0.1322 C   0  0  0  0  0  0  0  0  0  0  0  0
   -0.0537   -0.7545   -0.0335 C   0  0  0  0  0  0  0  0  0  0  0  0
    1.2035   -1.4448    0.0281 C   0  0  0  0  0  0  0  0  0  0  0  0
    0.0005    0.6826   -0.0033 C   0  0  0  0  0  0  0  0  0  0  0  0
    1.3006   -2.9361    0.0020 C   0  0  0  0  0  0  0  0  0  0  0  0
    1.1651    1.3892    0.0785 N   0  0  0  0  0  0  0  0  0  0  0  0
    2.5848   -3.3722    0.0851 O   0  0  0  0  0  0  0  0  0  0  0  0
    0.3783   -3.7231   -0.0836 O   0  0  0  0  0  0  0  0  0  0  0  0
   -3.4426   -1.1095   -0.2357 H   0  0  0  0  0  0  0  0  0  0  0  0
   -3.3387    1.3786   -0.1849 H   0  0  0  0  0  0  0  0  0  0  0  0
   -1.3857   -2.4553   -0.1415 H   0  0  0  0  0  0  0  0  0  0  0  0
   -1.1154    2.5147   -0.0344 H   0  0  0  0  0  0  0  0  0  0  0  0
    3.3295   -1.1882    0.1596 H   0  0  0  0  0  0  0  0  0  0  0  0
    3.2095    1.2956    0.1980 H   0  0  0  0  0  0  0  0  0  0  0  0
    2.5290   -4.3453    0.0587 H   0  0  0  0  0  0  0  0  0  0  0  0
  1  2  2  0  0  0  0
  1  3  1  0  0  0  0
  2  4  1  0  0  0  0
  3  7  2  0  0  0  0
  4 17  1  0  0  0  0
  4  9  2  0  0  0  0
  5  6  1  0  0  0  0
  5 18  1  0  0  0  0
  6 19  1  0  0  0  0
  7  9  1  0  0  0  0
  7  8  1  0  0  0  0
  8  5  2  0  0  0  0
  9 11  1  0  0  0  0
 10  8  1  0  0  0  0
 10 12  1  0  0  0  0
 11  6  2  0  0  0  0
 13 10  2  0  0  0  0
 14  1  1  0  0  0  0
 15  2  1  0  0  0  0
 16  3  1  0  0  0  0
 20 12  1  0  0  0  0
M  END
>  <HBA>
3

>  <HBD>
1

>  <TPSA>
50.19

>  <cid>
10243

>  <dipole>
1.12

>  <excitation_energy_1>
3.616

>  <excitation_energy_2>
3.701

>  <excitation_energy_3>
4.101

>  <excitation_energy_4>
4.535

>  <homo_energy>
-6.465

>  <homo_lumo_gap>
4.248

>  <logP>
1.933

>  <lumo_energy>
-2.218

>  <melting_point>
155.49

>  <molecular_refractivity>
48.7

>  <oscillator_strength_1>
0.0629

>  <oscillator_strength_2>
0.001

>  <oscillator_strength_3>
0.0756

>  <oscillator_strength_4>
0.0003

>  <open_babel_can_smiles>
OC(=O)c1ccnc2c1cccc2

>  <mulliken_charges>
20
1   -0.135145
2   -0.130466
3   -0.191484
4   -0.142963
5   -0.194003
6   0.045315
7   0.091915
8   0.051681
9   0.228619
10   0.563253
11   -0.479924
12   -0.582233
13   -0.470412
14   0.138987
15   0.138079
16   0.185567
17   0.148281
18   0.172053
19   0.147028
20   0.415853

>  <lowdin_charges>
20
1   -0.146937
2   -0.150284
3   -0.158169
4   -0.147504
5   -0.156176
6   -0.091199
7   -0.005477
8   -0.026514
9   0.041795
10   0.205173
11   -0.130411
12   -0.355722
13   -0.262993
14   0.162398
15   0.162966
16   0.184032
17   0.16972
18   0.181463
19   0.160442
20   0.363397

$$$$

