PCCDB-ID:  19306
public computational chemistry database (PCCDB) project, http://pccdb.org

 28 28  0  0  0  0  0  0  0  0999 V2000
    0.0171    0.1519   -0.0403 C   0  0  0  0  0  0  0  0  0  0  0  0
    2.2512   -0.8221    0.6696 C   0  0  0  0  0  0  0  0  0  0  0  0
    2.2389    1.2194   -0.6124 C   0  0  0  0  0  0  0  0  0  0  0  0
    3.6397   -0.7975    0.7225 C   0  0  0  0  0  0  0  0  0  0  0  0
    3.6292    1.2528   -0.5698 C   0  0  0  0  0  0  0  0  0  0  0  0
    8.4267   -0.2444    2.0860 C   0  0  0  0  0  0  0  0  0  0  0  0
    7.8396   -0.2711    0.6713 C   0  0  0  0  0  0  0  0  0  0  0  0
    8.3607    0.8851    4.3143 C   0  0  0  0  0  0  0  0  0  0  0  0
    8.3877    2.2561    2.3206 C   0  0  0  0  0  0  0  0  0  0  0  0
    1.5259    0.1821    0.0060 C   0  0  0  0  0  0  0  0  0  0  0  0
    7.9320    0.9832    2.9085 C   0  0  0  0  0  0  0  0  0  0  0  0
    4.3377    0.2488    0.1016 C   0  0  0  0  0  0  0  0  0  0  0  0
    8.6965    0.7701    5.4184 N   0  0  0  0  0  0  0  0  0  0  0  0
    8.7509    3.2421    1.8298 N   0  0  0  0  0  0  0  0  0  0  0  0
    6.3869   -0.4683    0.7456 N   0  0  0  0  0  0  0  0  0  0  0  0
    5.7550    0.3865    0.0820 N   0  0  0  0  0  0  0  0  0  0  0  0
   -0.3803   -0.7659    0.4031 H   0  0  0  0  0  0  0  0  0  0  0  0
   -0.3513    0.2159   -1.0712 H   0  0  0  0  0  0  0  0  0  0  0  0
   -0.4133    1.0003    0.5067 H   0  0  0  0  0  0  0  0  0  0  0  0
    1.7124   -1.6355    1.1498 H   0  0  0  0  0  0  0  0  0  0  0  0
    1.6981    2.0049   -1.1348 H   0  0  0  0  0  0  0  0  0  0  0  0
    4.1967   -1.5758    1.2326 H   0  0  0  0  0  0  0  0  0  0  0  0
    4.1907    2.0499   -1.0476 H   0  0  0  0  0  0  0  0  0  0  0  0
    9.5197   -0.2305    2.0414 H   0  0  0  0  0  0  0  0  0  0  0  0
    8.1213   -1.1452    2.6275 H   0  0  0  0  0  0  0  0  0  0  0  0
    8.2560   -1.1415    0.1474 H   0  0  0  0  0  0  0  0  0  0  0  0
    8.0872    0.6337    0.1019 H   0  0  0  0  0  0  0  0  0  0  0  0
    6.8333    0.9829    2.8915 H   0  0  0  0  0  0  0  0  0  0  0  0
  1 10  1  0  0  0  0
  1 17  1  0  0  0  0
  1 19  1  0  0  0  0
  2  4  1  0  0  0  0
  2 20  1  0  0  0  0
  3  5  2  0  0  0  0
  3 10  1  0  0  0  0
  4 22  1  0  0  0  0
  5 12  1  0  0  0  0
  6 25  1  0  0  0  0
  6 11  1  0  0  0  0
  7 15  1  0  0  0  0
  7  6  1  0  0  0  0
  8 13  3  0  0  0  0
  9 11  1  0  0  0  0
 10  2  2  0  0  0  0
 11  8  1  0  0  0  0
 12  4  2  0  0  0  0
 14  9  3  0  0  0  0
 16 12  1  0  0  0  0
 16 15  1  0  0  0  0
 18  1  1  0  0  0  0
 21  3  1  0  0  0  0
 23  5  1  0  0  0  0
 24  6  1  0  0  0  0
 26  7  1  0  0  0  0
 27  7  1  0  0  0  0
 28 11  1  0  0  0  0
M  RAD  2  15   2  16   2
M  END
>  <HBA>
4

>  <HBD>
0

>  <TPSA>
72.3

>  <cid>
19306

>  <dipole>
5.61

>  <excitation_energy_1>
2.948

>  <excitation_energy_2>
4.203

>  <excitation_energy_3>
4.306

>  <excitation_energy_4>
5.257

>  <homo_energy>
-6.574

>  <homo_lumo_gap>
4.406

>  <logP>
3.132

>  <lumo_energy>
-2.169

>  <melting_point>
96.2

>  <molecular_refractivity>
60.51

>  <oscillator_strength_1>
0.0002

>  <oscillator_strength_2>
0.1981

>  <oscillator_strength_3>
0.2845

>  <oscillator_strength_4>
0.0007

>  <open_babel_can_smiles>
N#CC(CC[N][N]c1ccc(cc1)C)C#N

>  <mulliken_charges>
28
1   -0.533644
2   -0.196581
3   -0.186312
4   -0.124551
5   -0.134032
6   -0.275847
7   -0.148947
8   0.368887
9   0.37981
10   0.18898
11   -0.229138
12   0.24283
13   -0.44965
14   -0.4489
15   -0.205564
16   -0.285599
17   0.160997
18   0.168997
19   0.171681
20   0.133867
21   0.134256
22   0.154747
23   0.150832
24   0.18188
25   0.186117
26   0.173596
27   0.175577
28   0.245711

>  <lowdin_charges>
28
1   -0.443194
2   -0.163805
3   -0.165447
4   -0.148443
5   -0.13998
6   -0.260969
7   -0.22344
8   -0.009404
9   -0.008917
10   0.018566
11   -0.115509
12   -0.00399
13   -0.09413
14   -0.093204
15   -0.113575
16   -0.071396
17   0.160326
18   0.164255
19   0.167243
20   0.160392
21   0.161762
22   0.17397
23   0.172725
24   0.169483
25   0.172693
26   0.16883
27   0.157437
28   0.207721

$$$$

