PCCDB-ID:  28905
public computational chemistry database (PCCDB) project, http://pccdb.org

 25 25  0  0  0  0  0  0  0  0999 V2000
    2.9860   -0.8176   -1.9324 C   0  0  0  0  0  0  0  0  0  0  0  0
    4.2281    1.5169    2.5056 C   0  0  0  0  0  0  0  0  0  0  0  0
    4.0670   -3.1892    3.9615 C   0  0  0  0  0  0  0  0  0  0  0  0
    1.9803   -0.7331   -0.7693 C   0  0  0  0  0  0  0  0  0  0  0  0
    3.3862    0.8951    1.3899 C   0  0  0  0  0  0  0  0  0  0  0  0
    2.8499   -3.2562    1.7273 C   0  0  0  0  0  0  0  0  0  0  0  0
    3.5125   -2.5366    2.7226 C   0  0  0  0  0  0  0  0  0  0  0  0
    2.5196   -1.3500    0.5025 C   0  0  0  0  0  0  0  0  0  0  0  0
    3.1929   -0.6073    1.5039 C   0  0  0  0  0  0  0  0  0  0  0  0
    2.3585   -2.6723    0.6300 N   0  0  0  0  0  0  0  0  0  0  0  0
    3.6759   -1.2095    2.5943 N   0  0  0  0  0  0  0  0  0  0  0  0
    2.5595   -0.3908   -2.8470 H   0  0  0  0  0  0  0  0  0  0  0  0
    3.2498   -1.8616   -2.1306 H   0  0  0  0  0  0  0  0  0  0  0  0
    3.9109   -0.2744   -1.7059 H   0  0  0  0  0  0  0  0  0  0  0  0
    4.3201    2.5972    2.3480 H   0  0  0  0  0  0  0  0  0  0  0  0
    5.2327    1.0840    2.5323 H   0  0  0  0  0  0  0  0  0  0  0  0
    3.7763    1.3452    3.4864 H   0  0  0  0  0  0  0  0  0  0  0  0
    3.8889   -4.2688    3.9604 H   0  0  0  0  0  0  0  0  0  0  0  0
    3.6080   -2.7621    4.8605 H   0  0  0  0  0  0  0  0  0  0  0  0
    5.1461   -3.0141    4.0381 H   0  0  0  0  0  0  0  0  0  0  0  0
    1.0726   -1.2817   -1.0423 H   0  0  0  0  0  0  0  0  0  0  0  0
    1.6933    0.3107   -0.6018 H   0  0  0  0  0  0  0  0  0  0  0  0
    3.8380    1.1229    0.4147 H   0  0  0  0  0  0  0  0  0  0  0  0
    2.3965    1.3752    1.3671 H   0  0  0  0  0  0  0  0  0  0  0  0
    2.7069   -4.3322    1.8154 H   0  0  0  0  0  0  0  0  0  0  0  0
  1 14  1  0  0  0  0
  1  4  1  0  0  0  0
  2 16  1  0  0  0  0
  2 17  1  0  0  0  0
  3 20  1  0  0  0  0
  3 19  1  0  0  0  0
  4 22  1  0  0  0  0
  4  8  1  0  0  0  0
  5  9  1  0  0  0  0
  5  2  1  0  0  0  0
  6 25  1  0  0  0  0
  6  7  2  0  0  0  0
  7  3  1  0  0  0  0
  8 10  2  0  0  0  0
  8  9  1  0  0  0  0
  9 11  2  0  0  0  0
 10  6  1  0  0  0  0
 11  7  1  0  0  0  0
 12  1  1  0  0  0  0
 13  1  1  0  0  0  0
 15  2  1  0  0  0  0
 18  3  1  0  0  0  0
 21  4  1  0  0  0  0
 23  5  1  0  0  0  0
 24  5  1  0  0  0  0
M  END
>  <HBA>
2

>  <HBD>
0

>  <TPSA>
25.78

>  <cid>
28905

>  <dipole>
0.5

>  <excitation_energy_1>
4.066

>  <excitation_energy_2>
4.756

>  <excitation_energy_3>
4.991

>  <excitation_energy_4>
5.547

>  <homo_energy>
-6.384

>  <homo_lumo_gap>
5.415

>  <logP>
1.91

>  <lumo_energy>
-0.969

>  <melting_point>
46.51

>  <molecular_refractivity>
46.54

>  <oscillator_strength_1>
0.0044

>  <oscillator_strength_2>
0.0002

>  <oscillator_strength_3>
0.163

>  <oscillator_strength_4>
0.0002

>  <open_babel_can_smiles>
CCc1nc(C)cnc1CC

>  <mulliken_charges>
25
1   -0.446334
2   -0.427593
3   -0.508972
4   -0.314046
5   -0.344384
6   -0.013084
7   0.301418
8   0.255981
9   0.283027
10   -0.438038
11   -0.504115
12   0.147704
13   0.164455
14   0.146118
15   0.1348
16   0.154398
17   0.159329
18   0.153307
19   0.172128
20   0.17228
21   0.161588
22   0.140711
23   0.155347
24   0.157128
25   0.136846

>  <lowdin_charges>
25
1   -0.439104
2   -0.436318
3   -0.440807
4   -0.277635
5   -0.280652
6   -0.124647
7   0.034494
8   0.024935
9   0.030834
10   -0.130404
11   -0.141086
12   0.152338
13   0.156897
14   0.147135
15   0.145363
16   0.154688
17   0.157299
18   0.154953
19   0.169215
20   0.167249
21   0.162927
22   0.148016
23   0.154272
24   0.155218
25   0.154821

$$$$

