PCCDB-ID:  34884
public computational chemistry database (PCCDB) project, http://pccdb.org

 29 30  0  0  1  0  0  0  0  0999 V2000
    0.8906   -0.0750    0.5251 C   0  0  0  0  0  0  0  0  0  0  0  0
    5.2049    1.4856    3.9671 C   0  0  0  0  0  0  0  0  0  0  0  0
    3.7249   -3.7112    1.6859 C   0  0  0  0  0  0  0  0  0  0  0  0
    2.9798    1.2998    0.3020 C   0  0  0  0  0  0  0  0  0  0  0  0
    5.0697   -1.0279    4.0325 C   0  0  0  0  0  0  0  0  0  0  0  0
    4.7106   -2.2608    3.4938 C   0  0  0  0  0  0  0  0  0  0  0  0
    3.8355    1.3037    1.3360 C   0  0  0  0  0  0  0  0  0  0  0  0
    3.1768   -1.1832    0.1650 C   0  0  0  0  0  0  0  0  0  0  0  0
    2.2807    0.0347   -0.1360 C   0  0  1  0  0  0  0  0  0  0  0  0
    4.8072    0.1622    3.3514 C   0  0  0  0  0  0  0  0  0  0  0  0
    4.0763   -2.3517    2.2496 C   0  0  0  0  0  0  0  0  0  0  0  0
    4.1597    0.0884    2.0974 C   0  0  0  0  0  0  0  0  0  0  0  0
    3.7971   -1.1644    1.5514 C   0  0  0  0  0  0  0  0  0  0  0  0
    0.2775    0.8055    0.3014 H   0  0  0  0  0  0  0  0  0  0  0  0
    0.9827   -0.1527    1.6138 H   0  0  0  0  0  0  0  0  0  0  0  0
    0.3552   -0.9606    0.1606 H   0  0  0  0  0  0  0  0  0  0  0  0
    5.6781    1.3300    4.9415 H   0  0  0  0  0  0  0  0  0  0  0  0
    4.3411    2.1445    4.1197 H   0  0  0  0  0  0  0  0  0  0  0  0
    5.9192    2.0347    3.3399 H   0  0  0  0  0  0  0  0  0  0  0  0
    4.0365   -4.5060    2.3707 H   0  0  0  0  0  0  0  0  0  0  0  0
    4.2149   -3.8959    0.7215 H   0  0  0  0  0  0  0  0  0  0  0  0
    2.6456   -3.8237    1.5211 H   0  0  0  0  0  0  0  0  0  0  0  0
    2.7276    2.2304   -0.2032 H   0  0  0  0  0  0  0  0  0  0  0  0
    5.5636   -0.9890    5.0008 H   0  0  0  0  0  0  0  0  0  0  0  0
    4.9306   -3.1716    4.0463 H   0  0  0  0  0  0  0  0  0  0  0  0
    4.2871    2.2388    1.6548 H   0  0  0  0  0  0  0  0  0  0  0  0
    3.9932   -1.2014   -0.5753 H   0  0  0  0  0  0  0  0  0  0  0  0
    2.6037   -2.1028    0.0069 H   0  0  0  0  0  0  0  0  0  0  0  0
    2.1271    0.0716   -1.2230 H   0  0  0  0  0  0  0  0  0  0  0  0
  1 15  1  0  0  0  0
  2 18  1  0  0  0  0
  2 17  1  0  0  0  0
  3 11  1  0  0  0  0
  3 20  1  0  0  0  0
  4  7  2  0  0  0  0
  5 24  1  0  0  0  0
  6  5  1  0  0  0  0
  6 25  1  0  0  0  0
  7 26  1  0  0  0  0
  7 12  1  0  0  0  0
  8 13  1  0  0  0  0
  9 29  1  6  0  0  0
  9  8  1  0  0  0  0
  9  4  1  0  0  0  0
  9  1  1  0  0  0  0
 10  2  1  0  0  0  0
 10  5  2  0  0  0  0
 11  6  2  0  0  0  0
 12 10  1  0  0  0  0
 13 12  2  0  0  0  0
 13 11  1  0  0  0  0
 14  1  1  0  0  0  0
 16  1  1  0  0  0  0
 19  2  1  0  0  0  0
 21  3  1  0  0  0  0
 22  3  1  0  0  0  0
 23  4  1  0  0  0  0
 27  8  1  0  0  0  0
 28  8  1  0  0  0  0
M  END
>  <HBA>
0

>  <HBD>
0

>  <TPSA>
0.0

>  <cid>
34884

>  <dipole>
0.48

>  <excitation_energy_1>
4.496

>  <excitation_energy_2>
4.516

>  <excitation_energy_3>
5.142

>  <excitation_energy_4>
5.412

>  <homo_energy>
-5.559

>  <homo_lumo_gap>
4.974

>  <logP>
3.509

>  <lumo_energy>
-0.585

>  <melting_point>
62.61

>  <molecular_refractivity>
58.93

>  <oscillator_strength_1>
0.1692

>  <oscillator_strength_2>
0.0546

>  <oscillator_strength_3>
0.0448

>  <oscillator_strength_4>
0.2088

>  <open_babel_can_smiles>
C[C@H]1C=Cc2c(C1)c(C)ccc2C

>  <mulliken_charges>
29
1   -0.440416
2   -0.536546
3   -0.537051
4   -0.131361
5   -0.191725
6   -0.182133
7   -0.157613
8   -0.350807
9   -0.116272
10   0.127843
11   0.12266
12   0.062138
13   0.051742
14   0.142127
15   0.158301
16   0.137788
17   0.153403
18   0.161375
19   0.159955
20   0.152749
21   0.159055
22   0.159522
23   0.123505
24   0.11617
25   0.116053
26   0.122907
27   0.152085
28   0.138334
29   0.126209

>  <lowdin_charges>
29
1   -0.442276
2   -0.445542
3   -0.442232
4   -0.162525
5   -0.171051
6   -0.169984
7   -0.17393
8   -0.274994
9   -0.119743
10   -0.008093
11   -0.013946
12   -0.021437
13   -0.012795
14   0.150311
15   0.153844
16   0.14646
17   0.15604
18   0.15956
19   0.158867
20   0.156723
21   0.157346
22   0.155452
23   0.153374
24   0.151379
25   0.152576
26   0.15752
27   0.155336
28   0.151512
29   0.14225

$$$$

