PCCDB-ID:  54072
public computational chemistry database (PCCDB) project, http://pccdb.org

 31 31  0  0  0  0  0  0  0  0999 V2000
    5.2794   -0.5657   -4.3752 C   0  0  0  0  0  0  0  0  0  0  0  0
    2.5995    2.2546   -1.1494 C   0  0  0  0  0  0  0  0  0  0  0  0
    3.6186    2.5529   -2.0486 C   0  0  0  0  0  0  0  0  0  0  0  0
    2.6396   -2.6677    1.8045 C   0  0  0  0  0  0  0  0  0  0  0  0
    2.1740    0.9327   -1.0091 C   0  0  0  0  0  0  0  0  0  0  0  0
    4.1964    1.5427   -2.8217 C   0  0  0  0  0  0  0  0  0  0  0  0
    4.0033   -3.2654    1.4596 C   0  0  0  0  0  0  0  0  0  0  0  0
    2.1925   -1.5689    0.8309 C   0  0  0  0  0  0  0  0  0  0  0  0
    2.7433   -0.1075   -1.7525 C   0  0  0  0  0  0  0  0  0  0  0  0
    3.7533    0.2256   -2.6848 C   0  0  0  0  0  0  0  0  0  0  0  0
    2.2543   -1.5202   -1.5728 C   0  0  0  0  0  0  0  0  0  0  0  0
    4.3836   -4.2792    2.4558 N   0  0  0  0  0  0  0  0  0  0  0  0
    1.9821   -2.1262   -0.4919 N   0  0  0  0  0  0  0  0  0  0  0  0
    2.0141   -2.2090   -2.7295 O   0  0  0  0  0  0  0  0  0  0  0  0
    4.2384   -0.8168   -3.4379 O   0  0  0  0  0  0  0  0  0  0  0  0
    5.5033   -1.5299   -4.8337 H   0  0  0  0  0  0  0  0  0  0  0  0
    6.1760   -0.1826   -3.8740 H   0  0  0  0  0  0  0  0  0  0  0  0
    4.9600    0.1435   -5.1488 H   0  0  0  0  0  0  0  0  0  0  0  0
    2.1354    3.0398   -0.5603 H   0  0  0  0  0  0  0  0  0  0  0  0
    3.9686    3.5749   -2.1644 H   0  0  0  0  0  0  0  0  0  0  0  0
    2.6782   -2.2591    2.8222 H   0  0  0  0  0  0  0  0  0  0  0  0
    1.8817   -3.4632    1.8008 H   0  0  0  0  0  0  0  0  0  0  0  0
    1.3692    0.6998   -0.3205 H   0  0  0  0  0  0  0  0  0  0  0  0
    4.9793    1.7914   -3.5285 H   0  0  0  0  0  0  0  0  0  0  0  0
    4.7631   -2.4718    1.4897 H   0  0  0  0  0  0  0  0  0  0  0  0
    3.9739   -3.6420    0.4236 H   0  0  0  0  0  0  0  0  0  0  0  0
    2.9241   -0.7446    0.8471 H   0  0  0  0  0  0  0  0  0  0  0  0
    1.2419   -1.1546    1.1996 H   0  0  0  0  0  0  0  0  0  0  0  0
    3.7266   -5.0581    2.4000 H   0  0  0  0  0  0  0  0  0  0  0  0
    5.2920   -4.6714    2.2100 H   0  0  0  0  0  0  0  0  0  0  0  0
    2.5486   -1.8081   -3.4360 H   0  0  0  0  0  0  0  0  0  0  0  0
  1 17  1  0  0  0  0
  1 15  1  0  0  0  0
  2  5  1  0  0  0  0
  2 19  1  0  0  0  0
  3  2  2  0  0  0  0
  4 21  1  0  0  0  0
  5 23  1  0  0  0  0
  6 10  2  0  0  0  0
  6  3  1  0  0  0  0
  7 25  1  0  0  0  0
  7  4  1  0  0  0  0
  7 12  1  0  0  0  0
  8 27  1  0  0  0  0
  8 28  1  0  0  0  0
  8  4  1  0  0  0  0
  9 11  1  0  0  0  0
  9  5  2  0  0  0  0
 10  9  1  0  0  0  0
 11 13  2  0  0  0  0
 13  8  1  0  0  0  0
 14 11  1  0  0  0  0
 15 10  1  0  0  0  0
 16  1  1  0  0  0  0
 18  1  1  0  0  0  0
 20  3  1  0  0  0  0
 22  4  1  0  0  0  0
 24  6  1  0  0  0  0
 26  7  1  0  0  0  0
 29 12  1  0  0  0  0
 30 12  1  0  0  0  0
 31 14  1  0  0  0  0
M  END
>  <HBA>
4

>  <HBD>
2

>  <TPSA>
64.35

>  <cid>
54072

>  <dipole>
5.56

>  <excitation_energy_1>
4.397

>  <excitation_energy_2>
4.651

>  <excitation_energy_3>
4.836

>  <excitation_energy_4>
5.092

>  <homo_energy>
-5.867

>  <homo_lumo_gap>
5.042

>  <logP>
1.865

>  <lumo_energy>
-0.825

>  <melting_point>
124.42

>  <molecular_refractivity>
58.25

>  <oscillator_strength_1>
0.0053

>  <oscillator_strength_2>
0.0637

>  <oscillator_strength_3>
0.0418

>  <oscillator_strength_4>
0.0398

>  <open_babel_can_smiles>
NCCC/N=C(\c1ccccc1OC)/O

>  <mulliken_charges>
31
1   -0.221408
2   -0.132445
3   -0.133319
4   -0.24385
5   -0.17486
6   -0.189587
7   -0.13631
8   -0.158447
9   0.026588
10   0.331704
11   0.432268
12   -0.719608
13   -0.414969
14   -0.603392
15   -0.537828
16   0.181079
17   0.164569
18   0.160653
19   0.136702
20   0.138763
21   0.136904
22   0.135434
23   0.155143
24   0.139024
25   0.125857
26   0.135928
27   0.127179
28   0.13744
29   0.290323
30   0.28975
31   0.420718

>  <lowdin_charges>
31
1   -0.278227
2   -0.173571
3   -0.137478
4   -0.281218
5   -0.136541
6   -0.207854
7   -0.207352
8   -0.202267
9   -0.066791
10   0.096724
11   0.13056
12   -0.562362
13   -0.202367
14   -0.380076
15   -0.208633
16   0.169116
17   0.153664
18   0.150901
19   0.163966
20   0.161589
21   0.145533
22   0.144428
23   0.171611
24   0.166424
25   0.135165
26   0.12718
27   0.130138
28   0.142939
29   0.250625
30   0.250842
31   0.353331

$$$$

