PCCDB-ID:  9015
public computational chemistry database (PCCDB) project, http://pccdb.org

 17 17  0  0  0  0  0  0  0  0999 V2000
    2.7769   -1.2177    0.6797 C   0  0  0  0  0  0  0  0  0  0  0  0
    3.3602    3.5549    0.7944 C   0  0  0  0  0  0  0  0  0  0  0  0
    5.0888    2.1646    1.7429 C   0  0  0  0  0  0  0  0  0  0  0  0
    2.6295    2.4196    0.4598 C   0  0  0  0  0  0  0  0  0  0  0  0
    4.3569    1.0228    1.4091 C   0  0  0  0  0  0  0  0  0  0  0  0
    4.5970    3.4335    1.4394 C   0  0  0  0  0  0  0  0  0  0  0  0
    3.1204    1.1441    0.7646 C   0  0  0  0  0  0  0  0  0  0  0  0
    5.3620    4.5176    1.7932 O   0  0  0  0  0  0  0  0  0  0  0  0
    2.3226    0.0926    0.3935 O   0  0  0  0  0  0  0  0  0  0  0  0
    2.0031   -1.8927    0.3087 H   0  0  0  0  0  0  0  0  0  0  0  0
    2.9074   -1.3760    1.7592 H   0  0  0  0  0  0  0  0  0  0  0  0
    3.7248   -1.4396    0.1700 H   0  0  0  0  0  0  0  0  0  0  0  0
    2.9660    4.5403    0.5516 H   0  0  0  0  0  0  0  0  0  0  0  0
    6.0486    2.0783    2.2426 H   0  0  0  0  0  0  0  0  0  0  0  0
    1.6700    2.5026   -0.0408 H   0  0  0  0  0  0  0  0  0  0  0  0
    4.7637    0.0489    1.6566 H   0  0  0  0  0  0  0  0  0  0  0  0
    4.8999    5.3260    1.5238 H   0  0  0  0  0  0  0  0  0  0  0  0
  1 11  1  0  0  0  0
  2  6  2  0  0  0  0
  3 14  1  0  0  0  0
  4  7  2  0  0  0  0
  4  2  1  0  0  0  0
  5 16  1  0  0  0  0
  5  3  2  0  0  0  0
  6  3  1  0  0  0  0
  6  8  1  0  0  0  0
  7  5  1  0  0  0  0
  9  1  1  0  0  0  0
  9  7  1  0  0  0  0
 10  1  1  0  0  0  0
 12  1  1  0  0  0  0
 13  2  1  0  0  0  0
 15  4  1  0  0  0  0
 17  8  1  0  0  0  0
M  END
>  <HBA>
2

>  <HBD>
1

>  <TPSA>
29.46

>  <cid>
9015

>  <dipole>
0.48

>  <excitation_energy_1>
4.614

>  <excitation_energy_2>
4.787

>  <excitation_energy_3>
5.133

>  <excitation_energy_4>
5.604

>  <homo_energy>
-5.344

>  <homo_lumo_gap>
5.35

>  <logP>
1.401

>  <lumo_energy>
0.005

>  <melting_point>
49.4

>  <molecular_refractivity>
34.96

>  <oscillator_strength_1>
0.0613

>  <oscillator_strength_2>
0.0

>  <oscillator_strength_3>
0.0044

>  <oscillator_strength_4>
0.0002

>  <open_babel_can_smiles>
COc1ccc(cc1)O

>  <mulliken_charges>
17
1   -0.212277
2   -0.196079
3   -0.168953
4   -0.177845
5   -0.19892
6   0.347286
7   0.371432
8   -0.650409
9   -0.512726
10   0.16709
11   0.148594
12   0.1486
13   0.119052
14   0.139152
15   0.138957
16   0.132275
17   0.404773

>  <lowdin_charges>
17
1   -0.275993
2   -0.202813
3   -0.176744
4   -0.170175
5   -0.200857
6   0.085843
7   0.083737
8   -0.388503
9   -0.206697
10   0.16258
11   0.140916
12   0.142674
13   0.153329
14   0.166478
15   0.166726
16   0.162839
17   0.356659

$$$$

