PCCDB-ID:  68241
public computational chemistry database (PCCDB) project, http://pccdb.org

 18 18  0  0  0  0  0  0  0  0999 V2000
    0.9158   -0.1322    0.1066 C   0  0  0  0  0  0  0  0  0  0  0  0
    5.3915   -2.4972   -0.5071 C   0  0  0  0  0  0  0  0  0  0  0  0
    3.0510    1.1892   -0.0699 C   0  0  0  0  0  0  0  0  0  0  0  0
    5.2752    0.0140   -0.3748 C   0  0  0  0  0  0  0  0  0  0  0  0
    2.4007    0.0097   -0.0542 C   0  0  0  0  0  0  0  0  0  0  0  0
    4.6700   -1.1893   -0.3654 C   0  0  0  0  0  0  0  0  0  0  0  0
    4.5205    1.2794   -0.2273 C   0  0  0  0  0  0  0  0  0  0  0  0
    3.1819   -1.2600   -0.2054 C   0  0  0  0  0  0  0  0  0  0  0  0
    5.0931    2.3649   -0.2344 O   0  0  0  0  0  0  0  0  0  0  0  0
    2.6099   -2.3446   -0.1976 O   0  0  0  0  0  0  0  0  0  0  0  0
    0.4336    0.8448    0.1958 H   0  0  0  0  0  0  0  0  0  0  0  0
    0.6786   -0.7294    0.9946 H   0  0  0  0  0  0  0  0  0  0  0  0
    0.4838   -0.6684   -0.7458 H   0  0  0  0  0  0  0  0  0  0  0  0
    6.4668   -2.3433   -0.6302 H   0  0  0  0  0  0  0  0  0  0  0  0
    5.0094   -3.0587   -1.3670 H   0  0  0  0  0  0  0  0  0  0  0  0
    5.2200   -3.1300    0.3712 H   0  0  0  0  0  0  0  0  0  0  0  0
    2.5304    2.1380    0.0342 H   0  0  0  0  0  0  0  0  0  0  0  0
    6.3512    0.1192   -0.4896 H   0  0  0  0  0  0  0  0  0  0  0  0
  1 11  1  0  0  0  0
  1 12  1  0  0  0  0
  2  6  1  0  0  0  0
  2 16  1  0  0  0  0
  3  5  2  0  0  0  0
  3 17  1  0  0  0  0
  4  6  2  0  0  0  0
  4  7  1  0  0  0  0
  5  1  1  0  0  0  0
  6  8  1  0  0  0  0
  7  3  1  0  0  0  0
  8 10  2  0  0  0  0
  8  5  1  0  0  0  0
  9  7  2  0  0  0  0
 13  1  1  0  0  0  0
 14  2  1  0  0  0  0
 15  2  1  0  0  0  0
 18  4  1  0  0  0  0
M  END
>  <HBA>
2

>  <HBD>
0

>  <TPSA>
34.14

>  <cid>
68241

>  <dipole>
1.11

>  <excitation_energy_1>
2.533

>  <excitation_energy_2>
2.827

>  <excitation_energy_3>
3.418

>  <excitation_energy_4>
4.688

>  <homo_energy>
-7.083

>  <homo_lumo_gap>
3.834

>  <logP>
1.031

>  <lumo_energy>
-3.249

>  <melting_point>
63.89

>  <molecular_refractivity>
37.91

>  <oscillator_strength_1>
0.0

>  <oscillator_strength_2>
0.0

>  <oscillator_strength_3>
0.0017

>  <oscillator_strength_4>
0.2909

>  <open_babel_can_smiles>
O=C1C=C(C)C(=O)C(=C1)C

>  <mulliken_charges>
18
1   -0.511489
2   -0.511637
3   -0.246588
4   -0.246461
5   0.134743
6   0.134694
7   0.454308
8   0.356644
9   -0.471889
10   -0.453715
11   0.160144
12   0.181745
13   0.182159
14   0.160179
15   0.182185
16   0.181796
17   0.156609
18   0.156572

>  <lowdin_charges>
18
1   -0.436172
2   -0.434895
3   -0.174103
4   -0.171722
5   -0.003625
6   -0.003692
7   0.146146
8   0.145269
9   -0.220713
10   -0.219065
11   0.16118
12   0.175625
13   0.1762
14   0.15979
15   0.176106
16   0.175643
17   0.174969
18   0.17306

$$$$

