PCCDB-ID:  1532
public computational chemistry database (PCCDB) project, http://pccdb.org

 16 16  0  0  0  0  0  0  0  0999 V2000
    0.9009   -0.0939   -0.0358 C   0  0  0  0  0  0  0  0  0  0  0  0
    3.0884    1.1867   -0.0013 C   0  0  0  0  0  0  0  0  0  0  0  0
    2.3981    0.0126   -0.0226 C   0  0  0  0  0  0  0  0  0  0  0  0
    4.5273    1.0855    0.0092 C   0  0  0  0  0  0  0  0  0  0  0  0
    4.5347   -1.2303   -0.0127 C   0  0  0  0  0  0  0  0  0  0  0  0
    5.1797   -2.3385   -0.0127 N   0  0  0  0  0  0  0  0  0  0  0  0
    3.1043   -1.1549   -0.0302 N   0  0  0  0  0  0  0  0  0  0  0  0
    5.1998   -0.0189    0.0029 N   0  0  0  0  0  0  0  0  0  0  0  0
    5.2654    2.2230    0.0267 O   0  0  0  0  0  0  0  0  0  0  0  0
    0.4416    0.8970   -0.0461 H   0  0  0  0  0  0  0  0  0  0  0  0
    0.5398   -0.6313    0.8499 H   0  0  0  0  0  0  0  0  0  0  0  0
    0.5556   -0.6425   -0.9209 H   0  0  0  0  0  0  0  0  0  0  0  0
    2.5700    2.1388    0.0062 H   0  0  0  0  0  0  0  0  0  0  0  0
    4.5405   -3.1378   -0.0233 H   0  0  0  0  0  0  0  0  0  0  0  0
    2.5977   -2.0307   -0.0462 H   0  0  0  0  0  0  0  0  0  0  0  0
    4.6707    2.9889    0.0255 H   0  0  0  0  0  0  0  0  0  0  0  0
  1  3  1  0  0  0  0
  1 11  1  0  0  0  0
  2 13  1  0  0  0  0
  2  4  1  0  0  0  0
  3  2  2  0  0  0  0
  4  9  1  0  0  0  0
  5  6  1  0  0  0  0
  5  8  2  0  0  0  0
  7  3  1  0  0  0  0
  7  5  1  0  0  0  0
  8  4  2  0  0  0  0
 10  1  1  0  0  0  0
 12  1  1  0  0  0  0
 14  6  1  0  0  0  0
 15  7  1  0  0  0  0
 16  9  1  0  0  0  0
M  RAD  1   6   2
M  END
>  <HBA>
3

>  <HBD>
2

>  <TPSA>
71.77

>  <cid>
1532

>  <dipole>
7.95

>  <excitation_energy_1>
3.955

>  <excitation_energy_2>
4.555

>  <excitation_energy_3>
4.846

>  <excitation_energy_4>
4.998

>  <homo_energy>
-5.6

>  <homo_lumo_gap>
4.708

>  <logP>
0.242

>  <lumo_energy>
-0.893

>  <melting_point>
155.53

>  <molecular_refractivity>
34.23

>  <oscillator_strength_1>
0.0341

>  <oscillator_strength_2>
0.0033

>  <oscillator_strength_3>
0.0007

>  <oscillator_strength_4>
0.0025

>  <open_babel_can_smiles>
CC1=CC(=[N]=C(N1)[NH])O

>  <mulliken_charges>
16
1   -0.541051
2   -0.312835
3   0.434785
4   0.534583
5   0.599986
6   -0.620761
7   -0.686218
8   -0.481979
9   -0.587794
10   0.181812
11   0.181664
12   0.180548
13   0.129513
14   0.252182
15   0.325226
16   0.410337

>  <lowdin_charges>
16
1   -0.446236
2   -0.302958
3   0.097925
4   0.158024
5   0.126091
6   -0.435544
7   -0.238336
8   -0.184527
9   -0.342207
10   0.173961
11   0.172994
12   0.172397
13   0.163934
14   0.238142
15   0.287436
16   0.358905

$$$$

