PCCDB-ID:  13608
public computational chemistry database (PCCDB) project, http://pccdb.org

 20 21  0  0  1  0  0  0  0  0999 V2000
   -0.4325    0.5657    1.3983 C   0  0  0  0  0  0  0  0  0  0  0  0
    0.8138    0.8694    1.0147 C   0  0  0  0  0  0  0  0  0  0  0  0
   -1.2520    0.4993   -0.9433 C   0  0  0  0  0  0  0  0  0  0  0  0
   -0.4057   -1.5888    0.1624 C   0  0  0  0  0  0  0  0  0  0  0  0
    0.1964    0.8455   -1.3910 C   0  0  0  0  0  0  0  0  0  0  0  0
    1.0444   -1.2374   -0.2767 C   0  0  0  0  0  0  0  0  0  0  0  0
   -1.2019   -0.2749    0.4041 C   0  0  1  0  0  0  0  0  0  0  0  0
    1.2032    0.3084   -0.3346 C   0  0  2  0  0  0  0  0  0  0  0  0
   -0.8746    0.8861    2.3388 H   0  0  0  0  0  0  0  0  0  0  0  0
    1.5039    1.4663    1.6063 H   0  0  0  0  0  0  0  0  0  0  0  0
   -1.7597   -0.1162   -1.6968 H   0  0  0  0  0  0  0  0  0  0  0  0
   -1.8490    1.4093   -0.8202 H   0  0  0  0  0  0  0  0  0  0  0  0
   -0.4003   -2.1892    1.0783 H   0  0  0  0  0  0  0  0  0  0  0  0
   -0.9154   -2.1833   -0.6064 H   0  0  0  0  0  0  0  0  0  0  0  0
    0.3216    1.9280   -1.5004 H   0  0  0  0  0  0  0  0  0  0  0  0
    0.4231    0.3972   -2.3667 H   0  0  0  0  0  0  0  0  0  0  0  0
    1.2699   -1.6624   -1.2631 H   0  0  0  0  0  0  0  0  0  0  0  0
    1.7748   -1.6544    0.4248 H   0  0  0  0  0  0  0  0  0  0  0  0
   -2.2156   -0.5023    0.7506 H   0  0  0  0  0  0  0  0  0  0  0  0
    2.2278    0.5755   -0.6145 H   0  0  0  0  0  0  0  0  0  0  0  0
  1  9  1  0  0  0  0
  2  1  2  0  0  0  0
  2 10  1  0  0  0  0
  3 12  1  0  0  0  0
  3  7  1  0  0  0  0
  4  7  1  0  0  0  0
  4 13  1  0  0  0  0
  5  3  1  0  0  0  0
  5  8  1  0  0  0  0
  6  4  1  0  0  0  0
  6 18  1  0  0  0  0
  7 19  1  1  0  0  0
  7  1  1  0  0  0  0
  8 20  1  6  0  0  0
  8  6  1  0  0  0  0
  8  2  1  0  0  0  0
 11  3  1  0  0  0  0
 14  4  1  0  0  0  0
 15  5  1  0  0  0  0
 16  5  1  0  0  0  0
 17  6  1  0  0  0  0
M  END
>  <HBA>
0

>  <HBD>
0

>  <TPSA>
0.0

>  <cid>
13608

>  <dipole>
0.15

>  <excitation_energy_1>
5.856

>  <excitation_energy_2>
6.453

>  <excitation_energy_3>
6.476

>  <excitation_energy_4>
6.52

>  <homo_energy>
-6.381

>  <homo_lumo_gap>
7.192

>  <logP>
2.363

>  <lumo_energy>
0.811

>  <melting_point>
27.06

>  <molecular_refractivity>
35.87

>  <oscillator_strength_1>
0.0356

>  <oscillator_strength_2>
0.0

>  <oscillator_strength_3>
0.0012

>  <oscillator_strength_4>
0.1276

>  <open_babel_can_smiles>
C1C[C@H]2CC[C@@H]1C=C2

>  <mulliken_charges>
20
1   -0.110359
2   -0.110944
3   -0.259938
4   -0.260157
5   -0.260013
6   -0.260178
7   -0.134374
8   -0.134132
9   0.121306
10   0.121379
11   0.128478
12   0.13616
13   0.136243
14   0.128551
15   0.136192
16   0.128505
17   0.128485
18   0.136221
19   0.114273
20   0.114303

>  <lowdin_charges>
20
1   -0.177079
2   -0.17889
3   -0.280443
4   -0.280511
5   -0.276753
6   -0.280183
7   -0.130256
8   -0.130069
9   0.15204
10   0.153426
11   0.142
12   0.145412
13   0.145411
14   0.142034
15   0.143285
16   0.140359
17   0.140332
18   0.146386
19   0.141834
20   0.141663

$$$$

