PCCDB-ID:  24583
public computational chemistry database (PCCDB) project, http://pccdb.org

 28 27  0  0  1  0  0  0  0  0999 V2000
    2.0891   -1.5835    2.0517 C   0  0  0  0  0  0  0  0  0  0  0  0
    8.8697    2.1022    2.3061 C   0  0  0  0  0  0  0  0  0  0  0  0
    2.3971   -0.2937    1.2847 C   0  0  0  0  0  0  0  0  0  0  0  0
    3.5784    0.4915    1.8707 C   0  0  0  0  0  0  0  0  0  0  0  0
    3.8926    1.7804    1.0983 C   0  0  0  0  0  0  0  0  0  0  0  0
    5.0176    2.6373    1.7033 C   0  0  0  0  0  0  0  0  0  0  0  0
    6.4075    1.9847    1.6539 C   0  0  0  0  0  0  0  0  0  0  0  0
    7.7243    4.1069    1.3872 C   0  0  0  0  0  0  0  0  0  0  0  0
    7.5327    2.8660    2.2381 C   0  0  2  0  0  0  0  0  0  0  0  0
    7.6520    5.2494    1.7814 O   0  0  0  0  0  0  0  0  0  0  0  0
    1.2428   -2.1205    1.6083 H   0  0  0  0  0  0  0  0  0  0  0  0
    1.8377   -1.3722    3.0984 H   0  0  0  0  0  0  0  0  0  0  0  0
    2.9514   -2.2617    2.0497 H   0  0  0  0  0  0  0  0  0  0  0  0
    8.7563    1.1898    2.9018 H   0  0  0  0  0  0  0  0  0  0  0  0
    9.6557    2.7121    2.7643 H   0  0  0  0  0  0  0  0  0  0  0  0
    9.2097    1.8071    1.3054 H   0  0  0  0  0  0  0  0  0  0  0  0
    1.5051    0.3487    1.2743 H   0  0  0  0  0  0  0  0  0  0  0  0
    2.6092   -0.5347    0.2333 H   0  0  0  0  0  0  0  0  0  0  0  0
    4.4619   -0.1619    1.8919 H   0  0  0  0  0  0  0  0  0  0  0  0
    3.3612    0.7429    2.9199 H   0  0  0  0  0  0  0  0  0  0  0  0
    2.9800    2.3905    1.0460 H   0  0  0  0  0  0  0  0  0  0  0  0
    4.1475    1.5283    0.0580 H   0  0  0  0  0  0  0  0  0  0  0  0
    4.7701    2.8782    2.7473 H   0  0  0  0  0  0  0  0  0  0  0  0
    5.0513    3.5998    1.1745 H   0  0  0  0  0  0  0  0  0  0  0  0
    6.6559    1.7263    0.6126 H   0  0  0  0  0  0  0  0  0  0  0  0
    6.4003    1.0370    2.2067 H   0  0  0  0  0  0  0  0  0  0  0  0
    7.9613    3.8898    0.3165 H   0  0  0  0  0  0  0  0  0  0  0  0
    7.2524    3.2073    3.2421 H   0  0  0  0  0  0  0  0  0  0  0  0
  1 12  1  0  0  0  0
  2 15  1  0  0  0  0
  2 14  1  0  0  0  0
  3  4  1  0  0  0  0
  3  1  1  0  0  0  0
  4 19  1  0  0  0  0
  4 20  1  0  0  0  0
  5  6  1  0  0  0  0
  5  4  1  0  0  0  0
  6 23  1  0  0  0  0
  7  6  1  0  0  0  0
  7 26  1  0  0  0  0
  7  9  1  0  0  0  0
  8 10  2  0  0  0  0
  8  9  1  0  0  0  0
  9  2  1  0  0  0  0
  9 28  1  1  0  0  0
 11  1  1  0  0  0  0
 13  1  1  0  0  0  0
 16  2  1  0  0  0  0
 17  3  1  0  0  0  0
 18  3  1  0  0  0  0
 21  5  1  0  0  0  0
 22  5  1  0  0  0  0
 24  6  1  0  0  0  0
 25  7  1  0  0  0  0
 27  8  1  0  0  0  0
M  END
>  <HBA>
1

>  <HBD>
0

>  <TPSA>
17.07

>  <cid>
24583

>  <dipole>
2.78

>  <excitation_energy_1>
4.203

>  <excitation_energy_2>
6.431

>  <excitation_energy_3>
6.68

>  <excitation_energy_4>
6.826

>  <homo_energy>
-6.7

>  <homo_lumo_gap>
6.153

>  <logP>
2.792

>  <lumo_energy>
-0.547

>  <melting_point>
3.17

>  <molecular_refractivity>
45.58

>  <oscillator_strength_1>
0.0003

>  <oscillator_strength_2>
0.0075

>  <oscillator_strength_3>
0.0161

>  <oscillator_strength_4>
0.0141

>  <open_babel_can_smiles>
CCCCCC[C@H](C=O)C

>  <mulliken_charges>
28
1   -0.441774
2   -0.465021
3   -0.247181
4   -0.248702
5   -0.25606
6   -0.26462
7   -0.274818
8   0.260853
9   -0.140914
10   -0.389196
11   0.14285
12   0.141964
13   0.14056
14   0.157172
15   0.161793
16   0.148775
17   0.131744
18   0.130672
19   0.129875
20   0.127474
21   0.132641
22   0.127286
23   0.13602
24   0.141809
25   0.131376
26   0.1444
27   0.091986
28   0.149036

>  <lowdin_charges>
28
1   -0.444363
2   -0.441653
3   -0.270749
4   -0.276338
5   -0.273857
6   -0.276678
7   -0.2746
8   0.055482
9   -0.155617
10   -0.217578
11   0.150693
12   0.145302
13   0.146228
14   0.157693
15   0.159446
16   0.150493
17   0.139719
18   0.137589
19   0.137603
20   0.136231
21   0.143567
22   0.136672
23   0.141453
24   0.146321
25   0.138806
26   0.147517
27   0.107187
28   0.153429

$$$$

