PCCDB-ID:  10731
public computational chemistry database (PCCDB) project, http://pccdb.org

 25 27  0  0  0  0  0  0  0  0999 V2000
   -3.6596   -0.7272   -0.0012 C   0  0  0  0  0  0  0  0  0  0  0  0
    3.6603   -0.6907   -0.0009 C   0  0  0  0  0  0  0  0  0  0  0  0
   -3.6765    0.6967   -0.0004 C   0  0  0  0  0  0  0  0  0  0  0  0
    3.6607    0.7336   -0.0011 C   0  0  0  0  0  0  0  0  0  0  0  0
   -2.4677   -1.4006   -0.0011 C   0  0  0  0  0  0  0  0  0  0  0  0
    2.4786   -1.3841   -0.0006 C   0  0  0  0  0  0  0  0  0  0  0  0
   -2.5016    1.4022   -0.0001 C   0  0  0  0  0  0  0  0  0  0  0  0
    2.4787    1.4286   -0.0010 C   0  0  0  0  0  0  0  0  0  0  0  0
    0.0023   -1.3918   -0.0007 C   0  0  0  0  0  0  0  0  0  0  0  0
   -1.2166   -0.7068   -0.0007 C   0  0  0  0  0  0  0  0  0  0  0  0
    1.2215   -0.7031   -0.0004 C   0  0  0  0  0  0  0  0  0  0  0  0
   -1.2340    0.7396   -0.0003 C   0  0  0  0  0  0  0  0  0  0  0  0
    1.2289    0.7380   -0.0006 C   0  0  0  0  0  0  0  0  0  0  0  0
   -0.0013    1.4265   -0.0006 C   0  0  0  0  0  0  0  0  0  0  0  0
    0.0774    2.7910   -0.0007 O   0  0  0  0  0  0  0  0  0  0  0  0
   -4.5982   -1.2745   -0.0010 H   0  0  0  0  0  0  0  0  0  0  0  0
    4.6060   -1.2263   -0.0012 H   0  0  0  0  0  0  0  0  0  0  0  0
   -4.6263    1.2238   -0.0008 H   0  0  0  0  0  0  0  0  0  0  0  0
    4.6062    1.2690   -0.0013 H   0  0  0  0  0  0  0  0  0  0  0  0
   -2.4487   -2.4878   -0.0015 H   0  0  0  0  0  0  0  0  0  0  0  0
    2.4751   -2.4715   -0.0006 H   0  0  0  0  0  0  0  0  0  0  0  0
   -2.5593    2.4897    0.0011 H   0  0  0  0  0  0  0  0  0  0  0  0
    2.4725    2.5128   -0.0012 H   0  0  0  0  0  0  0  0  0  0  0  0
    0.0022   -2.4791   -0.0007 H   0  0  0  0  0  0  0  0  0  0  0  0
   -0.8129    3.1705   -0.0049 H   0  0  0  0  0  0  0  0  0  0  0  0
  1  5  2  0  0  0  0
  1 16  1  0  0  0  0
  1  3  1  0  0  0  0
  2  6  2  0  0  0  0
  3  7  2  0  0  0  0
  4  8  2  0  0  0  0
  4  2  1  0  0  0  0
  5 10  1  0  0  0  0
  6 21  1  0  0  0  0
  6 11  1  0  0  0  0
  7 22  1  0  0  0  0
  8 13  1  0  0  0  0
  9 11  1  0  0  0  0
 10  9  2  0  0  0  0
 10 12  1  0  0  0  0
 12  7  1  0  0  0  0
 13 14  1  0  0  0  0
 13 11  2  0  0  0  0
 14 12  2  0  0  0  0
 15 14  1  0  0  0  0
 17  2  1  0  0  0  0
 18  3  1  0  0  0  0
 19  4  1  0  0  0  0
 20  5  1  0  0  0  0
 23  8  1  0  0  0  0
 24  9  1  0  0  0  0
 25 15  1  0  0  0  0
M  END
>  <HBA>
1

>  <HBD>
1

>  <TPSA>
20.23

>  <cid>
10731

>  <dipole>
1.27

>  <excitation_energy_1>
3.024

>  <excitation_energy_2>
3.772

>  <excitation_energy_3>
4.289

>  <excitation_energy_4>
4.317

>  <homo_energy>
-4.95

>  <homo_lumo_gap>
3.421

>  <logP>
3.699

>  <lumo_energy>
-1.529

>  <melting_point>
133.96

>  <molecular_refractivity>
63.48

>  <oscillator_strength_1>
0.0666

>  <oscillator_strength_2>
0.0212

>  <oscillator_strength_3>
0.0026

>  <oscillator_strength_4>
0.0017

>  <open_babel_can_smiles>
Oc1c2ccccc2cc2c1cccc2

>  <mulliken_charges>
25
1   -0.138396
2   -0.134972
3   -0.140434
4   -0.141746
5   -0.187946
6   -0.192199
7   -0.208609
8   -0.166014
9   -0.300944
10   0.146518
11   0.147573
12   0.135561
13   0.093432
14   0.145741
15   -0.643928
16   0.131579
17   0.129004
18   0.130561
19   0.128618
20   0.132215
21   0.12864
22   0.109816
23   0.15142
24   0.124079
25   0.420431

>  <lowdin_charges>
25
1   -0.160503
2   -0.156026
3   -0.160415
4   -0.163106
5   -0.147508
6   -0.154961
7   -0.165104
8   -0.144412
9   -0.184376
10   0.006839
11   0.00725
12   -0.047948
13   -0.031744
14   0.103149
15   -0.372079
16   0.159956
17   0.158298
18   0.159444
19   0.158217
20   0.157282
21   0.155444
22   0.143297
23   0.168203
24   0.154207
25   0.356598

$$$$

