PCCDB-ID:  31575
public computational chemistry database (PCCDB) project, http://pccdb.org

 32 33  0  0  0  0  0  0  0  0999 V2000
    1.9898   -2.3878   -3.1846 C   0  0  0  0  0  0  0  0  0  0  0  0
    3.2961   -1.9948   -3.8821 C   0  0  0  0  0  0  0  0  0  0  0  0
    5.9273   -3.0441   -9.0016 C   0  0  0  0  0  0  0  0  0  0  0  0
    6.2846   -3.5927   -7.7521 C   0  0  0  0  0  0  0  0  0  0  0  0
    5.8952   -1.6701   -9.1944 C   0  0  0  0  0  0  0  0  0  0  0  0
    6.6179   -2.7826   -6.6730 C   0  0  0  0  0  0  0  0  0  0  0  0
    6.3106    0.6030   -7.9701 C   0  0  0  0  0  0  0  0  0  0  0  0
    6.7121    0.8403   -6.6836 C   0  0  0  0  0  0  0  0  0  0  0  0
    7.3081   -0.4536   -4.6156 C   0  0  0  0  0  0  0  0  0  0  0  0
    4.5228   -2.2896   -3.0155 C   0  0  0  0  0  0  0  0  0  0  0  0
    6.1643   -0.6600   -3.6223 C   0  0  0  0  0  0  0  0  0  0  0  0
    6.2325   -0.8212   -8.1252 C   0  0  0  0  0  0  0  0  0  0  0  0
    6.5954   -1.3960   -6.8731 C   0  0  0  0  0  0  0  0  0  0  0  0
    6.8946   -0.3550   -6.0050 N   0  0  0  0  0  0  0  0  0  0  0  0
    5.7529   -2.0112   -3.6788 O   0  0  0  0  0  0  0  0  0  0  0  0
    1.1253   -2.1918   -3.8276 H   0  0  0  0  0  0  0  0  0  0  0  0
    1.8452   -1.8245   -2.2543 H   0  0  0  0  0  0  0  0  0  0  0  0
    1.9782   -3.4551   -2.9312 H   0  0  0  0  0  0  0  0  0  0  0  0
    3.2710   -0.9277   -4.1380 H   0  0  0  0  0  0  0  0  0  0  0  0
    3.4080   -2.5406   -4.8264 H   0  0  0  0  0  0  0  0  0  0  0  0
    5.6690   -3.7101   -9.8207 H   0  0  0  0  0  0  0  0  0  0  0  0
    6.2910   -4.6723   -7.6272 H   0  0  0  0  0  0  0  0  0  0  0  0
    5.6176   -1.2515  -10.1587 H   0  0  0  0  0  0  0  0  0  0  0  0
    6.8575   -3.2056   -5.7040 H   0  0  0  0  0  0  0  0  0  0  0  0
    6.1100    1.3523   -8.7238 H   0  0  0  0  0  0  0  0  0  0  0  0
    6.9012    1.7774   -6.1763 H   0  0  0  0  0  0  0  0  0  0  0  0
    8.0233   -1.2765   -4.5072 H   0  0  0  0  0  0  0  0  0  0  0  0
    7.8316    0.4743   -4.3621 H   0  0  0  0  0  0  0  0  0  0  0  0
    4.5568   -3.3575   -2.7705 H   0  0  0  0  0  0  0  0  0  0  0  0
    4.4708   -1.7347   -2.0641 H   0  0  0  0  0  0  0  0  0  0  0  0
    5.3423    0.0294   -3.8647 H   0  0  0  0  0  0  0  0  0  0  0  0
    6.5220   -0.4148   -2.6064 H   0  0  0  0  0  0  0  0  0  0  0  0
  1 18  1  0  0  0  0
  1 17  1  0  0  0  0
  2  1  1  0  0  0  0
  2 10  1  0  0  0  0
  3  4  1  0  0  0  0
  4 22  1  0  0  0  0
  4  6  2  0  0  0  0
  5  3  2  0  0  0  0
  5 12  1  0  0  0  0
  6 24  1  0  0  0  0
  7  8  2  0  0  0  0
  8 26  1  0  0  0  0
  8 14  1  0  0  0  0
  9 27  1  0  0  0  0
  9 28  1  0  0  0  0
  9 11  1  0  0  0  0
 10 29  1  0  0  0  0
 10 30  1  0  0  0  0
 11 32  1  0  0  0  0
 12  7  1  0  0  0  0
 12 13  2  0  0  0  0
 13  6  1  0  0  0  0
 13 14  1  0  0  0  0
 14  9  1  0  0  0  0
 15 11  1  0  0  0  0
 15 10  1  0  0  0  0
 16  1  1  0  0  0  0
 19  2  1  0  0  0  0
 20  2  1  0  0  0  0
 21  3  1  0  0  0  0
 23  5  1  0  0  0  0
 25  7  1  0  0  0  0
 31 11  1  0  0  0  0
M  END
>  <HBA>
2

>  <HBD>
0

>  <TPSA>
14.16

>  <cid>
31575

>  <dipole>
3.14

>  <excitation_energy_1>
4.58

>  <excitation_energy_2>
4.773

>  <excitation_energy_3>
4.855

>  <excitation_energy_4>
5.245

>  <homo_energy>
-5.181

>  <homo_lumo_gap>
5.274

>  <logP>
3.068

>  <lumo_energy>
0.093

>  <melting_point>
39.21

>  <molecular_refractivity>
63.51

>  <oscillator_strength_1>
0.1003

>  <oscillator_strength_2>
0.0114

>  <oscillator_strength_3>
0.0328

>  <oscillator_strength_4>
0.0012

>  <open_babel_can_smiles>
CCCOCCn1ccc2c1cccc2

>  <mulliken_charges>
32
1   -0.452215
2   -0.26976
3   -0.136626
4   -0.159509
5   -0.209542
6   -0.153888
7   -0.237638
8   0.030444
9   -0.171837
10   -0.01663
11   -0.006022
12   0.10918
13   0.295958
14   -0.497348
15   -0.472651
16   0.152703
17   0.142451
18   0.145433
19   0.139497
20   0.161734
21   0.11533
22   0.117415
23   0.11953
24   0.141536
25   0.125455
26   0.140675
27   0.174522
28   0.154204
29   0.143236
30   0.117202
31   0.135648
32   0.121511

>  <lowdin_charges>
32
1   -0.444214
2   -0.287341
3   -0.179056
4   -0.168065
5   -0.165141
6   -0.183786
7   -0.228023
8   -0.133158
9   -0.197782
10   -0.129528
11   -0.136988
12   -0.027084
13   0.025267
14   -0.026615
15   -0.272952
16   0.156267
17   0.146575
18   0.146733
19   0.142041
20   0.155905
21   0.15309
22   0.150806
23   0.153701
24   0.164537
25   0.162654
26   0.15993
27   0.165158
28   0.159504
29   0.144864
30   0.126618
31   0.13731
32   0.128774

$$$$

