PCCDB-ID:  57466
public computational chemistry database (PCCDB) project, http://pccdb.org

 29 30  0  0  0  0  0  0  0  0999 V2000
    3.5446   -0.4277    0.8145 C   0  0  0  0  0  0  0  0  0  0  0  0
    5.2267    6.2087   -3.0509 C   0  0  0  0  0  0  0  0  0  0  0  0
    2.3934   -0.0957   -0.1405 C   0  0  0  0  0  0  0  0  0  0  0  0
    4.9847    4.7685   -2.6049 C   0  0  0  0  0  0  0  0  0  0  0  0
    4.6336   -0.0528   -4.8933 C   0  0  0  0  0  0  0  0  0  0  0  0
    4.3561   -1.1655   -4.0732 C   0  0  0  0  0  0  0  0  0  0  0  0
    4.3104    1.2355   -4.4866 C   0  0  0  0  0  0  0  0  0  0  0  0
    3.7473   -1.0136   -2.8322 C   0  0  0  0  0  0  0  0  0  0  0  0
    2.7011    2.1062   -1.3299 C   0  0  0  0  0  0  0  0  0  0  0  0
    3.7021    1.4205   -3.2354 C   0  0  0  0  0  0  0  0  0  0  0  0
    3.4216    0.2863   -2.4256 C   0  0  0  0  0  0  0  0  0  0  0  0
    3.2365    2.5764   -2.5075 C   0  0  0  0  0  0  0  0  0  0  0  0
    2.7974    0.7325   -1.2686 N   0  0  0  0  0  0  0  0  0  0  0  0
    3.2531    4.2653   -3.0290 S   0  0  0  0  0  0  0  0  0  0  0  0
    3.1849   -1.0568    1.6366 H   0  0  0  0  0  0  0  0  0  0  0  0
    3.9716    0.4860    1.2412 H   0  0  0  0  0  0  0  0  0  0  0  0
    4.3440   -0.9648    0.2945 H   0  0  0  0  0  0  0  0  0  0  0  0
    6.2489    6.5148   -2.8002 H   0  0  0  0  0  0  0  0  0  0  0  0
    4.5359    6.9003   -2.5561 H   0  0  0  0  0  0  0  0  0  0  0  0
    5.0962    6.3168   -4.1330 H   0  0  0  0  0  0  0  0  0  0  0  0
    1.5983    0.4385    0.3898 H   0  0  0  0  0  0  0  0  0  0  0  0
    1.9465   -1.0145   -0.5369 H   0  0  0  0  0  0  0  0  0  0  0  0
    5.1202    4.6635   -1.5238 H   0  0  0  0  0  0  0  0  0  0  0  0
    5.6768    4.0824   -3.1025 H   0  0  0  0  0  0  0  0  0  0  0  0
    5.1052   -0.2101   -5.8596 H   0  0  0  0  0  0  0  0  0  0  0  0
    4.6201   -2.1617   -4.4174 H   0  0  0  0  0  0  0  0  0  0  0  0
    4.5129    2.0924   -5.1234 H   0  0  0  0  0  0  0  0  0  0  0  0
    3.5340   -1.8766   -2.2076 H   0  0  0  0  0  0  0  0  0  0  0  0
    2.2394    2.6599   -0.5232 H   0  0  0  0  0  0  0  0  0  0  0  0
  1 16  1  0  0  0  0
  1 15  1  0  0  0  0
  2 18  1  0  0  0  0
  2  4  1  0  0  0  0
  2 19  1  0  0  0  0
  3 21  1  0  0  0  0
  3  1  1  0  0  0  0
  4 23  1  0  0  0  0
  5  7  2  0  0  0  0
  5  6  1  0  0  0  0
  6  8  2  0  0  0  0
  7 10  1  0  0  0  0
  8 11  1  0  0  0  0
  8 28  1  0  0  0  0
  9 13  1  0  0  0  0
  9 29  1  0  0  0  0
 10 12  1  0  0  0  0
 10 11  2  0  0  0  0
 11 13  1  0  0  0  0
 12  9  2  0  0  0  0
 13  3  1  0  0  0  0
 14  4  1  0  0  0  0
 14 12  1  0  0  0  0
 17  1  1  0  0  0  0
 20  2  1  0  0  0  0
 22  3  1  0  0  0  0
 24  4  1  0  0  0  0
 25  5  1  0  0  0  0
 26  6  1  0  0  0  0
 27  7  1  0  0  0  0
M  END
>  <HBA>
2

>  <HBD>
0

>  <TPSA>
30.23

>  <cid>
57466

>  <dipole>
3.32

>  <excitation_energy_1>
4.422

>  <excitation_energy_2>
4.661

>  <excitation_energy_3>
4.762

>  <excitation_energy_4>
4.871

>  <homo_energy>
-5.388

>  <homo_lumo_gap>
5.143

>  <logP>
3.773

>  <lumo_energy>
-0.245

>  <melting_point>
63.31

>  <molecular_refractivity>
64.53

>  <oscillator_strength_1>
0.0736

>  <oscillator_strength_2>
0.017

>  <oscillator_strength_3>
0.0146

>  <oscillator_strength_4>
0.0309

>  <open_babel_can_smiles>
CCSc1cn(c2c1cccc2)CC

>  <mulliken_charges>
29
1   -0.442017
2   -0.454774
3   -0.155401
4   -0.389563
5   -0.13811
6   -0.151342
7   -0.206438
8   -0.166805
9   0.030549
10   0.099498
11   0.309936
12   -0.204253
13   -0.490174
14   0.074834
15   0.151509
16   0.159726
17   0.16691
18   0.151809
19   0.161117
20   0.162874
21   0.160365
22   0.163492
23   0.166519
24   0.173783
25   0.121704
26   0.122744
27   0.139311
28   0.124044
29   0.158156

>  <lowdin_charges>
29
1   -0.453993
2   -0.445202
3   -0.191427
4   -0.367522
5   -0.172644
6   -0.163339
7   -0.158797
8   -0.192914
9   -0.120811
10   -0.028576
11   0.026745
12   -0.202072
13   -0.023364
14   0.119097
15   0.157631
16   0.157805
17   0.161438
18   0.155212
19   0.158183
20   0.156144
21   0.158812
22   0.156776
23   0.151981
24   0.158781
25   0.15464
26   0.154997
27   0.164587
28   0.156814
29   0.17102

$$$$

