PCCDB-ID:  12848
public computational chemistry database (PCCDB) project, http://pccdb.org

 31 32  0  0  0  0  0  0  0  0999 V2000
    1.8377    3.0107    0.3136 C   0  0  0  0  0  0  0  0  0  0  0  0
    2.8962    2.4540    0.9029 C   0  0  0  0  0  0  0  0  0  0  0  0
    3.5870    0.0832   -3.1732 C   0  0  0  0  0  0  0  0  0  0  0  0
    3.6329   -1.0170   -2.1041 C   0  0  0  0  0  0  0  0  0  0  0  0
    3.7977    1.4706   -2.5515 C   0  0  0  0  0  0  0  0  0  0  0  0
    4.9418   -0.9687   -1.3015 C   0  0  0  0  0  0  0  0  0  0  0  0
    5.1055    1.5486   -1.7475 C   0  0  0  0  0  0  0  0  0  0  0  0
    3.2153    0.9779    0.8830 C   0  0  0  0  0  0  0  0  0  0  0  0
    6.7144    0.4031   -0.1574 C   0  0  0  0  0  0  0  0  0  0  0  0
    5.5552    0.7957    1.6187 C   0  0  0  0  0  0  0  0  0  0  0  0
    5.2754    0.4238   -0.6870 C   0  0  0  0  0  0  0  0  0  0  0  0
    6.8672    0.5901    1.0969 N   0  0  0  0  0  0  0  0  0  0  0  0
    4.6172    0.6769    0.5949 N   0  0  0  0  0  0  0  0  0  0  0  0
    7.7612    0.1778   -0.9634 O   0  0  0  0  0  0  0  0  0  0  0  0
    5.2850    1.0436    2.7768 O   0  0  0  0  0  0  0  0  0  0  0  0
    1.6288    4.0737    0.3971 H   0  0  0  0  0  0  0  0  0  0  0  0
    1.1257    2.4228   -0.2638 H   0  0  0  0  0  0  0  0  0  0  0  0
    3.5810    3.0615    1.4929 H   0  0  0  0  0  0  0  0  0  0  0  0
    2.6310    0.0509   -3.7094 H   0  0  0  0  0  0  0  0  0  0  0  0
    4.3707   -0.1063   -3.9226 H   0  0  0  0  0  0  0  0  0  0  0  0
    3.5405   -2.0062   -2.5691 H   0  0  0  0  0  0  0  0  0  0  0  0
    2.7721   -0.9163   -1.4315 H   0  0  0  0  0  0  0  0  0  0  0  0
    2.9517    1.7213   -1.9026 H   0  0  0  0  0  0  0  0  0  0  0  0
    3.8211    2.2388   -3.3340 H   0  0  0  0  0  0  0  0  0  0  0  0
    5.7608   -1.2480   -1.9821 H   0  0  0  0  0  0  0  0  0  0  0  0
    4.9428   -1.7109   -0.4961 H   0  0  0  0  0  0  0  0  0  0  0  0
    5.2027    2.5188   -1.2492 H   0  0  0  0  0  0  0  0  0  0  0  0
    5.9437    1.4786   -2.4584 H   0  0  0  0  0  0  0  0  0  0  0  0
    2.5675    0.4486    0.1805 H   0  0  0  0  0  0  0  0  0  0  0  0
    3.0277    0.5677    1.8823 H   0  0  0  0  0  0  0  0  0  0  0  0
    7.4568    0.0751   -1.8795 H   0  0  0  0  0  0  0  0  0  0  0  0
  1 16  1  0  0  0  0
  1  2  2  0  0  0  0
  2 18  1  0  0  0  0
  3  5  1  0  0  0  0
  3  4  1  0  0  0  0
  4 22  1  0  0  0  0
  4  6  1  0  0  0  0
  5 23  1  0  0  0  0
  5  7  1  0  0  0  0
  6 11  1  0  0  0  0
  6 26  1  0  0  0  0
  7 27  1  0  0  0  0
  7 11  1  0  0  0  0
  8  2  1  0  0  0  0
  8 30  1  0  0  0  0
  9 12  2  0  0  0  0
 10 15  2  0  0  0  0
 11  9  1  0  0  0  0
 11 13  1  0  0  0  0
 12 10  1  0  0  0  0
 13  8  1  0  0  0  0
 13 10  1  0  0  0  0
 14  9  1  0  0  0  0
 17  1  1  0  0  0  0
 19  3  1  0  0  0  0
 20  3  1  0  0  0  0
 21  4  1  0  0  0  0
 24  5  1  0  0  0  0
 25  6  1  0  0  0  0
 28  7  1  0  0  0  0
 29  8  1  0  0  0  0
 31 14  1  0  0  0  0
M  END
>  <HBA>
4

>  <HBD>
1

>  <TPSA>
49.41

>  <cid>
12848

>  <dipole>
7.59

>  <excitation_energy_1>
5.0

>  <excitation_energy_2>
5.194

>  <excitation_energy_3>
5.42

>  <excitation_energy_4>
5.663

>  <homo_energy>
-6.547

>  <homo_lumo_gap>
6.008

>  <logP>
1.694

>  <lumo_energy>
-0.539

>  <melting_point>
88.63

>  <molecular_refractivity>
64.64

>  <oscillator_strength_1>
0.0082

>  <oscillator_strength_2>
0.0396

>  <oscillator_strength_3>
0.0038

>  <oscillator_strength_4>
0.0024

>  <open_babel_can_smiles>
C=CCN1C(=O)N=C(C21CCCCC2)O

>  <mulliken_charges>
31
1   -0.345116
2   -0.044806
3   -0.26326
4   -0.274067
5   -0.27553
6   -0.267527
7   -0.271188
8   -0.198216
9   0.526212
10   0.707064
11   0.140736
12   -0.489582
13   -0.487179
14   -0.584785
15   -0.518194
16   0.148659
17   0.134735
18   0.159582
19   0.144102
20   0.126888
21   0.146452
22   0.149483
23   0.156145
24   0.144356
25   0.11817
26   0.166516
27   0.168833
28   0.116269
29   0.147469
30   0.195679
31   0.422102

>  <lowdin_charges>
31
1   -0.341432
2   -0.153357
3   -0.279356
4   -0.280137
5   -0.285177
6   -0.282103
7   -0.280912
8   -0.196545
9   0.135814
10   0.166743
11   0.038614
12   -0.185116
13   -0.129053
14   -0.316378
15   -0.28361
16   0.161944
17   0.15358
18   0.168773
19   0.150948
20   0.137084
21   0.152184
22   0.145707
23   0.154311
24   0.152957
25   0.136753
26   0.163955
27   0.164681
28   0.135874
29   0.152033
30   0.179728
31   0.361493

$$$$

