PCCDB-ID:  6324
public computational chemistry database (PCCDB) project, http://pccdb.org

  8  7  0  0  0  0  0  0  0  0999 V2000
    0.9478   -0.0873   -0.0132 C   0  0  0  0  0  0  0  0  0  0  0  0
    2.4784   -0.0873   -0.0132 C   0  0  0  0  0  0  0  0  0  0  0  0
    0.5487   -0.1011   -1.0340 H   0  0  0  0  0  0  0  0  0  0  0  0
    0.5488    0.8036    0.4853 H   0  0  0  0  0  0  0  0  0  0  0  0
    0.5488   -0.9645    0.5092 H   0  0  0  0  0  0  0  0  0  0  0  0
    2.8774    0.7898   -0.5356 H   0  0  0  0  0  0  0  0  0  0  0  0
    2.8774   -0.9783   -0.5117 H   0  0  0  0  0  0  0  0  0  0  0  0
    2.8775   -0.0735    1.0076 H   0  0  0  0  0  0  0  0  0  0  0  0
  1  2  1  0  0  0  0
  1  4  1  0  0  0  0
  1  5  1  0  0  0  0
  2  8  1  0  0  0  0
  3  1  1  0  0  0  0
  6  2  1  0  0  0  0
  7  2  1  0  0  0  0
M  END
>  <HBA>
0

>  <HBD>
0

>  <TPSA>
0.0

>  <cid>
6324

>  <dipole>
0.0

>  <excitation_energy_1>
8.827

>  <excitation_energy_2>
8.827

>  <excitation_energy_3>
9.314

>  <excitation_energy_4>
9.315

>  <homo_energy>
-9.255

>  <homo_lumo_gap>
12.106

>  <logP>
1.026

>  <lumo_energy>
2.852

>  <melting_point>
-23.91

>  <molecular_refractivity>
11.73

>  <oscillator_strength_1>
0.0

>  <oscillator_strength_2>
0.0

>  <oscillator_strength_3>
0.0607

>  <oscillator_strength_4>
0.0607

>  <open_babel_can_smiles>
CC

>  <mulliken_charges>
8
1   -0.432786
2   -0.432866
3   0.144294
4   0.144266
5   0.14426
6   0.144262
7   0.14427
8   0.144301

>  <lowdin_charges>
8
1   -0.4429
2   -0.442913
3   0.146704
4   0.148059
5   0.148144
6   0.148143
7   0.148058
8   0.146706

$$$$

