PCCDB-ID:  32215
public computational chemistry database (PCCDB) project, http://pccdb.org

 30 31  0  0  0  0  0  0  0  0999 V2000
    0.6279   -1.3177    0.3242 C   0  0  0  0  0  0  0  0  0  0  0  0
    0.6340   -0.4751   -0.7879 C   0  0  0  0  0  0  0  0  0  0  0  0
    1.8332   -1.8207    0.8209 C   0  0  0  0  0  0  0  0  0  0  0  0
    1.8429   -0.1376   -1.3989 C   0  0  0  0  0  0  0  0  0  0  0  0
    3.0395   -1.4860    0.2075 C   0  0  0  0  0  0  0  0  0  0  0  0
    6.6979    1.5561    0.6721 C   0  0  0  0  0  0  0  0  0  0  0  0
    5.7054    2.4255    1.4541 C   0  0  0  0  0  0  0  0  0  0  0  0
    4.4627    2.3883    3.6015 C   0  0  0  0  0  0  0  0  0  0  0  0
    5.7206    1.6126    3.8014 C   0  0  0  0  0  0  0  0  0  0  0  0
    4.3569   -0.2734   -1.5772 C   0  0  0  0  0  0  0  0  0  0  0  0
    3.0544   -0.6395   -0.9106 C   0  0  0  0  0  0  0  0  0  0  0  0
    6.0429    0.3608    0.0042 C   0  0  0  0  0  0  0  0  0  0  0  0
    5.0572    1.6403    2.4992 N   0  0  0  0  0  0  0  0  0  0  0  0
    6.3646   -0.7948    0.1798 O   0  0  0  0  0  0  0  0  0  0  0  0
    5.0687    0.7630   -0.8451 O   0  0  0  0  0  0  0  0  0  0  0  0
   -0.3118   -1.5832    0.8016 H   0  0  0  0  0  0  0  0  0  0  0  0
   -0.2998   -0.0810   -1.1802 H   0  0  0  0  0  0  0  0  0  0  0  0
    1.8329   -2.4786    1.6859 H   0  0  0  0  0  0  0  0  0  0  0  0
    1.8457    0.5195   -2.2659 H   0  0  0  0  0  0  0  0  0  0  0  0
    3.9783   -1.8734    0.5919 H   0  0  0  0  0  0  0  0  0  0  0  0
    7.4800    1.1706    1.3317 H   0  0  0  0  0  0  0  0  0  0  0  0
    7.1738    2.1699   -0.1029 H   0  0  0  0  0  0  0  0  0  0  0  0
    4.9273    2.7930    0.7773 H   0  0  0  0  0  0  0  0  0  0  0  0
    6.2402    3.3061    1.8580 H   0  0  0  0  0  0  0  0  0  0  0  0
    4.5473    3.4761    3.5884 H   0  0  0  0  0  0  0  0  0  0  0  0
    3.5117    2.0102    3.9702 H   0  0  0  0  0  0  0  0  0  0  0  0
    5.7080    0.6564    4.3193 H   0  0  0  0  0  0  0  0  0  0  0  0
    6.6424    2.1849    3.9203 H   0  0  0  0  0  0  0  0  0  0  0  0
    4.1813    0.1610   -2.5641 H   0  0  0  0  0  0  0  0  0  0  0  0
    5.0172   -1.1383   -1.6684 H   0  0  0  0  0  0  0  0  0  0  0  0
  1 16  1  0  0  0  0
  1  3  1  0  0  0  0
  2  1  2  0  0  0  0
  3 18  1  0  0  0  0
  4 11  2  0  0  0  0
  4  2  1  0  0  0  0
  5 20  1  0  0  0  0
  5  3  2  0  0  0  0
  6 21  1  0  0  0  0
  6  7  1  0  0  0  0
  7 24  1  0  0  0  0
  7 13  1  0  0  0  0
  8  9  1  0  0  0  0
  8 26  1  0  0  0  0
  9 28  1  0  0  0  0
  9 27  1  0  0  0  0
 10 11  1  0  0  0  0
 10 15  1  0  0  0  0
 11  5  1  0  0  0  0
 12 14  2  0  0  0  0
 12  6  1  0  0  0  0
 13  8  1  0  0  0  0
 13  9  1  0  0  0  0
 15 12  1  0  0  0  0
 17  2  1  0  0  0  0
 19  4  1  0  0  0  0
 22  6  1  0  0  0  0
 23  7  1  0  0  0  0
 25  8  1  0  0  0  0
 29 10  1  0  0  0  0
 30 10  1  0  0  0  0
M  END
>  <HBA>
3

>  <HBD>
0

>  <TPSA>
29.31

>  <cid>
32215

>  <dipole>
2.38

>  <excitation_energy_1>
5.288

>  <excitation_energy_2>
5.506

>  <excitation_energy_3>
5.648

>  <excitation_energy_4>
5.765

>  <homo_energy>
-6.381

>  <homo_lumo_gap>
6.231

>  <logP>
1.373

>  <lumo_energy>
-0.15

>  <melting_point>
27.56

>  <molecular_refractivity>
61.42

>  <oscillator_strength_1>
0.001

>  <oscillator_strength_2>
0.0032

>  <oscillator_strength_3>
0.0047

>  <oscillator_strength_4>
0.0031

>  <open_babel_can_smiles>
O=C(CCN1CC1)OCc1ccccc1

>  <mulliken_charges>
30
1   -0.126656
2   -0.128585
3   -0.130687
4   -0.178581
5   -0.171614
6   -0.350232
7   -0.13354
8   -0.191623
9   -0.193752
10   -0.148933
11   0.157199
12   0.643714
13   -0.346011
14   -0.482973
15   -0.454787
16   0.128782
17   0.128566
18   0.131334
19   0.124861
20   0.162849
21   0.170445
22   0.164149
23   0.168775
24   0.114488
25   0.143201
26   0.161219
27   0.162806
28   0.142709
29   0.151775
30   0.181104

>  <lowdin_charges>
30
1   -0.154335
2   -0.158679
3   -0.152845
4   -0.159212
5   -0.150343
6   -0.301245
7   -0.198168
8   -0.238334
9   -0.243715
10   -0.130466
11   -0.020816
12   0.204807
13   -0.190636
14   -0.268444
15   -0.195839
16   0.157416
17   0.157481
18   0.158464
19   0.154868
20   0.173244
21   0.168165
22   0.170172
23   0.158843
24   0.123597
25   0.144957
26   0.160859
27   0.161558
28   0.146105
29   0.154138
30   0.168403

$$$$

