PCCDB-ID:  44819
public computational chemistry database (PCCDB) project, http://pccdb.org

 38 37  0  0  0  0  0  0  0  0999 V2000
    2.1288    0.2941    1.2576 C   0  0  0  0  0  0  0  0  0  0  0  0
    0.7847    0.7490    0.6614 C   0  0  0  0  0  0  0  0  0  0  0  0
    3.0325    1.4410    1.7310 C   0  0  0  0  0  0  0  0  0  0  0  0
    0.8569    1.6120   -0.6106 C   0  0  0  0  0  0  0  0  0  0  0  0
    4.2940    0.9665    2.4614 C   0  0  0  0  0  0  0  0  0  0  0  0
    1.4597    0.8973   -1.8227 C   0  0  0  0  0  0  0  0  0  0  0  0
    5.1289   -0.2251    4.4215 C   0  0  0  0  0  0  0  0  0  0  0  0
    1.9476    1.1240   -4.2146 C   0  0  0  0  0  0  0  0  0  0  0  0
    4.7343   -0.8867    5.7409 C   0  0  0  0  0  0  0  0  0  0  0  0
    1.6470    1.9502   -5.4662 C   0  0  0  0  0  0  0  0  0  0  0  0
    3.9643    0.2614    3.6986 N   0  0  0  0  0  0  0  0  0  0  0  0
    1.3412    1.7208   -3.0283 N   0  0  0  0  0  0  0  0  0  0  0  0
    3.9560    0.2576    6.9649 S   0  0  0  0  0  0  0  0  0  0  0  0
   -0.1513    2.0466   -5.8556 S   0  0  0  0  0  0  0  0  0  0  0  0
    2.6786   -0.3176    0.5282 H   0  0  0  0  0  0  0  0  0  0  0  0
    1.9319   -0.3632    2.1119 H   0  0  0  0  0  0  0  0  0  0  0  0
    0.2335    1.3110    1.4286 H   0  0  0  0  0  0  0  0  0  0  0  0
    0.1760   -0.1405    0.4457 H   0  0  0  0  0  0  0  0  0  0  0  0
    2.4620    2.1067    2.3976 H   0  0  0  0  0  0  0  0  0  0  0  0
    3.3446    2.0625    0.8812 H   0  0  0  0  0  0  0  0  0  0  0  0
    1.4288    2.5297   -0.4094 H   0  0  0  0  0  0  0  0  0  0  0  0
   -0.1549    1.9382   -0.8822 H   0  0  0  0  0  0  0  0  0  0  0  0
    4.9658    1.8304    2.6345 H   0  0  0  0  0  0  0  0  0  0  0  0
    4.8496    0.2705    1.8165 H   0  0  0  0  0  0  0  0  0  0  0  0
    0.9125   -0.0377   -2.0045 H   0  0  0  0  0  0  0  0  0  0  0  0
    2.5083    0.6098   -1.6171 H   0  0  0  0  0  0  0  0  0  0  0  0
    5.6291   -0.9824    3.8003 H   0  0  0  0  0  0  0  0  0  0  0  0
    5.8844    0.5629    4.6189 H   0  0  0  0  0  0  0  0  0  0  0  0
    3.0461    1.0094   -4.1258 H   0  0  0  0  0  0  0  0  0  0  0  0
    1.5302    0.1177   -4.3363 H   0  0  0  0  0  0  0  0  0  0  0  0
    5.5971   -1.3702    6.2072 H   0  0  0  0  0  0  0  0  0  0  0  0
    3.9727   -1.6503    5.5569 H   0  0  0  0  0  0  0  0  0  0  0  0
    2.1222    1.4929   -6.3389 H   0  0  0  0  0  0  0  0  0  0  0  0
    2.0534    2.9633   -5.3629 H   0  0  0  0  0  0  0  0  0  0  0  0
    3.4454    0.8888    4.3141 H   0  0  0  0  0  0  0  0  0  0  0  0
    1.7777    2.6265   -2.8535 H   0  0  0  0  0  0  0  0  0  0  0  0
    5.0503    1.0219    7.1786 H   0  0  0  0  0  0  0  0  0  0  0  0
   -0.5181    2.2218   -4.5660 H   0  0  0  0  0  0  0  0  0  0  0  0
  1  3  1  0  0  0  0
  1 16  1  0  0  0  0
  2  1  1  0  0  0  0
  2 17  1  0  0  0  0
  3 19  1  0  0  0  0
  3  5  1  0  0  0  0
  4 21  1  0  0  0  0
  4  2  1  0  0  0  0
  5 23  1  0  0  0  0
  5 11  1  0  0  0  0
  6 26  1  0  0  0  0
  6  4  1  0  0  0  0
  7 28  1  0  0  0  0
  7  9  1  0  0  0  0
  8 29  1  0  0  0  0
  8 12  1  0  0  0  0
  9 31  1  0  0  0  0
  9 13  1  0  0  0  0
 10 34  1  0  0  0  0
 10  8  1  0  0  0  0
 11 35  1  0  0  0  0
 11  7  1  0  0  0  0
 12 36  1  0  0  0  0
 12  6  1  0  0  0  0
 13 37  1  0  0  0  0
 14 10  1  0  0  0  0
 14 38  1  0  0  0  0
 15  1  1  0  0  0  0
 18  2  1  0  0  0  0
 20  3  1  0  0  0  0
 22  4  1  0  0  0  0
 24  5  1  0  0  0  0
 25  6  1  0  0  0  0
 27  7  1  0  0  0  0
 30  8  1  0  0  0  0
 32  9  1  0  0  0  0
 33 10  1  0  0  0  0
M  END
>  <HBA>
4

>  <HBD>
4

>  <TPSA>
101.66

>  <cid>
44819

>  <dipole>
4.28

>  <excitation_energy_1>
5.229

>  <excitation_energy_2>
5.284

>  <excitation_energy_3>
5.492

>  <excitation_energy_4>
5.505

>  <homo_energy>
-6.049

>  <homo_lumo_gap>
6.68

>  <logP>
2.367

>  <lumo_energy>
0.631

>  <melting_point>
65.66

>  <molecular_refractivity>
71.65

>  <oscillator_strength_1>
0.0058

>  <oscillator_strength_2>
0.0061

>  <oscillator_strength_3>
0.0028

>  <oscillator_strength_4>
0.0114

>  <open_babel_can_smiles>
SCCNCCCCCCNCCS

>  <mulliken_charges>
38
1   -0.252393
2   -0.264443
3   -0.271898
4   -0.272806
5   -0.115141
6   -0.110264
7   -0.096961
8   -0.116725
9   -0.423744
10   -0.406168
11   -0.554294
12   -0.559581
13   -0.093067
14   -0.115846
15   0.12667
16   0.156126
17   0.131543
18   0.131341
19   0.12831
20   0.129776
21   0.126981
22   0.14654
23   0.109627
24   0.133358
25   0.142643
26   0.114966
27   0.146819
28   0.110828
29   0.12001
30   0.160605
31   0.178042
32   0.193357
33   0.17583
34   0.166293
35   0.313316
36   0.291767
37   0.095059
38   0.123524

>  <lowdin_charges>
38
1   -0.283622
2   -0.277154
3   -0.282876
4   -0.283181
5   -0.20132
6   -0.20125
7   -0.205745
8   -0.202565
9   -0.375436
10   -0.375258
11   -0.367391
12   -0.361603
13   -0.09097
14   -0.11127
15   0.137949
16   0.155474
17   0.144049
18   0.14283
19   0.139415
20   0.142272
21   0.136035
22   0.149923
23   0.117445
24   0.139677
25   0.142941
26   0.116993
27   0.14848
28   0.116955
29   0.121534
30   0.152363
31   0.164972
32   0.176277
33   0.169481
34   0.152067
35   0.260085
36   0.250433
37   0.112614
38   0.129378

$$$$

