PCCDB-ID:  17802
public computational chemistry database (PCCDB) project, http://pccdb.org

 20 20  0  0  0  0  0  0  0  0999 V2000
    1.0370    0.7960    0.8924 C   0  0  0  0  0  0  0  0  0  0  0  0
    2.4260    0.2226    1.0935 C   0  0  0  0  0  0  0  0  0  0  0  0
    6.4231   -0.3414    1.7286 C   0  0  0  0  0  0  0  0  0  0  0  0
    6.7222    2.1390    1.9521 C   0  0  0  0  0  0  0  0  0  0  0  0
    4.6073    1.0553    1.5192 C   0  0  0  0  0  0  0  0  0  0  0  0
    6.9097   -1.5234    1.7277 N   0  0  0  0  0  0  0  0  0  0  0  0
    7.3580    3.2314    2.1381 N   0  0  0  0  0  0  0  0  0  0  0  0
    7.1967    0.8350    1.9415 N   0  0  0  0  0  0  0  0  0  0  0  0
    5.0640   -0.1480    1.5142 N   0  0  0  0  0  0  0  0  0  0  0  0
    5.3493    2.1901    1.7212 N   0  0  0  0  0  0  0  0  0  0  0  0
    3.3189    1.3437    1.3224 O   0  0  0  0  0  0  0  0  0  0  0  0
    0.3281   -0.0192    0.7121 H   0  0  0  0  0  0  0  0  0  0  0  0
    1.0109    1.4712    0.0311 H   0  0  0  0  0  0  0  0  0  0  0  0
    0.7072    1.3492    1.7775 H   0  0  0  0  0  0  0  0  0  0  0  0
    2.7804   -0.3312    0.2197 H   0  0  0  0  0  0  0  0  0  0  0  0
    2.4808   -0.4468    1.9566 H   0  0  0  0  0  0  0  0  0  0  0  0
    7.9189   -1.5083    1.8964 H   0  0  0  0  0  0  0  0  0  0  0  0
    8.3527    3.0679    2.2954 H   0  0  0  0  0  0  0  0  0  0  0  0
    8.1876    0.7160    2.1015 H   0  0  0  0  0  0  0  0  0  0  0  0
    4.9162    3.1036    1.7104 H   0  0  0  0  0  0  0  0  0  0  0  0
  1  2  1  0  0  0  0
  1 14  1  0  0  0  0
  2 11  1  0  0  0  0
  2 16  1  0  0  0  0
  3  8  1  0  0  0  0
  4  7  2  0  0  0  0
  5 10  1  0  0  0  0
  6  3  1  0  0  0  0
  6 17  1  0  0  0  0
  7 18  1  0  0  0  0
  8  4  1  0  0  0  0
  8 19  1  0  0  0  0
  9  5  2  0  0  0  0
  9  3  2  0  0  0  0
 10  4  1  0  0  0  0
 11  5  1  0  0  0  0
 12  1  1  0  0  0  0
 13  1  1  0  0  0  0
 15  2  1  0  0  0  0
 20 10  1  0  0  0  0
M  RAD  1   6   2
M  END
>  <HBA>
6

>  <HBD>
2

>  <TPSA>
99.94

>  <cid>
17802

>  <dipole>
1.62

>  <excitation_energy_1>
5.414

>  <excitation_energy_2>
5.549

>  <excitation_energy_3>
5.631

>  <excitation_energy_4>
5.668

>  <homo_energy>
-6.419

>  <homo_lumo_gap>
6.286

>  <logP>
0.597

>  <lumo_energy>
-0.133

>  <melting_point>
154.59

>  <molecular_refractivity>
39.93

>  <oscillator_strength_1>
0.0023

>  <oscillator_strength_2>
0.0762

>  <oscillator_strength_3>
0.0012

>  <oscillator_strength_4>
0.0166

>  <open_babel_can_smiles>
CCOC1=[N]=C(NC(=N)N1)[NH]

>  <mulliken_charges>
20
1   -0.463367
2   -0.030546
3   0.613646
4   0.693593
5   0.779045
6   -0.614444
7   -0.65162
8   -0.699535
9   -0.519458
10   -0.674061
11   -0.50113
12   0.159433
13   0.163552
14   0.163577
15   0.173955
16   0.173689
17   0.263332
18   0.280045
19   0.328718
20   0.361577

>  <lowdin_charges>
20
1   -0.450713
2   -0.116235
3   0.129165
4   0.141513
5   0.1847
6   -0.41206
7   -0.456963
8   -0.281863
9   -0.230574
10   -0.228886
11   -0.184667
12   0.16404
13   0.160292
14   0.160475
15   0.160716
16   0.160397
17   0.241948
18   0.255676
19   0.288664
20   0.314375

$$$$

