PCCDB-ID:  66628
public computational chemistry database (PCCDB) project, http://pccdb.org

 16 16  0  0  0  0  0  0  0  0999 V2000
   -1.0868   -0.7855   -0.2487 C   0  0  0  0  0  0  0  0  0  0  0  0
   -1.0981    0.5527   -0.6525 C   0  0  0  0  0  0  0  0  0  0  0  0
    1.1816   -0.7245   -0.0298 C   0  0  0  0  0  0  0  0  0  0  0  0
    1.1764    0.6176   -0.4381 C   0  0  0  0  0  0  0  0  0  0  0  0
    2.4481   -1.4967    0.2716 C   0  0  0  0  0  0  0  0  0  0  0  0
    2.4391    1.4337   -0.5632 C   0  0  0  0  0  0  0  0  0  0  0  0
    0.0440   -1.4246    0.0601 N   0  0  0  0  0  0  0  0  0  0  0  0
    0.0354    1.2480   -0.7468 N   0  0  0  0  0  0  0  0  0  0  0  0
    2.9721   -2.2361   -0.5238 O   0  0  0  0  0  0  0  0  0  0  0  0
    2.8479   -1.3123    1.5410 O   0  0  0  0  0  0  0  0  0  0  0  0
    3.5359    0.9792   -0.3343 O   0  0  0  0  0  0  0  0  0  0  0  0
    2.2318    2.6993   -0.9514 O   0  0  0  0  0  0  0  0  0  0  0  0
   -2.0100   -1.3548   -0.1725 H   0  0  0  0  0  0  0  0  0  0  0  0
   -2.0237    1.0651   -0.9015 H   0  0  0  0  0  0  0  0  0  0  0  0
    3.6725   -1.8242    1.6517 H   0  0  0  0  0  0  0  0  0  0  0  0
    1.2635    2.8078   -1.0765 H   0  0  0  0  0  0  0  0  0  0  0  0
  1 13  1  0  0  0  0
  1  7  2  0  0  0  0
  2  1  1  0  0  0  0
  3  7  1  0  0  0  0
  3  5  1  0  0  0  0
  4  3  2  0  0  0  0
  5 10  1  0  0  0  0
  6  4  1  0  0  0  0
  6 11  2  0  0  0  0
  8  2  2  0  0  0  0
  8  4  1  0  0  0  0
  9  5  2  0  0  0  0
 10 15  1  0  0  0  0
 12  6  1  0  0  0  0
 14  2  1  0  0  0  0
 16 12  1  0  0  0  0
M  END
>  <HBA>
6

>  <HBD>
2

>  <TPSA>
100.38

>  <cid>
66628

>  <dipole>
4.95

>  <excitation_energy_1>
3.721

>  <excitation_energy_2>
4.248

>  <excitation_energy_3>
4.362

>  <excitation_energy_4>
4.713

>  <homo_energy>
-7.467

>  <homo_lumo_gap>
4.855

>  <logP>
-0.127

>  <lumo_energy>
-2.612

>  <melting_point>
217.99

>  <molecular_refractivity>
35.95

>  <oscillator_strength_1>
0.0023

>  <oscillator_strength_2>
0.0032

>  <oscillator_strength_3>
0.0035

>  <oscillator_strength_4>
0.0315

>  <open_babel_can_smiles>
OC(=O)c1nccnc1C(=O)O

>  <mulliken_charges>
16
1   0.040065
2   0.046383
3   0.236901
4   0.23946
5   0.544716
6   0.611945
7   -0.412129
8   -0.51334
9   -0.424607
10   -0.543521
11   -0.452613
12   -0.577202
13   0.174716
14   0.173891
15   0.420994
16   0.434339

>  <lowdin_charges>
16
1   -0.081829
2   -0.092477
3   0.046394
4   -0.00473
5   0.200131
6   0.185854
7   -0.094435
8   -0.12583
9   -0.22798
10   -0.332804
11   -0.226258
12   -0.331605
13   0.176798
14   0.175982
15   0.369812
16   0.362976

$$$$

