PCCDB-ID:  46833
public computational chemistry database (PCCDB) project, http://pccdb.org

 30 31  0  0  1  0  0  0  0  0999 V2000
    1.1027   -0.2567    0.0169 C   0  0  0  0  0  0  0  0  0  0  0  0
    2.6867    2.4222    0.7587 C   0  0  0  0  0  0  0  0  0  0  0  0
    2.2944    0.7655    2.5817 C   0  0  0  0  0  0  0  0  0  0  0  0
    5.4036    0.9474    0.1405 C   0  0  0  0  0  0  0  0  0  0  0  0
    5.4675   -0.5224   -0.3769 C   0  0  0  0  0  0  0  0  0  0  0  0
    4.9476   -0.5269    1.9622 C   0  0  0  0  0  0  0  0  0  0  0  0
    2.6138   -0.0551    0.1703 C   0  0  1  0  0  0  0  0  0  0  0  0
    4.5779    0.8834    1.4604 C   0  0  2  0  0  0  0  0  0  0  0  0
    4.6800   -1.3365    0.6875 C   0  0  1  0  0  0  0  0  0  0  0  0
    3.0314    1.0006    1.2446 C   0  0  0  0  0  0  0  0  0  0  0  0
    3.2205   -1.3624    0.4842 N   0  0  0  0  0  0  0  0  0  0  0  0
    0.5888    0.6842   -0.2051 H   0  0  0  0  0  0  0  0  0  0  0  0
    0.6686   -0.6932    0.9210 H   0  0  0  0  0  0  0  0  0  0  0  0
    0.8969   -0.9429   -0.8147 H   0  0  0  0  0  0  0  0  0  0  0  0
    1.6063    2.5513    0.6291 H   0  0  0  0  0  0  0  0  0  0  0  0
    3.1638    2.6674   -0.1961 H   0  0  0  0  0  0  0  0  0  0  0  0
    3.0165    3.1648    1.4959 H   0  0  0  0  0  0  0  0  0  0  0  0
    1.2504    1.0918    2.5167 H   0  0  0  0  0  0  0  0  0  0  0  0
    2.7655    1.3411    3.3884 H   0  0  0  0  0  0  0  0  0  0  0  0
    2.2949   -0.2888    2.8699 H   0  0  0  0  0  0  0  0  0  0  0  0
    4.9781    1.6304   -0.6003 H   0  0  0  0  0  0  0  0  0  0  0  0
    6.4099    1.3188    0.3657 H   0  0  0  0  0  0  0  0  0  0  0  0
    6.5037   -0.8760   -0.4310 H   0  0  0  0  0  0  0  0  0  0  0  0
    5.0378   -0.6401   -1.3784 H   0  0  0  0  0  0  0  0  0  0  0  0
    4.3648   -0.8802    2.8151 H   0  0  0  0  0  0  0  0  0  0  0  0
    6.0114   -0.5687    2.2314 H   0  0  0  0  0  0  0  0  0  0  0  0
    2.9835    0.3338   -0.7975 H   0  0  0  0  0  0  0  0  0  0  0  0
    4.8867    1.6734    2.1567 H   0  0  0  0  0  0  0  0  0  0  0  0
    5.0186   -2.3760    0.7534 H   0  0  0  0  0  0  0  0  0  0  0  0
    2.9936   -2.0097   -0.2694 H   0  0  0  0  0  0  0  0  0  0  0  0
  1  7  1  0  0  0  0
  1 13  1  0  0  0  0
  2 10  1  0  0  0  0
  2 17  1  0  0  0  0
  3 20  1  0  0  0  0
  3 19  1  0  0  0  0
  4 22  1  0  0  0  0
  4  8  1  0  0  0  0
  5  4  1  0  0  0  0
  5  9  1  0  0  0  0
  6 26  1  0  0  0  0
  6 25  1  0  0  0  0
  7 27  1  6  0  0  0
  7 11  1  0  0  0  0
  7 10  1  0  0  0  0
  8  6  1  0  0  0  0
  8 28  1  1  0  0  0
  9 29  1  1  0  0  0
  9  6  1  0  0  0  0
 10  8  1  0  0  0  0
 10  3  1  0  0  0  0
 11  9  1  0  0  0  0
 12  1  1  0  0  0  0
 14  1  1  0  0  0  0
 15  2  1  0  0  0  0
 16  2  1  0  0  0  0
 18  3  1  0  0  0  0
 21  4  1  0  0  0  0
 23  5  1  0  0  0  0
 24  5  1  0  0  0  0
 30 11  1  0  0  0  0
M  END
>  <HBA>
1

>  <HBD>
1

>  <TPSA>
12.03

>  <cid>
46833

>  <dipole>
0.89

>  <excitation_energy_1>
5.091

>  <excitation_energy_2>
5.554

>  <excitation_energy_3>
5.673

>  <excitation_energy_4>
5.836

>  <homo_energy>
-5.685

>  <homo_lumo_gap>
7.657

>  <logP>
2.502

>  <lumo_energy>
1.973

>  <melting_point>
61.8

>  <molecular_refractivity>
52.41

>  <oscillator_strength_1>
0.0067

>  <oscillator_strength_2>
0.0027

>  <oscillator_strength_3>
0.0089

>  <oscillator_strength_4>
0.0084

>  <open_babel_can_smiles>
C[C@@H]1N[C@H]2CC[C@@H](C1(C)C)C2

>  <mulliken_charges>
30
1   -0.459362
2   -0.462197
3   -0.467284
4   -0.287301
5   -0.276989
6   -0.261156
7   0.042654
8   -0.107292
9   0.01867
10   0.116914
11   -0.564985
12   0.1428
13   0.159449
14   0.132014
15   0.140508
16   0.140056
17   0.138925
18   0.137282
19   0.133737
20   0.164069
21   0.13685
22   0.134151
23   0.132166
24   0.12966
25   0.145208
26   0.124704
27   0.103184
28   0.109866
29   0.117061
30   0.286638

>  <lowdin_charges>
30
1   -0.450569
2   -0.444668
3   -0.446629
4   -0.2921
5   -0.302544
6   -0.285605
7   -0.064101
8   -0.135315
9   -0.070125
10   0.004531
11   -0.365469
12   0.150433
13   0.156787
14   0.145983
15   0.145258
16   0.145543
17   0.149392
18   0.145557
19   0.146975
20   0.155793
21   0.145085
22   0.144881
23   0.14428
24   0.14051
25   0.152313
26   0.13965
27   0.116989
28   0.137614
29   0.13833
30   0.251221

$$$$

