PCCDB-ID:  20900
public computational chemistry database (PCCDB) project, http://pccdb.org

 23 24  0  0  0  0  0  0  0  0999 V2000
    3.0453    1.3412   -0.3602 C   0  0  0  0  0  0  0  0  0  0  0  0
    2.3766   -5.3788   -0.2204 C   0  0  0  0  0  0  0  0  0  0  0  0
    3.4715   -4.8348   -0.8716 C   0  0  0  0  0  0  0  0  0  0  0  0
    1.5337   -3.1455    0.3883 C   0  0  0  0  0  0  0  0  0  0  0  0
    4.2534   -1.3137   -1.2105 C   0  0  0  0  0  0  0  0  0  0  0  0
    2.4100   -0.0001   -0.0225 C   0  0  0  0  0  0  0  0  0  0  0  0
    1.4343   -4.5312    0.3934 C   0  0  0  0  0  0  0  0  0  0  0  0
    2.6360   -2.5848   -0.2669 C   0  0  0  0  0  0  0  0  0  0  0  0
    3.0825   -1.2242   -0.4857 C   0  0  0  0  0  0  0  0  0  0  0  0
    3.5866   -3.4396   -0.8853 C   0  0  0  0  0  0  0  0  0  0  0  0
    4.5560   -2.6312   -1.4480 N   0  0  0  0  0  0  0  0  0  0  0  0
    0.2878   -5.1509    1.0732 N   0  0  0  0  0  0  0  0  0  0  0  0
    1.3683   -0.0595    0.6183 O   0  0  0  0  0  0  0  0  0  0  0  0
    0.2205   -6.3822    1.0768 O   0  0  0  0  0  0  0  0  0  0  0  0
   -0.5400   -4.4086    1.6002 O   0  0  0  0  0  0  0  0  0  0  0  0
    4.0533    1.4167    0.0656 H   0  0  0  0  0  0  0  0  0  0  0  0
    2.4223    2.1383    0.0492 H   0  0  0  0  0  0  0  0  0  0  0  0
    3.1332    1.4734   -1.4455 H   0  0  0  0  0  0  0  0  0  0  0  0
    2.2255   -6.4493   -0.1706 H   0  0  0  0  0  0  0  0  0  0  0  0
    4.2084   -5.4724   -1.3508 H   0  0  0  0  0  0  0  0  0  0  0  0
    0.7905   -2.5269    0.8724 H   0  0  0  0  0  0  0  0  0  0  0  0
    4.9021   -0.5306   -1.5773 H   0  0  0  0  0  0  0  0  0  0  0  0
    5.3607   -2.9574   -1.9625 H   0  0  0  0  0  0  0  0  0  0  0  0
  1  6  1  0  0  0  0
  1 17  1  0  0  0  0
  1 16  1  0  0  0  0
  2 19  1  0  0  0  0
  2  7  2  0  0  0  0
  3  2  1  0  0  0  0
  4  7  1  0  0  0  0
  4 21  1  0  0  0  0
  5  9  2  0  0  0  0
  6 13  2  0  0  0  0
  7 12  1  0  0  0  0
  8  4  2  0  0  0  0
  9  8  1  0  0  0  0
  9  6  1  0  0  0  0
 10  3  2  0  0  0  0
 10  8  1  0  0  0  0
 11  5  1  0  0  0  0
 11 10  1  0  0  0  0
 12 14  2  0  0  0  0
 12 15  2  0  0  0  0
 18  1  1  0  0  0  0
 20  3  1  0  0  0  0
 22  5  1  0  0  0  0
 23 11  1  0  0  0  0
M  END
>  <HBA>
1

>  <HBD>
1

>  <TPSA>
78.68

>  <cid>
20900

>  <dipole>
9.65

>  <excitation_energy_1>
3.651

>  <excitation_energy_2>
3.705

>  <excitation_energy_3>
3.755

>  <excitation_energy_4>
4.203

>  <homo_energy>
-6.501

>  <homo_lumo_gap>
4.378

>  <logP>
2.802

>  <lumo_energy>
-2.123

>  <melting_point>
170.62

>  <molecular_refractivity>
57.32

>  <oscillator_strength_1>
0.0387

>  <oscillator_strength_2>
0.0001

>  <oscillator_strength_3>
0.0

>  <oscillator_strength_4>
0.1653

>  <open_babel_can_smiles>
CC(=O)c1c[nH]c2c1cc(cc2)N(=O)=O

>  <mulliken_charges>
23
1   -0.544242
2   -0.175529
3   -0.165819
4   -0.224558
5   0.014847
6   0.41375
7   0.270179
8   0.063198
9   0.011654
10   0.341481
11   -0.694981
12   0.380684
13   -0.462259
14   -0.407113
15   -0.391583
16   0.166273
17   0.186567
18   0.16581
19   0.181067
20   0.142887
21   0.212971
22   0.173088
23   0.341627

>  <lowdin_charges>
23
1   -0.472901
2   -0.143196
3   -0.178487
4   -0.124429
5   -0.098897
6   0.159031
7   -0.01112
8   -0.015482
9   -0.090645
10   0.044003
11   -0.176103
12   0.30825
13   -0.246718
14   -0.255135
15   -0.246794
16   0.166435
17   0.178677
18   0.165103
19   0.186384
20   0.167608
21   0.206064
22   0.177987
23   0.300365

$$$$

