PCCDB-ID:  21364
public computational chemistry database (PCCDB) project, http://pccdb.org

 26 26  0  0  0  0  0  0  0  0999 V2000
    4.4842   -1.6283   -0.0325 C   0  0  0  0  0  0  0  0  0  0  0  0
   -1.1606    0.2743    7.9802 C   0  0  0  0  0  0  0  0  0  0  0  0
    1.7539   -1.7110    3.1600 C   0  0  0  0  0  0  0  0  0  0  0  0
    0.8543   -1.7210    4.2236 C   0  0  0  0  0  0  0  0  0  0  0  0
    1.4809    0.6840    2.9547 C   0  0  0  0  0  0  0  0  0  0  0  0
    2.0767   -0.5056    2.5254 C   0  0  0  0  0  0  0  0  0  0  0  0
    0.2602   -0.5394    4.6768 C   0  0  0  0  0  0  0  0  0  0  0  0
    0.5763    0.6518    4.0071 C   0  0  0  0  0  0  0  0  0  0  0  0
    3.0355   -0.4244    1.3811 C   0  0  0  0  0  0  0  0  0  0  0  0
   -0.6415   -0.6392    5.8762 C   0  0  0  0  0  0  0  0  0  0  0  0
   -0.1140    1.9118    4.3392 N   0  0  0  0  0  0  0  0  0  0  0  0
    3.3184    0.6052    0.8043 O   0  0  0  0  0  0  0  0  0  0  0  0
   -1.4905   -1.4938    5.9984 O   0  0  0  0  0  0  0  0  0  0  0  0
    0.5023    2.9586    4.1574 O   0  0  0  0  0  0  0  0  0  0  0  0
   -1.2749    1.8306    4.7360 O   0  0  0  0  0  0  0  0  0  0  0  0
    3.5519   -1.6289    1.0635 O   0  0  0  0  0  0  0  0  0  0  0  0
   -0.3153    0.2630    6.8143 O   0  0  0  0  0  0  0  0  0  0  0  0
    4.7943   -2.6665   -0.1505 H   0  0  0  0  0  0  0  0  0  0  0  0
    5.3421   -0.9917    0.1980 H   0  0  0  0  0  0  0  0  0  0  0  0
    4.0019   -1.2624   -0.9423 H   0  0  0  0  0  0  0  0  0  0  0  0
   -2.1877    0.5136    7.6943 H   0  0  0  0  0  0  0  0  0  0  0  0
   -0.7503    1.0498    8.6263 H   0  0  0  0  0  0  0  0  0  0  0  0
   -1.1379   -0.6986    8.4772 H   0  0  0  0  0  0  0  0  0  0  0  0
    2.2087   -2.6345    2.8211 H   0  0  0  0  0  0  0  0  0  0  0  0
    0.6036   -2.6499    4.7249 H   0  0  0  0  0  0  0  0  0  0  0  0
    1.7111    1.6181    2.4571 H   0  0  0  0  0  0  0  0  0  0  0  0
  1 19  1  0  0  0  0
  1 16  1  0  0  0  0
  2 23  1  0  0  0  0
  2 22  1  0  0  0  0
  3  4  2  0  0  0  0
  4  7  1  0  0  0  0
  4 25  1  0  0  0  0
  5  8  1  0  0  0  0
  6  5  2  0  0  0  0
  6  3  1  0  0  0  0
  7 10  1  0  0  0  0
  8 11  1  0  0  0  0
  8  7  2  0  0  0  0
  9  6  1  0  0  0  0
 10 13  2  0  0  0  0
 10 17  1  0  0  0  0
 11 15  2  0  0  0  0
 12  9  2  0  0  0  0
 14 11  2  0  0  0  0
 16  9  1  0  0  0  0
 17  2  1  0  0  0  0
 18  1  1  0  0  0  0
 20  1  1  0  0  0  0
 21  2  1  0  0  0  0
 24  3  1  0  0  0  0
 26  5  1  0  0  0  0
M  END
>  <HBA>
4

>  <HBD>
0

>  <TPSA>
98.42

>  <cid>
21364

>  <dipole>
4.72

>  <excitation_energy_1>
3.733

>  <excitation_energy_2>
4.14

>  <excitation_energy_3>
4.278

>  <excitation_energy_4>
4.486

>  <homo_energy>
-7.614

>  <homo_lumo_gap>
4.947

>  <logP>
1.691

>  <lumo_energy>
-2.667

>  <melting_point>
96.01

>  <molecular_refractivity>
57.82

>  <oscillator_strength_1>
0.014

>  <oscillator_strength_2>
0.0334

>  <oscillator_strength_3>
0.0039

>  <oscillator_strength_4>
0.0002

>  <open_babel_can_smiles>
COC(=O)c1ccc(c(c1)N(=O)=O)C(=O)OC

>  <mulliken_charges>
26
1   -0.22135
2   -0.223033
3   -0.142464
4   -0.179141
5   -0.17478
6   0.042481
7   0.104303
8   0.242968
9   0.608352
10   0.569013
11   0.361128
12   -0.476336
13   -0.467536
14   -0.371135
15   -0.385463
16   -0.468291
17   -0.44033
18   0.170845
19   0.178463
20   0.178621
21   0.184344
22   0.173897
23   0.174229
24   0.175526
25   0.175448
26   0.210239

>  <lowdin_charges>
26
1   -0.275177
2   -0.275079
3   -0.120725
4   -0.132074
5   -0.11231
6   -0.031767
7   -9e-05
8   0.016898
9   0.195518
10   0.19406
11   0.307279
12   -0.254542
13   -0.244842
14   -0.23124
15   -0.230617
16   -0.185704
17   -0.176756
18   0.163011
19   0.164575
20   0.164535
21   0.166418
22   0.167375
23   0.161607
24   0.183191
25   0.182873
26   0.203586

$$$$

