PCCDB-ID:  29485
public computational chemistry database (PCCDB) project, http://pccdb.org

 16 16  0  0  0  0  0  0  0  0999 V2000
    1.2123    0.0756    0.0509 C   0  0  0  0  0  0  0  0  0  0  0  0
    2.6991   -0.0408    0.0710 C   0  0  0  0  0  0  0  0  0  0  0  0
    4.6848   -0.8328    0.1209 C   0  0  0  0  0  0  0  0  0  0  0  0
    4.8290    0.5403    0.0420 C   0  0  0  0  0  0  0  0  0  0  0  0
    3.3794   -1.1803    0.1391 N   0  0  0  0  0  0  0  0  0  0  0  0
    3.5450    1.0254    0.0154 N   0  0  0  0  0  0  0  0  0  0  0  0
    5.7171   -1.8631    0.1378 N   0  0  0  0  0  0  0  0  0  0  0  0
    5.9244    1.4586    0.0683 N   0  0  0  0  0  0  0  0  0  0  0  0
    6.6729   -1.6994   -0.6139 O   0  0  0  0  0  0  0  0  0  0  0  0
    5.5273   -2.8145    0.8858 O   0  0  0  0  0  0  0  0  0  0  0  0
    7.0480    1.0192    0.2774 O   0  0  0  0  0  0  0  0  0  0  0  0
    5.6257    2.6489   -0.1109 O   0  0  0  0  0  0  0  0  0  0  0  0
    0.7847   -0.9252    0.1295 H   0  0  0  0  0  0  0  0  0  0  0  0
    0.8588    0.5364   -0.8787 H   0  0  0  0  0  0  0  0  0  0  0  0
    0.8465    0.6800    0.8890 H   0  0  0  0  0  0  0  0  0  0  0  0
    3.3344    2.0159   -0.0268 H   0  0  0  0  0  0  0  0  0  0  0  0
  1  2  1  0  0  0  0
  1 13  1  0  0  0  0
  1 15  1  0  0  0  0
  2  5  2  0  0  0  0
  3  7  1  0  0  0  0
  3  5  1  0  0  0  0
  4  8  1  0  0  0  0
  4  3  2  0  0  0  0
  6  4  1  0  0  0  0
  6  2  1  0  0  0  0
  7 10  2  0  0  0  0
  8 11  2  0  0  0  0
  9  7  2  0  0  0  0
 12  8  2  0  0  0  0
 14  1  1  0  0  0  0
 16  6  1  0  0  0  0
M  END
>  <HBA>
1

>  <HBD>
1

>  <TPSA>
120.32

>  <cid>
29485

>  <dipole>
7.27

>  <excitation_energy_1>
3.497

>  <excitation_energy_2>
3.74

>  <excitation_energy_3>
4.07

>  <excitation_energy_4>
4.123

>  <homo_energy>
-7.709

>  <homo_lumo_gap>
4.444

>  <logP>
1.581

>  <lumo_energy>
-3.265

>  <melting_point>
149.53

>  <molecular_refractivity>
41.2

>  <oscillator_strength_1>
0.0307

>  <oscillator_strength_2>
0.0063

>  <oscillator_strength_3>
0.0173

>  <oscillator_strength_4>
0.0114

>  <open_babel_can_smiles>
Cc1nc(c([nH]1)N(=O)=O)N(=O)=O

>  <mulliken_charges>
16
1   -0.536177
2   0.520903
3   0.418954
4   0.550527
5   -0.46335
6   -0.641292
7   0.351245
8   0.337939
9   -0.363547
10   -0.351681
11   -0.367586
12   -0.417433
13   0.213608
14   0.188599
15   0.186973
16   0.372318

>  <lowdin_charges>
16
1   -0.446445
2   0.096786
3   0.042695
4   0.014751
5   -0.151932
6   -0.146577
7   0.306733
8   0.306459
9   -0.213428
10   -0.207562
11   -0.204077
12   -0.265288
13   0.194156
14   0.17842
15   0.178336
16   0.316973

$$$$

