PCCDB-ID:  28514
public computational chemistry database (PCCDB) project, http://pccdb.org

 39 39  0  0  1  0  0  0  0  0999 V2000
    3.1051   -1.4966    1.1952 C   0  0  0  0  0  0  0  0  0  0  0  0
    4.8886    2.7389    4.1022 C   0  0  0  0  0  0  0  0  0  0  0  0
    6.6155    3.8914    2.6332 C   0  0  0  0  0  0  0  0  0  0  0  0
   -0.6523   -0.3634   -2.7964 C   0  0  0  0  0  0  0  0  0  0  0  0
    2.6486   -0.0475    1.4039 C   0  0  0  0  0  0  0  0  0  0  0  0
    2.4837    0.5282   -1.1127 C   0  0  0  0  0  0  0  0  0  0  0  0
    0.9848    0.2562   -1.2206 C   0  0  0  0  0  0  0  0  0  0  0  0
    4.5329    1.1511    0.1710 C   0  0  0  0  0  0  0  0  0  0  0  0
    2.4441    2.3513    0.6541 C   0  0  0  0  0  0  0  0  0  0  0  0
    5.1236    3.6115    2.8614 C   0  0  0  0  0  0  0  0  0  0  0  0
    4.4943    3.0058    1.6062 C   0  0  1  0  0  0  0  0  0  0  0  0
    3.0027    0.9580    0.2774 C   0  0  2  0  0  0  0  0  0  0  0  0
    0.7098   -0.0744   -2.5704 O   0  0  0  0  0  0  0  0  0  0  0  0
    5.0764    1.7443    1.3458 O   0  0  0  0  0  0  0  0  0  0  0  0
    3.0982    2.8965    1.7975 O   0  0  0  0  0  0  0  0  0  0  0  0
    2.8106   -2.1098    2.0543 H   0  0  0  0  0  0  0  0  0  0  0  0
    4.1940   -1.5762    1.1024 H   0  0  0  0  0  0  0  0  0  0  0  0
    2.6606   -1.9509    0.3023 H   0  0  0  0  0  0  0  0  0  0  0  0
    5.2924    3.2307    4.9946 H   0  0  0  0  0  0  0  0  0  0  0  0
    5.3844    1.7685    3.9946 H   0  0  0  0  0  0  0  0  0  0  0  0
    3.8208    2.5628    4.2605 H   0  0  0  0  0  0  0  0  0  0  0  0
    7.0513    4.3872    3.5077 H   0  0  0  0  0  0  0  0  0  0  0  0
    6.7756    4.5431    1.7653 H   0  0  0  0  0  0  0  0  0  0  0  0
    7.1633    2.9595    2.4599 H   0  0  0  0  0  0  0  0  0  0  0  0
   -0.7595   -0.6063   -3.8570 H   0  0  0  0  0  0  0  0  0  0  0  0
   -1.2988    0.4980   -2.5608 H   0  0  0  0  0  0  0  0  0  0  0  0
   -0.9936   -1.2235   -2.1970 H   0  0  0  0  0  0  0  0  0  0  0  0
    3.0798    0.3346    2.3342 H   0  0  0  0  0  0  0  0  0  0  0  0
    1.5598   -0.0350    1.5513 H   0  0  0  0  0  0  0  0  0  0  0  0
    2.7301    1.3056   -1.8483 H   0  0  0  0  0  0  0  0  0  0  0  0
    3.0116   -0.3760   -1.4412 H   0  0  0  0  0  0  0  0  0  0  0  0
    0.3950    1.1401   -0.9216 H   0  0  0  0  0  0  0  0  0  0  0  0
    0.6812   -0.5724   -0.5595 H   0  0  0  0  0  0  0  0  0  0  0  0
    4.7604    1.7879   -0.7016 H   0  0  0  0  0  0  0  0  0  0  0  0
    5.0553    0.2002    0.0350 H   0  0  0  0  0  0  0  0  0  0  0  0
    1.3823    2.3070    0.9140 H   0  0  0  0  0  0  0  0  0  0  0  0
    2.5595    3.0406   -0.2009 H   0  0  0  0  0  0  0  0  0  0  0  0
    4.6051    4.5690    3.0077 H   0  0  0  0  0  0  0  0  0  0  0  0
    4.6758    3.6600    0.7292 H   0  0  0  0  0  0  0  0  0  0  0  0
  1  5  1  0  0  0  0
  1 16  1  0  0  0  0
  2 21  1  0  0  0  0
  2 19  1  0  0  0  0
  3 10  1  0  0  0  0
  3 22  1  0  0  0  0
  4 13  1  0  0  0  0
  4 26  1  0  0  0  0
  4 27  1  0  0  0  0
  5 29  1  0  0  0  0
  5 28  1  0  0  0  0
  7  6  1  0  0  0  0
  7 32  1  0  0  0  0
  7 33  1  0  0  0  0
  8 12  1  0  0  0  0
  8 14  1  0  0  0  0
  9 36  1  0  0  0  0
  9 15  1  0  0  0  0
 10 38  1  0  0  0  0
 10  2  1  0  0  0  0
 11 39  1  6  0  0  0
 11 15  1  0  0  0  0
 11 10  1  0  0  0  0
 12  6  1  6  0  0  0
 12  9  1  0  0  0  0
 12  5  1  0  0  0  0
 13  7  1  0  0  0  0
 14 11  1  0  0  0  0
 17  1  1  0  0  0  0
 18  1  1  0  0  0  0
 20  2  1  0  0  0  0
 23  3  1  0  0  0  0
 24  3  1  0  0  0  0
 25  4  1  0  0  0  0
 30  6  1  0  0  0  0
 31  6  1  0  0  0  0
 34  8  1  0  0  0  0
 35  8  1  0  0  0  0
 37  9  1  0  0  0  0
M  END
>  <HBA>
3

>  <HBD>
0

>  <TPSA>
27.69

>  <cid>
28514

>  <dipole>
1.45

>  <excitation_energy_1>
6.449

>  <excitation_energy_2>
6.46

>  <excitation_energy_3>
6.72

>  <excitation_energy_4>
6.764

>  <homo_energy>
-6.876

>  <homo_lumo_gap>
8.866

>  <logP>
2.448

>  <lumo_energy>
1.989

>  <melting_point>
-16.13

>  <molecular_refractivity>
60.68

>  <oscillator_strength_1>
0.0179

>  <oscillator_strength_2>
0.0065

>  <oscillator_strength_3>
0.0016

>  <oscillator_strength_4>
0.0206

>  <open_babel_can_smiles>
COCC[C@]1(CC)CO[C@H](OC1)C(C)C

>  <mulliken_charges>
39
1   -0.461361
2   -0.451723
3   -0.450391
4   -0.19149
5   -0.264821
6   -0.298292
7   -0.016392
8   -0.045044
9   -0.0438
10   -0.108626
11   0.380596
12   0.043026
13   -0.464839
14   -0.486303
15   -0.493407
16   0.147404
17   0.14986
18   0.146133
19   0.135026
20   0.156004
21   0.159959
22   0.142062
23   0.135835
24   0.161826
25   0.158895
26   0.128985
27   0.129239
28   0.166288
29   0.126733
30   0.144306
31   0.151161
32   0.119199
33   0.125634
34   0.120939
35   0.150073
36   0.145344
37   0.120393
38   0.136214
39   0.095354

>  <lowdin_charges>
39
1   -0.449284
2   -0.445645
3   -0.446245
4   -0.279079
5   -0.278748
6   -0.285119
7   -0.13319
8   -0.138659
9   -0.137298
10   -0.129356
11   0.096561
12   -0.02775
13   -0.271803
14   -0.262194
15   -0.263065
16   0.154686
17   0.147482
18   0.147101
19   0.147141
20   0.153636
21   0.155879
22   0.150803
23   0.146302
24   0.156983
25   0.153922
26   0.131642
27   0.131673
28   0.159415
29   0.137013
30   0.151039
31   0.153687
32   0.125357
33   0.129577
34   0.129934
35   0.151524
36   0.147288
37   0.129088
38   0.147952
39   0.111748

$$$$

