PCCDB-ID:  7821
public computational chemistry database (PCCDB) project, http://pccdb.org

 27 26  0  0  1  0  0  0  0  0999 V2000
    1.4139    0.6768   -0.9812 C   0  0  0  0  0  0  0  0  0  0  0  0
    5.6491   -0.2470    1.4565 C   0  0  0  0  0  0  0  0  0  0  0  0
    6.8551    0.6449   -0.5725 C   0  0  0  0  0  0  0  0  0  0  0  0
    1.9502    1.8812   -0.1987 C   0  0  0  0  0  0  0  0  0  0  0  0
    4.4224    1.2219   -0.2490 C   0  0  0  0  0  0  0  0  0  0  0  0
    3.5226    2.7951    1.5524 C   0  0  0  0  0  0  0  0  0  0  0  0
    5.7566    0.9225    0.4656 C   0  0  0  0  0  0  0  0  0  0  0  0
    3.2177    1.6028    0.6395 C   0  0  1  0  0  0  0  0  0  0  0  0
    3.8995    3.9104    0.7464 O   0  0  0  0  0  0  0  0  0  0  0  0
    0.4683    0.9262   -1.4763 H   0  0  0  0  0  0  0  0  0  0  0  0
    1.2247   -0.1770   -0.3178 H   0  0  0  0  0  0  0  0  0  0  0  0
    2.1103    0.3448   -1.7586 H   0  0  0  0  0  0  0  0  0  0  0  0
    5.3174   -1.1612    0.9464 H   0  0  0  0  0  0  0  0  0  0  0  0
    4.9380   -0.0418    2.2645 H   0  0  0  0  0  0  0  0  0  0  0  0
    6.6202   -0.4608    1.9193 H   0  0  0  0  0  0  0  0  0  0  0  0
    7.8259    0.4787   -0.0899 H   0  0  0  0  0  0  0  0  0  0  0  0
    6.9657    1.4832   -1.2705 H   0  0  0  0  0  0  0  0  0  0  0  0
    6.6202   -0.2510   -1.1625 H   0  0  0  0  0  0  0  0  0  0  0  0
    1.1625    2.2342    0.4822 H   0  0  0  0  0  0  0  0  0  0  0  0
    2.1532    2.7128   -0.8849 H   0  0  0  0  0  0  0  0  0  0  0  0
    4.1535    0.3376   -0.8432 H   0  0  0  0  0  0  0  0  0  0  0  0
    4.5891    2.0379   -0.9634 H   0  0  0  0  0  0  0  0  0  0  0  0
    4.3277    2.5369    2.2583 H   0  0  0  0  0  0  0  0  0  0  0  0
    2.6265    3.0289    2.1510 H   0  0  0  0  0  0  0  0  0  0  0  0
    6.0566    1.8205    1.0240 H   0  0  0  0  0  0  0  0  0  0  0  0
    2.9915    0.7599    1.3111 H   0  0  0  0  0  0  0  0  0  0  0  0
    4.0749    4.6589    1.3357 H   0  0  0  0  0  0  0  0  0  0  0  0
  1 11  1  0  0  0  0
  1  4  1  0  0  0  0
  2 15  1  0  0  0  0
  2 14  1  0  0  0  0
  3 16  1  0  0  0  0
  3  7  1  0  0  0  0
  4 19  1  0  0  0  0
  4  8  1  0  0  0  0
  5  7  1  0  0  0  0
  5  8  1  0  0  0  0
  6 24  1  0  0  0  0
  6 23  1  0  0  0  0
  7 25  1  0  0  0  0
  7  2  1  0  0  0  0
  8 26  1  1  0  0  0
  8  6  1  0  0  0  0
  9 27  1  0  0  0  0
  9  6  1  0  0  0  0
 10  1  1  0  0  0  0
 12  1  1  0  0  0  0
 13  2  1  0  0  0  0
 17  3  1  0  0  0  0
 18  3  1  0  0  0  0
 20  4  1  0  0  0  0
 21  5  1  0  0  0  0
 22  5  1  0  0  0  0
M  END
>  <HBA>
1

>  <HBD>
1

>  <TPSA>
20.23

>  <cid>
7821

>  <dipole>
1.49

>  <excitation_energy_1>
6.268

>  <excitation_energy_2>
7.078

>  <excitation_energy_3>
7.3

>  <excitation_energy_4>
7.321

>  <homo_energy>
-7.116

>  <homo_lumo_gap>
8.966

>  <logP>
2.051

>  <lumo_energy>
1.85

>  <melting_point>
-9.27

>  <molecular_refractivity>
41.73

>  <oscillator_strength_1>
0.0

>  <oscillator_strength_2>
0.0218

>  <oscillator_strength_3>
0.0021

>  <oscillator_strength_4>
0.014

>  <open_babel_can_smiles>
CC[C@@H](CC(C)C)CO

>  <mulliken_charges>
27
1   -0.449438
2   -0.445332
3   -0.442808
4   -0.248739
5   -0.250664
6   -0.042254
7   -0.076053
8   -0.094646
9   -0.62059
10   0.140991
11   0.137078
12   0.147741
13   0.137336
14   0.139671
15   0.137792
16   0.135728
17   0.142244
18   0.135795
19   0.120927
20   0.151355
21   0.123933
22   0.146154
23   0.120253
24   0.114569
25   0.128654
26   0.117983
27   0.39232

>  <lowdin_charges>
27
1   -0.448731
2   -0.448649
3   -0.443639
4   -0.27492
5   -0.280831
6   -0.138667
7   -0.123148
8   -0.137268
9   -0.476325
10   0.149595
11   0.144271
12   0.148757
13   0.145115
14   0.145479
15   0.147022
16   0.145262
17   0.149154
18   0.14393
19   0.138634
20   0.150514
21   0.139718
22   0.151205
23   0.126202
24   0.124955
25   0.138136
26   0.138413
27   0.345816

$$$$

