PCCDB-ID:  33589
public computational chemistry database (PCCDB) project, http://pccdb.org

 20 20  0  0  0  0  0  0  0  0999 V2000
    0.7323   -0.0703    0.1096 C   0  0  0  0  0  0  0  0  0  0  0  0
    2.6899    0.0469   -1.5002 C   0  0  0  0  0  0  0  0  0  0  0  0
    5.0459    2.4281    0.0165 C   0  0  0  0  0  0  0  0  0  0  0  0
    4.0472    3.4753    0.4936 C   0  0  0  0  0  0  0  0  0  0  0  0
    2.2634   -0.0788   -0.0339 C   0  0  0  0  0  0  0  0  0  0  0  0
    2.9004    0.9679    0.9121 C   0  0  0  0  0  0  0  0  0  0  0  0
    4.7496    0.9046    0.9910 S   0  0  0  0  0  0  0  0  0  0  0  0
    2.3751    2.7140    0.5188 S   0  0  0  0  0  0  0  0  0  0  0  0
    0.2899   -0.8929   -0.4635 H   0  0  0  0  0  0  0  0  0  0  0  0
    0.3030    0.8653   -0.2684 H   0  0  0  0  0  0  0  0  0  0  0  0
    0.4241   -0.1860    1.1558 H   0  0  0  0  0  0  0  0  0  0  0  0
    2.2432   -0.7600   -2.0922 H   0  0  0  0  0  0  0  0  0  0  0  0
    3.7778   -0.0264   -1.6027 H   0  0  0  0  0  0  0  0  0  0  0  0
    2.3628    1.0007   -1.9275 H   0  0  0  0  0  0  0  0  0  0  0  0
    6.0775    2.7397    0.2112 H   0  0  0  0  0  0  0  0  0  0  0  0
    4.9314    2.2306   -1.0531 H   0  0  0  0  0  0  0  0  0  0  0  0
    4.0028    4.3288   -0.1918 H   0  0  0  0  0  0  0  0  0  0  0  0
    4.3091    3.8354    1.4923 H   0  0  0  0  0  0  0  0  0  0  0  0
    2.6253   -1.0490    0.3379 H   0  0  0  0  0  0  0  0  0  0  0  0
    2.5656    0.7518    1.9309 H   0  0  0  0  0  0  0  0  0  0  0  0
  1 11  1  0  0  0  0
  2  5  1  0  0  0  0
  3 15  1  0  0  0  0
  3  4  1  0  0  0  0
  3  7  1  0  0  0  0
  4  8  1  0  0  0  0
  4 18  1  0  0  0  0
  5  1  1  0  0  0  0
  5 19  1  0  0  0  0
  5  6  1  0  0  0  0
  6  7  1  0  0  0  0
  6 20  1  0  0  0  0
  8  6  1  0  0  0  0
  9  1  1  0  0  0  0
 10  1  1  0  0  0  0
 12  2  1  0  0  0  0
 13  2  1  0  0  0  0
 14  2  1  0  0  0  0
 16  3  1  0  0  0  0
 17  4  1  0  0  0  0
M  END
>  <HBA>
2

>  <HBD>
0

>  <TPSA>
50.6

>  <cid>
33589

>  <dipole>
0.97

>  <excitation_energy_1>
4.729

>  <excitation_energy_2>
4.858

>  <excitation_energy_3>
5.542

>  <excitation_energy_4>
5.679

>  <homo_energy>
-6.087

>  <homo_lumo_gap>
6.133

>  <logP>
2.449

>  <lumo_energy>
0.046

>  <melting_point>
13.96

>  <molecular_refractivity>
44.02

>  <oscillator_strength_1>
0.001

>  <oscillator_strength_2>
0.0022

>  <oscillator_strength_3>
0.0209

>  <oscillator_strength_4>
0.0045

>  <open_babel_can_smiles>
CC(C1SCCS1)C

>  <mulliken_charges>
20
1   -0.457028
2   -0.451628
3   -0.417223
4   -0.413244
5   -0.057363
6   -0.414134
7   0.110727
8   0.100106
9   0.148169
10   0.165961
11   0.143052
12   0.141047
13   0.157708
14   0.161301
15   0.183338
16   0.1892
17   0.181839
18   0.189761
19   0.141684
20   0.196726

>  <lowdin_charges>
20
1   -0.448665
2   -0.450946
3   -0.372541
4   -0.37405
5   -0.126463
6   -0.322519
7   0.099273
8   0.082452
9   0.154409
10   0.158959
11   0.147958
12   0.151717
13   0.154653
14   0.156414
15   0.172343
16   0.161971
17   0.172022
18   0.164894
19   0.147335
20   0.170785

$$$$

