PCCDB-ID:  24317
public computational chemistry database (PCCDB) project, http://pccdb.org

 27 27  0  0  1  0  0  0  0  0999 V2000
    1.6871   -0.2990   -0.8045 C   0  0  0  0  0  0  0  0  0  0  0  0
    4.5518    1.5707   -0.4814 C   0  0  0  0  0  0  0  0  0  0  0  0
    2.3038    1.3074    2.6830 C   0  0  0  0  0  0  0  0  0  0  0  0
    4.2872   -1.3948    0.7925 C   0  0  0  0  0  0  0  0  0  0  0  0
    2.7991   -1.5009    1.1557 C   0  0  0  0  0  0  0  0  0  0  0  0
    4.9014   -0.1236    1.3964 C   0  0  0  0  0  0  0  0  0  0  0  0
    1.9823   -0.2677    0.7062 C   0  0  1  0  0  0  0  0  0  0  0  0
    4.1682    1.1628    0.9530 C   0  0  2  0  0  0  0  0  0  0  0  0
    2.6305    1.0633    1.1966 C   0  0  2  0  0  0  0  0  0  0  0  0
    1.0020   -0.3329    1.2012 H   0  0  0  0  0  0  0  0  0  0  0  0
    2.5926   -0.3478   -1.4163 H   0  0  0  0  0  0  0  0  0  0  0  0
    1.1277    0.5916   -1.1150 H   0  0  0  0  0  0  0  0  0  0  0  0
    5.6208    1.8119   -0.5327 H   0  0  0  0  0  0  0  0  0  0  0  0
    3.9951    2.4597   -0.8011 H   0  0  0  0  0  0  0  0  0  0  0  0
    4.3631    0.7828   -1.2167 H   0  0  0  0  0  0  0  0  0  0  0  0
    1.2203    1.3125    2.8507 H   0  0  0  0  0  0  0  0  0  0  0  0
    2.6976    2.2746    3.0174 H   0  0  0  0  0  0  0  0  0  0  0  0
    2.7325    0.5363    3.3336 H   0  0  0  0  0  0  0  0  0  0  0  0
    4.4114   -1.3947   -0.2985 H   0  0  0  0  0  0  0  0  0  0  0  0
    4.8247   -2.2793    1.1581 H   0  0  0  0  0  0  0  0  0  0  0  0
    2.7134   -1.6169    2.2452 H   0  0  0  0  0  0  0  0  0  0  0  0
    2.3608   -2.4080    0.7182 H   0  0  0  0  0  0  0  0  0  0  0  0
    5.9648   -0.0473    1.1324 H   0  0  0  0  0  0  0  0  0  0  0  0
    4.8644   -0.2052    2.4919 H   0  0  0  0  0  0  0  0  0  0  0  0
    1.0790   -1.1773   -1.0539 H   0  0  0  0  0  0  0  0  0  0  0  0
    4.5279    1.9779    1.5984 H   0  0  0  0  0  0  0  0  0  0  0  0
    2.1581    1.8826    0.6343 H   0  0  0  0  0  0  0  0  0  0  0  0
  1  7  1  0  0  0  0
  2  8  1  0  0  0  0
  3 16  1  0  0  0  0
  3 17  1  0  0  0  0
  3 18  1  0  0  0  0
  4  5  1  0  0  0  0
  4 20  1  0  0  0  0
  4  6  1  0  0  0  0
  5 21  1  0  0  0  0
  6 24  1  0  0  0  0
  7  5  1  0  0  0  0
  7  9  1  0  0  0  0
  7 10  1  1  0  0  0
  8  9  1  0  0  0  0
  8  6  1  0  0  0  0
  8 26  1  1  0  0  0
  9 27  1  6  0  0  0
  9  3  1  0  0  0  0
 11  1  1  0  0  0  0
 12  1  1  0  0  0  0
 13  2  1  0  0  0  0
 14  2  1  0  0  0  0
 15  2  1  0  0  0  0
 19  4  1  0  0  0  0
 22  5  1  0  0  0  0
 23  6  1  0  0  0  0
 25  1  1  0  0  0  0
M  END
>  <HBA>
0

>  <HBD>
0

>  <TPSA>
0.0

>  <cid>
24317

>  <dipole>
0.07

>  <excitation_energy_1>
7.122

>  <excitation_energy_2>
7.201

>  <excitation_energy_3>
7.495

>  <excitation_energy_4>
7.54

>  <homo_energy>
-7.66

>  <homo_lumo_gap>
9.652

>  <logP>
3.079

>  <lumo_energy>
1.992

>  <melting_point>
-5.98

>  <molecular_refractivity>
43.26

>  <oscillator_strength_1>
0.0002

>  <oscillator_strength_2>
0.0045

>  <oscillator_strength_3>
0.0096

>  <oscillator_strength_4>
0.0262

>  <open_babel_can_smiles>
C[C@@H]1[C@@H](C)CCC[C@H]1C

>  <mulliken_charges>
27
1   -0.456194
2   -0.45638
3   -0.461339
4   -0.261792
5   -0.264471
6   -0.264543
7   -0.069119
8   -0.068818
9   -0.074219
10   0.11581
11   0.14614
12   0.138588
13   0.13771
14   0.13864
15   0.146168
16   0.139245
17   0.139203
18   0.144472
19   0.130671
20   0.1286
21   0.127486
22   0.125494
23   0.125539
24   0.127513
25   0.137597
26   0.115814
27   0.112185

>  <lowdin_charges>
27
1   -0.450835
2   -0.449012
3   -0.447445
4   -0.27893
5   -0.278393
6   -0.275913
7   -0.125498
8   -0.127161
9   -0.130146
10   0.136636
11   0.146582
12   0.147581
13   0.145002
14   0.147566
15   0.146802
16   0.144978
17   0.14661
18   0.146672
19   0.135527
20   0.143901
21   0.136442
22   0.141635
23   0.139593
24   0.136342
25   0.147003
26   0.138095
27   0.136362

$$$$

