PCCDB-ID:  7955
public computational chemistry database (PCCDB) project, http://pccdb.org

 15 15  0  0  0  0  0  0  0  0999 V2000
   -0.7467    1.2551    0.0249 C   0  0  0  0  0  0  0  0  0  0  0  0
   -0.7216   -1.2391    0.0074 C   0  0  0  0  0  0  0  0  0  0  0  0
    1.4133    0.0231    0.0423 C   0  0  0  0  0  0  0  0  0  0  0  0
   -1.3053    2.4040    0.0216 N   0  0  0  0  0  0  0  0  0  0  0  0
   -1.2722   -2.3916   -0.0132 N   0  0  0  0  0  0  0  0  0  0  0  0
    2.6878   -0.0630    0.0552 N   0  0  0  0  0  0  0  0  0  0  0  0
   -1.3652    0.0049    0.0146 N   0  0  0  0  0  0  0  0  0  0  0  0
    0.6401    1.1808    0.0416 N   0  0  0  0  0  0  0  0  0  0  0  0
    0.6567   -1.1390    0.0285 N   0  0  0  0  0  0  0  0  0  0  0  0
   -2.3228    2.3358    0.0092 H   0  0  0  0  0  0  0  0  0  0  0  0
   -2.2901   -2.3288   -0.0244 H   0  0  0  0  0  0  0  0  0  0  0  0
    3.1289    0.8565    0.0653 H   0  0  0  0  0  0  0  0  0  0  0  0
   -2.3743   -0.0046   -0.0073 H   0  0  0  0  0  0  0  0  0  0  0  0
    1.1046    2.0781    0.0491 H   0  0  0  0  0  0  0  0  0  0  0  0
    1.1715   -2.0091    0.0260 H   0  0  0  0  0  0  0  0  0  0  0  0
  1  8  1  0  0  0  0
  2  7  1  0  0  0  0
  2  9  1  0  0  0  0
  3  6  2  0  0  0  0
  4  1  2  0  0  0  0
  5  2  2  0  0  0  0
  6 12  1  0  0  0  0
  7  1  1  0  0  0  0
  8  3  1  0  0  0  0
  8 14  1  0  0  0  0
  9  3  1  0  0  0  0
 10  4  1  0  0  0  0
 11  5  1  0  0  0  0
 13  7  1  0  0  0  0
 15  9  1  0  0  0  0
M  END
>  <HBA>
6

>  <HBD>
3

>  <TPSA>
116.73

>  <cid>
7955

>  <dipole>
2.9

>  <excitation_energy_1>
5.29

>  <excitation_energy_2>
5.835

>  <excitation_energy_3>
5.889

>  <excitation_energy_4>
5.954

>  <homo_energy>
-6.406

>  <homo_lumo_gap>
6.702

>  <logP>
0.362

>  <lumo_energy>
0.297

>  <melting_point>
199.3

>  <molecular_refractivity>
33.04

>  <oscillator_strength_1>
0.009

>  <oscillator_strength_2>
0.002

>  <oscillator_strength_3>
0.0001

>  <oscillator_strength_4>
0.0651

>  <open_babel_can_smiles>
N=c1[nH]c(=N)[nH]c(=N)[nH]1

>  <mulliken_charges>
15
1   0.69223
2   0.69292
3   0.696369
4   -0.647801
5   -0.644343
6   -0.648314
7   -0.70642
8   -0.681908
9   -0.65426
10   0.281079
11   0.278675
12   0.281675
13   0.338356
14   0.353962
15   0.367781

>  <lowdin_charges>
15
1   0.14286
2   0.141487
3   0.135686
4   -0.452366
5   -0.449522
6   -0.450943
7   -0.271513
8   -0.252903
9   -0.231225
10   0.255579
11   0.254103
12   0.257263
13   0.295
14   0.308153
15   0.318343

$$$$

