PCCDB-ID:  1054
public computational chemistry database (PCCDB) project, http://pccdb.org

 23 23  0  0  0  0  0  0  0  0999 V2000
    0.9216   -0.0317    0.0701 C   0  0  0  0  0  0  0  0  0  0  0  0
    4.4337   -1.0946    0.1292 C   0  0  0  0  0  0  0  0  0  0  0  0
    6.7091   -0.0051    0.0559 C   0  0  0  0  0  0  0  0  0  0  0  0
    5.2296    2.6238   -0.0505 C   0  0  0  0  0  0  0  0  0  0  0  0
    2.4309    0.0282    0.0710 C   0  0  0  0  0  0  0  0  0  0  0  0
    5.1935    0.0758    0.0765 C   0  0  0  0  0  0  0  0  0  0  0  0
    4.5047    1.3020    0.0152 C   0  0  0  0  0  0  0  0  0  0  0  0
    3.1056    1.2632    0.0100 C   0  0  0  0  0  0  0  0  0  0  0  0
    3.0972   -1.1279    0.1295 N   0  0  0  0  0  0  0  0  0  0  0  0
    7.2687    0.1970   -1.2310 O   0  0  0  0  0  0  0  0  0  0  0  0
    5.9594    2.6920   -1.2922 O   0  0  0  0  0  0  0  0  0  0  0  0
    2.4243    2.4512   -0.0411 O   0  0  0  0  0  0  0  0  0  0  0  0
    0.4837    0.4976    0.9289 H   0  0  0  0  0  0  0  0  0  0  0  0
    0.6119   -1.0769    0.1259 H   0  0  0  0  0  0  0  0  0  0  0  0
    0.4889    0.3988   -0.8449 H   0  0  0  0  0  0  0  0  0  0  0  0
    4.9343   -2.0604    0.1741 H   0  0  0  0  0  0  0  0  0  0  0  0
    7.0169   -1.0070    0.3711 H   0  0  0  0  0  0  0  0  0  0  0  0
    7.1299    0.7031    0.7912 H   0  0  0  0  0  0  0  0  0  0  0  0
    5.9240    2.7090    0.7985 H   0  0  0  0  0  0  0  0  0  0  0  0
    4.5121    3.4468    0.0094 H   0  0  0  0  0  0  0  0  0  0  0  0
    6.9676    1.0828   -1.5129 H   0  0  0  0  0  0  0  0  0  0  0  0
    6.4646    3.5205   -1.2920 H   0  0  0  0  0  0  0  0  0  0  0  0
    1.4728    2.2694   -0.0667 H   0  0  0  0  0  0  0  0  0  0  0  0
  1  5  1  0  0  0  0
  1 14  1  0  0  0  0
  1 13  1  0  0  0  0
  2  9  1  0  0  0  0
  2 16  1  0  0  0  0
  3  6  1  0  0  0  0
  3 17  1  0  0  0  0
  3 18  1  0  0  0  0
  4 20  1  0  0  0  0
  4  7  1  0  0  0  0
  4 19  1  0  0  0  0
  5  9  2  0  0  0  0
  6  2  2  0  0  0  0
  7  6  1  0  0  0  0
  8  7  2  0  0  0  0
  8  5  1  0  0  0  0
 10  3  1  0  0  0  0
 11 22  1  0  0  0  0
 11  4  1  0  0  0  0
 12  8  1  0  0  0  0
 15  1  1  0  0  0  0
 21 10  1  0  0  0  0
 23 12  1  0  0  0  0
M  END
>  <HBA>
4

>  <HBD>
3

>  <TPSA>
73.58

>  <cid>
1054

>  <dipole>
4.45

>  <excitation_energy_1>
4.667

>  <excitation_energy_2>
4.775

>  <excitation_energy_3>
5.369

>  <excitation_energy_4>
5.388

>  <homo_energy>
-6.259

>  <homo_lumo_gap>
5.486

>  <logP>
0.08

>  <lumo_energy>
-0.773

>  <melting_point>
110.55

>  <molecular_refractivity>
43.48

>  <oscillator_strength_1>
0.0046

>  <oscillator_strength_2>
0.1038

>  <oscillator_strength_3>
0.0035

>  <oscillator_strength_4>
0.0015

>  <open_babel_can_smiles>
OCc1c(CO)cnc(c1O)C

>  <mulliken_charges>
23
1   -0.568955
2   -0.020783
3   -0.10846
4   -0.129943
5   0.2913
6   0.085301
7   0.111113
8   0.240164
9   -0.469052
10   -0.636193
11   -0.618587
12   -0.654951
13   0.159261
14   0.196324
15   0.161018
16   0.138848
17   0.148168
18   0.113801
19   0.144454
20   0.173421
21   0.417462
22   0.404913
23   0.421377

>  <lowdin_charges>
23
1   -0.462298
2   -0.114571
3   -0.130527
4   -0.134458
5   0.006205
6   -0.028205
7   -0.031111
8   0.074533
9   -0.144014
10   -0.480327
11   -0.460574
12   -0.379837
13   0.157321
14   0.182797
15   0.157825
16   0.157043
17   0.151054
18   0.126017
19   0.142014
20   0.159834
21   0.338648
22   0.351289
23   0.361344

$$$$

