PCCDB-ID:  57541
public computational chemistry database (PCCDB) project, http://pccdb.org

 24 25  0  0  0  0  0  0  0  0999 V2000
   -1.7686   -0.9306   -0.0082 C   0  0  0  0  0  0  0  0  0  0  0  0
   -0.9847   -1.9940    0.4358 C   0  0  0  0  0  0  0  0  0  0  0  0
   -1.1589    0.0998   -0.7313 C   0  0  0  0  0  0  0  0  0  0  0  0
    6.8266   -1.5394   -1.2776 C   0  0  0  0  0  0  0  0  0  0  0  0
    0.3854   -2.0391    0.1713 C   0  0  0  0  0  0  0  0  0  0  0  0
    0.2034    0.0661   -1.0042 C   0  0  0  0  0  0  0  0  0  0  0  0
    5.6764   -2.3863   -1.1377 C   0  0  0  0  0  0  0  0  0  0  0  0
    6.4580   -0.3213   -0.7996 C   0  0  0  0  0  0  0  0  0  0  0  0
    3.2884   -1.8873   -0.1612 C   0  0  0  0  0  0  0  0  0  0  0  0
    1.0016   -1.0071   -0.5592 C   0  0  0  0  0  0  0  0  0  0  0  0
    4.6952   -1.6242   -0.5785 C   0  0  0  0  0  0  0  0  0  0  0  0
    2.3565   -1.0320   -0.8889 N   0  0  0  0  0  0  0  0  0  0  0  0
    5.1635   -0.3516   -0.3649 O   0  0  0  0  0  0  0  0  0  0  0  0
   -2.8335   -0.9021    0.2029 H   0  0  0  0  0  0  0  0  0  0  0  0
   -1.4383   -2.8051    1.0001 H   0  0  0  0  0  0  0  0  0  0  0  0
   -1.7502    0.9406   -1.0856 H   0  0  0  0  0  0  0  0  0  0  0  0
    7.7920   -1.8062   -1.6843 H   0  0  0  0  0  0  0  0  0  0  0  0
    0.9687   -2.8805    0.5307 H   0  0  0  0  0  0  0  0  0  0  0  0
    0.6664    0.8709   -1.5720 H   0  0  0  0  0  0  0  0  0  0  0  0
    5.5920   -3.4266   -1.4198 H   0  0  0  0  0  0  0  0  0  0  0  0
    6.9633    0.6272   -0.6996 H   0  0  0  0  0  0  0  0  0  0  0  0
    3.1872   -1.7569    0.9317 H   0  0  0  0  0  0  0  0  0  0  0  0
    3.0691   -2.9394   -0.3769 H   0  0  0  0  0  0  0  0  0  0  0  0
    2.7434   -0.1198   -1.0981 H   0  0  0  0  0  0  0  0  0  0  0  0
  1 14  1  0  0  0  0
  1  2  2  0  0  0  0
  2 15  1  0  0  0  0
  3  1  1  0  0  0  0
  4  7  1  0  0  0  0
  4  8  2  0  0  0  0
  5  2  1  0  0  0  0
  5 18  1  0  0  0  0
  6  3  2  0  0  0  0
  6 10  1  0  0  0  0
  7 11  2  0  0  0  0
  8 21  1  0  0  0  0
  8 13  1  0  0  0  0
  9 22  1  0  0  0  0
 10  5  2  0  0  0  0
 11 13  1  0  0  0  0
 11  9  1  0  0  0  0
 12 10  1  0  0  0  0
 12  9  1  0  0  0  0
 16  3  1  0  0  0  0
 17  4  1  0  0  0  0
 19  6  1  0  0  0  0
 20  7  1  0  0  0  0
 23  9  1  0  0  0  0
 24 12  1  0  0  0  0
M  END
>  <HBA>
2

>  <HBD>
1

>  <TPSA>
25.17

>  <cid>
57541

>  <dipole>
1.95

>  <excitation_energy_1>
4.556

>  <excitation_energy_2>
4.639

>  <excitation_energy_3>
4.916

>  <excitation_energy_4>
5.148

>  <homo_energy>
-5.238

>  <homo_lumo_gap>
5.407

>  <logP>
2.965

>  <lumo_energy>
0.169

>  <melting_point>
67.49

>  <molecular_refractivity>
52.5

>  <oscillator_strength_1>
0.0255

>  <oscillator_strength_2>
0.0158

>  <oscillator_strength_3>
0.0077

>  <oscillator_strength_4>
0.0222

>  <open_babel_can_smiles>
c1ccc(cc1)NCc1ccco1

>  <mulliken_charges>
24
1   -0.137852
2   -0.138327
3   -0.133933
4   -0.18183
5   -0.182408
6   -0.188904
7   -0.197791
8   0.083841
9   -0.177475
10   0.357354
11   0.313539
12   -0.667439
13   -0.44314
14   0.119417
15   0.123254
16   0.12395
17   0.144282
18   0.122636
19   0.115734
20   0.142452
21   0.156266
22   0.155632
23   0.165152
24   0.32559

>  <lowdin_charges>
24
1   -0.187326
2   -0.146624
3   -0.147876
4   -0.201583
5   -0.213355
6   -0.199548
7   -0.207341
8   -0.079941
9   -0.187666
10   0.060978
11   0.059028
12   -0.301026
13   -0.111928
14   0.152493
15   0.155738
16   0.156258
17   0.170444
18   0.156474
19   0.152639
20   0.169121
21   0.171843
22   0.143328
23   0.159634
24   0.276237

$$$$

