PCCDB-ID:  8117
public computational chemistry database (PCCDB) project, http://pccdb.org

 17 16  0  0  0  0  0  0  0  0999 V2000
    1.4771   -0.2985   -0.9688 C   0  0  0  0  0  0  0  0  0  0  0  0
   -2.2415    1.6863   -3.0679 C   0  0  0  0  0  0  0  0  0  0  0  0
    1.0018    1.0647   -1.4460 C   0  0  0  0  0  0  0  0  0  0  0  0
   -0.8117    2.0225   -2.6752 C   0  0  0  0  0  0  0  0  0  0  0  0
    1.5824   -1.2137   -2.0450 O   0  0  0  0  0  0  0  0  0  0  0  0
   -3.0309    1.3831   -1.9314 O   0  0  0  0  0  0  0  0  0  0  0  0
   -0.2829    0.8706   -2.0275 O   0  0  0  0  0  0  0  0  0  0  0  0
    0.7897   -0.6678   -0.1900 H   0  0  0  0  0  0  0  0  0  0  0  0
    2.4734   -0.2095   -0.5235 H   0  0  0  0  0  0  0  0  0  0  0  0
   -2.2308    0.8505   -3.7870 H   0  0  0  0  0  0  0  0  0  0  0  0
   -2.7040    2.5478   -3.5605 H   0  0  0  0  0  0  0  0  0  0  0  0
    1.6992    1.4613   -2.1997 H   0  0  0  0  0  0  0  0  0  0  0  0
    0.9454    1.7820   -0.6112 H   0  0  0  0  0  0  0  0  0  0  0  0
   -0.8053    2.8786   -1.9832 H   0  0  0  0  0  0  0  0  0  0  0  0
   -0.2064    2.2835   -3.5584 H   0  0  0  0  0  0  0  0  0  0  0  0
    0.7329   -1.1632   -2.5135 H   0  0  0  0  0  0  0  0  0  0  0  0
   -2.5241    0.7220   -1.4314 H   0  0  0  0  0  0  0  0  0  0  0  0
  1  9  1  0  0  0  0
  1  8  1  0  0  0  0
  2  4  1  0  0  0  0
  2  6  1  0  0  0  0
  3  1  1  0  0  0  0
  3 13  1  0  0  0  0
  4  7  1  0  0  0  0
  4 14  1  0  0  0  0
  5  1  1  0  0  0  0
  6 17  1  0  0  0  0
  7  3  1  0  0  0  0
 10  2  1  0  0  0  0
 11  2  1  0  0  0  0
 12  3  1  0  0  0  0
 15  4  1  0  0  0  0
 16  5  1  0  0  0  0
M  END
>  <HBA>
3

>  <HBD>
2

>  <TPSA>
49.69

>  <cid>
8117

>  <dipole>
1.67

>  <excitation_energy_1>
6.765

>  <excitation_energy_2>
6.827

>  <excitation_energy_3>
6.95

>  <excitation_energy_4>
7.201

>  <homo_energy>
-7.252

>  <homo_lumo_gap>
9.119

>  <logP>
-1.012

>  <lumo_energy>
1.867

>  <melting_point>
3.05

>  <molecular_refractivity>
24.75

>  <oscillator_strength_1>
0.0065

>  <oscillator_strength_2>
0.0075

>  <oscillator_strength_3>
0.0044

>  <oscillator_strength_4>
0.0133

>  <open_babel_can_smiles>
OCCOCCO

>  <mulliken_charges>
17
1   -0.036697
2   -0.036462
3   -0.033668
4   -0.033985
5   -0.618103
6   -0.61817
7   -0.506024
8   0.129279
9   0.149179
10   0.129267
11   0.149118
12   0.136923
13   0.127977
14   0.136917
15   0.128097
16   0.398183
17   0.398171

>  <lowdin_charges>
17
1   -0.139169
2   -0.140579
3   -0.149828
4   -0.150128
5   -0.46623
6   -0.467772
7   -0.292701
8   0.132572
9   0.152218
10   0.132203
11   0.153457
12   0.138697
13   0.135693
14   0.137827
15   0.135867
16   0.343014
17   0.344861

$$$$

