PCCDB-ID:  16501
public computational chemistry database (PCCDB) project, http://pccdb.org

 16 15  0  0  0  0  0  0  0  0999 V2000
    1.4874   -0.1000    0.1062 C   0  0  0  0  0  0  0  0  0  0  0  0
    2.9947    0.0506   -0.0083 C   0  0  0  0  0  0  0  0  0  0  0  0
    4.7751    2.7895   -1.6962 C   0  0  0  0  0  0  0  0  0  0  0  0
    6.1707    3.1586   -1.9400 C   0  0  0  0  0  0  0  0  0  0  0  0
    4.6504    1.4821   -0.9016 C   0  0  0  0  0  0  0  0  0  0  0  0
    7.2829    3.4352   -2.1235 N   0  0  0  0  0  0  0  0  0  0  0  0
    3.2721    1.2413   -0.7352 O   0  0  0  0  0  0  0  0  0  0  0  0
    1.2373   -1.0093    0.6634 H   0  0  0  0  0  0  0  0  0  0  0  0
    1.0309   -0.1642   -0.8867 H   0  0  0  0  0  0  0  0  0  0  0  0
    1.0543    0.7584    0.6293 H   0  0  0  0  0  0  0  0  0  0  0  0
    3.4361   -0.8168   -0.5270 H   0  0  0  0  0  0  0  0  0  0  0  0
    3.4591    0.1043    0.9905 H   0  0  0  0  0  0  0  0  0  0  0  0
    4.2546    2.6814   -2.6547 H   0  0  0  0  0  0  0  0  0  0  0  0
    4.2762    3.5957   -1.1464 H   0  0  0  0  0  0  0  0  0  0  0  0
    5.1590    1.5799    0.0711 H   0  0  0  0  0  0  0  0  0  0  0  0
    5.1369    0.6583   -1.4485 H   0  0  0  0  0  0  0  0  0  0  0  0
  1 10  1  0  0  0  0
  1  8  1  0  0  0  0
  2  1  1  0  0  0  0
  2 12  1  0  0  0  0
  3 14  1  0  0  0  0
  3  5  1  0  0  0  0
  4  3  1  0  0  0  0
  5  7  1  0  0  0  0
  5 15  1  0  0  0  0
  6  4  3  0  0  0  0
  7  2  1  0  0  0  0
  9  1  1  0  0  0  0
 11  2  1  0  0  0  0
 13  3  1  0  0  0  0
 16  5  1  0  0  0  0
M  END
>  <HBA>
2

>  <HBD>
0

>  <TPSA>
33.02

>  <cid>
16501

>  <dipole>
3.89

>  <excitation_energy_1>
6.74

>  <excitation_energy_2>
7.139

>  <excitation_energy_3>
7.31

>  <excitation_energy_4>
7.46

>  <homo_energy>
-7.396

>  <homo_lumo_gap>
8.256

>  <logP>
0.937

>  <lumo_energy>
0.86

>  <melting_point>
-0.95

>  <molecular_refractivity>
26.98

>  <oscillator_strength_1>
0.0124

>  <oscillator_strength_2>
0.0146

>  <oscillator_strength_3>
0.0118

>  <oscillator_strength_4>
0.0335

>  <open_babel_can_smiles>
CCOCCC#N

>  <mulliken_charges>
16
1   -0.454791
2   -0.010928
3   -0.355176
4   0.344407
5   -0.001491
6   -0.468636
7   -0.474989
8   0.148803
9   0.161201
10   0.161226
11   0.126621
12   0.126602
13   0.206317
14   0.20631
15   0.142257
16   0.142269

>  <lowdin_charges>
16
1   -0.44839
2   -0.12353
3   -0.277253
4   -0.018738
5   -0.121447
6   -0.124271
7   -0.274857
8   0.157697
9   0.158183
10   0.159444
11   0.130084
12   0.128457
13   0.188088
14   0.189311
15   0.137968
16   0.139254

$$$$

