PCCDB-ID:  57855
public computational chemistry database (PCCDB) project, http://pccdb.org

 31 32  0  0  0  0  0  0  0  0999 V2000
    0.9653    0.2941   -0.2803 C   0  0  0  0  0  0  0  0  0  0  0  0
    3.0196   -0.7515   -1.3001 C   0  0  0  0  0  0  0  0  0  0  0  0
    3.9965    4.1595   -1.9494 C   0  0  0  0  0  0  0  0  0  0  0  0
    4.8548    3.2582   -1.3164 C   0  0  0  0  0  0  0  0  0  0  0  0
    2.6438    3.8447   -2.0669 C   0  0  0  0  0  0  0  0  0  0  0  0
    4.3606    2.0575   -0.8093 C   0  0  0  0  0  0  0  0  0  0  0  0
    2.1503    2.6422   -1.5542 C   0  0  0  0  0  0  0  0  0  0  0  0
    2.5024   -2.7800    2.7539 C   0  0  0  0  0  0  0  0  0  0  0  0
    3.1210   -1.8190    3.8082 C   0  0  0  0  0  0  0  0  0  0  0  0
    2.9988    1.7283   -0.9171 C   0  0  0  0  0  0  0  0  0  0  0  0
    2.9113   -0.8415    1.7949 C   0  0  0  0  0  0  0  0  0  0  0  0
    2.5010    0.3760   -0.3786 C   0  0  0  0  0  0  0  0  0  0  0  0
    2.4279   -1.9963    1.5186 N   0  0  0  0  0  0  0  0  0  0  0  0
    3.1042    0.2281    0.9701 N   0  0  0  0  0  0  0  0  0  0  0  0
    3.3421   -0.5935    3.0762 O   0  0  0  0  0  0  0  0  0  0  0  0
    0.4996    0.3214   -1.2710 H   0  0  0  0  0  0  0  0  0  0  0  0
    0.5607    1.1189    0.3170 H   0  0  0  0  0  0  0  0  0  0  0  0
    0.6913   -0.6510    0.1946 H   0  0  0  0  0  0  0  0  0  0  0  0
    2.6138   -0.6167   -2.3083 H   0  0  0  0  0  0  0  0  0  0  0  0
    2.7131   -1.7258   -0.9132 H   0  0  0  0  0  0  0  0  0  0  0  0
    4.1116   -0.7252   -1.3637 H   0  0  0  0  0  0  0  0  0  0  0  0
    4.3791    5.0959   -2.3465 H   0  0  0  0  0  0  0  0  0  0  0  0
    5.9128    3.4880   -1.2193 H   0  0  0  0  0  0  0  0  0  0  0  0
    1.9627    4.5377   -2.5542 H   0  0  0  0  0  0  0  0  0  0  0  0
    5.0377    1.3622   -0.3212 H   0  0  0  0  0  0  0  0  0  0  0  0
    1.0927    2.4254   -1.6574 H   0  0  0  0  0  0  0  0  0  0  0  0
    1.5033   -3.1241    3.0504 H   0  0  0  0  0  0  0  0  0  0  0  0
    3.1201   -3.6753    2.6064 H   0  0  0  0  0  0  0  0  0  0  0  0
    4.0843   -2.1603    4.1999 H   0  0  0  0  0  0  0  0  0  0  0  0
    2.4539   -1.6001    4.6479 H   0  0  0  0  0  0  0  0  0  0  0  0
    3.2641    1.0928    1.4702 H   0  0  0  0  0  0  0  0  0  0  0  0
  1 18  1  0  0  0  0
  1 17  1  0  0  0  0
  2 20  1  0  0  0  0
  2 12  1  0  0  0  0
  3  4  1  0  0  0  0
  4 23  1  0  0  0  0
  4  6  2  0  0  0  0
  5  3  2  0  0  0  0
  5  7  1  0  0  0  0
  6 25  1  0  0  0  0
  7 10  2  0  0  0  0
  8 27  1  0  0  0  0
  8  9  1  0  0  0  0
  9 29  1  0  0  0  0
  9 30  1  0  0  0  0
 10  6  1  0  0  0  0
 10 12  1  0  0  0  0
 11 15  1  0  0  0  0
 12  1  1  0  0  0  0
 12 14  1  0  0  0  0
 13 11  2  0  0  0  0
 13  8  1  0  0  0  0
 14 31  1  0  0  0  0
 14 11  1  0  0  0  0
 15  9  1  0  0  0  0
 16  1  1  0  0  0  0
 19  2  1  0  0  0  0
 21  2  1  0  0  0  0
 22  3  1  0  0  0  0
 24  5  1  0  0  0  0
 26  7  1  0  0  0  0
 28  8  1  0  0  0  0
M  END
>  <HBA>
3

>  <HBD>
1

>  <TPSA>
33.62

>  <cid>
57855

>  <dipole>
1.25

>  <excitation_energy_1>
4.974

>  <excitation_energy_2>
5.071

>  <excitation_energy_3>
5.348

>  <excitation_energy_4>
5.381

>  <homo_energy>
-5.81

>  <homo_lumo_gap>
5.714

>  <logP>
1.724

>  <lumo_energy>
-0.095

>  <melting_point>
69.45

>  <molecular_refractivity>
64.11

>  <oscillator_strength_1>
0.0015

>  <oscillator_strength_2>
0.0033

>  <oscillator_strength_3>
0.0002

>  <oscillator_strength_4>
0.003

>  <open_babel_can_smiles>
CC(c1ccccc1)(NC1=NCCO1)C

>  <mulliken_charges>
31
1   -0.47022
2   -0.445606
3   -0.126872
4   -0.130574
5   -0.133304
6   -0.179514
7   -0.18387
8   -0.164599
9   -0.056026
10   0.107541
11   0.74264
12   0.17698
13   -0.503198
14   -0.667931
15   -0.509862
16   0.14373
17   0.139193
18   0.185012
19   0.140737
20   0.191207
21   0.146031
22   0.129628
23   0.130739
24   0.129888
25   0.143928
26   0.131169
27   0.146087
28   0.146912
29   0.153396
30   0.152173
31   0.334585

>  <lowdin_charges>
31
1   -0.45934
2   -0.445714
3   -0.157552
4   -0.153396
5   -0.156831
6   -0.168522
7   -0.166019
8   -0.209344
9   -0.140097
10   -0.012939
11   0.159603
12   0.090348
13   -0.291308
14   -0.280782
15   -0.231465
16   0.150725
17   0.149167
18   0.172901
19   0.150899
20   0.17366
21   0.151081
22   0.15787
23   0.156431
24   0.159109
25   0.16491
26   0.159835
27   0.144205
28   0.14505
29   0.148935
30   0.148851
31   0.289728

$$$$

