PCCDB-ID:  56050
public computational chemistry database (PCCDB) project, http://pccdb.org

 30 29  0  0  0  0  0  0  0  0999 V2000
    7.5818    3.2840   -2.0262 C   0  0  0  0  0  0  0  0  0  0  0  0
    5.0456    3.3285   -2.0151 C   0  0  0  0  0  0  0  0  0  0  0  0
    8.6244   -0.3920    1.4040 C   0  0  0  0  0  0  0  0  0  0  0  0
    7.5978    0.5666    2.0346 C   0  0  0  0  0  0  0  0  0  0  0  0
    9.3485    0.1308    0.1503 C   0  0  0  0  0  0  0  0  0  0  0  0
    6.2515    0.6867    1.3016 C   0  0  0  0  0  0  0  0  0  0  0  0
    6.3169    2.8532    0.1518 C   0  0  0  0  0  0  0  0  0  0  0  0
    6.3240    3.5900   -1.2012 C   0  0  0  0  0  0  0  0  0  0  0  0
   10.3635   -0.7690   -0.4116 N   0  0  0  0  0  0  0  0  0  0  0  0
    6.3170    1.3956    0.0179 N   0  0  0  0  0  0  0  0  0  0  0  0
    7.5992    3.8783   -2.9476 H   0  0  0  0  0  0  0  0  0  0  0  0
    7.6233    2.2254   -2.3015 H   0  0  0  0  0  0  0  0  0  0  0  0
    8.4928    3.5137   -1.4612 H   0  0  0  0  0  0  0  0  0  0  0  0
    5.0165    3.9642   -2.9075 H   0  0  0  0  0  0  0  0  0  0  0  0
    4.1433    3.5378   -1.4270 H   0  0  0  0  0  0  0  0  0  0  0  0
    4.9914    2.2893   -2.3645 H   0  0  0  0  0  0  0  0  0  0  0  0
    8.1278   -1.3446    1.1607 H   0  0  0  0  0  0  0  0  0  0  0  0
    9.3856   -0.6334    2.1617 H   0  0  0  0  0  0  0  0  0  0  0  0
    8.0476    1.5620    2.1568 H   0  0  0  0  0  0  0  0  0  0  0  0
    7.3736    0.2167    3.0517 H   0  0  0  0  0  0  0  0  0  0  0  0
    9.8448    1.0812    0.3918 H   0  0  0  0  0  0  0  0  0  0  0  0
    8.6172    0.3572   -0.6303 H   0  0  0  0  0  0  0  0  0  0  0  0
    5.5235    1.1623    1.9884 H   0  0  0  0  0  0  0  0  0  0  0  0
    5.8755   -0.3253    1.1014 H   0  0  0  0  0  0  0  0  0  0  0  0
    5.4530    3.2112    0.7488 H   0  0  0  0  0  0  0  0  0  0  0  0
    7.2161    3.1425    0.7099 H   0  0  0  0  0  0  0  0  0  0  0  0
    6.3355    4.6612   -0.9504 H   0  0  0  0  0  0  0  0  0  0  0  0
    9.9220   -1.6459   -0.6885 H   0  0  0  0  0  0  0  0  0  0  0  0
   11.0366   -1.0191    0.3135 H   0  0  0  0  0  0  0  0  0  0  0  0
    5.5055    1.1250   -0.5333 H   0  0  0  0  0  0  0  0  0  0  0  0
  1 13  1  0  0  0  0
  1  8  1  0  0  0  0
  2 15  1  0  0  0  0
  2  8  1  0  0  0  0
  3  4  1  0  0  0  0
  3 18  1  0  0  0  0
  4 19  1  0  0  0  0
  4 20  1  0  0  0  0
  5 21  1  0  0  0  0
  5  3  1  0  0  0  0
  6 23  1  0  0  0  0
  6  4  1  0  0  0  0
  7 26  1  0  0  0  0
  7 25  1  0  0  0  0
  8 27  1  0  0  0  0
  8  7  1  0  0  0  0
  9  5  1  0  0  0  0
  9 29  1  0  0  0  0
 10  7  1  0  0  0  0
 10  6  1  0  0  0  0
 11  1  1  0  0  0  0
 12  1  1  0  0  0  0
 14  2  1  0  0  0  0
 16  2  1  0  0  0  0
 17  3  1  0  0  0  0
 22  5  1  0  0  0  0
 24  6  1  0  0  0  0
 28  9  1  0  0  0  0
 30 10  1  0  0  0  0
M  END
>  <HBA>
2

>  <HBD>
2

>  <TPSA>
38.05

>  <cid>
56050

>  <dipole>
2.16

>  <excitation_energy_1>
5.308

>  <excitation_energy_2>
5.461

>  <excitation_energy_3>
5.681

>  <excitation_energy_4>
5.766

>  <homo_energy>
-5.916

>  <homo_lumo_gap>
7.943

>  <logP>
2.062

>  <lumo_energy>
2.027

>  <melting_point>
53.54

>  <molecular_refractivity>
46.08

>  <oscillator_strength_1>
0.0081

>  <oscillator_strength_2>
0.0226

>  <oscillator_strength_3>
0.0217

>  <oscillator_strength_4>
0.0021

>  <open_babel_can_smiles>
NCCCCNCC(C)C

>  <mulliken_charges>
30
1   -0.434832
2   -0.454256
3   -0.256482
4   -0.257409
5   -0.148129
6   -0.125129
7   -0.119739
8   -0.081156
9   -0.706374
10   -0.548742
11   0.133846
12   0.160484
13   0.140494
14   0.1467
15   0.138968
16   0.139644
17   0.11531
18   0.116552
19   0.134501
20   0.128036
21   0.128658
22   0.176235
23   0.109909
24   0.12775
25   0.103762
26   0.138313
27   0.12311
28   0.286873
29   0.284574
30   0.298529

>  <lowdin_charges>
30
1   -0.44344
2   -0.449751
3   -0.292808
4   -0.281104
5   -0.21826
6   -0.203315
7   -0.206161
8   -0.122817
9   -0.555368
10   -0.363336
11   0.14516
12   0.153929
13   0.149235
14   0.152533
15   0.146749
16   0.142816
17   0.131578
18   0.134589
19   0.141222
20   0.143781
21   0.136148
22   0.157715
23   0.119449
24   0.138856
25   0.11437
26   0.141563
27   0.137788
28   0.248317
29   0.247379
30   0.253181

$$$$

