PCCDB-ID:  69308
public computational chemistry database (PCCDB) project, http://pccdb.org

 21 21  0  0  0  0  0  0  0  0999 V2000
    1.8186   -0.9613    1.5640 C   0  0  0  0  0  0  0  0  0  0  0  0
    3.1834   -1.6262    1.5560 C   0  0  0  0  0  0  0  0  0  0  0  0
    7.3551   -2.4668    1.5655 C   0  0  0  0  0  0  0  0  0  0  0  0
    8.2607   -1.4120    1.5840 C   0  0  0  0  0  0  0  0  0  0  0  0
    5.9751   -2.2385    1.5614 C   0  0  0  0  0  0  0  0  0  0  0  0
    6.3815    0.1506    1.5967 C   0  0  0  0  0  0  0  0  0  0  0  0
    7.7428   -0.1160    1.5992 C   0  0  0  0  0  0  0  0  0  0  0  0
    5.4832   -0.9252    1.5777 C   0  0  0  0  0  0  0  0  0  0  0  0
    8.6793    1.0235    1.6183 N   0  0  0  0  0  0  0  0  0  0  0  0
    9.8837    0.7708    1.6196 O   0  0  0  0  0  0  0  0  0  0  0  0
    8.2038    2.1582    1.6316 O   0  0  0  0  0  0  0  0  0  0  0  0
    4.1669   -0.5877    1.5764 O   0  0  0  0  0  0  0  0  0  0  0  0
    1.0314   -1.7224    1.5457 H   0  0  0  0  0  0  0  0  0  0  0  0
    1.6992   -0.3160    0.6884 H   0  0  0  0  0  0  0  0  0  0  0  0
    1.6923   -0.3512    2.4635 H   0  0  0  0  0  0  0  0  0  0  0  0
    3.3160   -2.2438    0.6563 H   0  0  0  0  0  0  0  0  0  0  0  0
    3.3111   -2.2743    2.4345 H   0  0  0  0  0  0  0  0  0  0  0  0
    7.7219   -3.4889    1.5531 H   0  0  0  0  0  0  0  0  0  0  0  0
    9.3314   -1.5676    1.5871 H   0  0  0  0  0  0  0  0  0  0  0  0
    5.2973   -3.0838    1.5450 H   0  0  0  0  0  0  0  0  0  0  0  0
    6.0152    1.1689    1.6084 H   0  0  0  0  0  0  0  0  0  0  0  0
  1 15  1  0  0  0  0
  2  1  1  0  0  0  0
  2 12  1  0  0  0  0
  2 17  1  0  0  0  0
  3  4  1  0  0  0  0
  4 19  1  0  0  0  0
  4  7  2  0  0  0  0
  5  3  2  0  0  0  0
  5  8  1  0  0  0  0
  6  7  1  0  0  0  0
  6 21  1  0  0  0  0
  7  9  1  0  0  0  0
  8  6  2  0  0  0  0
  9 10  2  0  0  0  0
  9 11  2  0  0  0  0
 12  8  1  0  0  0  0
 13  1  1  0  0  0  0
 14  1  1  0  0  0  0
 16  2  1  0  0  0  0
 18  3  1  0  0  0  0
 20  5  1  0  0  0  0
M  END
>  <HBA>
1

>  <HBD>
0

>  <TPSA>
55.05

>  <cid>
69308

>  <dipole>
6.13

>  <excitation_energy_1>
3.508

>  <excitation_energy_2>
3.741

>  <excitation_energy_3>
4.269

>  <excitation_energy_4>
4.627

>  <homo_energy>
-6.577

>  <homo_lumo_gap>
4.28

>  <logP>
2.517

>  <lumo_energy>
-2.297

>  <melting_point>
47.55

>  <molecular_refractivity>
46.56

>  <oscillator_strength_1>
0.0253

>  <oscillator_strength_2>
0.0

>  <oscillator_strength_3>
0.0003

>  <oscillator_strength_4>
0.1528

>  <open_babel_can_smiles>
CCOc1cccc(c1)N(=O)=O

>  <mulliken_charges>
21
1   -0.458563
2   -0.036095
3   -0.146108
4   -0.154382
5   -0.17842
6   -0.213318
7   0.275667
8   0.387972
9   0.379238
10   -0.393194
11   -0.392825
12   -0.514182
13   0.153324
14   0.16878
15   0.168712
16   0.145825
17   0.145791
18   0.148181
19   0.178199
20   0.147088
21   0.18831

>  <lowdin_charges>
21
1   -0.44814
2   -0.124379
3   -0.137738
4   -0.160418
5   -0.194794
6   -0.162456
7   0.011036
8   0.109452
9   0.305684
10   -0.244131
11   -0.244402
12   -0.195023
13   0.160641
14   0.163302
15   0.163143
16   0.141135
17   0.141235
18   0.166462
19   0.18489
20   0.170218
21   0.194284

$$$$

