PCCDB-ID:  69306
public computational chemistry database (PCCDB) project, http://pccdb.org

 20 20  0  0  0  0  0  0  0  0999 V2000
    1.7739    0.6690    1.7806 C   0  0  0  0  0  0  0  0  0  0  0  0
    3.2914    0.7219    1.8184 C   0  0  0  0  0  0  0  0  0  0  0  0
    6.8737   -2.4345    1.2085 C   0  0  0  0  0  0  0  0  0  0  0  0
    7.8464   -1.4511    1.4162 C   0  0  0  0  0  0  0  0  0  0  0  0
    5.5202   -2.1297    1.2601 C   0  0  0  0  0  0  0  0  0  0  0  0
    6.0766    0.1882    1.7366 C   0  0  0  0  0  0  0  0  0  0  0  0
    7.4361   -0.1435    1.6795 C   0  0  0  0  0  0  0  0  0  0  0  0
    5.1210   -0.8088    1.5259 C   0  0  0  0  0  0  0  0  0  0  0  0
    8.3217    0.8789    1.8950 O   0  0  0  0  0  0  0  0  0  0  0  0
    3.7741   -0.5954    1.5593 O   0  0  0  0  0  0  0  0  0  0  0  0
    1.3580    1.6639    1.9731 H   0  0  0  0  0  0  0  0  0  0  0  0
    1.3925   -0.0200    2.5407 H   0  0  0  0  0  0  0  0  0  0  0  0
    1.4239    0.3296    0.8007 H   0  0  0  0  0  0  0  0  0  0  0  0
    3.6475    1.0634    2.8009 H   0  0  0  0  0  0  0  0  0  0  0  0
    3.6787    1.4176    1.0604 H   0  0  0  0  0  0  0  0  0  0  0  0
    7.1846   -3.4554    1.0032 H   0  0  0  0  0  0  0  0  0  0  0  0
    8.9049   -1.6984    1.3735 H   0  0  0  0  0  0  0  0  0  0  0  0
    4.7575   -2.8842    1.1005 H   0  0  0  0  0  0  0  0  0  0  0  0
    5.8080    1.2161    1.9453 H   0  0  0  0  0  0  0  0  0  0  0  0
    9.2229    0.5265    1.8332 H   0  0  0  0  0  0  0  0  0  0  0  0
  1  2  1  0  0  0  0
  1 11  1  0  0  0  0
  1 12  1  0  0  0  0
  2 14  1  0  0  0  0
  3  5  2  0  0  0  0
  3  4  1  0  0  0  0
  4  7  2  0  0  0  0
  5  8  1  0  0  0  0
  6 19  1  0  0  0  0
  7  6  1  0  0  0  0
  7  9  1  0  0  0  0
  8 10  1  0  0  0  0
  8  6  2  0  0  0  0
 10  2  1  0  0  0  0
 13  1  1  0  0  0  0
 15  2  1  0  0  0  0
 16  3  1  0  0  0  0
 17  4  1  0  0  0  0
 18  5  1  0  0  0  0
 20  9  1  0  0  0  0
M  END
>  <HBA>
2

>  <HBD>
1

>  <TPSA>
29.46

>  <cid>
69306

>  <dipole>
0.67

>  <excitation_energy_1>
5.01

>  <excitation_energy_2>
5.013

>  <excitation_energy_3>
5.631

>  <excitation_energy_4>
5.665

>  <homo_energy>
-5.627

>  <homo_lumo_gap>
5.951

>  <logP>
1.791

>  <lumo_energy>
0.324

>  <melting_point>
48.73

>  <molecular_refractivity>
39.76

>  <oscillator_strength_1>
0.0332

>  <oscillator_strength_2>
0.0008

>  <oscillator_strength_3>
0.0049

>  <oscillator_strength_4>
0.071

>  <open_babel_can_smiles>
CCOc1cccc(c1)O

>  <mulliken_charges>
20
1   -0.456733
2   -0.028276
3   -0.136601
4   -0.204324
5   -0.180474
6   -0.241043
7   0.350022
8   0.382254
9   -0.645452
10   -0.519409
11   0.147864
12   0.163024
13   0.163045
14   0.142298
15   0.14243
16   0.129989
17   0.112051
18   0.131584
19   0.140839
20   0.406912

>  <lowdin_charges>
20
1   -0.447653
2   -0.124447
3   -0.13611
4   -0.238152
5   -0.208525
6   -0.244546
7   0.110693
8   0.114405
9   -0.379721
10   -0.202073
11   0.156391
12   0.16068
13   0.159426
14   0.138692
15   0.140375
16   0.157994
17   0.149884
18   0.166005
19   0.16999
20   0.356692

$$$$

