PCCDB-ID:  68562
public computational chemistry database (PCCDB) project, http://pccdb.org

 16 15  0  0  0  0  0  0  0  0999 V2000
    0.4488   -0.1775    0.2121 C   0  0  0  0  0  0  0  0  0  0  0  0
    2.3628   -1.3422   -0.7376 C   0  0  0  0  0  0  0  0  0  0  0  0
    2.0848    1.0886   -1.0508 C   0  0  0  0  0  0  0  0  0  0  0  0
    1.8345   -0.0711   -0.2516 N   0  0  0  0  0  0  0  0  0  0  0  0
    2.5317   -2.2584    0.3215 O   0  0  0  0  0  0  0  0  0  0  0  0
    3.8711    1.5749   -1.1030 S   0  0  0  0  0  0  0  0  0  0  0  0
    1.4651    1.0862   -2.8347 S   0  0  0  0  0  0  0  0  0  0  0  0
    0.3745   -1.0573    0.8542 H   0  0  0  0  0  0  0  0  0  0  0  0
   -0.2662   -0.2805   -0.6201 H   0  0  0  0  0  0  0  0  0  0  0  0
    0.1842    0.7081    0.7992 H   0  0  0  0  0  0  0  0  0  0  0  0
    3.3066   -1.1360   -1.2571 H   0  0  0  0  0  0  0  0  0  0  0  0
    1.6710   -1.8342   -1.4357 H   0  0  0  0  0  0  0  0  0  0  0  0
    1.5192    1.9171   -0.6206 H   0  0  0  0  0  0  0  0  0  0  0  0
    3.1314   -1.8382    0.9598 H   0  0  0  0  0  0  0  0  0  0  0  0
    4.0886    1.4065    0.2223 H   0  0  0  0  0  0  0  0  0  0  0  0
    2.3851    0.2190   -3.3103 H   0  0  0  0  0  0  0  0  0  0  0  0
  1 10  1  0  0  0  0
  1  8  1  0  0  0  0
  2  4  1  0  0  0  0
  2  5  1  0  0  0  0
  3 13  1  0  0  0  0
  3  4  1  0  0  0  0
  4  1  1  0  0  0  0
  5 14  1  0  0  0  0
  6  3  1  0  0  0  0
  6 15  1  0  0  0  0
  7  3  1  0  0  0  0
  9  1  1  0  0  0  0
 11  2  1  0  0  0  0
 12  2  1  0  0  0  0
 16  7  1  0  0  0  0
M  END
>  <HBA>
4

>  <HBD>
3

>  <TPSA>
101.07

>  <cid>
68562

>  <dipole>
1.83

>  <excitation_energy_1>
5.059

>  <excitation_energy_2>
5.297

>  <excitation_energy_3>
5.444

>  <excitation_energy_4>
5.571

>  <homo_energy>
-6.46

>  <homo_lumo_gap>
6.31

>  <logP>
0.011

>  <lumo_energy>
-0.15

>  <melting_point>
37.2

>  <molecular_refractivity>
36.45

>  <oscillator_strength_1>
0.0037

>  <oscillator_strength_2>
0.0011

>  <oscillator_strength_3>
0.0078

>  <oscillator_strength_4>
0.0507

>  <open_babel_can_smiles>
OCN(C(S)S)C

>  <mulliken_charges>
16
1   -0.327173
2   0.074881
3   -0.265243
4   -0.360703
5   -0.602798
6   -0.044857
7   -0.076049
8   0.182768
9   0.159822
10   0.1543
11   0.155476
12   0.150564
13   0.209125
14   0.388941
15   0.096532
16   0.104413

>  <lowdin_charges>
16
1   -0.3643
2   -0.084265
3   -0.249245
4   -0.185923
5   -0.452553
6   -0.07051
7   -0.106068
8   0.169378
9   0.146495
10   0.153509
11   0.144633
12   0.14174
13   0.178483
14   0.343959
15   0.112296
16   0.122371

$$$$

