PCCDB-ID:  20042
public computational chemistry database (PCCDB) project, http://pccdb.org

 29 29  0  0  0  0  0  0  0  0999 V2000
    0.9970    0.1582   -0.0139 C   0  0  0  0  0  0  0  0  0  0  0  0
    2.9148   -0.7249   -1.4010 C   0  0  0  0  0  0  0  0  0  0  0  0
    3.2010    1.3496   -0.0262 C   0  0  0  0  0  0  0  0  0  0  0  0
    3.8640   -0.5041    2.0872 C   0  0  0  0  0  0  0  0  0  0  0  0
    2.4670   -2.2271    1.2367 C   0  0  0  0  0  0  0  0  0  0  0  0
    2.9725   -0.9223    1.1065 C   0  0  0  0  0  0  0  0  0  0  0  0
    4.2339   -1.3407    3.1487 C   0  0  0  0  0  0  0  0  0  0  0  0
    2.8415   -3.0726    2.2702 C   0  0  0  0  0  0  0  0  0  0  0  0
    3.7418   -2.6659    3.2852 C   0  0  0  0  0  0  0  0  0  0  0  0
    2.5311   -0.0362   -0.0697 C   0  0  0  0  0  0  0  0  0  0  0  0
    5.1565   -0.7982    4.1314 N   0  0  0  0  0  0  0  0  0  0  0  0
    2.2644   -4.4274    2.2613 N   0  0  0  0  0  0  0  0  0  0  0  0
    4.0477   -3.4728    4.2904 O   0  0  0  0  0  0  0  0  0  0  0  0
    5.5868    0.3383    3.9830 O   0  0  0  0  0  0  0  0  0  0  0  0
    5.4805   -1.5175    5.1042 O   0  0  0  0  0  0  0  0  0  0  0  0
    1.1841   -4.5653    1.6829 O   0  0  0  0  0  0  0  0  0  0  0  0
    2.8960   -5.3301    2.7979 O   0  0  0  0  0  0  0  0  0  0  0  0
    0.6660    0.7827   -0.8516 H   0  0  0  0  0  0  0  0  0  0  0  0
    0.6954    0.6508    0.9172 H   0  0  0  0  0  0  0  0  0  0  0  0
    0.4586   -0.7936   -0.0793 H   0  0  0  0  0  0  0  0  0  0  0  0
    2.5938   -0.1094   -2.2492 H   0  0  0  0  0  0  0  0  0  0  0  0
    2.4400   -1.7062   -1.5070 H   0  0  0  0  0  0  0  0  0  0  0  0
    3.9990   -0.8657   -1.4747 H   0  0  0  0  0  0  0  0  0  0  0  0
    2.8639    1.9454   -0.8809 H   0  0  0  0  0  0  0  0  0  0  0  0
    4.2932    1.2795   -0.0855 H   0  0  0  0  0  0  0  0  0  0  0  0
    2.9391    1.9025    0.8831 H   0  0  0  0  0  0  0  0  0  0  0  0
    4.3021    0.4844    2.0728 H   0  0  0  0  0  0  0  0  0  0  0  0
    1.7543   -2.6232    0.5233 H   0  0  0  0  0  0  0  0  0  0  0  0
    4.6615   -2.9639    4.8813 H   0  0  0  0  0  0  0  0  0  0  0  0
  1 19  1  0  0  0  0
  2 10  1  0  0  0  0
  3 26  1  0  0  0  0
  4  7  2  0  0  0  0
  5  8  1  0  0  0  0
  6  5  2  0  0  0  0
  6  4  1  0  0  0  0
  7  9  1  0  0  0  0
  7 11  1  0  0  0  0
  8  9  2  0  0  0  0
  9 13  1  0  0  0  0
 10  3  1  0  0  0  0
 10  1  1  0  0  0  0
 10  6  1  0  0  0  0
 11 15  2  0  0  0  0
 12  8  1  0  0  0  0
 12 17  2  0  0  0  0
 13 29  1  0  0  0  0
 14 11  2  0  0  0  0
 16 12  2  0  0  0  0
 18  1  1  0  0  0  0
 20  1  1  0  0  0  0
 21  2  1  0  0  0  0
 22  2  1  0  0  0  0
 23  2  1  0  0  0  0
 24  3  1  0  0  0  0
 25  3  1  0  0  0  0
 27  4  1  0  0  0  0
 28  5  1  0  0  0  0
M  END
>  <HBA>
1

>  <HBD>
1

>  <TPSA>
111.87

>  <cid>
20042

>  <dipole>
4.94

>  <excitation_energy_1>
3.358

>  <excitation_energy_2>
3.672

>  <excitation_energy_3>
3.848

>  <excitation_energy_4>
4.034

>  <homo_energy>
-7.206

>  <homo_lumo_gap>
3.995

>  <logP>
3.553

>  <lumo_energy>
-3.211

>  <melting_point>
132.68

>  <molecular_refractivity>
65.38

>  <oscillator_strength_1>
0.0949

>  <oscillator_strength_2>
0.0031

>  <oscillator_strength_3>
0.0018

>  <oscillator_strength_4>
0.0146

>  <open_babel_can_smiles>
O=N(=O)c1cc(cc(c1O)N(=O)=O)C(C)(C)C

>  <mulliken_charges>
29
1   -0.445732
2   -0.445056
3   -0.461989
4   -0.236534
5   -0.204687
6   0.172921
7   0.251769
8   0.245141
9   0.313548
10   0.008897
11   0.397593
12   0.364665
13   -0.599291
14   -0.379076
15   -0.447128
16   -0.390653
17   -0.35749
18   0.151369
19   0.153198
20   0.15321
21   0.151773
22   0.150074
23   0.152996
24   0.153894
25   0.152564
26   0.152642
27   0.19326
28   0.191844
29   0.45628

>  <lowdin_charges>
29
1   -0.441075
2   -0.438248
3   -0.443944
4   -0.127215
5   -0.108113
6   -0.009184
7   -0.051456
8   -0.022236
9   0.131114
10   0.016714
11   0.319207
12   0.308933
13   -0.316964
14   -0.217688
15   -0.279234
16   -0.251241
17   -0.216131
18   0.15513
19   0.154905
20   0.153094
21   0.155204
22   0.151308
23   0.152677
24   0.158847
25   0.151231
26   0.153614
27   0.193708
28   0.191861
29   0.375181

$$$$

