PCCDB-ID:  59238
public computational chemistry database (PCCDB) project, http://pccdb.org

 36 37  0  0  0  0  0  0  0  0999 V2000
    2.4439    1.1603    1.3730 C   0  0  0  0  0  0  0  0  0  0  0  0
    2.4945   -0.5447   -0.5048 C   0  0  0  0  0  0  0  0  0  0  0  0
    4.2382   -6.2120    3.7984 C   0  0  0  0  0  0  0  0  0  0  0  0
    3.1249   -5.4026    4.0191 C   0  0  0  0  0  0  0  0  0  0  0  0
    7.2997   -2.6455    2.4445 C   0  0  0  0  0  0  0  0  0  0  0  0
    5.5011   -5.6338    3.6552 C   0  0  0  0  0  0  0  0  0  0  0  0
    7.0709   -3.6439    3.6025 C   0  0  0  0  0  0  0  0  0  0  0  0
    3.2824   -4.0172    4.0877 C   0  0  0  0  0  0  0  0  0  0  0  0
    6.6116   -1.2714    2.6056 C   0  0  0  0  0  0  0  0  0  0  0  0
    2.9060   -1.2803    1.8961 C   0  0  0  0  0  0  0  0  0  0  0  0
    2.1630   -0.2947    0.9730 C   0  0  0  0  0  0  0  0  0  0  0  0
    5.6799   -4.2469    3.7181 C   0  0  0  0  0  0  0  0  0  0  0  0
    4.5428   -3.4405    3.9317 C   0  0  0  0  0  0  0  0  0  0  0  0
    5.1153   -1.4187    2.7495 C   0  0  0  0  0  0  0  0  0  0  0  0
    4.3480   -1.1159    1.7830 N   0  0  0  0  0  0  0  0  0  0  0  0
    4.6735   -1.9965    3.9957 N   0  0  0  0  0  0  0  0  0  0  0  0
    1.8886    1.8599    0.7371 H   0  0  0  0  0  0  0  0  0  0  0  0
    3.5119    1.3855    1.2740 H   0  0  0  0  0  0  0  0  0  0  0  0
    2.1554    1.3503    2.4145 H   0  0  0  0  0  0  0  0  0  0  0  0
    1.9429    0.1448   -1.1552 H   0  0  0  0  0  0  0  0  0  0  0  0
    2.2334   -1.5680   -0.8029 H   0  0  0  0  0  0  0  0  0  0  0  0
    3.5655   -0.4074   -0.6854 H   0  0  0  0  0  0  0  0  0  0  0  0
    4.1283   -7.2915    3.7402 H   0  0  0  0  0  0  0  0  0  0  0  0
    2.1391   -5.8437    4.1385 H   0  0  0  0  0  0  0  0  0  0  0  0
    6.9659   -3.1004    1.5039 H   0  0  0  0  0  0  0  0  0  0  0  0
    8.3803   -2.4770    2.3505 H   0  0  0  0  0  0  0  0  0  0  0  0
    6.3678   -6.2713    3.4940 H   0  0  0  0  0  0  0  0  0  0  0  0
    7.3359   -3.1474    4.5503 H   0  0  0  0  0  0  0  0  0  0  0  0
    7.7869   -4.4663    3.4915 H   0  0  0  0  0  0  0  0  0  0  0  0
    2.4342   -3.3641    4.2666 H   0  0  0  0  0  0  0  0  0  0  0  0
    6.8247   -0.6444    1.7355 H   0  0  0  0  0  0  0  0  0  0  0  0
    7.0232   -0.7642    3.4924 H   0  0  0  0  0  0  0  0  0  0  0  0
    2.6464   -2.3081    1.6019 H   0  0  0  0  0  0  0  0  0  0  0  0
    2.5712   -1.1567    2.9374 H   0  0  0  0  0  0  0  0  0  0  0  0
    1.0895   -0.4881    1.1210 H   0  0  0  0  0  0  0  0  0  0  0  0
    5.3457   -1.7594    4.7249 H   0  0  0  0  0  0  0  0  0  0  0  0
  1 19  1  0  0  0  0
  2 11  1  0  0  0  0
  3  4  2  0  0  0  0
  4  8  1  0  0  0  0
  4 24  1  0  0  0  0
  5  9  1  0  0  0  0
  5  7  1  0  0  0  0
  6 12  2  0  0  0  0
  6  3  1  0  0  0  0
  7 12  1  0  0  0  0
  7 28  1  0  0  0  0
  8 30  1  0  0  0  0
  9 14  1  0  0  0  0
  9 32  1  0  0  0  0
 10 34  1  0  0  0  0
 11 35  1  0  0  0  0
 11  1  1  0  0  0  0
 11 10  1  0  0  0  0
 12 13  1  0  0  0  0
 13 16  1  0  0  0  0
 13  8  2  0  0  0  0
 14 16  1  0  0  0  0
 15 10  1  0  0  0  0
 15 14  2  0  0  0  0
 16 36  1  0  0  0  0
 17  1  1  0  0  0  0
 18  1  1  0  0  0  0
 20  2  1  0  0  0  0
 21  2  1  0  0  0  0
 22  2  1  0  0  0  0
 23  3  1  0  0  0  0
 25  5  1  0  0  0  0
 26  5  1  0  0  0  0
 27  6  1  0  0  0  0
 29  7  1  0  0  0  0
 31  9  1  0  0  0  0
 33 10  1  0  0  0  0
M  END
>  <HBA>
2

>  <HBD>
1

>  <TPSA>
24.39

>  <cid>
59238

>  <dipole>
2.56

>  <excitation_energy_1>
4.986

>  <excitation_energy_2>
5.126

>  <excitation_energy_3>
5.275

>  <excitation_energy_4>
5.418

>  <homo_energy>
-6.215

>  <homo_lumo_gap>
6.022

>  <logP>
3.125

>  <lumo_energy>
-0.193

>  <melting_point>
79.17

>  <molecular_refractivity>
73.47

>  <oscillator_strength_1>
0.0046

>  <oscillator_strength_2>
0.0029

>  <oscillator_strength_3>
0.0042

>  <oscillator_strength_4>
0.0355

>  <open_babel_can_smiles>
CC(C/N=C\1/CCCc2c(N1)cccc2)C

>  <mulliken_charges>
36
1   -0.442934
2   -0.441236
3   -0.115197
4   -0.147134
5   -0.254562
6   -0.211055
7   -0.366975
8   -0.135316
9   -0.316071
10   -0.151354
11   -0.068892
12   0.195904
13   0.144902
14   0.410515
15   -0.408416
16   -0.64837
17   0.133703
18   0.154868
19   0.131993
20   0.130851
21   0.130124
22   0.16177
23   0.129955
24   0.132228
25   0.157037
26   0.140739
27   0.125543
28   0.13952
29   0.148432
30   0.140301
31   0.163243
32   0.130024
33   0.14137
34   0.141665
35   0.11282
36   0.310004

>  <lowdin_charges>
36
1   -0.446363
2   -0.446674
3   -0.153513
4   -0.157941
5   -0.268364
6   -0.166591
7   -0.278625
8   -0.159336
9   -0.289083
10   -0.208196
11   -0.121631
12   -0.019732
13   0.031284
14   0.087312
15   -0.186331
16   -0.328023
17   0.146204
18   0.151568
19   0.142696
20   0.144698
21   0.142324
22   0.155145
23   0.156697
24   0.15897
25   0.153115
26   0.146831
27   0.155994
28   0.145298
29   0.155526
30   0.167136
31   0.165194
32   0.142755
33   0.146098
34   0.137743
35   0.131568
36   0.266247

$$$$

