PCCDB-ID:  24312
public computational chemistry database (PCCDB) project, http://pccdb.org

 20 21  0  0  0  0  0  0  0  0999 V2000
    0.9393    0.0873   -0.0867 C   0  0  0  0  0  0  0  0  0  0  0  0
    4.5788    1.2783   -0.0946 C   0  0  0  0  0  0  0  0  0  0  0  0
    3.3188   -3.5696   -0.1407 C   0  0  0  0  0  0  0  0  0  0  0  0
    3.1622    1.2602   -0.0872 C   0  0  0  0  0  0  0  0  0  0  0  0
    2.5478   -2.4302   -0.1228 C   0  0  0  0  0  0  0  0  0  0  0  0
    5.2917    0.1039   -0.1124 C   0  0  0  0  0  0  0  0  0  0  0  0
    4.7280   -3.4371   -0.1495 C   0  0  0  0  0  0  0  0  0  0  0  0
    2.4497    0.0779   -0.0962 C   0  0  0  0  0  0  0  0  0  0  0  0
    3.1744   -1.1570   -0.1140 C   0  0  0  0  0  0  0  0  0  0  0  0
    4.6082   -1.1410   -0.1229 C   0  0  0  0  0  0  0  0  0  0  0  0
    5.3604   -2.2810   -0.1409 N   0  0  0  0  0  0  0  0  0  0  0  0
    0.5575    1.1125   -0.0888 H   0  0  0  0  0  0  0  0  0  0  0  0
    0.5336   -0.4150    0.8009 H   0  0  0  0  0  0  0  0  0  0  0  0
    0.5220   -0.4233   -0.9639 H   0  0  0  0  0  0  0  0  0  0  0  0
    5.0971    2.2334   -0.0860 H   0  0  0  0  0  0  0  0  0  0  0  0
    2.8658   -4.5567   -0.1477 H   0  0  0  0  0  0  0  0  0  0  0  0
    2.6225    2.2042   -0.0740 H   0  0  0  0  0  0  0  0  0  0  0  0
    1.4644   -2.5015   -0.1155 H   0  0  0  0  0  0  0  0  0  0  0  0
    6.3768    0.0844   -0.1186 H   0  0  0  0  0  0  0  0  0  0  0  0
    5.3537   -4.3295   -0.1648 H   0  0  0  0  0  0  0  0  0  0  0  0
  1 13  1  0  0  0  0
  2  4  1  0  0  0  0
  2 15  1  0  0  0  0
  3  5  2  0  0  0  0
  4 17  1  0  0  0  0
  5 18  1  0  0  0  0
  5  9  1  0  0  0  0
  6  2  2  0  0  0  0
  7 11  2  0  0  0  0
  7  3  1  0  0  0  0
  8  4  2  0  0  0  0
  8  1  1  0  0  0  0
  9  8  1  0  0  0  0
 10  9  2  0  0  0  0
 10  6  1  0  0  0  0
 11 10  1  0  0  0  0
 12  1  1  0  0  0  0
 14  1  1  0  0  0  0
 16  3  1  0  0  0  0
 19  6  1  0  0  0  0
 20  7  1  0  0  0  0
M  END
>  <HBA>
1

>  <HBD>
0

>  <TPSA>
12.89

>  <cid>
24312

>  <dipole>
2.35

>  <excitation_energy_1>
4.209

>  <excitation_energy_2>
4.263

>  <excitation_energy_3>
4.453

>  <excitation_energy_4>
5.205

>  <homo_energy>
-6.117

>  <homo_lumo_gap>
4.773

>  <logP>
2.543

>  <lumo_energy>
-1.344

>  <melting_point>
67.99

>  <molecular_refractivity>
46.71

>  <oscillator_strength_1>
0.0613

>  <oscillator_strength_2>
0.0015

>  <oscillator_strength_3>
0.015

>  <oscillator_strength_4>
0.0

>  <open_babel_can_smiles>
Cc1cccc2c1cccn2

>  <mulliken_charges>
20
1   -0.536294
2   -0.13148
3   -0.151249
4   -0.198485
5   -0.153404
6   -0.139942
7   0.044044
8   0.127719
9   0.099332
10   0.234298
11   -0.496889
12   0.159866
13   0.163707
14   0.16336
15   0.133331
16   0.135709
17   0.124897
18   0.139845
19   0.142399
20   0.139236

>  <lowdin_charges>
20
1   -0.44424
2   -0.151778
3   -0.181019
4   -0.168652
5   -0.129989
6   -0.153115
7   -0.087029
8   0.000534
9   -0.025116
10   0.044111
11   -0.150147
12   0.159704
13   0.160947
14   0.160816
15   0.160528
16   0.163201
17   0.156347
18   0.161653
19   0.167259
20   0.155986

$$$$

