PCCDB-ID:  20949
public computational chemistry database (PCCDB) project, http://pccdb.org

 23 23  0  0  0  0  0  0  0  0999 V2000
    3.0286    0.6970    1.9915 C   0  0  0  0  0  0  0  0  0  0  0  0
    2.3885   -1.2427    0.4723 C   0  0  0  0  0  0  0  0  0  0  0  0
    7.3169    2.6210   -0.7453 C   0  0  0  0  0  0  0  0  0  0  0  0
    6.1123    3.3133   -0.6395 C   0  0  0  0  0  0  0  0  0  0  0  0
    7.3245    1.2249   -0.6993 C   0  0  0  0  0  0  0  0  0  0  0  0
    4.9204    2.6027   -0.4766 C   0  0  0  0  0  0  0  0  0  0  0  0
    3.4580   -0.2293    0.8557 C   0  0  0  0  0  0  0  0  0  0  0  0
    6.1332    0.5127   -0.5510 C   0  0  0  0  0  0  0  0  0  0  0  0
    4.9127    1.2086   -0.4258 C   0  0  0  0  0  0  0  0  0  0  0  0
    6.0882   -0.8576   -0.5279 O   0  0  0  0  0  0  0  0  0  0  0  0
    3.7159    0.5433   -0.3460 O   0  0  0  0  0  0  0  0  0  0  0  0
    2.8482    0.1230    2.9080 H   0  0  0  0  0  0  0  0  0  0  0  0
    2.1057    1.2258    1.7269 H   0  0  0  0  0  0  0  0  0  0  0  0
    3.8030    1.4417    2.2043 H   0  0  0  0  0  0  0  0  0  0  0  0
    2.1288   -1.8719    1.3309 H   0  0  0  0  0  0  0  0  0  0  0  0
    2.7472   -1.8844   -0.3379 H   0  0  0  0  0  0  0  0  0  0  0  0
    1.4817   -0.7300    0.1320 H   0  0  0  0  0  0  0  0  0  0  0  0
    8.2532    3.1578   -0.8687 H   0  0  0  0  0  0  0  0  0  0  0  0
    6.0951    4.3984   -0.6812 H   0  0  0  0  0  0  0  0  0  0  0  0
    8.2622    0.6784   -0.7927 H   0  0  0  0  0  0  0  0  0  0  0  0
    3.9665    3.1148   -0.3944 H   0  0  0  0  0  0  0  0  0  0  0  0
    4.3760   -0.7582    1.1341 H   0  0  0  0  0  0  0  0  0  0  0  0
    6.9910   -1.1963   -0.6325 H   0  0  0  0  0  0  0  0  0  0  0  0
  1 14  1  0  0  0  0
  1 12  1  0  0  0  0
  2  7  1  0  0  0  0
  2 15  1  0  0  0  0
  3  5  2  0  0  0  0
  3  4  1  0  0  0  0
  4  6  2  0  0  0  0
  5  8  1  0  0  0  0
  6  9  1  0  0  0  0
  6 21  1  0  0  0  0
  7 22  1  0  0  0  0
  7  1  1  0  0  0  0
  8 10  1  0  0  0  0
  8  9  2  0  0  0  0
  9 11  1  0  0  0  0
 11  7  1  0  0  0  0
 13  1  1  0  0  0  0
 16  2  1  0  0  0  0
 17  2  1  0  0  0  0
 18  3  1  0  0  0  0
 19  4  1  0  0  0  0
 20  5  1  0  0  0  0
 23 10  1  0  0  0  0
M  END
>  <HBA>
2

>  <HBD>
1

>  <TPSA>
29.46

>  <cid>
20949

>  <dipole>
2.05

>  <excitation_energy_1>
4.975

>  <excitation_energy_2>
5.052

>  <excitation_energy_3>
5.613

>  <excitation_energy_4>
5.666

>  <homo_energy>
-5.758

>  <homo_lumo_gap>
5.919

>  <logP>
2.179

>  <lumo_energy>
0.161

>  <melting_point>
48.07

>  <molecular_refractivity>
44.57

>  <oscillator_strength_1>
0.0459

>  <oscillator_strength_2>
0.0004

>  <oscillator_strength_3>
0.04

>  <oscillator_strength_4>
0.005

>  <open_babel_can_smiles>
CC(Oc1ccccc1O)C

>  <mulliken_charges>
23
1   -0.451978
2   -0.451171
3   -0.133622
4   -0.142348
5   -0.20043
6   -0.180288
7   0.138282
8   0.310881
9   0.343224
10   -0.643127
11   -0.545619
12   0.140669
13   0.148412
14   0.15368
15   0.138984
16   0.161761
17   0.151408
18   0.127545
19   0.127072
20   0.117064
21   0.135516
22   0.145888
23   0.408196

>  <lowdin_charges>
23
1   -0.459269
2   -0.449008
3   -0.158865
4   -0.171064
5   -0.211656
6   -0.171574
7   0.01503
8   0.078903
9   0.068519
10   -0.378375
11   -0.226905
12   0.152662
13   0.152329
14   0.157163
15   0.15216
16   0.161714
17   0.154484
18   0.158286
19   0.155908
20   0.152571
21   0.165854
22   0.143858
23   0.357276

$$$$

