PCCDB-ID:  7580
public computational chemistry database (PCCDB) project, http://pccdb.org

 25 26  0  0  0  0  0  0  0  0999 V2000
   -2.0788   -0.7726    0.0946 C   0  0  0  0  0  0  0  0  0  0  0  0
    4.1643   -4.6073    0.3217 C   0  0  0  0  0  0  0  0  0  0  0  0
   -1.4386   -1.6178   -0.8159 C   0  0  0  0  0  0  0  0  0  0  0  0
   -1.3162    0.0702    0.9024 C   0  0  0  0  0  0  0  0  0  0  0  0
    4.3494   -3.8977   -0.8641 C   0  0  0  0  0  0  0  0  0  0  0  0
    3.3516   -4.0717    1.3248 C   0  0  0  0  0  0  0  0  0  0  0  0
   -0.0484   -1.6179   -0.9151 C   0  0  0  0  0  0  0  0  0  0  0  0
    0.0772    0.0675    0.7986 C   0  0  0  0  0  0  0  0  0  0  0  0
    3.7252   -2.6606   -1.0443 C   0  0  0  0  0  0  0  0  0  0  0  0
    2.7299   -2.8382    1.1400 C   0  0  0  0  0  0  0  0  0  0  0  0
    2.2454   -0.7589   -0.2379 C   0  0  0  0  0  0  0  0  0  0  0  0
    0.7298   -0.7727   -0.1104 C   0  0  0  0  0  0  0  0  0  0  0  0
    2.9094   -2.1136   -0.0475 C   0  0  0  0  0  0  0  0  0  0  0  0
   -3.1627   -0.7739    0.1735 H   0  0  0  0  0  0  0  0  0  0  0  0
    4.6467   -5.5705    0.4648 H   0  0  0  0  0  0  0  0  0  0  0  0
   -2.0243   -2.2794   -1.4490 H   0  0  0  0  0  0  0  0  0  0  0  0
   -1.8027    0.7302    1.6161 H   0  0  0  0  0  0  0  0  0  0  0  0
    4.9770   -4.3053   -1.6525 H   0  0  0  0  0  0  0  0  0  0  0  0
    3.2004   -4.6182    2.2523 H   0  0  0  0  0  0  0  0  0  0  0  0
    0.4432   -2.2850   -1.6191 H   0  0  0  0  0  0  0  0  0  0  0  0
    0.6654    0.7300    1.4302 H   0  0  0  0  0  0  0  0  0  0  0  0
    3.8766   -2.1107   -1.9709 H   0  0  0  0  0  0  0  0  0  0  0  0
    2.0916   -2.4321    1.9212 H   0  0  0  0  0  0  0  0  0  0  0  0
    2.6523   -0.0476    0.4930 H   0  0  0  0  0  0  0  0  0  0  0  0
    2.5240   -0.3683   -1.2256 H   0  0  0  0  0  0  0  0  0  0  0  0
  1 14  1  0  0  0  0
  1  4  2  0  0  0  0
  2 15  1  0  0  0  0
  2  6  2  0  0  0  0
  3  1  1  0  0  0  0
  4 17  1  0  0  0  0
  5  2  1  0  0  0  0
  6 19  1  0  0  0  0
  7  3  2  0  0  0  0
  7 12  1  0  0  0  0
  8  4  1  0  0  0  0
  8 21  1  0  0  0  0
  9  5  2  0  0  0  0
  9 13  1  0  0  0  0
 10  6  1  0  0  0  0
 10 23  1  0  0  0  0
 11 12  1  0  0  0  0
 11 13  1  0  0  0  0
 11 24  1  0  0  0  0
 12  8  2  0  0  0  0
 13 10  2  0  0  0  0
 16  3  1  0  0  0  0
 18  5  1  0  0  0  0
 20  7  1  0  0  0  0
 22  9  1  0  0  0  0
 25 11  1  0  0  0  0
M  END
>  <HBA>
0

>  <HBD>
0

>  <TPSA>
0.0

>  <cid>
7580

>  <dipole>
0.08

>  <excitation_energy_1>
5.173

>  <excitation_energy_2>
5.294

>  <excitation_energy_3>
5.489

>  <excitation_energy_4>
5.604

>  <homo_energy>
-6.286

>  <homo_lumo_gap>
6.231

>  <logP>
3.277

>  <lumo_energy>
-0.054

>  <melting_point>
37.54

>  <molecular_refractivity>
55.9

>  <oscillator_strength_1>
0.013

>  <oscillator_strength_2>
0.0014

>  <oscillator_strength_3>
0.0541

>  <oscillator_strength_4>
0.0037

>  <open_babel_can_smiles>
c1ccc(cc1)Cc1ccccc1

>  <mulliken_charges>
25
1   -0.131564
2   -0.131518
3   -0.128813
4   -0.125608
5   -0.125874
6   -0.128615
7   -0.174036
8   -0.197362
9   -0.197229
10   -0.173841
11   -0.440143
12   0.184745
13   0.184587
14   0.127338
15   0.127447
16   0.128649
17   0.127469
18   0.127651
19   0.128663
20   0.131096
21   0.121749
22   0.121908
23   0.13082
24   0.156049
25   0.156431

>  <lowdin_charges>
25
1   -0.159036
2   -0.160115
3   -0.155466
4   -0.156944
5   -0.157036
6   -0.154262
7   -0.161543
8   -0.173592
9   -0.172628
10   -0.161521
11   -0.272242
12   -0.001927
13   -0.001198
14   0.154653
15   0.156282
16   0.158446
17   0.157861
18   0.157787
19   0.157173
20   0.160227
21   0.154774
22   0.153525
23   0.159894
24   0.159117
25   0.157772

$$$$

