PCCDB-ID:  32045
public computational chemistry database (PCCDB) project, http://pccdb.org

 36 35  0  0  0  0  0  0  0  0999 V2000
    5.8815    3.4969    6.5314 C   0  0  0  0  0  0  0  0  0  0  0  0
    1.0407    6.2971    3.4518 C   0  0  0  0  0  0  0  0  0  0  0  0
    6.3545    2.1145    6.0667 C   0  0  0  0  0  0  0  0  0  0  0  0
    2.4527    6.6654    2.9804 C   0  0  0  0  0  0  0  0  0  0  0  0
    5.2155    1.1527    5.6855 C   0  0  0  0  0  0  0  0  0  0  0  0
    3.0662    5.6791    1.9729 C   0  0  0  0  0  0  0  0  0  0  0  0
    4.3413    1.5810    4.4925 C   0  0  0  0  0  0  0  0  0  0  0  0
    3.3376    4.2751    2.5341 C   0  0  0  0  0  0  0  0  0  0  0  0
    5.0972    1.6470    3.1564 C   0  0  0  0  0  0  0  0  0  0  0  0
    4.0482    3.3675    1.5219 C   0  0  0  0  0  0  0  0  0  0  0  0
    4.2164    1.8910    1.9191 C   0  0  0  0  0  0  0  0  0  0  0  0
    4.8509    1.1803    0.8461 O   0  0  0  0  0  0  0  0  0  0  0  0
    6.7274    4.1191    6.8456 H   0  0  0  0  0  0  0  0  0  0  0  0
    5.1956    3.4133    7.3842 H   0  0  0  0  0  0  0  0  0  0  0  0
    5.3549    4.0397    5.7377 H   0  0  0  0  0  0  0  0  0  0  0  0
    0.6365    7.0644    4.1219 H   0  0  0  0  0  0  0  0  0  0  0  0
    1.0243    5.3462    3.9960 H   0  0  0  0  0  0  0  0  0  0  0  0
    0.3533    6.2041    2.6011 H   0  0  0  0  0  0  0  0  0  0  0  0
    6.9405    1.6515    6.8723 H   0  0  0  0  0  0  0  0  0  0  0  0
    7.0480    2.2293    5.2228 H   0  0  0  0  0  0  0  0  0  0  0  0
    3.1181    6.7520    3.8514 H   0  0  0  0  0  0  0  0  0  0  0  0
    2.4246    7.6622    2.5203 H   0  0  0  0  0  0  0  0  0  0  0  0
    4.5658    1.0149    6.5620 H   0  0  0  0  0  0  0  0  0  0  0  0
    5.6459    0.1647    5.4676 H   0  0  0  0  0  0  0  0  0  0  0  0
    4.0114    6.0976    1.5993 H   0  0  0  0  0  0  0  0  0  0  0  0
    2.4036    5.5984    1.0976 H   0  0  0  0  0  0  0  0  0  0  0  0
    3.8600    2.5406    4.7153 H   0  0  0  0  0  0  0  0  0  0  0  0
    3.5230    0.8540    4.3915 H   0  0  0  0  0  0  0  0  0  0  0  0
    2.3936    3.8073    2.8453 H   0  0  0  0  0  0  0  0  0  0  0  0
    3.9489    4.3697    3.4420 H   0  0  0  0  0  0  0  0  0  0  0  0
    5.6001    0.6852    2.9938 H   0  0  0  0  0  0  0  0  0  0  0  0
    5.8890    2.4071    3.1874 H   0  0  0  0  0  0  0  0  0  0  0  0
    5.0454    3.7684    1.2930 H   0  0  0  0  0  0  0  0  0  0  0  0
    3.4813    3.3973    0.5770 H   0  0  0  0  0  0  0  0  0  0  0  0
    3.2182    1.4546    2.1037 H   0  0  0  0  0  0  0  0  0  0  0  0
    4.3530    1.3696    0.0350 H   0  0  0  0  0  0  0  0  0  0  0  0
  1 13  1  0  0  0  0
  1 14  1  0  0  0  0
  2 17  1  0  0  0  0
  2 16  1  0  0  0  0
  3  1  1  0  0  0  0
  3 19  1  0  0  0  0
  4  2  1  0  0  0  0
  4 21  1  0  0  0  0
  5  3  1  0  0  0  0
  5 23  1  0  0  0  0
  6  8  1  0  0  0  0
  6  4  1  0  0  0  0
  7 27  1  0  0  0  0
  7  5  1  0  0  0  0
  8 29  1  0  0  0  0
  8 30  1  0  0  0  0
  9 32  1  0  0  0  0
  9  7  1  0  0  0  0
 10 11  1  0  0  0  0
 10  8  1  0  0  0  0
 11 35  1  0  0  0  0
 11  9  1  0  0  0  0
 12 11  1  0  0  0  0
 15  1  1  0  0  0  0
 18  2  1  0  0  0  0
 20  3  1  0  0  0  0
 22  4  1  0  0  0  0
 24  5  1  0  0  0  0
 25  6  1  0  0  0  0
 26  6  1  0  0  0  0
 28  7  1  0  0  0  0
 31  9  1  0  0  0  0
 33 10  1  0  0  0  0
 34 10  1  0  0  0  0
 36 12  1  0  0  0  0
M  END
>  <HBA>
1

>  <HBD>
1

>  <TPSA>
20.23

>  <cid>
32045

>  <dipole>
1.54

>  <excitation_energy_1>
6.323

>  <excitation_energy_2>
6.881

>  <excitation_energy_3>
7.057

>  <excitation_energy_4>
7.136

>  <homo_energy>
-6.963

>  <homo_lumo_gap>
8.882

>  <logP>
3.508

>  <lumo_energy>
1.918

>  <melting_point>
-11.27

>  <molecular_refractivity>
56.15

>  <oscillator_strength_1>
0.0053

>  <oscillator_strength_2>
0.0022

>  <oscillator_strength_3>
0.0189

>  <oscillator_strength_4>
0.0043

>  <open_babel_can_smiles>
CCCCCC(CCCCC)O

>  <mulliken_charges>
36
1   -0.447788
2   -0.443524
3   -0.251039
4   -0.249544
5   -0.251907
6   -0.250135
7   -0.273292
8   -0.269278
9   -0.272616
10   -0.284898
11   0.158722
12   -0.639657
13   0.142036
14   0.14052
15   0.146291
16   0.14311
17   0.146115
18   0.140193
19   0.131154
20   0.137126
21   0.130299
22   0.131764
23   0.125219
24   0.129329
25   0.129687
26   0.126127
27   0.138413
28   0.130335
29   0.134572
30   0.142462
31   0.153964
32   0.135459
33   0.140659
34   0.112683
35   0.10431
36   0.383129

>  <lowdin_charges>
36
1   -0.450354
2   -0.448891
3   -0.277593
4   -0.272973
5   -0.275888
6   -0.275429
7   -0.282266
8   -0.280685
9   -0.285249
10   -0.290487
11   0.002054
12   -0.471039
13   0.150609
14   0.146184
15   0.14597
16   0.151397
17   0.146965
18   0.146121
19   0.143434
20   0.141356
21   0.139336
22   0.141669
23   0.139751
24   0.140222
25   0.141348
26   0.137055
27   0.140769
28   0.141843
29   0.14069
30   0.14171
31   0.156437
32   0.143558
33   0.144646
34   0.132023
35   0.118001
36   0.337705

$$$$

