PCCDB-ID:  7169
public computational chemistry database (PCCDB) project, http://pccdb.org

 25 26  0  0  0  0  0  0  0  0999 V2000
   -0.3746   -3.6564    0.6999 C   0  0  0  0  0  0  0  0  0  0  0  0
    6.4704    2.0108   -1.4752 C   0  0  0  0  0  0  0  0  0  0  0  0
   -0.7266   -2.3739    1.1292 C   0  0  0  0  0  0  0  0  0  0  0  0
    0.8488   -3.8697    0.0602 C   0  0  0  0  0  0  0  0  0  0  0  0
    5.1520    2.3322   -1.8048 C   0  0  0  0  0  0  0  0  0  0  0  0
    6.7465    0.8101   -0.8189 C   0  0  0  0  0  0  0  0  0  0  0  0
    0.1427   -1.3071    0.9184 C   0  0  0  0  0  0  0  0  0  0  0  0
    1.7229   -2.8052   -0.1523 C   0  0  0  0  0  0  0  0  0  0  0  0
    4.1056    1.4662   -1.4852 C   0  0  0  0  0  0  0  0  0  0  0  0
    5.7100   -0.0632   -0.4890 C   0  0  0  0  0  0  0  0  0  0  0  0
    1.3718   -1.5172    0.2771 C   0  0  0  0  0  0  0  0  0  0  0  0
    4.4001    0.2744   -0.8233 C   0  0  0  0  0  0  0  0  0  0  0  0
    2.2546   -0.3349    0.0789 C   0  0  0  0  0  0  0  0  0  0  0  0
    1.9816    0.7946    0.4184 O   0  0  0  0  0  0  0  0  0  0  0  0
    3.4268   -0.6855   -0.5385 O   0  0  0  0  0  0  0  0  0  0  0  0
   -1.0535   -4.4892    0.8633 H   0  0  0  0  0  0  0  0  0  0  0  0
    7.2773    2.6925   -1.7283 H   0  0  0  0  0  0  0  0  0  0  0  0
   -1.6777   -2.2071    1.6271 H   0  0  0  0  0  0  0  0  0  0  0  0
    1.1217   -4.8668   -0.2741 H   0  0  0  0  0  0  0  0  0  0  0  0
    4.9308    3.2650   -2.3161 H   0  0  0  0  0  0  0  0  0  0  0  0
    7.7692    0.5501   -0.5600 H   0  0  0  0  0  0  0  0  0  0  0  0
   -0.1098   -0.3027    1.2417 H   0  0  0  0  0  0  0  0  0  0  0  0
    2.6738   -2.9646   -0.6475 H   0  0  0  0  0  0  0  0  0  0  0  0
    3.0817    1.7138   -1.7356 H   0  0  0  0  0  0  0  0  0  0  0  0
    5.9006   -1.0030    0.0197 H   0  0  0  0  0  0  0  0  0  0  0  0
  1 16  1  0  0  0  0
  1  3  2  0  0  0  0
  2  6  2  0  0  0  0
  3 18  1  0  0  0  0
  4  1  1  0  0  0  0
  5  9  2  0  0  0  0
  5  2  1  0  0  0  0
  6 21  1  0  0  0  0
  6 10  1  0  0  0  0
  7  3  1  0  0  0  0
  7 22  1  0  0  0  0
  8  4  2  0  0  0  0
  8 11  1  0  0  0  0
  9 12  1  0  0  0  0
 10 25  1  0  0  0  0
 11  7  2  0  0  0  0
 12 15  1  0  0  0  0
 12 10  2  0  0  0  0
 13 11  1  0  0  0  0
 13 14  2  0  0  0  0
 15 13  1  0  0  0  0
 17  2  1  0  0  0  0
 19  4  1  0  0  0  0
 20  5  1  0  0  0  0
 23  8  1  0  0  0  0
 24  9  1  0  0  0  0
M  END
>  <HBA>
2

>  <HBD>
0

>  <TPSA>
26.3

>  <cid>
7169

>  <dipole>
1.94

>  <excitation_energy_1>
4.426

>  <excitation_energy_2>
4.659

>  <excitation_energy_3>
4.853

>  <excitation_energy_4>
4.974

>  <homo_energy>
-6.517

>  <homo_lumo_gap>
5.132

>  <logP>
2.906

>  <lumo_energy>
-1.385

>  <melting_point>
70.54

>  <molecular_refractivity>
57.84

>  <oscillator_strength_1>
0.1162

>  <oscillator_strength_2>
0.0024

>  <oscillator_strength_3>
0.0225

>  <oscillator_strength_4>
0.0062

>  <open_babel_can_smiles>
O=C(c1ccccc1)Oc1ccccc1

>  <mulliken_charges>
25
1   -0.116199
2   -0.122375
3   -0.138075
4   -0.136276
5   -0.144966
6   -0.140108
7   -0.150545
8   -0.156503
9   -0.134965
10   -0.162897
11   0.040855
12   0.347947
13   0.587319
14   -0.469969
15   -0.543326
16   0.138789
17   0.13169
18   0.139797
19   0.138251
20   0.136793
21   0.135051
22   0.165271
23   0.159052
24   0.154817
25   0.140574

>  <lowdin_charges>
25
1   -0.139366
2   -0.163334
3   -0.154213
4   -0.155897
5   -0.147787
6   -0.149331
7   -0.128159
8   -0.137182
9   -0.164558
10   -0.170798
11   -0.047272
12   0.102432
13   0.20661
14   -0.248921
15   -0.161008
16   0.162846
17   0.160579
18   0.162298
19   0.161291
20   0.161262
21   0.15977
22   0.177056
23   0.172778
24   0.17388
25   0.167022

$$$$

