PCCDB-ID:  59124
public computational chemistry database (PCCDB) project, http://pccdb.org

 34 35  0  0  1  0  0  0  0  0999 V2000
    0.8050    1.8290    1.1944 C   0  0  0  0  0  0  0  0  0  0  0  0
    2.4465    1.4325    2.8812 C   0  0  0  0  0  0  0  0  0  0  0  0
    7.0161   -2.6405    1.1969 C   0  0  0  0  0  0  0  0  0  0  0  0
    5.6245   -2.8406    1.0411 C   0  0  0  0  0  0  0  0  0  0  0  0
    6.3810    2.1684    0.8905 C   0  0  0  0  0  0  0  0  0  0  0  0
    7.5250   -1.3634    1.1967 C   0  0  0  0  0  0  0  0  0  0  0  0
    7.2095    1.0812    1.0361 C   0  0  0  0  0  0  0  0  0  0  0  0
    4.7713   -1.7691    0.8995 C   0  0  0  0  0  0  0  0  0  0  0  0
    4.9860    1.9845    0.7703 C   0  0  0  0  0  0  0  0  0  0  0  0
    2.5013    0.7418   -0.8546 C   0  0  0  0  0  0  0  0  0  0  0  0
    6.6750   -0.2332    1.0511 C   0  0  0  0  0  0  0  0  0  0  0  0
    5.2555   -0.4283    0.9105 C   0  0  0  0  0  0  0  0  0  0  0  0
    4.4091    0.7263    0.7879 C   0  0  0  0  0  0  0  0  0  0  0  0
    2.8862    0.6273    0.6402 C   0  0  1  0  0  0  0  0  0  0  0  0
    3.1537   -0.3132   -1.6326 N   0  0  0  0  0  0  0  0  0  0  0  0
    2.2332    1.6743    1.4549 N   0  0  0  0  0  0  0  0  0  0  0  0
    0.4028    2.5724    1.8904 H   0  0  0  0  0  0  0  0  0  0  0  0
    0.2267    0.8936    1.3311 H   0  0  0  0  0  0  0  0  0  0  0  0
    0.6258    2.2011    0.1828 H   0  0  0  0  0  0  0  0  0  0  0  0
    2.0315    2.2662    3.4577 H   0  0  0  0  0  0  0  0  0  0  0  0
    3.5151    1.3678    3.0977 H   0  0  0  0  0  0  0  0  0  0  0  0
    1.9664    0.4986    3.2338 H   0  0  0  0  0  0  0  0  0  0  0  0
    7.6780   -3.4952    1.3088 H   0  0  0  0  0  0  0  0  0  0  0  0
    5.2249   -3.8512    1.0260 H   0  0  0  0  0  0  0  0  0  0  0  0
    6.7915    3.1748    0.8768 H   0  0  0  0  0  0  0  0  0  0  0  0
    8.5942   -1.1951    1.3055 H   0  0  0  0  0  0  0  0  0  0  0  0
    8.2844    1.2101    1.1406 H   0  0  0  0  0  0  0  0  0  0  0  0
    3.7158   -1.9535    0.7439 H   0  0  0  0  0  0  0  0  0  0  0  0
    4.3325    2.8481    0.6959 H   0  0  0  0  0  0  0  0  0  0  0  0
    2.7261    1.7703   -1.1904 H   0  0  0  0  0  0  0  0  0  0  0  0
    1.4232    0.5905   -0.9649 H   0  0  0  0  0  0  0  0  0  0  0  0
    2.5450   -0.3670    0.9748 H   0  0  0  0  0  0  0  0  0  0  0  0
    4.1568   -0.1428   -1.6791 H   0  0  0  0  0  0  0  0  0  0  0  0
    2.8111   -0.2888   -2.5909 H   0  0  0  0  0  0  0  0  0  0  0  0
  1 18  1  0  0  0  0
  1 16  1  0  0  0  0
  1 17  1  0  0  0  0
  2 21  1  0  0  0  0
  2 22  1  0  0  0  0
  2 20  1  0  0  0  0
  3 23  1  0  0  0  0
  4  3  2  0  0  0  0
  5  7  2  0  0  0  0
  6  3  1  0  0  0  0
  6 26  1  0  0  0  0
  7 11  1  0  0  0  0
  7 27  1  0  0  0  0
  8 12  2  0  0  0  0
  8  4  1  0  0  0  0
  9 13  2  0  0  0  0
  9  5  1  0  0  0  0
 10 14  1  0  0  0  0
 11  6  2  0  0  0  0
 12 11  1  0  0  0  0
 13 12  1  0  0  0  0
 14 13  1  0  0  0  0
 14 32  1  1  0  0  0
 14 16  1  0  0  0  0
 15 10  1  0  0  0  0
 16  2  1  0  0  0  0
 19  1  1  0  0  0  0
 24  4  1  0  0  0  0
 25  5  1  0  0  0  0
 28  8  1  0  0  0  0
 29  9  1  0  0  0  0
 30 10  1  0  0  0  0
 31 10  1  0  0  0  0
 33 15  1  0  0  0  0
 34 15  1  0  0  0  0
M  END
>  <HBA>
2

>  <HBD>
1

>  <TPSA>
29.26

>  <cid>
59124

>  <dipole>
0.98

>  <excitation_energy_1>
4.058

>  <excitation_energy_2>
4.229

>  <excitation_energy_3>
4.39

>  <excitation_energy_4>
4.799

>  <homo_energy>
-5.565

>  <homo_lumo_gap>
4.689

>  <logP>
3.102

>  <lumo_energy>
-0.876

>  <melting_point>
107.38

>  <molecular_refractivity>
68.94

>  <oscillator_strength_1>
0.0059

>  <oscillator_strength_2>
0.0931

>  <oscillator_strength_3>
0.0013

>  <oscillator_strength_4>
0.0021

>  <open_babel_can_smiles>
NC[C@@H](c1cccc2c1cccc2)N(C)C

>  <mulliken_charges>
34
1   -0.299839
2   -0.303057
3   -0.13163
4   -0.140962
5   -0.133573
6   -0.197382
7   -0.192961
8   -0.18058
9   -0.181869
10   -0.155927
11   0.137368
12   0.065104
13   0.032832
14   0.025419
15   -0.727313
16   -0.39266
17   0.148033
18   0.118711
19   0.15525
20   0.145194
21   0.166481
22   0.118048
23   0.127049
24   0.127671
25   0.127369
26   0.126486
27   0.126281
28   0.151904
29   0.144762
30   0.12534
31   0.142893
32   0.118241
33   0.308523
34   0.298795

>  <lowdin_charges>
34
1   -0.359576
2   -0.359826
3   -0.161068
4   -0.159874
5   -0.161034
6   -0.15751
7   -0.157959
8   -0.155169
9   -0.166062
10   -0.206355
11   -0.001532
12   -0.012663
13   -0.018666
14   -0.061737
15   -0.552219
16   -0.183703
17   0.152712
18   0.1214
19   0.15033
20   0.149234
21   0.158279
22   0.121357
23   0.15798
24   0.156739
25   0.156478
26   0.154089
27   0.154095
28   0.165265
29   0.167057
30   0.122592
31   0.143625
32   0.129996
33   0.258047
34   0.255674

$$$$

