PCCDB-ID:  9194
public computational chemistry database (PCCDB) project, http://pccdb.org

 20 22  0  0  0  0  0  0  0  0999 V2000
   -3.2426    0.1289    0.0010 C   0  0  0  0  0  0  0  0  0  0  0  0
   -2.6688    1.4118    0.0003 C   0  0  0  0  0  0  0  0  0  0  0  0
   -2.4314   -0.9933    0.0008 C   0  0  0  0  0  0  0  0  0  0  0  0
   -1.2900    1.5679    0.0000 C   0  0  0  0  0  0  0  0  0  0  0  0
    3.0642    0.9911   -0.0006 C   0  0  0  0  0  0  0  0  0  0  0  0
    1.8050    1.5632   -0.0002 C   0  0  0  0  0  0  0  0  0  0  0  0
    1.0318   -1.9090    0.0008 C   0  0  0  0  0  0  0  0  0  0  0  0
   -1.0270   -0.8735    0.0003 C   0  0  0  0  0  0  0  0  0  0  0  0
   -0.4680    0.4324    0.0002 C   0  0  0  0  0  0  0  0  0  0  0  0
    1.7043   -0.6507    0.0002 C   0  0  0  0  0  0  0  0  0  0  0  0
    3.0027   -0.3701   -0.0003 N   0  0  0  0  0  0  0  0  0  0  0  0
   -0.2653   -2.0324    0.0005 N   0  0  0  0  0  0  0  0  0  0  0  0
    0.9261    0.5066    0.0002 N   0  0  0  0  0  0  0  0  0  0  0  0
   -4.3230    0.0196    0.0017 H   0  0  0  0  0  0  0  0  0  0  0  0
   -3.3054    2.2917   -0.0005 H   0  0  0  0  0  0  0  0  0  0  0  0
   -2.8443   -1.9970    0.0011 H   0  0  0  0  0  0  0  0  0  0  0  0
   -0.8510    2.5604   -0.0002 H   0  0  0  0  0  0  0  0  0  0  0  0
    4.0134    1.5109   -0.0010 H   0  0  0  0  0  0  0  0  0  0  0  0
    1.4817    2.5918   -0.0004 H   0  0  0  0  0  0  0  0  0  0  0  0
    1.6421   -2.8100    0.0017 H   0  0  0  0  0  0  0  0  0  0  0  0
  1 14  1  0  0  0  0
  2  1  2  0  0  0  0
  3  1  1  0  0  0  0
  3 16  1  0  0  0  0
  4  9  2  0  0  0  0
  4  2  1  0  0  0  0
  5 11  1  0  0  0  0
  5  6  2  0  0  0  0
  6 13  1  0  0  0  0
  7 20  1  0  0  0  0
  8 12  1  0  0  0  0
  8  3  2  0  0  0  0
  9 13  1  0  0  0  0
  9  8  1  0  0  0  0
 10  7  1  0  0  0  0
 11 10  2  0  0  0  0
 12  7  2  0  0  0  0
 13 10  1  0  0  0  0
 15  2  1  0  0  0  0
 17  4  1  0  0  0  0
 18  5  1  0  0  0  0
 19  6  1  0  0  0  0
M  END
>  <HBA>
3

>  <HBD>
0

>  <TPSA>
30.19

>  <cid>
9194

>  <dipole>
3.8

>  <excitation_energy_1>
4.069

>  <excitation_energy_2>
4.22

>  <excitation_energy_3>
4.396

>  <excitation_energy_4>
4.943

>  <homo_energy>
-6.204

>  <homo_lumo_gap>
4.569

>  <logP>
1.883

>  <lumo_energy>
-1.635

>  <melting_point>
117.22

>  <molecular_refractivity>
50.49

>  <oscillator_strength_1>
0.1807

>  <oscillator_strength_2>
0.0231

>  <oscillator_strength_3>
0.0008

>  <oscillator_strength_4>
0.0319

>  <open_babel_can_smiles>
c1ccc2c(c1)n1ccnc1cn2

>  <mulliken_charges>
20
1   -0.129929
2   -0.140881
3   -0.157898
4   -0.164921
5   -0.024347
6   0.003421
7   0.028422
8   0.245047
9   0.352726
10   0.484349
11   -0.500053
12   -0.489281
13   -0.570861
14   0.140027
15   0.141493
16   0.154007
17   0.142992
18   0.148652
19   0.167722
20   0.169314

>  <lowdin_charges>
20
1   -0.156599
2   -0.143606
3   -0.139327
4   -0.176215
5   -0.126704
6   -0.168971
7   -0.078973
8   0.0219
9   0.036558
10   0.029108
11   -0.178822
12   -0.147762
13   0.044252
14   0.162397
15   0.1651
16   0.174045
17   0.164221
18   0.167817
19   0.175091
20   0.176491

$$$$

