PCCDB-ID:  25700
public computational chemistry database (PCCDB) project, http://pccdb.org

 15 14  0  0  0  0  0  0  0  0999 V2000
    1.7765    0.0441   -0.0361 C   0  0  0  0  0  0  0  0  0  0  0  0
    1.6277    0.5859   -1.4740 C   0  0  0  0  0  0  0  0  0  0  0  0
    2.8465   -1.0337    0.1814 C   0  0  0  0  0  0  0  0  0  0  0  0
    2.9366    1.1429   -2.0256 C   0  0  0  0  0  0  0  0  0  0  0  0
    3.2703    2.2975   -1.9214 O   0  0  0  0  0  0  0  0  0  0  0  0
    3.7576    0.2388   -2.6212 O   0  0  0  0  0  0  0  0  0  0  0  0
    2.7641   -2.4901   -0.9558 S   0  0  0  0  0  0  0  0  0  0  0  0
    0.8010   -0.3409    0.2872 H   0  0  0  0  0  0  0  0  0  0  0  0
    2.0203    0.8807    0.6315 H   0  0  0  0  0  0  0  0  0  0  0  0
    0.9043    1.4050   -1.4675 H   0  0  0  0  0  0  0  0  0  0  0  0
    1.2407   -0.2003   -2.1321 H   0  0  0  0  0  0  0  0  0  0  0  0
    2.8111   -1.3947    1.2126 H   0  0  0  0  0  0  0  0  0  0  0  0
    3.8495   -0.6309    0.0107 H   0  0  0  0  0  0  0  0  0  0  0  0
    3.3525   -0.6504   -2.5951 H   0  0  0  0  0  0  0  0  0  0  0  0
    1.4551   -2.7749   -0.7774 H   0  0  0  0  0  0  0  0  0  0  0  0
  1  3  1  0  0  0  0
  1  8  1  0  0  0  0
  1  9  1  0  0  0  0
  2 10  1  0  0  0  0
  2  1  1  0  0  0  0
  3 12  1  0  0  0  0
  4  5  2  0  0  0  0
  4  2  1  0  0  0  0
  6 14  1  0  0  0  0
  6  4  1  0  0  0  0
  7 15  1  0  0  0  0
  7  3  1  0  0  0  0
 11  2  1  0  0  0  0
 13  3  1  0  0  0  0
M  END
>  <HBA>
3

>  <HBD>
2

>  <TPSA>
76.1

>  <cid>
25700

>  <dipole>
4.64

>  <excitation_energy_1>
5.545

>  <excitation_energy_2>
5.557

>  <excitation_energy_3>
6.094

>  <excitation_energy_4>
6.345

>  <homo_energy>
-7.222

>  <homo_lumo_gap>
7.287

>  <logP>
0.781

>  <lumo_energy>
0.065

>  <melting_point>
72.18

>  <molecular_refractivity>
31.04

>  <oscillator_strength_1>
0.0095

>  <oscillator_strength_2>
0.0052

>  <oscillator_strength_3>
0.032

>  <oscillator_strength_4>
0.0012

>  <open_babel_can_smiles>
SCCCC(=O)O

>  <mulliken_charges>
15
1   -0.264893
2   -0.363626
3   -0.432226
4   0.577822
5   -0.44135
6   -0.572699
7   -0.098993
8   0.153552
9   0.176711
10   0.18103
11   0.156568
12   0.192321
13   0.204948
14   0.425572
15   0.105263

>  <lowdin_charges>
15
1   -0.273781
2   -0.320137
3   -0.376158
4   0.187797
5   -0.243994
6   -0.362713
7   -0.081282
8   0.152401
9   0.166594
10   0.17682
11   0.158225
12   0.168919
13   0.177819
14   0.353156
15   0.116335

$$$$

