PCCDB-ID:  38918
public computational chemistry database (PCCDB) project, http://pccdb.org

 36 37  0  0  1  0  0  0  0  0999 V2000
    5.3862   -0.9281   -1.1887 C   0  0  0  0  0  0  0  0  0  0  0  0
    2.8015   -7.3678   -2.8202 C   0  0  0  0  0  0  0  0  0  0  0  0
    2.6201   -6.5803   -4.1259 C   0  0  0  0  0  0  0  0  0  0  0  0
    3.1885   -6.5431   -1.5843 C   0  0  0  0  0  0  0  0  0  0  0  0
    1.4945   -5.5231   -4.0932 C   0  0  0  0  0  0  0  0  0  0  0  0
    2.1485   -5.4829   -1.1596 C   0  0  0  0  0  0  0  0  0  0  0  0
    2.1867   -1.8229   -3.4562 C   0  0  0  0  0  0  0  0  0  0  0  0
    1.8687   -3.0297   -4.0766 C   0  0  0  0  0  0  0  0  0  0  0  0
    2.8723   -0.4843   -1.4178 C   0  0  0  0  0  0  0  0  0  0  0  0
    2.4682   -2.9957   -1.3877 C   0  0  0  0  0  0  0  0  0  0  0  0
    4.3117    0.0205   -1.7225 C   0  0  1  0  0  0  0  0  0  0  0  0
    2.4970   -1.7859   -2.0924 C   0  0  0  0  0  0  0  0  0  0  0  0
    1.8441   -4.2380   -3.3700 C   0  0  0  0  0  0  0  0  0  0  0  0
    2.1509   -4.2171   -1.9939 C   0  0  0  0  0  0  0  0  0  0  0  0
    4.5763    1.3706   -1.2048 N   0  0  0  0  0  0  0  0  0  0  0  0
    5.2674   -1.9355   -1.5983 H   0  0  0  0  0  0  0  0  0  0  0  0
    5.3273   -1.0031   -0.0937 H   0  0  0  0  0  0  0  0  0  0  0  0
    6.3812   -0.5531   -1.4463 H   0  0  0  0  0  0  0  0  0  0  0  0
    3.5661   -8.1403   -2.9796 H   0  0  0  0  0  0  0  0  0  0  0  0
    1.8665   -7.9068   -2.6030 H   0  0  0  0  0  0  0  0  0  0  0  0
    2.3950   -7.2974   -4.9267 H   0  0  0  0  0  0  0  0  0  0  0  0
    3.5638   -6.0910   -4.4032 H   0  0  0  0  0  0  0  0  0  0  0  0
    4.1560   -6.0497   -1.7502 H   0  0  0  0  0  0  0  0  0  0  0  0
    3.3341   -7.2368   -0.7453 H   0  0  0  0  0  0  0  0  0  0  0  0
    0.5997   -5.9796   -3.6420 H   0  0  0  0  0  0  0  0  0  0  0  0
    1.2166   -5.2728   -5.1239 H   0  0  0  0  0  0  0  0  0  0  0  0
    2.3326   -5.2078   -0.1145 H   0  0  0  0  0  0  0  0  0  0  0  0
    1.1491   -5.9448   -1.1791 H   0  0  0  0  0  0  0  0  0  0  0  0
    2.1858   -0.9028   -4.0371 H   0  0  0  0  0  0  0  0  0  0  0  0
    1.6254   -3.0350   -5.1372 H   0  0  0  0  0  0  0  0  0  0  0  0
    2.1712    0.3018   -1.7330 H   0  0  0  0  0  0  0  0  0  0  0  0
    2.7631   -0.5814   -0.3282 H   0  0  0  0  0  0  0  0  0  0  0  0
    2.6979   -2.9872   -0.3233 H   0  0  0  0  0  0  0  0  0  0  0  0
    4.4179    0.0794   -2.8147 H   0  0  0  0  0  0  0  0  0  0  0  0
    4.4837    1.3646   -0.1879 H   0  0  0  0  0  0  0  0  0  0  0  0
    3.8630    2.0161   -1.5443 H   0  0  0  0  0  0  0  0  0  0  0  0
  1 17  1  0  0  0  0
  2 20  1  0  0  0  0
  2  4  1  0  0  0  0
  3  5  1  0  0  0  0
  3  2  1  0  0  0  0
  4  6  1  0  0  0  0
  4 24  1  0  0  0  0
  5 25  1  0  0  0  0
  5 13  1  0  0  0  0
  6 27  1  0  0  0  0
  7 12  1  0  0  0  0
  8  7  2  0  0  0  0
  8 13  1  0  0  0  0
  9 32  1  0  0  0  0
 10 33  1  0  0  0  0
 11 34  1  6  0  0  0
 11  9  1  0  0  0  0
 11 15  1  0  0  0  0
 11  1  1  0  0  0  0
 12  9  1  0  0  0  0
 12 10  2  0  0  0  0
 13 14  2  0  0  0  0
 14 10  1  0  0  0  0
 14  6  1  0  0  0  0
 15 35  1  0  0  0  0
 16  1  1  0  0  0  0
 18  1  1  0  0  0  0
 19  2  1  0  0  0  0
 21  3  1  0  0  0  0
 22  3  1  0  0  0  0
 23  4  1  0  0  0  0
 26  5  1  0  0  0  0
 28  6  1  0  0  0  0
 29  7  1  0  0  0  0
 30  8  1  0  0  0  0
 31  9  1  0  0  0  0
 36 15  1  0  0  0  0
M  END
>  <HBA>
1

>  <HBD>
1

>  <TPSA>
26.02

>  <cid>
38918

>  <dipole>
1.43

>  <excitation_energy_1>
5.034

>  <excitation_energy_2>
5.278

>  <excitation_energy_3>
5.529

>  <excitation_energy_4>
5.638

>  <homo_energy>
-5.894

>  <homo_lumo_gap>
5.987

>  <logP>
3.546

>  <lumo_energy>
0.093

>  <melting_point>
90.34

>  <molecular_refractivity>
65.97

>  <oscillator_strength_1>
0.0034

>  <oscillator_strength_2>
0.101

>  <oscillator_strength_3>
0.0509

>  <oscillator_strength_4>
0.0223

>  <open_babel_can_smiles>
C[C@@H](Cc1ccc2c(c1)CCCCC2)N

>  <mulliken_charges>
36
1   -0.440682
2   -0.258216
3   -0.248569
4   -0.248592
5   -0.353247
6   -0.354227
7   -0.185238
8   -0.193586
9   -0.356971
10   -0.262505
11   0.030776
12   0.191501
13   0.129133
14   0.1388
15   -0.702752
16   0.155402
17   0.127101
18   0.158725
19   0.131102
20   0.126162
21   0.130925
22   0.136851
23   0.136788
24   0.131079
25   0.141438
26   0.138235
27   0.138691
28   0.142011
29   0.117531
30   0.119332
31   0.130854
32   0.127125
33   0.113803
34   0.134595
35   0.286495
36   0.290131

>  <lowdin_charges>
36
1   -0.44621
2   -0.278271
3   -0.275957
4   -0.275131
5   -0.275848
6   -0.274532
7   -0.17358
8   -0.163609
9   -0.291619
10   -0.177301
11   -0.059184
12   -0.006559
13   -0.015554
14   -0.010585
15   -0.547402
16   0.157029
17   0.138594
18   0.158347
19   0.144461
20   0.136175
21   0.144731
22   0.143133
23   0.142697
24   0.144688
25   0.147639
26   0.148237
27   0.147848
28   0.146964
29   0.152373
30   0.150533
31   0.14556
32   0.139869
33   0.147663
34   0.13708
35   0.246704
36   0.251015

$$$$

