PCCDB-ID:  8983
public computational chemistry database (PCCDB) project, http://pccdb.org

 19 19  0  0  0  0  0  0  0  0999 V2000
    1.0659    0.3805    0.0003 C   0  0  0  0  0  0  0  0  0  0  0  0
    2.4064   -2.3496   -0.0313 C   0  0  0  0  0  0  0  0  0  0  0  0
    2.5632    0.1999   -0.0798 C   0  0  0  0  0  0  0  0  0  0  0  0
    3.1712   -1.0576   -0.1407 C   0  0  0  0  0  0  0  0  0  0  0  0
    4.5883   -1.0524   -0.2231 C   0  0  0  0  0  0  0  0  0  0  0  0
    4.6139    1.1885   -0.1148 C   0  0  0  0  0  0  0  0  0  0  0  0
    3.2853    1.3346   -0.0726 N   0  0  0  0  0  0  0  0  0  0  0  0
    5.3119    0.0616   -0.1987 N   0  0  0  0  0  0  0  0  0  0  0  0
    2.9538   -3.3089   -0.9634 O   0  0  0  0  0  0  0  0  0  0  0  0
    5.2888   -2.1901   -0.3320 O   0  0  0  0  0  0  0  0  0  0  0  0
    5.3420    2.3193   -0.0773 O   0  0  0  0  0  0  0  0  0  0  0  0
    0.5535   -0.1168   -0.8318 H   0  0  0  0  0  0  0  0  0  0  0  0
    0.8341    1.4465   -0.0326 H   0  0  0  0  0  0  0  0  0  0  0  0
    0.6578   -0.0329    0.9308 H   0  0  0  0  0  0  0  0  0  0  0  0
    1.3435   -2.1927   -0.2451 H   0  0  0  0  0  0  0  0  0  0  0  0
    2.4834   -2.7556    0.9905 H   0  0  0  0  0  0  0  0  0  0  0  0
    2.5942   -4.1825   -0.7430 H   0  0  0  0  0  0  0  0  0  0  0  0
    4.6542   -2.9013   -0.5759 H   0  0  0  0  0  0  0  0  0  0  0  0
    4.6954    3.0450   -0.0221 H   0  0  0  0  0  0  0  0  0  0  0  0
  1 14  1  0  0  0  0
  2 16  1  0  0  0  0
  3  7  1  0  0  0  0
  3  1  1  0  0  0  0
  4  3  2  0  0  0  0
  4  2  1  0  0  0  0
  5  8  2  0  0  0  0
  5  4  1  0  0  0  0
  6 11  1  0  0  0  0
  6  7  2  0  0  0  0
  8  6  2  0  0  0  0
  9 17  1  0  0  0  0
  9  2  1  0  0  0  0
 10  5  1  0  0  0  0
 11 19  1  0  0  0  0
 12  1  1  0  0  0  0
 13  1  1  0  0  0  0
 15  2  1  0  0  0  0
 18 10  1  0  0  0  0
M  END
>  <HBA>
3

>  <HBD>
3

>  <TPSA>
85.95

>  <cid>
8983

>  <dipole>
6.04

>  <excitation_energy_1>
5.008

>  <excitation_energy_2>
5.143

>  <excitation_energy_3>
5.277

>  <excitation_energy_4>
5.382

>  <homo_energy>
-6.433

>  <homo_lumo_gap>
5.908

>  <logP>
-1.136

>  <lumo_energy>
-0.525

>  <melting_point>
196.04

>  <molecular_refractivity>
38.78

>  <oscillator_strength_1>
0.0143

>  <oscillator_strength_2>
0.1041

>  <oscillator_strength_3>
0.0315

>  <oscillator_strength_4>
0.0139

>  <open_babel_can_smiles>
OCC1=C(C)N=[C](=[N]=C1O)O

>  <mulliken_charges>
19
1   -0.536331
2   -0.140259
3   0.281094
4   0.041366
5   0.478015
6   0.633687
7   -0.547128
8   -0.476665
9   -0.628277
10   -0.61152
11   -0.584845
12   0.169151
13   0.184084
14   0.165064
15   0.155477
16   0.154805
17   0.410456
18   0.437228
19   0.414598

>  <lowdin_charges>
19
1   -0.451894
2   -0.129061
3   0.082837
4   -0.134322
5   0.1624
6   0.162151
7   -0.237673
8   -0.178349
9   -0.464905
10   -0.351253
11   -0.337683
12   0.165946
13   0.174094
14   0.164262
15   0.150192
16   0.14244
17   0.355298
18   0.361656
19   0.363864

$$$$

