PCCDB-ID:  13396
public computational chemistry database (PCCDB) project, http://pccdb.org

 15 15  0  0  0  0  0  0  0  0999 V2000
   -0.7678    1.1510   -0.0439 C   0  0  0  0  0  0  0  0  0  0  0  0
    1.3899    0.0506   -0.0330 C   0  0  0  0  0  0  0  0  0  0  0  0
   -1.3980   -0.0833   -0.0134 C   0  0  0  0  0  0  0  0  0  0  0  0
    0.7606   -1.1843   -0.0025 C   0  0  0  0  0  0  0  0  0  0  0  0
    1.2854    2.5114   -0.0907 C   0  0  0  0  0  0  0  0  0  0  0  0
    0.6361    1.2380   -0.0548 C   0  0  0  0  0  0  0  0  0  0  0  0
   -0.6455   -1.2743    0.0078 C   0  0  0  0  0  0  0  0  0  0  0  0
    1.8136    3.5488   -0.1207 N   0  0  0  0  0  0  0  0  0  0  0  0
   -1.2742   -2.5060    0.0910 N   0  0  0  0  0  0  0  0  0  0  0  0
   -1.3596    2.0607   -0.0621 H   0  0  0  0  0  0  0  0  0  0  0  0
    2.4739    0.1057   -0.0428 H   0  0  0  0  0  0  0  0  0  0  0  0
   -2.4838   -0.1356   -0.0022 H   0  0  0  0  0  0  0  0  0  0  0  0
    1.3558   -2.0938    0.0170 H   0  0  0  0  0  0  0  0  0  0  0  0
   -2.2377   -2.5433   -0.2138 H   0  0  0  0  0  0  0  0  0  0  0  0
   -0.7361   -3.3093   -0.2055 H   0  0  0  0  0  0  0  0  0  0  0  0
  1  3  1  0  0  0  0
  2  4  2  0  0  0  0
  3 12  1  0  0  0  0
  3  7  2  0  0  0  0
  4  7  1  0  0  0  0
  4 13  1  0  0  0  0
  5  6  1  0  0  0  0
  6  1  2  0  0  0  0
  6  2  1  0  0  0  0
  7  9  1  0  0  0  0
  8  5  3  0  0  0  0
 10  1  1  0  0  0  0
 11  2  1  0  0  0  0
 14  9  1  0  0  0  0
 15  9  1  0  0  0  0
M  END
>  <HBA>
2

>  <HBD>
1

>  <TPSA>
49.81

>  <cid>
13396

>  <dipole>
6.75

>  <excitation_energy_1>
4.631

>  <excitation_energy_2>
4.889

>  <excitation_energy_3>
5.03

>  <excitation_energy_4>
5.754

>  <homo_energy>
-6.006

>  <homo_lumo_gap>
5.181

>  <logP>
1.722

>  <lumo_energy>
-0.825

>  <melting_point>
91.21

>  <molecular_refractivity>
35.56

>  <oscillator_strength_1>
0.0198

>  <oscillator_strength_2>
0.3323

>  <oscillator_strength_3>
0.0852

>  <oscillator_strength_4>
0.0044

>  <open_babel_can_smiles>
N#Cc1ccc(cc1)N

>  <mulliken_charges>
15
1   -0.141861
2   -0.141945
3   -0.179443
4   -0.179473
5   0.223735
6   0.120462
7   0.340286
8   -0.488642
9   -0.791046
10   0.156049
11   0.155986
12   0.131716
13   0.131747
14   0.331219
15   0.331209

>  <lowdin_charges>
15
1   -0.121834
2   -0.118849
3   -0.193786
4   -0.196806
5   -0.017486
6   -0.050628
7   0.077033
8   -0.136039
9   -0.470746
10   0.173585
11   0.171075
12   0.158171
13   0.160612
14   0.281888
15   0.283811

$$$$

