PCCDB-ID:  72884
public computational chemistry database (PCCDB) project, http://pccdb.org

 16 15  0  0  1  0  0  0  0  0999 V2000
    1.1343    0.3952   -0.7550 C   0  0  0  0  0  0  0  0  0  0  0  0
    3.7958    0.5388    3.5915 C   0  0  0  0  0  0  0  0  0  0  0  0
    2.5496    0.2906   -0.2564 C   0  0  1  0  0  0  0  0  0  0  0  0
    2.3805    0.6443    3.0928 C   0  0  2  0  0  0  0  0  0  0  0  0
    2.9735    0.3653    0.9489 N   0  0  0  0  0  0  0  0  0  0  0  0
    1.9569    0.5706    1.8874 N   0  0  0  0  0  0  0  0  0  0  0  0
    3.5152    0.0898   -1.1995 O   0  0  0  0  0  0  0  0  0  0  0  0
    1.4149    0.8445    4.0359 O   0  0  0  0  0  0  0  0  0  0  0  0
    0.4614    0.5603    0.0859 H   0  0  0  0  0  0  0  0  0  0  0  0
    0.8433   -0.5263   -1.2762 H   0  0  0  0  0  0  0  0  0  0  0  0
    1.0389    1.2271   -1.4650 H   0  0  0  0  0  0  0  0  0  0  0  0
    4.4687    0.3735    2.7506 H   0  0  0  0  0  0  0  0  0  0  0  0
    3.8904   -0.2934    4.3013 H   0  0  0  0  0  0  0  0  0  0  0  0
    4.0873    1.4599    4.1131 H   0  0  0  0  0  0  0  0  0  0  0  0
    3.0921    0.0500   -2.0703 H   0  0  0  0  0  0  0  0  0  0  0  0
    1.8380    0.8846    4.9067 H   0  0  0  0  0  0  0  0  0  0  0  0
  1  3  1  0  0  0  0
  1  9  1  0  0  0  0
  2 14  1  0  0  0  0
  2 13  1  0  0  0  0
  3  7  1  1  0  0  0
  3  5  1  0  0  0  0
  4  6  1  6  0  0  0
  4  2  1  0  0  0  0
  4  8  1  0  0  0  0
  5  6  1  0  0  0  0
  8 16  1  0  0  0  0
 10  1  1  0  0  0  0
 11  1  1  0  0  0  0
 12  2  1  0  0  0  0
 15  7  1  0  0  0  0
M  RAD  4   3   2   4   2   5   2   6   2
M  END
>  <HBA>
4

>  <HBD>
2

>  <TPSA>
58.2

>  <cid>
72884

>  <dipole>
0.0

>  <excitation_energy_1>
4.719

>  <excitation_energy_2>
5.149

>  <excitation_energy_3>
5.194

>  <excitation_energy_4>
5.441

>  <homo_energy>
-5.723

>  <homo_lumo_gap>
5.894

>  <logP>
-0.045

>  <lumo_energy>
0.171

>  <melting_point>
71.91

>  <molecular_refractivity>
27.35

>  <oscillator_strength_1>
0.0008

>  <oscillator_strength_2>
0.0039

>  <oscillator_strength_3>
0.0

>  <oscillator_strength_4>
0.0242

>  <open_babel_can_smiles>
C[C]([N][N][C](O)C)O

>  <mulliken_charges>
16
1   -0.556707
2   -0.556734
3   0.519791
4   0.519794
5   -0.335845
6   -0.335846
7   -0.583691
8   -0.583677
9   0.220676
10   0.164142
11   0.163371
12   0.22068
13   0.163367
14   0.164146
15   0.408266
16   0.408265

>  <lowdin_charges>
16
1   -0.484625
2   -0.484631
3   0.122566
4   0.122553
5   -0.156282
6   -0.156288
7   -0.362691
8   -0.362671
9   0.194716
10   0.164891
11   0.164674
12   0.194718
13   0.164668
14   0.164897
15   0.356752
16   0.356753

$$$$

