PCCDB-ID:  41947
public computational chemistry database (PCCDB) project, http://pccdb.org

 31 32  0  0  1  0  0  0  0  0999 V2000
    1.4941   -0.1698    1.7413 C   0  0  0  0  0  0  0  0  0  0  0  0
    4.0113   -0.3594    1.6828 C   0  0  0  0  0  0  0  0  0  0  0  0
   -0.2423    0.1909   -4.6402 C   0  0  0  0  0  0  0  0  0  0  0  0
   -0.3549   -0.8525   -3.7221 C   0  0  0  0  0  0  0  0  0  0  0  0
    0.9062    0.9855   -4.6396 C   0  0  0  0  0  0  0  0  0  0  0  0
    0.6687   -1.0985   -2.8041 C   0  0  0  0  0  0  0  0  0  0  0  0
    1.9304    0.7360   -3.7275 C   0  0  0  0  0  0  0  0  0  0  0  0
    1.8213   -0.3065   -2.7934 C   0  0  0  0  0  0  0  0  0  0  0  0
    2.7821    1.0000   -0.1304 C   0  0  2  0  0  0  0  0  0  0  0  0
    3.0043   -0.5791   -1.8665 C   0  0  1  0  0  0  0  0  0  0  0  0
    3.2547    2.3340    0.4624 C   0  0  0  0  0  0  0  0  0  0  0  0
    2.7346   -0.2135    0.8406 C   0  0  0  0  0  0  0  0  0  0  0  0
    3.5705    0.6581   -1.3257 N   0  0  0  0  0  0  0  0  0  0  0  0
    3.0906    2.6708    1.6103 O   0  0  0  0  0  0  0  0  0  0  0  0
    3.8383    3.1457   -0.4435 O   0  0  0  0  0  0  0  0  0  0  0  0
    2.6176   -1.6550   -0.3660 S   0  0  0  0  0  0  0  0  0  0  0  0
    1.5552    0.7048    2.3972 H   0  0  0  0  0  0  0  0  0  0  0  0
    1.4311   -1.0670    2.3656 H   0  0  0  0  0  0  0  0  0  0  0  0
    0.5760   -0.1047    1.1488 H   0  0  0  0  0  0  0  0  0  0  0  0
    4.0726    0.4499    2.4172 H   0  0  0  0  0  0  0  0  0  0  0  0
    4.9170   -0.3401    1.0652 H   0  0  0  0  0  0  0  0  0  0  0  0
    4.0059   -1.3154    2.2151 H   0  0  0  0  0  0  0  0  0  0  0  0
   -1.0413    0.3844   -5.3507 H   0  0  0  0  0  0  0  0  0  0  0  0
   -1.2442   -1.4770   -3.7120 H   0  0  0  0  0  0  0  0  0  0  0  0
    1.0060    1.8009   -5.3512 H   0  0  0  0  0  0  0  0  0  0  0  0
    0.5685   -1.9045   -2.0852 H   0  0  0  0  0  0  0  0  0  0  0  0
    2.8231    1.3536   -3.7330 H   0  0  0  0  0  0  0  0  0  0  0  0
    1.7568    1.1796   -0.4843 H   0  0  0  0  0  0  0  0  0  0  0  0
    3.7867   -1.0974   -2.4288 H   0  0  0  0  0  0  0  0  0  0  0  0
    4.5270    0.4581   -1.0269 H   0  0  0  0  0  0  0  0  0  0  0  0
    3.8534    2.6580   -1.2955 H   0  0  0  0  0  0  0  0  0  0  0  0
  1 18  1  0  0  0  0
  1 17  1  0  0  0  0
  2 22  1  0  0  0  0
  2 20  1  0  0  0  0
  3  5  2  0  0  0  0
  3  4  1  0  0  0  0
  4 24  1  0  0  0  0
  4  6  2  0  0  0  0
  5  7  1  0  0  0  0
  6  8  1  0  0  0  0
  6 26  1  0  0  0  0
  7  8  2  0  0  0  0
  8 10  1  0  0  0  0
  9 28  1  6  0  0  0
  9 11  1  0  0  0  0
  9 12  1  0  0  0  0
 10 29  1  6  0  0  0
 10 13  1  0  0  0  0
 10 16  1  0  0  0  0
 11 14  2  0  0  0  0
 12  2  1  0  0  0  0
 12  1  1  0  0  0  0
 13 30  1  0  0  0  0
 13  9  1  0  0  0  0
 15 11  1  0  0  0  0
 16 12  1  0  0  0  0
 19  1  1  0  0  0  0
 21  2  1  0  0  0  0
 23  3  1  0  0  0  0
 25  5  1  0  0  0  0
 27  7  1  0  0  0  0
 31 15  1  0  0  0  0
M  END
>  <HBA>
4

>  <HBD>
2

>  <TPSA>
74.63

>  <cid>
41947

>  <dipole>
3.19

>  <excitation_energy_1>
4.715

>  <excitation_energy_2>
4.983

>  <excitation_energy_3>
5.149

>  <excitation_energy_4>
5.265

>  <homo_energy>
-6.31

>  <homo_lumo_gap>
5.796

>  <logP>
2.582

>  <lumo_energy>
-0.514

>  <melting_point>
150.74

>  <molecular_refractivity>
69.45

>  <oscillator_strength_1>
0.0026

>  <oscillator_strength_2>
0.0012

>  <oscillator_strength_3>
0.0079

>  <oscillator_strength_4>
0.0012

>  <open_babel_can_smiles>
OC(=O)[C@H]1N[C@@H](SC1(C)C)c1ccccc1

>  <mulliken_charges>
31
1   -0.452344
2   -0.451283
3   -0.125224
4   -0.133001
5   -0.128428
6   -0.179992
7   -0.161993
8   0.155675
9   -0.102788
10   -0.226752
11   0.611752
12   -0.069146
13   -0.588173
14   -0.452495
15   -0.574397
16   0.059179
17   0.185917
18   0.155283
19   0.156899
20   0.185037
21   0.134906
22   0.162416
23   0.133979
24   0.13506
25   0.133815
26   0.159922
27   0.132604
28   0.200509
29   0.189634
30   0.325397
31   0.428033

>  <lowdin_charges>
31
1   -0.447005
2   -0.452248
3   -0.154145
4   -0.154014
5   -0.154471
6   -0.163244
7   -0.162059
8   -0.02872
9   -0.1188
10   -0.150791
11   0.185211
12   -0.069075
13   -0.342064
14   -0.242333
15   -0.347769
16   0.048133
17   0.170854
18   0.157902
19   0.157528
20   0.169596
21   0.144686
22   0.162502
23   0.160482
24   0.160489
25   0.159993
26   0.172648
27   0.159184
28   0.17948
29   0.173638
30   0.265733
31   0.358678

$$$$

