PCCDB-ID:  12998
public computational chemistry database (PCCDB) project, http://pccdb.org

 25 24  0  0  0  0  0  0  0  0999 V2000
    6.3380   -6.3289   -1.8475 C   0  0  0  0  0  0  0  0  0  0  0  0
    4.1510   -2.6447    6.3164 C   0  0  0  0  0  0  0  0  0  0  0  0
    5.7932   -5.1137   -1.9536 C   0  0  0  0  0  0  0  0  0  0  0  0
    5.2935   -1.9692    6.4702 C   0  0  0  0  0  0  0  0  0  0  0  0
    6.0816   -4.5075    0.3228 C   0  0  0  0  0  0  0  0  0  0  0  0
    6.5768   -3.1001    4.7909 C   0  0  0  0  0  0  0  0  0  0  0  0
    5.7900   -3.3080    1.2118 C   0  0  0  0  0  0  0  0  0  0  0  0
    6.0391   -2.5961    3.4528 C   0  0  0  0  0  0  0  0  0  0  0  0
    5.6262   -4.1764   -0.9834 O   0  0  0  0  0  0  0  0  0  0  0  0
    6.4733   -2.1020    5.8036 O   0  0  0  0  0  0  0  0  0  0  0  0
    6.2362   -3.6365    2.5132 O   0  0  0  0  0  0  0  0  0  0  0  0
    6.3949   -6.9569   -2.7290 H   0  0  0  0  0  0  0  0  0  0  0  0
    6.7309   -6.7335   -0.9220 H   0  0  0  0  0  0  0  0  0  0  0  0
    3.3150   -2.4080    6.9643 H   0  0  0  0  0  0  0  0  0  0  0  0
    4.0002   -3.4260    5.5803 H   0  0  0  0  0  0  0  0  0  0  0  0
    5.4050   -4.7342   -2.8949 H   0  0  0  0  0  0  0  0  0  0  0  0
    5.3955   -1.1851    7.2159 H   0  0  0  0  0  0  0  0  0  0  0  0
    5.5586   -5.3968    0.6991 H   0  0  0  0  0  0  0  0  0  0  0  0
    7.1586   -4.7216    0.3126 H   0  0  0  0  0  0  0  0  0  0  0  0
    7.6436   -3.3185    4.6953 H   0  0  0  0  0  0  0  0  0  0  0  0
    6.0634   -4.0206    5.0919 H   0  0  0  0  0  0  0  0  0  0  0  0
    4.7102   -3.0901    1.2056 H   0  0  0  0  0  0  0  0  0  0  0  0
    6.3130   -2.4188    0.8255 H   0  0  0  0  0  0  0  0  0  0  0  0
    6.5855   -1.6864    3.1567 H   0  0  0  0  0  0  0  0  0  0  0  0
    4.9732   -2.3346    3.5326 H   0  0  0  0  0  0  0  0  0  0  0  0
  1 13  1  0  0  0  0
  2  4  2  0  0  0  0
  2 14  1  0  0  0  0
  3  1  2  0  0  0  0
  3  9  1  0  0  0  0
  4 17  1  0  0  0  0
  5 18  1  0  0  0  0
  5  7  1  0  0  0  0
  6 21  1  0  0  0  0
  6 10  1  0  0  0  0
  7 11  1  0  0  0  0
  8 25  1  0  0  0  0
  8  6  1  0  0  0  0
  9  5  1  0  0  0  0
 10  4  1  0  0  0  0
 11  8  1  0  0  0  0
 12  1  1  0  0  0  0
 15  2  1  0  0  0  0
 16  3  1  0  0  0  0
 19  5  1  0  0  0  0
 20  6  1  0  0  0  0
 22  7  1  0  0  0  0
 23  7  1  0  0  0  0
 24  8  1  0  0  0  0
M  END
>  <HBA>
3

>  <HBD>
0

>  <TPSA>
27.69

>  <cid>
12998

>  <dipole>
0.35

>  <excitation_energy_1>
5.896

>  <excitation_energy_2>
5.96

>  <excitation_energy_3>
6.052

>  <excitation_energy_4>
6.187

>  <homo_energy>
-6.191

>  <homo_lumo_gap>
7.227

>  <logP>
1.323

>  <lumo_energy>
1.037

>  <melting_point>
-95.94

>  <molecular_refractivity>
42.88

>  <oscillator_strength_1>
0.0305

>  <oscillator_strength_2>
0.0435

>  <oscillator_strength_3>
0.0092

>  <oscillator_strength_4>
0.0022

>  <open_babel_can_smiles>
C=COCCOCCOC=C

>  <mulliken_charges>
25
1   -0.40042
2   -0.398023
3   0.158303
4   0.150956
5   -0.047643
6   -0.059094
7   -0.023159
8   -0.026273
9   -0.45627
10   -0.452612
11   -0.490242
12   0.143156
13   0.145294
14   0.144481
15   0.143498
16   0.143457
17   0.144858
18   0.153015
19   0.153325
20   0.165243
21   0.155396
22   0.137731
23   0.1379
24   0.136289
25   0.140834

>  <lowdin_charges>
25
1   -0.427127
2   -0.430886
3   -0.036003
4   -0.034234
5   -0.129603
6   -0.13342
7   -0.12946
8   -0.139904
9   -0.198447
10   -0.196553
11   -0.273065
12   0.17004
13   0.163532
14   0.170877
15   0.161987
16   0.159223
17   0.160169
18   0.147304
19   0.144891
20   0.157891
21   0.149103
22   0.134174
23   0.137068
24   0.135937
25   0.136509

$$$$

