PCCDB-ID:  70254
public computational chemistry database (PCCDB) project, http://pccdb.org

  8  8  0  0  0  0  0  0  0  0999 V2000
   -1.3001   -0.1236    0.0021 C   0  0  0  0  0  0  0  0  0  0  0  0
   -0.5102   -1.2110    0.0032 C   0  0  0  0  0  0  0  0  0  0  0  0
    1.1624    0.8347    0.0024 C   0  0  0  0  0  0  0  0  0  0  0  0
    2.4935    1.8018    0.0000 S   0  0  0  0  0  0  0  0  0  0  0  0
   -0.5037    1.4350    0.0031 S   0  0  0  0  0  0  0  0  0  0  0  0
    1.2183   -0.9354    0.0051 S   0  0  0  0  0  0  0  0  0  0  0  0
   -2.3840   -0.1444   -0.0006 H   0  0  0  0  0  0  0  0  0  0  0  0
   -0.8649   -2.2354    0.0030 H   0  0  0  0  0  0  0  0  0  0  0  0
  1  5  1  0  0  0  0
  1  2  2  0  0  0  0
  2  6  1  0  0  0  0
  3  5  1  0  0  0  0
  3  6  1  0  0  0  0
  4  3  2  0  0  0  0
  7  1  1  0  0  0  0
  8  2  1  0  0  0  0
M  END
>  <HBA>
3

>  <HBD>
0

>  <TPSA>
88.57

>  <cid>
70254

>  <dipole>
4.71

>  <excitation_energy_1>
2.949

>  <excitation_energy_2>
3.867

>  <excitation_energy_3>
4.219

>  <excitation_energy_4>
4.528

>  <homo_energy>
-6.114

>  <homo_lumo_gap>
4.177

>  <logP>
2.539

>  <lumo_energy>
-1.937

>  <melting_point>
43.96

>  <molecular_refractivity>
33.03

>  <oscillator_strength_1>
0.0

>  <oscillator_strength_2>
0.1755

>  <oscillator_strength_3>
0.0007

>  <oscillator_strength_4>
0.0018

>  <open_babel_can_smiles>
S=c1sccs1

>  <mulliken_charges>
8
1   -0.298879
2   -0.299071
3   -0.375024
4   -0.119499
5   0.345065
6   0.34502
7   0.201176
8   0.201211

>  <lowdin_charges>
8
1   -0.305345
2   -0.306518
3   -0.363607
4   -0.095132
5   0.339559
6   0.340551
7   0.194831
8   0.195661

$$$$

