PCCDB-ID:  6865
public computational chemistry database (PCCDB) project, http://pccdb.org

 21 22  0  0  0  0  0  0  0  0999 V2000
    2.4355   -0.6701   -0.0261 C   0  0  0  0  0  0  0  0  0  0  0  0
    1.2646   -1.3903    0.0129 C   0  0  0  0  0  0  0  0  0  0  0  0
    2.4241    0.7417   -0.0458 C   0  0  0  0  0  0  0  0  0  0  0  0
   -2.4487    0.6527   -0.0889 C   0  0  0  0  0  0  0  0  0  0  0  0
   -1.2715    1.3674   -0.1138 C   0  0  0  0  0  0  0  0  0  0  0  0
   -1.2110   -1.4256    0.0356 C   0  0  0  0  0  0  0  0  0  0  0  0
    0.0139   -0.7138    0.0043 C   0  0  0  0  0  0  0  0  0  0  0  0
   -2.4185   -0.7604   -0.0020 C   0  0  0  0  0  0  0  0  0  0  0  0
   -0.0113    0.7204   -0.0495 C   0  0  0  0  0  0  0  0  0  0  0  0
    1.2295    1.4429   -0.0472 C   0  0  0  0  0  0  0  0  0  0  0  0
    1.2137    2.8451   -0.1031 N   0  0  0  0  0  0  0  0  0  0  0  0
   -3.5696   -1.5012    0.0342 O   0  0  0  0  0  0  0  0  0  0  0  0
    3.3918   -1.1870   -0.0240 H   0  0  0  0  0  0  0  0  0  0  0  0
    1.2778   -2.4762    0.0453 H   0  0  0  0  0  0  0  0  0  0  0  0
    3.3648    1.2880   -0.0462 H   0  0  0  0  0  0  0  0  0  0  0  0
   -3.4051    1.1695   -0.1491 H   0  0  0  0  0  0  0  0  0  0  0  0
   -1.3191    2.4468   -0.2205 H   0  0  0  0  0  0  0  0  0  0  0  0
   -1.2052   -2.5105    0.0839 H   0  0  0  0  0  0  0  0  0  0  0  0
    2.1202    3.2599    0.0807 H   0  0  0  0  0  0  0  0  0  0  0  0
    0.5095    3.2785    0.4831 H   0  0  0  0  0  0  0  0  0  0  0  0
   -4.3302   -0.9018   -0.0095 H   0  0  0  0  0  0  0  0  0  0  0  0
  1 13  1  0  0  0  0
  1  2  1  0  0  0  0
  2 14  1  0  0  0  0
  3  1  2  0  0  0  0
  4  8  1  0  0  0  0
  5  4  2  0  0  0  0
  5  9  1  0  0  0  0
  6 18  1  0  0  0  0
  7  2  2  0  0  0  0
  7  6  1  0  0  0  0
  8 12  1  0  0  0  0
  8  6  2  0  0  0  0
  9 10  2  0  0  0  0
  9  7  1  0  0  0  0
 10  3  1  0  0  0  0
 11 10  1  0  0  0  0
 11 19  1  0  0  0  0
 11 20  1  0  0  0  0
 15  3  1  0  0  0  0
 16  4  1  0  0  0  0
 17  5  1  0  0  0  0
 21 12  1  0  0  0  0
M  END
>  <HBA>
2

>  <HBD>
2

>  <TPSA>
46.25

>  <cid>
6865

>  <dipole>
2.69

>  <excitation_energy_1>
3.743

>  <excitation_energy_2>
4.21

>  <excitation_energy_3>
4.479

>  <excitation_energy_4>
4.671

>  <homo_energy>
-5.04

>  <homo_lumo_gap>
4.316

>  <logP>
2.709

>  <lumo_energy>
-0.724

>  <melting_point>
138.78

>  <molecular_refractivity>
50.38

>  <oscillator_strength_1>
0.0775

>  <oscillator_strength_2>
0.0045

>  <oscillator_strength_3>
0.005

>  <oscillator_strength_4>
0.0012

>  <open_babel_can_smiles>
Oc1ccc2c(c1)cccc2N

>  <mulliken_charges>
21
1   -0.139565
2   -0.199598
3   -0.189657
4   -0.195598
5   -0.20554
6   -0.249809
7   0.130589
8   0.357943
9   0.106778
10   0.23408
11   -0.786441
12   -0.64657
13   0.124592
14   0.121662
15   0.110128
16   0.117035
17   0.13012
18   0.136207
19   0.318891
20   0.318388
21   0.406365

>  <lowdin_charges>
21
1   -0.145619
2   -0.187976
3   -0.219619
4   -0.209455
5   -0.148418
6   -0.193396
7   0.018346
8   0.099819
9   -0.040108
10   0.059902
11   -0.492163
12   -0.380383
13   0.156604
14   0.153415
15   0.150555
16   0.152821
17   0.156267
18   0.164327
19   0.273284
20   0.274479
21   0.357318

$$$$

