PCCDB-ID:  65237
public computational chemistry database (PCCDB) project, http://pccdb.org

 28 30  0  0  0  0  0  0  0  0999 V2000
    1.0254    0.3383    0.0352 C   0  0  0  0  0  0  0  0  0  0  0  0
    4.5545    6.0883    0.0400 C   0  0  0  0  0  0  0  0  0  0  0  0
    3.1418   -1.0809    0.0310 C   0  0  0  0  0  0  0  0  0  0  0  0
    6.7777    4.8435    0.0381 C   0  0  0  0  0  0  0  0  0  0  0  0
    4.5176   -1.1623    0.0304 C   0  0  0  0  0  0  0  0  0  0  0  0
    7.4733    3.6537    0.0365 C   0  0  0  0  0  0  0  0  0  0  0  0
    6.7217    0.0017    0.0304 C   0  0  0  0  0  0  0  0  0  0  0  0
    7.4334    1.1617    0.0322 C   0  0  0  0  0  0  0  0  0  0  0  0
    2.5286    0.1949    0.0336 C   0  0  0  0  0  0  0  0  0  0  0  0
    5.3625    4.8126    0.0383 C   0  0  0  0  0  0  0  0  0  0  0  0
    5.2875    0.0202    0.0316 C   0  0  0  0  0  0  0  0  0  0  0  0
    6.7674    2.4319    0.0350 C   0  0  0  0  0  0  0  0  0  0  0  0
    4.5804    1.2573    0.0339 C   0  0  0  0  0  0  0  0  0  0  0  0
    5.3443    2.5021    0.0353 C   0  0  0  0  0  0  0  0  0  0  0  0
    3.2319    1.3215    0.0353 N   0  0  0  0  0  0  0  0  0  0  0  0
    4.6764    3.6754    0.0369 N   0  0  0  0  0  0  0  0  0  0  0  0
    0.5221   -0.6334    0.0381 H   0  0  0  0  0  0  0  0  0  0  0  0
    0.6966    0.9008   -0.8458 H   0  0  0  0  0  0  0  0  0  0  0  0
    0.6991    0.9050    0.9143 H   0  0  0  0  0  0  0  0  0  0  0  0
    5.1937    6.9764    0.0460 H   0  0  0  0  0  0  0  0  0  0  0  0
    3.8993    6.1214    0.9175 H   0  0  0  0  0  0  0  0  0  0  0  0
    3.9064    6.1286   -0.8426 H   0  0  0  0  0  0  0  0  0  0  0  0
    2.5297   -1.9783    0.0291 H   0  0  0  0  0  0  0  0  0  0  0  0
    7.3007    5.7955    0.0389 H   0  0  0  0  0  0  0  0  0  0  0  0
    5.0197   -2.1273    0.0299 H   0  0  0  0  0  0  0  0  0  0  0  0
    8.5610    3.6429    0.0365 H   0  0  0  0  0  0  0  0  0  0  0  0
    7.2283   -0.9605    0.0272 H   0  0  0  0  0  0  0  0  0  0  0  0
    8.5208    1.1460    0.0316 H   0  0  0  0  0  0  0  0  0  0  0  0
  1 17  1  0  0  0  0
  1 19  1  0  0  0  0
  2 20  1  0  0  0  0
  2 21  1  0  0  0  0
  3  9  1  0  0  0  0
  4 10  1  0  0  0  0
  4 24  1  0  0  0  0
  5  3  2  0  0  0  0
  5 11  1  0  0  0  0
  6 26  1  0  0  0  0
  6  4  2  0  0  0  0
  7 11  2  0  0  0  0
  7  8  1  0  0  0  0
  8 12  2  0  0  0  0
  9  1  1  0  0  0  0
  9 15  2  0  0  0  0
 10  2  1  0  0  0  0
 11 13  1  0  0  0  0
 12 14  1  0  0  0  0
 12  6  1  0  0  0  0
 13 15  1  0  0  0  0
 13 14  2  0  0  0  0
 14 16  1  0  0  0  0
 16 10  2  0  0  0  0
 18  1  1  0  0  0  0
 22  2  1  0  0  0  0
 23  3  1  0  0  0  0
 25  5  1  0  0  0  0
 27  7  1  0  0  0  0
 28  8  1  0  0  0  0
M  END
>  <HBA>
2

>  <HBD>
0

>  <TPSA>
25.78

>  <cid>
65237

>  <dipole>
2.12

>  <excitation_energy_1>
3.953

>  <excitation_energy_2>
3.968

>  <excitation_energy_3>
4.092

>  <excitation_energy_4>
4.175

>  <homo_energy>
-5.959

>  <homo_lumo_gap>
4.716

>  <logP>
3.4

>  <lumo_energy>
-1.244

>  <melting_point>
133.68

>  <molecular_refractivity>
66.98

>  <oscillator_strength_1>
0.0007

>  <oscillator_strength_2>
0.0

>  <oscillator_strength_3>
0.0015

>  <oscillator_strength_4>
0.0713

>  <open_babel_can_smiles>
Cc1ccc2c(n1)c1nc(C)ccc1cc2

>  <mulliken_charges>
28
1   -0.504694
2   -0.504576
3   -0.177477
4   -0.177296
5   -0.158497
6   -0.158688
7   -0.194312
8   -0.194474
9   0.305885
10   0.305636
11   0.15653
12   0.156659
13   0.20522
14   0.205195
15   -0.528224
16   -0.527904
17   0.144066
18   0.175063
19   0.175168
20   0.144048
21   0.175138
22   0.175019
23   0.132162
24   0.132078
25   0.137415
26   0.137484
27   0.131654
28   0.131722

>  <lowdin_charges>
28
1   -0.446552
2   -0.44608
3   -0.184936
4   -0.184688
5   -0.131101
6   -0.128275
7   -0.159031
8   -0.15644
9   0.06136
10   0.061286
11   -0.019992
12   -0.021204
13   0.038724
14   0.040292
15   -0.135188
16   -0.135991
17   0.151039
18   0.171523
19   0.171604
20   0.151584
21   0.171352
22   0.171255
23   0.162141
24   0.161625
25   0.160858
26   0.158777
27   0.15904
28   0.157017

$$$$

