PCCDB-ID:  4133
public computational chemistry database (PCCDB) project, http://pccdb.org

 19 19  0  0  0  0  0  0  0  0999 V2000
    3.1963   -0.2455    1.0923 C   0  0  0  0  0  0  0  0  0  0  0  0
    1.6099   -2.1803   -4.4550 C   0  0  0  0  0  0  0  0  0  0  0  0
    1.5260   -3.5528   -4.2074 C   0  0  0  0  0  0  0  0  0  0  0  0
    1.9589   -1.3282   -3.4155 C   0  0  0  0  0  0  0  0  0  0  0  0
    1.7894   -4.0495   -2.9360 C   0  0  0  0  0  0  0  0  0  0  0  0
    2.2301   -1.8010   -2.1202 C   0  0  0  0  0  0  0  0  0  0  0  0
    2.1413   -3.1914   -1.8828 C   0  0  0  0  0  0  0  0  0  0  0  0
    2.5906   -0.7554   -1.1170 C   0  0  0  0  0  0  0  0  0  0  0  0
    2.3944   -3.6939   -0.6442 O   0  0  0  0  0  0  0  0  0  0  0  0
    2.6498    0.4317   -1.3847 O   0  0  0  0  0  0  0  0  0  0  0  0
    2.8474   -1.2360    0.1148 O   0  0  0  0  0  0  0  0  0  0  0  0
    3.3548   -0.7981    2.0190 H   0  0  0  0  0  0  0  0  0  0  0  0
    2.3893    0.4827    1.2104 H   0  0  0  0  0  0  0  0  0  0  0  0
    4.1073    0.2830    0.7984 H   0  0  0  0  0  0  0  0  0  0  0  0
    1.4063   -1.7834   -5.4446 H   0  0  0  0  0  0  0  0  0  0  0  0
    1.2546   -4.2408   -5.0037 H   0  0  0  0  0  0  0  0  0  0  0  0
    2.0338   -0.2575   -3.5720 H   0  0  0  0  0  0  0  0  0  0  0  0
    1.7230   -5.1193   -2.7435 H   0  0  0  0  0  0  0  0  0  0  0  0
    2.2824   -4.6574   -0.6804 H   0  0  0  0  0  0  0  0  0  0  0  0
  1 13  1  0  0  0  0
  1 12  1  0  0  0  0
  2  3  2  0  0  0  0
  2  4  1  0  0  0  0
  3  5  1  0  0  0  0
  4  6  2  0  0  0  0
  5 18  1  0  0  0  0
  5  7  2  0  0  0  0
  6  7  1  0  0  0  0
  6  8  1  0  0  0  0
  7  9  1  0  0  0  0
  8 11  1  0  0  0  0
 10  8  2  0  0  0  0
 11  1  1  0  0  0  0
 14  1  1  0  0  0  0
 15  2  1  0  0  0  0
 16  3  1  0  0  0  0
 17  4  1  0  0  0  0
 19  9  1  0  0  0  0
M  END
>  <HBA>
3

>  <HBD>
1

>  <TPSA>
46.53

>  <cid>
4133

>  <dipole>
3.19

>  <excitation_energy_1>
4.521

>  <excitation_energy_2>
4.901

>  <excitation_energy_3>
5.41

>  <excitation_energy_4>
5.422

>  <homo_energy>
-6.27

>  <homo_lumo_gap>
5.222

>  <logP>
1.179

>  <lumo_energy>
-1.048

>  <melting_point>
70.24

>  <molecular_refractivity>
39.74

>  <oscillator_strength_1>
0.0841

>  <oscillator_strength_2>
0.0001

>  <oscillator_strength_3>
0.0

>  <oscillator_strength_4>
0.1378

>  <open_babel_can_smiles>
COC(=O)c1ccccc1O

>  <mulliken_charges>
19
1   -0.215376
2   -0.139866
3   -0.122379
4   -0.167969
5   -0.197981
6   0.033559
7   0.302013
8   0.599173
9   -0.615592
10   -0.499492
11   -0.446537
12   0.162515
13   0.16856
14   0.16793
15   0.134903
16   0.137956
17   0.168553
18   0.121396
19   0.408635

>  <lowdin_charges>
19
1   -0.279078
2   -0.17924
3   -0.131241
4   -0.116616
5   -0.214007
6   -0.077643
7   0.117874
8   0.195878
9   -0.351096
10   -0.280745
11   -0.17294
12   0.1594
13   0.159297
14   0.158442
15   0.161299
16   0.163321
17   0.178892
18   0.152878
19   0.355325

$$$$

