PCCDB-ID:  23352
public computational chemistry database (PCCDB) project, http://pccdb.org

 16 16  0  0  0  0  0  0  0  0999 V2000
    0.8973   -0.0583   -0.2080 C   0  0  0  0  0  0  0  0  0  0  0  0
    2.8117   -0.1162    1.4443 C   0  0  0  0  0  0  0  0  0  0  0  0
    3.1737    0.9960   -0.8724 C   0  0  0  0  0  0  0  0  0  0  0  0
    3.1691   -1.0752   -0.9405 C   0  0  0  0  0  0  0  0  0  0  0  0
    2.4158   -0.0667   -0.0313 C   0  0  0  0  0  0  0  0  0  0  0  0
    3.8303   -0.0161   -1.6662 O   0  0  0  0  0  0  0  0  0  0  0  0
    0.4472    0.8085    0.2919 H   0  0  0  0  0  0  0  0  0  0  0  0
    0.4458   -0.9608    0.2229 H   0  0  0  0  0  0  0  0  0  0  0  0
    0.6190   -0.0172   -1.2675 H   0  0  0  0  0  0  0  0  0  0  0  0
    2.4163    0.7516    1.9870 H   0  0  0  0  0  0  0  0  0  0  0  0
    3.9011   -0.1205    1.5653 H   0  0  0  0  0  0  0  0  0  0  0  0
    2.4162   -1.0183    1.9277 H   0  0  0  0  0  0  0  0  0  0  0  0
    3.8940    1.6138   -0.3184 H   0  0  0  0  0  0  0  0  0  0  0  0
    2.5413    1.6521   -1.4865 H   0  0  0  0  0  0  0  0  0  0  0  0
    2.5339   -1.6869   -1.5960 H   0  0  0  0  0  0  0  0  0  0  0  0
    3.8867   -1.7311   -0.4281 H   0  0  0  0  0  0  0  0  0  0  0  0
  1  5  1  0  0  0  0
  1  8  1  0  0  0  0
  1  7  1  0  0  0  0
  2 11  1  0  0  0  0
  2 12  1  0  0  0  0
  2 10  1  0  0  0  0
  3 13  1  0  0  0  0
  3  5  1  0  0  0  0
  4 16  1  0  0  0  0
  4  5  1  0  0  0  0
  5  2  1  0  0  0  0
  6  4  1  0  0  0  0
  6  3  1  0  0  0  0
  9  1  1  0  0  0  0
 14  3  1  0  0  0  0
 15  4  1  0  0  0  0
M  END
>  <HBA>
1

>  <HBD>
0

>  <TPSA>
9.23

>  <cid>
23352

>  <dipole>
2.05

>  <excitation_energy_1>
6.151

>  <excitation_energy_2>
6.382

>  <excitation_energy_3>
6.8

>  <excitation_energy_4>
6.885

>  <homo_energy>
-6.574

>  <homo_lumo_gap>
8.599

>  <logP>
1.043

>  <lumo_energy>
2.025

>  <melting_point>
6.42

>  <molecular_refractivity>
24.86

>  <oscillator_strength_1>
0.0234

>  <oscillator_strength_2>
0.0004

>  <oscillator_strength_3>
0.0

>  <oscillator_strength_4>
0.0028

>  <open_babel_can_smiles>
CC1(C)COC1

>  <mulliken_charges>
16
1   -0.465831
2   -0.465422
3   -0.007637
4   -0.007513
5   0.046352
6   -0.501358
7   0.145488
8   0.145498
9   0.150632
10   0.145435
11   0.150651
12   0.14544
13   0.129602
14   0.129564
15   0.129555
16   0.129543

>  <lowdin_charges>
16
1   -0.443923
2   -0.443104
3   -0.127761
4   -0.127569
5   -0.007735
6   -0.305139
7   0.151365
8   0.151123
9   0.151219
10   0.151328
11   0.150684
12   0.151114
13   0.13714
14   0.137086
15   0.13711
16   0.137063

$$$$

