PCCDB-ID:  34552
public computational chemistry database (PCCDB) project, http://pccdb.org

 36 37  0  0  0  0  0  0  0  0999 V2000
    0.9793    0.5611   -0.4871 C   0  0  0  0  0  0  0  0  0  0  0  0
   12.9312   -1.3226   -1.6782 C   0  0  0  0  0  0  0  0  0  0  0  0
    8.3577   -3.2405   -0.7535 C   0  0  0  0  0  0  0  0  0  0  0  0
    9.0032    1.7915   -1.5869 C   0  0  0  0  0  0  0  0  0  0  0  0
    3.1419    1.4320   -1.4874 C   0  0  0  0  0  0  0  0  0  0  0  0
    3.2179   -0.5834   -0.1724 C   0  0  0  0  0  0  0  0  0  0  0  0
    4.5182    1.3481   -1.6903 C   0  0  0  0  0  0  0  0  0  0  0  0
    4.5877   -0.6790   -0.3701 C   0  0  0  0  0  0  0  0  0  0  0  0
   10.6002   -2.2098   -1.2294 C   0  0  0  0  0  0  0  0  0  0  0  0
   10.8701    0.1410   -1.6135 C   0  0  0  0  0  0  0  0  0  0  0  0
    2.4675    0.4711   -0.7253 C   0  0  0  0  0  0  0  0  0  0  0  0
   11.4432   -1.1316   -1.5073 C   0  0  0  0  0  0  0  0  0  0  0  0
    9.2257   -2.0425   -1.0623 C   0  0  0  0  0  0  0  0  0  0  0  0
    9.5000    0.3699   -1.4755 C   0  0  0  0  0  0  0  0  0  0  0  0
    5.2536    0.2921   -1.1395 C   0  0  0  0  0  0  0  0  0  0  0  0
    8.6625   -0.7487   -1.2033 C   0  0  0  0  0  0  0  0  0  0  0  0
    6.6465    0.3048   -1.4087 N   0  0  0  0  0  0  0  0  0  0  0  0
    7.2682   -0.7156   -0.9970 N   0  0  0  0  0  0  0  0  0  0  0  0
    0.5292    1.3742   -1.0650 H   0  0  0  0  0  0  0  0  0  0  0  0
    0.7547    0.7423    0.5721 H   0  0  0  0  0  0  0  0  0  0  0  0
    0.4723   -0.3709   -0.7656 H   0  0  0  0  0  0  0  0  0  0  0  0
   13.2168   -2.3713   -1.5506 H   0  0  0  0  0  0  0  0  0  0  0  0
   13.4966   -0.7292   -0.9488 H   0  0  0  0  0  0  0  0  0  0  0  0
   13.2620   -1.0035   -2.6745 H   0  0  0  0  0  0  0  0  0  0  0  0
    8.9746   -4.1353   -0.6221 H   0  0  0  0  0  0  0  0  0  0  0  0
    7.6388   -3.4372   -1.5563 H   0  0  0  0  0  0  0  0  0  0  0  0
    7.7711   -3.0846    0.1572 H   0  0  0  0  0  0  0  0  0  0  0  0
    9.8525    2.4835   -1.5913 H   0  0  0  0  0  0  0  0  0  0  0  0
    8.3388    2.0565   -0.7583 H   0  0  0  0  0  0  0  0  0  0  0  0
    8.4192    1.9477   -2.4988 H   0  0  0  0  0  0  0  0  0  0  0  0
    2.5840    2.2563   -1.9254 H   0  0  0  0  0  0  0  0  0  0  0  0
    2.7111   -1.3379    0.4262 H   0  0  0  0  0  0  0  0  0  0  0  0
    5.0451    2.0917   -2.2810 H   0  0  0  0  0  0  0  0  0  0  0  0
    5.1625   -1.4921    0.0588 H   0  0  0  0  0  0  0  0  0  0  0  0
   11.0245   -3.2068   -1.1324 H   0  0  0  0  0  0  0  0  0  0  0  0
   11.5172    0.9942   -1.8098 H   0  0  0  0  0  0  0  0  0  0  0  0
  1 20  1  0  0  0  0
  2 22  1  0  0  0  0
  2 12  1  0  0  0  0
  2 23  1  0  0  0  0
  3 25  1  0  0  0  0
  3 27  1  0  0  0  0
  4 14  1  0  0  0  0
  4 29  1  0  0  0  0
  5 11  1  0  0  0  0
  6 32  1  0  0  0  0
  7  5  2  0  0  0  0
  7 15  1  0  0  0  0
  8  6  1  0  0  0  0
  8 34  1  0  0  0  0
  9 35  1  0  0  0  0
  9 13  2  0  0  0  0
 10 12  2  0  0  0  0
 10 14  1  0  0  0  0
 11  1  1  0  0  0  0
 11  6  2  0  0  0  0
 12  9  1  0  0  0  0
 13  3  1  0  0  0  0
 14 16  2  0  0  0  0
 15  8  2  0  0  0  0
 16 13  1  0  0  0  0
 16 18  1  0  0  0  0
 17 15  1  0  0  0  0
 17 18  1  0  0  0  0
 19  1  1  0  0  0  0
 21  1  1  0  0  0  0
 24  2  1  0  0  0  0
 26  3  1  0  0  0  0
 28  4  1  0  0  0  0
 30  4  1  0  0  0  0
 31  5  1  0  0  0  0
 33  7  1  0  0  0  0
 36 10  1  0  0  0  0
M  RAD  2  17   2  18   2
M  END
>  <HBA>
2

>  <HBD>
0

>  <TPSA>
24.72

>  <cid>
34552

>  <dipole>
0.31

>  <excitation_energy_1>
2.508

>  <excitation_energy_2>
3.522

>  <excitation_energy_3>
3.728

>  <excitation_energy_4>
4.146

>  <homo_energy>
-5.622

>  <homo_lumo_gap>
3.69

>  <logP>
5.336

>  <lumo_energy>
-1.932

>  <melting_point>
80.17

>  <molecular_refractivity>
76.92

>  <oscillator_strength_1>
0.0171

>  <oscillator_strength_2>
0.8391

>  <oscillator_strength_3>
0.0262

>  <oscillator_strength_4>
0.0124

>  <open_babel_can_smiles>
Cc1ccc(cc1)[N][N]c1c(C)cc(cc1C)C

>  <mulliken_charges>
36
1   -0.532173
2   -0.534546
3   -0.513387
4   -0.499571
5   -0.193587
6   -0.194284
7   -0.140219
8   -0.125782
9   -0.269111
10   -0.268711
11   0.187974
12   0.217535
13   0.168679
14   0.196975
15   0.26874
16   0.170609
17   -0.325997
18   -0.321437
19   0.15705
20   0.166293
21   0.163828
22   0.156707
23   0.164444
24   0.164993
25   0.143616
26   0.167293
27   0.170669
28   0.137777
29   0.166064
30   0.173915
31   0.125666
32   0.126018
33   0.13847
34   0.151995
35   0.116608
36   0.116887

>  <lowdin_charges>
36
1   -0.442522
2   -0.441701
3   -0.44122
4   -0.440648
5   -0.17104
6   -0.163882
7   -0.148582
8   -0.152367
9   -0.187002
10   -0.183957
11   0.009991
12   0.014826
13   0.014239
14   0.01567
15   0.006371
16   -0.009189
17   -0.081701
18   -0.083869
19   0.15883
20   0.161648
21   0.162086
22   0.15625
23   0.163585
24   0.162173
25   0.15079
26   0.165602
27   0.166267
28   0.146698
29   0.166346
30   0.16834
31   0.157208
32   0.156841
33   0.166893
34   0.172188
35   0.151969
36   0.152872

$$$$

