PCCDB-ID:  68512
public computational chemistry database (PCCDB) project, http://pccdb.org

 19 19  0  0  0  0  0  0  0  0999 V2000
    0.9289    0.0208   -0.0278 C   0  0  0  0  0  0  0  0  0  0  0  0
    3.1265   -1.2449   -0.2123 C   0  0  0  0  0  0  0  0  0  0  0  0
    4.5170   -1.2878   -0.3309 C   0  0  0  0  0  0  0  0  0  0  0  0
    4.5656    1.1275   -0.3111 C   0  0  0  0  0  0  0  0  0  0  0  0
    2.4282   -0.0380   -0.1522 C   0  0  0  0  0  0  0  0  0  0  0  0
    5.2451   -0.0944   -0.3896 C   0  0  0  0  0  0  0  0  0  0  0  0
    3.1788    1.1548   -0.2004 C   0  0  0  0  0  0  0  0  0  0  0  0
    6.7378   -0.0404   -0.5064 C   0  0  0  0  0  0  0  0  0  0  0  0
    2.4731    2.3236   -0.1303 O   0  0  0  0  0  0  0  0  0  0  0  0
    7.3943    0.9326   -0.2160 O   0  0  0  0  0  0  0  0  0  0  0  0
    7.3564   -1.1605   -0.9705 O   0  0  0  0  0  0  0  0  0  0  0  0
    0.4957   -0.9835   -0.0196 H   0  0  0  0  0  0  0  0  0  0  0  0
    0.4849    0.5843   -0.8569 H   0  0  0  0  0  0  0  0  0  0  0  0
    0.6288    0.5354    0.8928 H   0  0  0  0  0  0  0  0  0  0  0  0
    2.5666   -2.1750   -0.1571 H   0  0  0  0  0  0  0  0  0  0  0  0
    5.0151   -2.2543   -0.3267 H   0  0  0  0  0  0  0  0  0  0  0  0
    5.1462    2.0461   -0.3374 H   0  0  0  0  0  0  0  0  0  0  0  0
    3.0928    3.0696   -0.1582 H   0  0  0  0  0  0  0  0  0  0  0  0
    6.6949   -1.7894   -1.3017 H   0  0  0  0  0  0  0  0  0  0  0  0
  1 12  1  0  0  0  0
  1 14  1  0  0  0  0
  2 15  1  0  0  0  0
  2  5  2  0  0  0  0
  3 16  1  0  0  0  0
  3  2  1  0  0  0  0
  4  7  2  0  0  0  0
  5  1  1  0  0  0  0
  6  3  2  0  0  0  0
  6  4  1  0  0  0  0
  7  5  1  0  0  0  0
  7  9  1  0  0  0  0
  8  6  1  0  0  0  0
  8 10  2  0  0  0  0
 11  8  1  0  0  0  0
 13  1  1  0  0  0  0
 17  4  1  0  0  0  0
 18  9  1  0  0  0  0
 19 11  1  0  0  0  0
M  END
>  <HBA>
3

>  <HBD>
2

>  <TPSA>
57.53

>  <cid>
68512

>  <dipole>
3.94

>  <excitation_energy_1>
4.528

>  <excitation_energy_2>
4.765

>  <excitation_energy_3>
5.197

>  <excitation_energy_4>
5.543

>  <homo_energy>
-6.46

>  <homo_lumo_gap>
5.184

>  <logP>
1.399

>  <lumo_energy>
-1.276

>  <melting_point>
140.46

>  <molecular_refractivity>
40.39

>  <oscillator_strength_1>
0.061

>  <oscillator_strength_2>
0.0173

>  <oscillator_strength_3>
0.0936

>  <oscillator_strength_4>
0.0039

>  <open_babel_can_smiles>
OC(=O)c1ccc(c(c1)O)C

>  <mulliken_charges>
19
1   -0.515799
2   -0.194602
3   -0.203711
4   -0.225172
5   0.150246
6   0.052779
7   0.303536
8   0.55014
9   -0.640234
10   -0.451161
11   -0.576696
12   0.152766
13   0.17475
14   0.175521
15   0.134106
16   0.12899
17   0.157531
18   0.415362
19   0.411648

>  <lowdin_charges>
19
1   -0.437335
2   -0.154917
3   -0.186766
4   -0.187346
5   -0.009164
6   -0.052195
7   0.097339
8   0.19671
9   -0.373944
10   -0.246106
11   -0.357819
12   0.156852
13   0.169847
14   0.169547
15   0.161586
16   0.155845
17   0.175539
18   0.363947
19   0.35838

$$$$

