PCCDB-ID:  70490
public computational chemistry database (PCCDB) project, http://pccdb.org

 26 26  0  0  1  0  0  0  0  0999 V2000
    2.7721   -1.4209    0.4863 C   0  0  0  0  0  0  0  0  0  0  0  0
    0.7490   -0.1194   -0.3129 C   0  0  0  0  0  0  0  0  0  0  0  0
    3.0973    3.6543    0.9394 C   0  0  0  0  0  0  0  0  0  0  0  0
    2.5244    3.6827    2.3622 C   0  0  0  0  0  0  0  0  0  0  0  0
    2.5029    2.4967    0.1255 C   0  0  0  0  0  0  0  0  0  0  0  0
    2.7277    2.3290    3.0722 C   0  0  0  0  0  0  0  0  0  0  0  0
    2.2673   -0.0780   -0.0675 C   0  0  0  0  0  0  0  0  0  0  0  0
    2.7408    1.1170    0.7968 C   0  0  2  0  0  0  0  0  0  0  0  0
    2.2070    1.1643    2.2334 C   0  0  0  0  0  0  0  0  0  0  0  0
    1.4256    0.3531    2.6981 O   0  0  0  0  0  0  0  0  0  0  0  0
    2.5351   -2.2357   -0.2080 H   0  0  0  0  0  0  0  0  0  0  0  0
    2.3055   -1.6476    1.4487 H   0  0  0  0  0  0  0  0  0  0  0  0
    3.8607   -1.4108    0.6258 H   0  0  0  0  0  0  0  0  0  0  0  0
    0.5021   -0.9450   -0.9910 H   0  0  0  0  0  0  0  0  0  0  0  0
    0.3821    0.8028   -0.7777 H   0  0  0  0  0  0  0  0  0  0  0  0
    0.2056   -0.2725    0.6229 H   0  0  0  0  0  0  0  0  0  0  0  0
    4.1909    3.5447    0.9862 H   0  0  0  0  0  0  0  0  0  0  0  0
    2.9004    4.6079    0.4338 H   0  0  0  0  0  0  0  0  0  0  0  0
    1.4493    3.9055    2.3168 H   0  0  0  0  0  0  0  0  0  0  0  0
    2.9852    4.4840    2.9525 H   0  0  0  0  0  0  0  0  0  0  0  0
    2.9360    2.4757   -0.8827 H   0  0  0  0  0  0  0  0  0  0  0  0
    1.4248    2.6631   -0.0010 H   0  0  0  0  0  0  0  0  0  0  0  0
    2.2298    2.2975    4.0457 H   0  0  0  0  0  0  0  0  0  0  0  0
    3.8039    2.1708    3.2401 H   0  0  0  0  0  0  0  0  0  0  0  0
    2.7505    0.0707   -1.0461 H   0  0  0  0  0  0  0  0  0  0  0  0
    3.8353    1.0212    0.9061 H   0  0  0  0  0  0  0  0  0  0  0  0
  1 13  1  0  0  0  0
  1 12  1  0  0  0  0
  2  7  1  0  0  0  0
  2 16  1  0  0  0  0
  3 17  1  0  0  0  0
  3  4  1  0  0  0  0
  4 20  1  0  0  0  0
  4  6  1  0  0  0  0
  5  8  1  0  0  0  0
  5  3  1  0  0  0  0
  6 24  1  0  0  0  0
  6 23  1  0  0  0  0
  7  1  1  0  0  0  0
  7  8  1  0  0  0  0
  8 26  1  1  0  0  0
  8  9  1  0  0  0  0
  9 10  2  0  0  0  0
  9  6  1  0  0  0  0
 11  1  1  0  0  0  0
 14  2  1  0  0  0  0
 15  2  1  0  0  0  0
 18  3  1  0  0  0  0
 19  4  1  0  0  0  0
 21  5  1  0  0  0  0
 22  5  1  0  0  0  0
 25  7  1  0  0  0  0
M  END
>  <HBA>
1

>  <HBD>
0

>  <TPSA>
17.07

>  <cid>
70490

>  <dipole>
2.83

>  <excitation_energy_1>
4.114

>  <excitation_energy_2>
5.943

>  <excitation_energy_3>
6.231

>  <excitation_energy_4>
6.317

>  <homo_energy>
-6.327

>  <homo_lumo_gap>
5.938

>  <logP>
2.402

>  <lumo_energy>
-0.389

>  <melting_point>
15.41

>  <molecular_refractivity>
43.46

>  <oscillator_strength_1>
0.0001

>  <oscillator_strength_2>
0.001

>  <oscillator_strength_3>
0.0036

>  <oscillator_strength_4>
0.0144

>  <open_babel_can_smiles>
CC([C@H]1CCCCC1=O)C

>  <mulliken_charges>
26
1   -0.458857
2   -0.461376
3   -0.266213
4   -0.268545
5   -0.274898
6   -0.340152
7   -0.057483
8   -0.169817
9   0.451756
10   -0.452454
11   0.136883
12   0.174268
13   0.128406
14   0.136346
15   0.134318
16   0.176113
17   0.132285
18   0.139867
19   0.145055
20   0.142945
21   0.140487
22   0.145509
23   0.162049
24   0.151652
25   0.115835
26   0.136022

>  <lowdin_charges>
26
1   -0.449078
2   -0.454831
3   -0.276891
4   -0.273453
5   -0.272795
6   -0.304512
7   -0.114404
8   -0.160225
9   0.16274
10   -0.237203
11   0.147928
12   0.162286
13   0.139457
14   0.148366
15   0.143619
16   0.163586
17   0.137208
18   0.149071
19   0.143562
20   0.150755
21   0.147688
22   0.143764
23   0.162563
24   0.156105
25   0.134842
26   0.149852

$$$$

