PCCDB-ID:  22619
public computational chemistry database (PCCDB) project, http://pccdb.org

 43 43  0  0  0  0  0  0  0  0999 V2000
    2.8790    1.7623    1.5610 C   0  0  0  0  0  0  0  0  0  0  0  0
    1.0355    2.8810   -2.1156 C   0  0  0  0  0  0  0  0  0  0  0  0
    7.8109   -0.1070   -1.6928 C   0  0  0  0  0  0  0  0  0  0  0  0
    8.5480    1.9508   -0.3421 C   0  0  0  0  0  0  0  0  0  0  0  0
    2.6082    2.9346    0.6163 C   0  0  0  0  0  0  0  0  0  0  0  0
    2.3894    3.4911   -1.7475 C   0  0  0  0  0  0  0  0  0  0  0  0
    8.4005    4.5824   -4.9944 C   0  0  0  0  0  0  0  0  0  0  0  0
    9.1189    3.5233   -4.4402 C   0  0  0  0  0  0  0  0  0  0  0  0
    7.1016    4.8078   -4.5377 C   0  0  0  0  0  0  0  0  0  0  0  0
    8.5599    2.7029   -3.4624 C   0  0  0  0  0  0  0  0  0  0  0  0
    6.5374    4.0057   -3.5494 C   0  0  0  0  0  0  0  0  0  0  0  0
    4.5687    2.9101   -0.8354 C   0  0  0  0  0  0  0  0  0  0  0  0
    5.2018    2.0179   -1.9211 C   0  0  0  0  0  0  0  0  0  0  0  0
    7.3968    1.2441   -1.0755 C   0  0  0  0  0  0  0  0  0  0  0  0
    7.2492    2.9226   -2.9816 C   0  0  0  0  0  0  0  0  0  0  0  0
    3.1201    2.7079   -0.7415 N   0  0  0  0  0  0  0  0  0  0  0  0
    6.6565    2.1197   -2.0033 N   0  0  0  0  0  0  0  0  0  0  0  0
    2.4554    1.9651    2.5515 H   0  0  0  0  0  0  0  0  0  0  0  0
    3.9508    1.5779    1.6949 H   0  0  0  0  0  0  0  0  0  0  0  0
    2.4270    0.8458    1.1680 H   0  0  0  0  0  0  0  0  0  0  0  0
    0.5456    3.4818   -2.8907 H   0  0  0  0  0  0  0  0  0  0  0  0
    0.3554    2.8339   -1.2580 H   0  0  0  0  0  0  0  0  0  0  0  0
    1.1689    1.8625   -2.4945 H   0  0  0  0  0  0  0  0  0  0  0  0
    8.1893   -0.7782   -0.9122 H   0  0  0  0  0  0  0  0  0  0  0  0
    8.5924   -0.0038   -2.4509 H   0  0  0  0  0  0  0  0  0  0  0  0
    6.9496   -0.5912   -2.1661 H   0  0  0  0  0  0  0  0  0  0  0  0
    8.9304    1.2965    0.4498 H   0  0  0  0  0  0  0  0  0  0  0  0
    8.1920    2.8776    0.1197 H   0  0  0  0  0  0  0  0  0  0  0  0
    9.3844    2.2037   -0.9973 H   0  0  0  0  0  0  0  0  0  0  0  0
    3.0122    3.8719    1.0465 H   0  0  0  0  0  0  0  0  0  0  0  0
    1.5248    3.0753    0.5467 H   0  0  0  0  0  0  0  0  0  0  0  0
    2.2580    4.5413   -1.4205 H   0  0  0  0  0  0  0  0  0  0  0  0
    3.0032    3.5313   -2.6537 H   0  0  0  0  0  0  0  0  0  0  0  0
    8.8403    5.2143   -5.7602 H   0  0  0  0  0  0  0  0  0  0  0  0
   10.1296    3.3126   -4.7822 H   0  0  0  0  0  0  0  0  0  0  0  0
    6.5161    5.6304   -4.9419 H   0  0  0  0  0  0  0  0  0  0  0  0
    9.1442    1.8710   -3.0935 H   0  0  0  0  0  0  0  0  0  0  0  0
    5.5397    4.2416   -3.1967 H   0  0  0  0  0  0  0  0  0  0  0  0
    4.8303    3.9699   -1.0117 H   0  0  0  0  0  0  0  0  0  0  0  0
    5.0220    2.6434    0.1251 H   0  0  0  0  0  0  0  0  0  0  0  0
    4.7740    2.2407   -2.9032 H   0  0  0  0  0  0  0  0  0  0  0  0
    4.9267    0.9787   -1.7006 H   0  0  0  0  0  0  0  0  0  0  0  0
    6.6625    1.0047   -0.2970 H   0  0  0  0  0  0  0  0  0  0  0  0
  1 19  1  0  0  0  0
  1 18  1  0  0  0  0
  2  6  1  0  0  0  0
  2 22  1  0  0  0  0
  3 14  1  0  0  0  0
  3 24  1  0  0  0  0
  4 28  1  0  0  0  0
  4 27  1  0  0  0  0
  5 30  1  0  0  0  0
  5  1  1  0  0  0  0
  6 32  1  0  0  0  0
  6 16  1  0  0  0  0
  7  9  2  0  0  0  0
  7  8  1  0  0  0  0
  8 10  2  0  0  0  0
  9 11  1  0  0  0  0
 10 37  1  0  0  0  0
 10 15  1  0  0  0  0
 11 38  1  0  0  0  0
 11 15  2  0  0  0  0
 12 16  1  0  0  0  0
 12 40  1  0  0  0  0
 13 42  1  0  0  0  0
 13 12  1  0  0  0  0
 14  4  1  0  0  0  0
 14 43  1  0  0  0  0
 15 17  1  0  0  0  0
 16  5  1  0  0  0  0
 17 13  1  0  0  0  0
 17 14  1  0  0  0  0
 20  1  1  0  0  0  0
 21  2  1  0  0  0  0
 23  2  1  0  0  0  0
 25  3  1  0  0  0  0
 26  3  1  0  0  0  0
 29  4  1  0  0  0  0
 31  5  1  0  0  0  0
 33  6  1  0  0  0  0
 34  7  1  0  0  0  0
 35  8  1  0  0  0  0
 36  9  1  0  0  0  0
 39 12  1  0  0  0  0
 41 13  1  0  0  0  0
M  END
>  <HBA>
2

>  <HBD>
0

>  <TPSA>
6.48

>  <cid>
22619

>  <dipole>
1.73

>  <excitation_energy_1>
4.35

>  <excitation_energy_2>
4.447

>  <excitation_energy_3>
4.671

>  <excitation_energy_4>
4.746

>  <homo_energy>
-4.879

>  <homo_lumo_gap>
5.236

>  <logP>
3.243

>  <lumo_energy>
0.356

>  <melting_point>
10.65

>  <molecular_refractivity>
77.19

>  <oscillator_strength_1>
0.0231

>  <oscillator_strength_2>
0.0091

>  <oscillator_strength_3>
0.0044

>  <oscillator_strength_4>
0.0797

>  <open_babel_can_smiles>
CCN(CCN(c1ccccc1)C(C)C)CC

>  <mulliken_charges>
43
1   -0.440557
2   -0.44026
3   -0.446255
4   -0.451021
5   -0.121625
6   -0.129009
7   -0.138674
8   -0.13856
9   -0.137971
10   -0.184142
11   -0.190481
12   -0.137801
13   -0.157746
14   0.033746
15   0.35092
16   -0.377778
17   -0.49507
18   0.140542
19   0.142724
20   0.154203
21   0.140661
22   0.146561
23   0.154164
24   0.140279
25   0.157328
26   0.15052
27   0.141409
28   0.153704
29   0.158113
30   0.114859
31   0.138971
32   0.115473
33   0.142901
34   0.116766
35   0.120215
36   0.120179
37   0.119999
38   0.123312
39   0.129247
40   0.13906
41   0.15343
42   0.150155
43   0.137509

>  <lowdin_charges>
43
1   -0.447521
2   -0.45032
3   -0.458753
4   -0.454953
5   -0.195448
6   -0.196632
7   -0.192836
8   -0.148664
9   -0.150407
10   -0.211325
11   -0.209935
12   -0.213899
13   -0.202958
14   -0.049385
15   0.063568
16   -0.193731
17   -0.12761
18   0.150255
19   0.144072
20   0.154311
21   0.152062
22   0.148232
23   0.153256
24   0.150911
25   0.153201
26   0.154654
27   0.15275
28   0.156259
29   0.15767
30   0.119899
31   0.14357
32   0.118508
33   0.144595
34   0.15405
35   0.152421
36   0.154248
37   0.156358
38   0.153995
39   0.125308
40   0.144979
41   0.151017
42   0.14673
43   0.147499

$$$$

