PCCDB-ID:  13663
public computational chemistry database (PCCDB) project, http://pccdb.org

 23 24  0  0  0  0  0  0  0  0999 V2000
    1.5836   -0.6189    1.3035 C   0  0  0  0  0  0  0  0  0  0  0  0
    2.4422   -5.1583   -1.6408 C   0  0  0  0  0  0  0  0  0  0  0  0
    1.5321   -4.4993   -0.7834 C   0  0  0  0  0  0  0  0  0  0  0  0
    4.5808   -0.9127   -2.6723 C   0  0  0  0  0  0  0  0  0  0  0  0
    3.4109   -4.4300   -2.2903 C   0  0  0  0  0  0  0  0  0  0  0  0
    4.4980   -2.2781   -2.8146 C   0  0  0  0  0  0  0  0  0  0  0  0
    1.6195   -3.1402   -0.5733 C   0  0  0  0  0  0  0  0  0  0  0  0
    3.7098   -0.2476   -1.7866 C   0  0  0  0  0  0  0  0  0  0  0  0
    1.9965   -0.0786   -0.0608 C   0  0  0  0  0  0  0  0  0  0  0  0
    3.5235   -3.0260   -2.1030 C   0  0  0  0  0  0  0  0  0  0  0  0
    2.7692   -0.9335   -1.0326 C   0  0  0  0  0  0  0  0  0  0  0  0
    2.6275   -2.3545   -1.2000 C   0  0  0  0  0  0  0  0  0  0  0  0
    1.7706    1.0921   -0.3280 O   0  0  0  0  0  0  0  0  0  0  0  0
    2.1632   -1.4895    1.6198 H   0  0  0  0  0  0  0  0  0  0  0  0
    0.5210   -0.8925    1.2952 H   0  0  0  0  0  0  0  0  0  0  0  0
    1.6990    0.1918    2.0281 H   0  0  0  0  0  0  0  0  0  0  0  0
    2.3642   -6.2309   -1.7944 H   0  0  0  0  0  0  0  0  0  0  0  0
    0.7482   -5.0686   -0.2913 H   0  0  0  0  0  0  0  0  0  0  0  0
    5.3194   -0.3437   -3.2297 H   0  0  0  0  0  0  0  0  0  0  0  0
    4.1045   -4.9179   -2.9711 H   0  0  0  0  0  0  0  0  0  0  0  0
    5.1721   -2.8068   -3.4845 H   0  0  0  0  0  0  0  0  0  0  0  0
    0.8869   -2.6647    0.0660 H   0  0  0  0  0  0  0  0  0  0  0  0
    3.7762    0.8281   -1.6612 H   0  0  0  0  0  0  0  0  0  0  0  0
  1 14  1  0  0  0  0
  1 16  1  0  0  0  0
  2  3  2  0  0  0  0
  3  7  1  0  0  0  0
  3 18  1  0  0  0  0
  4  8  1  0  0  0  0
  5 10  2  0  0  0  0
  5  2  1  0  0  0  0
  6  4  2  0  0  0  0
  6 10  1  0  0  0  0
  7 22  1  0  0  0  0
  8 23  1  0  0  0  0
  8 11  2  0  0  0  0
  9  1  1  0  0  0  0
 10 12  1  0  0  0  0
 11  9  1  0  0  0  0
 12 11  1  0  0  0  0
 12  7  2  0  0  0  0
 13  9  2  0  0  0  0
 15  1  1  0  0  0  0
 17  2  1  0  0  0  0
 19  4  1  0  0  0  0
 20  5  1  0  0  0  0
 21  6  1  0  0  0  0
M  END
>  <HBA>
1

>  <HBD>
0

>  <TPSA>
17.07

>  <cid>
13663

>  <dipole>
3.07

>  <excitation_energy_1>
3.658

>  <excitation_energy_2>
3.936

>  <excitation_energy_3>
4.253

>  <excitation_energy_4>
4.907

>  <homo_energy>
-6.065

>  <homo_lumo_gap>
4.359

>  <logP>
3.042

>  <lumo_energy>
-1.706

>  <melting_point>
83.55

>  <molecular_refractivity>
54.14

>  <oscillator_strength_1>
0.0189

>  <oscillator_strength_2>
0.1147

>  <oscillator_strength_3>
0.0134

>  <oscillator_strength_4>
0.0107

>  <open_babel_can_smiles>
CC(=O)c1cccc2c1cccc2

>  <mulliken_charges>
23
1   -0.540125
2   -0.131633
3   -0.137264
4   -0.134504
5   -0.192118
6   -0.180399
7   -0.193526
8   -0.164045
9   0.384533
10   0.129654
11   0.006481
12   0.091395
13   -0.446053
14   0.168983
15   0.180627
16   0.182747
17   0.134613
18   0.134422
19   0.138589
20   0.134096
21   0.136613
22   0.134223
23   0.162691

>  <lowdin_charges>
23
1   -0.477527
2   -0.15568
3   -0.153072
4   -0.161227
5   -0.153016
6   -0.14149
7   -0.166846
8   -0.124729
9   0.162698
10   -0.000311
11   -0.050313
12   0.001062
13   -0.243681
14   0.165289
15   0.172961
16   0.178232
17   0.159171
18   0.161864
19   0.164297
20   0.160774
21   0.162148
22   0.165101
23   0.174294

$$$$

