PCCDB-ID:  8113
public computational chemistry database (PCCDB) project, http://pccdb.org

 18 17  0  0  0  0  0  0  0  0999 V2000
    0.3129   -0.0724    0.1037 C   0  0  0  0  0  0  0  0  0  0  0  0
    2.1803   -0.6801   -1.3945 C   0  0  0  0  0  0  0  0  0  0  0  0
   -0.1334    1.0679    1.0200 C   0  0  0  0  0  0  0  0  0  0  0  0
    3.5722   -0.2363   -1.8393 C   0  0  0  0  0  0  0  0  0  0  0  0
    1.6920    0.1903   -0.3246 N   0  0  0  0  0  0  0  0  0  0  0  0
    0.0306    2.3169    0.3768 O   0  0  0  0  0  0  0  0  0  0  0  0
    4.4966   -0.2196   -0.7503 O   0  0  0  0  0  0  0  0  0  0  0  0
   -0.3193   -0.0755   -0.7923 H   0  0  0  0  0  0  0  0  0  0  0  0
    0.1868   -1.0494    0.6034 H   0  0  0  0  0  0  0  0  0  0  0  0
    2.2145   -1.7411   -1.0893 H   0  0  0  0  0  0  0  0  0  0  0  0
    1.4921   -0.6083   -2.2466 H   0  0  0  0  0  0  0  0  0  0  0  0
    0.4399    1.0242    1.9651 H   0  0  0  0  0  0  0  0  0  0  0  0
   -1.1927    0.9595    1.2776 H   0  0  0  0  0  0  0  0  0  0  0  0
    3.5105    0.7524   -2.3149 H   0  0  0  0  0  0  0  0  0  0  0  0
    3.9671   -0.9434   -2.5769 H   0  0  0  0  0  0  0  0  0  0  0  0
    2.3098    0.0586    0.4769 H   0  0  0  0  0  0  0  0  0  0  0  0
    0.8655    2.2180   -0.1191 H   0  0  0  0  0  0  0  0  0  0  0  0
    4.4386    0.6546   -0.3377 H   0  0  0  0  0  0  0  0  0  0  0  0
  1  9  1  0  0  0  0
  1  3  1  0  0  0  0
  2 10  1  0  0  0  0
  2  5  1  0  0  0  0
  3 13  1  0  0  0  0
  3 12  1  0  0  0  0
  4  2  1  0  0  0  0
  4  7  1  0  0  0  0
  5  1  1  0  0  0  0
  5 16  1  0  0  0  0
  6  3  1  0  0  0  0
  7 18  1  0  0  0  0
  8  1  1  0  0  0  0
 11  2  1  0  0  0  0
 14  4  1  0  0  0  0
 15  4  1  0  0  0  0
 17  6  1  0  0  0  0
M  END
>  <HBA>
3

>  <HBD>
3

>  <TPSA>
52.49

>  <cid>
8113

>  <dipole>
1.41

>  <excitation_energy_1>
5.782

>  <excitation_energy_2>
6.382

>  <excitation_energy_3>
6.421

>  <excitation_energy_4>
6.431

>  <homo_energy>
-6.553

>  <homo_lumo_gap>
8.109

>  <logP>
-1.048

>  <lumo_energy>
1.557

>  <melting_point>
39.18

>  <molecular_refractivity>
26.47

>  <oscillator_strength_1>
0.006

>  <oscillator_strength_2>
0.0635

>  <oscillator_strength_3>
0.0083

>  <oscillator_strength_4>
0.0227

>  <open_babel_can_smiles>
OCCNCCO

>  <mulliken_charges>
18
1   -0.147519
2   -0.1176
3   -0.017732
4   -0.048801
5   -0.592227
6   -0.628373
7   -0.617431
8   0.152333
9   0.122504
10   0.129038
11   0.141799
12   0.109306
13   0.142111
14   0.133741
15   0.147579
16   0.299424
17   0.395312
18   0.396537

>  <lowdin_charges>
18
1   -0.222345
2   -0.21626
3   -0.135344
4   -0.139248
5   -0.373584
6   -0.476488
7   -0.471387
8   0.148959
9   0.127884
10   0.126725
11   0.148782
12   0.118224
13   0.145366
14   0.134884
15   0.14969
16   0.253435
17   0.335318
18   0.345388

$$$$

