PCCDB-ID:  4837
public computational chemistry database (PCCDB) project, http://pccdb.org

 16 16  0  0  0  0  0  0  0  0999 V2000
    0.6915    1.2301   -0.2614 C   0  0  0  0  0  0  0  0  0  0  0  0
    1.4097   -0.0161    0.2570 C   0  0  0  0  0  0  0  0  0  0  0  0
   -1.4053    0.0229   -0.2602 C   0  0  0  0  0  0  0  0  0  0  0  0
   -0.6872   -1.2233    0.2583 C   0  0  0  0  0  0  0  0  0  0  0  0
   -0.6937    1.2119    0.2170 N   0  0  0  0  0  0  0  0  0  0  0  0
    0.6981   -1.2051   -0.2201 N   0  0  0  0  0  0  0  0  0  0  0  0
    0.7650    1.2398   -1.3652 H   0  0  0  0  0  0  0  0  0  0  0  0
    1.1853    2.1309    0.1215 H   0  0  0  0  0  0  0  0  0  0  0  0
    1.4567    0.0431    1.3607 H   0  0  0  0  0  0  0  0  0  0  0  0
    2.4361   -0.0413   -0.1273 H   0  0  0  0  0  0  0  0  0  0  0  0
   -2.4317    0.0481    0.1241 H   0  0  0  0  0  0  0  0  0  0  0  0
   -1.4522   -0.0363   -1.3639 H   0  0  0  0  0  0  0  0  0  0  0  0
   -1.1809   -2.1241   -0.1245 H   0  0  0  0  0  0  0  0  0  0  0  0
   -0.7606   -1.2330    1.3621 H   0  0  0  0  0  0  0  0  0  0  0  0
   -1.1772    2.0515   -0.0948 H   0  0  0  0  0  0  0  0  0  0  0  0
    1.1815   -2.0447    0.0918 H   0  0  0  0  0  0  0  0  0  0  0  0
  1  8  1  0  0  0  0
  1  5  1  0  0  0  0
  1  2  1  0  0  0  0
  2  9  1  0  0  0  0
  3 11  1  0  0  0  0
  3  5  1  0  0  0  0
  3  4  1  0  0  0  0
  4 14  1  0  0  0  0
  6 16  1  0  0  0  0
  6  2  1  0  0  0  0
  6  4  1  0  0  0  0
  7  1  1  0  0  0  0
 10  2  1  0  0  0  0
 12  3  1  0  0  0  0
 13  4  1  0  0  0  0
 15  5  1  0  0  0  0
M  END
>  <HBA>
2

>  <HBD>
2

>  <TPSA>
24.06

>  <cid>
4837

>  <dipole>
0.0

>  <excitation_energy_1>
5.311

>  <excitation_energy_2>
5.369

>  <excitation_energy_3>
5.746

>  <excitation_energy_4>
5.798

>  <homo_energy>
-5.823

>  <homo_lumo_gap>
8.017

>  <logP>
-0.163

>  <lumo_energy>
2.193

>  <melting_point>
51.7

>  <molecular_refractivity>
32.66

>  <oscillator_strength_1>
0.0

>  <oscillator_strength_2>
0.0037

>  <oscillator_strength_3>
0.0259

>  <oscillator_strength_4>
0.0

>  <open_babel_can_smiles>
N1CCNCC1

>  <mulliken_charges>
16
1   -0.123209
2   -0.123373
3   -0.123326
4   -0.123306
5   -0.554477
6   -0.554468
7   0.120295
8   0.13268
9   0.120297
10   0.132725
11   0.132728
12   0.120305
13   0.132689
14   0.120302
15   0.29507
16   0.295069

>  <lowdin_charges>
16
1   -0.205513
2   -0.204284
3   -0.20428
4   -0.205525
5   -0.372281
6   -0.372287
7   0.119426
8   0.14512
9   0.119413
10   0.143516
11   0.143516
12   0.119417
13   0.145122
14   0.119426
15   0.254607
16   0.254607

$$$$

