PCCDB-ID:  10379
public computational chemistry database (PCCDB) project, http://pccdb.org

 24 25  0  0  0  0  0  0  0  0999 V2000
   -0.8040    0.7459    0.3788 C   0  0  0  0  0  0  0  0  0  0  0  0
    1.3833   -0.1306   -0.1696 C   0  0  0  0  0  0  0  0  0  0  0  0
    2.2479    4.1663   -0.6733 C   0  0  0  0  0  0  0  0  0  0  0  0
    2.3135    2.1112   -2.0986 C   0  0  0  0  0  0  0  0  0  0  0  0
   -1.2995   -0.5468    0.4818 C   0  0  0  0  0  0  0  0  0  0  0  0
    0.9016   -1.4250   -0.0282 C   0  0  0  0  0  0  0  0  0  0  0  0
    3.1746    4.7564   -1.4546 C   0  0  0  0  0  0  0  0  0  0  0  0
    3.2186    2.7065   -2.9021 C   0  0  0  0  0  0  0  0  0  0  0  0
    0.5345    0.9857    0.0085 C   0  0  0  0  0  0  0  0  0  0  0  0
    1.7989    2.7903   -0.9025 C   0  0  0  0  0  0  0  0  0  0  0  0
   -0.4478   -1.6415    0.2783 C   0  0  0  0  0  0  0  0  0  0  0  0
    3.7486    4.0605   -2.6232 C   0  0  0  0  0  0  0  0  0  0  0  0
    0.9482    2.3137   -0.0393 N   0  0  0  0  0  0  0  0  0  0  0  0
   -0.8669   -2.9342    0.3882 O   0  0  0  0  0  0  0  0  0  0  0  0
    4.5967    4.5816   -3.3457 O   0  0  0  0  0  0  0  0  0  0  0  0
   -1.4492    1.5998    0.5591 H   0  0  0  0  0  0  0  0  0  0  0  0
    2.4392    0.0257   -0.3655 H   0  0  0  0  0  0  0  0  0  0  0  0
    1.8170    4.6645    0.1904 H   0  0  0  0  0  0  0  0  0  0  0  0
    1.9099    1.1356   -2.3481 H   0  0  0  0  0  0  0  0  0  0  0  0
   -2.3437   -0.7107    0.7417 H   0  0  0  0  0  0  0  0  0  0  0  0
    1.5578   -2.2822   -0.1404 H   0  0  0  0  0  0  0  0  0  0  0  0
    3.5358    5.7631   -1.2664 H   0  0  0  0  0  0  0  0  0  0  0  0
    3.5829    2.2307   -3.8084 H   0  0  0  0  0  0  0  0  0  0  0  0
   -1.8066   -2.9463    0.6287 H   0  0  0  0  0  0  0  0  0  0  0  0
  1  5  1  0  0  0  0
  1 16  1  0  0  0  0
  2  6  2  0  0  0  0
  2  9  1  0  0  0  0
  3 18  1  0  0  0  0
  4 10  1  0  0  0  0
  5 20  1  0  0  0  0
  6 11  1  0  0  0  0
  7 22  1  0  0  0  0
  7  3  2  0  0  0  0
  8 12  1  0  0  0  0
  8  4  2  0  0  0  0
  9  1  2  0  0  0  0
 10  3  1  0  0  0  0
 10 13  2  0  0  0  0
 11 14  1  0  0  0  0
 11  5  2  0  0  0  0
 12  7  1  0  0  0  0
 13  9  1  0  0  0  0
 14 24  1  0  0  0  0
 15 12  2  0  0  0  0
 17  2  1  0  0  0  0
 19  4  1  0  0  0  0
 21  6  1  0  0  0  0
 23  8  1  0  0  0  0
M  END
>  <HBA>
3

>  <HBD>
1

>  <TPSA>
49.66

>  <cid>
10379

>  <dipole>
5.25

>  <excitation_energy_1>
2.466

>  <excitation_energy_2>
2.651

>  <excitation_energy_3>
3.688

>  <excitation_energy_4>
3.777

>  <homo_energy>
-5.842

>  <homo_lumo_gap>
2.898

>  <logP>
2.16

>  <lumo_energy>
-2.944

>  <melting_point>
129.76

>  <molecular_refractivity>
58.85

>  <oscillator_strength_1>
0.2203

>  <oscillator_strength_2>
0.0353

>  <oscillator_strength_3>
0.0031

>  <oscillator_strength_4>
0.2242

>  <open_babel_can_smiles>
O=C1C=C/C(=N/c2ccc(cc2)O)/C=C1

>  <mulliken_charges>
24
1   -0.149385
2   -0.163861
3   -0.120769
4   -0.138597
5   -0.197643
6   -0.169892
7   -0.184553
8   -0.190139
9   0.263871
10   0.283315
11   0.357698
12   0.436755
13   -0.538207
14   -0.633385
15   -0.487372
16   0.14934
17   0.153307
18   0.157939
19   0.165835
20   0.129612
21   0.151123
22   0.155107
23   0.157426
24   0.412472

>  <lowdin_charges>
24
1   -0.140072
2   -0.159222
3   -0.131136
4   -0.159401
5   -0.205321
6   -0.181964
7   -0.174723
8   -0.163676
9   0.016347
10   0.051423
11   0.107505
12   0.136167
13   -0.119726
14   -0.364948
15   -0.242106
16   0.172302
17   0.167691
18   0.176001
19   0.175156
20   0.157382
21   0.173545
22   0.174164
23   0.175045
24   0.359566

$$$$

