PCCDB-ID:  24415
public computational chemistry database (PCCDB) project, http://pccdb.org

 33 33  0  0  0  0  0  0  0  0999 V2000
    6.3070   -6.8490   -3.7980 C   0  0  0  0  0  0  0  0  0  0  0  0
    0.6520   -3.7337   -0.2971 C   0  0  0  0  0  0  0  0  0  0  0  0
    2.4878   -0.9381   -4.1021 C   0  0  0  0  0  0  0  0  0  0  0  0
    4.8902   -6.4237   -3.4236 C   0  0  0  0  0  0  0  0  0  0  0  0
   -1.0155   -2.2944   -3.4165 C   0  0  0  0  0  0  0  0  0  0  0  0
   -0.8131   -2.9735   -2.2162 C   0  0  0  0  0  0  0  0  0  0  0  0
    0.0569   -1.6434   -4.0241 C   0  0  0  0  0  0  0  0  0  0  0  0
    3.5220   -4.4911   -2.7012 C   0  0  0  0  0  0  0  0  0  0  0  0
    0.4490   -3.0264   -1.6161 C   0  0  0  0  0  0  0  0  0  0  0  0
    1.3347   -1.6689   -3.4570 C   0  0  0  0  0  0  0  0  0  0  0  0
    3.6660   -3.2444   -1.8185 C   0  0  0  0  0  0  0  0  0  0  0  0
    1.5327   -2.3853   -2.2557 C   0  0  0  0  0  0  0  0  0  0  0  0
    4.8515   -5.0022   -3.0529 N   0  0  0  0  0  0  0  0  0  0  0  0
    2.7947   -2.3407   -1.6254 N   0  0  0  0  0  0  0  0  0  0  0  0
    4.8531   -3.1742   -1.1903 O   0  0  0  0  0  0  0  0  0  0  0  0
    6.3359   -7.9158   -4.0428 H   0  0  0  0  0  0  0  0  0  0  0  0
    6.9997   -6.6625   -2.9708 H   0  0  0  0  0  0  0  0  0  0  0  0
    6.6684   -6.2982   -4.6754 H   0  0  0  0  0  0  0  0  0  0  0  0
   -0.3086   -4.0060    0.1515 H   0  0  0  0  0  0  0  0  0  0  0  0
    1.1997   -3.0993    0.4089 H   0  0  0  0  0  0  0  0  0  0  0  0
    1.2357   -4.6586   -0.4035 H   0  0  0  0  0  0  0  0  0  0  0  0
    2.1371   -0.2918   -4.9130 H   0  0  0  0  0  0  0  0  0  0  0  0
    3.2305   -1.6263   -4.5295 H   0  0  0  0  0  0  0  0  0  0  0  0
    3.0221   -0.3232   -3.3688 H   0  0  0  0  0  0  0  0  0  0  0  0
    4.5439   -6.9980   -2.5556 H   0  0  0  0  0  0  0  0  0  0  0  0
    4.1977   -6.6511   -4.2523 H   0  0  0  0  0  0  0  0  0  0  0  0
   -2.0040   -2.2596   -3.8664 H   0  0  0  0  0  0  0  0  0  0  0  0
   -1.6493   -3.4664   -1.7247 H   0  0  0  0  0  0  0  0  0  0  0  0
   -0.0961   -1.0950   -4.9513 H   0  0  0  0  0  0  0  0  0  0  0  0
    2.8777   -4.2691   -3.5616 H   0  0  0  0  0  0  0  0  0  0  0  0
    3.0102   -5.2632   -2.1126 H   0  0  0  0  0  0  0  0  0  0  0  0
    5.2296   -4.4495   -3.8224 H   0  0  0  0  0  0  0  0  0  0  0  0
    5.3681   -3.9372   -1.5506 H   0  0  0  0  0  0  0  0  0  0  0  0
  1  4  1  0  0  0  0
  1 17  1  0  0  0  0
  2 19  1  0  0  0  0
  2 20  1  0  0  0  0
  3 10  1  0  0  0  0
  3 24  1  0  0  0  0
  4 13  1  0  0  0  0
  4 25  1  0  0  0  0
  5  6  2  0  0  0  0
  6 28  1  0  0  0  0
  6  9  1  0  0  0  0
  7 10  2  0  0  0  0
  7  5  1  0  0  0  0
  8 31  1  0  0  0  0
  8 11  1  0  0  0  0
  9  2  1  0  0  0  0
 10 12  1  0  0  0  0
 11 14  2  0  0  0  0
 11 15  1  0  0  0  0
 12 14  1  0  0  0  0
 12  9  2  0  0  0  0
 13  8  1  0  0  0  0
 16  1  1  0  0  0  0
 18  1  1  0  0  0  0
 21  2  1  0  0  0  0
 22  3  1  0  0  0  0
 23  3  1  0  0  0  0
 26  4  1  0  0  0  0
 27  5  1  0  0  0  0
 29  7  1  0  0  0  0
 30  8  1  0  0  0  0
 32 13  1  0  0  0  0
 33 15  1  0  0  0  0
M  END
>  <HBA>
3

>  <HBD>
2

>  <TPSA>
41.13

>  <cid>
24415

>  <dipole>
5.14

>  <excitation_energy_1>
4.642

>  <excitation_energy_2>
4.866

>  <excitation_energy_3>
4.968

>  <excitation_energy_4>
5.285

>  <homo_energy>
-5.431

>  <homo_lumo_gap>
5.87

>  <logP>
2.315

>  <lumo_energy>
0.438

>  <melting_point>
94.13

>  <molecular_refractivity>
63.1

>  <oscillator_strength_1>
0.0022

>  <oscillator_strength_2>
0.0157

>  <oscillator_strength_3>
0.0148

>  <oscillator_strength_4>
0.0128

>  <open_babel_can_smiles>
CCNC/C(=N\c1c(C)cccc1C)/O

>  <mulliken_charges>
33
1   -0.456718
2   -0.532473
3   -0.526204
4   -0.1118
5   -0.120498
6   -0.207381
7   -0.208256
8   -0.216179
9   0.175806
10   0.17452
11   0.49054
12   0.087853
13   -0.606257
14   -0.480684
15   -0.590504
16   0.15731
17   0.162614
18   0.147014
19   0.14794
20   0.178617
21   0.142566
22   0.147068
23   0.135757
24   0.178692
25   0.154012
26   0.133435
27   0.117538
28   0.11456
29   0.114418
30   0.176295
31   0.183386
32   0.315305
33   0.421707

>  <lowdin_charges>
33
1   -0.448399
2   -0.443135
3   -0.44362
4   -0.197438
5   -0.174918
6   -0.172112
7   -0.170667
8   -0.243133
9   -0.024389
10   -0.025856
11   0.129313
12   0.026644
13   -0.362511
14   -0.181542
15   -0.36151
16   0.158703
17   0.158763
18   0.15035
19   0.153627
20   0.169736
21   0.147878
22   0.153855
23   0.146906
24   0.169831
25   0.149067
26   0.130357
27   0.152788
28   0.152016
29   0.150684
30   0.161758
31   0.170768
32   0.263952
33   0.352234

$$$$

