PCCDB-ID:  7630
public computational chemistry database (PCCDB) project, http://pccdb.org

 30 30  0  0  1  0  0  0  0  0999 V2000
    2.7000    0.4666    1.2625 C   0  0  0  0  0  0  0  0  0  0  0  0
    3.6148   -4.9662    2.6613 C   0  0  0  0  0  0  0  0  0  0  0  0
    2.3317   -5.0231    1.8188 C   0  0  0  0  0  0  0  0  0  0  0  0
    4.4357   -3.7093    2.3362 C   0  0  0  0  0  0  0  0  0  0  0  0
    2.6501   -4.9245    0.3182 C   0  0  0  0  0  0  0  0  0  0  0  0
    4.7395   -3.6074    0.8335 C   0  0  0  0  0  0  0  0  0  0  0  0
    3.0853   -1.2787   -0.5696 C   0  0  0  0  0  0  0  0  0  0  0  0
    2.2862   -0.0415   -0.1190 C   0  0  1  0  0  0  0  0  0  0  0  0
    3.4671   -3.6676   -0.0372 C   0  0  0  0  0  0  0  0  0  0  0  0
    2.6314   -2.4680    0.1545 N   0  0  0  0  0  0  0  0  0  0  0  0
    0.8807   -0.3170   -0.1651 O   0  0  0  0  0  0  0  0  0  0  0  0
    3.7417    0.8085    1.2627 H   0  0  0  0  0  0  0  0  0  0  0  0
    2.6098   -0.3343    2.0059 H   0  0  0  0  0  0  0  0  0  0  0  0
    2.0622    1.3039    1.5641 H   0  0  0  0  0  0  0  0  0  0  0  0
    4.2221   -5.8612    2.4569 H   0  0  0  0  0  0  0  0  0  0  0  0
    3.3685   -4.9946    3.7306 H   0  0  0  0  0  0  0  0  0  0  0  0
    1.6746   -4.1921    2.1059 H   0  0  0  0  0  0  0  0  0  0  0  0
    1.7801   -5.9501    2.0218 H   0  0  0  0  0  0  0  0  0  0  0  0
    5.3745   -3.7105    2.9051 H   0  0  0  0  0  0  0  0  0  0  0  0
    3.8740   -2.8202    2.6483 H   0  0  0  0  0  0  0  0  0  0  0  0
    1.7238   -4.9423   -0.2743 H   0  0  0  0  0  0  0  0  0  0  0  0
    3.2281   -5.8067    0.0097 H   0  0  0  0  0  0  0  0  0  0  0  0
    5.3920   -4.4397    0.5324 H   0  0  0  0  0  0  0  0  0  0  0  0
    5.3017   -2.6891    0.6230 H   0  0  0  0  0  0  0  0  0  0  0  0
    4.1483   -1.1136   -0.3608 H   0  0  0  0  0  0  0  0  0  0  0  0
    2.9879   -1.3986   -1.6639 H   0  0  0  0  0  0  0  0  0  0  0  0
    2.4381    0.7538   -0.8581 H   0  0  0  0  0  0  0  0  0  0  0  0
    3.7804   -3.7528   -1.0955 H   0  0  0  0  0  0  0  0  0  0  0  0
    1.6980   -2.6814   -0.1945 H   0  0  0  0  0  0  0  0  0  0  0  0
    0.6945   -0.8776    0.6060 H   0  0  0  0  0  0  0  0  0  0  0  0
  1 12  1  0  0  0  0
  1 14  1  0  0  0  0
  1 13  1  0  0  0  0
  2 16  1  0  0  0  0
  3 18  1  0  0  0  0
  3 17  1  0  0  0  0
  3  2  1  0  0  0  0
  4 20  1  0  0  0  0
  4  2  1  0  0  0  0
  4 19  1  0  0  0  0
  5  3  1  0  0  0  0
  6  4  1  0  0  0  0
  7 25  1  0  0  0  0
  7  8  1  0  0  0  0
  7 10  1  0  0  0  0
  8 27  1  6  0  0  0
  8  1  1  0  0  0  0
  9 10  1  0  0  0  0
  9  5  1  0  0  0  0
  9  6  1  0  0  0  0
 11  8  1  0  0  0  0
 11 30  1  0  0  0  0
 15  2  1  0  0  0  0
 21  5  1  0  0  0  0
 22  5  1  0  0  0  0
 23  6  1  0  0  0  0
 24  6  1  0  0  0  0
 26  7  1  0  0  0  0
 28  9  1  0  0  0  0
 29 10  1  0  0  0  0
M  END
>  <HBA>
2

>  <HBD>
2

>  <TPSA>
32.26

>  <cid>
7630

>  <dipole>
1.32

>  <excitation_energy_1>
5.445

>  <excitation_energy_2>
5.731

>  <excitation_energy_3>
5.942

>  <excitation_energy_4>
6.066

>  <homo_energy>
-6.033

>  <homo_lumo_gap>
7.856

>  <logP>
1.68

>  <lumo_energy>
1.823

>  <melting_point>
39.82

>  <molecular_refractivity>
47.23

>  <oscillator_strength_1>
0.0033

>  <oscillator_strength_2>
0.0376

>  <oscillator_strength_3>
0.0061

>  <oscillator_strength_4>
0.0183

>  <open_babel_can_smiles>
C[C@@H](CNC1CCCCC1)O

>  <mulliken_charges>
30
1   -0.473111
2   -0.258059
3   -0.247596
4   -0.253549
5   -0.289486
6   -0.26015
7   -0.131041
8   0.140357
9   0.060029
10   -0.585407
11   -0.631927
12   0.140566
13   0.15692
14   0.154567
15   0.123338
16   0.128429
17   0.136095
18   0.127377
19   0.125214
20   0.146141
21   0.124841
22   0.133054
23   0.125863
24   0.129656
25   0.138378
26   0.121
27   0.132224
28   0.102314
29   0.294117
30   0.389845

>  <lowdin_charges>
30
1   -0.464812
2   -0.275514
3   -0.279661
4   -0.279652
5   -0.284487
6   -0.284853
7   -0.215505
8   -0.002525
9   -0.061821
10   -0.37266
11   -0.470527
12   0.150823
13   0.154042
14   0.156647
15   0.135102
16   0.140771
17   0.142915
18   0.142103
19   0.141388
20   0.146158
21   0.138993
22   0.144479
23   0.140753
24   0.142236
25   0.143433
26   0.122425
27   0.14294
28   0.117085
29   0.249648
30   0.340078

$$$$

