PCCDB-ID:  46420
public computational chemistry database (PCCDB) project, http://pccdb.org

 30 29  0  0  0  0  0  0  0  0999 V2000
    2.7159   -0.1780   -0.3227 C   0  0  0  0  0  0  0  0  0  0  0  0
    1.7248    1.9551    0.6081 C   0  0  0  0  0  0  0  0  0  0  0  0
    5.2157    2.8093    3.4062 C   0  0  0  0  0  0  0  0  0  0  0  0
    5.6487   -0.6855    1.6569 C   0  0  0  0  0  0  0  0  0  0  0  0
    5.9158    1.5411    0.5385 C   0  0  0  0  0  0  0  0  0  0  0  0
    3.0440    0.2580    2.7194 C   0  0  0  0  0  0  0  0  0  0  0  0
    3.0184    1.1442    0.4141 C   0  0  0  0  0  0  0  0  0  0  0  0
    5.7707    1.4542    2.9935 C   0  0  0  0  0  0  0  0  0  0  0  0
    5.2106    0.7948    1.6947 C   0  0  0  0  0  0  0  0  0  0  0  0
    3.7469    1.0193    1.6919 N   0  0  0  0  0  0  0  0  0  0  0  0
    6.6480    0.9161    3.6423 O   0  0  0  0  0  0  0  0  0  0  0  0
    2.1764    0.0253   -1.2556 H   0  0  0  0  0  0  0  0  0  0  0  0
    2.0868   -0.8425    0.2805 H   0  0  0  0  0  0  0  0  0  0  0  0
    3.6306   -0.7209   -0.5797 H   0  0  0  0  0  0  0  0  0  0  0  0
    1.3086    2.2323   -0.3670 H   0  0  0  0  0  0  0  0  0  0  0  0
    1.9275    2.8713    1.1719 H   0  0  0  0  0  0  0  0  0  0  0  0
    0.9517    1.3875    1.1382 H   0  0  0  0  0  0  0  0  0  0  0  0
    4.2540    2.6783    3.9142 H   0  0  0  0  0  0  0  0  0  0  0  0
    5.0278    3.4599    2.5480 H   0  0  0  0  0  0  0  0  0  0  0  0
    5.9182    3.2797    4.0982 H   0  0  0  0  0  0  0  0  0  0  0  0
    6.7352   -0.7613    1.7437 H   0  0  0  0  0  0  0  0  0  0  0  0
    5.3384   -1.1550    0.7189 H   0  0  0  0  0  0  0  0  0  0  0  0
    5.2219   -1.2553    2.4867 H   0  0  0  0  0  0  0  0  0  0  0  0
    6.9985    1.5060    0.6970 H   0  0  0  0  0  0  0  0  0  0  0  0
    5.6130    2.5910    0.4764 H   0  0  0  0  0  0  0  0  0  0  0  0
    5.7120    1.0647   -0.4259 H   0  0  0  0  0  0  0  0  0  0  0  0
    2.0616    0.7007    2.9100 H   0  0  0  0  0  0  0  0  0  0  0  0
    3.6036    0.3010    3.6601 H   0  0  0  0  0  0  0  0  0  0  0  0
    2.8933   -0.8085    2.4827 H   0  0  0  0  0  0  0  0  0  0  0  0
    3.6536    1.7456   -0.2409 H   0  0  0  0  0  0  0  0  0  0  0  0
  1 13  1  0  0  0  0
  1  7  1  0  0  0  0
  2 17  1  0  0  0  0
  2 16  1  0  0  0  0
  3 18  1  0  0  0  0
  3 20  1  0  0  0  0
  4  9  1  0  0  0  0
  4 21  1  0  0  0  0
  4 23  1  0  0  0  0
  5 24  1  0  0  0  0
  5  9  1  0  0  0  0
  6 27  1  0  0  0  0
  6 28  1  0  0  0  0
  7  2  1  0  0  0  0
  7 10  1  0  0  0  0
  8  3  1  0  0  0  0
  8 11  2  0  0  0  0
  9  8  1  0  0  0  0
 10  9  1  0  0  0  0
 10  6  1  0  0  0  0
 12  1  1  0  0  0  0
 14  1  1  0  0  0  0
 15  2  1  0  0  0  0
 19  3  1  0  0  0  0
 22  4  1  0  0  0  0
 25  5  1  0  0  0  0
 26  5  1  0  0  0  0
 29  6  1  0  0  0  0
 30  7  1  0  0  0  0
M  END
>  <HBA>
2

>  <HBD>
0

>  <TPSA>
20.31

>  <cid>
46420

>  <dipole>
2.78

>  <excitation_energy_1>
3.919

>  <excitation_energy_2>
4.626

>  <excitation_energy_3>
4.893

>  <excitation_energy_4>
5.327

>  <homo_energy>
-5.497

>  <homo_lumo_gap>
5.236

>  <logP>
1.694

>  <lumo_energy>
-0.261

>  <melting_point>
6.49

>  <molecular_refractivity>
48.51

>  <oscillator_strength_1>
0.0017

>  <oscillator_strength_2>
0.0031

>  <oscillator_strength_3>
0.001

>  <oscillator_strength_4>
0.0019

>  <open_babel_can_smiles>
CC(N(C(C(=O)C)(C)C)C)C

>  <mulliken_charges>
30
1   -0.454542
2   -0.450019
3   -0.514051
4   -0.450565
5   -0.49148
6   -0.321972
7   0.05302
8   0.441264
9   0.157316
10   -0.4138
11   -0.447678
12   0.140562
13   0.146077
14   0.147853
15   0.1417
16   0.150115
17   0.143516
18   0.178563
19   0.16339
20   0.168345
21   0.162167
22   0.137695
23   0.150984
24   0.16643
25   0.156906
26   0.159683
27   0.152422
28   0.155065
29   0.135562
30   0.135472

>  <lowdin_charges>
30
1   -0.465184
2   -0.451404
3   -0.474355
4   -0.454263
5   -0.443065
6   -0.359631
7   -0.059577
8   0.157627
9   0.042551
10   -0.190195
11   -0.237065
12   0.15122
13   0.151371
14   0.14926
15   0.151131
16   0.153888
17   0.147817
18   0.177106
19   0.166106
20   0.168043
21   0.161744
22   0.147139
23   0.157112
24   0.162442
25   0.152879
26   0.156958
27   0.150975
28   0.152646
29   0.127857
30   0.148866

$$$$

