PCCDB-ID:  15094
public computational chemistry database (PCCDB) project, http://pccdb.org

 39 40  0  0  1  0  0  0  0  0999 V2000
    2.1363    1.8906   -4.1954 C   0  0  0  0  0  0  0  0  0  0  0  0
    3.8969    1.6335   -6.0151 C   0  0  0  0  0  0  0  0  0  0  0  0
    5.4177    5.1163   -1.9254 C   0  0  0  0  0  0  0  0  0  0  0  0
    8.2183   -0.8513   -2.9173 C   0  0  0  0  0  0  0  0  0  0  0  0
    7.0167    3.1806   -1.4045 C   0  0  0  0  0  0  0  0  0  0  0  0
    5.7932   -1.4362   -2.9769 C   0  0  0  0  0  0  0  0  0  0  0  0
    7.5990    1.8876   -1.9858 C   0  0  0  0  0  0  0  0  0  0  0  0
    4.8063   -0.8585   -4.0059 C   0  0  0  0  0  0  0  0  0  0  0  0
    5.2162    2.9347   -3.1133 C   0  0  0  0  0  0  0  0  0  0  0  0
    3.2773    1.0171   -4.7488 C   0  0  0  0  0  0  0  0  0  0  0  0
    5.8403    3.6963   -2.2036 C   0  0  0  0  0  0  0  0  0  0  0  0
    6.9441   -0.4885   -2.7418 C   0  0  0  0  0  0  0  0  0  0  0  0
    4.3191    0.5698   -3.6690 C   0  0  2  0  0  0  0  0  0  0  0  0
    6.4845    0.8985   -2.3426 C   0  0  2  0  0  0  0  0  0  0  0  0
    5.5559    1.4957   -3.4432 C   0  0  2  0  0  0  0  0  0  0  0  0
    1.3649    2.0380   -4.9613 H   0  0  0  0  0  0  0  0  0  0  0  0
    2.4704    2.8817   -3.8736 H   0  0  0  0  0  0  0  0  0  0  0  0
    1.6605    1.4093   -3.3326 H   0  0  0  0  0  0  0  0  0  0  0  0
    3.1299    1.7587   -6.7885 H   0  0  0  0  0  0  0  0  0  0  0  0
    4.6841    0.9962   -6.4347 H   0  0  0  0  0  0  0  0  0  0  0  0
    4.3348    2.6201   -5.8268 H   0  0  0  0  0  0  0  0  0  0  0  0
    5.1600    5.2517   -0.8651 H   0  0  0  0  0  0  0  0  0  0  0  0
    4.5485    5.4084   -2.5234 H   0  0  0  0  0  0  0  0  0  0  0  0
    6.2319    5.8234   -2.1383 H   0  0  0  0  0  0  0  0  0  0  0  0
    8.4772   -1.8626   -3.2226 H   0  0  0  0  0  0  0  0  0  0  0  0
    9.0494   -0.1695   -2.7652 H   0  0  0  0  0  0  0  0  0  0  0  0
    7.7949    3.9564   -1.3600 H   0  0  0  0  0  0  0  0  0  0  0  0
    6.7065    3.0215   -0.3589 H   0  0  0  0  0  0  0  0  0  0  0  0
    6.1556   -2.4171   -3.3059 H   0  0  0  0  0  0  0  0  0  0  0  0
    5.2564   -1.5952   -2.0279 H   0  0  0  0  0  0  0  0  0  0  0  0
    8.2920    1.4338   -1.2675 H   0  0  0  0  0  0  0  0  0  0  0  0
    8.1828    2.1208   -2.8865 H   0  0  0  0  0  0  0  0  0  0  0  0
    3.9384   -1.5253   -4.0901 H   0  0  0  0  0  0  0  0  0  0  0  0
    5.2905   -0.8487   -4.9929 H   0  0  0  0  0  0  0  0  0  0  0  0
    4.4085    3.3869   -3.6815 H   0  0  0  0  0  0  0  0  0  0  0  0
    2.7913    0.0847   -5.0727 H   0  0  0  0  0  0  0  0  0  0  0  0
    3.7806    0.5161   -2.7095 H   0  0  0  0  0  0  0  0  0  0  0  0
    5.8534    0.7792   -1.4439 H   0  0  0  0  0  0  0  0  0  0  0  0
    6.1301    1.4890   -4.3850 H   0  0  0  0  0  0  0  0  0  0  0  0
  1 17  1  0  0  0  0
  1 18  1  0  0  0  0
  2 21  1  0  0  0  0
  2 10  1  0  0  0  0
  3 22  1  0  0  0  0
  4 26  1  0  0  0  0
  4 12  2  0  0  0  0
  5 27  1  0  0  0  0
  5 28  1  0  0  0  0
  6 12  1  0  0  0  0
  6 30  1  0  0  0  0
  7  5  1  0  0  0  0
  7 31  1  0  0  0  0
  8 13  1  0  0  0  0
  8  6  1  0  0  0  0
  9 11  2  0  0  0  0
 10  1  1  0  0  0  0
 10 13  1  0  0  0  0
 11  3  1  0  0  0  0
 11  5  1  0  0  0  0
 12 14  1  0  0  0  0
 13 15  1  0  0  0  0
 13 37  1  1  0  0  0
 14  7  1  0  0  0  0
 14 38  1  1  0  0  0
 15 39  1  6  0  0  0
 15  9  1  0  0  0  0
 15 14  1  0  0  0  0
 16  1  1  0  0  0  0
 19  2  1  0  0  0  0
 20  2  1  0  0  0  0
 23  3  1  0  0  0  0
 24  3  1  0  0  0  0
 25  4  1  0  0  0  0
 29  6  1  0  0  0  0
 32  7  1  0  0  0  0
 33  8  1  0  0  0  0
 34  8  1  0  0  0  0
 35  9  1  0  0  0  0
 36 10  1  0  0  0  0
M  END
>  <HBA>
0

>  <HBD>
0

>  <TPSA>
0.0

>  <cid>
15094

>  <dipole>
0.46

>  <excitation_energy_1>
5.594

>  <excitation_energy_2>
5.766

>  <excitation_energy_3>
5.942

>  <excitation_energy_4>
6.029

>  <homo_energy>
-6.147

>  <homo_lumo_gap>
6.871

>  <logP>
4.581

>  <lumo_energy>
0.724

>  <melting_point>
8.65

>  <molecular_refractivity>
69.04

>  <oscillator_strength_1>
0.0116

>  <oscillator_strength_2>
0.0014

>  <oscillator_strength_3>
0.0517

>  <oscillator_strength_4>
0.0152

>  <open_babel_can_smiles>
CC1=C[C@H]2[C@H](CC1)C(=C)CC[C@@H]2C(C)C

>  <mulliken_charges>
39
1   -0.454355
2   -0.458401
3   -0.513959
4   -0.427346
5   -0.327838
6   -0.331316
7   -0.279848
8   -0.27652
9   -0.175212
10   -0.069554
11   0.173513
12   0.230001
13   -0.086288
14   -0.160357
15   -0.118659
16   0.137425
17   0.148071
18   0.140143
19   0.139464
20   0.144646
21   0.149002
22   0.150079
23   0.149928
24   0.149576
25   0.128013
26   0.135548
27   0.136986
28   0.141846
29   0.135101
30   0.136725
31   0.135568
32   0.138842
33   0.130585
34   0.1358
35   0.114943
36   0.122785
37   0.114779
38   0.125888
39   0.134397

>  <lowdin_charges>
39
1   -0.449156
2   -0.450874
3   -0.439233
4   -0.371791
5   -0.275817
6   -0.273537
7   -0.275755
8   -0.277061
9   -0.201852
10   -0.122536
11   -0.014584
12   0.002816
13   -0.131696
14   -0.125507
15   -0.125639
16   0.147206
17   0.146574
18   0.148061
19   0.149622
20   0.14902
21   0.148356
22   0.15194
23   0.154478
24   0.153349
25   0.152419
26   0.15658
27   0.148187
28   0.145456
29   0.147599
30   0.144683
31   0.148203
32   0.144398
33   0.142784
34   0.140498
35   0.150576
36   0.140087
37   0.13519
38   0.141901
39   0.145056

$$$$

