PCCDB-ID:  11559
public computational chemistry database (PCCDB) project, http://pccdb.org

 13 13  0  0  0  0  0  0  0  0999 V2000
    0.9662    0.0395    0.0327 C   0  0  0  0  0  0  0  0  0  0  0  0
    3.2211   -1.2291    0.0332 C   0  0  0  0  0  0  0  0  0  0  0  0
    4.6517   -0.7917   -0.0760 C   0  0  0  0  0  0  0  0  0  0  0  0
    2.4400   -0.1467   -0.0246 C   0  0  0  0  0  0  0  0  0  0  0  0
    4.5189    0.7259   -0.2062 C   0  0  0  0  0  0  0  0  0  0  0  0
    5.3658    1.5665   -0.3255 O   0  0  0  0  0  0  0  0  0  0  0  0
    3.1692    1.0398   -0.1654 O   0  0  0  0  0  0  0  0  0  0  0  0
    0.4644   -0.9257    0.1402 H   0  0  0  0  0  0  0  0  0  0  0  0
    0.6004    0.5284   -0.8782 H   0  0  0  0  0  0  0  0  0  0  0  0
    0.6878    0.6787    0.8791 H   0  0  0  0  0  0  0  0  0  0  0  0
    2.8761   -2.2488    0.1389 H   0  0  0  0  0  0  0  0  0  0  0  0
    5.1843   -1.1869   -0.9508 H   0  0  0  0  0  0  0  0  0  0  0  0
    5.2685   -1.0282    0.8010 H   0  0  0  0  0  0  0  0  0  0  0  0
  1  8  1  0  0  0  0
  1 10  1  0  0  0  0
  2 11  1  0  0  0  0
  3  2  1  0  0  0  0
  3 13  1  0  0  0  0
  4  1  1  0  0  0  0
  4  2  2  0  0  0  0
  5  7  1  0  0  0  0
  5  3  1  0  0  0  0
  6  5  2  0  0  0  0
  7  4  1  0  0  0  0
  9  1  1  0  0  0  0
 12  3  1  0  0  0  0
M  END
>  <HBA>
2

>  <HBD>
0

>  <TPSA>
26.3

>  <cid>
11559

>  <dipole>
3.92

>  <excitation_energy_1>
5.437

>  <excitation_energy_2>
5.521

>  <excitation_energy_3>
5.839

>  <excitation_energy_4>
6.434

>  <homo_energy>
-6.523

>  <homo_lumo_gap>
6.256

>  <logP>
0.837

>  <lumo_energy>
-0.267

>  <melting_point>
22.33

>  <molecular_refractivity>
24.85

>  <oscillator_strength_1>
0.0596

>  <oscillator_strength_2>
0.0006

>  <oscillator_strength_3>
0.005

>  <oscillator_strength_4>
0.0

>  <open_babel_can_smiles>
O=C1CC=C(O1)C

>  <mulliken_charges>
13
1   -0.526717
2   -0.216494
3   -0.407909
4   0.391521
5   0.608513
6   -0.441388
7   -0.472857
8   0.168205
9   0.180415
10   0.180447
11   0.144812
12   0.195702
13   0.19575

>  <lowdin_charges>
13
1   -0.440883
2   -0.238872
3   -0.303274
4   0.10233
5   0.213889
6   -0.219714
7   -0.167893
8   0.169272
9   0.173805
10   0.174062
11   0.169696
12   0.183837
13   0.183744

$$$$

