PCCDB-ID:  9038
public computational chemistry database (PCCDB) project, http://pccdb.org

 17 16  0  0  0  0  0  0  0  0999 V2000
    0.8634   -0.1324    0.4012 C   0  0  0  0  0  0  0  0  0  0  0  0
    3.7042    0.2508   -2.4471 C   0  0  0  0  0  0  0  0  0  0  0  0
    5.0400   -0.9986    1.4473 C   0  0  0  0  0  0  0  0  0  0  0  0
    2.2981   -0.0758    0.3044 O   0  0  0  0  0  0  0  0  0  0  0  0
    3.1775   -0.9932   -1.9414 O   0  0  0  0  0  0  0  0  0  0  0  0
    4.6252   -0.8710    0.0758 O   0  0  0  0  0  0  0  0  0  0  0  0
    3.1328   -1.3012   -0.3644 P   0  0  0  0  0  0  0  0  0  0  0  0
    2.5213   -3.0877    0.0507 S   0  0  0  0  0  0  0  0  0  0  0  0
    0.5508   -1.0401    0.9244 H   0  0  0  0  0  0  0  0  0  0  0  0
    0.4077   -0.1072   -0.5941 H   0  0  0  0  0  0  0  0  0  0  0  0
    0.5644    0.7525    0.9657 H   0  0  0  0  0  0  0  0  0  0  0  0
    3.2244    1.1035   -1.9578 H   0  0  0  0  0  0  0  0  0  0  0  0
    3.4780    0.2584   -3.5143 H   0  0  0  0  0  0  0  0  0  0  0  0
    4.7848    0.2918   -2.2901 H   0  0  0  0  0  0  0  0  0  0  0  0
    4.4678   -0.3149    2.0815 H   0  0  0  0  0  0  0  0  0  0  0  0
    6.0975   -0.7311    1.4699 H   0  0  0  0  0  0  0  0  0  0  0  0
    4.9077   -2.0289    1.7905 H   0  0  0  0  0  0  0  0  0  0  0  0
  1  9  1  0  0  0  0
  1 11  1  0  0  0  0
  2 14  1  0  0  0  0
  2 12  1  0  0  0  0
  2  5  1  0  0  0  0
  3 16  1  0  0  0  0
  3 17  1  0  0  0  0
  3 15  1  0  0  0  0
  4  1  1  0  0  0  0
  5  7  1  0  0  0  0
  6  3  1  0  0  0  0
  7  8  1  0  0  0  0
  7  6  1  0  0  0  0
  7  4  1  0  0  0  0
 10  1  1  0  0  0  0
 13  2  1  0  0  0  0
M  RAD  1   8   2
M  END
>  <HBA>
4

>  <HBD>
0

>  <TPSA>
69.59

>  <cid>
9038

>  <dipole>
4.25

>  <excitation_energy_1>
5.83

>  <excitation_energy_2>
5.924

>  <excitation_energy_3>
6.1

>  <excitation_energy_4>
6.248

>  <homo_energy>
-6.46

>  <homo_lumo_gap>
7.559

>  <logP>
1.801

>  <lumo_energy>
1.099

>  <melting_point>
-35.0

>  <molecular_refractivity>
35.36

>  <oscillator_strength_1>
0.0454

>  <oscillator_strength_2>
0.0432

>  <oscillator_strength_3>
0.003

>  <oscillator_strength_4>
0.0116

>  <open_babel_can_smiles>
COP(OC)(OC)[S]

>  <mulliken_charges>
17
1   -0.225664
2   -0.218577
3   -0.220315
4   -0.524966
5   -0.493906
6   -0.511478
7   1.014829
8   -0.398183
9   0.190374
10   0.167385
11   0.169622
12   0.167609
13   0.17452
14   0.179017
15   0.170789
16   0.172929
17   0.186013

>  <lowdin_charges>
17
1   -0.270956
2   -0.266858
3   -0.268108
4   -0.406032
5   -0.384889
6   -0.394236
7   0.914998
8   -0.384986
9   0.170044
10   0.155927
11   0.162673
12   0.158273
13   0.163537
14   0.161082
15   0.159945
16   0.162682
17   0.166905

$$$$

