PCCDB-ID:  7391
public computational chemistry database (PCCDB) project, http://pccdb.org

 31 31  0  0  1  0  0  0  0  0999 V2000
    2.6926   -1.3784   -0.5208 C   0  0  0  0  0  0  0  0  0  0  0  0
    0.8581    0.0112    0.4770 C   0  0  0  0  0  0  0  0  0  0  0  0
    3.1925    0.1398    1.3863 C   0  0  0  0  0  0  0  0  0  0  0  0
    2.5200    2.5676   -0.3568 C   0  0  0  0  0  0  0  0  0  0  0  0
    2.0296    1.0315   -2.2850 C   0  0  0  0  0  0  0  0  0  0  0  0
    3.0087    3.6465   -1.3379 C   0  0  0  0  0  0  0  0  0  0  0  0
    2.5173    2.1088   -3.2685 C   0  0  0  0  0  0  0  0  0  0  0  0
    2.7277    1.1393   -0.9101 C   0  0  2  0  0  0  0  0  0  0  0  0
    2.3359    3.5229   -2.7083 C   0  0  2  0  0  0  0  0  0  0  0  0
    2.3532   -0.0041    0.0974 C   0  0  0  0  0  0  0  0  0  0  0  0
    2.7829    4.5256   -3.6209 O   0  0  0  0  0  0  0  0  0  0  0  0
    2.5504   -2.1747    0.2198 H   0  0  0  0  0  0  0  0  0  0  0  0
    3.7378   -1.4180   -0.8531 H   0  0  0  0  0  0  0  0  0  0  0  0
    2.0572   -1.6185   -1.3793 H   0  0  0  0  0  0  0  0  0  0  0  0
    0.6377   -0.8028    1.1784 H   0  0  0  0  0  0  0  0  0  0  0  0
    0.2118   -0.1280   -0.3971 H   0  0  0  0  0  0  0  0  0  0  0  0
    0.5682    0.9487    0.9646 H   0  0  0  0  0  0  0  0  0  0  0  0
    3.0274   -0.7206    2.0457 H   0  0  0  0  0  0  0  0  0  0  0  0
    2.9331    1.0381    1.9560 H   0  0  0  0  0  0  0  0  0  0  0  0
    4.2654    0.1827    1.1595 H   0  0  0  0  0  0  0  0  0  0  0  0
    1.4519    2.7317   -0.1550 H   0  0  0  0  0  0  0  0  0  0  0  0
    3.0384    2.6957    0.5991 H   0  0  0  0  0  0  0  0  0  0  0  0
    2.1933    0.0447   -2.7300 H   0  0  0  0  0  0  0  0  0  0  0  0
    0.9430    1.1370   -2.1558 H   0  0  0  0  0  0  0  0  0  0  0  0
    4.0984    3.5502   -1.4733 H   0  0  0  0  0  0  0  0  0  0  0  0
    2.8292    4.6496   -0.9329 H   0  0  0  0  0  0  0  0  0  0  0  0
    1.9914    2.0263   -4.2272 H   0  0  0  0  0  0  0  0  0  0  0  0
    3.5877    1.9517   -3.4797 H   0  0  0  0  0  0  0  0  0  0  0  0
    3.8097    1.0244   -1.0941 H   0  0  0  0  0  0  0  0  0  0  0  0
    1.2621    3.7226   -2.5940 H   0  0  0  0  0  0  0  0  0  0  0  0
    3.7347    4.3864   -3.7534 H   0  0  0  0  0  0  0  0  0  0  0  0
  1 10  1  0  0  0  0
  1 12  1  0  0  0  0
  2 17  1  0  0  0  0
  2 15  1  0  0  0  0
  3 19  1  0  0  0  0
  3 18  1  0  0  0  0
  4 21  1  0  0  0  0
  4 22  1  0  0  0  0
  5 24  1  0  0  0  0
  5  8  1  0  0  0  0
  6 26  1  0  0  0  0
  6  4  1  0  0  0  0
  7  9  1  0  0  0  0
  7  5  1  0  0  0  0
  8 29  1  6  0  0  0
  8  4  1  0  0  0  0
  8 10  1  0  0  0  0
  9 30  1  1  0  0  0
  9  6  1  0  0  0  0
 10  2  1  0  0  0  0
 10  3  1  0  0  0  0
 11  9  1  0  0  0  0
 13  1  1  0  0  0  0
 14  1  1  0  0  0  0
 16  2  1  0  0  0  0
 20  3  1  0  0  0  0
 23  5  1  0  0  0  0
 25  6  1  0  0  0  0
 27  7  1  0  0  0  0
 28  7  1  0  0  0  0
 31 11  1  0  0  0  0
M  END
>  <HBA>
1

>  <HBD>
1

>  <TPSA>
20.23

>  <cid>
7391

>  <dipole>
1.76

>  <excitation_energy_1>
6.346

>  <excitation_energy_2>
6.631

>  <excitation_energy_3>
6.898

>  <excitation_energy_4>
7.011

>  <homo_energy>
-6.874

>  <homo_lumo_gap>
8.857

>  <logP>
2.584

>  <lumo_energy>
1.984

>  <melting_point>
30.66

>  <molecular_refractivity>
48.97

>  <oscillator_strength_1>
0.0133

>  <oscillator_strength_2>
0.0

>  <oscillator_strength_3>
0.0065

>  <oscillator_strength_4>
0.0065

>  <open_babel_can_smiles>
O[C@@H]1CC[C@H](CC1)C(C)(C)C

>  <mulliken_charges>
31
1   -0.451401
2   -0.454994
3   -0.451171
4   -0.283693
5   -0.284058
6   -0.278751
7   -0.278585
8   -0.063479
9   0.146101
10   0.103526
11   -0.62799
12   0.137513
13   0.136165
14   0.143759
15   0.13821
16   0.142452
17   0.142598
18   0.137527
19   0.143623
20   0.136167
21   0.132668
22   0.137183
23   0.137392
24   0.132636
25   0.112879
26   0.142582
27   0.142568
28   0.112796
29   0.106885
30   0.129337
31   0.379554

>  <lowdin_charges>
31
1   -0.444487
2   -0.448263
3   -0.44361
4   -0.280729
5   -0.28033
6   -0.290277
7   -0.290962
8   -0.127186
9   -0.00524
10   0.014483
11   -0.459455
12   0.147868
13   0.144496
14   0.148162
15   0.149137
16   0.147985
17   0.147765
18   0.14777
19   0.147883
20   0.143972
21   0.138665
22   0.147283
23   0.147163
24   0.138204
25   0.129637
26   0.14948
27   0.149869
28   0.130013
29   0.129336
30   0.137209
31   0.334161

$$$$

