PCCDB-ID:  66197
public computational chemistry database (PCCDB) project, http://pccdb.org

 31 30  0  0  1  0  0  0  0  0999 V2000
    2.9664   -2.8631   -3.5334 C   0  0  0  0  0  0  0  0  0  0  0  0
    8.6331    0.1421    2.8650 C   0  0  0  0  0  0  0  0  0  0  0  0
    3.2690   -1.1973    2.6537 C   0  0  0  0  0  0  0  0  0  0  0  0
    3.0925   -1.3479   -3.5734 C   0  0  0  0  0  0  0  0  0  0  0  0
    8.0988    1.1488    1.8584 C   0  0  0  0  0  0  0  0  0  0  0  0
    5.0550   -0.2462   -0.6158 C   0  0  0  0  0  0  0  0  0  0  0  0
    4.3012   -1.3069    1.5599 C   0  0  0  0  0  0  0  0  0  0  0  0
    4.6797    0.0208    0.8405 C   0  0  1  0  0  0  0  0  0  0  0  0
    3.8416   -0.6953   -1.4073 C   0  0  0  0  0  0  0  0  0  0  0  0
    5.7691    0.6820    1.6809 C   0  0  0  0  0  0  0  0  0  0  0  0
    4.8368   -2.3479    1.2411 O   0  0  0  0  0  0  0  0  0  0  0  0
    2.7307   -0.8573   -0.9416 O   0  0  0  0  0  0  0  0  0  0  0  0
    5.5549    1.1943    2.7612 O   0  0  0  0  0  0  0  0  0  0  0  0
    4.1566   -0.8866   -2.7028 O   0  0  0  0  0  0  0  0  0  0  0  0
    6.9834    0.6010    1.1068 O   0  0  0  0  0  0  0  0  0  0  0  0
    2.2076   -3.1913   -4.2532 H   0  0  0  0  0  0  0  0  0  0  0  0
    2.6634   -3.1988   -2.5377 H   0  0  0  0  0  0  0  0  0  0  0  0
    3.9169   -3.3400   -3.7935 H   0  0  0  0  0  0  0  0  0  0  0  0
    9.5153    0.5558    3.3669 H   0  0  0  0  0  0  0  0  0  0  0  0
    8.9233   -0.7893    2.3687 H   0  0  0  0  0  0  0  0  0  0  0  0
    7.8794   -0.0803    3.6251 H   0  0  0  0  0  0  0  0  0  0  0  0
    3.5220   -0.3737    3.3301 H   0  0  0  0  0  0  0  0  0  0  0  0
    3.1950   -2.1397    3.2001 H   0  0  0  0  0  0  0  0  0  0  0  0
    2.3009   -0.9628    2.1931 H   0  0  0  0  0  0  0  0  0  0  0  0
    2.1599   -0.8630   -3.2752 H   0  0  0  0  0  0  0  0  0  0  0  0
    3.3853   -0.9944   -4.5650 H   0  0  0  0  0  0  0  0  0  0  0  0
    8.8413    1.3863    1.0930 H   0  0  0  0  0  0  0  0  0  0  0  0
    7.7717    2.0691    2.3479 H   0  0  0  0  0  0  0  0  0  0  0  0
    5.8143   -1.0316   -0.6709 H   0  0  0  0  0  0  0  0  0  0  0  0
    5.4840    0.6404   -1.0934 H   0  0  0  0  0  0  0  0  0  0  0  0
    3.8131    0.6858    0.8992 H   0  0  0  0  0  0  0  0  0  0  0  0
  1 17  1  0  0  0  0
  2 19  1  0  0  0  0
  2 21  1  0  0  0  0
  3 23  1  0  0  0  0
  3 22  1  0  0  0  0
  4  1  1  0  0  0  0
  4 25  1  0  0  0  0
  4 14  1  0  0  0  0
  5 28  1  0  0  0  0
  5  2  1  0  0  0  0
  6  8  1  0  0  0  0
  7  3  1  0  0  0  0
  8 31  1  1  0  0  0
  8  7  1  0  0  0  0
  8 10  1  0  0  0  0
  9 12  2  0  0  0  0
  9  6  1  0  0  0  0
 10 13  2  0  0  0  0
 11  7  2  0  0  0  0
 14  9  1  0  0  0  0
 15 10  1  0  0  0  0
 15  5  1  0  0  0  0
 16  1  1  0  0  0  0
 18  1  1  0  0  0  0
 20  2  1  0  0  0  0
 24  3  1  0  0  0  0
 26  4  1  0  0  0  0
 27  5  1  0  0  0  0
 29  6  1  0  0  0  0
 30  6  1  0  0  0  0
M  END
>  <HBA>
5

>  <HBD>
0

>  <TPSA>
69.67

>  <cid>
66197

>  <dipole>
2.44

>  <excitation_energy_1>
4.402

>  <excitation_energy_2>
5.484

>  <excitation_energy_3>
5.879

>  <excitation_energy_4>
5.984

>  <homo_energy>
-6.811

>  <homo_lumo_gap>
6.101

>  <logP>
0.708

>  <lumo_energy>
-0.71

>  <melting_point>
17.05

>  <molecular_refractivity>
52.95

>  <oscillator_strength_1>
0.0043

>  <oscillator_strength_2>
0.006

>  <oscillator_strength_3>
0.0008

>  <oscillator_strength_4>
0.0083

>  <open_babel_can_smiles>
CCOC(=O)C[C@H](C(=O)OCC)C(=O)C

>  <mulliken_charges>
31
1   -0.461958
2   -0.463259
3   -0.541119
4   -0.047648
5   -0.04854
6   -0.366662
7   0.470041
8   -0.265046
9   0.645071
10   0.62771
11   -0.437387
12   -0.491954
13   -0.483706
14   -0.466006
15   -0.450217
16   0.150631
17   0.180338
18   0.160586
19   0.152975
20   0.164922
21   0.178661
22   0.194241
23   0.174753
24   0.191365
25   0.170626
26   0.1542
27   0.156844
28   0.172991
29   0.210646
30   0.180161
31   0.186741

>  <lowdin_charges>
31
1   -0.454868
2   -0.455812
3   -0.476234
4   -0.127759
5   -0.127822
6   -0.300631
7   0.182037
8   -0.178325
9   0.204786
10   0.197804
11   -0.22927
12   -0.278104
13   -0.273026
14   -0.189585
15   -0.182093
16   0.16007
17   0.167118
18   0.158055
19   0.161253
20   0.160386
21   0.167649
22   0.18318
23   0.171237
24   0.18348
25   0.158823
26   0.152555
27   0.155926
28   0.160309
29   0.191062
30   0.176446
31   0.181353

$$$$

