PCCDB-ID:  49995
public computational chemistry database (PCCDB) project, http://pccdb.org

 36 37  0  0  0  0  0  0  0  0999 V2000
    0.7473   -1.5145    1.6456 C   0  0  0  0  0  0  0  0  0  0  0  0
    7.1874    2.4941    0.6819 C   0  0  0  0  0  0  0  0  0  0  0  0
    2.2767   -1.6048    1.6537 C   0  0  0  0  0  0  0  0  0  0  0  0
    6.6306    1.1078    1.0211 C   0  0  0  0  0  0  0  0  0  0  0  0
    6.8239   -2.9384    6.3583 C   0  0  0  0  0  0  0  0  0  0  0  0
    6.2917   -1.8294    7.0454 C   0  0  0  0  0  0  0  0  0  0  0  0
    2.9529   -0.2352    1.5104 C   0  0  0  0  0  0  0  0  0  0  0  0
    5.1048    1.1025    1.1808 C   0  0  0  0  0  0  0  0  0  0  0  0
    6.6823   -3.0733    4.9803 C   0  0  0  0  0  0  0  0  0  0  0  0
    5.6015   -0.8211    6.3755 C   0  0  0  0  0  0  0  0  0  0  0  0
    4.5003   -0.2819    1.5152 C   0  0  0  0  0  0  0  0  0  0  0  0
    5.9922   -2.0721    4.2865 C   0  0  0  0  0  0  0  0  0  0  0  0
    5.4642   -0.9654    4.9943 C   0  0  0  0  0  0  0  0  0  0  0  0
    5.0390   -0.8373    2.8053 C   0  0  0  0  0  0  0  0  0  0  0  0
    5.7099   -1.9590    2.9303 N   0  0  0  0  0  0  0  0  0  0  0  0
    4.8597   -0.1917    4.0176 N   0  0  0  0  0  0  0  0  0  0  0  0
    0.2903   -2.5063    1.7354 H   0  0  0  0  0  0  0  0  0  0  0  0
    0.3792   -1.0607    0.7170 H   0  0  0  0  0  0  0  0  0  0  0  0
    0.3800   -0.9033    2.4796 H   0  0  0  0  0  0  0  0  0  0  0  0
    8.2766    2.4672    0.5667 H   0  0  0  0  0  0  0  0  0  0  0  0
    6.9551    3.2202    1.4712 H   0  0  0  0  0  0  0  0  0  0  0  0
    6.7626    2.8775   -0.2542 H   0  0  0  0  0  0  0  0  0  0  0  0
    2.6121   -2.2558    0.8348 H   0  0  0  0  0  0  0  0  0  0  0  0
    2.6135   -2.0883    2.5792 H   0  0  0  0  0  0  0  0  0  0  0  0
    7.0996    0.7377    1.9415 H   0  0  0  0  0  0  0  0  0  0  0  0
    6.9098    0.3949    0.2333 H   0  0  0  0  0  0  0  0  0  0  0  0
    7.3554   -3.7018    6.9198 H   0  0  0  0  0  0  0  0  0  0  0  0
    6.4218   -1.7579    8.1217 H   0  0  0  0  0  0  0  0  0  0  0  0
    2.6019    0.4323    2.3128 H   0  0  0  0  0  0  0  0  0  0  0  0
    2.6294    0.2320    0.5699 H   0  0  0  0  0  0  0  0  0  0  0  0
    4.6419    1.4590    0.2501 H   0  0  0  0  0  0  0  0  0  0  0  0
    4.8142    1.8294    1.9554 H   0  0  0  0  0  0  0  0  0  0  0  0
    7.0908   -3.9255    4.4456 H   0  0  0  0  0  0  0  0  0  0  0  0
    5.1921    0.0327    6.9088 H   0  0  0  0  0  0  0  0  0  0  0  0
    4.8241   -0.9929    0.7453 H   0  0  0  0  0  0  0  0  0  0  0  0
    4.3731    0.6805    4.1607 H   0  0  0  0  0  0  0  0  0  0  0  0
  1  3  1  0  0  0  0
  1 17  1  0  0  0  0
  1 19  1  0  0  0  0
  2  4  1  0  0  0  0
  2 21  1  0  0  0  0
  3 24  1  0  0  0  0
  4  8  1  0  0  0  0
  4 25  1  0  0  0  0
  5 27  1  0  0  0  0
  5  6  2  0  0  0  0
  6 28  1  0  0  0  0
  7 11  1  0  0  0  0
  7  3  1  0  0  0  0
  7 29  1  0  0  0  0
  8 11  1  0  0  0  0
  8 32  1  0  0  0  0
  9  5  1  0  0  0  0
 10 34  1  0  0  0  0
 10  6  1  0  0  0  0
 11 14  1  0  0  0  0
 12  9  2  0  0  0  0
 12 13  1  0  0  0  0
 13 10  2  0  0  0  0
 14 15  2  0  0  0  0
 14 16  1  0  0  0  0
 15 12  1  0  0  0  0
 16 36  1  0  0  0  0
 16 13  1  0  0  0  0
 18  1  1  0  0  0  0
 20  2  1  0  0  0  0
 22  2  1  0  0  0  0
 23  3  1  0  0  0  0
 26  4  1  0  0  0  0
 30  7  1  0  0  0  0
 31  8  1  0  0  0  0
 33  9  1  0  0  0  0
 35 11  1  0  0  0  0
M  END
>  <HBA>
1

>  <HBD>
1

>  <TPSA>
28.68

>  <cid>
49995

>  <dipole>
3.19

>  <excitation_energy_1>
4.939

>  <excitation_energy_2>
5.182

>  <excitation_energy_3>
5.202

>  <excitation_energy_4>
5.308

>  <homo_energy>
-5.856

>  <homo_lumo_gap>
5.644

>  <logP>
4.247

>  <lumo_energy>
-0.212

>  <melting_point>
111.28

>  <molecular_refractivity>
69.9

>  <oscillator_strength_1>
0.0985

>  <oscillator_strength_2>
0.122

>  <oscillator_strength_3>
0.0009

>  <oscillator_strength_4>
0.0001

>  <open_babel_can_smiles>
CCCC(c1nc2c([nH]1)cccc2)CCC

>  <mulliken_charges>
36
1   -0.443394
2   -0.443175
3   -0.252444
4   -0.252815
5   -0.143201
6   -0.150325
7   -0.257695
8   -0.258666
9   -0.183699
10   -0.173861
11   -0.169852
12   0.227092
13   0.349497
14   0.51283
15   -0.549736
16   -0.740919
17   0.147162
18   0.140775
19   0.139054
20   0.147345
21   0.138754
22   0.141293
23   0.139562
24   0.152907
25   0.151503
26   0.140303
27   0.123232
28   0.124169
29   0.113979
30   0.135087
31   0.1359
32   0.112971
33   0.136389
34   0.123316
35   0.158247
36   0.328415

>  <lowdin_charges>
36
1   -0.444965
2   -0.443004
3   -0.275595
4   -0.275838
5   -0.173928
6   -0.161001
7   -0.27361
8   -0.27427
9   -0.159618
10   -0.189371
11   -0.135302
12   0.007836
13   0.017157
14   0.080707
15   -0.207576
16   -0.211404
17   0.151843
18   0.14594
19   0.145869
20   0.150415
21   0.145637
22   0.146107
23   0.145652
24   0.150455
25   0.149755
26   0.145958
27   0.157378
28   0.154308
29   0.131851
30   0.143905
31   0.14462
32   0.131146
33   0.165866
34   0.156906
35   0.164643
36   0.291525

$$$$

