PCCDB-ID:  51200
public computational chemistry database (PCCDB) project, http://pccdb.org

 30 32  0  0  0  0  0  0  0  0999 V2000
    2.5505    1.1517   -0.2727 C   0  0  0  0  0  0  0  0  0  0  0  0
    2.6623   -0.2396   -0.0252 C   0  0  0  0  0  0  0  0  0  0  0  0
    1.3203    1.7240   -0.5087 C   0  0  0  0  0  0  0  0  0  0  0  0
    1.5395   -1.0345   -0.0185 C   0  0  0  0  0  0  0  0  0  0  0  0
   -1.1463    1.4819   -0.7511 C   0  0  0  0  0  0  0  0  0  0  0  0
   -2.2695    0.6905   -0.7458 C   0  0  0  0  0  0  0  0  0  0  0  0
   -5.5386    0.5556   -3.8433 C   0  0  0  0  0  0  0  0  0  0  0  0
   -5.5476    0.5878   -2.4715 C   0  0  0  0  0  0  0  0  0  0  0  0
   -0.9189   -1.2647   -0.2606 C   0  0  0  0  0  0  0  0  0  0  0  0
   -4.7626   -1.0589   -0.6993 C   0  0  0  0  0  0  0  0  0  0  0  0
   -4.6266   -1.2723   -3.2140 C   0  0  0  0  0  0  0  0  0  0  0  0
    0.1420    0.9325   -0.5097 C   0  0  0  0  0  0  0  0  0  0  0  0
    0.2538   -0.4756   -0.2600 C   0  0  0  0  0  0  0  0  0  0  0  0
   -2.1669   -0.7082   -0.4958 C   0  0  0  0  0  0  0  0  0  0  0  0
   -3.3475   -1.6177   -0.4497 C   0  0  0  0  0  0  0  0  0  0  0  0
   -4.9605   -0.6076   -4.2991 N   0  0  0  0  0  0  0  0  0  0  0  0
   -4.9537   -0.5953   -2.0680 N   0  0  0  0  0  0  0  0  0  0  0  0
   -3.2359   -2.8092   -0.2030 O   0  0  0  0  0  0  0  0  0  0  0  0
    3.4454    1.7680   -0.2765 H   0  0  0  0  0  0  0  0  0  0  0  0
    3.6405   -0.6751    0.1581 H   0  0  0  0  0  0  0  0  0  0  0  0
    1.2361    2.7911   -0.6994 H   0  0  0  0  0  0  0  0  0  0  0  0
    1.6176   -2.1021    0.1707 H   0  0  0  0  0  0  0  0  0  0  0  0
   -1.2320    2.5477   -0.9473 H   0  0  0  0  0  0  0  0  0  0  0  0
   -3.2346    1.1400   -0.9507 H   0  0  0  0  0  0  0  0  0  0  0  0
   -5.9141    1.3036   -4.5289 H   0  0  0  0  0  0  0  0  0  0  0  0
   -5.9225    1.3062   -1.7569 H   0  0  0  0  0  0  0  0  0  0  0  0
   -0.8546   -2.3320   -0.0700 H   0  0  0  0  0  0  0  0  0  0  0  0
   -4.9633   -0.2181   -0.0281 H   0  0  0  0  0  0  0  0  0  0  0  0
   -5.4628   -1.8654   -0.4636 H   0  0  0  0  0  0  0  0  0  0  0  0
   -4.1495   -2.2433   -3.1852 H   0  0  0  0  0  0  0  0  0  0  0  0
  1  2  2  0  0  0  0
  2  4  1  0  0  0  0
  2 20  1  0  0  0  0
  3  1  1  0  0  0  0
  4 22  1  0  0  0  0
  5  6  2  0  0  0  0
  5 12  1  0  0  0  0
  6 14  1  0  0  0  0
  7  8  2  0  0  0  0
  8 17  1  0  0  0  0
  8 26  1  0  0  0  0
  9 13  1  0  0  0  0
  9 27  1  0  0  0  0
 10 29  1  0  0  0  0
 10 15  1  0  0  0  0
 10 28  1  0  0  0  0
 11 30  1  0  0  0  0
 11 17  1  0  0  0  0
 12  3  2  0  0  0  0
 12 13  1  0  0  0  0
 13  4  2  0  0  0  0
 14 15  1  0  0  0  0
 14  9  2  0  0  0  0
 15 18  2  0  0  0  0
 16  7  1  0  0  0  0
 16 11  2  0  0  0  0
 17 10  1  0  0  0  0
 19  1  1  0  0  0  0
 21  3  1  0  0  0  0
 23  5  1  0  0  0  0
 24  6  1  0  0  0  0
 25  7  1  0  0  0  0
M  END
>  <HBA>
3

>  <HBD>
0

>  <TPSA>
34.89

>  <cid>
51200

>  <dipole>
4.63

>  <excitation_energy_1>
3.418

>  <excitation_energy_2>
3.59

>  <excitation_energy_3>
3.645

>  <excitation_energy_4>
4.199

>  <homo_energy>
-6.163

>  <homo_lumo_gap>
4.068

>  <logP>
2.919

>  <lumo_energy>
-2.095

>  <melting_point>
127.78

>  <molecular_refractivity>
70.71

>  <oscillator_strength_1>
0.033

>  <oscillator_strength_2>
0.0578

>  <oscillator_strength_3>
0.0

>  <oscillator_strength_4>
0.0735

>  <open_babel_can_smiles>
O=C(c1ccc2c(c1)cccc2)Cn1cncc1

>  <mulliken_charges>
30
1   -0.12835
2   -0.138477
3   -0.19234
4   -0.178523
5   -0.200811
6   -0.169733
7   -0.035473
8   0.001497
9   -0.236891
10   -0.233411
11   0.201215
12   0.149268
13   0.136422
14   0.075718
15   0.389356
16   -0.434243
17   -0.379441
18   -0.45465
19   0.139062
20   0.138973
21   0.137384
22   0.142513
23   0.139016
24   0.139071
25   0.136709
26   0.149673
27   0.167869
28   0.174065
29   0.194216
30   0.170317

>  <lowdin_charges>
30
1   -0.146184
2   -0.154765
3   -0.153672
4   -0.143498
5   -0.1513
6   -0.154156
7   -0.152473
8   -0.186666
9   -0.113373
10   -0.217424
11   -0.099439
12   0.010708
13   -0.003054
14   -0.056715
15   0.14542
16   -0.181501
17   -0.011263
18   -0.232544
19   0.163491
20   0.162767
21   0.159641
22   0.162193
23   0.160631
24   0.165144
25   0.163621
26   0.168276
27   0.176067
28   0.17148
29   0.176267
30   0.172321

$$$$

