PCCDB-ID:  10874
public computational chemistry database (PCCDB) project, http://pccdb.org

 23 23  0  0  0  0  0  0  0  0999 V2000
    0.9009   -0.1796   -0.1100 C   0  0  0  0  0  0  0  0  0  0  0  0
    2.4216    0.0035   -0.0801 C   0  0  0  0  0  0  0  0  0  0  0  0
    2.8725    1.1344    0.8525 C   0  0  0  0  0  0  0  0  0  0  0  0
    5.3855    3.3006    4.0002 C   0  0  0  0  0  0  0  0  0  0  0  0
    4.4042    1.3082    0.8974 C   0  0  0  0  0  0  0  0  0  0  0  0
    5.0095    2.2278    3.1946 C   0  0  0  0  0  0  0  0  0  0  0  0
    5.5899    4.5439    3.4005 C   0  0  0  0  0  0  0  0  0  0  0  0
    5.0871    3.7147    1.3327 C   0  0  0  0  0  0  0  0  0  0  0  0
    4.8483    2.4215    1.8182 C   0  0  0  0  0  0  0  0  0  0  0  0
    5.4475    4.7587    2.0871 N   0  0  0  0  0  0  0  0  0  0  0  0
    0.6098   -0.9908   -0.7869 H   0  0  0  0  0  0  0  0  0  0  0  0
    0.3981    0.7341   -0.4498 H   0  0  0  0  0  0  0  0  0  0  0  0
    0.5102   -0.4207    0.8862 H   0  0  0  0  0  0  0  0  0  0  0  0
    2.7868    0.2052   -1.0971 H   0  0  0  0  0  0  0  0  0  0  0  0
    2.8986   -0.9364    0.2326 H   0  0  0  0  0  0  0  0  0  0  0  0
    2.5009    0.9429    1.8692 H   0  0  0  0  0  0  0  0  0  0  0  0
    2.4126    2.0807    0.5352 H   0  0  0  0  0  0  0  0  0  0  0  0
    5.5220    3.1776    5.0709 H   0  0  0  0  0  0  0  0  0  0  0  0
    4.7721    1.5049   -0.1183 H   0  0  0  0  0  0  0  0  0  0  0  0
    4.8618    0.3618    1.2159 H   0  0  0  0  0  0  0  0  0  0  0  0
    4.8463    1.2433    3.6286 H   0  0  0  0  0  0  0  0  0  0  0  0
    5.8847    5.4049    3.9985 H   0  0  0  0  0  0  0  0  0  0  0  0
    4.9846    3.9141    0.2653 H   0  0  0  0  0  0  0  0  0  0  0  0
  1  2  1  0  0  0  0
  1 13  1  0  0  0  0
  2 15  1  0  0  0  0
  2  3  1  0  0  0  0
  3  5  1  0  0  0  0
  3 16  1  0  0  0  0
  4 18  1  0  0  0  0
  5 20  1  0  0  0  0
  5  9  1  0  0  0  0
  6 21  1  0  0  0  0
  6  4  2  0  0  0  0
  7 22  1  0  0  0  0
  7  4  1  0  0  0  0
  8  9  2  0  0  0  0
  8 10  1  0  0  0  0
  9  6  1  0  0  0  0
 10  7  2  0  0  0  0
 11  1  1  0  0  0  0
 12  1  1  0  0  0  0
 14  2  1  0  0  0  0
 17  3  1  0  0  0  0
 19  5  1  0  0  0  0
 23  8  1  0  0  0  0
M  END
>  <HBA>
1

>  <HBD>
0

>  <TPSA>
12.89

>  <cid>
10874

>  <dipole>
2.45

>  <excitation_energy_1>
4.83

>  <excitation_energy_2>
5.168

>  <excitation_energy_3>
5.352

>  <excitation_energy_4>
6.067

>  <homo_energy>
-6.738

>  <homo_lumo_gap>
6.221

>  <logP>
2.424

>  <lumo_energy>
-0.517

>  <melting_point>
20.66

>  <molecular_refractivity>
43.62

>  <oscillator_strength_1>
0.0046

>  <oscillator_strength_2>
0.0002

>  <oscillator_strength_3>
0.0552

>  <oscillator_strength_4>
0.084

>  <open_babel_can_smiles>
CCCCc1cccnc1

>  <mulliken_charges>
23
1   -0.442336
2   -0.246722
3   -0.243656
4   -0.138595
5   -0.354096
6   -0.148146
7   0.036219
8   -0.011167
9   0.157553
10   -0.409109
11   0.144177
12   0.144579
13   0.142902
14   0.133358
15   0.131385
16   0.133771
17   0.138839
18   0.135145
19   0.145366
20   0.14265
21   0.13505
22   0.139042
23   0.133789

>  <lowdin_charges>
23
1   -0.444787
2   -0.272122
3   -0.271075
4   -0.172102
5   -0.272588
6   -0.140288
7   -0.096514
8   -0.100751
9   -0.017234
10   -0.147722
11   0.151509
12   0.14842
13   0.146699
14   0.139477
15   0.13937
16   0.140225
17   0.143865
18   0.161083
19   0.149836
20   0.14933
21   0.158517
22   0.156578
23   0.150273

$$$$

