PCCDB-ID:  72901
public computational chemistry database (PCCDB) project, http://pccdb.org

 23 25  0  0  0  0  0  0  0  0999 V2000
   -3.5926   -0.7353   -0.0240 C   0  0  0  0  0  0  0  0  0  0  0  0
   -3.6223    0.6704   -0.0360 C   0  0  0  0  0  0  0  0  0  0  0  0
   -2.3758   -1.3981   -0.0133 C   0  0  0  0  0  0  0  0  0  0  0  0
   -2.4469    1.4094   -0.0368 C   0  0  0  0  0  0  0  0  0  0  0  0
    3.5892   -0.7471    0.0054 C   0  0  0  0  0  0  0  0  0  0  0  0
    2.4109   -1.4054    0.0043 C   0  0  0  0  0  0  0  0  0  0  0  0
    2.4075    1.4507   -0.0135 C   0  0  0  0  0  0  0  0  0  0  0  0
    3.6735    0.7356   -0.0011 C   0  0  0  0  0  0  0  0  0  0  0  0
   -1.1657   -0.6778   -0.0146 C   0  0  0  0  0  0  0  0  0  0  0  0
   -1.2130    0.7416   -0.0258 C   0  0  0  0  0  0  0  0  0  0  0  0
    1.1514   -0.6876   -0.0057 C   0  0  0  0  0  0  0  0  0  0  0  0
    1.2164    0.7839   -0.0156 C   0  0  0  0  0  0  0  0  0  0  0  0
    0.0309   -1.3625   -0.0051 N   0  0  0  0  0  0  0  0  0  0  0  0
   -0.0122    1.4149   -0.0245 N   0  0  0  0  0  0  0  0  0  0  0  0
    4.7701    1.3047    0.0039 O   0  0  0  0  0  0  0  0  0  0  0  0
   -4.5214   -1.2971   -0.0232 H   0  0  0  0  0  0  0  0  0  0  0  0
   -4.5758    1.1907   -0.0448 H   0  0  0  0  0  0  0  0  0  0  0  0
   -2.3134   -2.4816   -0.0040 H   0  0  0  0  0  0  0  0  0  0  0  0
   -2.4738    2.4965   -0.0459 H   0  0  0  0  0  0  0  0  0  0  0  0
    4.5392   -1.2734    0.0120 H   0  0  0  0  0  0  0  0  0  0  0  0
    2.3454   -2.4894    0.0096 H   0  0  0  0  0  0  0  0  0  0  0  0
    2.4508    2.5368   -0.0199 H   0  0  0  0  0  0  0  0  0  0  0  0
   -0.0248    2.4277   -0.0300 H   0  0  0  0  0  0  0  0  0  0  0  0
  1 16  1  0  0  0  0
  1  3  1  0  0  0  0
  2  1  2  0  0  0  0
  3 18  1  0  0  0  0
  4  2  1  0  0  0  0
  4 10  2  0  0  0  0
  5 20  1  0  0  0  0
  6  5  2  0  0  0  0
  6 21  1  0  0  0  0
  7  8  1  0  0  0  0
  8 15  2  0  0  0  0
  8  5  1  0  0  0  0
  9  3  2  0  0  0  0
  9 13  1  0  0  0  0
 10 14  1  0  0  0  0
 10  9  1  0  0  0  0
 11 13  2  0  0  0  0
 11  6  1  0  0  0  0
 12  7  2  0  0  0  0
 12 11  1  0  0  0  0
 14 12  1  0  0  0  0
 17  2  1  0  0  0  0
 19  4  1  0  0  0  0
 22  7  1  0  0  0  0
 23 14  1  0  0  0  0
M  END
>  <HBA>
2

>  <HBD>
1

>  <TPSA>
45.75

>  <cid>
72901

>  <dipole>
6.08

>  <excitation_energy_1>
2.605

>  <excitation_energy_2>
2.634

>  <excitation_energy_3>
3.65

>  <excitation_energy_4>
3.796

>  <homo_energy>
-5.638

>  <homo_lumo_gap>
2.972

>  <logP>
2.076

>  <lumo_energy>
-2.667

>  <melting_point>
191.21

>  <molecular_refractivity>
59.87

>  <oscillator_strength_1>
0.1545

>  <oscillator_strength_2>
0.0

>  <oscillator_strength_3>
0.1751

>  <oscillator_strength_4>
0.0008

>  <open_babel_can_smiles>
O=c1ccc2c(c1)[nH]c1c(n2)cccc1

>  <mulliken_charges>
23
1   -0.138747
2   -0.130094
3   -0.159063
4   -0.190664
5   -0.179594
6   -0.140986
7   -0.31226
8   0.442814
9   0.250399
10   0.393207
11   0.277251
12   0.42629
13   -0.562004
14   -0.805494
15   -0.528782
16   0.141411
17   0.144414
18   0.155231
19   0.137227
20   0.153361
21   0.156781
22   0.130335
23   0.338967

>  <lowdin_charges>
23
1   -0.169507
2   -0.132368
3   -0.133989
4   -0.189819
5   -0.153236
6   -0.147626
7   -0.258274
8   0.12941
9   0.008644
10   0.054046
11   0.051543
12   0.049657
13   -0.119189
14   -0.173637
15   -0.285099
16   0.165638
17   0.16612
18   0.173033
19   0.159373
20   0.17501
21   0.17321
22   0.162571
23   0.29449

$$$$

