PCCDB-ID:  28225
public computational chemistry database (PCCDB) project, http://pccdb.org

 25 26  0  0  1  0  0  0  0  0999 V2000
    1.3859    0.2325   -0.5230 C   0  0  0  0  0  0  0  0  0  0  0  0
    1.6665   -1.9923    1.5071 C   0  0  0  0  0  0  0  0  0  0  0  0
    5.6186    0.0210    3.9554 C   0  0  0  0  0  0  0  0  0  0  0  0
    5.6243   -1.3491    3.6779 C   0  0  0  0  0  0  0  0  0  0  0  0
    4.7736    0.8830    3.2488 C   0  0  0  0  0  0  0  0  0  0  0  0
    4.7840   -1.8738    2.6906 C   0  0  0  0  0  0  0  0  0  0  0  0
    2.9409    1.0686    1.3738 C   0  0  0  0  0  0  0  0  0  0  0  0
    2.7010    0.0452    0.2325 C   0  0  1  0  0  0  0  0  0  0  0  0
    2.9302   -1.3503    0.9028 C   0  0  1  0  0  0  0  0  0  0  0  0
    3.9387    0.3598    2.2633 C   0  0  0  0  0  0  0  0  0  0  0  0
    3.9451   -1.0144    1.9830 C   0  0  0  0  0  0  0  0  0  0  0  0
    1.3453    1.2253   -0.9870 H   0  0  0  0  0  0  0  0  0  0  0  0
    0.5184    0.1440    0.1409 H   0  0  0  0  0  0  0  0  0  0  0  0
    1.2729   -0.5093   -1.3231 H   0  0  0  0  0  0  0  0  0  0  0  0
    0.9315   -2.2397    0.7328 H   0  0  0  0  0  0  0  0  0  0  0  0
    1.1851   -1.3278    2.2343 H   0  0  0  0  0  0  0  0  0  0  0  0
    1.9248   -2.9189    2.0318 H   0  0  0  0  0  0  0  0  0  0  0  0
    6.2800    0.4202    4.7202 H   0  0  0  0  0  0  0  0  0  0  0  0
    6.2888   -2.0095    4.2290 H   0  0  0  0  0  0  0  0  0  0  0  0
    4.7748    1.9490    3.4659 H   0  0  0  0  0  0  0  0  0  0  0  0
    4.7941   -2.9403    2.4752 H   0  0  0  0  0  0  0  0  0  0  0  0
    2.0061    1.2689    1.9202 H   0  0  0  0  0  0  0  0  0  0  0  0
    3.2971    2.0359    0.9995 H   0  0  0  0  0  0  0  0  0  0  0  0
    3.5259    0.1755   -0.4825 H   0  0  0  0  0  0  0  0  0  0  0  0
    3.3457   -2.0541    0.1688 H   0  0  0  0  0  0  0  0  0  0  0  0
  1 13  1  0  0  0  0
  1  8  1  0  0  0  0
  2 17  1  0  0  0  0
  2 16  1  0  0  0  0
  3 18  1  0  0  0  0
  4  3  1  0  0  0  0
  4 19  1  0  0  0  0
  5 20  1  0  0  0  0
  5  3  2  0  0  0  0
  6  4  2  0  0  0  0
  7 22  1  0  0  0  0
  7 10  1  0  0  0  0
  8 24  1  6  0  0  0
  8  9  1  0  0  0  0
  8  7  1  0  0  0  0
  9 25  1  6  0  0  0
  9  2  1  0  0  0  0
  9 11  1  0  0  0  0
 10  5  1  0  0  0  0
 11 10  2  0  0  0  0
 11  6  1  0  0  0  0
 12  1  1  0  0  0  0
 14  1  1  0  0  0  0
 15  2  1  0  0  0  0
 21  6  1  0  0  0  0
 23  7  1  0  0  0  0
M  END
>  <HBA>
0

>  <HBD>
0

>  <TPSA>
0.0

>  <cid>
28225

>  <dipole>
0.51

>  <excitation_energy_1>
5.166

>  <excitation_energy_2>
5.72

>  <excitation_energy_3>
5.863

>  <excitation_energy_4>
6.082

>  <homo_energy>
-6.188

>  <homo_lumo_gap>
6.308

>  <logP>
2.982

>  <lumo_energy>
0.12

>  <melting_point>
32.58

>  <molecular_refractivity>
48.68

>  <oscillator_strength_1>
0.0207

>  <oscillator_strength_2>
0.019

>  <oscillator_strength_3>
0.004

>  <oscillator_strength_4>
0.0254

>  <open_babel_can_smiles>
C[C@H]1[C@@H](C)Cc2c1cccc2

>  <mulliken_charges>
25
1   -0.454712
2   -0.444976
3   -0.132672
4   -0.132703
5   -0.198838
6   -0.198735
7   -0.350979
8   -0.089376
9   -0.165121
10   0.129874
11   0.130117
12   0.142544
13   0.145381
14   0.141904
15   0.144307
16   0.14676
17   0.146059
18   0.123891
19   0.123725
20   0.12162
21   0.121255
22   0.14598
23   0.14368
24   0.132973
25   0.12804

>  <lowdin_charges>
25
1   -0.446786
2   -0.445911
3   -0.160534
4   -0.162306
5   -0.165054
6   -0.165013
7   -0.281131
8   -0.122149
9   -0.130251
10   -0.013369
11   -0.012841
12   0.15022
13   0.149008
14   0.149625
15   0.149745
16   0.150503
17   0.152394
18   0.156065
19   0.156526
20   0.152567
21   0.152069
22   0.148657
23   0.150482
24   0.143441
25   0.144045

$$$$

