PCCDB-ID:  11671
public computational chemistry database (PCCDB) project, http://pccdb.org

 15 14  0  0  0  0  0  0  0  0999 V2000
    0.9645    0.2946   -0.2680 C   0  0  0  0  0  0  0  0  0  0  0  0
    3.2294    1.2621   -0.9283 C   0  0  0  0  0  0  0  0  0  0  0  0
    2.9610    0.0161    1.2559 C   0  0  0  0  0  0  0  0  0  0  0  0
    2.4940    0.1132   -0.2113 C   0  0  0  0  0  0  0  0  0  0  0  0
    3.5027   -0.9756    1.6889 O   0  0  0  0  0  0  0  0  0  0  0  0
    2.7444    1.0820    2.0553 O   0  0  0  0  0  0  0  0  0  0  0  0
    2.8294   -1.1032   -0.8488 O   0  0  0  0  0  0  0  0  0  0  0  0
    0.6299    1.2422    0.1725 H   0  0  0  0  0  0  0  0  0  0  0  0
    0.4653   -0.5282    0.2527 H   0  0  0  0  0  0  0  0  0  0  0  0
    0.6484    0.2786   -1.3153 H   0  0  0  0  0  0  0  0  0  0  0  0
    2.9798    2.2502   -0.5219 H   0  0  0  0  0  0  0  0  0  0  0  0
    2.9474    1.2516   -1.9854 H   0  0  0  0  0  0  0  0  0  0  0  0
    4.3124    1.1200   -0.8627 H   0  0  0  0  0  0  0  0  0  0  0  0
    2.3050    1.7904    1.5567 H   0  0  0  0  0  0  0  0  0  0  0  0
    3.2564   -1.6529   -0.1630 H   0  0  0  0  0  0  0  0  0  0  0  0
  1  4  1  0  0  0  0
  1  8  1  0  0  0  0
  1  9  1  0  0  0  0
  2 13  1  0  0  0  0
  2 11  1  0  0  0  0
  2  4  1  0  0  0  0
  3  5  2  0  0  0  0
  3  6  1  0  0  0  0
  4  3  1  0  0  0  0
  7  4  1  0  0  0  0
  7 15  1  0  0  0  0
 10  1  1  0  0  0  0
 12  2  1  0  0  0  0
 14  6  1  0  0  0  0
M  END
>  <HBA>
3

>  <HBD>
2

>  <TPSA>
57.53

>  <cid>
11671

>  <dipole>
3.5

>  <excitation_energy_1>
5.88

>  <excitation_energy_2>
6.3

>  <excitation_energy_3>
6.58

>  <excitation_energy_4>
6.889

>  <homo_energy>
-7.472

>  <homo_lumo_gap>
7.366

>  <logP>
-0.158

>  <lumo_energy>
-0.106

>  <melting_point>
81.56

>  <molecular_refractivity>
24.31

>  <oscillator_strength_1>
0.002

>  <oscillator_strength_2>
0.0148

>  <oscillator_strength_3>
0.0162

>  <oscillator_strength_4>
0.0107

>  <open_babel_can_smiles>
OC(=O)C(O)(C)C

>  <mulliken_charges>
15
1   -0.448439
2   -0.449067
3   0.592059
4   0.208462
5   -0.461031
6   -0.562655
7   -0.650611
8   0.122754
9   0.170612
10   0.174838
11   0.122633
12   0.175227
13   0.170605
14   0.420224
15   0.41439

>  <lowdin_charges>
15
1   -0.450347
2   -0.447131
3   0.183787
4   0.083439
5   -0.243753
6   -0.336993
7   -0.455602
8   0.141106
9   0.166666
10   0.167716
11   0.140561
12   0.167738
13   0.163747
14   0.36453
15   0.354536

$$$$

