PCCDB-ID:  22770
public computational chemistry database (PCCDB) project, http://pccdb.org

 22 22  0  0  0  0  0  0  0  0999 V2000
    1.3768   -1.1181    1.7381 C   0  0  0  0  0  0  0  0  0  0  0  0
    4.1276    1.0386   -0.7840 C   0  0  0  0  0  0  0  0  0  0  0  0
    3.5955   -3.9231   -0.5244 C   0  0  0  0  0  0  0  0  0  0  0  0
    2.8807   -3.0126    0.2598 C   0  0  0  0  0  0  0  0  0  0  0  0
    4.2489   -2.1325   -1.9903 C   0  0  0  0  0  0  0  0  0  0  0  0
    4.2849   -3.4986   -1.6647 C   0  0  0  0  0  0  0  0  0  0  0  0
    2.8333   -1.6586   -0.0739 C   0  0  0  0  0  0  0  0  0  0  0  0
    3.5389   -1.2215   -1.2163 C   0  0  0  0  0  0  0  0  0  0  0  0
    5.0553   -4.3934   -2.4285 N   0  0  0  0  0  0  0  0  0  0  0  0
    2.1339   -0.6996    0.6177 O   0  0  0  0  0  0  0  0  0  0  0  0
    3.4908    0.0865   -1.6381 O   0  0  0  0  0  0  0  0  0  0  0  0
    0.8908   -0.2203    2.1255 H   0  0  0  0  0  0  0  0  0  0  0  0
    2.0134   -1.5514    2.5222 H   0  0  0  0  0  0  0  0  0  0  0  0
    0.6091   -1.8517    1.4557 H   0  0  0  0  0  0  0  0  0  0  0  0
    5.1912    0.7961   -0.6542 H   0  0  0  0  0  0  0  0  0  0  0  0
    3.6412    1.0888    0.1946 H   0  0  0  0  0  0  0  0  0  0  0  0
    4.0377    2.0034   -1.2891 H   0  0  0  0  0  0  0  0  0  0  0  0
    3.6124   -4.9726   -0.2401 H   0  0  0  0  0  0  0  0  0  0  0  0
    2.3469   -3.3810    1.1289 H   0  0  0  0  0  0  0  0  0  0  0  0
    4.7741   -1.7536   -2.8629 H   0  0  0  0  0  0  0  0  0  0  0  0
    4.7364   -5.3540   -2.3752 H   0  0  0  0  0  0  0  0  0  0  0  0
    5.1655   -4.1139   -3.3965 H   0  0  0  0  0  0  0  0  0  0  0  0
  1 12  1  0  0  0  0
  1 13  1  0  0  0  0
  2 15  1  0  0  0  0
  2 16  1  0  0  0  0
  3 18  1  0  0  0  0
  3  4  2  0  0  0  0
  4 19  1  0  0  0  0
  5  6  2  0  0  0  0
  5  8  1  0  0  0  0
  6  3  1  0  0  0  0
  7  4  1  0  0  0  0
  7 10  1  0  0  0  0
  8  7  2  0  0  0  0
  9 21  1  0  0  0  0
  9  6  1  0  0  0  0
 10  1  1  0  0  0  0
 11  8  1  0  0  0  0
 11  2  1  0  0  0  0
 14  1  1  0  0  0  0
 17  2  1  0  0  0  0
 20  5  1  0  0  0  0
 22  9  1  0  0  0  0
M  END
>  <HBA>
3

>  <HBD>
1

>  <TPSA>
44.48

>  <cid>
22770

>  <dipole>
1.58

>  <excitation_energy_1>
4.418

>  <excitation_energy_2>
4.468

>  <excitation_energy_3>
4.798

>  <excitation_energy_4>
5.048

>  <homo_energy>
-4.942

>  <homo_lumo_gap>
5.236

>  <logP>
1.867

>  <lumo_energy>
0.294

>  <melting_point>
64.69

>  <molecular_refractivity>
43.83

>  <oscillator_strength_1>
0.058

>  <oscillator_strength_2>
0.0037

>  <oscillator_strength_3>
0.0034

>  <oscillator_strength_4>
0.0178

>  <open_babel_can_smiles>
COc1cc(N)ccc1OC

>  <mulliken_charges>
22
1   -0.211189
2   -0.20987
3   -0.182019
4   -0.210913
5   -0.22729
6   0.303807
7   0.337836
8   0.310935
9   -0.789421
10   -0.514517
11   -0.523012
12   0.166078
13   0.147156
14   0.149358
15   0.137348
16   0.163715
17   0.154402
18   0.113354
19   0.129707
20   0.123461
21   0.314681
22   0.316391

>  <lowdin_charges>
22
1   -0.279355
2   -0.273723
3   -0.20396
4   -0.198512
5   -0.211576
6   0.048257
7   0.0534
8   0.081474
9   -0.49289
10   -0.202657
11   -0.22496
12   0.161422
13   0.142868
14   0.144236
15   0.135777
16   0.149763
17   0.153469
18   0.150794
19   0.16201
20   0.162331
21   0.270675
22   0.27116

$$$$

