PCCDB-ID:  13700
public computational chemistry database (PCCDB) project, http://pccdb.org

 37 37  0  0  0  0  0  0  0  0999 V2000
    7.0442   -0.1241   -4.6948 C   0  0  0  0  0  0  0  0  0  0  0  0
    5.8690   -0.4631   -3.7704 C   0  0  0  0  0  0  0  0  0  0  0  0
    6.1815   -0.3281   -2.2690 C   0  0  0  0  0  0  0  0  0  0  0  0
    6.5684    1.0804   -1.7844 C   0  0  0  0  0  0  0  0  0  0  0  0
    5.4642    2.1346   -1.9454 C   0  0  0  0  0  0  0  0  0  0  0  0
    5.8513    3.5010   -1.3582 C   0  0  0  0  0  0  0  0  0  0  0  0
    4.7852    4.6055   -1.5039 C   0  0  0  0  0  0  0  0  0  0  0  0
    5.3005    3.5923   -6.1814 C   0  0  0  0  0  0  0  0  0  0  0  0
    4.0095    3.1386   -6.4451 C   0  0  0  0  0  0  0  0  0  0  0  0
    4.8103    5.4014   -2.8315 C   0  0  0  0  0  0  0  0  0  0  0  0
    5.5447    4.3261   -5.0173 C   0  0  0  0  0  0  0  0  0  0  0  0
    2.9761    3.4252   -5.5515 C   0  0  0  0  0  0  0  0  0  0  0  0
    4.5344    4.6158   -4.0949 C   0  0  0  0  0  0  0  0  0  0  0  0
    3.2363    4.1580   -4.3912 C   0  0  0  0  0  0  0  0  0  0  0  0
    2.2450    4.4685   -3.4932 O   0  0  0  0  0  0  0  0  0  0  0  0
    6.7906   -0.3254   -5.7421 H   0  0  0  0  0  0  0  0  0  0  0  0
    7.9305   -0.7215   -4.4453 H   0  0  0  0  0  0  0  0  0  0  0  0
    7.3244    0.9329   -4.6254 H   0  0  0  0  0  0  0  0  0  0  0  0
    5.5523   -1.4977   -3.9615 H   0  0  0  0  0  0  0  0  0  0  0  0
    5.0094    0.1673   -4.0330 H   0  0  0  0  0  0  0  0  0  0  0  0
    6.9968   -1.0221   -2.0173 H   0  0  0  0  0  0  0  0  0  0  0  0
    5.3064   -0.6687   -1.6966 H   0  0  0  0  0  0  0  0  0  0  0  0
    7.4722    1.4202   -2.3098 H   0  0  0  0  0  0  0  0  0  0  0  0
    6.8482    1.0158   -0.7228 H   0  0  0  0  0  0  0  0  0  0  0  0
    4.5503    1.7799   -1.4445 H   0  0  0  0  0  0  0  0  0  0  0  0
    5.2086    2.2447   -3.0044 H   0  0  0  0  0  0  0  0  0  0  0  0
    6.7956    3.8416   -1.8100 H   0  0  0  0  0  0  0  0  0  0  0  0
    6.0681    3.3631   -0.2891 H   0  0  0  0  0  0  0  0  0  0  0  0
    4.9265    5.3395   -0.6991 H   0  0  0  0  0  0  0  0  0  0  0  0
    3.7854    4.1798   -1.3562 H   0  0  0  0  0  0  0  0  0  0  0  0
    6.1098    3.3844   -6.8752 H   0  0  0  0  0  0  0  0  0  0  0  0
    3.7973    2.5687   -7.3456 H   0  0  0  0  0  0  0  0  0  0  0  0
    5.7921    5.8826   -2.9302 H   0  0  0  0  0  0  0  0  0  0  0  0
    4.0718    6.2090   -2.7474 H   0  0  0  0  0  0  0  0  0  0  0  0
    6.5505    4.6860   -4.8117 H   0  0  0  0  0  0  0  0  0  0  0  0
    1.9631    3.0806   -5.7547 H   0  0  0  0  0  0  0  0  0  0  0  0
    1.4067    4.1027   -3.8153 H   0  0  0  0  0  0  0  0  0  0  0  0
  1 18  1  0  0  0  0
  1 17  1  0  0  0  0
  1  2  1  0  0  0  0
  2  3  1  0  0  0  0
  3 21  1  0  0  0  0
  3  4  1  0  0  0  0
  3 22  1  0  0  0  0
  4 24  1  0  0  0  0
  5  4  1  0  0  0  0
  5 25  1  0  0  0  0
  5  6  1  0  0  0  0
  6 28  1  0  0  0  0
  7  6  1  0  0  0  0
  7 30  1  0  0  0  0
  7 29  1  0  0  0  0
  8 11  1  0  0  0  0
  9  8  2  0  0  0  0
  9 12  1  0  0  0  0
 10 34  1  0  0  0  0
 10  7  1  0  0  0  0
 11 35  1  0  0  0  0
 11 13  2  0  0  0  0
 12 14  2  0  0  0  0
 13 10  1  0  0  0  0
 14 13  1  0  0  0  0
 14 15  1  0  0  0  0
 16  1  1  0  0  0  0
 19  2  1  0  0  0  0
 20  2  1  0  0  0  0
 23  4  1  0  0  0  0
 26  5  1  0  0  0  0
 27  6  1  0  0  0  0
 31  8  1  0  0  0  0
 32  9  1  0  0  0  0
 33 10  1  0  0  0  0
 36 12  1  0  0  0  0
 37 15  1  0  0  0  0
M  END
>  <HBA>
1

>  <HBD>
1

>  <TPSA>
20.23

>  <cid>
13700

>  <dipole>
1.4

>  <excitation_energy_1>
4.982

>  <excitation_energy_2>
5.111

>  <excitation_energy_3>
5.616

>  <excitation_energy_4>
5.655

>  <homo_energy>
-5.864

>  <homo_lumo_gap>
5.929

>  <logP>
4.295

>  <lumo_energy>
0.065

>  <melting_point>
43.48

>  <molecular_refractivity>
67.08

>  <oscillator_strength_1>
0.0411

>  <oscillator_strength_2>
0.0009

>  <oscillator_strength_3>
0.0066

>  <oscillator_strength_4>
0.0228

>  <open_babel_can_smiles>
CCCCCCCCc1ccccc1O

>  <mulliken_charges>
37
1   -0.442309
2   -0.25157
3   -0.251304
4   -0.255057
5   -0.261532
6   -0.253983
7   -0.259757
8   -0.128205
9   -0.138949
10   -0.338242
11   -0.200531
12   -0.188101
13   0.1448
14   0.293626
15   -0.644632
16   0.137941
17   0.13642
18   0.148504
19   0.125602
20   0.141181
21   0.122662
22   0.123342
23   0.128445
24   0.12257
25   0.12094
26   0.15676
27   0.121805
28   0.125558
29   0.126827
30   0.150938
31   0.125784
32   0.128843
33   0.133237
34   0.151954
35   0.124282
36   0.115021
37   0.407129

>  <lowdin_charges>
37
1   -0.445054
2   -0.27623
3   -0.27766
4   -0.276837
5   -0.28187
6   -0.274692
7   -0.275654
8   -0.180822
9   -0.151257
10   -0.271041
11   -0.158625
12   -0.213199
13   -0.028527
14   0.093266
15   -0.381986
16   0.146651
17   0.143966
18   0.146906
19   0.138385
20   0.143502
21   0.138399
22   0.138609
23   0.137826
24   0.136264
25   0.134933
26   0.149624
27   0.135004
28   0.137274
29   0.14288
30   0.148687
31   0.158197
32   0.158047
33   0.144368
34   0.157607
35   0.154707
36   0.15061
37   0.357742

$$$$

