PCCDB-ID:  59688
public computational chemistry database (PCCDB) project, http://pccdb.org

 36 37  0  0  1  0  0  0  0  0999 V2000
    2.1690    0.8410   -1.4268 C   0  0  0  0  0  0  0  0  0  0  0  0
    2.3303    1.8309    0.9190 C   0  0  0  0  0  0  0  0  0  0  0  0
    9.6254   -5.0888   -0.9316 C   0  0  0  0  0  0  0  0  0  0  0  0
    8.5462   -5.6109   -0.2112 C   0  0  0  0  0  0  0  0  0  0  0  0
    9.7828   -3.7075   -1.0139 C   0  0  0  0  0  0  0  0  0  0  0  0
    7.6397   -4.7634    0.4171 C   0  0  0  0  0  0  0  0  0  0  0  0
    8.8784   -2.8416   -0.3902 C   0  0  0  0  0  0  0  0  0  0  0  0
    5.6024    0.6862   -0.2948 C   0  0  0  0  0  0  0  0  0  0  0  0
    6.9008   -1.1927    0.9555 C   0  0  0  0  0  0  0  0  0  0  0  0
    1.9781    0.5903    0.0805 C   0  0  0  0  0  0  0  0  0  0  0  0
    6.3057   -0.6475   -0.3210 C   0  0  1  0  0  0  0  0  0  0  0  0
    7.8043   -3.3749    0.3292 C   0  0  0  0  0  0  0  0  0  0  0  0
    4.8025   -0.5701   -0.5545 C   0  0  1  0  0  0  0  0  0  0  0  0
    3.7427   -1.0739    0.4108 C   0  0  0  0  0  0  0  0  0  0  0  0
    2.5902   -0.6063    0.6483 N   0  0  0  0  0  0  0  0  0  0  0  0
    4.0628   -2.2200    1.0829 O   0  0  0  0  0  0  0  0  0  0  0  0
    6.8603   -2.6296    1.0001 O   0  0  0  0  0  0  0  0  0  0  0  0
    3.1680    1.2139   -1.6715 H   0  0  0  0  0  0  0  0  0  0  0  0
    1.9877   -0.0761   -1.9992 H   0  0  0  0  0  0  0  0  0  0  0  0
    1.4455    1.5924   -1.7655 H   0  0  0  0  0  0  0  0  0  0  0  0
    1.7019    2.6812    0.6285 H   0  0  0  0  0  0  0  0  0  0  0  0
    3.3772    2.1232    0.7817 H   0  0  0  0  0  0  0  0  0  0  0  0
    2.1675    1.6280    1.9822 H   0  0  0  0  0  0  0  0  0  0  0  0
   10.3315   -5.7525   -1.4216 H   0  0  0  0  0  0  0  0  0  0  0  0
    8.4092   -6.6862   -0.1360 H   0  0  0  0  0  0  0  0  0  0  0  0
   10.6151   -3.2858   -1.5712 H   0  0  0  0  0  0  0  0  0  0  0  0
    6.8007   -5.1539    0.9849 H   0  0  0  0  0  0  0  0  0  0  0  0
    9.0238   -1.7708   -0.4746 H   0  0  0  0  0  0  0  0  0  0  0  0
    5.7653    1.3851   -1.1105 H   0  0  0  0  0  0  0  0  0  0  0  0
    5.4820    1.1596    0.6764 H   0  0  0  0  0  0  0  0  0  0  0  0
    6.3148   -0.8808    1.8235 H   0  0  0  0  0  0  0  0  0  0  0  0
    7.9290   -0.8424    1.1004 H   0  0  0  0  0  0  0  0  0  0  0  0
    0.9000    0.4272    0.2193 H   0  0  0  0  0  0  0  0  0  0  0  0
    6.8881   -0.8694   -1.2125 H   0  0  0  0  0  0  0  0  0  0  0  0
    4.5173   -0.7207   -1.5932 H   0  0  0  0  0  0  0  0  0  0  0  0
    4.9426   -2.5465    0.8193 H   0  0  0  0  0  0  0  0  0  0  0  0
  1 10  1  0  0  0  0
  2 23  1  0  0  0  0
  3  4  1  0  0  0  0
  4 25  1  0  0  0  0
  4  6  2  0  0  0  0
  5  3  2  0  0  0  0
  5  7  1  0  0  0  0
  6 27  1  0  0  0  0
  7 12  2  0  0  0  0
  8 30  1  0  0  0  0
  9 17  1  0  0  0  0
  9 32  1  0  0  0  0
  9 31  1  0  0  0  0
 10 33  1  0  0  0  0
 10 15  1  0  0  0  0
 10  2  1  0  0  0  0
 11 34  1  6  0  0  0
 11  8  1  0  0  0  0
 11  9  1  0  0  0  0
 12  6  1  0  0  0  0
 12 17  1  0  0  0  0
 13 35  1  6  0  0  0
 13 11  1  0  0  0  0
 13  8  1  0  0  0  0
 13 14  1  0  0  0  0
 14 15  2  0  0  0  0
 14 16  1  0  0  0  0
 18  1  1  0  0  0  0
 19  1  1  0  0  0  0
 20  1  1  0  0  0  0
 21  2  1  0  0  0  0
 22  2  1  0  0  0  0
 24  3  1  0  0  0  0
 26  5  1  0  0  0  0
 28  7  1  0  0  0  0
 29  8  1  0  0  0  0
 36 16  1  0  0  0  0
M  END
>  <HBA>
3

>  <HBD>
1

>  <TPSA>
38.33

>  <cid>
59688

>  <dipole>
4.72

>  <excitation_energy_1>
5.039

>  <excitation_energy_2>
5.068

>  <excitation_energy_3>
5.295

>  <excitation_energy_4>
5.488

>  <homo_energy>
-6.003

>  <homo_lumo_gap>
5.761

>  <logP>
2.617

>  <lumo_energy>
-0.242

>  <melting_point>
74.92

>  <molecular_refractivity>
67.47

>  <oscillator_strength_1>
0.0014

>  <oscillator_strength_2>
0.0224

>  <oscillator_strength_3>
0.0013

>  <oscillator_strength_4>
0.0102

>  <open_babel_can_smiles>
CC(/N=C(\[C@H]1C[C@H]1COc1ccccc1)/O)C

>  <mulliken_charges>
36
1   -0.462302
2   -0.447896
3   -0.130188
4   -0.133352
5   -0.13908
6   -0.175008
7   -0.187491
8   -0.312974
9   -0.085574
10   0.04315
11   -0.154028
12   0.373362
13   -0.205222
14   0.465264
15   -0.417958
16   -0.60868
17   -0.546475
18   0.140913
19   0.146575
20   0.140372
21   0.136827
22   0.136598
23   0.15882
24   0.130616
25   0.136778
26   0.13363
27   0.147078
28   0.134149
29   0.162499
30   0.169355
31   0.178153
32   0.16367
33   0.137798
34   0.159964
35   0.179128
36   0.431528

>  <lowdin_charges>
36
1   -0.461611
2   -0.446738
3   -0.176021
4   -0.140871
5   -0.145326
6   -0.18157
7   -0.211626
8   -0.304334
9   -0.134131
10   -0.049768
11   -0.174847
12   0.10176
13   -0.186095
14   0.125577
15   -0.209673
16   -0.379687
17   -0.212377
18   0.14616
19   0.150812
20   0.152127
21   0.148548
22   0.142248
23   0.156302
24   0.160794
25   0.159792
26   0.160411
27   0.170214
28   0.159824
29   0.165686
30   0.165466
31   0.167207
32   0.153001
33   0.140807
34   0.163116
35   0.174503
36   0.35032

$$$$

