PCCDB-ID:  15084
public computational chemistry database (PCCDB) project, http://pccdb.org

 38 39  0  0  1  0  0  0  0  0999 V2000
    1.8398   -1.1621   -2.3596 C   0  0  0  0  0  0  0  0  0  0  0  0
    1.2605    1.5198    0.2164 C   0  0  0  0  0  0  0  0  0  0  0  0
    2.1715    0.3414   -2.4055 C   0  0  0  0  0  0  0  0  0  0  0  0
    2.5699    0.7608   -0.0067 C   0  0  0  0  0  0  0  0  0  0  0  0
   11.2515    0.8238   -0.8507 C   0  0  0  0  0  0  0  0  0  0  0  0
   10.5776    1.9427   -0.3536 C   0  0  0  0  0  0  0  0  0  0  0  0
   10.5690   -0.1159   -1.6220 C   0  0  0  0  0  0  0  0  0  0  0  0
    9.2271    2.1301   -0.6444 C   0  0  0  0  0  0  0  0  0  0  0  0
    5.1564    0.8074   -2.7674 C   0  0  0  0  0  0  0  0  0  0  0  0
    4.4536    0.3619   -1.4758 C   0  0  0  0  0  0  0  0  0  0  0  0
    7.1489   -0.8208   -2.5810 C   0  0  0  0  0  0  0  0  0  0  0  0
    6.6735    0.6193   -2.7599 C   0  0  2  0  0  0  0  0  0  0  0  0
    9.2146    0.0620   -1.9064 C   0  0  0  0  0  0  0  0  0  0  0  0
    8.5425    1.1982   -1.4256 C   0  0  0  0  0  0  0  0  0  0  0  0
    3.0817    0.8609   -1.3773 N   0  0  0  0  0  0  0  0  0  0  0  0
    8.5728   -0.8865   -2.6669 O   0  0  0  0  0  0  0  0  0  0  0  0
    7.2137    1.4225   -1.6981 O   0  0  0  0  0  0  0  0  0  0  0  0
    1.1669   -1.4199   -3.1858 H   0  0  0  0  0  0  0  0  0  0  0  0
    1.3392   -1.4421   -1.4262 H   0  0  0  0  0  0  0  0  0  0  0  0
    2.7358   -1.7855   -2.4574 H   0  0  0  0  0  0  0  0  0  0  0  0
    1.0267    1.5473    1.2865 H   0  0  0  0  0  0  0  0  0  0  0  0
    0.4099    1.0506   -0.2892 H   0  0  0  0  0  0  0  0  0  0  0  0
    1.3492    2.5500   -0.1449 H   0  0  0  0  0  0  0  0  0  0  0  0
    1.2402    0.9145   -2.3456 H   0  0  0  0  0  0  0  0  0  0  0  0
    2.6005    0.5842   -3.3839 H   0  0  0  0  0  0  0  0  0  0  0  0
    2.4461   -0.2886    0.3262 H   0  0  0  0  0  0  0  0  0  0  0  0
    3.3366    1.1954    0.6461 H   0  0  0  0  0  0  0  0  0  0  0  0
   12.3052    0.6765   -0.6326 H   0  0  0  0  0  0  0  0  0  0  0  0
   11.1031    2.6746    0.2529 H   0  0  0  0  0  0  0  0  0  0  0  0
   11.0638   -1.0002   -2.0122 H   0  0  0  0  0  0  0  0  0  0  0  0
    8.6812    2.9959   -0.2817 H   0  0  0  0  0  0  0  0  0  0  0  0
    4.9473    1.8726   -2.9186 H   0  0  0  0  0  0  0  0  0  0  0  0
    4.7635    0.2751   -3.6428 H   0  0  0  0  0  0  0  0  0  0  0  0
    5.0120    0.7829   -0.6334 H   0  0  0  0  0  0  0  0  0  0  0  0
    4.5129   -0.7390   -1.3694 H   0  0  0  0  0  0  0  0  0  0  0  0
    6.7659   -1.4653   -3.3767 H   0  0  0  0  0  0  0  0  0  0  0  0
    6.8202   -1.2163   -1.6108 H   0  0  0  0  0  0  0  0  0  0  0  0
    7.0857    0.9882   -3.7111 H   0  0  0  0  0  0  0  0  0  0  0  0
  1 19  1  0  0  0  0
  2 21  1  0  0  0  0
  3  1  1  0  0  0  0
  3 24  1  0  0  0  0
  3 15  1  0  0  0  0
  4  2  1  0  0  0  0
  4 26  1  0  0  0  0
  4 27  1  0  0  0  0
  5 28  1  0  0  0  0
  5  6  2  0  0  0  0
  6 29  1  0  0  0  0
  7  5  1  0  0  0  0
  8  6  1  0  0  0  0
  8 31  1  0  0  0  0
  9 12  1  0  0  0  0
  9 10  1  0  0  0  0
 10 15  1  0  0  0  0
 10 35  1  0  0  0  0
 10 34  1  0  0  0  0
 11 37  1  0  0  0  0
 12 38  1  6  0  0  0
 12 11  1  0  0  0  0
 12 17  1  0  0  0  0
 13  7  2  0  0  0  0
 13 14  1  0  0  0  0
 14  8  2  0  0  0  0
 15  4  1  0  0  0  0
 16 11  1  0  0  0  0
 16 13  1  0  0  0  0
 17 14  1  0  0  0  0
 18  1  1  0  0  0  0
 20  1  1  0  0  0  0
 22  2  1  0  0  0  0
 23  2  1  0  0  0  0
 25  3  1  0  0  0  0
 30  7  1  0  0  0  0
 32  9  1  0  0  0  0
 33  9  1  0  0  0  0
 36 11  1  0  0  0  0
M  END
>  <HBA>
3

>  <HBD>
0

>  <TPSA>
21.7

>  <cid>
15084

>  <dipole>
1.91

>  <excitation_energy_1>
4.878

>  <excitation_energy_2>
4.981

>  <excitation_energy_3>
5.165

>  <excitation_energy_4>
5.186

>  <homo_energy>
-5.567

>  <homo_lumo_gap>
5.791

>  <logP>
2.558

>  <lumo_energy>
0.223

>  <melting_point>
35.76

>  <molecular_refractivity>
69.05

>  <oscillator_strength_1>
0.0495

>  <oscillator_strength_2>
0.0079

>  <oscillator_strength_3>
0.0005

>  <oscillator_strength_4>
0.0084

>  <open_babel_can_smiles>
CCN(CC[C@@H]1COc2c(O1)cccc2)CC

>  <mulliken_charges>
38
1   -0.460121
2   -0.458547
3   -0.140141
4   -0.105628
5   -0.138294
6   -0.137937
7   -0.191264
8   -0.193581
9   -0.299954
10   -0.122509
11   -0.055005
12   0.105965
13   0.328512
14   0.334997
15   -0.388177
16   -0.528486
17   -0.540972
18   0.143801
19   0.151122
20   0.144857
21   0.144508
22   0.147123
23   0.157175
24   0.14574
25   0.140617
26   0.111708
27   0.139532
28   0.126407
29   0.126432
30   0.137435
31   0.137222
32   0.167209
33   0.140144
34   0.16137
35   0.110421
36   0.154238
37   0.157008
38   0.147072

>  <lowdin_charges>
38
1   -0.46824
2   -0.450053
3   -0.206784
4   -0.196923
5   -0.165439
6   -0.168161
7   -0.17706
8   -0.178366
9   -0.286617
10   -0.203877
11   -0.145174
12   -0.006732
13   0.059323
14   0.061436
15   -0.190059
16   -0.20947
17   -0.211627
18   0.15435
19   0.150727
20   0.147598
21   0.15269
22   0.148595
23   0.154378
24   0.147266
25   0.143345
26   0.114737
27   0.146557
28   0.156207
29   0.159045
30   0.166948
31   0.166904
32   0.162479
33   0.149249
34   0.156361
35   0.112475
36   0.160307
37   0.14791
38   0.145695

$$$$

