PCCDB-ID:  66765
public computational chemistry database (PCCDB) project, http://pccdb.org

 18 19  0  0  0  0  0  0  0  0999 V2000
    2.0959   -0.6724   -0.0448 C   0  0  0  0  0  0  0  0  0  0  0  0
    0.9036   -1.3910   -0.0174 C   0  0  0  0  0  0  0  0  0  0  0  0
    0.9123    1.4605   -0.0285 C   0  0  0  0  0  0  0  0  0  0  0  0
    2.1169    0.7410   -0.0503 C   0  0  0  0  0  0  0  0  0  0  0  0
   -0.3024   -0.6894    0.0043 C   0  0  0  0  0  0  0  0  0  0  0  0
   -0.2681    0.7252   -0.0031 C   0  0  0  0  0  0  0  0  0  0  0  0
   -2.3335   -0.0609    0.0450 C   0  0  0  0  0  0  0  0  0  0  0  0
    3.3450    1.4210   -0.1438 N   0  0  0  0  0  0  0  0  0  0  0  0
   -1.6233   -1.1506    0.0369 N   0  0  0  0  0  0  0  0  0  0  0  0
   -1.6074    1.1046    0.0262 N   0  0  0  0  0  0  0  0  0  0  0  0
   -3.6759    0.0233    0.0726 O   0  0  0  0  0  0  0  0  0  0  0  0
    3.0426   -1.2073   -0.0672 H   0  0  0  0  0  0  0  0  0  0  0  0
    0.9079   -2.4766   -0.0092 H   0  0  0  0  0  0  0  0  0  0  0  0
    0.9138    2.5476   -0.0400 H   0  0  0  0  0  0  0  0  0  0  0  0
    4.1293    0.8972    0.2270 H   0  0  0  0  0  0  0  0  0  0  0  0
    3.3298    2.3546    0.2503 H   0  0  0  0  0  0  0  0  0  0  0  0
   -1.9922    2.0368    0.0160 H   0  0  0  0  0  0  0  0  0  0  0  0
   -3.9992   -0.8941    0.0757 H   0  0  0  0  0  0  0  0  0  0  0  0
  1  2  1  0  0  0  0
  2 13  1  0  0  0  0
  2  5  2  0  0  0  0
  3  6  2  0  0  0  0
  4  1  2  0  0  0  0
  4  3  1  0  0  0  0
  5  9  1  0  0  0  0
  6  5  1  0  0  0  0
  6 10  1  0  0  0  0
  7 11  1  0  0  0  0
  8  4  1  0  0  0  0
  8 15  1  0  0  0  0
  8 16  1  0  0  0  0
  9  7  2  0  0  0  0
 10  7  1  0  0  0  0
 11 18  1  0  0  0  0
 12  1  1  0  0  0  0
 14  3  1  0  0  0  0
 17 10  1  0  0  0  0
M  END
>  <HBA>
2

>  <HBD>
3

>  <TPSA>
74.67

>  <cid>
66765

>  <dipole>
2.63

>  <excitation_energy_1>
4.334

>  <excitation_energy_2>
4.418

>  <excitation_energy_3>
4.483

>  <excitation_energy_4>
4.929

>  <homo_energy>
-4.898

>  <homo_lumo_gap>
5.105

>  <logP>
1.02

>  <lumo_energy>
0.207

>  <melting_point>
227.8

>  <molecular_refractivity>
43.32

>  <oscillator_strength_1>
0.0097

>  <oscillator_strength_2>
0.0827

>  <oscillator_strength_3>
0.0062

>  <oscillator_strength_4>
0.0041

>  <open_babel_can_smiles>
Nc1ccc2c(c1)[nH]c(n2)O

>  <mulliken_charges>
18
1   -0.187706
2   -0.195205
3   -0.233416
4   0.291122
5   0.23248
6   0.354247
7   0.691927
8   -0.787338
9   -0.563394
10   -0.733239
11   -0.624072
12   0.112218
13   0.134033
14   0.114102
15   0.315848
16   0.313387
17   0.335894
18   0.42911

>  <lowdin_charges>
18
1   -0.209919
2   -0.151876
3   -0.231408
4   0.05519
5   -0.000646
6   0.030306
7   0.146861
8   -0.496006
9   -0.248252
10   -0.220505
11   -0.358431
12   0.152015
13   0.162414
14   0.150968
15   0.273422
16   0.270031
17   0.299602
18   0.376234

$$$$

