PCCDB-ID:  38046
public computational chemistry database (PCCDB) project, http://pccdb.org

 21 22  0  0  0  0  0  0  0  0999 V2000
   -2.4470   -0.7102    0.0786 C   0  0  0  0  0  0  0  0  0  0  0  0
   -2.4149    0.6897    0.0231 C   0  0  0  0  0  0  0  0  0  0  0  0
   -1.2613   -1.4331    0.0607 C   0  0  0  0  0  0  0  0  0  0  0  0
   -1.1988    1.3604   -0.0410 C   0  0  0  0  0  0  0  0  0  0  0  0
   -0.0165   -0.7798   -0.0191 C   0  0  0  0  0  0  0  0  0  0  0  0
   -0.0104    0.6279   -0.0599 C   0  0  0  0  0  0  0  0  0  0  0  0
    1.2654   -1.4592   -0.0677 C   0  0  0  0  0  0  0  0  0  0  0  0
    2.4186   -0.7158   -0.0390 C   0  0  0  0  0  0  0  0  0  0  0  0
    2.3968    0.7315   -0.0761 C   0  0  0  0  0  0  0  0  0  0  0  0
    1.3419   -2.8401   -0.0825 N   0  0  0  0  0  0  0  0  0  0  0  0
    3.6830   -1.3545   -0.0674 N   0  0  0  0  0  0  0  0  0  0  0  0
    3.3846    1.4402   -0.1100 O   0  0  0  0  0  0  0  0  0  0  0  0
    1.1505    1.3432   -0.1185 O   0  0  0  0  0  0  0  0  0  0  0  0
   -3.3970   -1.2319    0.1446 H   0  0  0  0  0  0  0  0  0  0  0  0
   -3.3408    1.2571    0.0386 H   0  0  0  0  0  0  0  0  0  0  0  0
   -1.2975   -2.5160    0.1374 H   0  0  0  0  0  0  0  0  0  0  0  0
   -1.1417    2.4433   -0.0752 H   0  0  0  0  0  0  0  0  0  0  0  0
    0.5616   -3.3161   -0.5179 H   0  0  0  0  0  0  0  0  0  0  0  0
    2.2403   -3.1674   -0.4297 H   0  0  0  0  0  0  0  0  0  0  0  0
    3.8829   -1.8384    0.8075 H   0  0  0  0  0  0  0  0  0  0  0  0
    4.4030   -0.6481   -0.2080 H   0  0  0  0  0  0  0  0  0  0  0  0
  1 14  1  0  0  0  0
  2 15  1  0  0  0  0
  2  1  2  0  0  0  0
  3  1  1  0  0  0  0
  3 16  1  0  0  0  0
  4  2  1  0  0  0  0
  5  3  2  0  0  0  0
  6  4  2  0  0  0  0
  6  5  1  0  0  0  0
  7  8  2  0  0  0  0
  7  5  1  0  0  0  0
  9  8  1  0  0  0  0
 10  7  1  0  0  0  0
 11  8  1  0  0  0  0
 11 20  1  0  0  0  0
 12  9  2  0  0  0  0
 13  9  1  0  0  0  0
 13  6  1  0  0  0  0
 17  4  1  0  0  0  0
 18 10  1  0  0  0  0
 19 10  1  0  0  0  0
 21 11  1  0  0  0  0
M  END
>  <HBA>
4

>  <HBD>
2

>  <TPSA>
82.25

>  <cid>
38046

>  <dipole>
4.73

>  <excitation_energy_1>
3.922

>  <excitation_energy_2>
4.429

>  <excitation_energy_3>
4.674

>  <excitation_energy_4>
4.772

>  <homo_energy>
-5.483

>  <homo_lumo_gap>
4.182

>  <logP>
2.12

>  <lumo_energy>
-1.301

>  <melting_point>
182.64

>  <molecular_refractivity>
51.29

>  <oscillator_strength_1>
0.2712

>  <oscillator_strength_2>
0.0007

>  <oscillator_strength_3>
0.0176

>  <oscillator_strength_4>
0.0553

>  <open_babel_can_smiles>
O=c1oc2ccccc2c(c1N)N

>  <mulliken_charges>
21
1   -0.131209
2   -0.134254
3   -0.210055
4   -0.173297
5   0.120498
6   0.29849
7   0.274009
8   0.103528
9   0.583419
10   -0.797627
11   -0.810688
12   -0.503268
13   -0.524137
14   0.135973
15   0.140712
16   0.132216
17   0.155902
18   0.328271
19   0.346972
20   0.322916
21   0.34163

>  <lowdin_charges>
21
1   -0.163733
2   -0.144778
3   -0.157343
4   -0.168274
5   -0.044416
6   0.109823
7   0.055133
8   -0.064575
9   0.180668
10   -0.470524
11   -0.508743
12   -0.27811
13   -0.130997
14   0.162226
15   0.164805
16   0.156525
17   0.173611
18   0.280945
19   0.289449
20   0.273005
21   0.285301

$$$$

