PCCDB-ID:  33813
public computational chemistry database (PCCDB) project, http://pccdb.org

 31 31  0  0  1  0  0  0  0  0999 V2000
    0.6432    0.1888    0.7617 C   0  0  0  0  0  0  0  0  0  0  0  0
    7.5453   -1.1710   -2.4342 C   0  0  0  0  0  0  0  0  0  0  0  0
    6.5158   -2.5659   -0.5846 C   0  0  0  0  0  0  0  0  0  0  0  0
    6.7642    3.0034    3.2179 C   0  0  0  0  0  0  0  0  0  0  0  0
    2.1587    0.0908    0.5965 C   0  0  0  0  0  0  0  0  0  0  0  0
    6.6056   -1.1694   -1.2232 C   0  0  0  0  0  0  0  0  0  0  0  0
    6.0339    2.0663    2.2967 C   0  0  2  0  0  0  0  0  0  0  0  0
    4.1008    1.0951    1.4791 C   0  0  0  0  0  0  0  0  0  0  0  0
    6.3033    0.4187    0.5213 C   0  0  0  0  0  0  0  0  0  0  0  0
    2.8260    1.0118    1.5013 N   0  0  0  0  0  0  0  0  0  0  0  0
    7.1067   -0.1987   -0.2542 N   0  0  0  0  0  0  0  0  0  0  0  0
    4.7474    1.9774    2.3457 N   0  0  0  0  0  0  0  0  0  0  0  0
    6.8227    1.3381    1.4354 N   0  0  0  0  0  0  0  0  0  0  0  0
    4.9231    0.3247    0.6178 N   0  0  0  0  0  0  0  0  0  0  0  0
    0.1275   -0.5038    0.0864 H   0  0  0  0  0  0  0  0  0  0  0  0
    0.3031    1.2066    0.5454 H   0  0  0  0  0  0  0  0  0  0  0  0
    0.3578   -0.0481    1.7915 H   0  0  0  0  0  0  0  0  0  0  0  0
    7.2038   -1.8821   -3.1952 H   0  0  0  0  0  0  0  0  0  0  0  0
    8.5583   -1.4501   -2.1236 H   0  0  0  0  0  0  0  0  0  0  0  0
    7.5938   -0.1749   -2.8859 H   0  0  0  0  0  0  0  0  0  0  0  0
    6.1755   -3.3096   -1.3147 H   0  0  0  0  0  0  0  0  0  0  0  0
    5.8211   -2.5759    0.2633 H   0  0  0  0  0  0  0  0  0  0  0  0
    7.5005   -2.8705   -0.2135 H   0  0  0  0  0  0  0  0  0  0  0  0
    6.0351    3.5561    3.8104 H   0  0  0  0  0  0  0  0  0  0  0  0
    7.3806    3.7112    2.6503 H   0  0  0  0  0  0  0  0  0  0  0  0
    7.4283    2.4480    3.8919 H   0  0  0  0  0  0  0  0  0  0  0  0
    2.4200    0.3028   -0.4575 H   0  0  0  0  0  0  0  0  0  0  0  0
    2.4746   -0.9517    0.7888 H   0  0  0  0  0  0  0  0  0  0  0  0
    5.6003   -0.8924   -1.5941 H   0  0  0  0  0  0  0  0  0  0  0  0
    7.8278    1.4451    1.4103 H   0  0  0  0  0  0  0  0  0  0  0  0
    4.4678   -0.3234   -0.0071 H   0  0  0  0  0  0  0  0  0  0  0  0
  1 17  1  0  0  0  0
  2 19  1  0  0  0  0
  2  6  1  0  0  0  0
  3 23  1  0  0  0  0
  3 22  1  0  0  0  0
  4 24  1  0  0  0  0
  4 26  1  0  0  0  0
  5  1  1  0  0  0  0
  5 28  1  0  0  0  0
  5 10  1  0  0  0  0
  6  3  1  0  0  0  0
  6 11  1  0  0  0  0
  7 12  1  0  0  0  0
  7  4  1  1  0  0  0
  8 10  1  0  0  0  0
  8 12  2  0  0  0  0
  9 14  1  0  0  0  0
  9 13  1  0  0  0  0
 11  9  2  0  0  0  0
 13  7  1  0  0  0  0
 14  8  1  0  0  0  0
 15  1  1  0  0  0  0
 16  1  1  0  0  0  0
 18  2  1  0  0  0  0
 20  2  1  0  0  0  0
 21  3  1  0  0  0  0
 25  4  1  0  0  0  0
 27  5  1  0  0  0  0
 29  6  1  0  0  0  0
 30 13  1  0  0  0  0
 31 14  1  0  0  0  0
M  RAD  2   7   2  10   2
M  END
>  <HBA>
5

>  <HBD>
2

>  <TPSA>
62.73

>  <cid>
33813

>  <dipole>
2.98

>  <excitation_energy_1>
4.887

>  <excitation_energy_2>
4.953

>  <excitation_energy_3>
5.127

>  <excitation_energy_4>
5.399

>  <homo_energy>
-6.15

>  <homo_lumo_gap>
5.581

>  <logP>
1.578

>  <lumo_energy>
-0.569

>  <melting_point>
122.79

>  <molecular_refractivity>
57.83

>  <oscillator_strength_1>
0.0066

>  <oscillator_strength_2>
0.0853

>  <oscillator_strength_3>
0.0876

>  <oscillator_strength_4>
0.0162

>  <open_babel_can_smiles>
CC[N]C1=N[C](N/C(=N/C(C)C)/N1)C

>  <mulliken_charges>
31
1   -0.43173
2   -0.428897
3   -0.435783
4   -0.535104
5   -0.16014
6   0.011523
7   0.517729
8   0.650655
9   0.749298
10   -0.453242
11   -0.498749
12   -0.488762
13   -0.672662
14   -0.743257
15   0.129822
16   0.15622
17   0.156863
18   0.134522
19   0.150657
20   0.147723
21   0.142218
22   0.139155
23   0.156928
24   0.204872
25   0.171422
26   0.17569
27   0.123808
28   0.126664
29   0.101556
30   0.346272
31   0.354731

>  <lowdin_charges>
31
1   -0.442799
2   -0.442627
3   -0.451925
4   -0.453466
5   -0.205074
6   -0.053941
7   0.116399
8   0.117871
9   0.137585
10   -0.217094
11   -0.265809
12   -0.194168
13   -0.228775
14   -0.274926
15   0.145468
16   0.155339
17   0.15554
18   0.147211
19   0.153013
20   0.15289
21   0.151413
22   0.14673
23   0.156166
24   0.189407
25   0.169452
26   0.171883
27   0.1249
28   0.127014
29   0.113662
30   0.30148
31   0.29718

$$$$

