PCCDB-ID:  15903
public computational chemistry database (PCCDB) project, http://pccdb.org

 18 19  0  0  1  0  0  0  0  0999 V2000
    1.5676   -0.8929   -0.1720 C   0  0  0  0  0  0  0  0  0  0  0  0
    0.9214   -0.7730   -1.5620 C   0  0  0  0  0  0  0  0  0  0  0  0
    4.1351   -1.3386   -0.3339 C   0  0  0  0  0  0  0  0  0  0  0  0
   -0.9728   -2.5370   -1.9101 C   0  0  0  0  0  0  0  0  0  0  0  0
    3.0025   -0.4166   -0.1612 C   0  0  2  0  0  0  0  0  0  0  0  0
   -0.5353   -1.1783   -1.5565 C   0  0  2  0  0  0  0  0  0  0  0  0
    3.8051   -0.8117    0.9580 O   0  0  0  0  0  0  0  0  0  0  0  0
   -1.1344   -1.4489   -2.8297 O   0  0  0  0  0  0  0  0  0  0  0  0
    1.5380   -1.9331    0.1752 H   0  0  0  0  0  0  0  0  0  0  0  0
    0.9953   -0.3028    0.5578 H   0  0  0  0  0  0  0  0  0  0  0  0
    1.4590   -1.3946   -2.2887 H   0  0  0  0  0  0  0  0  0  0  0  0
    0.9967    0.2634   -1.9204 H   0  0  0  0  0  0  0  0  0  0  0  0
    5.0729   -0.9813   -0.7603 H   0  0  0  0  0  0  0  0  0  0  0  0
    3.9438   -2.4048   -0.4642 H   0  0  0  0  0  0  0  0  0  0  0  0
   -1.8966   -2.9408   -1.4947 H   0  0  0  0  0  0  0  0  0  0  0  0
   -0.2300   -3.2826   -2.1978 H   0  0  0  0  0  0  0  0  0  0  0  0
    3.1509    0.6239   -0.4629 H   0  0  0  0  0  0  0  0  0  0  0  0
   -1.1763   -0.6035   -0.8825 H   0  0  0  0  0  0  0  0  0  0  0  0
  1  5  1  0  0  0  0
  1  9  1  0  0  0  0
  1 10  1  0  0  0  0
  2  6  1  0  0  0  0
  2  1  1  0  0  0  0
  3  5  1  0  0  0  0
  3  7  1  0  0  0  0
  4  6  1  0  0  0  0
  4 15  1  0  0  0  0
  5 17  1  6  0  0  0
  5  7  1  0  0  0  0
  6 18  1  1  0  0  0
  8  4  1  0  0  0  0
  8  6  1  0  0  0  0
 11  2  1  0  0  0  0
 12  2  1  0  0  0  0
 13  3  1  0  0  0  0
 14  3  1  0  0  0  0
 16  4  1  0  0  0  0
M  END
>  <HBA>
2

>  <HBD>
0

>  <TPSA>
25.06

>  <cid>
15903

>  <dipole>
0.67

>  <excitation_energy_1>
6.746

>  <excitation_energy_2>
6.908

>  <excitation_energy_3>
7.064

>  <excitation_energy_4>
7.089

>  <homo_energy>
-7.151

>  <homo_lumo_gap>
9.502

>  <logP>
0.564

>  <lumo_energy>
2.351

>  <melting_point>
0.69

>  <molecular_refractivity>
28.9

>  <oscillator_strength_1>
0.007

>  <oscillator_strength_2>
0.0406

>  <oscillator_strength_3>
0.0078

>  <oscillator_strength_4>
0.0

>  <open_babel_can_smiles>
C([C@H]1OC1)C[C@H]1OC1

>  <mulliken_charges>
18
1   -0.291626
2   -0.291459
3   -0.110147
4   -0.110027
5   0.112962
6   0.112763
7   -0.448975
8   -0.448987
9   0.148262
10   0.150399
11   0.14817
12   0.150479
13   0.151114
14   0.146979
15   0.15107
16   0.146985
17   0.141033
18   0.141005

>  <lowdin_charges>
18
1   -0.279392
2   -0.279212
3   -0.166183
4   -0.17126
5   -0.021977
6   -0.022953
7   -0.286238
8   -0.286578
9   0.152047
10   0.153547
11   0.154477
12   0.151156
13   0.154144
14   0.148708
15   0.154572
16   0.151546
17   0.145303
18   0.148293

$$$$

