PCCDB-ID:  70557
public computational chemistry database (PCCDB) project, http://pccdb.org

 33 34  0  0  0  0  0  0  0  0999 V2000
    1.4353    1.2934    0.3577 C   0  0  0  0  0  0  0  0  0  0  0  0
    6.5260   -3.5471    6.2685 C   0  0  0  0  0  0  0  0  0  0  0  0
    6.8939    1.2807    5.7110 C   0  0  0  0  0  0  0  0  0  0  0  0
    2.7655    0.5697    0.1265 C   0  0  0  0  0  0  0  0  0  0  0  0
    3.2135   -0.2487    1.3443 C   0  0  0  0  0  0  0  0  0  0  0  0
    4.5387   -0.9744    1.0897 C   0  0  0  0  0  0  0  0  0  0  0  0
    4.8829   -3.1207    2.3833 C   0  0  0  0  0  0  0  0  0  0  0  0
    5.5445   -1.3110    3.4154 C   0  0  0  0  0  0  0  0  0  0  0  0
    5.7465   -2.4400    4.1873 C   0  0  0  0  0  0  0  0  0  0  0  0
    5.9033    0.0116    3.8346 C   0  0  0  0  0  0  0  0  0  0  0  0
    6.6903   -1.1242    5.9506 C   0  0  0  0  0  0  0  0  0  0  0  0
    5.3357   -3.5689    3.5512 N   0  0  0  0  0  0  0  0  0  0  0  0
    6.3154   -2.3622    5.4379 N   0  0  0  0  0  0  0  0  0  0  0  0
    6.4721    0.0011    5.1324 N   0  0  0  0  0  0  0  0  0  0  0  0
    4.9827   -1.7768    2.2332 N   0  0  0  0  0  0  0  0  0  0  0  0
    5.7525    1.0485    3.1902 O   0  0  0  0  0  0  0  0  0  0  0  0
    7.1887   -1.0158    7.0619 O   0  0  0  0  0  0  0  0  0  0  0  0
    1.1410    1.8734   -0.5239 H   0  0  0  0  0  0  0  0  0  0  0  0
    1.5048    1.9854    1.2053 H   0  0  0  0  0  0  0  0  0  0  0  0
    0.6285    0.5826    0.5741 H   0  0  0  0  0  0  0  0  0  0  0  0
    6.3305   -4.4242    5.6524 H   0  0  0  0  0  0  0  0  0  0  0  0
    5.8491   -3.5375    7.1281 H   0  0  0  0  0  0  0  0  0  0  0  0
    7.5536   -3.5568    6.6367 H   0  0  0  0  0  0  0  0  0  0  0  0
    6.6362    2.0596    4.9961 H   0  0  0  0  0  0  0  0  0  0  0  0
    7.9713    1.2721    5.8950 H   0  0  0  0  0  0  0  0  0  0  0  0
    6.3838    1.4445    6.6628 H   0  0  0  0  0  0  0  0  0  0  0  0
    3.5438    1.3050   -0.1188 H   0  0  0  0  0  0  0  0  0  0  0  0
    2.6762   -0.0901   -0.7488 H   0  0  0  0  0  0  0  0  0  0  0  0
    2.4420   -0.9853    1.6078 H   0  0  0  0  0  0  0  0  0  0  0  0
    3.3437    0.4148    2.2066 H   0  0  0  0  0  0  0  0  0  0  0  0
    5.3265   -0.2503    0.8679 H   0  0  0  0  0  0  0  0  0  0  0  0
    4.4533   -1.6590    0.2390 H   0  0  0  0  0  0  0  0  0  0  0  0
    4.4747   -3.7493    1.6026 H   0  0  0  0  0  0  0  0  0  0  0  0
  1 20  1  0  0  0  0
  1 19  1  0  0  0  0
  2 23  1  0  0  0  0
  2 22  1  0  0  0  0
  3 25  1  0  0  0  0
  3 26  1  0  0  0  0
  4  1  1  0  0  0  0
  4  5  1  0  0  0  0
  5 29  1  0  0  0  0
  5 30  1  0  0  0  0
  6  5  1  0  0  0  0
  6 15  1  0  0  0  0
  7 12  2  0  0  0  0
  8 10  1  0  0  0  0
  8  9  2  0  0  0  0
  9 13  1  0  0  0  0
 10 14  1  0  0  0  0
 11 17  2  0  0  0  0
 12  9  1  0  0  0  0
 13 11  1  0  0  0  0
 13  2  1  0  0  0  0
 14  3  1  0  0  0  0
 14 11  1  0  0  0  0
 15  7  1  0  0  0  0
 15  8  1  0  0  0  0
 16 10  2  0  0  0  0
 18  1  1  0  0  0  0
 21  2  1  0  0  0  0
 24  3  1  0  0  0  0
 27  4  1  0  0  0  0
 28  4  1  0  0  0  0
 31  6  1  0  0  0  0
 32  6  1  0  0  0  0
 33  7  1  0  0  0  0
M  END
>  <HBA>
6

>  <HBD>
0

>  <TPSA>
61.82

>  <cid>
70557

>  <dipole>
3.82

>  <excitation_energy_1>
4.606

>  <excitation_energy_2>
4.966

>  <excitation_energy_3>
5.421

>  <excitation_energy_4>
5.586

>  <homo_energy>
-5.929

>  <homo_lumo_gap>
5.129

>  <logP>
0.234

>  <lumo_energy>
-0.8

>  <melting_point>
141.55

>  <molecular_refractivity>
66.46

>  <oscillator_strength_1>
0.1364

>  <oscillator_strength_2>
0.0001

>  <oscillator_strength_3>
0.0018

>  <oscillator_strength_4>
0.0221

>  <open_babel_can_smiles>
CCCCn1cnc2c1c(=O)n(C)c(=O)n2C

>  <mulliken_charges>
33
1   -0.443445
2   -0.321566
3   -0.314808
4   -0.256521
5   -0.259206
6   -0.15333
7   0.219203
8   0.216659
9   0.474173
10   0.640344
11   0.784965
12   -0.514673
13   -0.589694
14   -0.575317
15   -0.489917
16   -0.545225
17   -0.527243
18   0.147041
19   0.152199
20   0.143479
21   0.197125
22   0.177789
23   0.185786
24   0.197794
25   0.17649
26   0.178219
27   0.147213
28   0.130033
29   0.135759
30   0.173984
31   0.191057
32   0.152951
33   0.16868

>  <lowdin_charges>
33
1   -0.444165
2   -0.342595
3   -0.348681
4   -0.272954
5   -0.285034
6   -0.192542
7   -0.062388
8   -0.081478
9   0.066491
10   0.161274
11   0.184983
12   -0.206393
13   -0.055603
14   -0.090002
15   0.013288
16   -0.316935
17   -0.308676
18   0.153047
19   0.152435
20   0.148212
21   0.180669
22   0.165359
23   0.171003
24   0.182247
25   0.163553
26   0.166898
27   0.148136
28   0.138447
29   0.143713
30   0.162955
31   0.174264
32   0.15518
33   0.175292

$$$$

