PCCDB-ID:  71603
public computational chemistry database (PCCDB) project, http://pccdb.org

 15 15  0  0  0  0  0  0  0  0999 V2000
   -1.4236   -0.0944    0.0229 C   0  0  0  0  0  0  0  0  0  0  0  0
   -0.8292    1.1682    0.0515 C   0  0  0  0  0  0  0  0  0  0  0  0
   -0.6281   -1.2394   -0.0758 C   0  0  0  0  0  0  0  0  0  0  0  0
    0.5594    1.2858   -0.0033 C   0  0  0  0  0  0  0  0  0  0  0  0
    0.7577   -1.1228   -0.1417 C   0  0  0  0  0  0  0  0  0  0  0  0
    1.3635    0.1401   -0.0910 C   0  0  0  0  0  0  0  0  0  0  0  0
    2.8603    0.1968   -0.1685 C   0  0  0  0  0  0  0  0  0  0  0  0
    3.5374   -0.6946   -0.6228 O   0  0  0  0  0  0  0  0  0  0  0  0
    3.4562    1.3256    0.3072 O   0  0  0  0  0  0  0  0  0  0  0  0
   -2.5054   -0.1856    0.0690 H   0  0  0  0  0  0  0  0  0  0  0  0
   -1.4450    2.0613    0.1082 H   0  0  0  0  0  0  0  0  0  0  0  0
   -1.0899   -2.2222   -0.1064 H   0  0  0  0  0  0  0  0  0  0  0  0
    1.0027    2.2793   -0.0205 H   0  0  0  0  0  0  0  0  0  0  0  0
    1.3930   -1.9978   -0.2307 H   0  0  0  0  0  0  0  0  0  0  0  0
    2.8066    1.8696    0.7810 H   0  0  0  0  0  0  0  0  0  0  0  0
  1  2  1  0  0  0  0
  1 10  1  0  0  0  0
  2 11  1  0  0  0  0
  3  1  2  0  0  0  0
  4  2  2  0  0  0  0
  5  6  2  0  0  0  0
  5  3  1  0  0  0  0
  6  4  1  0  0  0  0
  7  6  1  0  0  0  0
  7  9  1  0  0  0  0
  8  7  2  0  0  0  0
  9 15  1  0  0  0  0
 12  3  1  0  0  0  0
 13  4  1  0  0  0  0
 14  5  1  0  0  0  0
M  END
>  <HBA>
2

>  <HBD>
1

>  <TPSA>
37.3

>  <cid>
71603

>  <dipole>
4.78

>  <excitation_energy_1>
4.708

>  <excitation_energy_2>
5.02

>  <excitation_energy_3>
5.527

>  <excitation_energy_4>
5.95

>  <homo_energy>
-7.214

>  <homo_lumo_gap>
5.826

>  <logP>
1.385

>  <lumo_energy>
-1.388

>  <melting_point>
94.64

>  <molecular_refractivity>
33.4

>  <oscillator_strength_1>
0.0095

>  <oscillator_strength_2>
0.0141

>  <oscillator_strength_3>
0.1498

>  <oscillator_strength_4>
0.0234

>  <open_babel_can_smiles>
OC(=O)c1ccccc1

>  <mulliken_charges>
15
1   -0.118899
2   -0.131488
3   -0.133373
4   -0.197259
5   -0.149934
6   0.055338
7   0.547206
8   -0.444153
9   -0.573919
10   0.143215
11   0.142444
12   0.145103
13   0.134634
14   0.170575
15   0.410509

>  <lowdin_charges>
15
1   -0.136243
2   -0.152428
3   -0.148904
4   -0.164378
5   -0.127719
6   -0.05613
7   0.19626
8   -0.239739
9   -0.358919
10   0.162389
11   0.164618
12   0.164974
13   0.156688
14   0.181021
15   0.35851

$$$$

