PCCDB-ID:  8030
public computational chemistry database (PCCDB) project, http://pccdb.org

  9  9  0  0  0  0  0  0  0  0999 V2000
   -1.1654    0.0335    0.0006 C   0  0  0  0  0  0  0  0  0  0  0  0
   -0.3230   -1.1220    0.0004 C   0  0  0  0  0  0  0  0  0  0  0  0
   -0.4579    1.2035   -0.0002 C   0  0  0  0  0  0  0  0  0  0  0  0
    1.0073   -0.8062   -0.0006 C   0  0  0  0  0  0  0  0  0  0  0  0
    1.2535    0.9121   -0.0013 S   0  0  0  0  0  0  0  0  0  0  0  0
   -2.2493   -0.0081    0.0014 H   0  0  0  0  0  0  0  0  0  0  0  0
   -0.6941   -2.1413    0.0009 H   0  0  0  0  0  0  0  0  0  0  0  0
   -0.8347    2.2173   -0.0002 H   0  0  0  0  0  0  0  0  0  0  0  0
    1.8573   -1.4751   -0.0013 H   0  0  0  0  0  0  0  0  0  0  0  0
  1  6  1  0  0  0  0
  2  1  1  0  0  0  0
  2  7  1  0  0  0  0
  3  8  1  0  0  0  0
  3  1  2  0  0  0  0
  4  2  2  0  0  0  0
  5  4  1  0  0  0  0
  5  3  1  0  0  0  0
  9  4  1  0  0  0  0
M  END
>  <HBA>
1

>  <HBD>
0

>  <TPSA>
28.24

>  <cid>
8030

>  <dipole>
0.63

>  <excitation_energy_1>
5.727

>  <excitation_energy_2>
5.764

>  <excitation_energy_3>
5.813

>  <excitation_energy_4>
5.986

>  <homo_energy>
-6.335

>  <homo_lumo_gap>
6.128

>  <logP>
1.748

>  <lumo_energy>
-0.207

>  <melting_point>
1.54

>  <molecular_refractivity>
24.32

>  <oscillator_strength_1>
0.1017

>  <oscillator_strength_2>
0.0073

>  <oscillator_strength_3>
0.0897

>  <oscillator_strength_4>
0.0

>  <open_babel_can_smiles>
c1cccs1

>  <mulliken_charges>
9
1   -0.095723
2   -0.095616
3   -0.34602
4   -0.345745
5   0.254285
6   0.140805
7   0.140717
8   0.17368
9   0.173616

>  <lowdin_charges>
9
1   -0.180205
2   -0.181589
3   -0.323558
4   -0.325899
5   0.319567
6   0.163486
7   0.164612
8   0.181068
9   0.182518

$$$$

