PCCDB-ID:  36111
public computational chemistry database (PCCDB) project, http://pccdb.org

 28 29  0  0  1  0  0  0  0  0999 V2000
    2.7371   -1.3050    0.7514 C   0  0  0  0  0  0  0  0  0  0  0  0
    2.6343    0.0393    0.0208 C   0  0  0  0  0  0  0  0  0  0  0  0
    5.9598    4.8753    3.1469 C   0  0  0  0  0  0  0  0  0  0  0  0
    6.6401    3.6682    3.3250 C   0  0  0  0  0  0  0  0  0  0  0  0
    4.7910    4.8980    2.3909 C   0  0  0  0  0  0  0  0  0  0  0  0
    6.1399    2.5069    2.7426 C   0  0  0  0  0  0  0  0  0  0  0  0
    2.7712    2.5788    0.1040 C   0  0  0  0  0  0  0  0  0  0  0  0
    2.9810    3.7938    1.0148 C   0  0  0  0  0  0  0  0  0  0  0  0
    4.4822    1.2292    1.3331 C   0  0  0  0  0  0  0  0  0  0  0  0
    3.0168    1.2668    0.8658 C   0  0  2  0  0  0  0  0  0  0  0  0
    4.2779    3.7330    1.8022 C   0  0  0  0  0  0  0  0  0  0  0  0
    4.9646    2.5190    1.9771 C   0  0  0  0  0  0  0  0  0  0  0  0
    2.3746   -2.1226    0.1179 H   0  0  0  0  0  0  0  0  0  0  0  0
    2.1342   -1.3034    1.6682 H   0  0  0  0  0  0  0  0  0  0  0  0
    3.7690   -1.5422    1.0329 H   0  0  0  0  0  0  0  0  0  0  0  0
    1.6029    0.1733   -0.3342 H   0  0  0  0  0  0  0  0  0  0  0  0
    3.2645    0.0157   -0.8806 H   0  0  0  0  0  0  0  0  0  0  0  0
    6.3390    5.7913    3.5925 H   0  0  0  0  0  0  0  0  0  0  0  0
    7.5530    3.6334    3.9139 H   0  0  0  0  0  0  0  0  0  0  0  0
    4.2586    5.8370    2.2502 H   0  0  0  0  0  0  0  0  0  0  0  0
    6.6685    1.5651    2.8793 H   0  0  0  0  0  0  0  0  0  0  0  0
    3.4596    2.6304   -0.7523 H   0  0  0  0  0  0  0  0  0  0  0  0
    1.7540    2.5959   -0.3081 H   0  0  0  0  0  0  0  0  0  0  0  0
    2.1386    3.8573    1.7213 H   0  0  0  0  0  0  0  0  0  0  0  0
    2.9477    4.7212    0.4286 H   0  0  0  0  0  0  0  0  0  0  0  0
    5.1184    1.0078    0.4602 H   0  0  0  0  0  0  0  0  0  0  0  0
    4.6405    0.3996    2.0331 H   0  0  0  0  0  0  0  0  0  0  0  0
    2.3734    1.2759    1.7606 H   0  0  0  0  0  0  0  0  0  0  0  0
  1 15  1  0  0  0  0
  1 14  1  0  0  0  0
  2  1  1  0  0  0  0
  2 10  1  0  0  0  0
  3  4  1  0  0  0  0
  3 18  1  0  0  0  0
  4 19  1  0  0  0  0
  5  3  2  0  0  0  0
  6 21  1  0  0  0  0
  6  4  2  0  0  0  0
  7 10  1  0  0  0  0
  7  8  1  0  0  0  0
  8 24  1  0  0  0  0
  8 11  1  0  0  0  0
  9 12  1  0  0  0  0
  9 27  1  0  0  0  0
 10  9  1  0  0  0  0
 10 28  1  1  0  0  0
 11 12  2  0  0  0  0
 11  5  1  0  0  0  0
 12  6  1  0  0  0  0
 13  1  1  0  0  0  0
 16  2  1  0  0  0  0
 17  2  1  0  0  0  0
 20  5  1  0  0  0  0
 22  7  1  0  0  0  0
 23  7  1  0  0  0  0
 25  8  1  0  0  0  0
 26  9  1  0  0  0  0
M  END
>  <HBA>
0

>  <HBD>
0

>  <TPSA>
0.0

>  <cid>
36111

>  <dipole>
0.62

>  <excitation_energy_1>
5.147

>  <excitation_energy_2>
5.702

>  <excitation_energy_3>
5.887

>  <excitation_energy_4>
6.053

>  <homo_energy>
-6.207

>  <homo_lumo_gap>
6.348

>  <logP>
3.201

>  <lumo_energy>
0.142

>  <melting_point>
31.91

>  <molecular_refractivity>
53.49

>  <oscillator_strength_1>
0.0086

>  <oscillator_strength_2>
0.0056

>  <oscillator_strength_3>
0.0077

>  <oscillator_strength_4>
0.0194

>  <open_babel_can_smiles>
CC[C@@H]1CCc2c(C1)cccc2

>  <mulliken_charges>
28
1   -0.449904
2   -0.250578
3   -0.129433
4   -0.130942
5   -0.189312
6   -0.18791
7   -0.268742
8   -0.346425
9   -0.346319
10   -0.078048
11   0.122779
12   0.117775
13   0.143159
14   0.142332
15   0.147565
16   0.129105
17   0.127359
18   0.123532
19   0.123538
20   0.117469
21   0.116757
22   0.133481
23   0.128888
24   0.149357
25   0.143063
26   0.1447
27   0.14631
28   0.120444

>  <lowdin_charges>
28
1   -0.44703
2   -0.271631
3   -0.16212
4   -0.160388
5   -0.165649
6   -0.165658
7   -0.275465
8   -0.276926
9   -0.278675
10   -0.127622
11   -0.014273
12   -0.015472
13   0.15158
14   0.146946
15   0.146919
16   0.139849
17   0.138536
18   0.155491
19   0.154872
20   0.152167
21   0.151929
22   0.140984
23   0.142403
24   0.151011
25   0.15112
26   0.149457
27   0.152364
28   0.135281

$$$$

