PCCDB-ID:  66542
public computational chemistry database (PCCDB) project, http://pccdb.org

 23 24  0  0  0  0  0  0  0  0999 V2000
    2.8621   -0.5092    0.9992 C   0  0  0  0  0  0  0  0  0  0  0  0
    5.3177   -1.5179   -4.1930 C   0  0  0  0  0  0  0  0  0  0  0  0
    4.6433   -2.3118   -3.2356 C   0  0  0  0  0  0  0  0  0  0  0  0
    5.2001   -0.1455   -4.1661 C   0  0  0  0  0  0  0  0  0  0  0  0
    3.8647   -1.7226   -2.2640 C   0  0  0  0  0  0  0  0  0  0  0  0
    3.4752    2.4971   -2.1514 C   0  0  0  0  0  0  0  0  0  0  0  0
    2.8055    1.7012   -1.1933 C   0  0  0  0  0  0  0  0  0  0  0  0
    4.4064    0.4904   -3.1766 C   0  0  0  0  0  0  0  0  0  0  0  0
    3.7282   -0.3111   -2.2029 C   0  0  0  0  0  0  0  0  0  0  0  0
    4.2598    1.9096   -3.1211 C   0  0  0  0  0  0  0  0  0  0  0  0
    2.9298    0.3313   -1.2088 C   0  0  0  0  0  0  0  0  0  0  0  0
    4.9315    2.6289   -4.0742 O   0  0  0  0  0  0  0  0  0  0  0  0
    2.2552   -0.4530   -0.2901 O   0  0  0  0  0  0  0  0  0  0  0  0
    2.2319   -1.1601    1.6104 H   0  0  0  0  0  0  0  0  0  0  0  0
    2.9136    0.4846    1.4636 H   0  0  0  0  0  0  0  0  0  0  0  0
    3.8762   -0.9278    0.9453 H   0  0  0  0  0  0  0  0  0  0  0  0
    5.9273   -1.9952   -4.9556 H   0  0  0  0  0  0  0  0  0  0  0  0
    4.7377   -3.3940   -3.2719 H   0  0  0  0  0  0  0  0  0  0  0  0
    5.7093    0.4700   -4.8995 H   0  0  0  0  0  0  0  0  0  0  0  0
    3.3297   -2.3228   -1.5361 H   0  0  0  0  0  0  0  0  0  0  0  0
    3.3629    3.5794   -2.1230 H   0  0  0  0  0  0  0  0  0  0  0  0
    2.1806    2.1716   -0.4400 H   0  0  0  0  0  0  0  0  0  0  0  0
    4.7447    3.5710   -3.9413 H   0  0  0  0  0  0  0  0  0  0  0  0
  1 15  1  0  0  0  0
  1 14  1  0  0  0  0
  2  4  2  0  0  0  0
  2  3  1  0  0  0  0
  3  5  2  0  0  0  0
  4  8  1  0  0  0  0
  5  9  1  0  0  0  0
  5 20  1  0  0  0  0
  6 21  1  0  0  0  0
  6  7  2  0  0  0  0
  7 22  1  0  0  0  0
  8 10  2  0  0  0  0
  8  9  1  0  0  0  0
  9 11  2  0  0  0  0
 10  6  1  0  0  0  0
 11  7  1  0  0  0  0
 11 13  1  0  0  0  0
 12 23  1  0  0  0  0
 12 10  1  0  0  0  0
 13  1  1  0  0  0  0
 16  1  1  0  0  0  0
 17  2  1  0  0  0  0
 18  3  1  0  0  0  0
 19  4  1  0  0  0  0
M  END
>  <HBA>
2

>  <HBD>
1

>  <TPSA>
29.46

>  <cid>
66542

>  <dipole>
1.95

>  <excitation_energy_1>
3.989

>  <excitation_energy_2>
4.257

>  <excitation_energy_3>
4.622

>  <excitation_energy_4>
5.195

>  <homo_energy>
-5.284

>  <homo_lumo_gap>
4.531

>  <logP>
2.554

>  <lumo_energy>
-0.754

>  <melting_point>
94.73

>  <molecular_refractivity>
52.46

>  <oscillator_strength_1>
0.0883

>  <oscillator_strength_2>
0.0399

>  <oscillator_strength_3>
0.0001

>  <oscillator_strength_4>
0.0152

>  <open_babel_can_smiles>
COc1ccc(c2c1cccc2)O

>  <mulliken_charges>
23
1   -0.203831
2   -0.134562
3   -0.131567
4   -0.1766
5   -0.192459
6   -0.211995
7   -0.177004
8   0.071596
9   0.094344
10   0.297761
11   0.280829
12   -0.646357
13   -0.527446
14   0.159694
15   0.141126
16   0.145488
17   0.128658
18   0.128394
19   0.151523
20   0.143222
21   0.117118
22   0.132974
23   0.409096

>  <lowdin_charges>
23
1   -0.271616
2   -0.160381
3   -0.153938
4   -0.151275
5   -0.157526
6   -0.219741
7   -0.17679
8   -0.021442
9   -0.01246
10   0.096419
11   0.073456
12   -0.376755
13   -0.233918
14   0.157482
15   0.138517
16   0.140303
17   0.159004
18   0.15564
19   0.17143
20   0.168217
21   0.151765
22   0.165653
23   0.357957

$$$$

