PCCDB-ID:  22120
public computational chemistry database (PCCDB) project, http://pccdb.org

 22 21  0  0  0  0  0  0  0  0999 V2000
    2.7007   -0.9000   -0.1393 C   0  0  0  0  0  0  0  0  0  0  0  0
    8.7188   -1.6690    1.7209 C   0  0  0  0  0  0  0  0  0  0  0  0
    2.2379    0.2837    0.2564 C   0  0  0  0  0  0  0  0  0  0  0  0
    8.4532   -0.3786    1.9195 C   0  0  0  0  0  0  0  0  0  0  0  0
    3.0644    1.4502    0.7074 C   0  0  0  0  0  0  0  0  0  0  0  0
    7.0702    0.1667    2.0831 C   0  0  0  0  0  0  0  0  0  0  0  0
    4.4625    1.1025    0.6851 O   0  0  0  0  0  0  0  0  0  0  0  0
    6.8896    1.2169    1.0854 O   0  0  0  0  0  0  0  0  0  0  0  0
    5.5950    2.1807    1.1391 P   0  0  0  0  0  0  0  0  0  0  0  0
    5.9499    3.4119   -0.5391 S   0  0  0  0  0  0  0  0  0  0  0  0
    5.2245    3.1797    2.7594 S   0  0  0  0  0  0  0  0  0  0  0  0
    2.0245   -1.6910   -0.4496 H   0  0  0  0  0  0  0  0  0  0  0  0
    3.7639   -1.1158   -0.1679 H   0  0  0  0  0  0  0  0  0  0  0  0
    9.7382   -2.0366    1.6454 H   0  0  0  0  0  0  0  0  0  0  0  0
    7.9270   -2.4100    1.6333 H   0  0  0  0  0  0  0  0  0  0  0  0
    1.1655    0.4778    0.2725 H   0  0  0  0  0  0  0  0  0  0  0  0
    9.2584    0.3501    1.9983 H   0  0  0  0  0  0  0  0  0  0  0  0
    2.7878    1.7590    1.7236 H   0  0  0  0  0  0  0  0  0  0  0  0
    2.8977    2.3129    0.0460 H   0  0  0  0  0  0  0  0  0  0  0  0
    6.9297    0.6132    3.0752 H   0  0  0  0  0  0  0  0  0  0  0  0
    6.3093   -0.6044    1.9279 H   0  0  0  0  0  0  0  0  0  0  0  0
    6.2275    2.3967   -1.3893 H   0  0  0  0  0  0  0  0  0  0  0  0
  1  3  2  0  0  0  0
  2  4  2  0  0  0  0
  3 16  1  0  0  0  0
  3  5  1  0  0  0  0
  4 17  1  0  0  0  0
  4  6  1  0  0  0  0
  5 18  1  0  0  0  0
  6 20  1  0  0  0  0
  7  5  1  0  0  0  0
  7  9  1  0  0  0  0
  8  9  1  0  0  0  0
  8  6  1  0  0  0  0
  9 11  1  0  0  0  0
 10  9  1  0  0  0  0
 12  1  1  0  0  0  0
 13  1  1  0  0  0  0
 14  2  1  0  0  0  0
 15  2  1  0  0  0  0
 19  5  1  0  0  0  0
 21  6  1  0  0  0  0
 22 10  1  0  0  0  0
M  RAD  1  11   2
M  END
>  <HBA>
4

>  <HBD>
1

>  <TPSA>
99.16

>  <cid>
22120

>  <dipole>
3.68

>  <excitation_energy_1>
5.014

>  <excitation_energy_2>
5.235

>  <excitation_energy_3>
5.564

>  <excitation_energy_4>
5.647

>  <homo_energy>
-6.675

>  <homo_lumo_gap>
6.12

>  <logP>
3.196

>  <lumo_energy>
-0.555

>  <melting_point>
-51.33

>  <molecular_refractivity>
55.67

>  <oscillator_strength_1>
0.002

>  <oscillator_strength_2>
0.0307

>  <oscillator_strength_3>
0.0013

>  <oscillator_strength_4>
0.0083

>  <open_babel_can_smiles>
C=CCOP(OCC=C)(S)[S]

>  <mulliken_charges>
22
1   -0.319956
2   -0.331477
3   -0.097351
4   -0.051355
5   -0.0698
6   -0.093405
7   -0.513755
8   -0.501434
9   0.729802
10   -0.151641
11   -0.340991
12   0.145108
13   0.157206
14   0.154485
15   0.147122
16   0.140872
17   0.154587
18   0.187652
19   0.17188
20   0.185671
21   0.16969
22   0.12709

>  <lowdin_charges>
22
1   -0.329624
2   -0.316198
3   -0.161594
4   -0.152204
5   -0.118044
6   -0.115906
7   -0.396425
8   -0.395199
9   0.736504
10   -0.163125
11   -0.372344
12   0.164445
13   0.164339
14   0.165825
15   0.160689
16   0.159889
17   0.166216
18   0.168933
19   0.161628
20   0.168636
21   0.159229
22   0.144326

$$$$

