PCCDB-ID:  66901
public computational chemistry database (PCCDB) project, http://pccdb.org

 28 28  0  0  0  0  0  0  0  0999 V2000
    0.6523   -3.2102    0.3396 C   0  0  0  0  0  0  0  0  0  0  0  0
    2.1531   -3.2852    0.1161 C   0  0  0  0  0  0  0  0  0  0  0  0
    5.9932   -0.6668    1.4315 C   0  0  0  0  0  0  0  0  0  0  0  0
    6.3480   -2.6314    0.0725 C   0  0  0  0  0  0  0  0  0  0  0  0
    4.6283   -0.9227    1.4167 C   0  0  0  0  0  0  0  0  0  0  0  0
    4.9760   -2.8882    0.0586 C   0  0  0  0  0  0  0  0  0  0  0  0
   10.5284   -0.5213    1.0533 C   0  0  0  0  0  0  0  0  0  0  0  0
    6.8738   -1.5278    0.7523 C   0  0  0  0  0  0  0  0  0  0  0  0
    4.1034   -2.0291    0.7347 C   0  0  0  0  0  0  0  0  0  0  0  0
    9.0187   -0.3496    1.2936 C   0  0  0  0  0  0  0  0  0  0  0  0
   10.8365   -1.4305   -0.0578 N   0  0  0  0  0  0  0  0  0  0  0  0
    8.2701   -1.3347    0.7195 N   0  0  0  0  0  0  0  0  0  0  0  0
    8.6000    0.5830    1.9702 O   0  0  0  0  0  0  0  0  0  0  0  0
    2.7445   -2.1791    0.7907 O   0  0  0  0  0  0  0  0  0  0  0  0
    0.1528   -4.0435   -0.1665 H   0  0  0  0  0  0  0  0  0  0  0  0
    0.2510   -2.2717   -0.0556 H   0  0  0  0  0  0  0  0  0  0  0  0
    0.4191   -3.2614    1.4077 H   0  0  0  0  0  0  0  0  0  0  0  0
    2.3912   -3.2413   -0.9571 H   0  0  0  0  0  0  0  0  0  0  0  0
    2.5607   -4.2276    0.5109 H   0  0  0  0  0  0  0  0  0  0  0  0
    6.3918    0.1881    1.9604 H   0  0  0  0  0  0  0  0  0  0  0  0
    7.0174   -3.3067   -0.4565 H   0  0  0  0  0  0  0  0  0  0  0  0
    3.9401   -0.2644    1.9382 H   0  0  0  0  0  0  0  0  0  0  0  0
    4.6075   -3.7542   -0.4793 H   0  0  0  0  0  0  0  0  0  0  0  0
   10.9459   -0.9447    1.9747 H   0  0  0  0  0  0  0  0  0  0  0  0
   10.9448    0.4904    0.9551 H   0  0  0  0  0  0  0  0  0  0  0  0
   10.8297   -0.9252   -0.9416 H   0  0  0  0  0  0  0  0  0  0  0  0
   11.7684   -1.8235    0.0468 H   0  0  0  0  0  0  0  0  0  0  0  0
    8.8300   -2.0048    0.1965 H   0  0  0  0  0  0  0  0  0  0  0  0
  1 17  1  0  0  0  0
  2  1  1  0  0  0  0
  2 19  1  0  0  0  0
  2 14  1  0  0  0  0
  3 20  1  0  0  0  0
  4  8  1  0  0  0  0
  5  3  1  0  0  0  0
  5 22  1  0  0  0  0
  6  4  2  0  0  0  0
  6  9  1  0  0  0  0
  7 10  1  0  0  0  0
  7 24  1  0  0  0  0
  8  3  2  0  0  0  0
  9 14  1  0  0  0  0
  9  5  2  0  0  0  0
 10 13  2  0  0  0  0
 11 27  1  0  0  0  0
 11  7  1  0  0  0  0
 12  8  1  0  0  0  0
 12 10  1  0  0  0  0
 15  1  1  0  0  0  0
 16  1  1  0  0  0  0
 18  2  1  0  0  0  0
 21  4  1  0  0  0  0
 23  6  1  0  0  0  0
 25  7  1  0  0  0  0
 26 11  1  0  0  0  0
 28 12  1  0  0  0  0
M  END
>  <HBA>
4

>  <HBD>
2

>  <TPSA>
64.35

>  <cid>
66901

>  <dipole>
4.63

>  <excitation_energy_1>
4.562

>  <excitation_energy_2>
4.603

>  <excitation_energy_3>
4.948

>  <excitation_energy_4>
5.054

>  <homo_energy>
-5.216

>  <homo_lumo_gap>
5.317

>  <logP>
1.756

>  <lumo_energy>
0.101

>  <melting_point>
118.29

>  <molecular_refractivity>
54.76

>  <oscillator_strength_1>
0.0877

>  <oscillator_strength_2>
0.0267

>  <oscillator_strength_3>
0.3409

>  <oscillator_strength_4>
0.0974

>  <open_babel_can_smiles>
CCOc1ccc(cc1)NC(=O)CN

>  <mulliken_charges>
28
1   -0.456386
2   -0.026059
3   -0.164855
4   -0.205082
5   -0.194139
6   -0.200391
7   -0.23859
8   0.355944
9   0.3841
10   0.587861
11   -0.744424
12   -0.718761
13   -0.515297
14   -0.521182
15   0.146116
16   0.163297
17   0.163362
18   0.136995
19   0.137325
20   0.18433
21   0.122976
22   0.138254
23   0.130545
24   0.178742
25   0.165027
26   0.315695
27   0.316421
28   0.358178

>  <lowdin_charges>
28
1   -0.447109
2   -0.121932
3   -0.170567
4   -0.181263
5   -0.17599
6   -0.209275
7   -0.23548
8   0.042547
9   0.09257
10   0.145892
11   -0.555408
12   -0.237157
13   -0.309226
14   -0.206384
15   0.156825
16   0.159983
17   0.158311
18   0.133735
19   0.135927
20   0.188344
21   0.155462
22   0.168273
23   0.162337
24   0.169261
25   0.153154
26   0.264665
27   0.266476
28   0.296028

$$$$

