PCCDB-ID:  56318
public computational chemistry database (PCCDB) project, http://pccdb.org

 39 40  0  0  1  0  0  0  0  0999 V2000
    0.7753    1.1462   -1.7760 C   0  0  0  0  0  0  0  0  0  0  0  0
    7.7951   -2.8224   -4.1017 C   0  0  0  0  0  0  0  0  0  0  0  0
    6.1652   -3.9027   -2.5690 C   0  0  0  0  0  0  0  0  0  0  0  0
    2.2898    1.2481   -1.9853 C   0  0  0  0  0  0  0  0  0  0  0  0
    2.9940   -0.1144   -1.9741 C   0  0  0  0  0  0  0  0  0  0  0  0
    8.8344   -0.5342   -1.5777 C   0  0  0  0  0  0  0  0  0  0  0  0
    9.4546   -1.9560   -1.7646 C   0  0  0  0  0  0  0  0  0  0  0  0
    4.5060   -0.0121   -2.1856 C   0  0  0  0  0  0  0  0  0  0  0  0
    7.5416   -2.1601   -0.3708 C   0  0  0  0  0  0  0  0  0  0  0  0
    7.3788   -0.8417   -1.1509 C   0  0  2  0  0  0  0  0  0  0  0  0
    8.2446   -2.8901   -1.5367 C   0  0  1  0  0  0  0  0  0  0  0  0
    6.5803   -1.3111   -2.3982 C   0  0  1  0  0  0  0  0  0  0  0  0
    7.1888   -2.7538   -2.6884 C   0  0  0  0  0  0  0  0  0  0  0  0
    5.1394   -1.3303   -2.1273 N   0  0  0  0  0  0  0  0  0  0  0  0
    0.3034    2.1352   -1.7898 H   0  0  0  0  0  0  0  0  0  0  0  0
    0.5390    0.6766   -0.8135 H   0  0  0  0  0  0  0  0  0  0  0  0
    0.3061    0.5418   -2.5621 H   0  0  0  0  0  0  0  0  0  0  0  0
    8.3481   -3.7588   -4.2508 H   0  0  0  0  0  0  0  0  0  0  0  0
    8.4781   -1.9928   -4.3078 H   0  0  0  0  0  0  0  0  0  0  0  0
    7.0030   -2.7845   -4.8602 H   0  0  0  0  0  0  0  0  0  0  0  0
    6.6808   -4.8630   -2.6904 H   0  0  0  0  0  0  0  0  0  0  0  0
    5.4020   -3.8555   -3.3565 H   0  0  0  0  0  0  0  0  0  0  0  0
    5.6493   -3.9101   -1.6060 H   0  0  0  0  0  0  0  0  0  0  0  0
    2.7237    1.8862   -1.2024 H   0  0  0  0  0  0  0  0  0  0  0  0
    2.4938    1.7555   -2.9386 H   0  0  0  0  0  0  0  0  0  0  0  0
    2.5587   -0.7530   -2.7588 H   0  0  0  0  0  0  0  0  0  0  0  0
    2.8064   -0.6279   -1.0221 H   0  0  0  0  0  0  0  0  0  0  0  0
    8.8733    0.0668   -2.4942 H   0  0  0  0  0  0  0  0  0  0  0  0
    9.3600    0.0307   -0.7998 H   0  0  0  0  0  0  0  0  0  0  0  0
   10.2159   -2.1529   -1.0009 H   0  0  0  0  0  0  0  0  0  0  0  0
    9.9385   -2.0923   -2.7354 H   0  0  0  0  0  0  0  0  0  0  0  0
    4.9349    0.6173   -1.3958 H   0  0  0  0  0  0  0  0  0  0  0  0
    4.7133    0.5105   -3.1418 H   0  0  0  0  0  0  0  0  0  0  0  0
    6.5830   -2.5948   -0.0755 H   0  0  0  0  0  0  0  0  0  0  0  0
    8.1768   -2.0633    0.5181 H   0  0  0  0  0  0  0  0  0  0  0  0
    6.8972   -0.0200   -0.6141 H   0  0  0  0  0  0  0  0  0  0  0  0
    8.5289   -3.9325   -1.3562 H   0  0  0  0  0  0  0  0  0  0  0  0
    6.8042   -0.6438   -3.2530 H   0  0  0  0  0  0  0  0  0  0  0  0
    4.6815   -1.9249   -2.8152 H   0  0  0  0  0  0  0  0  0  0  0  0
  1 16  1  0  0  0  0
  2 13  1  0  0  0  0
  3 23  1  0  0  0  0
  4  5  1  0  0  0  0
  4  1  1  0  0  0  0
  4 24  1  0  0  0  0
  5 27  1  0  0  0  0
  6 10  1  0  0  0  0
  6 29  1  0  0  0  0
  7  6  1  0  0  0  0
  7 11  1  0  0  0  0
  7 30  1  0  0  0  0
  8 14  1  0  0  0  0
  8  5  1  0  0  0  0
  8 32  1  0  0  0  0
  9 34  1  0  0  0  0
  9 35  1  0  0  0  0
 10 36  1  1  0  0  0
 10  9  1  0  0  0  0
 11 37  1  1  0  0  0
 11  9  1  0  0  0  0
 12 38  1  6  0  0  0
 12 14  1  0  0  0  0
 12 10  1  0  0  0  0
 13  3  1  0  0  0  0
 13 12  1  0  0  0  0
 13 11  1  0  0  0  0
 15  1  1  0  0  0  0
 17  1  1  0  0  0  0
 18  2  1  0  0  0  0
 19  2  1  0  0  0  0
 20  2  1  0  0  0  0
 21  3  1  0  0  0  0
 22  3  1  0  0  0  0
 25  4  1  0  0  0  0
 26  5  1  0  0  0  0
 28  6  1  0  0  0  0
 31  7  1  0  0  0  0
 33  8  1  0  0  0  0
 39 14  1  0  0  0  0
M  END
>  <HBA>
1

>  <HBD>
1

>  <TPSA>
12.03

>  <cid>
56318

>  <dipole>
0.69

>  <excitation_energy_1>
5.32

>  <excitation_energy_2>
5.636

>  <excitation_energy_3>
5.821

>  <excitation_energy_4>
5.886

>  <homo_energy>
-5.796

>  <homo_lumo_gap>
7.897

>  <logP>
3.592

>  <lumo_energy>
2.101

>  <melting_point>
59.81

>  <molecular_refractivity>
62.92

>  <oscillator_strength_1>
0.0039

>  <oscillator_strength_2>
0.0087

>  <oscillator_strength_3>
0.03

>  <oscillator_strength_4>
0.0111

>  <open_babel_can_smiles>
CCCCN[C@H]1[C@@H]2CC[C@H](C1(C)C)C2

>  <mulliken_charges>
39
1   -0.440568
2   -0.46385
3   -0.466413
4   -0.25028
5   -0.260371
6   -0.277968
7   -0.278226
8   -0.110813
9   -0.278279
10   -0.095843
11   -0.104003
12   0.035766
13   0.101261
14   -0.582761
15   0.14195
16   0.14324
17   0.141021
18   0.138444
19   0.145729
20   0.134697
21   0.139466
22   0.128612
23   0.164407
24   0.132413
25   0.131133
26   0.121158
27   0.143921
28   0.129323
29   0.133536
30   0.132164
31   0.134696
32   0.139333
33   0.106028
34   0.151081
35   0.125187
36   0.116639
37   0.107064
38   0.09756
39   0.293546

>  <lowdin_charges>
39
1   -0.444458
2   -0.446863
3   -0.445565
4   -0.272812
5   -0.279915
6   -0.289754
7   -0.288432
8   -0.203287
9   -0.286162
10   -0.138561
11   -0.133016
12   -0.070286
13   0.003271
14   -0.362637
15   0.148994
16   0.147151
17   0.147204
18   0.146741
19   0.148991
20   0.146019
21   0.148665
22   0.140783
23   0.157473
24   0.140909
25   0.138995
26   0.135209
27   0.146732
28   0.139996
29   0.145897
30   0.144358
31   0.143633
32   0.140842
33   0.11325
34   0.151707
35   0.140734
36   0.141417
37   0.136155
38   0.114292
39   0.25233

$$$$

