PCCDB-ID:  50330
public computational chemistry database (PCCDB) project, http://pccdb.org

 30 31  0  0  0  0  0  0  0  0999 V2000
    3.0405    0.6374    2.8480 C   0  0  0  0  0  0  0  0  0  0  0  0
    7.2428   -1.3785   -1.5871 C   0  0  0  0  0  0  0  0  0  0  0  0
    3.6965    1.0472   -0.8893 C   0  0  0  0  0  0  0  0  0  0  0  0
    3.2693    1.3043    0.4136 C   0  0  0  0  0  0  0  0  0  0  0  0
    4.3236   -0.1577   -1.2019 C   0  0  0  0  0  0  0  0  0  0  0  0
    5.0116   -4.8852   -0.3833 C   0  0  0  0  0  0  0  0  0  0  0  0
    4.4964   -3.6193   -0.1338 C   0  0  0  0  0  0  0  0  0  0  0  0
    4.0959   -0.8494    1.0935 C   0  0  0  0  0  0  0  0  0  0  0  0
    6.9296   -3.8527   -1.4065 C   0  0  0  0  0  0  0  0  0  0  0  0
    3.4665    0.3559    1.4249 C   0  0  0  0  0  0  0  0  0  0  0  0
    6.4164   -2.5754   -1.1654 C   0  0  0  0  0  0  0  0  0  0  0  0
    4.5363   -1.1296   -0.2105 C   0  0  0  0  0  0  0  0  0  0  0  0
    6.2476   -5.0200   -1.0323 C   0  0  0  0  0  0  0  0  0  0  0  0
    5.1649   -2.4452   -0.5184 C   0  0  0  0  0  0  0  0  0  0  0  0
    6.8186   -6.2801   -1.2419 N   0  0  0  0  0  0  0  0  0  0  0  0
    2.1804    1.3147    2.8824 H   0  0  0  0  0  0  0  0  0  0  0  0
    3.8496    1.1113    3.4201 H   0  0  0  0  0  0  0  0  0  0  0  0
    2.7681   -0.2831    3.3754 H   0  0  0  0  0  0  0  0  0  0  0  0
    8.3015   -1.6488   -1.6596 H   0  0  0  0  0  0  0  0  0  0  0  0
    7.1486   -0.5502   -0.8788 H   0  0  0  0  0  0  0  0  0  0  0  0
    6.9392   -0.9947   -2.5695 H   0  0  0  0  0  0  0  0  0  0  0  0
    3.5273    1.7853   -1.6694 H   0  0  0  0  0  0  0  0  0  0  0  0
    2.7775    2.2460    0.6473 H   0  0  0  0  0  0  0  0  0  0  0  0
    4.6242   -0.3603   -2.2256 H   0  0  0  0  0  0  0  0  0  0  0  0
    4.4597   -5.7707   -0.0756 H   0  0  0  0  0  0  0  0  0  0  0  0
    3.5302   -3.5313    0.3563 H   0  0  0  0  0  0  0  0  0  0  0  0
    4.2637   -1.5914    1.8712 H   0  0  0  0  0  0  0  0  0  0  0  0
    7.9022   -3.9460   -1.8872 H   0  0  0  0  0  0  0  0  0  0  0  0
    6.1532   -7.0420   -1.2923 H   0  0  0  0  0  0  0  0  0  0  0  0
    7.4812   -6.3225   -2.0067 H   0  0  0  0  0  0  0  0  0  0  0  0
  1 16  1  0  0  0  0
  1 18  1  0  0  0  0
  1 17  1  0  0  0  0
  2 11  1  0  0  0  0
  2 20  1  0  0  0  0
  3  4  1  0  0  0  0
  4 23  1  0  0  0  0
  4 10  2  0  0  0  0
  5  3  2  0  0  0  0
  5 12  1  0  0  0  0
  6  7  1  0  0  0  0
  6 25  1  0  0  0  0
  7 26  1  0  0  0  0
  8 10  1  0  0  0  0
  8 27  1  0  0  0  0
  9 11  2  0  0  0  0
  9 13  1  0  0  0  0
 10  1  1  0  0  0  0
 11 14  1  0  0  0  0
 12  8  2  0  0  0  0
 13  6  2  0  0  0  0
 14 12  1  0  0  0  0
 14  7  2  0  0  0  0
 15 13  1  0  0  0  0
 19  2  1  0  0  0  0
 21  2  1  0  0  0  0
 22  3  1  0  0  0  0
 24  5  1  0  0  0  0
 28  9  1  0  0  0  0
 29 15  1  0  0  0  0
 30 15  1  0  0  0  0
M  END
>  <HBA>
1

>  <HBD>
1

>  <TPSA>
26.02

>  <cid>
50330

>  <dipole>
1.55

>  <excitation_energy_1>
4.446

>  <excitation_energy_2>
4.483

>  <excitation_energy_3>
4.627

>  <excitation_energy_4>
4.669

>  <homo_energy>
-5.189

>  <homo_lumo_gap>
5.037

>  <logP>
4.134

>  <lumo_energy>
-0.152

>  <melting_point>
100.42

>  <molecular_refractivity>
66.21

>  <oscillator_strength_1>
0.2461

>  <oscillator_strength_2>
0.112

>  <oscillator_strength_3>
0.0096

>  <oscillator_strength_4>
0.0069

>  <open_babel_can_smiles>
Nc1ccc(c(c1)C)c1cccc(c1)C

>  <mulliken_charges>
30
1   -0.528388
2   -0.534042
3   -0.131556
4   -0.180319
5   -0.1713
6   -0.181803
7   -0.176014
8   -0.226513
9   -0.244202
10   0.176852
11   0.14383
12   0.071482
13   0.324501
14   0.015094
15   -0.789857
16   0.154196
17   0.164493
18   0.155854
19   0.150436
20   0.170159
21   0.158539
22   0.124669
23   0.117473
24   0.125875
25   0.114086
26   0.128945
27   0.122826
28   0.107879
29   0.318437
30   0.318367

>  <lowdin_charges>
30
1   -0.443786
2   -0.442813
3   -0.157677
4   -0.172176
5   -0.166875
6   -0.207251
7   -0.146837
8   -0.176164
9   -0.209585
10   0.000888
11   0.009141
12   0.002361
13   0.060386
14   -0.041471
15   -0.489798
16   0.157003
17   0.162186
18   0.157753
19   0.153106
20   0.166124
21   0.156877
22   0.156293
23   0.152398
24   0.155797
25   0.152361
26   0.157789
27   0.15646
28   0.147879
29   0.275088
30   0.274542

$$$$

