PCCDB-ID:  1046
public computational chemistry database (PCCDB) project, http://pccdb.org

 14 14  0  0  1  0  0  0  0  0999 V2000
   -1.3443   -0.0158    0.0590 C   0  0  0  0  0  0  0  0  0  0  0  0
   -0.6341    1.1907    0.0576 C   0  0  0  0  0  0  0  0  0  0  0  0
    0.6119   -1.1602   -0.0498 C   0  0  0  0  0  0  0  0  0  0  0  0
    1.3306    0.0434   -0.0848 C   0  0  0  0  0  0  0  0  0  0  0  0
    2.8300    0.0956   -0.1536 C   0  0  1  0  0  0  0  0  0  0  0  0
    3.5426    1.0848    0.1905 N   0  0  0  0  0  0  0  0  0  0  0  0
   -0.7237   -1.1969    0.0171 N   0  0  0  0  0  0  0  0  0  0  0  0
    0.6950    1.2246   -0.0135 N   0  0  0  0  0  0  0  0  0  0  0  0
    3.4532   -1.0463   -0.5680 O   0  0  0  0  0  0  0  0  0  0  0  0
   -2.4310   -0.0272    0.1056 H   0  0  0  0  0  0  0  0  0  0  0  0
   -1.1511    2.1461    0.1164 H   0  0  0  0  0  0  0  0  0  0  0  0
    1.1181   -2.1234   -0.0434 H   0  0  0  0  0  0  0  0  0  0  0  0
    2.9264    1.8369    0.5089 H   0  0  0  0  0  0  0  0  0  0  0  0
    2.8508   -1.5666   -1.1212 H   0  0  0  0  0  0  0  0  0  0  0  0
  1 10  1  0  0  0  0
  2  1  1  0  0  0  0
  2 11  1  0  0  0  0
  3 12  1  0  0  0  0
  3  7  1  0  0  0  0
  4  3  2  0  0  0  0
  4  8  1  0  0  0  0
  5  9  1  1  0  0  0
  5  4  1  0  0  0  0
  5  6  1  0  0  0  0
  6 13  1  0  0  0  0
  7  1  2  0  0  0  0
  8  2  2  0  0  0  0
 14  9  1  0  0  0  0
M  RAD  2   5   2   6   2
M  END
>  <HBA>
4

>  <HBD>
1

>  <TPSA>
68.87

>  <cid>
1046

>  <dipole>
4.21

>  <excitation_energy_1>
3.834

>  <excitation_energy_2>
4.376

>  <excitation_energy_3>
4.454

>  <excitation_energy_4>
4.53

>  <homo_energy>
-7.276

>  <homo_lumo_gap>
5.086

>  <logP>
0.276

>  <lumo_energy>
-2.191

>  <melting_point>
124.13

>  <molecular_refractivity>
30.13

>  <oscillator_strength_1>
0.0025

>  <oscillator_strength_2>
0.0049

>  <oscillator_strength_3>
0.0159

>  <oscillator_strength_4>
0.0391

>  <open_babel_can_smiles>
[NH][C](c1cnccn1)O

>  <mulliken_charges>
14
1   0.035097
2   0.045053
3   -0.01134
4   0.242375
5   0.45419
6   -0.569505
7   -0.371183
8   -0.452483
9   -0.584394
10   0.164976
11   0.164914
12   0.160458
13   0.313817
14   0.408027

>  <lowdin_charges>
14
1   -0.093291
2   -0.094403
3   -0.115028
4   -0.003822
5   0.113161
6   -0.355317
7   -0.108768
8   -0.114007
9   -0.365783
10   0.16846
11   0.171093
12   0.167415
13   0.272034
14   0.358257

$$$$

