PCCDB-ID:  23688
public computational chemistry database (PCCDB) project, http://pccdb.org

 28 27  0  0  0  0  0  0  0  0999 V2000
    2.2525   -4.0499   -2.2521 C   0  0  0  0  0  0  0  0  0  0  0  0
   11.4584   -2.1551   -0.7142 C   0  0  0  0  0  0  0  0  0  0  0  0
    2.7532   -3.0889   -3.3364 C   0  0  0  0  0  0  0  0  0  0  0  0
   10.6697   -3.2037   -0.4658 C   0  0  0  0  0  0  0  0  0  0  0  0
    3.0758   -1.6736   -2.8289 C   0  0  0  0  0  0  0  0  0  0  0  0
    4.2644   -1.5947   -1.8761 C   0  0  0  0  0  0  0  0  0  0  0  0
    6.5909   -2.0209   -1.7601 C   0  0  0  0  0  0  0  0  0  0  0  0
    7.7195   -2.5895   -2.6133 C   0  0  0  0  0  0  0  0  0  0  0  0
    9.3380   -3.4257   -1.0807 C   0  0  0  0  0  0  0  0  0  0  0  0
    8.6415   -4.3898   -0.8311 O   0  0  0  0  0  0  0  0  0  0  0  0
    5.4248   -2.0515   -2.5561 O   0  0  0  0  0  0  0  0  0  0  0  0
    8.9883   -2.4428   -1.9477 O   0  0  0  0  0  0  0  0  0  0  0  0
    1.9983   -5.0258   -2.6811 H   0  0  0  0  0  0  0  0  0  0  0  0
    1.3532   -3.6597   -1.7586 H   0  0  0  0  0  0  0  0  0  0  0  0
    3.0086   -4.2231   -1.4778 H   0  0  0  0  0  0  0  0  0  0  0  0
   12.4247   -2.0506   -0.2289 H   0  0  0  0  0  0  0  0  0  0  0  0
   11.1616   -1.3733   -1.4059 H   0  0  0  0  0  0  0  0  0  0  0  0
    1.9908   -3.0070   -4.1223 H   0  0  0  0  0  0  0  0  0  0  0  0
    3.6484   -3.5047   -3.8132 H   0  0  0  0  0  0  0  0  0  0  0  0
   10.9611   -3.9900    0.2244 H   0  0  0  0  0  0  0  0  0  0  0  0
    2.2004   -1.2527   -2.3140 H   0  0  0  0  0  0  0  0  0  0  0  0
    3.2841   -1.0191   -3.6849 H   0  0  0  0  0  0  0  0  0  0  0  0
    4.0938   -2.2048   -0.9737 H   0  0  0  0  0  0  0  0  0  0  0  0
    4.4110   -0.5540   -1.5401 H   0  0  0  0  0  0  0  0  0  0  0  0
    6.8371   -0.9901   -1.4545 H   0  0  0  0  0  0  0  0  0  0  0  0
    6.4686   -2.6261   -0.8490 H   0  0  0  0  0  0  0  0  0  0  0  0
    7.8101   -2.0234   -3.5427 H   0  0  0  0  0  0  0  0  0  0  0  0
    7.5359   -3.6423   -2.8367 H   0  0  0  0  0  0  0  0  0  0  0  0
  1 14  1  0  0  0  0
  1 15  1  0  0  0  0
  2  4  2  0  0  0  0
  2 16  1  0  0  0  0
  3  5  1  0  0  0  0
  3  1  1  0  0  0  0
  4 20  1  0  0  0  0
  5 21  1  0  0  0  0
  5  6  1  0  0  0  0
  6 24  1  0  0  0  0
  6 23  1  0  0  0  0
  7 25  1  0  0  0  0
  7 26  1  0  0  0  0
  8 12  1  0  0  0  0
  8  7  1  0  0  0  0
  9 10  2  0  0  0  0
  9  4  1  0  0  0  0
 11  6  1  0  0  0  0
 11  7  1  0  0  0  0
 12  9  1  0  0  0  0
 13  1  1  0  0  0  0
 17  2  1  0  0  0  0
 18  3  1  0  0  0  0
 19  3  1  0  0  0  0
 22  5  1  0  0  0  0
 27  8  1  0  0  0  0
 28  8  1  0  0  0  0
M  END
>  <HBA>
3

>  <HBD>
0

>  <TPSA>
35.53

>  <cid>
23688

>  <dipole>
2.19

>  <excitation_energy_1>
4.71

>  <excitation_energy_2>
5.028

>  <excitation_energy_3>
5.965

>  <excitation_energy_4>
6.429

>  <homo_energy>
-6.983

>  <homo_lumo_gap>
5.685

>  <logP>
1.532

>  <lumo_energy>
-1.298

>  <melting_point>
-45.66

>  <molecular_refractivity>
47.27

>  <oscillator_strength_1>
0.0001

>  <oscillator_strength_2>
0.0002

>  <oscillator_strength_3>
0.1029

>  <oscillator_strength_4>
0.3195

>  <open_babel_can_smiles>
CCCCOCCOC(=O)C=C

>  <mulliken_charges>
28
1   -0.447687
2   -0.310442
3   -0.247957
4   -0.130341
5   -0.272308
6   -0.010964
7   -0.022219
8   -0.065646
9   0.609876
10   -0.483634
11   -0.482115
12   -0.479172
13   0.144459
14   0.137251
15   0.149347
16   0.159216
17   0.176839
18   0.129795
19   0.153876
20   0.159688
21   0.129756
22   0.142365
23   0.124961
24   0.118988
25   0.126168
26   0.146345
27   0.163441
28   0.180115

>  <lowdin_charges>
28
1   -0.448526
2   -0.274339
3   -0.276529
4   -0.179405
5   -0.284363
6   -0.127199
7   -0.139185
8   -0.133576
9   0.193919
10   -0.264443
11   -0.274184
12   -0.19327
13   0.150998
14   0.14422
15   0.149188
16   0.168982
17   0.176849
18   0.142279
19   0.151463
20   0.175358
21   0.14533
22   0.149886
23   0.128111
24   0.126474
25   0.128746
26   0.140907
27   0.159116
28   0.163194

$$$$

