PCCDB-ID:  11880
public computational chemistry database (PCCDB) project, http://pccdb.org

 19 19  0  0  0  0  0  0  0  0999 V2000
   -1.2279   -0.0064    0.1746 C   0  0  0  0  0  0  0  0  0  0  0  0
   -0.3574    1.0642    0.3357 C   0  0  0  0  0  0  0  0  0  0  0  0
    0.6778   -1.4973    0.0306 C   0  0  0  0  0  0  0  0  0  0  0  0
   -0.6901   -1.2801    0.0236 C   0  0  0  0  0  0  0  0  0  0  0  0
    1.0402    0.9162    0.3080 C   0  0  0  0  0  0  0  0  0  0  0  0
    1.5300   -0.3996    0.1510 C   0  0  0  0  0  0  0  0  0  0  0  0
    1.7779    2.2397    0.5633 C   0  0  0  0  0  0  0  0  0  0  0  0
   -1.5921   -2.4384   -0.1376 N   0  0  0  0  0  0  0  0  0  0  0  0
    2.9644   -0.7639    0.1142 N   0  0  0  0  0  0  0  0  0  0  0  0
    1.2315    3.0834    1.2359 O   0  0  0  0  0  0  0  0  0  0  0  0
    2.9551    2.4575   -0.0132 O   0  0  0  0  0  0  0  0  0  0  0  0
   -2.7990   -2.2125   -0.1279 O   0  0  0  0  0  0  0  0  0  0  0  0
   -1.0736   -3.5433   -0.2714 O   0  0  0  0  0  0  0  0  0  0  0  0
    3.2814   -1.8450    0.5833 O   0  0  0  0  0  0  0  0  0  0  0  0
    3.7673    0.0087   -0.4294 O   0  0  0  0  0  0  0  0  0  0  0  0
   -2.3023    0.1296    0.1771 H   0  0  0  0  0  0  0  0  0  0  0  0
   -0.7460    2.0610    0.5054 H   0  0  0  0  0  0  0  0  0  0  0  0
    1.0746   -2.4994   -0.0592 H   0  0  0  0  0  0  0  0  0  0  0  0
    3.2882    1.6392   -0.4457 H   0  0  0  0  0  0  0  0  0  0  0  0
  1 16  1  0  0  0  0
  1  2  2  0  0  0  0
  2 17  1  0  0  0  0
  3  6  1  0  0  0  0
  4  3  2  0  0  0  0
  4  1  1  0  0  0  0
  5  2  1  0  0  0  0
  5  7  1  0  0  0  0
  6  5  2  0  0  0  0
  7 10  2  0  0  0  0
  8 12  2  0  0  0  0
  8  4  1  0  0  0  0
  9  6  1  0  0  0  0
  9 14  2  0  0  0  0
 11  7  1  0  0  0  0
 13  8  2  0  0  0  0
 15  9  2  0  0  0  0
 18  3  1  0  0  0  0
 19 11  1  0  0  0  0
M  END
>  <HBA>
2

>  <HBD>
1

>  <TPSA>
128.94

>  <cid>
11880

>  <dipole>
1.56

>  <excitation_energy_1>
3.514

>  <excitation_energy_2>
3.67

>  <excitation_energy_3>
3.756

>  <excitation_energy_4>
4.065

>  <homo_energy>
-8.115

>  <homo_lumo_gap>
4.305

>  <logP>
2.248

>  <lumo_energy>
-3.81

>  <melting_point>
174.24

>  <molecular_refractivity>
51.05

>  <oscillator_strength_1>
0.0188

>  <oscillator_strength_2>
0.0004

>  <oscillator_strength_3>
0.0156

>  <oscillator_strength_4>
0.0041

>  <open_babel_can_smiles>
O=N(=O)c1cc(ccc1C(=O)O)N(=O)=O

>  <mulliken_charges>
19
1   -0.1226
2   -0.181948
3   -0.161814
4   0.27493
5   0.052916
6   0.198506
7   0.570679
8   0.389348
9   0.378557
10   -0.431034
11   -0.568642
12   -0.37539
13   -0.377095
14   -0.334348
15   -0.409852
16   0.207342
17   0.206536
18   0.232002
19   0.451908

>  <lowdin_charges>
19
1   -0.110959
2   -0.11335
3   -0.119116
4   0.017121
5   -0.02473
6   0.010692
7   0.192893
8   0.30539
9   0.315958
10   -0.232341
11   -0.33224
12   -0.223699
13   -0.225182
14   -0.188359
15   -0.24713
16   0.199066
17   0.199012
18   0.213504
19   0.363469

$$$$

