PCCDB-ID:  21836
public computational chemistry database (PCCDB) project, http://pccdb.org

 22 22  0  0  0  0  0  0  0  0999 V2000
    2.1133   -1.5028   -0.8362 C   0  0  0  0  0  0  0  0  0  0  0  0
    2.6663   -0.2049   -0.2223 C   0  0  0  0  0  0  0  0  0  0  0  0
    6.7000    0.6878    1.8317 C   0  0  0  0  0  0  0  0  0  0  0  0
    6.4329   -0.3427    2.9439 C   0  0  0  0  0  0  0  0  0  0  0  0
    3.1828   -0.3996    1.1793 C   0  0  0  0  0  0  0  0  0  0  0  0
    5.5818    0.4195    0.8003 C   0  0  0  0  0  0  0  0  0  0  0  0
    4.8959   -0.3520    3.0509 C   0  0  0  0  0  0  0  0  0  0  0  0
    4.4158   -0.1305    1.6207 C   0  0  0  0  0  0  0  0  0  0  0  0
    1.7153   -1.3270   -1.8424 H   0  0  0  0  0  0  0  0  0  0  0  0
    1.3021   -1.9138   -0.2230 H   0  0  0  0  0  0  0  0  0  0  0  0
    2.8944   -2.2681   -0.9072 H   0  0  0  0  0  0  0  0  0  0  0  0
    1.8618    0.5472   -0.2139 H   0  0  0  0  0  0  0  0  0  0  0  0
    3.4559    0.1987   -0.8667 H   0  0  0  0  0  0  0  0  0  0  0  0
    7.7046    0.6111    1.4023 H   0  0  0  0  0  0  0  0  0  0  0  0
    6.5963    1.7022    2.2391 H   0  0  0  0  0  0  0  0  0  0  0  0
    6.9306   -0.0978    3.8883 H   0  0  0  0  0  0  0  0  0  0  0  0
    6.7921   -1.3317    2.6289 H   0  0  0  0  0  0  0  0  0  0  0  0
    2.4611   -0.8138    1.8874 H   0  0  0  0  0  0  0  0  0  0  0  0
    5.9152   -0.3310    0.0690 H   0  0  0  0  0  0  0  0  0  0  0  0
    5.3161    1.3154    0.2276 H   0  0  0  0  0  0  0  0  0  0  0  0
    4.5704    0.4830    3.6902 H   0  0  0  0  0  0  0  0  0  0  0  0
    4.4929   -1.2680    3.4968 H   0  0  0  0  0  0  0  0  0  0  0  0
  1 10  1  0  0  0  0
  1  2  1  0  0  0  0
  2 12  1  0  0  0  0
  2  5  1  0  0  0  0
  3 15  1  0  0  0  0
  3  4  1  0  0  0  0
  4  7  1  0  0  0  0
  4 16  1  0  0  0  0
  5  8  2  0  0  0  0
  5 18  1  0  0  0  0
  6  8  1  0  0  0  0
  6  3  1  0  0  0  0
  7 22  1  0  0  0  0
  7 21  1  0  0  0  0
  8  7  1  0  0  0  0
  9  1  1  0  0  0  0
 11  1  1  0  0  0  0
 13  2  1  0  0  0  0
 14  3  1  0  0  0  0
 17  4  1  0  0  0  0
 19  6  1  0  0  0  0
 20  6  1  0  0  0  0
M  END
>  <HBA>
0

>  <HBD>
0

>  <TPSA>
0.0

>  <cid>
21836

>  <dipole>
0.3

>  <excitation_energy_1>
5.595

>  <excitation_energy_2>
5.85

>  <excitation_energy_3>
6.084

>  <excitation_energy_4>
6.125

>  <homo_energy>
-6.014

>  <homo_lumo_gap>
6.732

>  <logP>
2.897

>  <lumo_energy>
0.718

>  <melting_point>
7.9

>  <molecular_refractivity>
37.98

>  <oscillator_strength_1>
0.0227

>  <oscillator_strength_2>
0.1555

>  <oscillator_strength_3>
0.0057

>  <oscillator_strength_4>
0.0056

>  <open_babel_can_smiles>
CCC=C1CCCC1

>  <mulliken_charges>
22
1   -0.438252
2   -0.291145
3   -0.27722
4   -0.274891
5   -0.175338
6   -0.323705
7   -0.317987
8   0.161181
9   0.139746
10   0.142032
11   0.147139
12   0.138967
13   0.137467
14   0.133643
15   0.137471
16   0.132893
17   0.137681
18   0.106224
19   0.148339
20   0.146483
21   0.146204
22   0.143068

>  <lowdin_charges>
22
1   -0.442994
2   -0.271117
3   -0.279221
4   -0.280325
5   -0.191681
6   -0.287204
7   -0.282235
8   -0.024374
9   0.146876
10   0.14746
11   0.149489
12   0.146533
13   0.147136
14   0.144175
15   0.140756
16   0.144541
17   0.141056
18   0.14493
19   0.152162
20   0.152548
21   0.149877
22   0.151612

$$$$

