PCCDB-ID:  10906
public computational chemistry database (PCCDB) project, http://pccdb.org

 16 15  0  0  0  0  0  0  0  0999 V2000
    0.8214   -0.5494   -0.1256 C   0  0  0  0  0  0  0  0  0  0  0  0
    2.9166   -1.4669    0.9868 C   0  0  0  0  0  0  0  0  0  0  0  0
    2.9619   -0.7909   -1.4485 C   0  0  0  0  0  0  0  0  0  0  0  0
    2.3524   -0.5147   -0.0727 C   0  0  0  0  0  0  0  0  0  0  0  0
    2.3387    1.3233    1.4597 N   0  0  0  0  0  0  0  0  0  0  0  0
    2.7183    2.4300    1.6560 O   0  0  0  0  0  0  0  0  0  0  0  0
    2.8020    0.8581    0.2133 O   0  0  0  0  0  0  0  0  0  0  0  0
    0.4787   -1.5448   -0.4293 H   0  0  0  0  0  0  0  0  0  0  0  0
    0.4468    0.1791   -0.8522 H   0  0  0  0  0  0  0  0  0  0  0  0
    0.3869   -0.3213    0.8519 H   0  0  0  0  0  0  0  0  0  0  0  0
    2.6605   -2.5022    0.7359 H   0  0  0  0  0  0  0  0  0  0  0  0
    2.5080   -1.2433    1.9764 H   0  0  0  0  0  0  0  0  0  0  0  0
    4.0076   -1.3848    1.0333 H   0  0  0  0  0  0  0  0  0  0  0  0
    2.6978   -1.8012   -1.7792 H   0  0  0  0  0  0  0  0  0  0  0  0
    4.0529   -0.7121   -1.4113 H   0  0  0  0  0  0  0  0  0  0  0  0
    2.5889   -0.0753   -2.1880 H   0  0  0  0  0  0  0  0  0  0  0  0
  1  4  1  0  0  0  0
  1 10  1  0  0  0  0
  2 13  1  0  0  0  0
  2 12  1  0  0  0  0
  3 15  1  0  0  0  0
  3  4  1  0  0  0  0
  4  7  1  0  0  0  0
  4  2  1  0  0  0  0
  5  6  1  0  0  0  0
  7  5  1  0  0  0  0
  8  1  1  0  0  0  0
  9  1  1  0  0  0  0
 11  2  1  0  0  0  0
 14  3  1  0  0  0  0
 16  3  1  0  0  0  0
M  RAD  2   5   2   6   2
M  END
>  <HBA>
1

>  <HBD>
0

>  <TPSA>
38.66

>  <cid>
10906

>  <dipole>
2.92

>  <excitation_energy_1>
3.246

>  <excitation_energy_2>
5.537

>  <excitation_energy_3>
6.017

>  <excitation_energy_4>
6.67

>  <homo_energy>
-7.034

>  <homo_lumo_gap>
5.135

>  <logP>
1.483

>  <lumo_energy>
-1.899

>  <melting_point>
-1.76

>  <molecular_refractivity>
27.2

>  <oscillator_strength_1>
0.0012

>  <oscillator_strength_2>
0.0612

>  <oscillator_strength_3>
0.0006

>  <oscillator_strength_4>
0.0003

>  <open_babel_can_smiles>
[O][N]OC(C)(C)C

>  <mulliken_charges>
16
1   -0.456939
2   -0.456745
3   -0.452812
4   0.301446
5   0.284293
6   -0.254736
7   -0.382153
8   0.148501
9   0.157968
10   0.167343
11   0.148469
12   0.167278
13   0.157917
14   0.148631
15   0.160815
16   0.160725

>  <lowdin_charges>
16
1   -0.455298
2   -0.451379
3   -0.443148
4   0.127917
5   0.127813
6   -0.137107
7   -0.197055
8   0.156503
9   0.160045
10   0.16168
11   0.155948
12   0.16144
13   0.157025
14   0.155732
15   0.158482
16   0.161403

$$$$

