PCCDB-ID:  7925
public computational chemistry database (PCCDB) project, http://pccdb.org

 30 30  0  0  0  0  0  0  0  0999 V2000
    0.7215   -1.2994   -0.5483 C   0  0  0  0  0  0  0  0  0  0  0  0
    5.0179    2.0291   -3.7592 C   0  0  0  0  0  0  0  0  0  0  0  0
    9.9348   -0.2415    0.6528 C   0  0  0  0  0  0  0  0  0  0  0  0
    2.0862   -0.6442   -0.4566 C   0  0  0  0  0  0  0  0  0  0  0  0
    4.6914    0.5748   -3.4778 C   0  0  0  0  0  0  0  0  0  0  0  0
    7.4697   -0.8743   -0.0065 C   0  0  0  0  0  0  0  0  0  0  0  0
    8.4405   -0.1781    0.6942 C   0  0  0  0  0  0  0  0  0  0  0  0
    6.2531   -0.3312    0.4645 C   0  0  0  0  0  0  0  0  0  0  0  0
    7.7631    0.6847    1.5005 N   0  0  0  0  0  0  0  0  0  0  0  0
    6.4140    0.6126    1.3773 N   0  0  0  0  0  0  0  0  0  0  0  0
    5.3564   -2.0573   -2.1102 O   0  0  0  0  0  0  0  0  0  0  0  0
    3.0263   -1.4792   -1.1836 O   0  0  0  0  0  0  0  0  0  0  0  0
    4.5376    0.4246   -2.0417 O   0  0  0  0  0  0  0  0  0  0  0  0
    4.9683   -0.7083    0.1396 O   0  0  0  0  0  0  0  0  0  0  0  0
    4.5514   -1.0513   -1.3917 P   0  0  0  0  0  0  0  0  0  0  0  0
   -0.0142   -0.7015    0.0013 H   0  0  0  0  0  0  0  0  0  0  0  0
    0.7455   -2.3043   -0.1157 H   0  0  0  0  0  0  0  0  0  0  0  0
    0.3967   -1.3789   -1.5904 H   0  0  0  0  0  0  0  0  0  0  0  0
    5.1280    2.1829   -4.8386 H   0  0  0  0  0  0  0  0  0  0  0  0
    5.9535    2.3158   -3.2691 H   0  0  0  0  0  0  0  0  0  0  0  0
    4.2220    2.6865   -3.3952 H   0  0  0  0  0  0  0  0  0  0  0  0
   10.2635   -1.2243    0.3043 H   0  0  0  0  0  0  0  0  0  0  0  0
   10.3716   -0.0757    1.6447 H   0  0  0  0  0  0  0  0  0  0  0  0
   10.3566    0.5099   -0.0270 H   0  0  0  0  0  0  0  0  0  0  0  0
    2.4269   -0.5623    0.5797 H   0  0  0  0  0  0  0  0  0  0  0  0
    2.0835    0.3562   -0.9031 H   0  0  0  0  0  0  0  0  0  0  0  0
    5.4847   -0.0957   -3.8198 H   0  0  0  0  0  0  0  0  0  0  0  0
    3.7539    0.2765   -3.9623 H   0  0  0  0  0  0  0  0  0  0  0  0
    7.5998   -1.6537   -0.7409 H   0  0  0  0  0  0  0  0  0  0  0  0
    8.1500    1.3441    2.1585 H   0  0  0  0  0  0  0  0  0  0  0  0
  1  4  1  0  0  0  0
  1 17  1  0  0  0  0
  1 16  1  0  0  0  0
  2  5  1  0  0  0  0
  2 21  1  0  0  0  0
  2 20  1  0  0  0  0
  3  7  1  0  0  0  0
  3 23  1  0  0  0  0
  4 25  1  0  0  0  0
  5 13  1  0  0  0  0
  6  8  1  0  0  0  0
  6  7  2  0  0  0  0
  7  9  1  0  0  0  0
  8 10  2  0  0  0  0
  9 30  1  0  0  0  0
 10  9  1  0  0  0  0
 11 15  2  0  0  0  0
 12  4  1  0  0  0  0
 13 15  1  0  0  0  0
 14  8  1  0  0  0  0
 15 12  1  0  0  0  0
 15 14  1  0  0  0  0
 18  1  1  0  0  0  0
 19  2  1  0  0  0  0
 22  3  1  0  0  0  0
 24  3  1  0  0  0  0
 26  4  1  0  0  0  0
 27  5  1  0  0  0  0
 28  5  1  0  0  0  0
 29  6  1  0  0  0  0
M  END
>  <HBA>
5

>  <HBD>
1

>  <TPSA>
83.25

>  <cid>
7925

>  <dipole>
3.54

>  <excitation_energy_1>
5.734

>  <excitation_energy_2>
5.92

>  <excitation_energy_3>
6.23

>  <excitation_energy_4>
6.337

>  <homo_energy>
-6.397

>  <homo_lumo_gap>
6.98

>  <logP>
2.278

>  <lumo_energy>
0.582

>  <melting_point>
71.58

>  <molecular_refractivity>
55.3

>  <oscillator_strength_1>
0.0001

>  <oscillator_strength_2>
0.0001

>  <oscillator_strength_3>
0.028

>  <oscillator_strength_4>
0.0394

>  <open_babel_can_smiles>
CCOP(=O)(Oc1n[nH]c(c1)C)OCC

>  <mulliken_charges>
30
1   -0.456019
2   -0.45435
3   -0.532571
4   -0.044773
5   -0.041513
6   -0.299958
7   0.395227
8   0.513359
9   -0.463647
10   -0.327471
11   -0.559966
12   -0.505454
13   -0.540116
14   -0.58128
15   1.239458
16   0.150491
17   0.16958
18   0.16262
19   0.150476
20   0.166959
21   0.161476
22   0.182301
23   0.160641
24   0.175939
25   0.17461
26   0.158133
27   0.178271
28   0.152113
29   0.175752
30   0.339711

>  <lowdin_charges>
30
1   -0.446861
2   -0.446953
3   -0.443395
4   -0.113951
5   -0.114591
6   -0.26238
7   0.026622
8   0.092923
9   -0.133094
10   -0.167361
11   -0.579108
12   -0.385771
13   -0.404733
14   -0.325402
15   1.135545
16   0.160127
17   0.162438
18   0.158362
19   0.156975
20   0.161782
21   0.159751
22   0.175077
23   0.161513
24   0.168664
25   0.157549
26   0.150002
27   0.164283
28   0.147054
29   0.189749
30   0.295185

$$$$

