PCCDB-ID:  23916
public computational chemistry database (PCCDB) project, http://pccdb.org

 30 29  0  0  0  0  0  0  0  0999 V2000
    8.6278    0.4309   -1.7576 C   0  0  0  0  0  0  0  0  0  0  0  0
    3.1410    0.0891    7.2267 C   0  0  0  0  0  0  0  0  0  0  0  0
    7.5431    1.2730   -1.0779 C   0  0  0  0  0  0  0  0  0  0  0  0
    2.3314    0.3898    5.9598 C   0  0  0  0  0  0  0  0  0  0  0  0
    6.8402    0.5394    0.0708 C   0  0  0  0  0  0  0  0  0  0  0  0
    3.1182    1.1116    4.8535 C   0  0  0  0  0  0  0  0  0  0  0  0
    5.7434    1.3820    0.7501 C   0  0  0  0  0  0  0  0  0  0  0  0
    4.2441    0.2702    4.2180 C   0  0  0  0  0  0  0  0  0  0  0  0
    5.0195    0.6437    1.8432 C   0  0  0  0  0  0  0  0  0  0  0  0
    4.9766    1.0058    3.1285 C   0  0  0  0  0  0  0  0  0  0  0  0
    9.1134    0.9828   -2.5705 H   0  0  0  0  0  0  0  0  0  0  0  0
    8.2073   -0.4884   -2.1838 H   0  0  0  0  0  0  0  0  0  0  0  0
    9.4065    0.1364   -1.0432 H   0  0  0  0  0  0  0  0  0  0  0  0
    2.5132   -0.3813    7.9922 H   0  0  0  0  0  0  0  0  0  0  0  0
    3.5557    1.0095    7.6569 H   0  0  0  0  0  0  0  0  0  0  0  0
    3.9781   -0.5896    7.0279 H   0  0  0  0  0  0  0  0  0  0  0  0
    6.7949    1.5783   -1.8233 H   0  0  0  0  0  0  0  0  0  0  0  0
    7.9877    2.2028   -0.6953 H   0  0  0  0  0  0  0  0  0  0  0  0
    1.4653    1.0085    6.2313 H   0  0  0  0  0  0  0  0  0  0  0  0
    1.9200   -0.5471    5.5575 H   0  0  0  0  0  0  0  0  0  0  0  0
    7.5799    0.2386    0.8258 H   0  0  0  0  0  0  0  0  0  0  0  0
    6.3969   -0.3926   -0.3101 H   0  0  0  0  0  0  0  0  0  0  0  0
    3.5456    2.0409    5.2590 H   0  0  0  0  0  0  0  0  0  0  0  0
    2.4252    1.4166    4.0583 H   0  0  0  0  0  0  0  0  0  0  0  0
    5.0202    1.6953   -0.0197 H   0  0  0  0  0  0  0  0  0  0  0  0
    6.1836    2.3040    1.1538 H   0  0  0  0  0  0  0  0  0  0  0  0
    3.8203   -0.6602    3.8153 H   0  0  0  0  0  0  0  0  0  0  0  0
    4.9594   -0.0252    4.9996 H   0  0  0  0  0  0  0  0  0  0  0  0
    4.5013   -0.2689    1.5377 H   0  0  0  0  0  0  0  0  0  0  0  0
    5.4957    1.9175    3.4349 H   0  0  0  0  0  0  0  0  0  0  0  0
  1  3  1  0  0  0  0
  1 13  1  0  0  0  0
  2 15  1  0  0  0  0
  2 14  1  0  0  0  0
  3 18  1  0  0  0  0
  3  5  1  0  0  0  0
  4 19  1  0  0  0  0
  4  2  1  0  0  0  0
  5  7  1  0  0  0  0
  5 21  1  0  0  0  0
  6 23  1  0  0  0  0
  6  4  1  0  0  0  0
  7 26  1  0  0  0  0
  7  9  1  0  0  0  0
  8  6  1  0  0  0  0
  8 28  1  0  0  0  0
  9 10  2  0  0  0  0
 10 30  1  0  0  0  0
 10  8  1  0  0  0  0
 11  1  1  0  0  0  0
 12  1  1  0  0  0  0
 16  2  1  0  0  0  0
 17  3  1  0  0  0  0
 20  4  1  0  0  0  0
 22  5  1  0  0  0  0
 24  6  1  0  0  0  0
 25  7  1  0  0  0  0
 27  8  1  0  0  0  0
 29  9  1  0  0  0  0
M  END
>  <HBA>
0

>  <HBD>
0

>  <TPSA>
0.0

>  <cid>
23916

>  <dipole>
0.06

>  <excitation_energy_1>
6.063

>  <excitation_energy_2>
6.235

>  <excitation_energy_3>
6.372

>  <excitation_energy_4>
6.512

>  <homo_energy>
-6.338

>  <homo_lumo_gap>
7.238

>  <logP>
3.923

>  <lumo_energy>
0.901

>  <melting_point>
-19.43

>  <molecular_refractivity>
49.71

>  <oscillator_strength_1>
0.0324

>  <oscillator_strength_2>
0.0004

>  <oscillator_strength_3>
0.0049

>  <oscillator_strength_4>
0.0035

>  <open_babel_can_smiles>
CCCC/C=C/CCCC

>  <mulliken_charges>
30
1   -0.441348
2   -0.443992
3   -0.246471
4   -0.248444
5   -0.245327
6   -0.248035
7   -0.301456
8   -0.302225
9   -0.093896
10   -0.09552
11   0.141475
12   0.141157
13   0.142018
14   0.142297
15   0.140674
16   0.146188
17   0.129836
18   0.13054
19   0.131656
20   0.129839
21   0.13451
22   0.127256
23   0.126595
24   0.1351
25   0.136113
26   0.133732
27   0.132731
28   0.140598
29   0.111965
30   0.112434

>  <lowdin_charges>
30
1   -0.446362
2   -0.449674
3   -0.273854
4   -0.274178
5   -0.274888
6   -0.275904
7   -0.271778
8   -0.273938
9   -0.170029
10   -0.169087
11   0.150124
12   0.146446
13   0.14749
14   0.15104
15   0.146231
16   0.147482
17   0.13954
18   0.139138
19   0.142917
20   0.139014
21   0.142374
22   0.137891
23   0.137696
24   0.144947
25   0.145876
26   0.143804
27   0.143215
28   0.147441
29   0.143386
30   0.143638

$$$$

