PCCDB-ID:  33101
public computational chemistry database (PCCDB) project, http://pccdb.org

 19 18  0  0  0  0  0  0  0  0999 V2000
    4.2189    0.7258    2.6761 C   0  0  0  0  0  0  0  0  0  0  0  0
    4.3969    0.2529    1.4408 C   0  0  0  0  0  0  0  0  0  0  0  0
    6.8995    1.3035   -2.0509 C   0  0  0  0  0  0  0  0  0  0  0  0
    7.3717    2.0278   -3.3153 C   0  0  0  0  0  0  0  0  0  0  0  0
    5.3785    1.2043   -1.9749 C   0  0  0  0  0  0  0  0  0  0  0  0
    4.8469    1.1471    0.3440 C   0  0  0  0  0  0  0  0  0  0  0  0
    8.7887    2.0762   -3.4170 O   0  0  0  0  0  0  0  0  0  0  0  0
    5.0868    2.3339    0.4521 O   0  0  0  0  0  0  0  0  0  0  0  0
    4.9540    0.4541   -0.8163 O   0  0  0  0  0  0  0  0  0  0  0  0
    3.8891    0.0876    3.4902 H   0  0  0  0  0  0  0  0  0  0  0  0
    4.4019    1.7740    2.8950 H   0  0  0  0  0  0  0  0  0  0  0  0
    4.2240   -0.7881    1.1849 H   0  0  0  0  0  0  0  0  0  0  0  0
    7.2594    1.8417   -1.1647 H   0  0  0  0  0  0  0  0  0  0  0  0
    7.3384    0.2992   -2.0304 H   0  0  0  0  0  0  0  0  0  0  0  0
    6.9339    3.0390   -3.3603 H   0  0  0  0  0  0  0  0  0  0  0  0
    7.0354    1.4906   -4.2093 H   0  0  0  0  0  0  0  0  0  0  0  0
    4.9733    0.6484   -2.8250 H   0  0  0  0  0  0  0  0  0  0  0  0
    4.9202    2.1967   -1.9399 H   0  0  0  0  0  0  0  0  0  0  0  0
    9.1177    2.5865   -2.6605 H   0  0  0  0  0  0  0  0  0  0  0  0
  1 11  1  0  0  0  0
  1 10  1  0  0  0  0
  2  1  2  0  0  0  0
  3 14  1  0  0  0  0
  3  5  1  0  0  0  0
  3 13  1  0  0  0  0
  4  3  1  0  0  0  0
  5 18  1  0  0  0  0
  5  9  1  0  0  0  0
  6  8  2  0  0  0  0
  6  2  1  0  0  0  0
  7  4  1  0  0  0  0
  7 19  1  0  0  0  0
  9  6  1  0  0  0  0
 12  2  1  0  0  0  0
 15  4  1  0  0  0  0
 16  4  1  0  0  0  0
 17  5  1  0  0  0  0
M  END
>  <HBA>
3

>  <HBD>
1

>  <TPSA>
46.53

>  <cid>
33101

>  <dipole>
1.57

>  <excitation_energy_1>
4.766

>  <excitation_energy_2>
5.48

>  <excitation_energy_3>
6.178

>  <excitation_energy_4>
6.358

>  <homo_energy>
-7.257

>  <homo_lumo_gap>
5.976

>  <logP>
0.098

>  <lumo_energy>
-1.282

>  <melting_point>
-16.1

>  <molecular_refractivity>
32.93

>  <oscillator_strength_1>
0.0001

>  <oscillator_strength_2>
0.0349

>  <oscillator_strength_3>
0.2077

>  <oscillator_strength_4>
0.2336

>  <open_babel_can_smiles>
OCCCOC(=O)C=C

>  <mulliken_charges>
19
1   -0.302216
2   -0.133192
3   -0.304812
4   -0.032714
5   -0.048764
6   0.608596
7   -0.611601
8   -0.494868
9   -0.474104
10   0.158583
11   0.180827
12   0.155275
13   0.154829
14   0.159167
15   0.126748
16   0.146812
17   0.153495
18   0.168501
19   0.389438

>  <lowdin_charges>
19
1   -0.264252
2   -0.183679
3   -0.306083
4   -0.13281
5   -0.132918
6   0.193463
7   -0.465194
8   -0.274954
9   -0.189234
10   0.170521
11   0.178396
12   0.169743
13   0.153566
14   0.154824
15   0.1274
16   0.146852
17   0.153993
18   0.15721
19   0.343154

$$$$

