PCCDB-ID:  3134
public computational chemistry database (PCCDB) project, http://pccdb.org

 21 22  0  0  0  0  0  0  0  0999 V2000
    1.0110    0.1179   -0.1096 C   0  0  0  0  0  0  0  0  0  0  0  0
    3.0271    1.4726    0.2413 C   0  0  0  0  0  0  0  0  0  0  0  0
    6.6361   -0.8423    0.9932 C   0  0  0  0  0  0  0  0  0  0  0  0
    3.1256   -3.3390    0.3773 C   0  0  0  0  0  0  0  0  0  0  0  0
    4.5473   -1.0849    0.5971 C   0  0  0  0  0  0  0  0  0  0  0  0
    5.0708   -2.3820    0.7273 C   0  0  0  0  0  0  0  0  0  0  0  0
    3.1484   -1.0088    0.3276 C   0  0  0  0  0  0  0  0  0  0  0  0
    5.5541   -0.1405    0.7695 N   0  0  0  0  0  0  0  0  0  0  0  0
    6.4120   -2.1999    0.9811 N   0  0  0  0  0  0  0  0  0  0  0  0
    4.4200   -3.5471    0.6297 N   0  0  0  0  0  0  0  0  0  0  0  0
    2.4777   -2.1795    0.2264 N   0  0  0  0  0  0  0  0  0  0  0  0
    2.4402    0.1430    0.1662 N   0  0  0  0  0  0  0  0  0  0  0  0
    0.8046    0.5999   -1.0750 H   0  0  0  0  0  0  0  0  0  0  0  0
    0.4689    0.6698    0.6701 H   0  0  0  0  0  0  0  0  0  0  0  0
    0.6658   -0.9132   -0.1356 H   0  0  0  0  0  0  0  0  0  0  0  0
    2.8730    2.0037   -0.7085 H   0  0  0  0  0  0  0  0  0  0  0  0
    4.0934    1.4143    0.4494 H   0  0  0  0  0  0  0  0  0  0  0  0
    2.5357    2.0534    1.0344 H   0  0  0  0  0  0  0  0  0  0  0  0
    7.6201   -0.4289    1.1716 H   0  0  0  0  0  0  0  0  0  0  0  0
    2.5095   -4.2313    0.2803 H   0  0  0  0  0  0  0  0  0  0  0  0
    7.0837   -2.9393    1.1295 H   0  0  0  0  0  0  0  0  0  0  0  0
  1 12  1  0  0  0  0
  1 14  1  0  0  0  0
  2 17  1  0  0  0  0
  2 18  1  0  0  0  0
  3 19  1  0  0  0  0
  4 10  2  0  0  0  0
  5  6  2  0  0  0  0
  5  8  1  0  0  0  0
  6  9  1  0  0  0  0
  7  5  1  0  0  0  0
  8  3  2  0  0  0  0
  9  3  1  0  0  0  0
  9 21  1  0  0  0  0
 10  6  1  0  0  0  0
 11  7  2  0  0  0  0
 11  4  1  0  0  0  0
 12  2  1  0  0  0  0
 12  7  1  0  0  0  0
 13  1  1  0  0  0  0
 15  1  1  0  0  0  0
 16  2  1  0  0  0  0
 20  4  1  0  0  0  0
M  END
>  <HBA>
4

>  <HBD>
1

>  <TPSA>
57.7

>  <cid>
3134

>  <dipole>
2.18

>  <excitation_energy_1>
4.693

>  <excitation_energy_2>
4.978

>  <excitation_energy_3>
5.016

>  <excitation_energy_4>
5.048

>  <homo_energy>
-5.519

>  <homo_lumo_gap>
5.146

>  <logP>
0.419

>  <lumo_energy>
-0.373

>  <melting_point>
151.79

>  <molecular_refractivity>
45.89

>  <oscillator_strength_1>
0.2585

>  <oscillator_strength_2>
0.0004

>  <oscillator_strength_3>
0.1111

>  <oscillator_strength_4>
0.0

>  <open_babel_can_smiles>
CN(c1ncnc2c1nc[nH]2)C

>  <mulliken_charges>
21
1   -0.320028
2   -0.342116
3   0.235156
4   0.165299
5   0.194148
6   0.50546
7   0.538075
8   -0.52306
9   -0.652211
10   -0.501909
11   -0.529743
12   -0.455372
13   0.149978
14   0.149836
15   0.211041
16   0.150201
17   0.225742
18   0.150277
19   0.165713
20   0.141056
21   0.342457

>  <lowdin_charges>
21
1   -0.356447
2   -0.36239
3   -0.060707
4   -0.036598
5   -0.062774
6   0.064996
7   0.117539
8   -0.193268
9   -0.193933
10   -0.213216
11   -0.228024
12   -0.077564
13   0.147655
14   0.149351
15   0.185938
16   0.147727
17   0.190568
18   0.148945
19   0.171266
20   0.156621
21   0.304313

$$$$

