PCCDB-ID:  8713
public computational chemistry database (PCCDB) project, http://pccdb.org

 15 15  0  0  0  0  0  0  0  0999 V2000
   -1.3660   -0.0688   -0.0116 C   0  0  0  0  0  0  0  0  0  0  0  0
   -0.6189   -1.2503    0.0218 C   0  0  0  0  0  0  0  0  0  0  0  0
   -0.7342    1.1679   -0.0164 C   0  0  0  0  0  0  0  0  0  0  0  0
    0.7707   -1.1673    0.0472 C   0  0  0  0  0  0  0  0  0  0  0  0
    0.6719    1.2688    0.0015 C   0  0  0  0  0  0  0  0  0  0  0  0
    1.4232    0.0702    0.0187 C   0  0  0  0  0  0  0  0  0  0  0  0
    1.2779    2.5151    0.0546 N   0  0  0  0  0  0  0  0  0  0  0  0
    3.2256    0.1392    0.0542 S   0  0  0  0  0  0  0  0  0  0  0  0
   -2.4521   -0.1105   -0.0273 H   0  0  0  0  0  0  0  0  0  0  0  0
   -1.1106   -2.2182    0.0353 H   0  0  0  0  0  0  0  0  0  0  0  0
   -1.3238    2.0819   -0.0285 H   0  0  0  0  0  0  0  0  0  0  0  0
    1.3722   -2.0710    0.0843 H   0  0  0  0  0  0  0  0  0  0  0  0
    0.7456    3.2807   -0.3364 H   0  0  0  0  0  0  0  0  0  0  0  0
    2.2596    2.5300   -0.1945 H   0  0  0  0  0  0  0  0  0  0  0  0
    3.4508   -0.2412   -1.2251 H   0  0  0  0  0  0  0  0  0  0  0  0
  1  2  1  0  0  0  0
  2 10  1  0  0  0  0
  2  4  2  0  0  0  0
  3  1  2  0  0  0  0
  3  5  1  0  0  0  0
  4 12  1  0  0  0  0
  5  6  2  0  0  0  0
  5  7  1  0  0  0  0
  6  4  1  0  0  0  0
  6  8  1  0  0  0  0
  9  1  1  0  0  0  0
 11  3  1  0  0  0  0
 13  7  1  0  0  0  0
 14  7  1  0  0  0  0
 15  8  1  0  0  0  0
M  END
>  <HBA>
2

>  <HBD>
2

>  <TPSA>
64.82

>  <cid>
8713

>  <dipole>
2.28

>  <excitation_energy_1>
4.385

>  <excitation_energy_2>
4.914

>  <excitation_energy_3>
5.12

>  <excitation_energy_4>
5.257

>  <homo_energy>
-5.538

>  <homo_lumo_gap>
5.246

>  <logP>
2.139

>  <lumo_energy>
-0.291

>  <melting_point>
78.24

>  <molecular_refractivity>
38.1

>  <oscillator_strength_1>
0.0611

>  <oscillator_strength_2>
0.0122

>  <oscillator_strength_3>
0.0031

>  <oscillator_strength_4>
0.002

>  <open_babel_can_smiles>
Nc1ccccc1S

>  <mulliken_charges>
15
1   -0.135211
2   -0.129561
3   -0.16403
4   -0.139223
5   0.318177
6   -0.157674
7   -0.791415
8   -0.095221
9   0.130086
10   0.126248
11   0.119923
12   0.141873
13   0.321559
14   0.34466
15   0.109809

>  <lowdin_charges>
15
1   -0.137344
2   -0.188464
3   -0.199208
4   -0.143947
5   0.063091
6   -0.177484
7   -0.482724
8   -0.048933
9   0.15631
10   0.157963
11   0.154897
12   0.165674
13   0.27908
14   0.283261
15   0.117829

$$$$

