PCCDB-ID:  13616
public computational chemistry database (PCCDB) project, http://pccdb.org

 26 26  0  0  0  0  0  0  0  0999 V2000
    2.6582    0.9434    0.2219 C   0  0  0  0  0  0  0  0  0  0  0  0
    1.0886   -0.2413   -2.6519 C   0  0  0  0  0  0  0  0  0  0  0  0
    4.8893   -2.9806   -0.3277 C   0  0  0  0  0  0  0  0  0  0  0  0
    3.3697   -3.1960   -0.2698 C   0  0  0  0  0  0  0  0  0  0  0  0
    5.2396   -1.4867   -0.2678 C   0  0  0  0  0  0  0  0  0  0  0  0
    2.6367   -2.3933   -1.3573 C   0  0  0  0  0  0  0  0  0  0  0  0
    4.5170   -0.7041   -1.3726 C   0  0  0  0  0  0  0  0  0  0  0  0
    2.9928   -0.8981   -1.3142 C   0  0  0  0  0  0  0  0  0  0  0  0
    2.4200   -0.4207   -0.0983 O   0  0  0  0  0  0  0  0  0  0  0  0
    2.4908   -0.1730   -2.4287 O   0  0  0  0  0  0  0  0  0  0  0  0
    1.9358    1.2068    0.9994 H   0  0  0  0  0  0  0  0  0  0  0  0
    2.5074    1.5938   -0.6474 H   0  0  0  0  0  0  0  0  0  0  0  0
    3.6707    1.1039    0.6174 H   0  0  0  0  0  0  0  0  0  0  0  0
    0.8546    0.5491   -3.3703 H   0  0  0  0  0  0  0  0  0  0  0  0
    0.5222   -0.0698   -1.7289 H   0  0  0  0  0  0  0  0  0  0  0  0
    0.7863   -1.2057   -3.0823 H   0  0  0  0  0  0  0  0  0  0  0  0
    5.2831   -3.4070   -1.2626 H   0  0  0  0  0  0  0  0  0  0  0  0
    5.3795   -3.5197    0.4929 H   0  0  0  0  0  0  0  0  0  0  0  0
    2.9937   -2.8840    0.7122 H   0  0  0  0  0  0  0  0  0  0  0  0
    3.1319   -4.2618   -0.3791 H   0  0  0  0  0  0  0  0  0  0  0  0
    6.3232   -1.3423   -0.3603 H   0  0  0  0  0  0  0  0  0  0  0  0
    4.9492   -1.0870    0.7130 H   0  0  0  0  0  0  0  0  0  0  0  0
    1.5541   -2.5124   -1.2426 H   0  0  0  0  0  0  0  0  0  0  0  0
    2.9088   -2.7686   -2.3527 H   0  0  0  0  0  0  0  0  0  0  0  0
    4.8507   -1.0489   -2.3589 H   0  0  0  0  0  0  0  0  0  0  0  0
    4.7515    0.3650   -1.3267 H   0  0  0  0  0  0  0  0  0  0  0  0
  1 13  1  0  0  0  0
  1 11  1  0  0  0  0
  2 10  1  0  0  0  0
  2 15  1  0  0  0  0
  3  4  1  0  0  0  0
  3  5  1  0  0  0  0
  3 18  1  0  0  0  0
  4 19  1  0  0  0  0
  5 22  1  0  0  0  0
  6  8  1  0  0  0  0
  6 23  1  0  0  0  0
  6  4  1  0  0  0  0
  7 26  1  0  0  0  0
  7  8  1  0  0  0  0
  7  5  1  0  0  0  0
  8  9  1  0  0  0  0
  9  1  1  0  0  0  0
 10  8  1  0  0  0  0
 12  1  1  0  0  0  0
 14  2  1  0  0  0  0
 16  2  1  0  0  0  0
 17  3  1  0  0  0  0
 20  4  1  0  0  0  0
 21  5  1  0  0  0  0
 24  6  1  0  0  0  0
 25  7  1  0  0  0  0
M  END
>  <HBA>
2

>  <HBD>
0

>  <TPSA>
18.46

>  <cid>
13616

>  <dipole>
0.24

>  <excitation_energy_1>
6.567

>  <excitation_energy_2>
6.787

>  <excitation_energy_3>
6.899

>  <excitation_energy_4>
6.965

>  <homo_energy>
-6.906

>  <homo_lumo_gap>
9.206

>  <logP>
1.94

>  <lumo_energy>
2.299

>  <melting_point>
-12.19

>  <molecular_refractivity>
40.66

>  <oscillator_strength_1>
0.0044

>  <oscillator_strength_2>
0.0092

>  <oscillator_strength_3>
0.0015

>  <oscillator_strength_4>
0.0012

>  <open_babel_can_smiles>
COC1(OC)CCCCC1

>  <mulliken_charges>
26
1   -0.211123
2   -0.210305
3   -0.25979
4   -0.261916
5   -0.262102
6   -0.296376
7   -0.299897
8   0.547555
9   -0.49498
10   -0.505762
11   0.152597
12   0.153226
13   0.136693
14   0.15262
15   0.150361
16   0.137251
17   0.126357
18   0.130391
19   0.150162
20   0.12854
21   0.130729
22   0.140892
23   0.142308
24   0.136981
25   0.143831
26   0.141759

>  <lowdin_charges>
26
1   -0.287576
2   -0.287103
3   -0.279149
4   -0.275349
5   -0.276586
6   -0.289572
7   -0.291431
8   0.203934
9   -0.2743
10   -0.269002
11   0.15403
12   0.145741
13   0.133961
14   0.153883
15   0.14394
16   0.135717
17   0.136515
18   0.145008
19   0.148857
20   0.141645
21   0.142622
22   0.143695
23   0.150896
24   0.146686
25   0.152612
26   0.150324

$$$$

