PCCDB-ID:  33135
public computational chemistry database (PCCDB) project, http://pccdb.org

 20 20  0  0  0  0  0  0  0  0999 V2000
    1.1856    0.3482    1.2420 C   0  0  0  0  0  0  0  0  0  0  0  0
    0.4729   -2.8232   -2.0367 C   0  0  0  0  0  0  0  0  0  0  0  0
    2.4028    0.1641    0.3169 C   0  0  0  0  0  0  0  0  0  0  0  0
    4.3435   -2.9024    0.9239 C   0  0  0  0  0  0  0  0  0  0  0  0
    3.6795   -3.8391    0.1492 C   0  0  0  0  0  0  0  0  0  0  0  0
    2.8799   -1.2653    0.2575 C   0  0  0  0  0  0  0  0  0  0  0  0
    2.2128   -2.2476   -0.5276 C   0  0  0  0  0  0  0  0  0  0  0  0
    3.9427   -1.6178    0.9744 N   0  0  0  0  0  0  0  0  0  0  0  0
    2.6025   -3.5106   -0.5870 N   0  0  0  0  0  0  0  0  0  0  0  0
    1.1378   -1.8385   -1.2378 O   0  0  0  0  0  0  0  0  0  0  0  0
    0.8847    1.4012    1.2746 H   0  0  0  0  0  0  0  0  0  0  0  0
    1.4218    0.0306    2.2634 H   0  0  0  0  0  0  0  0  0  0  0  0
    0.3314   -0.2377    0.8878 H   0  0  0  0  0  0  0  0  0  0  0  0
    0.0849   -3.6351   -1.4143 H   0  0  0  0  0  0  0  0  0  0  0  0
    1.1526   -3.2466   -2.7820 H   0  0  0  0  0  0  0  0  0  0  0  0
   -0.3455   -2.2915   -2.5244 H   0  0  0  0  0  0  0  0  0  0  0  0
    3.2389    0.7721    0.6761 H   0  0  0  0  0  0  0  0  0  0  0  0
    2.1434    0.5041   -0.6925 H   0  0  0  0  0  0  0  0  0  0  0  0
    5.2144   -3.1714    1.5164 H   0  0  0  0  0  0  0  0  0  0  0  0
    4.0051   -4.8762    0.1050 H   0  0  0  0  0  0  0  0  0  0  0  0
  1 11  1  0  0  0  0
  1 12  1  0  0  0  0
  2 14  1  0  0  0  0
  2 10  1  0  0  0  0
  3 17  1  0  0  0  0
  3  1  1  0  0  0  0
  4  8  1  0  0  0  0
  4 19  1  0  0  0  0
  5  4  2  0  0  0  0
  6  3  1  0  0  0  0
  6  8  2  0  0  0  0
  7  6  1  0  0  0  0
  9  7  2  0  0  0  0
  9  5  1  0  0  0  0
 10  7  1  0  0  0  0
 13  1  1  0  0  0  0
 15  2  1  0  0  0  0
 16  2  1  0  0  0  0
 18  3  1  0  0  0  0
 20  5  1  0  0  0  0
M  END
>  <HBA>
3

>  <HBD>
0

>  <TPSA>
35.01

>  <cid>
33135

>  <dipole>
1.45

>  <excitation_energy_1>
4.354

>  <excitation_energy_2>
4.776

>  <excitation_energy_3>
5.188

>  <excitation_energy_4>
5.811

>  <homo_energy>
-6.376

>  <homo_lumo_gap>
5.382

>  <logP>
1.048

>  <lumo_energy>
-0.993

>  <melting_point>
43.61

>  <molecular_refractivity>
38.3

>  <oscillator_strength_1>
0.0046

>  <oscillator_strength_2>
0.1465

>  <oscillator_strength_3>
0.0

>  <oscillator_strength_4>
0.0015

>  <open_babel_can_smiles>
COc1nccnc1CC

>  <mulliken_charges>
20
1   -0.449257
2   -0.206921
3   -0.308538
4   0.010102
5   0.029981
6   0.256239
7   0.524621
8   -0.440913
9   -0.480082
10   -0.493549
11   0.147252
12   0.154748
13   0.157946
14   0.166357
15   0.166762
16   0.162945
17   0.159153
18   0.154452
19   0.143224
20   0.145479

>  <lowdin_charges>
20
1   -0.439409
2   -0.279008
3   -0.274599
4   -0.132774
5   -0.104237
6   0.020887
7   0.112308
8   -0.125788
9   -0.161794
10   -0.189506
11   0.150888
12   0.151749
13   0.154596
14   0.157752
15   0.158137
16   0.160157
17   0.162085
18   0.156785
19   0.161602
20   0.16017

$$$$

