PCCDB-ID:  22716
public computational chemistry database (PCCDB) project, http://pccdb.org

 15 14  0  0  0  0  0  0  0  0999 V2000
    1.0446    0.3223   -0.0907 C   0  0  0  0  0  0  0  0  0  0  0  0
   -1.1736    0.1114    0.5037 C   0  0  0  0  0  0  0  0  0  0  0  0
    2.7518   -1.4635   -0.3321 C   0  0  0  0  0  0  0  0  0  0  0  0
   -2.2183   -0.5332    0.8422 N   0  0  0  0  0  0  0  0  0  0  0  0
    2.1253   -2.5265   -0.0555 N   0  0  0  0  0  0  0  0  0  0  0  0
    0.0764   -0.4565    0.2465 N   0  0  0  0  0  0  0  0  0  0  0  0
    2.3031   -0.1310   -0.3623 N   0  0  0  0  0  0  0  0  0  0  0  0
   -1.2399    1.4680    0.3706 O   0  0  0  0  0  0  0  0  0  0  0  0
    4.0688   -1.4628   -0.6688 O   0  0  0  0  0  0  0  0  0  0  0  0
    0.9422    1.4047   -0.1872 H   0  0  0  0  0  0  0  0  0  0  0  0
   -2.0035   -1.5291    0.8964 H   0  0  0  0  0  0  0  0  0  0  0  0
    1.1514   -2.3227    0.1708 H   0  0  0  0  0  0  0  0  0  0  0  0
    3.0019    0.5534   -0.6187 H   0  0  0  0  0  0  0  0  0  0  0  0
   -2.1618    1.6990    0.5808 H   0  0  0  0  0  0  0  0  0  0  0  0
    4.3382   -2.3978   -0.6396 H   0  0  0  0  0  0  0  0  0  0  0  0
  1  6  2  0  0  0  0
  2  4  1  0  0  0  0
  3  5  2  0  0  0  0
  4 11  1  0  0  0  0
  5 12  1  0  0  0  0
  6  2  2  0  0  0  0
  7  3  1  0  0  0  0
  7  1  1  0  0  0  0
  8  2  1  0  0  0  0
  8 14  1  0  0  0  0
  9 15  1  0  0  0  0
  9  3  1  0  0  0  0
 10  1  1  0  0  0  0
 13  7  1  0  0  0  0
M  RAD  1   4   2
M  END
>  <HBA>
6

>  <HBD>
3

>  <TPSA>
110.57

>  <cid>
22716

>  <dipole>
3.56

>  <excitation_energy_1>
4.945

>  <excitation_energy_2>
5.223

>  <excitation_energy_3>
5.406

>  <excitation_energy_4>
5.741

>  <homo_energy>
-6.762

>  <homo_lumo_gap>
5.606

>  <logP>
0.553

>  <lumo_energy>
-1.156

>  <melting_point>
192.42

>  <molecular_refractivity>
29.61

>  <oscillator_strength_1>
0.0012

>  <oscillator_strength_2>
0.3517

>  <oscillator_strength_3>
0.0019

>  <oscillator_strength_4>
0.0774

>  <open_babel_can_smiles>
OC(=N)NC=[N]=C(O)[NH]

>  <mulliken_charges>
15
1   0.308115
2   0.636111
3   0.650992
4   -0.640737
5   -0.630149
6   -0.510899
7   -0.627164
8   -0.610356
9   -0.607965
10   0.188793
11   0.298951
12   0.33433
13   0.359063
14   0.422704
15   0.42821

>  <lowdin_charges>
15
1   0.011355
2   0.152399
3   0.166328
4   -0.427143
5   -0.43508
6   -0.227534
7   -0.227478
8   -0.39008
9   -0.379357
10   0.164051
11   0.266187
12   0.278126
13   0.307726
14   0.368897
15   0.371604

$$$$

