PCCDB-ID:  70371
public computational chemistry database (PCCDB) project, http://pccdb.org

 28 29  0  0  0  0  0  0  0  0999 V2000
    1.1885    0.0173    0.0095 C   0  0  0  0  0  0  0  0  0  0  0  0
    3.1283    2.3294   -0.0937 C   0  0  0  0  0  0  0  0  0  0  0  0
    7.9259    2.3820   -2.3692 C   0  0  0  0  0  0  0  0  0  0  0  0
    8.1774    1.7898   -1.1296 C   0  0  0  0  0  0  0  0  0  0  0  0
    6.6311    2.3669   -2.8892 C   0  0  0  0  0  0  0  0  0  0  0  0
    7.1455    1.2027   -0.3997 C   0  0  0  0  0  0  0  0  0  0  0  0
    5.5927    1.7621   -2.1810 C   0  0  0  0  0  0  0  0  0  0  0  0
    3.0255   -2.5454    0.6670 C   0  0  0  0  0  0  0  0  0  0  0  0
    2.6771   -0.1097   -0.0291 C   0  0  0  0  0  0  0  0  0  0  0  0
    5.8490    1.1903   -0.9282 C   0  0  0  0  0  0  0  0  0  0  0  0
    3.4521   -1.2005    0.3052 C   0  0  0  0  0  0  0  0  0  0  0  0
    4.8548   -0.8079    0.2142 C   0  0  0  0  0  0  0  0  0  0  0  0
    3.4752    0.9399   -0.3986 N   0  0  0  0  0  0  0  0  0  0  0  0
    4.8170    0.5690   -0.1709 N   0  0  0  0  0  0  0  0  0  0  0  0
    1.8647   -2.9312    0.7344 O   0  0  0  0  0  0  0  0  0  0  0  0
    5.8819   -1.4437    0.3865 O   0  0  0  0  0  0  0  0  0  0  0  0
    0.7619   -0.9774    0.1429 H   0  0  0  0  0  0  0  0  0  0  0  0
    0.8022    0.4652   -0.9128 H   0  0  0  0  0  0  0  0  0  0  0  0
    0.8663    0.6462    0.8496 H   0  0  0  0  0  0  0  0  0  0  0  0
    2.0990    2.5049   -0.4090 H   0  0  0  0  0  0  0  0  0  0  0  0
    3.7851    2.9957   -0.6541 H   0  0  0  0  0  0  0  0  0  0  0  0
    3.2298    2.5378    0.9788 H   0  0  0  0  0  0  0  0  0  0  0  0
    8.7334    2.8476   -2.9269 H   0  0  0  0  0  0  0  0  0  0  0  0
    9.1833    1.7913   -0.7193 H   0  0  0  0  0  0  0  0  0  0  0  0
    6.4258    2.8127   -3.8587 H   0  0  0  0  0  0  0  0  0  0  0  0
    7.3328    0.7428    0.5627 H   0  0  0  0  0  0  0  0  0  0  0  0
    4.5935    1.7135   -2.6022 H   0  0  0  0  0  0  0  0  0  0  0  0
    3.8654   -3.2322    0.8902 H   0  0  0  0  0  0  0  0  0  0  0  0
  1 17  1  0  0  0  0
  1 19  1  0  0  0  0
  2 22  1  0  0  0  0
  3  4  1  0  0  0  0
  4 24  1  0  0  0  0
  4  6  2  0  0  0  0
  5  3  2  0  0  0  0
  5  7  1  0  0  0  0
  6 26  1  0  0  0  0
  7 10  2  0  0  0  0
  8 15  2  0  0  0  0
  8 28  1  0  0  0  0
  9  1  1  0  0  0  0
  9 11  2  0  0  0  0
 10  6  1  0  0  0  0
 10 14  1  0  0  0  0
 11  8  1  0  0  0  0
 12 11  1  0  0  0  0
 12 16  2  0  0  0  0
 13 14  1  0  0  0  0
 13  2  1  0  0  0  0
 13  9  1  0  0  0  0
 14 12  1  0  0  0  0
 18  1  1  0  0  0  0
 20  2  1  0  0  0  0
 21  2  1  0  0  0  0
 23  3  1  0  0  0  0
 25  5  1  0  0  0  0
 27  7  1  0  0  0  0
M  END
>  <HBA>
4

>  <HBD>
0

>  <TPSA>
44.0

>  <cid>
70371

>  <dipole>
6.46

>  <excitation_energy_1>
3.618

>  <excitation_energy_2>
3.946

>  <excitation_energy_3>
4.517

>  <excitation_energy_4>
4.777

>  <homo_energy>
-6.016

>  <homo_lumo_gap>
4.528

>  <logP>
1.297

>  <lumo_energy>
-1.488

>  <melting_point>
115.95

>  <molecular_refractivity>
61.64

>  <oscillator_strength_1>
0.0082

>  <oscillator_strength_2>
0.1297

>  <oscillator_strength_3>
0.0213

>  <oscillator_strength_4>
0.0138

>  <open_babel_can_smiles>
O=Cc1c(C)n(n(c1=O)c1ccccc1)C

>  <mulliken_charges>
28
1   -0.54918
2   -0.324156
3   -0.121342
4   -0.145012
5   -0.143288
6   -0.133077
7   -0.157631
8   0.187067
9   0.365859
10   0.272893
11   -0.098994
12   0.562256
13   -0.314525
14   -0.428697
15   -0.438481
16   -0.521561
17   0.23072
18   0.173693
19   0.178094
20   0.18172
21   0.191735
22   0.180748
23   0.133946
24   0.139837
25   0.135519
26   0.164711
27   0.142955
28   0.134192

>  <lowdin_charges>
28
1   -0.455141
2   -0.350784
3   -0.161759
4   -0.145957
5   -0.149935
6   -0.152876
7   -0.183411
8   0.04986
9   0.096415
10   0.042226
11   -0.156806
12   0.15302
13   -0.008198
14   -0.0423
15   -0.259661
16   -0.295702
17   0.201044
18   0.170602
19   0.174015
20   0.17146
21   0.176914
22   0.159751
23   0.161957
24   0.162519
25   0.160318
26   0.179203
27   0.163833
28   0.139396

$$$$

