PCCDB-ID:  70200
public computational chemistry database (PCCDB) project, http://pccdb.org

 22 21  0  0  1  0  0  0  0  0999 V2000
    3.5592    0.1912    1.3627 C   0  0  0  0  0  0  0  0  0  0  0  0
    2.3236   -0.6225   -2.2737 C   0  0  0  0  0  0  0  0  0  0  0  0
    5.4083   -1.3422   -2.0539 C   0  0  0  0  0  0  0  0  0  0  0  0
    4.8714    0.9995   -2.0618 C   0  0  0  0  0  0  0  0  0  0  0  0
    2.7312    0.2528    0.0767 C   0  0  0  0  0  0  0  0  0  0  0  0
    3.2833   -0.6219   -1.0660 C   0  0  2  0  0  0  0  0  0  0  0  0
    4.6824   -0.2752   -1.3838 N   0  0  0  0  0  0  0  0  0  0  0  0
    3.1209    0.8218    2.1449 H   0  0  0  0  0  0  0  0  0  0  0  0
    4.5858    0.5225    1.1827 H   0  0  0  0  0  0  0  0  0  0  0  0
    3.6077   -0.8346    1.7495 H   0  0  0  0  0  0  0  0  0  0  0  0
    1.3483   -1.0317   -1.9859 H   0  0  0  0  0  0  0  0  0  0  0  0
    2.7093   -1.2346   -3.0968 H   0  0  0  0  0  0  0  0  0  0  0  0
    2.1555    0.3906   -2.6573 H   0  0  0  0  0  0  0  0  0  0  0  0
    6.4719   -1.0803   -2.1068 H   0  0  0  0  0  0  0  0  0  0  0  0
    5.0678   -1.5467   -3.0882 H   0  0  0  0  0  0  0  0  0  0  0  0
    5.3189   -2.2706   -1.4791 H   0  0  0  0  0  0  0  0  0  0  0  0
    5.9405    1.2419   -2.0761 H   0  0  0  0  0  0  0  0  0  0  0  0
    4.3589    1.8008   -1.5212 H   0  0  0  0  0  0  0  0  0  0  0  0
    4.5146    1.0112   -3.1094 H   0  0  0  0  0  0  0  0  0  0  0  0
    2.6428    1.2946   -0.2616 H   0  0  0  0  0  0  0  0  0  0  0  0
    1.7039   -0.0779    0.2816 H   0  0  0  0  0  0  0  0  0  0  0  0
    3.3290   -1.6505   -0.6804 H   0  0  0  0  0  0  0  0  0  0  0  0
  1 10  1  0  0  0  0
  1  8  1  0  0  0  0
  2 11  1  0  0  0  0
  2  6  1  0  0  0  0
  3 16  1  0  0  0  0
  3  7  1  0  0  0  0
  4 18  1  0  0  0  0
  4  7  1  0  0  0  0
  5 21  1  0  0  0  0
  5  1  1  0  0  0  0
  6 22  1  1  0  0  0
  6  5  1  0  0  0  0
  7  6  1  0  0  0  0
  9  1  1  0  0  0  0
 12  2  1  0  0  0  0
 13  2  1  0  0  0  0
 14  3  1  0  0  0  0
 15  3  1  0  0  0  0
 17  4  1  0  0  0  0
 19  4  1  0  0  0  0
 20  5  1  0  0  0  0
M  END
>  <HBA>
1

>  <HBD>
0

>  <TPSA>
3.24

>  <cid>
70200

>  <dipole>
0.6

>  <excitation_energy_1>
4.964

>  <excitation_energy_2>
5.442

>  <excitation_energy_3>
5.501

>  <excitation_energy_4>
5.519

>  <homo_energy>
-5.434

>  <homo_lumo_gap>
7.581

>  <logP>
1.347

>  <lumo_energy>
2.147

>  <melting_point>
-23.93

>  <molecular_refractivity>
33.85

>  <oscillator_strength_1>
0.0066

>  <oscillator_strength_2>
0.0127

>  <oscillator_strength_3>
0.0061

>  <oscillator_strength_4>
0.0115

>  <open_babel_can_smiles>
CC[C@H](N(C)C)C

>  <mulliken_charges>
22
1   -0.437313
2   -0.459607
3   -0.293996
4   -0.304198
5   -0.255054
6   0.054411
7   -0.3652
8   0.13408
9   0.161366
10   0.134856
11   0.141415
12   0.145061
13   0.143682
14   0.144931
15   0.116893
16   0.145814
17   0.14618
18   0.149985
19   0.120494
20   0.127859
21   0.128372
22   0.119969

>  <lowdin_charges>
22
1   -0.444997
2   -0.462369
3   -0.352832
4   -0.357326
5   -0.276744
6   -0.059043
7   -0.185013
8   0.146711
9   0.155471
10   0.143388
11   0.151267
12   0.150609
13   0.147672
14   0.146033
15   0.11691
16   0.148155
17   0.147252
18   0.151082
19   0.119869
20   0.136521
21   0.141259
22   0.136124

$$$$

