PCCDB-ID:  37047
public computational chemistry database (PCCDB) project, http://pccdb.org

 20 19  0  0  0  0  0  0  0  0999 V2000
    0.5997   -2.7144   -0.5948 C   0  0  0  0  0  0  0  0  0  0  0  0
    0.4406   -1.1919   -0.6195 C   0  0  0  0  0  0  0  0  0  0  0  0
    1.7830   -0.4654   -0.5191 C   0  0  0  0  0  0  0  0  0  0  0  0
    2.6441    1.8296   -0.4354 C   0  0  0  0  0  0  0  0  0  0  0  0
    3.9063    1.6114   -0.4472 N   0  0  0  0  0  0  0  0  0  0  0  0
    1.5910    0.9773   -0.5774 N   0  0  0  0  0  0  0  0  0  0  0  0
    2.3207    3.2266   -0.3638 N   0  0  0  0  0  0  0  0  0  0  0  0
    1.2587    3.7789    0.3304 N   0  0  0  0  0  0  0  0  0  0  0  0
    0.2413    3.0996    0.4919 O   0  0  0  0  0  0  0  0  0  0  0  0
    1.4086    4.9429    0.6795 O   0  0  0  0  0  0  0  0  0  0  0  0
   -0.3743   -3.2095   -0.6636 H   0  0  0  0  0  0  0  0  0  0  0  0
    1.0795   -3.0505    0.3321 H   0  0  0  0  0  0  0  0  0  0  0  0
    1.2116   -3.0647   -1.4344 H   0  0  0  0  0  0  0  0  0  0  0  0
   -0.2021   -0.8740    0.2129 H   0  0  0  0  0  0  0  0  0  0  0  0
   -0.0634   -0.8813   -1.5436 H   0  0  0  0  0  0  0  0  0  0  0  0
    2.4302   -0.7734   -1.3521 H   0  0  0  0  0  0  0  0  0  0  0  0
    2.2981   -0.7522    0.4120 H   0  0  0  0  0  0  0  0  0  0  0  0
    4.1195    0.6257   -0.5936 H   0  0  0  0  0  0  0  0  0  0  0  0
    0.6857    1.3521   -0.3173 H   0  0  0  0  0  0  0  0  0  0  0  0
    3.1455    3.8082   -0.2548 H   0  0  0  0  0  0  0  0  0  0  0  0
  1 12  1  0  0  0  0
  2  1  1  0  0  0  0
  2  3  1  0  0  0  0
  2 14  1  0  0  0  0
  3 17  1  0  0  0  0
  4  7  1  0  0  0  0
  5  4  2  0  0  0  0
  6  3  1  0  0  0  0
  6  4  1  0  0  0  0
  6 19  1  0  0  0  0
  7 20  1  0  0  0  0
  7  8  1  0  0  0  0
  8  9  2  0  0  0  0
  8 10  2  0  0  0  0
 11  1  1  0  0  0  0
 13  1  1  0  0  0  0
 15  2  1  0  0  0  0
 16  3  1  0  0  0  0
 18  5  1  0  0  0  0
M  END
>  <HBA>
3

>  <HBD>
2

>  <TPSA>
96.23

>  <cid>
37047

>  <dipole>
3.97

>  <excitation_energy_1>
3.957

>  <excitation_energy_2>
4.531

>  <excitation_energy_3>
5.058

>  <excitation_energy_4>
5.348

>  <homo_energy>
-6.68

>  <homo_lumo_gap>
4.86

>  <logP>
1.107

>  <lumo_energy>
-1.82

>  <melting_point>
104.81

>  <molecular_refractivity>
38.64

>  <oscillator_strength_1>
0.0103

>  <oscillator_strength_2>
0.0011

>  <oscillator_strength_3>
0.0258

>  <oscillator_strength_4>
0.0651

>  <open_babel_can_smiles>
CCCNC(=N)NN(=O)=O

>  <mulliken_charges>
20
1   -0.448182
2   -0.290247
3   -0.108928
4   0.651227
5   -0.658247
6   -0.624424
7   -0.442482
8   0.625367
9   -0.426178
10   -0.389506
11   0.157192
12   0.15116
13   0.150718
14   0.150708
15   0.156422
16   0.153701
17   0.151038
18   0.297195
19   0.36899
20   0.374477

>  <lowdin_charges>
20
1   -0.443462
2   -0.278616
3   -0.194113
4   0.128855
5   -0.456492
6   -0.296253
7   -0.208676
8   0.342595
9   -0.274113
10   -0.244725
11   0.158307
12   0.151855
13   0.152231
14   0.14928
15   0.152018
16   0.147145
17   0.141236
18   0.261461
19   0.29673
20   0.314736

$$$$

