PCCDB-ID:  13562
public computational chemistry database (PCCDB) project, http://pccdb.org

 16 15  0  0  0  0  0  0  0  0999 V2000
    1.1158    0.0558   -0.0034 C   0  0  0  0  0  0  0  0  0  0  0  0
    0.7814   -0.8743   -1.1935 C   0  0  0  0  0  0  0  0  0  0  0  0
    2.6142    0.2014    0.2856 C   0  0  0  0  0  0  0  0  0  0  0  0
    1.5151   -0.5408   -2.4878 C   0  0  0  0  0  0  0  0  0  0  0  0
    1.0278    0.0158   -3.5234 N   0  0  0  0  0  0  0  0  0  0  0  0
    3.3190   -1.0496    0.2307 O   0  0  0  0  0  0  0  0  0  0  0  0
    2.8288   -0.8800   -2.5086 O   0  0  0  0  0  0  0  0  0  0  0  0
    0.6005   -0.3325    0.8865 H   0  0  0  0  0  0  0  0  0  0  0  0
    0.7066    1.0575   -0.1862 H   0  0  0  0  0  0  0  0  0  0  0  0
   -0.2972   -0.8389   -1.3758 H   0  0  0  0  0  0  0  0  0  0  0  0
    1.0184   -1.9100   -0.9174 H   0  0  0  0  0  0  0  0  0  0  0  0
    2.7727    0.6862    1.2583 H   0  0  0  0  0  0  0  0  0  0  0  0
    3.0952    0.8181   -0.4771 H   0  0  0  0  0  0  0  0  0  0  0  0
    0.0351    0.2050   -3.3765 H   0  0  0  0  0  0  0  0  0  0  0  0
    2.9518   -1.6421    0.9059 H   0  0  0  0  0  0  0  0  0  0  0  0
    3.0941   -1.2323   -1.6342 H   0  0  0  0  0  0  0  0  0  0  0  0
  1  3  1  0  0  0  0
  1  8  1  0  0  0  0
  2 11  1  0  0  0  0
  2  1  1  0  0  0  0
  3 12  1  0  0  0  0
  4  2  1  0  0  0  0
  5 14  1  0  0  0  0
  5  4  2  0  0  0  0
  6  3  1  0  0  0  0
  6 15  1  0  0  0  0
  7  4  1  0  0  0  0
  7 16  1  0  0  0  0
  9  1  1  0  0  0  0
 10  2  1  0  0  0  0
 13  3  1  0  0  0  0
M  END
>  <HBA>
3

>  <HBD>
2

>  <TPSA>
63.32

>  <cid>
13562

>  <dipole>
6.05

>  <excitation_energy_1>
5.812

>  <excitation_energy_2>
5.921

>  <excitation_energy_3>
6.278

>  <excitation_energy_4>
6.611

>  <homo_energy>
-6.784

>  <homo_lumo_gap>
7.546

>  <logP>
-0.055

>  <lumo_energy>
0.762

>  <melting_point>
69.02

>  <molecular_refractivity>
25.41

>  <oscillator_strength_1>
0.0015

>  <oscillator_strength_2>
0.0067

>  <oscillator_strength_3>
0.0058

>  <oscillator_strength_4>
0.0074

>  <open_babel_can_smiles>
OCCCC(=N)O

>  <mulliken_charges>
16
1   -0.290255
2   -0.35236
3   -0.068931
4   0.478227
5   -0.58946
6   -0.622935
7   -0.602727
8   0.140209
9   0.159113
10   0.153577
11   0.147499
12   0.146695
13   0.186653
14   0.274043
15   0.401997
16   0.438658

>  <lowdin_charges>
16
1   -0.294005
2   -0.309911
3   -0.146917
4   0.122379
5   -0.405338
6   -0.464704
7   -0.378936
8   0.145439
9   0.1589
10   0.157982
11   0.151127
12   0.143362
13   0.165555
14   0.248848
15   0.351691
16   0.354526

$$$$

