PCCDB-ID:  35964
public computational chemistry database (PCCDB) project, http://pccdb.org

 44 46  0  0  1  0  0  0  0  0999 V2000
    7.8431   -4.0204   -3.2089 C   0  0  0  0  0  0  0  0  0  0  0  0
    6.8431   -4.1995   -1.0386 C   0  0  0  0  0  0  0  0  0  0  0  0
    5.5993   -2.0432   -3.8877 C   0  0  0  0  0  0  0  0  0  0  0  0
    6.1440   -2.4239   -2.5041 C   0  0  0  0  0  0  0  0  0  0  0  0
    2.1436    0.8261   -6.9687 C   0  0  0  0  0  0  0  0  0  0  0  0
    4.1067   -0.1832   -8.1805 C   0  0  0  0  0  0  0  0  0  0  0  0
    4.2983    2.1133   -7.1687 C   0  0  0  0  0  0  0  0  0  0  0  0
    3.3920   -1.1141   -5.9516 C   0  0  0  0  0  0  0  0  0  0  0  0
    3.5914    1.1819   -4.9436 C   0  0  0  0  0  0  0  0  0  0  0  0
    5.5445    0.1658   -6.1449 C   0  0  0  0  0  0  0  0  0  0  0  0
    2.8973   -0.4848   -7.2720 C   0  0  1  0  0  0  0  0  0  0  0  0
    3.0931    1.8115   -6.2572 C   0  0  2  0  0  0  0  0  0  0  0  0
    5.0538    0.8023   -7.4653 C   0  0  1  0  0  0  0  0  0  0  0  0
    4.8225   -0.7161   -3.8412 C   0  0  1  0  0  0  0  0  0  0  0  0
    4.3484   -0.1463   -5.2084 C   0  0  2  0  0  0  0  0  0  0  0  0
    6.6364   -3.7995   -2.4243 N   0  0  0  0  0  0  0  0  0  0  0  0
    3.7290   -0.8299   -2.9146 O   0  0  0  0  0  0  0  0  0  0  0  0
    8.1450   -5.0704   -3.1273 H   0  0  0  0  0  0  0  0  0  0  0  0
    8.6974   -3.3937   -2.8798 H   0  0  0  0  0  0  0  0  0  0  0  0
    7.6578   -3.8106   -4.2666 H   0  0  0  0  0  0  0  0  0  0  0  0
    7.1401   -5.2537   -0.9982 H   0  0  0  0  0  0  0  0  0  0  0  0
    5.9087   -4.0878   -0.4781 H   0  0  0  0  0  0  0  0  0  0  0  0
    7.6248   -3.6076   -0.5208 H   0  0  0  0  0  0  0  0  0  0  0  0
    4.9383   -2.8512   -4.2317 H   0  0  0  0  0  0  0  0  0  0  0  0
    6.4156   -1.9739   -4.6154 H   0  0  0  0  0  0  0  0  0  0  0  0
    5.3273   -2.3269   -1.7830 H   0  0  0  0  0  0  0  0  0  0  0  0
    6.9222   -1.6915   -2.2012 H   0  0  0  0  0  0  0  0  0  0  0  0
    1.2694    0.6195   -6.3362 H   0  0  0  0  0  0  0  0  0  0  0  0
    1.7665    1.2695   -7.9008 H   0  0  0  0  0  0  0  0  0  0  0  0
    3.7637    0.2452   -9.1324 H   0  0  0  0  0  0  0  0  0  0  0  0
    4.6414   -1.1125   -8.4224 H   0  0  0  0  0  0  0  0  0  0  0  0
    4.9697    2.8347   -6.6823 H   0  0  0  0  0  0  0  0  0  0  0  0
    3.9613    2.5744   -8.1075 H   0  0  0  0  0  0  0  0  0  0  0  0
    3.9017   -2.0629   -6.1669 H   0  0  0  0  0  0  0  0  0  0  0  0
    2.5267   -1.3507   -5.3151 H   0  0  0  0  0  0  0  0  0  0  0  0
    2.7540    0.9889   -4.2651 H   0  0  0  0  0  0  0  0  0  0  0  0
    4.2606    1.8822   -4.4224 H   0  0  0  0  0  0  0  0  0  0  0  0
    6.2445    0.8453   -5.6367 H   0  0  0  0  0  0  0  0  0  0  0  0
    6.1045   -0.7489   -6.3793 H   0  0  0  0  0  0  0  0  0  0  0  0
    2.2239   -1.1905   -7.7766 H   0  0  0  0  0  0  0  0  0  0  0  0
    2.5562    2.7426   -6.0314 H   0  0  0  0  0  0  0  0  0  0  0  0
    5.9198    1.0132   -8.1068 H   0  0  0  0  0  0  0  0  0  0  0  0
    5.4688    0.0475   -3.3867 H   0  0  0  0  0  0  0  0  0  0  0  0
    3.1801   -1.5737   -3.2113 H   0  0  0  0  0  0  0  0  0  0  0  0
  1 18  1  0  0  0  0
  1 19  1  0  0  0  0
  1 16  1  0  0  0  0
  2 21  1  0  0  0  0
  2 23  1  0  0  0  0
  2 22  1  0  0  0  0
  3 14  1  0  0  0  0
  3  4  1  0  0  0  0
  4 16  1  0  0  0  0
  4 27  1  0  0  0  0
  4 26  1  0  0  0  0
  5 28  1  0  0  0  0
  5 12  1  0  0  0  0
  6 13  1  0  0  0  0
  6 11  1  0  0  0  0
  7 32  1  0  0  0  0
  7 12  1  0  0  0  0
  8 35  1  0  0  0  0
  8 15  1  0  0  0  0
  9 37  1  0  0  0  0
  9 36  1  0  0  0  0
 10 38  1  0  0  0  0
 10 15  1  0  0  0  0
 11 40  1  6  0  0  0
 11  5  1  0  0  0  0
 11  8  1  0  0  0  0
 12 41  1  1  0  0  0
 12  9  1  0  0  0  0
 13 42  1  6  0  0  0
 13  7  1  0  0  0  0
 13 10  1  0  0  0  0
 14 43  1  1  0  0  0
 14 17  1  0  0  0  0
 15  9  1  0  0  0  0
 15 14  1  1  0  0  0
 16  2  1  0  0  0  0
 20  1  1  0  0  0  0
 24  3  1  0  0  0  0
 25  3  1  0  0  0  0
 29  5  1  0  0  0  0
 30  6  1  0  0  0  0
 31  6  1  0  0  0  0
 33  7  1  0  0  0  0
 34  8  1  0  0  0  0
 39 10  1  0  0  0  0
 44 17  1  0  0  0  0
M  END
>  <HBA>
2

>  <HBD>
1

>  <TPSA>
23.47

>  <cid>
35964

>  <dipole>
1.28

>  <excitation_energy_1>
5.161

>  <excitation_energy_2>
5.465

>  <excitation_energy_3>
5.553

>  <excitation_energy_4>
5.731

>  <homo_energy>
-5.63

>  <homo_lumo_gap>
7.383

>  <logP>
2.515

>  <lumo_energy>
1.752

>  <melting_point>
75.14

>  <molecular_refractivity>
71.67

>  <oscillator_strength_1>
0.0034

>  <oscillator_strength_2>
0.0218

>  <oscillator_strength_3>
0.0227

>  <oscillator_strength_4>
0.0184

>  <open_babel_can_smiles>
O[C@H]([C@]12C[C@H]3C[C@@H](C2)C[C@@H](C1)C3)CCN(C)C

>  <mulliken_charges>
44
1   -0.299295
2   -0.29207
3   -0.306406
4   -0.111506
5   -0.264659
6   -0.26466
7   -0.263233
8   -0.295863
9   -0.270641
10   -0.28379
11   -0.089864
12   -0.090913
13   -0.091063
14   0.126473
15   0.075923
16   -0.371258
17   -0.631467
18   0.146516
19   0.11438
20   0.15053
21   0.144673
22   0.148631
23   0.116068
24   0.136855
25   0.14119
26   0.153342
27   0.103518
28   0.125519
29   0.124483
30   0.126059
31   0.123843
32   0.124718
33   0.123874
34   0.130984
35   0.112265
36   0.145011
37   0.119679
38   0.124055
39   0.127624
40   0.11495
41   0.115037
42   0.114952
43   0.126594
44   0.388942

>  <lowdin_charges>
44
1   -0.356767
2   -0.355716
3   -0.302375
4   -0.204326
5   -0.281497
6   -0.281072
7   -0.282786
8   -0.286314
9   -0.282408
10   -0.282983
11   -0.130722
12   -0.131897
13   -0.130828
14   -0.002522
15   -0.015335
16   -0.184583
17   -0.4614
18   0.148105
19   0.11897
20   0.147308
21   0.146164
22   0.149777
23   0.120497
24   0.145223
25   0.148134
26   0.152718
27   0.114568
28   0.140128
29   0.139622
30   0.14027
31   0.138726
32   0.140547
33   0.139075
34   0.14052
35   0.133485
36   0.150672
37   0.139713
38   0.140596
39   0.139422
40   0.139958
41   0.139128
42   0.139287
43   0.142019
44   0.338898

$$$$

