PCCDB-ID:  26989
public computational chemistry database (PCCDB) project, http://pccdb.org

 27 26  0  0  1  0  0  0  0  0999 V2000
    1.1179   -2.2899    1.0135 C   0  0  0  0  0  0  0  0  0  0  0  0
    6.3799   -4.9007   -0.0306 C   0  0  0  0  0  0  0  0  0  0  0  0
    4.8835   -0.0316   -0.2332 C   0  0  0  0  0  0  0  0  0  0  0  0
    2.6204   -2.0010    0.9194 C   0  0  0  0  0  0  0  0  0  0  0  0
    5.3647   -3.9175   -0.6220 C   0  0  0  0  0  0  0  0  0  0  0  0
    3.0908   -1.8286   -0.5339 C   0  0  0  0  0  0  0  0  0  0  0  0
    4.5775   -1.4514   -0.7398 C   0  0  2  0  0  0  0  0  0  0  0  0
    5.5833   -2.4705   -0.1514 C   0  0  2  0  0  0  0  0  0  0  0  0
    6.9293   -2.0548   -0.4259 O   0  0  0  0  0  0  0  0  0  0  0  0
    0.7989   -2.4159    2.0544 H   0  0  0  0  0  0  0  0  0  0  0  0
    0.8555   -3.2066    0.4710 H   0  0  0  0  0  0  0  0  0  0  0  0
    0.5296   -1.4712    0.5811 H   0  0  0  0  0  0  0  0  0  0  0  0
    7.4027   -4.5903   -0.2625 H   0  0  0  0  0  0  0  0  0  0  0  0
    6.2252   -5.9121   -0.4227 H   0  0  0  0  0  0  0  0  0  0  0  0
    6.2892   -4.9483    1.0616 H   0  0  0  0  0  0  0  0  0  0  0  0
    4.2244    0.7029   -0.7109 H   0  0  0  0  0  0  0  0  0  0  0  0
    5.9203    0.2400   -0.4455 H   0  0  0  0  0  0  0  0  0  0  0  0
    4.7409    0.0473    0.8511 H   0  0  0  0  0  0  0  0  0  0  0  0
    3.1733   -2.8195    1.4001 H   0  0  0  0  0  0  0  0  0  0  0  0
    2.8510   -1.0977    1.4983 H   0  0  0  0  0  0  0  0  0  0  0  0
    4.3492   -4.2390   -0.3621 H   0  0  0  0  0  0  0  0  0  0  0  0
    5.4185   -3.9412   -1.7223 H   0  0  0  0  0  0  0  0  0  0  0  0
    2.4808   -1.0446   -1.0057 H   0  0  0  0  0  0  0  0  0  0  0  0
    2.8653   -2.7493   -1.0880 H   0  0  0  0  0  0  0  0  0  0  0  0
    4.7458   -1.4537   -1.8311 H   0  0  0  0  0  0  0  0  0  0  0  0
    5.5236   -2.4433    0.9443 H   0  0  0  0  0  0  0  0  0  0  0  0
    7.0319   -2.0528   -1.3922 H   0  0  0  0  0  0  0  0  0  0  0  0
  1 10  1  0  0  0  0
  2 15  1  0  0  0  0
  3 18  1  0  0  0  0
  4  1  1  0  0  0  0
  4 19  1  0  0  0  0
  4 20  1  0  0  0  0
  5 21  1  0  0  0  0
  5  8  1  0  0  0  0
  5  2  1  0  0  0  0
  6  4  1  0  0  0  0
  7 25  1  6  0  0  0
  7  6  1  0  0  0  0
  7  3  1  0  0  0  0
  7  8  1  0  0  0  0
  8 26  1  1  0  0  0
  9  8  1  0  0  0  0
 11  1  1  0  0  0  0
 12  1  1  0  0  0  0
 13  2  1  0  0  0  0
 14  2  1  0  0  0  0
 16  3  1  0  0  0  0
 17  3  1  0  0  0  0
 22  5  1  0  0  0  0
 23  6  1  0  0  0  0
 24  6  1  0  0  0  0
 27  9  1  0  0  0  0
M  END
>  <HBA>
1

>  <HBD>
1

>  <TPSA>
20.23

>  <cid>
26989

>  <dipole>
1.54

>  <excitation_energy_1>
6.375

>  <excitation_energy_2>
6.964

>  <excitation_energy_3>
7.102

>  <excitation_energy_4>
7.203

>  <homo_energy>
-7.034

>  <homo_lumo_gap>
8.923

>  <logP>
2.193

>  <lumo_energy>
1.888

>  <melting_point>
-9.27

>  <molecular_refractivity>
41.73

>  <oscillator_strength_1>
0.0024

>  <oscillator_strength_2>
0.0022

>  <oscillator_strength_3>
0.0179

>  <oscillator_strength_4>
0.0031

>  <open_babel_can_smiles>
CCC[C@H]([C@@H](CC)O)C

>  <mulliken_charges>
27
1   -0.441985
2   -0.438608
3   -0.446812
4   -0.258387
5   -0.277086
6   -0.2613
7   -0.095639
8   0.146684
9   -0.625295
10   0.142766
11   0.140873
12   0.142606
13   0.158253
14   0.137608
15   0.141044
16   0.134183
17   0.157716
18   0.142013
19   0.135503
20   0.138887
21   0.139583
22   0.117095
23   0.127718
24   0.130652
25   0.101133
26   0.130906
27   0.379888

>  <lowdin_charges>
27
1   -0.443625
2   -0.44178
3   -0.447514
4   -0.279395
5   -0.288662
6   -0.281029
7   -0.137972
8   -0.001995
9   -0.458923
10   0.1487
11   0.146108
12   0.14771
13   0.154421
14   0.146766
15   0.145378
16   0.146482
17   0.156746
18   0.144996
19   0.140464
20   0.143093
21   0.146672
22   0.131708
23   0.142817
24   0.140222
25   0.127003
26   0.138071
27   0.333539

$$$$

