PCCDB-ID:  25244
public computational chemistry database (PCCDB) project, http://pccdb.org

 27 28  0  0  1  0  0  0  0  0999 V2000
   -2.5653   -1.0778   -0.2929 C   0  0  0  0  0  0  0  0  0  0  0  0
    2.2633   -0.9116   -0.8253 C   0  0  0  0  0  0  0  0  0  0  0  0
   -2.7511    0.2699    0.0012 C   0  0  0  0  0  0  0  0  0  0  0  0
    2.8912    0.3945   -0.3228 C   0  0  0  0  0  0  0  0  0  0  0  0
   -1.2786   -1.6157   -0.2471 C   0  0  0  0  0  0  0  0  0  0  0  0
    1.1998   -1.5190    0.1107 C   0  0  0  0  0  0  0  0  0  0  0  0
   -1.6460    1.0529    0.3362 C   0  0  0  0  0  0  0  0  0  0  0  0
    1.9372    1.5921   -0.2120 C   0  0  0  0  0  0  0  0  0  0  0  0
   -0.1597   -0.8419    0.0882 C   0  0  0  0  0  0  0  0  0  0  0  0
   -0.3473    0.5277    0.3878 C   0  0  0  0  0  0  0  0  0  0  0  0
    0.7824    1.4751    0.8043 C   0  0  1  0  0  0  0  0  0  0  0  0
    1.3235    1.2419    2.1590 N   0  0  0  0  0  0  0  0  0  0  0  0
   -3.4095   -1.7087   -0.5585 H   0  0  0  0  0  0  0  0  0  0  0  0
    3.0636   -1.6516   -0.9594 H   0  0  0  0  0  0  0  0  0  0  0  0
    1.8181   -0.7534   -1.8174 H   0  0  0  0  0  0  0  0  0  0  0  0
   -3.7433    0.7125   -0.0304 H   0  0  0  0  0  0  0  0  0  0  0  0
    3.7069    0.6755   -1.0023 H   0  0  0  0  0  0  0  0  0  0  0  0
    3.3696    0.2160    0.6510 H   0  0  0  0  0  0  0  0  0  0  0  0
   -1.1339   -2.6684   -0.4807 H   0  0  0  0  0  0  0  0  0  0  0  0
    1.6018   -1.5374    1.1359 H   0  0  0  0  0  0  0  0  0  0  0  0
    1.0560   -2.5714   -0.1609 H   0  0  0  0  0  0  0  0  0  0  0  0
   -1.7925    2.1072    0.5633 H   0  0  0  0  0  0  0  0  0  0  0  0
    1.5034    1.8045   -1.1986 H   0  0  0  0  0  0  0  0  0  0  0  0
    2.5258    2.4712    0.0772 H   0  0  0  0  0  0  0  0  0  0  0  0
    0.3309    2.4743    0.8485 H   0  0  0  0  0  0  0  0  0  0  0  0
    1.7310    0.3108    2.2203 H   0  0  0  0  0  0  0  0  0  0  0  0
    0.5529    1.2470    2.8266 H   0  0  0  0  0  0  0  0  0  0  0  0
  1  5  2  0  0  0  0
  1  3  1  0  0  0  0
  2  4  1  0  0  0  0
  2  6  1  0  0  0  0
  3  7  2  0  0  0  0
  4  8  1  0  0  0  0
  4 18  1  0  0  0  0
  5  9  1  0  0  0  0
  6 20  1  0  0  0  0
  7 10  1  0  0  0  0
  7 22  1  0  0  0  0
  8 24  1  0  0  0  0
  8 11  1  0  0  0  0
  9  6  1  0  0  0  0
  9 10  2  0  0  0  0
 10 11  1  0  0  0  0
 11 25  1  1  0  0  0
 11 12  1  0  0  0  0
 12 26  1  0  0  0  0
 12 27  1  0  0  0  0
 13  1  1  0  0  0  0
 14  2  1  0  0  0  0
 15  2  1  0  0  0  0
 16  3  1  0  0  0  0
 17  4  1  0  0  0  0
 19  5  1  0  0  0  0
 21  6  1  0  0  0  0
 23  8  1  0  0  0  0
M  END
>  <HBA>
1

>  <HBD>
1

>  <TPSA>
26.02

>  <cid>
25244

>  <dipole>
1.06

>  <excitation_energy_1>
5.082

>  <excitation_energy_2>
5.305

>  <excitation_energy_3>
5.621

>  <excitation_energy_4>
5.709

>  <homo_energy>
-6.076

>  <homo_lumo_gap>
6.046

>  <logP>
3.113

>  <lumo_energy>
-0.03

>  <melting_point>
86.82

>  <molecular_refractivity>
51.39

>  <oscillator_strength_1>
0.0072

>  <oscillator_strength_2>
0.0701

>  <oscillator_strength_3>
0.0127

>  <oscillator_strength_4>
0.0013

>  <open_babel_can_smiles>
N[C@H]1CCCCc2c1cccc2

>  <mulliken_charges>
27
1   -0.126303
2   -0.247899
3   -0.124871
4   -0.275503
5   -0.193996
6   -0.358769
7   -0.204141
8   -0.243447
9   0.126776
10   0.120081
11   -0.075779
12   -0.712026
13   0.126261
14   0.131848
15   0.137675
16   0.126069
17   0.134879
18   0.134455
19   0.120858
20   0.133886
21   0.141541
22   0.122777
23   0.132039
24   0.14347
25   0.134142
26   0.299841
27   0.296137

>  <lowdin_charges>
27
1   -0.161539
2   -0.275138
3   -0.160376
4   -0.28186
5   -0.16532
6   -0.275602
7   -0.168603
8   -0.278878
9   -0.011847
10   -0.03171
11   -0.067336
12   -0.548158
13   0.157399
14   0.145227
15   0.142955
16   0.155851
17   0.147638
18   0.13971
19   0.151012
20   0.140284
21   0.1492
22   0.150775
23   0.143322
24   0.153003
25   0.145652
26   0.248081
27   0.25626

$$$$

