PCCDB-ID:  4528
public computational chemistry database (PCCDB) project, http://pccdb.org

 36 38  0  0  1  0  0  0  0  0999 V2000
    0.8692   -0.1691    0.0098 C   0  0  0  0  0  0  0  0  0  0  0  0
    5.1910    2.9403    3.4282 C   0  0  0  0  0  0  0  0  0  0  0  0
    4.7155    1.6306    3.3257 C   0  0  0  0  0  0  0  0  0  0  0  0
    5.3931    3.6881    2.2686 C   0  0  0  0  0  0  0  0  0  0  0  0
    7.1396   -1.2090   -1.2602 C   0  0  0  0  0  0  0  0  0  0  0  0
    4.4465    1.0717    2.0768 C   0  0  0  0  0  0  0  0  0  0  0  0
    5.1193    3.1267    1.0194 C   0  0  0  0  0  0  0  0  0  0  0  0
    6.4530   -0.0368   -0.9624 C   0  0  0  0  0  0  0  0  0  0  0  0
    6.4533   -2.4168   -1.3629 C   0  0  0  0  0  0  0  0  0  0  0  0
    2.8176    1.0742   -0.7197 C   0  0  0  0  0  0  0  0  0  0  0  0
    2.8644   -1.3284   -0.6657 C   0  0  0  0  0  0  0  0  0  0  0  0
    4.6412    1.8150    0.9029 C   0  0  0  0  0  0  0  0  0  0  0  0
    5.0662   -0.0639   -0.7630 C   0  0  0  0  0  0  0  0  0  0  0  0
    4.3306    1.2412   -0.4775 C   0  0  1  0  0  0  0  0  0  0  0  0
    4.3660   -1.2739   -0.8529 C   0  0  0  0  0  0  0  0  0  0  0  0
    5.0669   -2.4623   -1.1682 C   0  0  0  0  0  0  0  0  0  0  0  0
    4.3742   -3.6687   -1.3547 N   0  0  0  0  0  0  0  0  0  0  0  0
    2.3207   -0.1231   -0.0543 N   0  0  0  0  0  0  0  0  0  0  0  0
    0.4961    0.7154    0.5364 H   0  0  0  0  0  0  0  0  0  0  0  0
    0.5526   -1.0569    0.5695 H   0  0  0  0  0  0  0  0  0  0  0  0
    0.3883   -0.2073   -0.9879 H   0  0  0  0  0  0  0  0  0  0  0  0
    5.4044    3.3714    4.4029 H   0  0  0  0  0  0  0  0  0  0  0  0
    4.5565    1.0389    4.2239 H   0  0  0  0  0  0  0  0  0  0  0  0
    5.7659    4.7074    2.3324 H   0  0  0  0  0  0  0  0  0  0  0  0
    8.2152   -1.1878   -1.4149 H   0  0  0  0  0  0  0  0  0  0  0  0
    4.0733    0.0560    2.0043 H   0  0  0  0  0  0  0  0  0  0  0  0
    5.2794    3.7182    0.1199 H   0  0  0  0  0  0  0  0  0  0  0  0
    6.9856    0.9071   -0.8813 H   0  0  0  0  0  0  0  0  0  0  0  0
    6.9883   -3.3341   -1.6004 H   0  0  0  0  0  0  0  0  0  0  0  0
    2.6222    1.0441   -1.8116 H   0  0  0  0  0  0  0  0  0  0  0  0
    2.2858    1.9434   -0.3187 H   0  0  0  0  0  0  0  0  0  0  0  0
    2.5915   -2.1717   -0.0118 H   0  0  0  0  0  0  0  0  0  0  0  0
    2.3848   -1.5404   -1.6471 H   0  0  0  0  0  0  0  0  0  0  0  0
    4.6847    1.9786   -1.2103 H   0  0  0  0  0  0  0  0  0  0  0  0
    4.9659   -4.4895   -1.3031 H   0  0  0  0  0  0  0  0  0  0  0  0
    3.5488   -3.7883   -0.7799 H   0  0  0  0  0  0  0  0  0  0  0  0
  1 19  1  0  0  0  0
  1 20  1  0  0  0  0
  2 22  1  0  0  0  0
  3  2  1  0  0  0  0
  3 23  1  0  0  0  0
  4 24  1  0  0  0  0
  4  2  2  0  0  0  0
  5  8  1  0  0  0  0
  6  3  2  0  0  0  0
  7  4  1  0  0  0  0
  8 28  1  0  0  0  0
  8 13  2  0  0  0  0
  9  5  2  0  0  0  0
  9 16  1  0  0  0  0
 10 14  1  0  0  0  0
 10 31  1  0  0  0  0
 10 18  1  0  0  0  0
 11 18  1  0  0  0  0
 11 32  1  0  0  0  0
 12  7  2  0  0  0  0
 12  6  1  0  0  0  0
 13 14  1  0  0  0  0
 14 34  1  6  0  0  0
 14 12  1  0  0  0  0
 15 13  1  0  0  0  0
 15 11  1  0  0  0  0
 16 15  2  0  0  0  0
 17 35  1  0  0  0  0
 17 16  1  0  0  0  0
 17 36  1  0  0  0  0
 18  1  1  0  0  0  0
 21  1  1  0  0  0  0
 25  5  1  0  0  0  0
 26  6  1  0  0  0  0
 27  7  1  0  0  0  0
 29  9  1  0  0  0  0
 30 10  1  0  0  0  0
 33 11  1  0  0  0  0
M  END
>  <HBA>
2

>  <HBD>
1

>  <TPSA>
29.26

>  <cid>
4528

>  <dipole>
1.74

>  <excitation_energy_1>
4.616

>  <excitation_energy_2>
4.643

>  <excitation_energy_3>
4.914

>  <excitation_energy_4>
4.973

>  <homo_energy>
-5.339

>  <homo_lumo_gap>
5.418

>  <logP>
3.365

>  <lumo_energy>
0.079

>  <melting_point>
116.43

>  <molecular_refractivity>
79.58

>  <oscillator_strength_1>
0.0211

>  <oscillator_strength_2>
0.042

>  <oscillator_strength_3>
0.0006

>  <oscillator_strength_4>
0.0185

>  <open_babel_can_smiles>
CN1C[C@@H](c2ccccc2)c2c(C1)c(N)ccc2

>  <mulliken_charges>
36
1   -0.288778
2   -0.130822
3   -0.131946
4   -0.127739
5   -0.134101
6   -0.163576
7   -0.199547
8   -0.18865
9   -0.177642
10   -0.131764
11   -0.188954
12   0.184372
13   0.116873
14   -0.267736
15   0.06502
16   0.249408
17   -0.796142
18   -0.389887
19   0.155147
20   0.145746
21   0.119023
22   0.123503
23   0.123617
24   0.123723
25   0.123122
26   0.139774
27   0.118446
28   0.120009
29   0.111619
30   0.115809
31   0.144196
32   0.129991
33   0.133712
34   0.136525
35   0.318235
36   0.319412

>  <lowdin_charges>
36
1   -0.355135
2   -0.162609
3   -0.158656
4   -0.157731
5   -0.145982
6   -0.155071
7   -0.175537
8   -0.187632
9   -0.204973
10   -0.19484
11   -0.198687
12   0.00014
13   -0.001168
14   -0.126222
15   -0.057948
16   0.052709
17   -0.493693
18   -0.177317
19   0.154108
20   0.149166
21   0.121395
22   0.154547
23   0.15509
24   0.153704
25   0.153802
26   0.163885
27   0.151401
28   0.155376
29   0.150573
30   0.117979
31   0.151436
32   0.139824
33   0.127639
34   0.154121
35   0.274239
36   0.272067

$$$$

