PCCDB-ID:  66195
public computational chemistry database (PCCDB) project, http://pccdb.org

 16 15  0  0  0  0  0  0  0  0999 V2000
    1.2358    0.5572   -0.4028 C   0  0  0  0  0  0  0  0  0  0  0  0
    5.3263    0.1697    1.0534 C   0  0  0  0  0  0  0  0  0  0  0  0
    2.6201   -2.1092    1.5247 C   0  0  0  0  0  0  0  0  0  0  0  0
    2.0983   -0.4531   -0.2922 C   0  0  0  0  0  0  0  0  0  0  0  0
    4.4316   -0.6734    0.5383 C   0  0  0  0  0  0  0  0  0  0  0  0
    2.9671   -0.7322    0.9148 C   0  0  0  0  0  0  0  0  0  0  0  0
    0.6334    0.7004   -1.2959 H   0  0  0  0  0  0  0  0  0  0  0  0
    1.0988    1.2825    0.3969 H   0  0  0  0  0  0  0  0  0  0  0  0
    6.3684    0.1569    0.7449 H   0  0  0  0  0  0  0  0  0  0  0  0
    5.0516    0.9073    1.8050 H   0  0  0  0  0  0  0  0  0  0  0  0
    1.5655   -2.1480    1.8186 H   0  0  0  0  0  0  0  0  0  0  0  0
    3.2383   -2.3093    2.4066 H   0  0  0  0  0  0  0  0  0  0  0  0
    2.7967   -2.9149    0.8011 H   0  0  0  0  0  0  0  0  0  0  0  0
    2.2052   -1.1571   -1.1202 H   0  0  0  0  0  0  0  0  0  0  0  0
    4.7515   -1.3961   -0.2155 H   0  0  0  0  0  0  0  0  0  0  0  0
    2.7718    0.0423    1.6683 H   0  0  0  0  0  0  0  0  0  0  0  0
  1  4  2  0  0  0  0
  1  8  1  0  0  0  0
  2 10  1  0  0  0  0
  3 11  1  0  0  0  0
  3 12  1  0  0  0  0
  4  6  1  0  0  0  0
  5  6  1  0  0  0  0
  5  2  2  0  0  0  0
  6  3  1  0  0  0  0
  6 16  1  0  0  0  0
  7  1  1  0  0  0  0
  9  2  1  0  0  0  0
 13  3  1  0  0  0  0
 14  4  1  0  0  0  0
 15  5  1  0  0  0  0
M  END
>  <HBA>
0

>  <HBD>
0

>  <TPSA>
0.0

>  <cid>
66195

>  <dipole>
0.3

>  <excitation_energy_1>
6.151

>  <excitation_energy_2>
6.324

>  <excitation_energy_3>
6.505

>  <excitation_energy_4>
6.72

>  <homo_energy>
-6.738

>  <homo_lumo_gap>
6.961

>  <logP>
1.994

>  <lumo_energy>
0.223

>  <melting_point>
-67.76

>  <molecular_refractivity>
30.01

>  <oscillator_strength_1>
0.1541

>  <oscillator_strength_2>
0.0467

>  <oscillator_strength_3>
0.0291

>  <oscillator_strength_4>
0.0634

>  <open_babel_can_smiles>
C=CC(C=C)C

>  <mulliken_charges>
16
1   -0.342916
2   -0.342916
3   -0.445356
4   -0.03475
5   -0.034757
6   -0.165236
7   0.138901
8   0.135441
9   0.138887
10   0.135365
11   0.151628
12   0.151658
13   0.141368
14   0.121449
15   0.121418
16   0.129818

>  <lowdin_charges>
16
1   -0.34324
2   -0.34128
3   -0.440781
4   -0.140857
5   -0.141156
6   -0.118608
7   0.158783
8   0.154762
9   0.157097
10   0.154557
11   0.152763
12   0.154505
13   0.148158
14   0.14912
15   0.149128
16   0.14705

$$$$

