PCCDB-ID:  12212
public computational chemistry database (PCCDB) project, http://pccdb.org

 24 23  0  0  0  0  0  0  0  0999 V2000
    4.1684    0.3100    2.4276 C   0  0  0  0  0  0  0  0  0  0  0  0
    2.0346   -0.7809    1.6328 C   0  0  0  0  0  0  0  0  0  0  0  0
    4.4452    0.5246   -3.1616 C   0  0  0  0  0  0  0  0  0  0  0  0
    3.5306    0.3616   -0.0523 C   0  0  0  0  0  0  0  0  0  0  0  0
    4.9502    0.6227   -0.5958 C   0  0  0  0  0  0  0  0  0  0  0  0
    3.4856   -0.4322    1.2685 C   0  0  0  0  0  0  0  0  0  0  0  0
    4.9484    1.2771   -1.9562 C   0  0  0  0  0  0  0  0  0  0  0  0
    5.3871    2.4817   -2.0018 N   0  0  0  0  0  0  0  0  0  0  0  0
    5.3215    3.0013   -3.3174 O   0  0  0  0  0  0  0  0  0  0  0  0
    4.1106   -0.2754    3.3529 H   0  0  0  0  0  0  0  0  0  0  0  0
    3.6792    1.2751    2.6146 H   0  0  0  0  0  0  0  0  0  0  0  0
    5.2273    0.5056    2.2278 H   0  0  0  0  0  0  0  0  0  0  0  0
    1.9886   -1.3796    2.5502 H   0  0  0  0  0  0  0  0  0  0  0  0
    1.5464   -1.3519    0.8339 H   0  0  0  0  0  0  0  0  0  0  0  0
    1.4432    0.1288    1.8007 H   0  0  0  0  0  0  0  0  0  0  0  0
    4.2373   -0.5215   -2.9216 H   0  0  0  0  0  0  0  0  0  0  0  0
    5.1829    0.5694   -3.9699 H   0  0  0  0  0  0  0  0  0  0  0  0
    3.5295    0.9841   -3.5526 H   0  0  0  0  0  0  0  0  0  0  0  0
    2.9501   -0.1871   -0.8071 H   0  0  0  0  0  0  0  0  0  0  0  0
    3.0219    1.3267    0.0849 H   0  0  0  0  0  0  0  0  0  0  0  0
    5.4897   -0.3344   -0.6633 H   0  0  0  0  0  0  0  0  0  0  0  0
    5.5094    1.2671    0.0886 H   0  0  0  0  0  0  0  0  0  0  0  0
    4.0275   -1.3775    1.1067 H   0  0  0  0  0  0  0  0  0  0  0  0
    5.6985    3.8866   -3.1988 H   0  0  0  0  0  0  0  0  0  0  0  0
  1 11  1  0  0  0  0
  1 10  1  0  0  0  0
  2 15  1  0  0  0  0
  2 13  1  0  0  0  0
  3 16  1  0  0  0  0
  3  7  1  0  0  0  0
  4 20  1  0  0  0  0
  4  6  1  0  0  0  0
  5  4  1  0  0  0  0
  5 22  1  0  0  0  0
  6  2  1  0  0  0  0
  6  1  1  0  0  0  0
  7  5  1  0  0  0  0
  8  7  2  0  0  0  0
  9 24  1  0  0  0  0
  9  8  1  0  0  0  0
 12  1  1  0  0  0  0
 14  2  1  0  0  0  0
 17  3  1  0  0  0  0
 18  3  1  0  0  0  0
 19  4  1  0  0  0  0
 21  5  1  0  0  0  0
 23  6  1  0  0  0  0
M  END
>  <HBA>
2

>  <HBD>
1

>  <TPSA>
32.59

>  <cid>
12212

>  <dipole>
0.72

>  <excitation_energy_1>
6.077

>  <excitation_energy_2>
6.154

>  <excitation_energy_3>
6.446

>  <excitation_energy_4>
6.658

>  <homo_energy>
-6.474

>  <homo_lumo_gap>
6.925

>  <logP>
2.273

>  <lumo_energy>
0.452

>  <melting_point>
44.54

>  <molecular_refractivity>
40.18

>  <oscillator_strength_1>
0.0062

>  <oscillator_strength_2>
0.0043

>  <oscillator_strength_3>
0.0606

>  <oscillator_strength_4>
0.1539

>  <open_babel_can_smiles>
CC(CC/C(=N/O)/C)C

>  <mulliken_charges>
24
1   -0.446281
2   -0.442731
3   -0.503061
4   -0.256185
5   -0.328658
6   -0.0651
7   0.324959
8   -0.226683
9   -0.52017
10   0.140767
11   0.141142
12   0.14716
13   0.140722
14   0.139122
15   0.140621
16   0.149068
17   0.181588
18   0.178606
19   0.131208
20   0.139514
21   0.138239
22   0.162921
23   0.119814
24   0.413419

>  <lowdin_charges>
24
1   -0.445281
2   -0.445663
3   -0.458371
4   -0.276795
5   -0.277516
6   -0.119697
7   0.025105
8   -0.083797
9   -0.391475
10   0.148942
11   0.146659
12   0.148259
13   0.148469
14   0.148034
15   0.146786
16   0.155312
17   0.175524
18   0.173645
19   0.142463
20   0.144148
21   0.147332
22   0.162058
23   0.133887
24   0.351972

$$$$

