PCCDB-ID:  13609
public computational chemistry database (PCCDB) project, http://pccdb.org

 22 22  0  0  0  0  0  0  0  0999 V2000
   -0.5605   -1.6710    0.0471 C   0  0  0  0  0  0  0  0  0  0  0  0
    0.7272   -1.5830    0.4078 C   0  0  0  0  0  0  0  0  0  0  0  0
   -1.3925   -0.6821   -0.7421 C   0  0  0  0  0  0  0  0  0  0  0  0
    1.7755   -0.5259    0.1362 C   0  0  0  0  0  0  0  0  0  0  0  0
   -1.8011    0.5855    0.0494 C   0  0  0  0  0  0  0  0  0  0  0  0
    1.4091    0.7095   -0.7055 C   0  0  0  0  0  0  0  0  0  0  0  0
   -0.6702    1.2843    0.8176 C   0  0  0  0  0  0  0  0  0  0  0  0
    0.5372    1.7736   -0.0019 C   0  0  0  0  0  0  0  0  0  0  0  0
   -1.0966   -2.5550    0.3935 H   0  0  0  0  0  0  0  0  0  0  0  0
    1.1182   -2.4134    0.9995 H   0  0  0  0  0  0  0  0  0  0  0  0
   -2.3084   -1.1827   -1.0794 H   0  0  0  0  0  0  0  0  0  0  0  0
   -0.8716   -0.3834   -1.6562 H   0  0  0  0  0  0  0  0  0  0  0  0
    2.6241   -1.0321   -0.3502 H   0  0  0  0  0  0  0  0  0  0  0  0
    2.1770   -0.1913    1.1070 H   0  0  0  0  0  0  0  0  0  0  0  0
   -2.5813    0.3132    0.7738 H   0  0  0  0  0  0  0  0  0  0  0  0
   -2.2674    1.2931   -0.6511 H   0  0  0  0  0  0  0  0  0  0  0  0
    0.9521    0.3869   -1.6458 H   0  0  0  0  0  0  0  0  0  0  0  0
    2.3477    1.2001   -0.9968 H   0  0  0  0  0  0  0  0  0  0  0  0
   -0.3172    0.6157    1.6118 H   0  0  0  0  0  0  0  0  0  0  0  0
   -1.1011    2.1562    1.3290 H   0  0  0  0  0  0  0  0  0  0  0  0
    0.1986    2.5000   -0.7549 H   0  0  0  0  0  0  0  0  0  0  0  0
    1.1845    2.3369    0.6855 H   0  0  0  0  0  0  0  0  0  0  0  0
  1  9  1  0  0  0  0
  1  2  2  0  0  0  0
  2 10  1  0  0  0  0
  3  1  1  0  0  0  0
  3  5  1  0  0  0  0
  4  2  1  0  0  0  0
  4 14  1  0  0  0  0
  5 15  1  0  0  0  0
  5  7  1  0  0  0  0
  6  8  1  0  0  0  0
  6  4  1  0  0  0  0
  7 20  1  0  0  0  0
  7 19  1  0  0  0  0
  8 22  1  0  0  0  0
  8  7  1  0  0  0  0
 11  3  1  0  0  0  0
 12  3  1  0  0  0  0
 13  4  1  0  0  0  0
 16  5  1  0  0  0  0
 17  6  1  0  0  0  0
 18  6  1  0  0  0  0
 21  8  1  0  0  0  0
M  END
>  <HBA>
0

>  <HBD>
0

>  <TPSA>
0.0

>  <cid>
13609

>  <dipole>
0.28

>  <excitation_energy_1>
5.786

>  <excitation_energy_2>
6.219

>  <excitation_energy_3>
6.32

>  <excitation_energy_4>
6.43

>  <homo_energy>
-6.31

>  <homo_lumo_gap>
7.108

>  <logP>
2.897

>  <lumo_energy>
0.797

>  <melting_point>
4.48

>  <molecular_refractivity>
37.98

>  <oscillator_strength_1>
0.0181

>  <oscillator_strength_2>
0.0533

>  <oscillator_strength_3>
0.0163

>  <oscillator_strength_4>
0.0138

>  <open_babel_can_smiles>
C1CCCC=CCC1

>  <mulliken_charges>
22
1   -0.118283
2   -0.09714
3   -0.305706
4   -0.299116
5   -0.24662
6   -0.265888
7   -0.257794
8   -0.253797
9   0.117884
10   0.115086
11   0.131826
12   0.147937
13   0.142587
14   0.140409
15   0.129818
16   0.125732
17   0.141453
18   0.129074
19   0.142451
20   0.126241
21   0.126046
22   0.127799

>  <lowdin_charges>
22
1   -0.182017
2   -0.173908
3   -0.285536
4   -0.278288
5   -0.27517
6   -0.282435
7   -0.284605
8   -0.280593
9   0.150033
10   0.149503
11   0.147835
12   0.149926
13   0.15304
14   0.147039
15   0.142438
16   0.140001
17   0.143359
18   0.144783
19   0.147915
20   0.144036
21   0.140351
22   0.142293

$$$$

