PCCDB-ID:  66349
public computational chemistry database (PCCDB) project, http://pccdb.org

 20 20  0  0  0  0  0  0  0  0999 V2000
    1.3270    0.1633   -2.4883 C   0  0  0  0  0  0  0  0  0  0  0  0
    6.2161    3.4441   -3.3967 C   0  0  0  0  0  0  0  0  0  0  0  0
    5.7809    2.1303   -3.0835 C   0  0  0  0  0  0  0  0  0  0  0  0
    6.0665    5.6474   -2.0343 C   0  0  0  0  0  0  0  0  0  0  0  0
    4.5506    1.1825   -0.9670 C   0  0  0  0  0  0  0  0  0  0  0  0
    2.8215    0.2200   -2.2859 C   0  0  0  0  0  0  0  0  0  0  0  0
    5.8810    4.2324   -2.3217 C   0  0  0  0  0  0  0  0  0  0  0  0
    5.2077    2.1964   -1.8371 C   0  0  0  0  0  0  0  0  0  0  0  0
    6.6023    6.4260   -2.8043 O   0  0  0  0  0  0  0  0  0  0  0  0
    3.6475   -0.3732   -2.9446 O   0  0  0  0  0  0  0  0  0  0  0  0
    3.1341    1.0417   -1.2507 O   0  0  0  0  0  0  0  0  0  0  0  0
    5.2616    3.4706   -1.3634 O   0  0  0  0  0  0  0  0  0  0  0  0
    1.0939   -0.5642   -3.2662 H   0  0  0  0  0  0  0  0  0  0  0  0
    0.9568    1.1511   -2.7831 H   0  0  0  0  0  0  0  0  0  0  0  0
    0.8258   -0.1078   -1.5540 H   0  0  0  0  0  0  0  0  0  0  0  0
    6.7172    3.7872   -4.2906 H   0  0  0  0  0  0  0  0  0  0  0  0
    5.8565    1.2395   -3.6900 H   0  0  0  0  0  0  0  0  0  0  0  0
    5.6762    5.9695   -1.0463 H   0  0  0  0  0  0  0  0  0  0  0  0
    4.5927    1.4969    0.0768 H   0  0  0  0  0  0  0  0  0  0  0  0
    5.0335    0.2115   -1.0895 H   0  0  0  0  0  0  0  0  0  0  0  0
  1  6  1  0  0  0  0
  1 15  1  0  0  0  0
  2  3  1  0  0  0  0
  2  7  2  0  0  0  0
  3  8  2  0  0  0  0
  4 18  1  0  0  0  0
  5 19  1  0  0  0  0
  6 11  1  0  0  0  0
  7  4  1  0  0  0  0
  7 12  1  0  0  0  0
  8 12  1  0  0  0  0
  8  5  1  0  0  0  0
  9  4  2  0  0  0  0
 10  6  2  0  0  0  0
 11  5  1  0  0  0  0
 13  1  1  0  0  0  0
 14  1  1  0  0  0  0
 16  2  1  0  0  0  0
 17  3  1  0  0  0  0
 20  5  1  0  0  0  0
M  END
>  <HBA>
4

>  <HBD>
0

>  <TPSA>
56.51

>  <cid>
66349

>  <dipole>
3.45

>  <excitation_energy_1>
3.688

>  <excitation_energy_2>
4.689

>  <excitation_energy_3>
5.361

>  <excitation_energy_4>
5.581

>  <homo_energy>
-6.705

>  <homo_lumo_gap>
4.898

>  <logP>
1.155

>  <lumo_energy>
-1.807

>  <melting_point>
52.27

>  <molecular_refractivity>
39.96

>  <oscillator_strength_1>
0.0001

>  <oscillator_strength_2>
0.4696

>  <oscillator_strength_3>
0.0098

>  <oscillator_strength_4>
0.017

>  <open_babel_can_smiles>
O=Cc1ccc(o1)COC(=O)C

>  <mulliken_charges>
20
1   -0.523642
2   -0.174853
3   -0.19414
4   0.174204
5   -0.139623
6   0.604522
7   0.29765
8   0.340935
9   -0.408304
10   -0.467418
11   -0.442304
12   -0.468471
13   0.186474
14   0.189282
15   0.185267
16   0.174786
17   0.177684
18   0.117312
19   0.179919
20   0.190721

>  <lowdin_charges>
20
1   -0.463875
2   -0.154668
3   -0.190597
4   0.037437
5   -0.132941
6   0.20751
7   0.021502
8   0.069726
9   -0.232349
10   -0.266315
11   -0.198278
12   -0.088317
13   0.178914
14   0.182036
15   0.17981
16   0.187239
17   0.187018
18   0.127269
19   0.172921
20   0.175958

$$$$

