PCCDB-ID:  41497
public computational chemistry database (PCCDB) project, http://pccdb.org

 34 33  0  0  0  0  0  0  0  0999 V2000
    5.6357    3.2134    1.5994 C   0  0  0  0  0  0  0  0  0  0  0  0
    5.8678   -6.3936    5.2222 C   0  0  0  0  0  0  0  0  0  0  0  0
    4.4541   -7.4359    3.4196 C   0  0  0  0  0  0  0  0  0  0  0  0
    6.7656   -6.6003    2.8809 C   0  0  0  0  0  0  0  0  0  0  0  0
    4.7101    2.0391    1.2654 C   0  0  0  0  0  0  0  0  0  0  0  0
    5.3451    0.6729    1.5521 C   0  0  0  0  0  0  0  0  0  0  0  0
    4.4194   -0.5148    1.2208 C   0  0  0  0  0  0  0  0  0  0  0  0
    5.0675   -1.8475    1.4648 C   0  0  0  0  0  0  0  0  0  0  0  0
    4.6434   -2.7786    2.3360 C   0  0  0  0  0  0  0  0  0  0  0  0
    5.3043   -4.0573    2.5568 C   0  0  0  0  0  0  0  0  0  0  0  0
    4.8802   -4.9886    3.4276 C   0  0  0  0  0  0  0  0  0  0  0  0
    5.5035   -6.3391    3.7192 C   0  0  0  0  0  0  0  0  0  0  0  0
    5.1565    4.1753    1.3839 H   0  0  0  0  0  0  0  0  0  0  0  0
    6.5630    3.1645    1.0153 H   0  0  0  0  0  0  0  0  0  0  0  0
    5.9132    3.2098    2.6606 H   0  0  0  0  0  0  0  0  0  0  0  0
    6.2642   -7.3811    5.4900 H   0  0  0  0  0  0  0  0  0  0  0  0
    4.9892   -6.2037    5.8505 H   0  0  0  0  0  0  0  0  0  0  0  0
    6.6259   -5.6421    5.4700 H   0  0  0  0  0  0  0  0  0  0  0  0
    4.8493   -8.4288    3.6690 H   0  0  0  0  0  0  0  0  0  0  0  0
    4.1760   -7.4348    2.3596 H   0  0  0  0  0  0  0  0  0  0  0  0
    3.5404   -7.2821    4.0064 H   0  0  0  0  0  0  0  0  0  0  0  0
    7.1869   -7.5831    3.1229 H   0  0  0  0  0  0  0  0  0  0  0  0
    7.5388   -5.8487    3.0768 H   0  0  0  0  0  0  0  0  0  0  0  0
    6.5436   -6.5881    1.8076 H   0  0  0  0  0  0  0  0  0  0  0  0
    4.4207    2.0889    0.2058 H   0  0  0  0  0  0  0  0  0  0  0  0
    3.7769    2.1334    1.8389 H   0  0  0  0  0  0  0  0  0  0  0  0
    5.6350    0.6143    2.6104 H   0  0  0  0  0  0  0  0  0  0  0  0
    6.2766    0.5769    0.9748 H   0  0  0  0  0  0  0  0  0  0  0  0
    4.1211   -0.4379    0.1629 H   0  0  0  0  0  0  0  0  0  0  0  0
    3.4949   -0.4358    1.8088 H   0  0  0  0  0  0  0  0  0  0  0  0
    5.9698   -2.0519    0.8838 H   0  0  0  0  0  0  0  0  0  0  0  0
    3.7448   -2.5845    2.9249 H   0  0  0  0  0  0  0  0  0  0  0  0
    6.1977   -4.2399    1.9607 H   0  0  0  0  0  0  0  0  0  0  0  0
    3.9795   -4.7744    4.0088 H   0  0  0  0  0  0  0  0  0  0  0  0
  1 15  1  0  0  0  0
  2 18  1  0  0  0  0
  2 16  1  0  0  0  0
  2 17  1  0  0  0  0
  3 19  1  0  0  0  0
  3 12  1  0  0  0  0
  3 21  1  0  0  0  0
  4 23  1  0  0  0  0
  4 22  1  0  0  0  0
  4 12  1  0  0  0  0
  5  6  1  0  0  0  0
  5  1  1  0  0  0  0
  5 26  1  0  0  0  0
  6 27  1  0  0  0  0
  7  8  1  0  0  0  0
  7  6  1  0  0  0  0
  7 30  1  0  0  0  0
  8  9  2  0  0  0  0
  9 10  1  0  0  0  0
  9 32  1  0  0  0  0
 10 11  2  0  0  0  0
 11 12  1  0  0  0  0
 11 34  1  0  0  0  0
 12  2  1  0  0  0  0
 13  1  1  0  0  0  0
 14  1  1  0  0  0  0
 20  3  1  0  0  0  0
 24  4  1  0  0  0  0
 25  5  1  0  0  0  0
 28  6  1  0  0  0  0
 29  7  1  0  0  0  0
 31  8  1  0  0  0  0
 33 10  1  0  0  0  0
M  END
>  <HBA>
0

>  <HBD>
0

>  <TPSA>
0.0

>  <cid>
41497

>  <dipole>
0.06

>  <excitation_energy_1>
5.333

>  <excitation_energy_2>
5.366

>  <excitation_energy_3>
5.452

>  <excitation_energy_4>
5.666

>  <homo_energy>
-5.633

>  <homo_lumo_gap>
5.385

>  <logP>
4.335

>  <lumo_energy>
-0.248

>  <melting_point>
7.72

>  <molecular_refractivity>
58.59

>  <oscillator_strength_1>
0.6219

>  <oscillator_strength_2>
0.4321

>  <oscillator_strength_3>
0.0173

>  <oscillator_strength_4>
0.0162

>  <open_babel_can_smiles>
CCCC/C=C/C=C/C(C)(C)C

>  <mulliken_charges>
34
1   -0.441309
2   -0.439443
3   -0.439763
4   -0.453714
5   -0.247057
6   -0.24572
7   -0.304613
8   -0.114012
9   -0.103959
10   -0.112653
11   -0.124985
12   0.06538
13   0.141936
14   0.141514
15   0.142577
16   0.137933
17   0.138324
18   0.146782
19   0.138007
20   0.146986
21   0.138407
22   0.138383
23   0.144583
24   0.144608
25   0.130276
26   0.131107
27   0.136272
28   0.128408
29   0.138825
30   0.135693
31   0.116627
32   0.113416
33   0.119429
34   0.111752

>  <lowdin_charges>
34
1   -0.442422
2   -0.440519
3   -0.43749
4   -0.441826
5   -0.271124
6   -0.271922
7   -0.269049
8   -0.161918
9   -0.163907
10   -0.170042
11   -0.160177
12   0.017481
13   0.149164
14   0.146369
15   0.145508
16   0.146132
17   0.147501
18   0.151809
19   0.145964
20   0.149704
21   0.147189
22   0.148812
23   0.150361
24   0.147995
25   0.137231
26   0.13909
27   0.140773
28   0.138197
29   0.145236
30   0.144442
31   0.145806
32   0.147771
33   0.15238
34   0.145481

$$$$

