PCCDB-ID:  37220
public computational chemistry database (PCCDB) project, http://pccdb.org

 18 18  0  0  0  0  0  0  0  0999 V2000
    0.8923    0.0437    0.0077 C   0  0  0  0  0  0  0  0  0  0  0  0
    6.6941    0.9552   -0.4414 C   0  0  0  0  0  0  0  0  0  0  0  0
    2.3616   -0.2089    0.0793 C   0  0  0  0  0  0  0  0  0  0  0  0
    4.2914   -1.1323    0.1368 C   0  0  0  0  0  0  0  0  0  0  0  0
    4.5439    0.2276    0.2893 C   0  0  0  0  0  0  0  0  0  0  0  0
    2.9487   -1.3763    0.0008 N   0  0  0  0  0  0  0  0  0  0  0  0
    3.2951    0.7976    0.2479 N   0  0  0  0  0  0  0  0  0  0  0  0
    5.2360   -2.2073    0.1704 N   0  0  0  0  0  0  0  0  0  0  0  0
    6.4204   -1.9108    0.4059 O   0  0  0  0  0  0  0  0  0  0  0  0
    4.8286   -3.3494   -0.0150 O   0  0  0  0  0  0  0  0  0  0  0  0
    5.5964    1.0241    0.4970 O   0  0  0  0  0  0  0  0  0  0  0  0
    0.3854   -0.9127   -0.1329 H   0  0  0  0  0  0  0  0  0  0  0  0
    0.6313    0.7027   -0.8297 H   0  0  0  0  0  0  0  0  0  0  0  0
    0.5146    0.5058    0.9282 H   0  0  0  0  0  0  0  0  0  0  0  0
    7.4165    1.6905   -0.0856 H   0  0  0  0  0  0  0  0  0  0  0  0
    6.3438    1.2304   -1.4426 H   0  0  0  0  0  0  0  0  0  0  0  0
    7.1273   -0.0445   -0.4434 H   0  0  0  0  0  0  0  0  0  0  0  0
    3.1299    1.7914    0.3407 H   0  0  0  0  0  0  0  0  0  0  0  0
  1  3  1  0  0  0  0
  1 14  1  0  0  0  0
  2 15  1  0  0  0  0
  2 11  1  0  0  0  0
  3  7  1  0  0  0  0
  4  8  1  0  0  0  0
  4  5  2  0  0  0  0
  5 11  1  0  0  0  0
  6  3  2  0  0  0  0
  6  4  1  0  0  0  0
  7  5  1  0  0  0  0
  7 18  1  0  0  0  0
  8  9  2  0  0  0  0
 10  8  2  0  0  0  0
 12  1  1  0  0  0  0
 13  1  1  0  0  0  0
 16  2  1  0  0  0  0
 17  2  1  0  0  0  0
M  END
>  <HBA>
2

>  <HBD>
1

>  <TPSA>
83.73

>  <cid>
37220

>  <dipole>
7.28

>  <excitation_energy_1>
3.822

>  <excitation_energy_2>
4.14

>  <excitation_energy_3>
4.438

>  <excitation_energy_4>
4.982

>  <homo_energy>
-6.485

>  <homo_lumo_gap>
4.716

>  <logP>
1.158

>  <lumo_energy>
-1.769

>  <melting_point>
115.84

>  <molecular_refractivity>
38.87

>  <oscillator_strength_1>
0.0048

>  <oscillator_strength_2>
0.1354

>  <oscillator_strength_3>
0.0006

>  <oscillator_strength_4>
0.0029

>  <open_babel_can_smiles>
COc1[nH]c(nc1N(=O)=O)C

>  <mulliken_charges>
18
1   -0.534556
2   -0.240927
3   0.509318
4   0.384905
5   0.544503
6   -0.483946
7   -0.636812
8   0.353131
9   -0.435423
10   -0.387122
11   -0.507877
12   0.205046
13   0.169975
14   0.172543
15   0.17384
16   0.153054
17   0.214926
18   0.345422

>  <lowdin_charges>
18
1   -0.4478
2   -0.27559
3   0.067867
4   -0.041928
5   0.118925
6   -0.160486
7   -0.181921
8   0.30706
9   -0.285883
10   -0.22923
11   -0.187754
12   0.18963
13   0.167077
14   0.168287
15   0.166681
16   0.147106
17   0.17707
18   0.300889

$$$$

