PCCDB-ID:  22238
public computational chemistry database (PCCDB) project, http://pccdb.org

 13 12  0  0  0  0  0  0  0  0999 V2000
    0.9347    0.1462    0.0436 C   0  0  0  0  0  0  0  0  0  0  0  0
    2.4314    0.2624    0.0452 C   0  0  0  0  0  0  0  0  0  0  0  0
    3.2202    0.0706   -1.0169 C   0  0  0  0  0  0  0  0  0  0  0  0
    4.7110    0.1924   -0.9864 C   0  0  0  0  0  0  0  0  0  0  0  0
    5.5856   -1.3913   -1.4081 S   0  0  0  0  0  0  0  0  0  0  0  0
    0.5951   -0.6157    0.7583 H   0  0  0  0  0  0  0  0  0  0  0  0
    0.5522   -0.1227   -0.9466 H   0  0  0  0  0  0  0  0  0  0  0  0
    0.4629    1.0909    0.3459 H   0  0  0  0  0  0  0  0  0  0  0  0
    2.8917    0.5316    0.9981 H   0  0  0  0  0  0  0  0  0  0  0  0
    2.7820   -0.2086   -1.9753 H   0  0  0  0  0  0  0  0  0  0  0  0
    5.0640    0.5530   -0.0160 H   0  0  0  0  0  0  0  0  0  0  0  0
    5.0719    0.8888   -1.7520 H   0  0  0  0  0  0  0  0  0  0  0  0
    4.9975   -2.1436   -0.4529 H   0  0  0  0  0  0  0  0  0  0  0  0
  1  2  1  0  0  0  0
  1  8  1  0  0  0  0
  1  6  1  0  0  0  0
  2  9  1  0  0  0  0
  3  4  1  0  0  0  0
  3  2  2  0  0  0  0
  4 11  1  0  0  0  0
  5  4  1  0  0  0  0
  5 13  1  0  0  0  0
  7  1  1  0  0  0  0
 10  3  1  0  0  0  0
 12  4  1  0  0  0  0
M  END
>  <HBA>
1

>  <HBD>
1

>  <TPSA>
38.8

>  <cid>
22238

>  <dipole>
2.07

>  <excitation_energy_1>
5.173

>  <excitation_energy_2>
5.502

>  <excitation_energy_3>
6.065

>  <excitation_energy_4>
6.159

>  <homo_energy>
-6.319

>  <homo_lumo_gap>
6.498

>  <logP>
1.492

>  <lumo_energy>
0.18

>  <melting_point>
4.81

>  <molecular_refractivity>
28.8

>  <oscillator_strength_1>
0.0075

>  <oscillator_strength_2>
0.0672

>  <oscillator_strength_3>
0.0167

>  <oscillator_strength_4>
0.0062

>  <open_babel_can_smiles>
C/C=C/CS

>  <mulliken_charges>
13
1   -0.4865
2   -0.088482
3   -0.079583
4   -0.454651
5   -0.086139
6   0.157966
7   0.156623
8   0.158303
9   0.123065
10   0.135647
11   0.180037
12   0.185935
13   0.097778

>  <lowdin_charges>
13
1   -0.439167
2   -0.158899
3   -0.179069
4   -0.361272
5   -0.093932
6   0.159484
7   0.156627
8   0.158919
9   0.147755
10   0.156263
11   0.1623
12   0.173937
13   0.117053

$$$$

