PCCDB-ID:  65546
public computational chemistry database (PCCDB) project, http://pccdb.org

 24 24  0  0  1  0  0  0  0  0999 V2000
    0.3583    0.8708    0.6816 C   0  0  0  0  0  0  0  0  0  0  0  0
    0.5091   -3.0821    4.2849 C   0  0  0  0  0  0  0  0  0  0  0  0
   -0.1525   -3.1734    3.0600 C   0  0  0  0  0  0  0  0  0  0  0  0
    1.6827   -2.3305    4.3780 C   0  0  0  0  0  0  0  0  0  0  0  0
    0.3556   -2.5149    1.9382 C   0  0  0  0  0  0  0  0  0  0  0  0
    2.1870   -1.6767    3.2541 C   0  0  0  0  0  0  0  0  0  0  0  0
    2.0770   -1.0236    0.8099 C   0  0  0  0  0  0  0  0  0  0  0  0
    1.8338    0.5001    0.8412 C   0  0  1  0  0  0  0  0  0  0  0  0
    1.5303   -1.7552    2.0164 C   0  0  0  0  0  0  0  0  0  0  0  0
    2.5711    1.1231   -0.2726 N   0  0  0  0  0  0  0  0  0  0  0  0
    3.9823    1.1006    0.0559 O   0  0  0  0  0  0  0  0  0  0  0  0
   -0.2435    0.3849    1.4548 H   0  0  0  0  0  0  0  0  0  0  0  0
   -0.0149    0.5555   -0.2996 H   0  0  0  0  0  0  0  0  0  0  0  0
    0.2081    1.9540    0.7722 H   0  0  0  0  0  0  0  0  0  0  0  0
    0.1172   -3.5958    5.1588 H   0  0  0  0  0  0  0  0  0  0  0  0
   -1.0636   -3.7603    2.9744 H   0  0  0  0  0  0  0  0  0  0  0  0
    2.2095   -2.2586    5.3262 H   0  0  0  0  0  0  0  0  0  0  0  0
   -0.1633   -2.5955    0.9855 H   0  0  0  0  0  0  0  0  0  0  0  0
    3.1068   -1.1009    3.3330 H   0  0  0  0  0  0  0  0  0  0  0  0
    3.1604   -1.1759    0.7466 H   0  0  0  0  0  0  0  0  0  0  0  0
    1.6386   -1.4258   -0.1121 H   0  0  0  0  0  0  0  0  0  0  0  0
    2.2037    0.8880    1.8045 H   0  0  0  0  0  0  0  0  0  0  0  0
    2.3567    2.1225   -0.2555 H   0  0  0  0  0  0  0  0  0  0  0  0
    4.3629    0.6376   -0.7066 H   0  0  0  0  0  0  0  0  0  0  0  0
  1 14  1  0  0  0  0
  1  8  1  0  0  0  0
  1 12  1  0  0  0  0
  2  4  1  0  0  0  0
  2 15  1  0  0  0  0
  3  2  2  0  0  0  0
  4 17  1  0  0  0  0
  5  9  2  0  0  0  0
  5  3  1  0  0  0  0
  6 19  1  0  0  0  0
  6  4  2  0  0  0  0
  7  8  1  0  0  0  0
  7  9  1  0  0  0  0
  8 22  1  1  0  0  0
  9  6  1  0  0  0  0
 10 23  1  0  0  0  0
 10 11  1  0  0  0  0
 10  8  1  0  0  0  0
 13  1  1  0  0  0  0
 16  3  1  0  0  0  0
 18  5  1  0  0  0  0
 20  7  1  0  0  0  0
 21  7  1  0  0  0  0
 24 11  1  0  0  0  0
M  END
>  <HBA>
2

>  <HBD>
2

>  <TPSA>
32.26

>  <cid>
65546

>  <dipole>
0.59

>  <excitation_energy_1>
5.286

>  <excitation_energy_2>
5.828

>  <excitation_energy_3>
5.921

>  <excitation_energy_4>
6.019

>  <homo_energy>
-6.392

>  <homo_lumo_gap>
6.465

>  <logP>
1.987

>  <lumo_energy>
0.073

>  <melting_point>
86.91

>  <molecular_refractivity>
44.55

>  <oscillator_strength_1>
0.0013

>  <oscillator_strength_2>
0.047

>  <oscillator_strength_3>
0.004

>  <oscillator_strength_4>
0.0075

>  <open_babel_can_smiles>
ON[C@H](Cc1ccccc1)C

>  <mulliken_charges>
24
1   -0.473735
2   -0.13182
3   -0.128015
4   -0.128436
5   -0.187156
6   -0.182154
7   -0.345791
8   0.065706
9   0.166915
10   -0.361464
11   -0.536898
12   0.168355
13   0.154746
14   0.139896
15   0.126874
16   0.127202
17   0.127986
18   0.123078
19   0.130256
20   0.151221
21   0.140822
22   0.130024
23   0.312684
24   0.409703

>  <lowdin_charges>
24
1   -0.452833
2   -0.16314
3   -0.155746
4   -0.155615
5   -0.171081
6   -0.16624
7   -0.279811
8   -0.068541
9   -0.001429
10   -0.238412
11   -0.43381
12   0.167427
13   0.153847
14   0.146388
15   0.157181
16   0.156271
17   0.156663
18   0.153973
19   0.156931
20   0.15466
21   0.149633
22   0.130728
23   0.25301
24   0.349945

$$$$

