PCCDB-ID:  22243
public computational chemistry database (PCCDB) project, http://pccdb.org

 31 32  0  0  1  0  0  0  0  0999 V2000
   -0.9510   -3.0853   -0.9547 C   0  0  0  0  0  0  0  0  0  0  0  0
    2.8596   -3.1824    4.4821 C   0  0  0  0  0  0  0  0  0  0  0  0
   -0.7923   -2.7999    0.4031 C   0  0  0  0  0  0  0  0  0  0  0  0
   -0.1758   -2.4050   -1.8932 C   0  0  0  0  0  0  0  0  0  0  0  0
    2.6660   -1.7986    4.4874 C   0  0  0  0  0  0  0  0  0  0  0  0
    3.2051   -3.8221    3.2921 C   0  0  0  0  0  0  0  0  0  0  0  0
    0.1415   -1.8505    0.8169 C   0  0  0  0  0  0  0  0  0  0  0  0
    0.7543   -1.4485   -1.4776 C   0  0  0  0  0  0  0  0  0  0  0  0
    2.8084   -1.0690    3.3082 C   0  0  0  0  0  0  0  0  0  0  0  0
    3.3474   -3.0879    2.1124 C   0  0  0  0  0  0  0  0  0  0  0  0
    0.9314   -1.1615   -0.1167 C   0  0  0  0  0  0  0  0  0  0  0  0
    3.1395   -1.7055    2.1024 C   0  0  0  0  0  0  0  0  0  0  0  0
    1.9797   -0.1540    0.3497 C   0  0  1  0  0  0  0  0  0  0  0  0
    3.2872   -0.8831    0.8288 C   0  0  2  0  0  0  0  0  0  0  0  0
    2.2834    0.8230   -0.7040 N   0  0  0  0  0  0  0  0  0  0  0  0
    3.8348   -1.6197   -0.2599 O   0  0  0  0  0  0  0  0  0  0  0  0
   -1.6793   -3.8246   -1.2775 H   0  0  0  0  0  0  0  0  0  0  0  0
    2.7510   -3.7534    5.4003 H   0  0  0  0  0  0  0  0  0  0  0  0
   -1.3996   -3.3143    1.1434 H   0  0  0  0  0  0  0  0  0  0  0  0
   -0.3006   -2.6074   -2.9539 H   0  0  0  0  0  0  0  0  0  0  0  0
    2.4101   -1.2867    5.4116 H   0  0  0  0  0  0  0  0  0  0  0  0
    3.3709   -4.8963    3.2793 H   0  0  0  0  0  0  0  0  0  0  0  0
    0.2556   -1.6384    1.8759 H   0  0  0  0  0  0  0  0  0  0  0  0
    1.3151   -0.8886   -2.2188 H   0  0  0  0  0  0  0  0  0  0  0  0
    2.6669    0.0101    3.3281 H   0  0  0  0  0  0  0  0  0  0  0  0
    3.6441   -3.5864    1.1956 H   0  0  0  0  0  0  0  0  0  0  0  0
    1.5663    0.3978    1.2014 H   0  0  0  0  0  0  0  0  0  0  0  0
    4.0227   -0.0913    1.0222 H   0  0  0  0  0  0  0  0  0  0  0  0
    2.9780    0.4084   -1.3267 H   0  0  0  0  0  0  0  0  0  0  0  0
    2.7424    1.6303   -0.2848 H   0  0  0  0  0  0  0  0  0  0  0  0
    3.1299   -2.2058   -0.5889 H   0  0  0  0  0  0  0  0  0  0  0  0
  1  3  2  0  0  0  0
  2  5  1  0  0  0  0
  2 18  1  0  0  0  0
  3  7  1  0  0  0  0
  3 19  1  0  0  0  0
  4  8  2  0  0  0  0
  4  1  1  0  0  0  0
  5 21  1  0  0  0  0
  6  2  2  0  0  0  0
  7 23  1  0  0  0  0
  8 11  1  0  0  0  0
  9 25  1  0  0  0  0
  9  5  2  0  0  0  0
 10  6  1  0  0  0  0
 11 13  1  0  0  0  0
 11  7  2  0  0  0  0
 12 10  2  0  0  0  0
 12  9  1  0  0  0  0
 13 14  1  0  0  0  0
 13 27  1  1  0  0  0
 14 28  1  1  0  0  0
 14 12  1  0  0  0  0
 15 30  1  0  0  0  0
 15 13  1  0  0  0  0
 16 14  1  0  0  0  0
 17  1  1  0  0  0  0
 20  4  1  0  0  0  0
 22  6  1  0  0  0  0
 24  8  1  0  0  0  0
 26 10  1  0  0  0  0
 29 15  1  0  0  0  0
 31 16  1  0  0  0  0
M  END
>  <HBA>
2

>  <HBD>
2

>  <TPSA>
46.25

>  <cid>
22243

>  <dipole>
1.15

>  <excitation_energy_1>
5.198

>  <excitation_energy_2>
5.26

>  <excitation_energy_3>
5.295

>  <excitation_energy_4>
5.429

>  <homo_energy>
-6.28

>  <homo_lumo_gap>
6.041

>  <logP>
3.12

>  <lumo_energy>
-0.239

>  <melting_point>
109.75

>  <molecular_refractivity>
64.57

>  <oscillator_strength_1>
0.0153

>  <oscillator_strength_2>
0.003

>  <oscillator_strength_3>
0.0232

>  <oscillator_strength_4>
0.0149

>  <open_babel_can_smiles>
N[C@H]([C@@H](c1ccccc1)O)c1ccccc1

>  <mulliken_charges>
31
1   -0.128064
2   -0.129126
3   -0.13326
4   -0.131991
5   -0.132773
6   -0.129305
7   -0.172744
8   -0.192156
9   -0.189048
10   -0.178675
11   0.148482
12   0.156038
13   -0.096642
14   0.049546
15   -0.70748
16   -0.633352
17   0.128812
18   0.129256
19   0.1306
20   0.130173
21   0.129945
22   0.130623
23   0.139107
24   0.141374
25   0.121745
26   0.12962
27   0.14201
28   0.141759
29   0.307678
30   0.299448
31   0.398402

>  <lowdin_charges>
31
1   -0.158862
2   -0.160843
3   -0.156779
4   -0.156632
5   -0.156071
6   -0.14963
7   -0.161301
8   -0.173939
9   -0.170292
10   -0.163454
11   -0.016512
12   -0.021205
13   -0.087247
14   -0.016845
15   -0.54325
16   -0.454986
17   0.158089
18   0.158051
19   0.15958
20   0.156098
21   0.157973
22   0.15611
23   0.161579
24   0.165783
25   0.150284
26   0.160614
27   0.152584
28   0.149372
29   0.258579
30   0.258254
31   0.344899

$$$$

