PCCDB-ID:  66344
public computational chemistry database (PCCDB) project, http://pccdb.org

 41 41  0  0  0  0  0  0  0  0999 V2000
    1.6005    0.8349   -1.4715 C   0  0  0  0  0  0  0  0  0  0  0  0
    8.7667    6.6694   -2.4874 C   0  0  0  0  0  0  0  0  0  0  0  0
    2.2149    1.5153   -2.7008 C   0  0  0  0  0  0  0  0  0  0  0  0
    3.7004    1.1907   -2.9334 C   0  0  0  0  0  0  0  0  0  0  0  0
    3.9828   -0.2797   -3.2770 C   0  0  0  0  0  0  0  0  0  0  0  0
    5.4486   -0.5794   -3.6360 C   0  0  0  0  0  0  0  0  0  0  0  0
    6.4339   -0.4134   -2.4685 C   0  0  0  0  0  0  0  0  0  0  0  0
    7.8762   -0.8357   -2.7925 C   0  0  0  0  0  0  0  0  0  0  0  0
    8.6177    0.0573   -3.8160 C   0  0  0  0  0  0  0  0  0  0  0  0
    9.7803    1.7500   -2.3282 C   0  0  0  0  0  0  0  0  0  0  0  0
    8.1300    2.5522   -3.8842 C   0  0  0  0  0  0  0  0  0  0  0  0
    9.9892    3.0455   -1.8746 C   0  0  0  0  0  0  0  0  0  0  0  0
    8.3347    3.8556   -3.4326 C   0  0  0  0  0  0  0  0  0  0  0  0
    9.5340    5.4967   -1.8959 C   0  0  0  0  0  0  0  0  0  0  0  0
    8.8447    1.4768   -3.3411 C   0  0  0  0  0  0  0  0  0  0  0  0
    9.2673    4.1200   -2.4203 C   0  0  0  0  0  0  0  0  0  0  0  0
   10.3538    5.6794   -1.0077 O   0  0  0  0  0  0  0  0  0  0  0  0
    0.5606    1.1493   -1.3265 H   0  0  0  0  0  0  0  0  0  0  0  0
    2.1556    1.0919   -0.5605 H   0  0  0  0  0  0  0  0  0  0  0  0
    1.6029   -0.2570   -1.5635 H   0  0  0  0  0  0  0  0  0  0  0  0
    7.6867    6.5486   -2.3402 H   0  0  0  0  0  0  0  0  0  0  0  0
    8.9420    6.7537   -3.5665 H   0  0  0  0  0  0  0  0  0  0  0  0
    9.0968    7.5857   -1.9950 H   0  0  0  0  0  0  0  0  0  0  0  0
    2.1073    2.6033   -2.5945 H   0  0  0  0  0  0  0  0  0  0  0  0
    1.6403    1.2398   -3.5970 H   0  0  0  0  0  0  0  0  0  0  0  0
    4.2716    1.4842   -2.0417 H   0  0  0  0  0  0  0  0  0  0  0  0
    4.0741    1.8200   -3.7545 H   0  0  0  0  0  0  0  0  0  0  0  0
    3.3472   -0.5695   -4.1265 H   0  0  0  0  0  0  0  0  0  0  0  0
    3.6834   -0.9247   -2.4392 H   0  0  0  0  0  0  0  0  0  0  0  0
    5.7465    0.0642   -4.4763 H   0  0  0  0  0  0  0  0  0  0  0  0
    5.5164   -1.6124   -4.0071 H   0  0  0  0  0  0  0  0  0  0  0  0
    6.0788   -1.0220   -1.6246 H   0  0  0  0  0  0  0  0  0  0  0  0
    6.4322    0.6258   -2.1161 H   0  0  0  0  0  0  0  0  0  0  0  0
    7.8745   -1.8659   -3.1757 H   0  0  0  0  0  0  0  0  0  0  0  0
    8.4595   -0.8561   -1.8623 H   0  0  0  0  0  0  0  0  0  0  0  0
    8.0675    0.0713   -4.7640 H   0  0  0  0  0  0  0  0  0  0  0  0
    9.5888   -0.4084   -4.0305 H   0  0  0  0  0  0  0  0  0  0  0  0
   10.3539    0.9319   -1.8975 H   0  0  0  0  0  0  0  0  0  0  0  0
    7.4058    2.3666   -4.6738 H   0  0  0  0  0  0  0  0  0  0  0  0
   10.7134    3.2579   -1.0948 H   0  0  0  0  0  0  0  0  0  0  0  0
    7.7638    4.6648   -3.8778 H   0  0  0  0  0  0  0  0  0  0  0  0
  1 18  1  0  0  0  0
  1 19  1  0  0  0  0
  2 21  1  0  0  0  0
  2 23  1  0  0  0  0
  2 14  1  0  0  0  0
  3 24  1  0  0  0  0
  3  1  1  0  0  0  0
  4  3  1  0  0  0  0
  4 26  1  0  0  0  0
  5  4  1  0  0  0  0
  5 29  1  0  0  0  0
  6  5  1  0  0  0  0
  6  7  1  0  0  0  0
  7 33  1  0  0  0  0
  7 32  1  0  0  0  0
  8  7  1  0  0  0  0
  8 35  1  0  0  0  0
  9 15  1  0  0  0  0
  9  8  1  0  0  0  0
 10 38  1  0  0  0  0
 10 12  1  0  0  0  0
 11 13  2  0  0  0  0
 11 15  1  0  0  0  0
 12 40  1  0  0  0  0
 13 16  1  0  0  0  0
 14 17  2  0  0  0  0
 15 10  2  0  0  0  0
 16 14  1  0  0  0  0
 16 12  2  0  0  0  0
 20  1  1  0  0  0  0
 22  2  1  0  0  0  0
 25  3  1  0  0  0  0
 27  4  1  0  0  0  0
 28  5  1  0  0  0  0
 30  6  1  0  0  0  0
 31  6  1  0  0  0  0
 34  8  1  0  0  0  0
 36  9  1  0  0  0  0
 37  9  1  0  0  0  0
 39 11  1  0  0  0  0
 41 13  1  0  0  0  0
M  END
>  <HBA>
1

>  <HBD>
0

>  <TPSA>
17.07

>  <cid>
66344

>  <dipole>
3.33

>  <excitation_energy_1>
3.762

>  <excitation_energy_2>
4.71

>  <excitation_energy_3>
4.928

>  <excitation_energy_4>
5.526

>  <homo_energy>
-6.634

>  <homo_lumo_gap>
5.252

>  <logP>
4.792

>  <lumo_energy>
-1.382

>  <melting_point>
38.4

>  <molecular_refractivity>
75.25

>  <oscillator_strength_1>
0.0001

>  <oscillator_strength_2>
0.0187

>  <oscillator_strength_3>
0.3582

>  <oscillator_strength_4>
0.0001

>  <open_babel_can_smiles>
CCCCCCCCc1ccc(cc1)C(=O)C

>  <mulliken_charges>
41
1   -0.443307
2   -0.542692
3   -0.248967
4   -0.250444
5   -0.255383
6   -0.257231
7   -0.258367
8   -0.258411
9   -0.353523
10   -0.183231
11   -0.193396
12   -0.159451
13   -0.181876
14   0.40657
15   0.187624
16   0.076117
17   -0.455706
18   0.142118
19   0.14129
20   0.146229
21   0.169649
22   0.169478
23   0.180471
24   0.129841
25   0.128763
26   0.134425
27   0.122627
28   0.1258
29   0.132217
30   0.125792
31   0.126219
32   0.129957
33   0.146803
34   0.132499
35   0.136471
36   0.14585
37   0.148759
38   0.13115
39   0.129613
40   0.162767
41   0.132886

>  <lowdin_charges>
41
1   -0.444373
2   -0.472542
3   -0.271119
4   -0.279464
5   -0.278326
6   -0.276691
7   -0.281158
8   -0.270766
9   -0.277143
10   -0.166889
11   -0.171118
12   -0.126012
13   -0.150476
14   0.158839
15   0.015929
16   -0.056581
17   -0.244942
18   0.148644
19   0.146376
20   0.145197
21   0.167504
22   0.16726
23   0.174668
24   0.139192
25   0.138271
26   0.140524
27   0.13846
28   0.140293
29   0.140204
30   0.135348
31   0.138403
32   0.143002
33   0.145369
34   0.140991
35   0.144309
36   0.149214
37   0.1551
38   0.158863
39   0.15705
40   0.176488
41   0.162098

$$$$

