PCCDB-ID:  30076
public computational chemistry database (PCCDB) project, http://pccdb.org

 21 20  0  0  0  0  0  0  0  0999 V2000
    0.6826    0.8060   -0.2481 C   0  0  0  0  0  0  0  0  0  0  0  0
    5.4324    3.5139    2.8528 C   0  0  0  0  0  0  0  0  0  0  0  0
    2.1495    1.1642    0.0108 C   0  0  0  0  0  0  0  0  0  0  0  0
    2.3312    2.1567    1.1670 C   0  0  0  0  0  0  0  0  0  0  0  0
    3.7997    2.5221    1.4036 C   0  0  0  0  0  0  0  0  0  0  0  0
    3.4307    4.6528    2.3772 N   0  0  0  0  0  0  0  0  0  0  0  0
    4.0053    3.3129    2.6235 N   0  0  0  0  0  0  0  0  0  0  0  0
    0.5847    0.0979   -1.0787 H   0  0  0  0  0  0  0  0  0  0  0  0
    0.0955    1.6978   -0.4998 H   0  0  0  0  0  0  0  0  0  0  0  0
    0.2243    0.3476    0.6368 H   0  0  0  0  0  0  0  0  0  0  0  0
    5.9115    2.5382    2.9773 H   0  0  0  0  0  0  0  0  0  0  0  0
    5.5791    4.0802    3.7810 H   0  0  0  0  0  0  0  0  0  0  0  0
    5.9278    4.0595    2.0299 H   0  0  0  0  0  0  0  0  0  0  0  0
    2.5894    1.5863   -0.9036 H   0  0  0  0  0  0  0  0  0  0  0  0
    2.7171    0.2480    0.2273 H   0  0  0  0  0  0  0  0  0  0  0  0
    1.9203    1.7313    2.0929 H   0  0  0  0  0  0  0  0  0  0  0  0
    1.7510    3.0635    0.9455 H   0  0  0  0  0  0  0  0  0  0  0  0
    4.2015    3.0513    0.5197 H   0  0  0  0  0  0  0  0  0  0  0  0
    4.3776    1.5980    1.5323 H   0  0  0  0  0  0  0  0  0  0  0  0
    3.6657    5.1813    3.2219 H   0  0  0  0  0  0  0  0  0  0  0  0
    2.4222    4.5113    2.4704 H   0  0  0  0  0  0  0  0  0  0  0  0
  1  3  1  0  0  0  0
  1 10  1  0  0  0  0
  2 11  1  0  0  0  0
  2 12  1  0  0  0  0
  3 15  1  0  0  0  0
  3  4  1  0  0  0  0
  4  5  1  0  0  0  0
  4 16  1  0  0  0  0
  5 19  1  0  0  0  0
  5  7  1  0  0  0  0
  6 21  1  0  0  0  0
  6  7  1  0  0  0  0
  6 20  1  0  0  0  0
  7  2  1  0  0  0  0
  8  1  1  0  0  0  0
  9  1  1  0  0  0  0
 13  2  1  0  0  0  0
 14  3  1  0  0  0  0
 17  4  1  0  0  0  0
 18  5  1  0  0  0  0
M  END
>  <HBA>
2

>  <HBD>
1

>  <TPSA>
29.26

>  <cid>
30076

>  <dipole>
0.62

>  <excitation_energy_1>
4.785

>  <excitation_energy_2>
5.26

>  <excitation_energy_3>
5.478

>  <excitation_energy_4>
5.712

>  <homo_energy>
-5.132

>  <homo_lumo_gap>
7.29

>  <logP>
1.292

>  <lumo_energy>
2.158

>  <melting_point>
30.99

>  <molecular_refractivity>
31.75

>  <oscillator_strength_1>
0.0053

>  <oscillator_strength_2>
0.0125

>  <oscillator_strength_3>
0.0069

>  <oscillator_strength_4>
0.0613

>  <open_babel_can_smiles>
CCCCN(N)C

>  <mulliken_charges>
21
1   -0.440942
2   -0.285858
3   -0.251503
4   -0.269438
5   -0.082667
6   -0.589769
7   -0.325552
8   0.142399
9   0.141965
10   0.142174
11   0.150925
12   0.139313
13   0.133963
14   0.134934
15   0.131298
16   0.138185
17   0.132664
18   0.120205
19   0.130439
20   0.299088
21   0.308175

>  <lowdin_charges>
21
1   -0.445393
2   -0.363846
3   -0.271258
4   -0.28489
5   -0.206551
6   -0.486068
7   -0.150281
8   0.150118
9   0.14705
10   0.14736
11   0.15311
12   0.143782
13   0.131281
14   0.141386
15   0.139303
16   0.144013
17   0.140032
18   0.125153
19   0.142057
20   0.252265
21   0.251375

$$$$

