PCCDB-ID:  9260
public computational chemistry database (PCCDB) project, http://pccdb.org

 10 10  0  0  0  0  0  0  0  0999 V2000
   -0.7513    1.1605    0.0094 C   0  0  0  0  0  0  0  0  0  0  0  0
   -1.3441   -0.1005    0.0222 C   0  0  0  0  0  0  0  0  0  0  0  0
    0.6418    1.1909    0.0250 C   0  0  0  0  0  0  0  0  0  0  0  0
    0.7015   -1.0737    0.0642 C   0  0  0  0  0  0  0  0  0  0  0  0
   -0.6268   -1.2307    0.0497 N   0  0  0  0  0  0  0  0  0  0  0  0
    1.3838    0.0768    0.0526 N   0  0  0  0  0  0  0  0  0  0  0  0
   -1.3428    2.0701   -0.0116 H   0  0  0  0  0  0  0  0  0  0  0  0
   -2.4271   -0.2143    0.0098 H   0  0  0  0  0  0  0  0  0  0  0  0
    1.1851    2.1347    0.0150 H   0  0  0  0  0  0  0  0  0  0  0  0
    1.2948   -1.9859    0.0879 H   0  0  0  0  0  0  0  0  0  0  0  0
  1  2  2  0  0  0  0
  1  3  1  0  0  0  0
  2  5  1  0  0  0  0
  3  6  2  0  0  0  0
  4 10  1  0  0  0  0
  5  4  2  0  0  0  0
  6  4  1  0  0  0  0
  7  1  1  0  0  0  0
  8  2  1  0  0  0  0
  9  3  1  0  0  0  0
M  END
>  <HBA>
2

>  <HBD>
0

>  <TPSA>
25.78

>  <cid>
9260

>  <dipole>
2.29

>  <excitation_energy_1>
4.331

>  <excitation_energy_2>
4.644

>  <excitation_energy_3>
5.741

>  <excitation_energy_4>
5.784

>  <homo_energy>
-6.934

>  <homo_lumo_gap>
5.777

>  <logP>
0.477

>  <lumo_energy>
-1.156

>  <melting_point>
33.32

>  <molecular_refractivity>
22.03

>  <oscillator_strength_1>
0.0053

>  <oscillator_strength_2>
0.0

>  <oscillator_strength_3>
0.0

>  <oscillator_strength_4>
0.0379

>  <open_babel_can_smiles>
c1ccncn1

>  <mulliken_charges>
10
1   -0.139464
2   0.053543
3   0.053618
4   0.169772
5   -0.379815
6   -0.37986
7   0.150436
8   0.156452
9   0.156431
10   0.158886

>  <lowdin_charges>
10
1   -0.193588
2   -0.057881
3   -0.060334
4   -0.037814
5   -0.15542
6   -0.155466
7   0.172341
8   0.161129
9   0.163573
10   0.16346

$$$$

