PCCDB-ID:  33674
public computational chemistry database (PCCDB) project, http://pccdb.org

 13 13  0  0  0  0  0  0  0  0999 V2000
    1.3730   -0.2394    0.1076 C   0  0  0  0  0  0  0  0  0  0  0  0
   -0.4063    1.2618   -0.0161 C   0  0  0  0  0  0  0  0  0  0  0  0
   -0.8097   -1.0485   -0.0190 C   0  0  0  0  0  0  0  0  0  0  0  0
    0.8520    1.1222   -0.0494 N   0  0  0  0  0  0  0  0  0  0  0  0
    0.4216   -1.3435   -0.0524 N   0  0  0  0  0  0  0  0  0  0  0  0
   -1.3308    0.2327    0.1520 N   0  0  0  0  0  0  0  0  0  0  0  0
   -1.0216    2.4587   -0.1390 O   0  0  0  0  0  0  0  0  0  0  0  0
   -1.7941   -1.9659   -0.1442 O   0  0  0  0  0  0  0  0  0  0  0  0
    1.8414   -0.3224    1.1003 H   0  0  0  0  0  0  0  0  0  0  0  0
    2.1754   -0.3785   -0.6260 H   0  0  0  0  0  0  0  0  0  0  0  0
   -2.2952    0.4014   -0.1039 H   0  0  0  0  0  0  0  0  0  0  0  0
   -0.3036    3.1092   -0.2389 H   0  0  0  0  0  0  0  0  0  0  0  0
   -1.3389   -2.8209   -0.2457 H   0  0  0  0  0  0  0  0  0  0  0  0
  1  9  1  0  0  0  0
  2  6  1  0  0  0  0
  3  6  1  0  0  0  0
  4  2  2  0  0  0  0
  4  1  1  0  0  0  0
  5  3  2  0  0  0  0
  5  1  1  0  0  0  0
  7  2  1  0  0  0  0
  8  3  1  0  0  0  0
 10  1  1  0  0  0  0
 11  6  1  0  0  0  0
 12  7  1  0  0  0  0
 13  8  1  0  0  0  0
M  END
>  <HBA>
5

>  <HBD>
3

>  <TPSA>
70.23

>  <cid>
33674

>  <dipole>
1.29

>  <excitation_energy_1>
5.422

>  <excitation_energy_2>
5.57

>  <excitation_energy_3>
5.966

>  <excitation_energy_4>
5.97

>  <homo_energy>
-6.163

>  <homo_lumo_gap>
6.683

>  <logP>
-0.047

>  <lumo_energy>
0.52

>  <melting_point>
142.99

>  <molecular_refractivity>
35.75

>  <oscillator_strength_1>
0.0008

>  <oscillator_strength_2>
0.0115

>  <oscillator_strength_3>
0.0065

>  <oscillator_strength_4>
0.0007

>  <open_babel_can_smiles>
OC1=NCN=C(N1)O

>  <mulliken_charges>
13
1   -0.036787
2   0.677544
3   0.677492
4   -0.479795
5   -0.479793
6   -0.653781
7   -0.608989
8   -0.60898
9   0.153828
10   0.157945
11   0.354183
12   0.423565
13   0.423567

>  <lowdin_charges>
13
1   -0.126311
2   0.157634
3   0.158553
4   -0.270344
5   -0.270988
6   -0.265377
7   -0.364094
8   -0.362413
9   0.142443
10   0.150681
11   0.30554
12   0.372618
13   0.372057

$$$$

