PCCDB-ID:  8019
public computational chemistry database (PCCDB) project, http://pccdb.org

 13 12  0  0  0  0  0  0  0  0999 V2000
    2.5290   -0.0075   -0.8599 C   0  0  0  0  0  0  0  0  0  0  0  0
    4.4643   -0.5924    2.1910 C   0  0  0  0  0  0  0  0  0  0  0  0
    3.1941   -0.3870    1.3800 C   0  0  0  0  0  0  0  0  0  0  0  0
    5.3794    0.4702    1.9880 O   0  0  0  0  0  0  0  0  0  0  0  0
    3.5884   -0.3293    0.0170 O   0  0  0  0  0  0  0  0  0  0  0  0
    2.9430    0.0198   -1.8713 H   0  0  0  0  0  0  0  0  0  0  0  0
    2.0903    0.9750   -0.6242 H   0  0  0  0  0  0  0  0  0  0  0  0
    1.7288   -0.7633   -0.8219 H   0  0  0  0  0  0  0  0  0  0  0  0
    4.9092   -1.5643    1.9218 H   0  0  0  0  0  0  0  0  0  0  0  0
    4.2260   -0.6138    3.2596 H   0  0  0  0  0  0  0  0  0  0  0  0
    2.7077    0.5568    1.6760 H   0  0  0  0  0  0  0  0  0  0  0  0
    2.4798   -1.2110    1.5475 H   0  0  0  0  0  0  0  0  0  0  0  0
    5.4476    0.5678    1.0235 H   0  0  0  0  0  0  0  0  0  0  0  0
  1  8  1  0  0  0  0
  1  7  1  0  0  0  0
  1  5  1  0  0  0  0
  2 10  1  0  0  0  0
  3 12  1  0  0  0  0
  3 11  1  0  0  0  0
  3  2  1  0  0  0  0
  4  2  1  0  0  0  0
  5  3  1  0  0  0  0
  6  1  1  0  0  0  0
  9  2  1  0  0  0  0
 13  4  1  0  0  0  0
M  END
>  <HBA>
2

>  <HBD>
1

>  <TPSA>
29.46

>  <cid>
8019

>  <dipole>
2.4

>  <excitation_energy_1>
6.765

>  <excitation_energy_2>
6.846

>  <excitation_energy_3>
7.134

>  <excitation_energy_4>
7.155

>  <homo_energy>
-7.072

>  <homo_lumo_gap>
9.317

>  <logP>
-0.375

>  <lumo_energy>
2.245

>  <melting_point>
-14.9

>  <molecular_refractivity>
18.78

>  <oscillator_strength_1>
0.0201

>  <oscillator_strength_2>
0.0129

>  <oscillator_strength_3>
0.0104

>  <oscillator_strength_4>
0.0172

>  <open_babel_can_smiles>
COCCO

>  <mulliken_charges>
13
1   -0.191919
2   -0.033495
3   -0.03552
4   -0.621838
5   -0.474858
6   0.16064
7   0.135961
8   0.134587
9   0.130399
10   0.144254
11   0.130933
12   0.120311
13   0.400544

>  <lowdin_charges>
13
1   -0.278543
2   -0.136519
3   -0.149883
4   -0.466243
5   -0.281123
6   0.155464
7   0.134657
8   0.135116
9   0.131814
10   0.148217
11   0.133336
12   0.13159
13   0.342119

$$$$

