PCCDB-ID:  8304
public computational chemistry database (PCCDB) project, http://pccdb.org

 34 33  0  0  0  0  0  0  0  0999 V2000
    1.0123    7.4860    2.2303 C   0  0  0  0  0  0  0  0  0  0  0  0
   -0.0499    5.1692    2.1951 C   0  0  0  0  0  0  0  0  0  0  0  0
    2.3856    8.1377    6.6078 C   0  0  0  0  0  0  0  0  0  0  0  0
    4.7735    7.2540    6.5156 C   0  0  0  0  0  0  0  0  0  0  0  0
    0.2315    2.4947    5.4800 C   0  0  0  0  0  0  0  0  0  0  0  0
    2.2122    2.9658    7.0013 C   0  0  0  0  0  0  0  0  0  0  0  0
    0.2581    6.4172    3.0240 C   0  0  0  0  0  0  0  0  0  0  0  0
    3.4058    7.3006    5.8409 C   0  0  0  0  0  0  0  0  0  0  0  0
    1.2859    3.5051    5.9170 C   0  0  0  0  0  0  0  0  0  0  0  0
    0.9359    6.0987    4.2616 O   0  0  0  0  0  0  0  0  0  0  0  0
    2.9173    5.9438    5.7512 O   0  0  0  0  0  0  0  0  0  0  0  0
    2.0872    3.8300    4.7418 O   0  0  0  0  0  0  0  0  0  0  0  0
    2.4396    5.3555    4.2733 P   0  0  0  0  0  0  0  0  0  0  0  0
    0.4148    7.8172    1.3732 H   0  0  0  0  0  0  0  0  0  0  0  0
    1.9656    7.1002    1.8529 H   0  0  0  0  0  0  0  0  0  0  0  0
    1.2206    8.3559    2.8621 H   0  0  0  0  0  0  0  0  0  0  0  0
   -0.6786    5.4326    1.3366 H   0  0  0  0  0  0  0  0  0  0  0  0
   -0.5860    4.4288    2.7968 H   0  0  0  0  0  0  0  0  0  0  0  0
    0.8658    4.7037    1.8133 H   0  0  0  0  0  0  0  0  0  0  0  0
    2.7236    9.1770    6.6969 H   0  0  0  0  0  0  0  0  0  0  0  0
    2.2471    7.7307    7.6158 H   0  0  0  0  0  0  0  0  0  0  0  0
    1.4200    8.1211    6.0950 H   0  0  0  0  0  0  0  0  0  0  0  0
    5.4725    6.6488    5.9296 H   0  0  0  0  0  0  0  0  0  0  0  0
    4.6848    6.8056    7.5116 H   0  0  0  0  0  0  0  0  0  0  0  0
    5.1901    8.2619    6.6250 H   0  0  0  0  0  0  0  0  0  0  0  0
    0.7076    1.5982    5.0673 H   0  0  0  0  0  0  0  0  0  0  0  0
   -0.4210    2.9210    4.7117 H   0  0  0  0  0  0  0  0  0  0  0  0
   -0.3885    2.1965    6.3335 H   0  0  0  0  0  0  0  0  0  0  0  0
    1.6361    2.6887    7.8924 H   0  0  0  0  0  0  0  0  0  0  0  0
    2.9497    3.7217    7.2828 H   0  0  0  0  0  0  0  0  0  0  0  0
    2.7423    2.0764    6.6420 H   0  0  0  0  0  0  0  0  0  0  0  0
   -0.6922    6.8471    3.3624 H   0  0  0  0  0  0  0  0  0  0  0  0
    3.5216    7.7138    4.8271 H   0  0  0  0  0  0  0  0  0  0  0  0
    0.7953    4.4184    6.2676 H   0  0  0  0  0  0  0  0  0  0  0  0
  1 16  1  0  0  0  0
  1  7  1  0  0  0  0
  2 18  1  0  0  0  0
  2  7  1  0  0  0  0
  3 20  1  0  0  0  0
  3 21  1  0  0  0  0
  4 25  1  0  0  0  0
  4 24  1  0  0  0  0
  5  9  1  0  0  0  0
  5 28  1  0  0  0  0
  6 30  1  0  0  0  0
  6 29  1  0  0  0  0
  7 32  1  0  0  0  0
  7 10  1  0  0  0  0
  8  4  1  0  0  0  0
  8  3  1  0  0  0  0
  9 34  1  0  0  0  0
  9  6  1  0  0  0  0
 10 13  1  0  0  0  0
 11  8  1  0  0  0  0
 12  9  1  0  0  0  0
 13 12  1  0  0  0  0
 13 11  1  0  0  0  0
 14  1  1  0  0  0  0
 15  1  1  0  0  0  0
 17  2  1  0  0  0  0
 19  2  1  0  0  0  0
 22  3  1  0  0  0  0
 23  4  1  0  0  0  0
 26  5  1  0  0  0  0
 27  5  1  0  0  0  0
 31  6  1  0  0  0  0
 33  8  1  0  0  0  0
M  END
>  <HBA>
3

>  <HBD>
0

>  <TPSA>
41.28

>  <cid>
8304

>  <dipole>
1.64

>  <excitation_energy_1>
5.92

>  <excitation_energy_2>
6.018

>  <excitation_energy_3>
6.276

>  <excitation_energy_4>
6.311

>  <homo_energy>
-6.272

>  <homo_lumo_gap>
7.334

>  <logP>
3.488

>  <lumo_energy>
1.061

>  <melting_point>
-59.65

>  <molecular_refractivity>
56.61

>  <oscillator_strength_1>
0.0148

>  <oscillator_strength_2>
0.066

>  <oscillator_strength_3>
0.0422

>  <oscillator_strength_4>
0.0262

>  <open_babel_can_smiles>
CC(OP(OC(C)C)OC(C)C)C

>  <mulliken_charges>
34
1   -0.462981
2   -0.470409
3   -0.441553
4   -0.43978
5   -0.448742
6   -0.4453
7   0.152429
8   0.130011
9   0.128757
10   -0.609994
11   -0.580129
12   -0.559658
13   0.902145
14   0.144132
15   0.162965
16   0.153771
17   0.143368
18   0.164473
19   0.163846
20   0.135258
21   0.149278
22   0.166061
23   0.155945
24   0.15301
25   0.139914
26   0.152577
27   0.155002
28   0.140008
29   0.13521
30   0.169884
31   0.147816
32   0.137007
33   0.127081
34   0.148601

>  <lowdin_charges>
34
1   -0.460799
2   -0.460673
3   -0.451735
4   -0.449678
5   -0.45052
6   -0.453403
7   0.012829
8   0.016374
9   0.011982
10   -0.444314
11   -0.42749
12   -0.410563
13   0.7384
14   0.15497
15   0.159063
16   0.156003
17   0.154574
18   0.15978
19   0.160578
20   0.147869
21   0.15301
22   0.162125
23   0.15888
24   0.154568
25   0.15081
26   0.155337
27   0.154925
28   0.152283
29   0.149675
30   0.164883
31   0.153136
32   0.143767
33   0.13479
34   0.148566

$$$$

