PCCDB-ID:  18699
public computational chemistry database (PCCDB) project, http://pccdb.org

 29 28  0  0  0  0  0  0  0  0999 V2000
    1.7911    1.0973    0.8475 C   0  0  0  0  0  0  0  0  0  0  0  0
    3.5264    2.7872    0.2656 C   0  0  0  0  0  0  0  0  0  0  0  0
    3.8502    1.2849    2.2625 C   0  0  0  0  0  0  0  0  0  0  0  0
    5.6598   -1.1082   -1.2829 C   0  0  0  0  0  0  0  0  0  0  0  0
    6.3004    1.2110   -0.5952 C   0  0  0  0  0  0  0  0  0  0  0  0
    3.9293    0.2738   -0.1120 C   0  0  0  0  0  0  0  0  0  0  0  0
    6.0350   -0.5861    1.1184 C   0  0  0  0  0  0  0  0  0  0  0  0
    3.3136    1.3628    0.8209 C   0  0  0  0  0  0  0  0  0  0  0  0
    5.4627   -0.0147   -0.1965 C   0  0  0  0  0  0  0  0  0  0  0  0
    7.0113   -0.1557    1.6812 O   0  0  0  0  0  0  0  0  0  0  0  0
    5.4058   -1.6830    1.6301 O   0  0  0  0  0  0  0  0  0  0  0  0
    1.2755    1.8580    1.4452 H   0  0  0  0  0  0  0  0  0  0  0  0
    1.5634    0.1181    1.2869 H   0  0  0  0  0  0  0  0  0  0  0  0
    1.3628    1.1198   -0.1626 H   0  0  0  0  0  0  0  0  0  0  0  0
    2.9671    3.5120    0.8693 H   0  0  0  0  0  0  0  0  0  0  0  0
    3.1647    2.8684   -0.7673 H   0  0  0  0  0  0  0  0  0  0  0  0
    4.5749    3.0928    0.2797 H   0  0  0  0  0  0  0  0  0  0  0  0
    3.3255    2.0079    2.8985 H   0  0  0  0  0  0  0  0  0  0  0  0
    4.9192    1.5127    2.3190 H   0  0  0  0  0  0  0  0  0  0  0  0
    3.6984    0.2904    2.6975 H   0  0  0  0  0  0  0  0  0  0  0  0
    5.3657   -0.7156   -2.2625 H   0  0  0  0  0  0  0  0  0  0  0  0
    5.0564   -2.0044   -1.0940 H   0  0  0  0  0  0  0  0  0  0  0  0
    6.7092   -1.4160   -1.3420 H   0  0  0  0  0  0  0  0  0  0  0  0
    5.8773    1.6864   -1.4867 H   0  0  0  0  0  0  0  0  0  0  0  0
    7.3281    0.9099   -0.8191 H   0  0  0  0  0  0  0  0  0  0  0  0
    6.3536    1.9478    0.2075 H   0  0  0  0  0  0  0  0  0  0  0  0
    3.6020    0.4969   -1.1372 H   0  0  0  0  0  0  0  0  0  0  0  0
    3.4282   -0.6764    0.1333 H   0  0  0  0  0  0  0  0  0  0  0  0
    4.6407   -1.9172    1.0802 H   0  0  0  0  0  0  0  0  0  0  0  0
  1 13  1  0  0  0  0
  1 12  1  0  0  0  0
  2 17  1  0  0  0  0
  2  8  1  0  0  0  0
  2 15  1  0  0  0  0
  3 19  1  0  0  0  0
  3 20  1  0  0  0  0
  3 18  1  0  0  0  0
  4 22  1  0  0  0  0
  4  9  1  0  0  0  0
  5  9  1  0  0  0  0
  5 26  1  0  0  0  0
  6 28  1  0  0  0  0
  6  8  1  0  0  0  0
  7 11  1  0  0  0  0
  7 10  2  0  0  0  0
  8  1  1  0  0  0  0
  8  3  1  0  0  0  0
  9  6  1  0  0  0  0
  9  7  1  0  0  0  0
 14  1  1  0  0  0  0
 16  2  1  0  0  0  0
 21  4  1  0  0  0  0
 23  4  1  0  0  0  0
 24  5  1  0  0  0  0
 25  5  1  0  0  0  0
 27  6  1  0  0  0  0
 29 11  1  0  0  0  0
M  END
>  <HBA>
2

>  <HBD>
1

>  <TPSA>
37.3

>  <cid>
18699

>  <dipole>
4.11

>  <excitation_energy_1>
5.604

>  <excitation_energy_2>
6.376

>  <excitation_energy_3>
7.135

>  <excitation_energy_4>
7.277

>  <homo_energy>
-7.151

>  <homo_lumo_gap>
7.508

>  <logP>
2.533

>  <lumo_energy>
0.356

>  <melting_point>
85.98

>  <molecular_refractivity>
46.63

>  <oscillator_strength_1>
0.0025

>  <oscillator_strength_2>
0.0097

>  <oscillator_strength_3>
0.0198

>  <oscillator_strength_4>
0.0039

>  <open_babel_can_smiles>
OC(=O)C(CC(C)(C)C)(C)C

>  <mulliken_charges>
29
1   -0.443512
2   -0.446551
3   -0.469029
4   -0.453793
5   -0.442706
6   -0.272079
7   0.629838
8   0.103653
9   -0.042179
10   -0.455643
11   -0.583845
12   0.144393
13   0.136659
14   0.138774
15   0.141331
16   0.135199
17   0.150877
18   0.141299
19   0.167576
20   0.14529
21   0.158783
22   0.131969
23   0.167963
24   0.137041
25   0.157837
26   0.170962
27   0.138083
28   0.101359
29   0.410451

>  <lowdin_charges>
29
1   -0.442397
2   -0.44511
3   -0.452078
4   -0.438125
5   -0.437443
6   -0.274989
7   0.195707
8   0.014746
9   -0.029284
10   -0.241644
11   -0.360314
12   0.151564
13   0.144254
14   0.145771
15   0.150656
16   0.144146
17   0.152154
18   0.152267
19   0.158442
20   0.150021
21   0.157464
22   0.142805
23   0.160408
24   0.148824
25   0.159183
26   0.162907
27   0.147992
28   0.129102
29   0.352969

$$$$

