PCCDB-ID:  27760
public computational chemistry database (PCCDB) project, http://pccdb.org

 20 20  0  0  0  0  0  0  0  0999 V2000
    1.4800    1.4456    0.8288 C   0  0  0  0  0  0  0  0  0  0  0  0
    1.8218    0.8081   -0.5241 C   0  0  0  0  0  0  0  0  0  0  0  0
    2.7176   -0.4381   -0.4337 C   0  0  0  0  0  0  0  0  0  0  0  0
    4.1299   -0.1367    0.0881 C   0  0  0  0  0  0  0  0  0  0  0  0
    5.7097   -1.8827   -0.8847 C   0  0  0  0  0  0  0  0  0  0  0  0
    5.2029   -2.1673    1.1868 C   0  0  0  0  0  0  0  0  0  0  0  0
    6.3202   -2.9723   -0.4862 N   0  0  0  0  0  0  0  0  0  0  0  0
    5.9937   -3.1556    0.8465 N   0  0  0  0  0  0  0  0  0  0  0  0
    4.9859   -1.3202    0.1327 N   0  0  0  0  0  0  0  0  0  0  0  0
    0.7790    2.2775    0.7013 H   0  0  0  0  0  0  0  0  0  0  0  0
    2.3666    1.8440    1.3358 H   0  0  0  0  0  0  0  0  0  0  0  0
    1.0112    0.7165    1.5012 H   0  0  0  0  0  0  0  0  0  0  0  0
    2.3005    1.5548   -1.1737 H   0  0  0  0  0  0  0  0  0  0  0  0
    0.8910    0.5217   -1.0291 H   0  0  0  0  0  0  0  0  0  0  0  0
    2.8051   -0.8996   -1.4254 H   0  0  0  0  0  0  0  0  0  0  0  0
    2.2501   -1.1878    0.2184 H   0  0  0  0  0  0  0  0  0  0  0  0
    4.0965    0.2755    1.1007 H   0  0  0  0  0  0  0  0  0  0  0  0
    4.6203    0.6110   -0.5457 H   0  0  0  0  0  0  0  0  0  0  0  0
    5.7624   -1.4562   -1.8772 H   0  0  0  0  0  0  0  0  0  0  0  0
    4.7711   -2.0101    2.1660 H   0  0  0  0  0  0  0  0  0  0  0  0
  1 11  1  0  0  0  0
  1 12  1  0  0  0  0
  2  3  1  0  0  0  0
  2  1  1  0  0  0  0
  3  4  1  0  0  0  0
  3 16  1  0  0  0  0
  4  9  1  0  0  0  0
  4 17  1  0  0  0  0
  5  7  2  0  0  0  0
  5  9  1  0  0  0  0
  6 20  1  0  0  0  0
  7  8  1  0  0  0  0
  8  6  2  0  0  0  0
  9  6  1  0  0  0  0
 10  1  1  0  0  0  0
 13  2  1  0  0  0  0
 14  2  1  0  0  0  0
 15  3  1  0  0  0  0
 18  4  1  0  0  0  0
 19  5  1  0  0  0  0
M  END
>  <HBA>
3

>  <HBD>
0

>  <TPSA>
30.71

>  <cid>
27760

>  <dipole>
6.51

>  <excitation_energy_1>
5.753

>  <excitation_energy_2>
6.242

>  <excitation_energy_3>
6.32

>  <excitation_energy_4>
6.442

>  <homo_energy>
-6.705

>  <homo_lumo_gap>
7.246

>  <logP>
1.078

>  <lumo_energy>
0.542

>  <melting_point>
34.5

>  <molecular_refractivity>
35.7

>  <oscillator_strength_1>
0.0

>  <oscillator_strength_2>
0.0002

>  <oscillator_strength_3>
0.0125

>  <oscillator_strength_4>
0.0114

>  <open_babel_can_smiles>
CCCCn1cnnc1

>  <mulliken_charges>
20
1   -0.450339
2   -0.257967
3   -0.254089
4   -0.163538
5   0.205393
6   0.205504
7   -0.303704
8   -0.303843
9   -0.38029
10   0.15465
11   0.14587
12   0.149108
13   0.137355
14   0.148041
15   0.150363
16   0.150203
17   0.169472
18   0.16636
19   0.165649
20   0.1658

>  <lowdin_charges>
20
1   -0.450775
2   -0.275638
3   -0.283505
4   -0.194206
5   -0.111857
6   -0.111649
7   -0.139967
8   -0.140488
9   -0.012967
10   0.157278
11   0.147058
12   0.151411
13   0.143776
14   0.15202
15   0.151782
16   0.151459
17   0.160485
18   0.160336
19   0.172677
20   0.17277

$$$$

