PCCDB-ID:  10896
public computational chemistry database (PCCDB) project, http://pccdb.org

 28 27  0  0  1  0  0  0  0  0999 V2000
    2.2318   -0.7801    0.3899 C   0  0  0  0  0  0  0  0  0  0  0  0
    7.5602    4.1963   -1.9463 C   0  0  0  0  0  0  0  0  0  0  0  0
    9.6357    2.1334   -0.8473 C   0  0  0  0  0  0  0  0  0  0  0  0
    3.6663   -0.5995   -0.1171 C   0  0  0  0  0  0  0  0  0  0  0  0
    4.0527    0.8690   -0.3361 C   0  0  0  0  0  0  0  0  0  0  0  0
    5.4885    1.0536   -0.8432 C   0  0  0  0  0  0  0  0  0  0  0  0
    5.8702    2.5214   -1.0660 C   0  0  0  0  0  0  0  0  0  0  0  0
    7.3262    2.7354   -1.5174 C   0  0  2  0  0  0  0  0  0  0  0  0
    8.2350    2.2620   -0.4638 N   0  0  0  0  0  0  0  0  0  0  0  0
    1.9864   -1.8390    0.5316 H   0  0  0  0  0  0  0  0  0  0  0  0
    1.5053   -0.3621   -0.3181 H   0  0  0  0  0  0  0  0  0  0  0  0
    2.0837   -0.2729    1.3514 H   0  0  0  0  0  0  0  0  0  0  0  0
    6.9065    4.4740   -2.7818 H   0  0  0  0  0  0  0  0  0  0  0  0
    8.5944    4.3666   -2.2647 H   0  0  0  0  0  0  0  0  0  0  0  0
    7.3463    4.8818   -1.1151 H   0  0  0  0  0  0  0  0  0  0  0  0
   10.2086    1.7607    0.0088 H   0  0  0  0  0  0  0  0  0  0  0  0
   10.1222    3.0610   -1.1992 H   0  0  0  0  0  0  0  0  0  0  0  0
    9.7212    1.3913   -1.6501 H   0  0  0  0  0  0  0  0  0  0  0  0
    3.7932   -1.1510   -1.0597 H   0  0  0  0  0  0  0  0  0  0  0  0
    4.3676   -1.0546    0.5967 H   0  0  0  0  0  0  0  0  0  0  0  0
    3.9261    1.4202    0.6081 H   0  0  0  0  0  0  0  0  0  0  0  0
    3.3482    1.3251   -1.0484 H   0  0  0  0  0  0  0  0  0  0  0  0
    5.6121    0.5032   -1.7882 H   0  0  0  0  0  0  0  0  0  0  0  0
    6.1978    0.6091   -0.1351 H   0  0  0  0  0  0  0  0  0  0  0  0
    5.7053    3.0900   -0.1365 H   0  0  0  0  0  0  0  0  0  0  0  0
    5.2002    2.9686   -1.8140 H   0  0  0  0  0  0  0  0  0  0  0  0
    7.5110    2.0878   -2.3878 H   0  0  0  0  0  0  0  0  0  0  0  0
    8.1559    2.8799    0.3436 H   0  0  0  0  0  0  0  0  0  0  0  0
  1 10  1  0  0  0  0
  1 12  1  0  0  0  0
  2  8  1  0  0  0  0
  2 15  1  0  0  0  0
  3  9  1  0  0  0  0
  3 16  1  0  0  0  0
  4  1  1  0  0  0  0
  4 20  1  0  0  0  0
  5  4  1  0  0  0  0
  5 21  1  0  0  0  0
  6  5  1  0  0  0  0
  6 24  1  0  0  0  0
  7  6  1  0  0  0  0
  7 25  1  0  0  0  0
  8 27  1  6  0  0  0
  8  7  1  0  0  0  0
  8  9  1  0  0  0  0
  9 28  1  0  0  0  0
 11  1  1  0  0  0  0
 13  2  1  0  0  0  0
 14  2  1  0  0  0  0
 17  3  1  0  0  0  0
 18  3  1  0  0  0  0
 19  4  1  0  0  0  0
 22  5  1  0  0  0  0
 23  6  1  0  0  0  0
 26  7  1  0  0  0  0
M  END
>  <HBA>
1

>  <HBD>
1

>  <TPSA>
12.03

>  <cid>
10896

>  <dipole>
0.99

>  <excitation_energy_1>
5.338

>  <excitation_energy_2>
5.647

>  <excitation_energy_3>
5.907

>  <excitation_energy_4>
6.008

>  <homo_energy>
-5.739

>  <homo_lumo_gap>
8.014

>  <logP>
2.566

>  <lumo_energy>
2.275

>  <melting_point>
-0.71

>  <molecular_refractivity>
43.37

>  <oscillator_strength_1>
0.0028

>  <oscillator_strength_2>
0.0051

>  <oscillator_strength_3>
0.0075

>  <oscillator_strength_4>
0.0169

>  <open_babel_can_smiles>
CCCCC[C@H](NC)C

>  <mulliken_charges>
28
1   -0.440938
2   -0.454958
3   -0.300066
4   -0.245509
5   -0.246077
6   -0.249658
7   -0.254157
8   0.042527
9   -0.534899
10   0.139834
11   0.139561
12   0.139794
13   0.141252
14   0.145185
15   0.132965
16   0.147168
17   0.121179
18   0.149779
19   0.128508
20   0.130655
21   0.123095
22   0.12174
23   0.119524
24   0.152746
25   0.117015
26   0.124684
27   0.123456
28   0.285593

>  <lowdin_charges>
28
1   -0.444307
2   -0.463214
3   -0.362665
4   -0.273071
5   -0.27576
6   -0.277732
7   -0.278973
8   -0.062535
9   -0.359554
10   0.146827
11   0.146336
12   0.145151
13   0.151035
14   0.148412
15   0.143934
16   0.150936
17   0.120735
18   0.148159
19   0.138007
20   0.140406
21   0.135361
22   0.135553
23   0.13501
24   0.152037
25   0.134359
26   0.140861
27   0.136261
28   0.248431

$$$$

