PCCDB-ID:  27535
public computational chemistry database (PCCDB) project, http://pccdb.org

 24 23  0  0  0  0  0  0  0  0999 V2000
    2.5030    0.8117    1.1273 C   0  0  0  0  0  0  0  0  0  0  0  0
    2.9558   -1.6357    0.6474 C   0  0  0  0  0  0  0  0  0  0  0  0
    4.6660    2.1675   -3.7162 C   0  0  0  0  0  0  0  0  0  0  0  0
    5.1189   -0.2799   -4.1966 C   0  0  0  0  0  0  0  0  0  0  0  0
    3.2980    0.0918   -1.1441 C   0  0  0  0  0  0  0  0  0  0  0  0
    4.3239    0.4396   -1.9250 C   0  0  0  0  0  0  0  0  0  0  0  0
    3.3725   -0.1852    0.3377 C   0  0  0  0  0  0  0  0  0  0  0  0
    4.2493    0.7168   -3.4068 C   0  0  0  0  0  0  0  0  0  0  0  0
    2.5623    0.6169    2.2051 H   0  0  0  0  0  0  0  0  0  0  0  0
    1.4488    0.7313    0.8321 H   0  0  0  0  0  0  0  0  0  0  0  0
    2.8223    1.8440    0.9473 H   0  0  0  0  0  0  0  0  0  0  0  0
    3.0166   -1.8407    1.7232 H   0  0  0  0  0  0  0  0  0  0  0  0
    3.5986   -2.3524    0.1249 H   0  0  0  0  0  0  0  0  0  0  0  0
    1.9212   -1.8215    0.3312 H   0  0  0  0  0  0  0  0  0  0  0  0
    4.6053    2.3726   -4.7920 H   0  0  0  0  0  0  0  0  0  0  0  0
    5.7005    2.3533   -3.3999 H   0  0  0  0  0  0  0  0  0  0  0  0
    4.0230    2.8840   -3.1936 H   0  0  0  0  0  0  0  0  0  0  0  0
    5.0603   -0.0844   -5.2742 H   0  0  0  0  0  0  0  0  0  0  0  0
    4.7992   -1.3122   -4.0173 H   0  0  0  0  0  0  0  0  0  0  0  0
    6.1730   -0.2000   -3.9007 H   0  0  0  0  0  0  0  0  0  0  0  0
    2.3042   -0.0063   -1.5905 H   0  0  0  0  0  0  0  0  0  0  0  0
    5.3176    0.5380   -1.4786 H   0  0  0  0  0  0  0  0  0  0  0  0
    4.4163   -0.0546    0.6570 H   0  0  0  0  0  0  0  0  0  0  0  0
    3.2055    0.5862   -3.7261 H   0  0  0  0  0  0  0  0  0  0  0  0
  1  9  1  0  0  0  0
  2 12  1  0  0  0  0
  3  8  1  0  0  0  0
  3 16  1  0  0  0  0
  3 17  1  0  0  0  0
  4 19  1  0  0  0  0
  4 20  1  0  0  0  0
  4  8  1  0  0  0  0
  5  7  1  0  0  0  0
  6 22  1  0  0  0  0
  6  5  2  0  0  0  0
  7  2  1  0  0  0  0
  7 23  1  0  0  0  0
  7  1  1  0  0  0  0
  8  6  1  0  0  0  0
 10  1  1  0  0  0  0
 11  1  1  0  0  0  0
 13  2  1  0  0  0  0
 14  2  1  0  0  0  0
 15  3  1  0  0  0  0
 18  4  1  0  0  0  0
 21  5  1  0  0  0  0
 24  8  1  0  0  0  0
M  END
>  <HBA>
0

>  <HBD>
0

>  <TPSA>
0.0

>  <cid>
27535

>  <dipole>
0.0

>  <excitation_energy_1>
6.096

>  <excitation_energy_2>
6.366

>  <excitation_energy_3>
6.431

>  <excitation_energy_4>
6.716

>  <homo_energy>
-6.419

>  <homo_lumo_gap>
7.271

>  <logP>
2.855

>  <lumo_energy>
0.852

>  <melting_point>
-18.1

>  <molecular_refractivity>
40.1

>  <oscillator_strength_1>
0.047

>  <oscillator_strength_2>
0.0

>  <oscillator_strength_3>
0.0

>  <oscillator_strength_4>
0.4829

>  <open_babel_can_smiles>
CC(/C=C/C(C)C)C

>  <mulliken_charges>
24
1   -0.439102
2   -0.439469
3   -0.439444
4   -0.43914
5   -0.092181
6   -0.09224
7   -0.113354
8   -0.113327
9   0.139391
10   0.138441
11   0.146887
12   0.139443
13   0.146945
14   0.138508
15   0.13944
16   0.138502
17   0.14694
18   0.139389
19   0.146891
20   0.138449
21   0.109488
22   0.109493
23   0.125024
24   0.125024

>  <lowdin_charges>
24
1   -0.43848
2   -0.441714
3   -0.44171
4   -0.438489
5   -0.168152
6   -0.168154
7   -0.11503
8   -0.11503
9   0.145579
10   0.144195
11   0.150142
12   0.145748
13   0.152527
14   0.144573
15   0.145749
16   0.144573
17   0.152526
18   0.145576
19   0.150142
20   0.1442
21   0.142189
22   0.142189
23   0.138424
24   0.138426

$$$$

