PCCDB-ID:  60612
public computational chemistry database (PCCDB) project, http://pccdb.org

 31 32  0  0  1  0  0  0  0  0999 V2000
    1.1789    0.6749   -0.0903 C   0  0  0  0  0  0  0  0  0  0  0  0
    1.9086   -2.0906    0.4310 C   0  0  0  0  0  0  0  0  0  0  0  0
    4.6686   -3.2607    1.9505 C   0  0  0  0  0  0  0  0  0  0  0  0
    4.9658    0.8795   -0.3517 C   0  0  0  0  0  0  0  0  0  0  0  0
    3.6171    1.2223   -0.3456 C   0  0  0  0  0  0  0  0  0  0  0  0
    5.3337   -0.4369   -0.0913 C   0  0  0  0  0  0  0  0  0  0  0  0
    4.1025   -5.2180   -0.3638 C   0  0  0  0  0  0  0  0  0  0  0  0
    3.9525   -4.7991   -2.4549 C   0  0  0  0  0  0  0  0  0  0  0  0
    2.6335    0.2607   -0.0915 C   0  0  0  0  0  0  0  0  0  0  0  0
    3.0049   -1.0796    0.1652 C   0  0  0  0  0  0  0  0  0  0  0  0
    4.9049   -2.8354    0.4875 C   0  0  2  0  0  0  0  0  0  0  0  0
    4.3759   -1.4275    0.1753 C   0  0  0  0  0  0  0  0  0  0  0  0
    4.4382   -3.8877   -0.4877 C   0  0  0  0  0  0  0  0  0  0  0  0
    3.8015   -5.7762   -1.5892 N   0  0  0  0  0  0  0  0  0  0  0  0
    4.3420   -3.6387   -1.8456 N   0  0  0  0  0  0  0  0  0  0  0  0
    0.6744    0.3952    0.8425 H   0  0  0  0  0  0  0  0  0  0  0  0
    1.0818    1.7580   -0.2108 H   0  0  0  0  0  0  0  0  0  0  0  0
    0.6165    0.2002   -0.9054 H   0  0  0  0  0  0  0  0  0  0  0  0
    1.0854   -1.9761   -0.2830 H   0  0  0  0  0  0  0  0  0  0  0  0
    1.4750   -1.9528    1.4315 H   0  0  0  0  0  0  0  0  0  0  0  0
    2.2603   -3.1193    0.3575 H   0  0  0  0  0  0  0  0  0  0  0  0
    5.1757   -4.2093    2.1589 H   0  0  0  0  0  0  0  0  0  0  0  0
    3.6069   -3.3888    2.1777 H   0  0  0  0  0  0  0  0  0  0  0  0
    5.0740   -2.5029    2.6281 H   0  0  0  0  0  0  0  0  0  0  0  0
    5.7243    1.6312   -0.5533 H   0  0  0  0  0  0  0  0  0  0  0  0
    3.3171    2.2494   -0.5398 H   0  0  0  0  0  0  0  0  0  0  0  0
    6.3875   -0.7070   -0.0841 H   0  0  0  0  0  0  0  0  0  0  0  0
    4.0611   -5.8096    0.5407 H   0  0  0  0  0  0  0  0  0  0  0  0
    3.7940   -4.8670   -3.5231 H   0  0  0  0  0  0  0  0  0  0  0  0
    5.9968   -2.7634    0.3726 H   0  0  0  0  0  0  0  0  0  0  0  0
    4.4839   -2.7378   -2.2808 H   0  0  0  0  0  0  0  0  0  0  0  0
  1 16  1  0  0  0  0
  2 20  1  0  0  0  0
  3 22  1  0  0  0  0
  3 23  1  0  0  0  0
  3 24  1  0  0  0  0
  4  5  2  0  0  0  0
  4  6  1  0  0  0  0
  5  9  1  0  0  0  0
  6 27  1  0  0  0  0
  6 12  2  0  0  0  0
  7 28  1  0  0  0  0
  8 15  1  0  0  0  0
  8 14  2  0  0  0  0
  9  1  1  0  0  0  0
  9 10  2  0  0  0  0
 10 12  1  0  0  0  0
 10  2  1  0  0  0  0
 11 30  1  6  0  0  0
 11  3  1  0  0  0  0
 12 11  1  0  0  0  0
 13  7  2  0  0  0  0
 13 11  1  0  0  0  0
 14  7  1  0  0  0  0
 15 13  1  0  0  0  0
 17  1  1  0  0  0  0
 18  1  1  0  0  0  0
 19  2  1  0  0  0  0
 21  2  1  0  0  0  0
 25  4  1  0  0  0  0
 26  5  1  0  0  0  0
 29  8  1  0  0  0  0
 31 15  1  0  0  0  0
M  END
>  <HBA>
1

>  <HBD>
1

>  <TPSA>
28.68

>  <cid>
60612

>  <dipole>
3.63

>  <excitation_energy_1>
4.938

>  <excitation_energy_2>
5.03

>  <excitation_energy_3>
5.2

>  <excitation_energy_4>
5.246

>  <homo_energy>
-5.812

>  <homo_lumo_gap>
5.693

>  <logP>
3.178

>  <lumo_energy>
-0.12

>  <melting_point>
109.34

>  <molecular_refractivity>
62.78

>  <oscillator_strength_1>
0.0029

>  <oscillator_strength_2>
0.0079

>  <oscillator_strength_3>
0.0003

>  <oscillator_strength_4>
0.016

>  <open_babel_can_smiles>
Cc1cccc(c1C)[C@H](c1cnc[nH]1)C

>  <mulliken_charges>
31
1   -0.533213
2   -0.545614
3   -0.451514
4   -0.122301
5   -0.18494
6   -0.213019
7   -0.091637
8   0.205347
9   0.132027
10   0.073587
11   -0.243994
12   0.095515
13   0.332637
14   -0.429003
15   -0.606325
16   0.161817
17   0.154792
18   0.161865
19   0.156181
20   0.159597
21   0.180854
22   0.153762
23   0.159238
24   0.152975
25   0.127754
26   0.12227
27   0.124234
28   0.12884
29   0.151279
30   0.152395
31   0.334598

>  <lowdin_charges>
31
1   -0.441648
2   -0.452855
3   -0.438776
4   -0.16364
5   -0.166965
6   -0.178879
7   -0.180485
8   -0.093803
9   -0.005869
10   -0.013623
11   -0.118123
12   -0.023667
13   -0.015086
14   -0.189097
15   -0.185036
16   0.160037
17   0.155193
18   0.160011
19   0.159845
20   0.158441
21   0.170708
22   0.154942
23   0.155331
24   0.157852
25   0.158554
26   0.153254
27   0.151748
28   0.159881
29   0.162587
30   0.154285
31   0.294884

$$$$

