PCCDB-ID:  35728
public computational chemistry database (PCCDB) project, http://pccdb.org

 32 31  0  0  1  0  0  0  0  0999 V2000
    5.6310    3.0806   -4.1011 C   0  0  0  0  0  0  0  0  0  0  0  0
    8.0659    0.7249    3.3482 C   0  0  0  0  0  0  0  0  0  0  0  0
    5.5165    1.8040   -3.2596 C   0  0  0  0  0  0  0  0  0  0  0  0
    6.8421    0.5533    2.4426 C   0  0  0  0  0  0  0  0  0  0  0  0
    4.2434    1.7271   -2.3984 C   0  0  0  0  0  0  0  0  0  0  0  0
    4.0844    2.8226   -1.3272 C   0  0  0  0  0  0  0  0  0  0  0  0
    6.5374    1.8076    1.6130 C   0  0  0  0  0  0  0  0  0  0  0  0
    5.1962    2.8942   -0.2642 C   0  0  0  0  0  0  0  0  0  0  0  0
    5.3415    1.6547    0.6557 C   0  0  2  0  0  0  0  0  0  0  0  0
    4.0461    1.4805    1.4540 C   0  0  0  0  0  0  0  0  0  0  0  0
    3.7676    2.1347    2.4288 O   0  0  0  0  0  0  0  0  0  0  0  0
    3.1580    0.5589    0.9849 O   0  0  0  0  0  0  0  0  0  0  0  0
    6.5199    3.0494   -4.7412 H   0  0  0  0  0  0  0  0  0  0  0  0
    5.7082    3.9781   -3.4771 H   0  0  0  0  0  0  0  0  0  0  0  0
    4.7565    3.2041   -4.7521 H   0  0  0  0  0  0  0  0  0  0  0  0
    8.2591   -0.1823    3.9315 H   0  0  0  0  0  0  0  0  0  0  0  0
    7.9210    1.5509    4.0547 H   0  0  0  0  0  0  0  0  0  0  0  0
    8.9673    0.9433    2.7622 H   0  0  0  0  0  0  0  0  0  0  0  0
    6.4068    1.7051   -2.6235 H   0  0  0  0  0  0  0  0  0  0  0  0
    5.5302    0.9333   -3.9286 H   0  0  0  0  0  0  0  0  0  0  0  0
    5.9683    0.3041    3.0586 H   0  0  0  0  0  0  0  0  0  0  0  0
    7.0039   -0.3010    1.7688 H   0  0  0  0  0  0  0  0  0  0  0  0
    4.2047    0.7339   -1.9253 H   0  0  0  0  0  0  0  0  0  0  0  0
    3.3669    1.7672   -3.0600 H   0  0  0  0  0  0  0  0  0  0  0  0
    3.1135    2.6887   -0.8324 H   0  0  0  0  0  0  0  0  0  0  0  0
    4.0277    3.8008   -1.8211 H   0  0  0  0  0  0  0  0  0  0  0  0
    7.4220    2.0763    1.0194 H   0  0  0  0  0  0  0  0  0  0  0  0
    6.3322    2.6504    2.2840 H   0  0  0  0  0  0  0  0  0  0  0  0
    5.0140    3.7639    0.3792 H   0  0  0  0  0  0  0  0  0  0  0  0
    6.1656    3.0647   -0.7494 H   0  0  0  0  0  0  0  0  0  0  0  0
    5.5103    0.7643    0.0322 H   0  0  0  0  0  0  0  0  0  0  0  0
    3.5299    0.1134    0.2065 H   0  0  0  0  0  0  0  0  0  0  0  0
  1 14  1  0  0  0  0
  1  3  1  0  0  0  0
  2 16  1  0  0  0  0
  2 17  1  0  0  0  0
  3 19  1  0  0  0  0
  3  5  1  0  0  0  0
  4 21  1  0  0  0  0
  4  2  1  0  0  0  0
  5 23  1  0  0  0  0
  5  6  1  0  0  0  0
  6 25  1  0  0  0  0
  6  8  1  0  0  0  0
  7 28  1  0  0  0  0
  7  4  1  0  0  0  0
  8 29  1  0  0  0  0
  8  9  1  0  0  0  0
  9 31  1  6  0  0  0
  9 10  1  0  0  0  0
  9  7  1  0  0  0  0
 10 11  2  0  0  0  0
 12 10  1  0  0  0  0
 13  1  1  0  0  0  0
 15  1  1  0  0  0  0
 18  2  1  0  0  0  0
 20  3  1  0  0  0  0
 22  4  1  0  0  0  0
 24  5  1  0  0  0  0
 26  6  1  0  0  0  0
 27  7  1  0  0  0  0
 30  8  1  0  0  0  0
 32 12  1  0  0  0  0
M  END
>  <HBA>
2

>  <HBD>
1

>  <TPSA>
37.3

>  <cid>
35728

>  <dipole>
4.16

>  <excitation_energy_1>
5.647

>  <excitation_energy_2>
6.409

>  <excitation_energy_3>
7.08

>  <excitation_energy_4>
7.219

>  <homo_energy>
-7.222

>  <homo_lumo_gap>
7.532

>  <logP>
3.068

>  <lumo_energy>
0.31

>  <melting_point>
47.94

>  <molecular_refractivity>
51.96

>  <oscillator_strength_1>
0.002

>  <oscillator_strength_2>
0.0086

>  <oscillator_strength_3>
0.0041

>  <oscillator_strength_4>
0.0034

>  <open_babel_can_smiles>
CCCCC[C@H](C(=O)O)CCC

>  <mulliken_charges>
32
1   -0.445232
2   -0.442976
3   -0.252021
4   -0.264148
5   -0.25202
6   -0.285462
7   -0.251304
8   -0.270379
9   -0.192575
10   0.604689
11   -0.454557
12   -0.573682
13   0.146274
14   0.148409
15   0.144743
16   0.14511
17   0.150104
18   0.140177
19   0.133761
20   0.135261
21   0.153874
22   0.123976
23   0.101276
24   0.1387
25   0.151806
26   0.144512
27   0.1278
28   0.162205
29   0.160112
30   0.143052
31   0.11723
32   0.411286

>  <lowdin_charges>
32
1   -0.448168
2   -0.444083
3   -0.27739
4   -0.278096
5   -0.277996
6   -0.287668
7   -0.272513
8   -0.273148
9   -0.167522
10   0.193912
11   -0.245474
12   -0.357587
13   0.152566
14   0.148464
15   0.148598
16   0.151751
17   0.151439
18   0.145806
19   0.139195
20   0.144858
21   0.150377
22   0.135551
23   0.123657
24   0.146795
25   0.150648
26   0.149361
27   0.142262
28   0.158383
29   0.158673
30   0.146461
31   0.136416
32   0.354472

$$$$

