PCCDB-ID:  35101
public computational chemistry database (PCCDB) project, http://pccdb.org

 20 20  0  0  0  0  0  0  0  0999 V2000
    0.8593   -0.1578    0.4843 C   0  0  0  0  0  0  0  0  0  0  0  0
    2.6304   -1.7847   -0.3576 C   0  0  0  0  0  0  0  0  0  0  0  0
    3.8643    3.8289   -1.5280 C   0  0  0  0  0  0  0  0  0  0  0  0
    3.7066    3.5495    0.6841 C   0  0  0  0  0  0  0  0  0  0  0  0
    2.3371   -0.3599    0.1197 C   0  0  0  0  0  0  0  0  0  0  0  0
    3.1707    1.8550   -0.6959 C   0  0  0  0  0  0  0  0  0  0  0  0
    4.0219    4.3820   -0.3148 N   0  0  0  0  0  0  0  0  0  0  0  0
    3.4522    2.5981   -1.7964 N   0  0  0  0  0  0  0  0  0  0  0  0
    3.2764    2.2957    0.5786 N   0  0  0  0  0  0  0  0  0  0  0  0
    2.7689    0.5848   -0.9134 N   0  0  0  0  0  0  0  0  0  0  0  0
    0.5631   -0.8464    1.2841 H   0  0  0  0  0  0  0  0  0  0  0  0
    0.2126   -0.3430   -0.3821 H   0  0  0  0  0  0  0  0  0  0  0  0
    0.6889    0.8653    0.8323 H   0  0  0  0  0  0  0  0  0  0  0  0
    2.3372   -2.5099    0.4082 H   0  0  0  0  0  0  0  0  0  0  0  0
    3.6960   -1.9189   -0.5703 H   0  0  0  0  0  0  0  0  0  0  0  0
    2.0647   -2.0207   -1.2689 H   0  0  0  0  0  0  0  0  0  0  0  0
    4.0990    4.4593   -2.3851 H   0  0  0  0  0  0  0  0  0  0  0  0
    3.8091    3.9401    1.6961 H   0  0  0  0  0  0  0  0  0  0  0  0
    2.9445   -0.1413    1.0028 H   0  0  0  0  0  0  0  0  0  0  0  0
    2.6484    0.3384   -1.8875 H   0  0  0  0  0  0  0  0  0  0  0  0
  1 13  1  0  0  0  0
  1 11  1  0  0  0  0
  2  5  1  0  0  0  0
  2 14  1  0  0  0  0
  3  7  2  0  0  0  0
  4 18  1  0  0  0  0
  5  1  1  0  0  0  0
  5 19  1  0  0  0  0
  6  9  1  0  0  0  0
  7  4  2  0  0  0  0
  8  3  1  0  0  0  0
  8  6  2  0  0  0  0
  9  4  1  0  0  0  0
 10  6  1  0  0  0  0
 10  5  1  0  0  0  0
 12  1  1  0  0  0  0
 15  2  1  0  0  0  0
 16  2  1  0  0  0  0
 17  3  1  0  0  0  0
 20 10  1  0  0  0  0
M  RAD  1   9   2
M  END
>  <HBA>
4

>  <HBD>
1

>  <TPSA>
50.7

>  <cid>
35101

>  <dipole>
3.03

>  <excitation_energy_1>
4.658

>  <excitation_energy_2>
4.734

>  <excitation_energy_3>
4.753

>  <excitation_energy_4>
5.349

>  <homo_energy>
-6.523

>  <homo_lumo_gap>
5.592

>  <logP>
0.765

>  <lumo_energy>
-0.931

>  <melting_point>
83.06

>  <molecular_refractivity>
38.75

>  <oscillator_strength_1>
0.0101

>  <oscillator_strength_2>
0.0062

>  <oscillator_strength_3>
0.0092

>  <oscillator_strength_4>
0.002

>  <open_babel_can_smiles>
CC(NC1=NC=[N]=C[N]1)C

>  <mulliken_charges>
20
1   -0.438263
2   -0.461558
3   0.186523
4   0.184717
5   0.056324
6   0.664143
7   -0.399107
8   -0.455277
9   -0.453531
10   -0.623272
11   0.146151
12   0.139923
13   0.168328
14   0.158061
15   0.161161
16   0.142366
17   0.157099
18   0.156309
19   0.175456
20   0.334447

>  <lowdin_charges>
20
1   -0.452061
2   -0.448645
3   -0.014318
4   -0.010736
5   -0.049398
6   0.141021
7   -0.208152
8   -0.210231
9   -0.21365
10   -0.241193
11   0.154385
12   0.148243
13   0.162145
14   0.160932
15   0.157024
16   0.147889
17   0.162735
18   0.1604
19   0.164928
20   0.288683

$$$$

