PCCDB-ID:  26506
public computational chemistry database (PCCDB) project, http://pccdb.org

 36 36  0  0  0  0  0  0  0  0999 V2000
    4.2913    0.4964    0.1783 C   0  0  0  0  0  0  0  0  0  0  0  0
    2.1870    4.0788    2.3115 C   0  0  0  0  0  0  0  0  0  0  0  0
    1.1381    3.2688    1.5332 C   0  0  0  0  0  0  0  0  0  0  0  0
    3.5822    3.4434    2.2073 C   0  0  0  0  0  0  0  0  0  0  0  0
    1.1554    1.7888    1.9491 C   0  0  0  0  0  0  0  0  0  0  0  0
    3.5491    1.9647    2.6224 C   0  0  0  0  0  0  0  0  0  0  0  0
    1.5463   -0.9422   -0.3123 C   0  0  0  0  0  0  0  0  0  0  0  0
    1.9802    0.5146   -0.5625 C   0  0  0  0  0  0  0  0  0  0  0  0
    2.5472    1.1423    1.7792 C   0  0  0  0  0  0  0  0  0  0  0  0
   -0.1123   -2.5315   -1.1909 C   0  0  0  0  0  0  0  0  0  0  0  0
   -0.0587   -3.1973   -0.0951 N   0  0  0  0  0  0  0  0  0  0  0  0
   -0.8273   -2.8616   -2.3581 N   0  0  0  0  0  0  0  0  0  0  0  0
    0.6019   -1.3496   -1.3479 N   0  0  0  0  0  0  0  0  0  0  0  0
    2.9648    1.0791    0.3622 N   0  0  0  0  0  0  0  0  0  0  0  0
    4.4852    0.3762   -0.8926 H   0  0  0  0  0  0  0  0  0  0  0  0
    4.4218   -0.4915    0.6584 H   0  0  0  0  0  0  0  0  0  0  0  0
    5.0652    1.1617    0.5723 H   0  0  0  0  0  0  0  0  0  0  0  0
    1.8916    4.1244    3.3708 H   0  0  0  0  0  0  0  0  0  0  0  0
    2.2116    5.1154    1.9509 H   0  0  0  0  0  0  0  0  0  0  0  0
    1.3435    3.3492    0.4580 H   0  0  0  0  0  0  0  0  0  0  0  0
    0.1373    3.6888    1.6979 H   0  0  0  0  0  0  0  0  0  0  0  0
    4.2961    3.9922    2.8352 H   0  0  0  0  0  0  0  0  0  0  0  0
    3.9402    3.5192    1.1727 H   0  0  0  0  0  0  0  0  0  0  0  0
    0.3842    1.2257    1.4126 H   0  0  0  0  0  0  0  0  0  0  0  0
    0.8930    1.7101    3.0133 H   0  0  0  0  0  0  0  0  0  0  0  0
    3.2305    1.8868    3.6714 H   0  0  0  0  0  0  0  0  0  0  0  0
    4.5525    1.5277    2.5843 H   0  0  0  0  0  0  0  0  0  0  0  0
    1.0346   -1.0439    0.6473 H   0  0  0  0  0  0  0  0  0  0  0  0
    2.4174   -1.6136   -0.2726 H   0  0  0  0  0  0  0  0  0  0  0  0
    1.0860    1.1459   -0.5750 H   0  0  0  0  0  0  0  0  0  0  0  0
    2.4141    0.5884   -1.5703 H   0  0  0  0  0  0  0  0  0  0  0  0
    2.5072    0.1228    2.2111 H   0  0  0  0  0  0  0  0  0  0  0  0
   -0.7278   -3.9694   -0.1063 H   0  0  0  0  0  0  0  0  0  0  0  0
   -1.4993   -3.6067   -2.2185 H   0  0  0  0  0  0  0  0  0  0  0  0
   -1.2619   -2.0611   -2.8068 H   0  0  0  0  0  0  0  0  0  0  0  0
    0.9459   -1.2197   -2.2936 H   0  0  0  0  0  0  0  0  0  0  0  0
  1 14  1  0  0  0  0
  1 17  1  0  0  0  0
  1 16  1  0  0  0  0
  2 18  1  0  0  0  0
  3 21  1  0  0  0  0
  3  5  1  0  0  0  0
  3  2  1  0  0  0  0
  4  2  1  0  0  0  0
  4  6  1  0  0  0  0
  4 22  1  0  0  0  0
  5 25  1  0  0  0  0
  6 26  1  0  0  0  0
  7 29  1  0  0  0  0
  7 28  1  0  0  0  0
  8  7  1  0  0  0  0
  8 14  1  0  0  0  0
  9  5  1  0  0  0  0
  9 32  1  0  0  0  0
  9  6  1  0  0  0  0
 10 11  1  0  0  0  0
 12 34  1  0  0  0  0
 12 10  2  0  0  0  0
 13 10  1  0  0  0  0
 13  7  1  0  0  0  0
 14  9  1  0  0  0  0
 15  1  1  0  0  0  0
 19  2  1  0  0  0  0
 20  3  1  0  0  0  0
 23  4  1  0  0  0  0
 24  5  1  0  0  0  0
 27  6  1  0  0  0  0
 30  8  1  0  0  0  0
 31  8  1  0  0  0  0
 33 11  1  0  0  0  0
 35 12  1  0  0  0  0
 36 13  1  0  0  0  0
M  RAD  1  11   2
M  END
>  <HBA>
4

>  <HBD>
2

>  <TPSA>
67.64

>  <cid>
26506

>  <dipole>
2.47

>  <excitation_energy_1>
4.776

>  <excitation_energy_2>
5.082

>  <excitation_energy_3>
5.255

>  <excitation_energy_4>
5.268

>  <homo_energy>
-5.415

>  <homo_lumo_gap>
6.991

>  <logP>
1.925

>  <lumo_energy>
1.576

>  <melting_point>
122.36

>  <molecular_refractivity>
60.07

>  <oscillator_strength_1>
0.0069

>  <oscillator_strength_2>
0.0052

>  <oscillator_strength_3>
0.0073

>  <oscillator_strength_4>
0.0002

>  <open_babel_can_smiles>
CN(C1CCCCC1)CCNC(=[NH2])[NH]

>  <mulliken_charges>
36
1   -0.304969
2   -0.257184
3   -0.253211
4   -0.251234
5   -0.291552
6   -0.285393
7   -0.117506
8   -0.154171
9   0.065633
10   0.587136
11   -0.644075
12   -0.756738
13   -0.611381
14   -0.389088
15   0.140732
16   0.126467
17   0.15416
18   0.122593
19   0.12661
20   0.143861
21   0.12496
22   0.123968
23   0.145054
24   0.140959
25   0.130571
26   0.128282
27   0.133524
28   0.182953
29   0.143787
30   0.152537
31   0.121747
32   0.106925
33   0.262653
34   0.317465
35   0.320645
36   0.313279

>  <lowdin_charges>
36
1   -0.357314
2   -0.273201
3   -0.276786
4   -0.279925
5   -0.286738
6   -0.283187
7   -0.212328
8   -0.21323
9   -0.060286
10   0.123911
11   -0.477775
12   -0.517095
13   -0.309026
14   -0.190331
15   0.146491
16   0.123857
17   0.150533
18   0.132821
19   0.140074
20   0.143227
21   0.140224
22   0.141827
23   0.145292
24   0.147875
25   0.142635
26   0.140559
27   0.143286
28   0.166668
29   0.138725
30   0.148337
31   0.13454
32   0.118276
33   0.245958
34   0.274982
35   0.277544
36   0.269579

$$$$

