PCCDB-ID:  62430
public computational chemistry database (PCCDB) project, http://pccdb.org

 30 29  0  0  0  0  0  0  0  0999 V2000
    1.6915   -1.2430   -0.5943 C   0  0  0  0  0  0  0  0  0  0  0  0
    1.7611   -1.0319    1.9190 C   0  0  0  0  0  0  0  0  0  0  0  0
    3.7544   -1.8602    0.7120 C   0  0  0  0  0  0  0  0  0  0  0  0
    2.3205    1.6423    1.0353 C   0  0  0  0  0  0  0  0  0  0  0  0
    3.8868    0.8575   -0.6836 C   0  0  0  0  0  0  0  0  0  0  0  0
    0.9657    1.9700    0.3904 C   0  0  0  0  0  0  0  0  0  0  0  0
    5.1834    1.5909   -0.3094 C   0  0  0  0  0  0  0  0  0  0  0  0
    2.5752   -0.8654    0.6204 C   0  0  0  0  0  0  0  0  0  0  0  0
    3.1243    0.5214    0.5376 N   0  0  0  0  0  0  0  0  0  0  0  0
    1.1432    2.2710   -0.9907 O   0  0  0  0  0  0  0  0  0  0  0  0
    5.8959    0.8768    0.6839 O   0  0  0  0  0  0  0  0  0  0  0  0
    1.2866   -2.2551   -0.4743 H   0  0  0  0  0  0  0  0  0  0  0  0
    2.2678   -1.2277   -1.5251 H   0  0  0  0  0  0  0  0  0  0  0  0
    0.8533   -0.5519   -0.7178 H   0  0  0  0  0  0  0  0  0  0  0  0
    1.4908   -2.0857    2.0429 H   0  0  0  0  0  0  0  0  0  0  0  0
    0.8297   -0.4577    1.9199 H   0  0  0  0  0  0  0  0  0  0  0  0
    2.3526   -0.7340    2.7920 H   0  0  0  0  0  0  0  0  0  0  0  0
    3.3745   -2.8870    0.7645 H   0  0  0  0  0  0  0  0  0  0  0  0
    4.3497   -1.6698    1.6114 H   0  0  0  0  0  0  0  0  0  0  0  0
    4.4267   -1.8021   -0.1482 H   0  0  0  0  0  0  0  0  0  0  0  0
    2.1346    1.5100    2.1074 H   0  0  0  0  0  0  0  0  0  0  0  0
    2.9444    2.5389    0.9485 H   0  0  0  0  0  0  0  0  0  0  0  0
    4.1651   -0.0699   -1.1876 H   0  0  0  0  0  0  0  0  0  0  0  0
    3.2949    1.4499   -1.3905 H   0  0  0  0  0  0  0  0  0  0  0  0
    0.5499    2.8367    0.9326 H   0  0  0  0  0  0  0  0  0  0  0  0
    0.2593    1.1379    0.5208 H   0  0  0  0  0  0  0  0  0  0  0  0
    4.9619    2.6199    0.0246 H   0  0  0  0  0  0  0  0  0  0  0  0
    5.8304    1.6730   -1.1904 H   0  0  0  0  0  0  0  0  0  0  0  0
    0.2726    2.4595   -1.3721 H   0  0  0  0  0  0  0  0  0  0  0  0
    5.1925    0.5807    1.2934 H   0  0  0  0  0  0  0  0  0  0  0  0
  1 12  1  0  0  0  0
  1  8  1  0  0  0  0
  2 16  1  0  0  0  0
  2 15  1  0  0  0  0
  2 17  1  0  0  0  0
  3 18  1  0  0  0  0
  3 19  1  0  0  0  0
  4 21  1  0  0  0  0
  5  7  1  0  0  0  0
  5  9  1  0  0  0  0
  6 26  1  0  0  0  0
  6 25  1  0  0  0  0
  6  4  1  0  0  0  0
  7 27  1  0  0  0  0
  7 11  1  0  0  0  0
  8  3  1  0  0  0  0
  8  2  1  0  0  0  0
  9  8  1  0  0  0  0
  9  4  1  0  0  0  0
 10  6  1  0  0  0  0
 11 30  1  0  0  0  0
 13  1  1  0  0  0  0
 14  1  1  0  0  0  0
 20  3  1  0  0  0  0
 22  4  1  0  0  0  0
 23  5  1  0  0  0  0
 24  5  1  0  0  0  0
 28  7  1  0  0  0  0
 29 10  1  0  0  0  0
M  END
>  <HBA>
3

>  <HBD>
2

>  <TPSA>
43.7

>  <cid>
62430

>  <dipole>
4.16

>  <excitation_energy_1>
4.832

>  <excitation_energy_2>
5.267

>  <excitation_energy_3>
5.458

>  <excitation_energy_4>
5.618

>  <homo_energy>
-5.559

>  <homo_lumo_gap>
7.14

>  <logP>
0.072

>  <lumo_energy>
1.581

>  <melting_point>
23.0

>  <molecular_refractivity>
45.83

>  <oscillator_strength_1>
0.0138

>  <oscillator_strength_2>
0.007

>  <oscillator_strength_3>
0.0085

>  <oscillator_strength_4>
0.0045

>  <open_babel_can_smiles>
OCCN(C(C)(C)C)CCO

>  <mulliken_charges>
30
1   -0.442493
2   -0.466642
3   -0.443852
4   -0.14916
5   -0.168008
6   -0.036318
7   -0.025105
8   0.219957
9   -0.432386
10   -0.611892
11   -0.632901
12   0.134658
13   0.14614
14   0.14565
15   0.147029
16   0.142142
17   0.149907
18   0.136088
19   0.14401
20   0.155834
21   0.142566
22   0.154042
23   0.143329
24   0.167916
25   0.119381
26   0.122947
27   0.113766
28   0.133887
29   0.395416
30   0.394095

>  <lowdin_charges>
30
1   -0.456474
2   -0.447405
3   -0.447916
4   -0.211886
5   -0.230715
6   -0.152856
7   -0.142466
8   0.077479
9   -0.194024
10   -0.471096
11   -0.481088
12   0.146849
13   0.151919
14   0.151768
15   0.153792
16   0.146245
17   0.152889
18   0.146795
19   0.150663
20   0.154835
21   0.147472
22   0.155306
23   0.149006
24   0.155839
25   0.130268
26   0.125535
27   0.117385
28   0.143214
29   0.346029
30   0.332639

$$$$

