PCCDB-ID:  61934
public computational chemistry database (PCCDB) project, http://pccdb.org

 30 29  0  0  0  0  0  0  0  0999 V2000
    1.0396   -0.2452    0.0569 C   0  0  0  0  0  0  0  0  0  0  0  0
   11.1508    5.2558   -2.4157 C   0  0  0  0  0  0  0  0  0  0  0  0
    2.5324   -0.2228   -0.2850 C   0  0  0  0  0  0  0  0  0  0  0  0
   10.3479    4.5653   -3.5083 C   0  0  0  0  0  0  0  0  0  0  0  0
    2.9617    1.0696   -1.0063 C   0  0  0  0  0  0  0  0  0  0  0  0
    4.4165    1.0803   -1.3888 C   0  0  0  0  0  0  0  0  0  0  0  0
    5.3271    1.9539   -0.9501 C   0  0  0  0  0  0  0  0  0  0  0  0
    6.7840    1.9526   -1.3255 C   0  0  0  0  0  0  0  0  0  0  0  0
    7.1967    3.2408   -2.0531 C   0  0  0  0  0  0  0  0  0  0  0  0
    8.6741    3.2818   -2.3948 C   0  0  0  0  0  0  0  0  0  0  0  0
    9.4936    2.4471   -2.0747 O   0  0  0  0  0  0  0  0  0  0  0  0
    8.9651    4.3892   -3.1175 O   0  0  0  0  0  0  0  0  0  0  0  0
    0.7603   -1.1740    0.5670 H   0  0  0  0  0  0  0  0  0  0  0  0
    0.4244   -0.1636   -0.8479 H   0  0  0  0  0  0  0  0  0  0  0  0
    0.7711    0.5901    0.7154 H   0  0  0  0  0  0  0  0  0  0  0  0
   12.1710    5.4478   -2.7680 H   0  0  0  0  0  0  0  0  0  0  0  0
   11.2098    4.6253   -1.5240 H   0  0  0  0  0  0  0  0  0  0  0  0
   10.6954    6.2138   -2.1435 H   0  0  0  0  0  0  0  0  0  0  0  0
    2.7788   -1.0874   -0.9173 H   0  0  0  0  0  0  0  0  0  0  0  0
    3.1275   -0.3348    0.6309 H   0  0  0  0  0  0  0  0  0  0  0  0
   10.7715    3.5880   -3.7528 H   0  0  0  0  0  0  0  0  0  0  0  0
   10.2974    5.1762   -4.4131 H   0  0  0  0  0  0  0  0  0  0  0  0
    2.7401    1.9364   -0.3689 H   0  0  0  0  0  0  0  0  0  0  0  0
    2.3436    1.1825   -1.9111 H   0  0  0  0  0  0  0  0  0  0  0  0
    4.7358    0.2867   -2.0691 H   0  0  0  0  0  0  0  0  0  0  0  0
    5.0090    2.7467   -0.2681 H   0  0  0  0  0  0  0  0  0  0  0  0
    7.0128    1.0875   -1.9582 H   0  0  0  0  0  0  0  0  0  0  0  0
    7.4077    1.8467   -0.4276 H   0  0  0  0  0  0  0  0  0  0  0  0
    6.9720    4.1269   -1.4434 H   0  0  0  0  0  0  0  0  0  0  0  0
    6.6236    3.3702   -2.9794 H   0  0  0  0  0  0  0  0  0  0  0  0
  1 13  1  0  0  0  0
  1 15  1  0  0  0  0
  2 18  1  0  0  0  0
  2 17  1  0  0  0  0
  3  1  1  0  0  0  0
  3 20  1  0  0  0  0
  4 12  1  0  0  0  0
  4  2  1  0  0  0  0
  5 23  1  0  0  0  0
  5  3  1  0  0  0  0
  6  5  1  0  0  0  0
  6  7  2  0  0  0  0
  7 26  1  0  0  0  0
  8  7  1  0  0  0  0
  8 28  1  0  0  0  0
  9 29  1  0  0  0  0
  9  8  1  0  0  0  0
 10 11  2  0  0  0  0
 10  9  1  0  0  0  0
 12 10  1  0  0  0  0
 14  1  1  0  0  0  0
 16  2  1  0  0  0  0
 19  3  1  0  0  0  0
 21  4  1  0  0  0  0
 22  4  1  0  0  0  0
 24  5  1  0  0  0  0
 25  6  1  0  0  0  0
 27  8  1  0  0  0  0
 30  9  1  0  0  0  0
M  END
>  <HBA>
2

>  <HBD>
0

>  <TPSA>
26.3

>  <cid>
61934

>  <dipole>
1.55

>  <excitation_energy_1>
5.782

>  <excitation_energy_2>
6.106

>  <excitation_energy_3>
6.159

>  <excitation_energy_4>
6.432

>  <homo_energy>
-6.493

>  <homo_lumo_gap>
6.936

>  <logP>
2.686

>  <lumo_energy>
0.444

>  <melting_point>
-6.99

>  <molecular_refractivity>
50.99

>  <oscillator_strength_1>
0.0008

>  <oscillator_strength_2>
0.0141

>  <oscillator_strength_3>
0.0354

>  <oscillator_strength_4>
0.0004

>  <open_babel_can_smiles>
CCC/C=C/CCC(=O)OCC

>  <mulliken_charges>
30
1   -0.441916
2   -0.461614
3   -0.246634
4   -0.043665
5   -0.295665
6   -0.093017
7   -0.100453
8   -0.298787
9   -0.360943
10   0.625057
11   -0.480806
12   -0.464575
13   0.143984
14   0.141539
15   0.142202
16   0.149869
17   0.175364
18   0.156231
19   0.132388
20   0.139537
21   0.169665
22   0.151432
23   0.134052
24   0.136897
25   0.116163
26   0.113837
27   0.153256
28   0.159807
29   0.170443
30   0.176353

>  <lowdin_charges>
30
1   -0.446198
2   -0.454545
3   -0.271753
4   -0.127411
5   -0.271745
6   -0.166143
7   -0.173185
8   -0.266938
9   -0.301167
10   0.199884
11   -0.270269
12   -0.201043
13   0.150792
14   0.146602
15   0.147408
16   0.157738
17   0.165156
18   0.1554
19   0.14053
20   0.143783
21   0.158124
22   0.151765
23   0.144147
24   0.145639
25   0.145856
26   0.144293
27   0.155495
28   0.158992
29   0.168329
30   0.170464

$$$$

