PCCDB-ID:  564
public computational chemistry database (PCCDB) project, http://pccdb.org

 22 21  0  0  0  0  0  0  0  0999 V2000
    1.2670    0.0132   -0.1911 C   0  0  0  0  0  0  0  0  0  0  0  0
    1.2630   -1.3785    0.4511 C   0  0  0  0  0  0  0  0  0  0  0  0
    2.6780    0.5165   -0.5180 C   0  0  0  0  0  0  0  0  0  0  0  0
   -0.1472   -1.8716    0.7814 C   0  0  0  0  0  0  0  0  0  0  0  0
    2.7092    1.9258   -1.1197 C   0  0  0  0  0  0  0  0  0  0  0  0
   -0.1673   -3.2526    1.4253 C   0  0  0  0  0  0  0  0  0  0  0  0
    2.1500    2.9132   -0.1857 N   0  0  0  0  0  0  0  0  0  0  0  0
    0.8076   -3.9185    1.6648 O   0  0  0  0  0  0  0  0  0  0  0  0
   -1.4076   -3.7299    1.7366 O   0  0  0  0  0  0  0  0  0  0  0  0
    0.7778    0.7392    0.4693 H   0  0  0  0  0  0  0  0  0  0  0  0
    0.6715   -0.0072   -1.1167 H   0  0  0  0  0  0  0  0  0  0  0  0
    1.8587   -1.3716    1.3722 H   0  0  0  0  0  0  0  0  0  0  0  0
    1.7463   -2.1070   -0.2117 H   0  0  0  0  0  0  0  0  0  0  0  0
    3.1668   -0.1733   -1.2203 H   0  0  0  0  0  0  0  0  0  0  0  0
    3.2928    0.5035    0.3953 H   0  0  0  0  0  0  0  0  0  0  0  0
   -0.7661   -1.9067   -0.1282 H   0  0  0  0  0  0  0  0  0  0  0  0
   -0.6516   -1.1666    1.4595 H   0  0  0  0  0  0  0  0  0  0  0  0
    2.0912    1.9449   -2.0273 H   0  0  0  0  0  0  0  0  0  0  0  0
    3.7424    2.1532   -1.4393 H   0  0  0  0  0  0  0  0  0  0  0  0
    2.7747    3.0111    0.6147 H   0  0  0  0  0  0  0  0  0  0  0  0
    2.1205    3.8296   -0.6297 H   0  0  0  0  0  0  0  0  0  0  0  0
   -2.0843   -3.0800    1.4839 H   0  0  0  0  0  0  0  0  0  0  0  0
  1  2  1  0  0  0  0
  1 10  1  0  0  0  0
  2  4  1  0  0  0  0
  2 12  1  0  0  0  0
  3  1  1  0  0  0  0
  3 15  1  0  0  0  0
  4  6  1  0  0  0  0
  4 17  1  0  0  0  0
  5  3  1  0  0  0  0
  5  7  1  0  0  0  0
  6  8  2  0  0  0  0
  6  9  1  0  0  0  0
  7 20  1  0  0  0  0
 11  1  1  0  0  0  0
 13  2  1  0  0  0  0
 14  3  1  0  0  0  0
 16  4  1  0  0  0  0
 18  5  1  0  0  0  0
 19  5  1  0  0  0  0
 21  7  1  0  0  0  0
 22  9  1  0  0  0  0
M  END
>  <HBA>
3

>  <HBD>
2

>  <TPSA>
63.32

>  <cid>
564

>  <dipole>
4.51

>  <excitation_energy_1>
5.642

>  <excitation_energy_2>
5.744

>  <excitation_energy_3>
5.913

>  <excitation_energy_4>
6.232

>  <homo_energy>
-6.392

>  <homo_lumo_gap>
6.811

>  <logP>
1.29

>  <lumo_energy>
0.419

>  <melting_point>
104.84

>  <molecular_refractivity>
35.44

>  <oscillator_strength_1>
0.0089

>  <oscillator_strength_2>
0.0003

>  <oscillator_strength_3>
0.001

>  <oscillator_strength_4>
0.0008

>  <open_babel_can_smiles>
NCCCCCC(=O)O

>  <mulliken_charges>
22
1   -0.250748
2   -0.247112
3   -0.257279
4   -0.407072
5   -0.138076
6   0.607973
7   -0.713259
8   -0.438339
9   -0.57072
10   0.156562
11   0.120913
12   0.152224
13   0.151128
14   0.132187
15   0.126844
16   0.162105
17   0.16427
18   0.13679
19   0.114959
20   0.292036
21   0.297266
22   0.407348

>  <lowdin_charges>
22
1   -0.278657
2   -0.270177
3   -0.280289
4   -0.325295
5   -0.20369
6   0.198525
7   -0.559763
8   -0.237826
9   -0.36581
10   0.153518
11   0.135631
12   0.152504
13   0.152816
14   0.144955
15   0.137815
16   0.160107
17   0.162258
18   0.140282
19   0.11874
20   0.251614
21   0.254941
22   0.357801

$$$$

