PCCDB-ID:  9232
public computational chemistry database (PCCDB) project, http://pccdb.org

 16 18  0  0  1  0  0  0  0  0999 V2000
   -1.4927    0.0569    0.8067 C   0  0  0  0  0  0  0  0  0  0  0  0
   -1.1196    1.2010   -0.1470 C   0  0  0  0  0  0  0  0  0  0  0  0
   -0.7372   -1.2262    0.5228 C   0  0  2  0  0  0  0  0  0  0  0  0
    0.3748    1.3362   -0.3589 C   0  0  2  0  0  0  0  0  0  0  0  0
    0.6289   -1.1814   -0.0143 C   0  0  2  0  0  0  0  0  0  0  0  0
    1.2435    0.1528   -0.3133 C   0  0  2  0  0  0  0  0  0  0  0  0
   -0.4865   -1.5694   -0.8493 O   0  0  0  0  0  0  0  0  0  0  0  0
    1.2374    1.1129    0.7683 O   0  0  0  0  0  0  0  0  0  0  0  0
   -2.5724   -0.1306    0.7536 H   0  0  0  0  0  0  0  0  0  0  0  0
   -1.2698    0.3446    1.8414 H   0  0  0  0  0  0  0  0  0  0  0  0
   -1.5260    2.1463    0.2336 H   0  0  0  0  0  0  0  0  0  0  0  0
   -1.5752    1.0317   -1.1307 H   0  0  0  0  0  0  0  0  0  0  0  0
   -1.0097   -2.0801    1.1464 H   0  0  0  0  0  0  0  0  0  0  0  0
    0.6856    2.1700   -0.9919 H   0  0  0  0  0  0  0  0  0  0  0  0
    1.3172   -1.9963    0.2123 H   0  0  0  0  0  0  0  0  0  0  0  0
    2.1658    0.1465   -0.8950 H   0  0  0  0  0  0  0  0  0  0  0  0
  1 10  1  0  0  0  0
  2 11  1  0  0  0  0
  2  1  1  0  0  0  0
  3  1  1  0  0  0  0
  3 13  1  1  0  0  0
  4 14  1  6  0  0  0
  4  6  1  0  0  0  0
  4  2  1  0  0  0  0
  4  8  1  0  0  0  0
  5 15  1  1  0  0  0
  5  3  1  0  0  0  0
  6 16  1  6  0  0  0
  6  5  1  0  0  0  0
  6  8  1  0  0  0  0
  7  5  1  0  0  0  0
  7  3  1  0  0  0  0
  9  1  1  0  0  0  0
 12  2  1  0  0  0  0
M  END
>  <HBA>
2

>  <HBD>
0

>  <TPSA>
25.06

>  <cid>
9232

>  <dipole>
0.55

>  <excitation_energy_1>
6.741

>  <excitation_energy_2>
6.742

>  <excitation_energy_3>
7.114

>  <excitation_energy_4>
7.22

>  <homo_energy>
-7.097

>  <homo_lumo_gap>
8.86

>  <logP>
0.315

>  <lumo_energy>
1.763

>  <melting_point>
23.27

>  <molecular_refractivity>
26.78

>  <oscillator_strength_1>
0.0017

>  <oscillator_strength_2>
0.0276

>  <oscillator_strength_3>
0.0425

>  <oscillator_strength_4>
0.0193

>  <open_babel_can_smiles>
C1C[C@H]2O[C@H]2[C@H]2[C@@H]1O2

>  <mulliken_charges>
16
1   -0.290994
2   -0.291251
3   0.082223
4   0.082243
5   0.067194
6   0.066907
7   -0.457546
8   -0.457366
9   0.147945
10   0.163825
11   0.148007
12   0.16377
13   0.141977
14   0.141954
15   0.145526
16   0.145586

>  <lowdin_charges>
16
1   -0.279169
2   -0.281941
3   -0.017385
4   -0.018514
5   -0.038138
6   -0.034879
7   -0.289096
8   -0.288822
9   0.153122
10   0.161291
11   0.155103
12   0.161951
13   0.152516
14   0.152223
15   0.156431
16   0.155308

$$$$

