PCCDB-ID:  29969
public computational chemistry database (PCCDB) project, http://pccdb.org

 27 28  0  0  0  0  0  0  0  0999 V2000
    0.8385   -0.0202    0.1938 C   0  0  0  0  0  0  0  0  0  0  0  0
    7.4817    0.4880    0.7429 C   0  0  0  0  0  0  0  0  0  0  0  0
    6.6921    1.6085    0.4781 C   0  0  0  0  0  0  0  0  0  0  0  0
    6.8722   -0.7072    1.1287 C   0  0  0  0  0  0  0  0  0  0  0  0
    5.3032    1.5306    0.5943 C   0  0  0  0  0  0  0  0  0  0  0  0
    5.4830   -0.7824    1.2403 C   0  0  0  0  0  0  0  0  0  0  0  0
    3.3418   -1.5791   -2.3536 C   0  0  0  0  0  0  0  0  0  0  0  0
    3.8956   -0.1581   -2.4055 C   0  0  0  0  0  0  0  0  0  0  0  0
    3.1705    0.2604    1.0998 C   0  0  0  0  0  0  0  0  0  0  0  0
    4.6765    0.3320    0.9665 C   0  0  0  0  0  0  0  0  0  0  0  0
    2.3318   -0.1411   -0.1516 C   0  0  0  0  0  0  0  0  0  0  0  0
    2.7169   -1.9062   -0.6552 S   0  0  0  0  0  0  0  0  0  0  0  0
    2.6587    0.9404   -1.6243 S   0  0  0  0  0  0  0  0  0  0  0  0
    0.5969   -0.6434    1.0624 H   0  0  0  0  0  0  0  0  0  0  0  0
    0.2171   -0.3382   -0.6457 H   0  0  0  0  0  0  0  0  0  0  0  0
    0.5857    1.0171    0.4463 H   0  0  0  0  0  0  0  0  0  0  0  0
    8.5636    0.5485    0.6584 H   0  0  0  0  0  0  0  0  0  0  0  0
    7.1568    2.5475    0.1884 H   0  0  0  0  0  0  0  0  0  0  0  0
    7.4781   -1.5825    1.3483 H   0  0  0  0  0  0  0  0  0  0  0  0
    4.6955    2.4078    0.3909 H   0  0  0  0  0  0  0  0  0  0  0  0
    5.0168   -1.7160    1.5412 H   0  0  0  0  0  0  0  0  0  0  0  0
    4.1242   -2.3164   -2.5636 H   0  0  0  0  0  0  0  0  0  0  0  0
    2.5301   -1.7072   -3.0746 H   0  0  0  0  0  0  0  0  0  0  0  0
    4.0253    0.1809   -3.4389 H   0  0  0  0  0  0  0  0  0  0  0  0
    4.8515   -0.0826   -1.8822 H   0  0  0  0  0  0  0  0  0  0  0  0
    2.7949    1.2387    1.4265 H   0  0  0  0  0  0  0  0  0  0  0  0
    2.9090   -0.4508    1.8948 H   0  0  0  0  0  0  0  0  0  0  0  0
  1 16  1  0  0  0  0
  1 14  1  0  0  0  0
  2  4  2  0  0  0  0
  3  5  2  0  0  0  0
  3  2  1  0  0  0  0
  4  6  1  0  0  0  0
  4 19  1  0  0  0  0
  5 10  1  0  0  0  0
  6 21  1  0  0  0  0
  7 12  1  0  0  0  0
  8  7  1  0  0  0  0
  8 25  1  0  0  0  0
  8 13  1  0  0  0  0
  9 26  1  0  0  0  0
  9 27  1  0  0  0  0
 10  9  1  0  0  0  0
 10  6  2  0  0  0  0
 11  1  1  0  0  0  0
 11  9  1  0  0  0  0
 12 11  1  0  0  0  0
 13 11  1  0  0  0  0
 15  1  1  0  0  0  0
 17  2  1  0  0  0  0
 18  3  1  0  0  0  0
 20  5  1  0  0  0  0
 22  7  1  0  0  0  0
 23  7  1  0  0  0  0
 24  8  1  0  0  0  0
M  END
>  <HBA>
2

>  <HBD>
0

>  <TPSA>
50.6

>  <cid>
29969

>  <dipole>
0.92

>  <excitation_energy_1>
4.667

>  <excitation_energy_2>
4.779

>  <excitation_energy_3>
5.069

>  <excitation_energy_4>
5.199

>  <homo_energy>
-6.014

>  <homo_lumo_gap>
5.954

>  <logP>
3.425

>  <lumo_energy>
-0.06

>  <melting_point>
56.04

>  <molecular_refractivity>
63.74

>  <oscillator_strength_1>
0.0

>  <oscillator_strength_2>
0.0026

>  <oscillator_strength_3>
0.0014

>  <oscillator_strength_4>
0.0068

>  <open_babel_can_smiles>
CC1(SCCS1)Cc1ccccc1

>  <mulliken_charges>
27
1   -0.432865
2   -0.13092
3   -0.136106
4   -0.136235
5   -0.171092
6   -0.165542
7   -0.408529
8   -0.423354
9   -0.336217
10   0.163861
11   -0.244475
12   0.096482
13   0.111136
14   0.15792
15   0.177213
16   0.155568
17   0.127056
18   0.12801
19   0.127836
20   0.136349
21   0.137493
22   0.181903
23   0.186968
24   0.180254
25   0.206636
26   0.155001
27   0.155646

>  <lowdin_charges>
27
1   -0.444398
2   -0.15792
3   -0.162381
4   -0.162288
5   -0.162747
6   -0.159711
7   -0.373214
8   -0.374739
9   -0.277833
10   -0.007082
11   -0.171197
12   0.083005
13   0.100735
14   0.157666
15   0.169595
16   0.154027
17   0.154351
18   0.156962
19   0.157416
20   0.161914
21   0.162176
22   0.171615
23   0.164531
24   0.171529
25   0.173619
26   0.156678
27   0.157693

$$$$

