PCCDB-ID:  8183
public computational chemistry database (PCCDB) project, http://pccdb.org

 36 35  0  0  0  0  0  0  0  0999 V2000
    1.3550   -2.7003    3.8223 C   0  0  0  0  0  0  0  0  0  0  0  0
   10.7027   -5.7796    1.5780 C   0  0  0  0  0  0  0  0  0  0  0  0
    1.0692   -2.7192    2.5195 C   0  0  0  0  0  0  0  0  0  0  0  0
   10.3494   -4.5238    2.3813 C   0  0  0  0  0  0  0  0  0  0  0  0
    1.9785   -2.3167    1.3858 C   0  0  0  0  0  0  0  0  0  0  0  0
    9.3205   -3.6263    1.6806 C   0  0  0  0  0  0  0  0  0  0  0  0
    3.3846   -1.8513    1.7778 C   0  0  0  0  0  0  0  0  0  0  0  0
    8.9622   -2.3698    2.4863 C   0  0  0  0  0  0  0  0  0  0  0  0
    4.2393   -1.4649    0.5619 C   0  0  0  0  0  0  0  0  0  0  0  0
    7.9974   -1.4027    1.7794 C   0  0  0  0  0  0  0  0  0  0  0  0
    5.6393   -0.9296    0.9060 C   0  0  0  0  0  0  0  0  0  0  0  0
    6.5869   -1.9598    1.5377 C   0  0  0  0  0  0  0  0  0  0  0  0
    0.6246   -3.0110    4.5646 H   0  0  0  0  0  0  0  0  0  0  0  0
    2.3202   -2.3780    4.2034 H   0  0  0  0  0  0  0  0  0  0  0  0
   11.4385   -6.3987    2.1039 H   0  0  0  0  0  0  0  0  0  0  0  0
   11.1253   -5.5184    0.5998 H   0  0  0  0  0  0  0  0  0  0  0  0
    9.8144   -6.3979    1.3986 H   0  0  0  0  0  0  0  0  0  0  0  0
    0.0778   -3.0554    2.2108 H   0  0  0  0  0  0  0  0  0  0  0  0
   11.2628   -3.9440    2.5763 H   0  0  0  0  0  0  0  0  0  0  0  0
    9.9610   -4.8174    3.3671 H   0  0  0  0  0  0  0  0  0  0  0  0
    1.4794   -1.5224    0.8076 H   0  0  0  0  0  0  0  0  0  0  0  0
    2.0568   -3.1640    0.6858 H   0  0  0  0  0  0  0  0  0  0  0  0
    8.4146   -4.2148    1.4794 H   0  0  0  0  0  0  0  0  0  0  0  0
    9.7128   -3.3263    0.6968 H   0  0  0  0  0  0  0  0  0  0  0  0
    3.8802   -2.6473    2.3481 H   0  0  0  0  0  0  0  0  0  0  0  0
    3.3080   -0.9880    2.4541 H   0  0  0  0  0  0  0  0  0  0  0  0
    9.8891   -1.8289    2.7252 H   0  0  0  0  0  0  0  0  0  0  0  0
    8.5301   -2.6704    3.4527 H   0  0  0  0  0  0  0  0  0  0  0  0
    3.7029   -0.6997   -0.0173 H   0  0  0  0  0  0  0  0  0  0  0  0
    4.3383   -2.3350   -0.1044 H   0  0  0  0  0  0  0  0  0  0  0  0
    8.4343   -1.0939    0.8178 H   0  0  0  0  0  0  0  0  0  0  0  0
    7.9152   -0.4865    2.3816 H   0  0  0  0  0  0  0  0  0  0  0  0
    5.5410   -0.0653    1.5798 H   0  0  0  0  0  0  0  0  0  0  0  0
    6.1024   -0.5443   -0.0136 H   0  0  0  0  0  0  0  0  0  0  0  0
    6.1757   -2.3127    2.4941 H   0  0  0  0  0  0  0  0  0  0  0  0
    6.6389   -2.8416    0.8838 H   0  0  0  0  0  0  0  0  0  0  0  0
  1 14  1  0  0  0  0
  1 13  1  0  0  0  0
  2 15  1  0  0  0  0
  2  4  1  0  0  0  0
  3  1  2  0  0  0  0
  4 19  1  0  0  0  0
  4 20  1  0  0  0  0
  5  7  1  0  0  0  0
  5  3  1  0  0  0  0
  6  4  1  0  0  0  0
  6  8  1  0  0  0  0
  7 25  1  0  0  0  0
  7 26  1  0  0  0  0
  8 27  1  0  0  0  0
  8 28  1  0  0  0  0
  9 11  1  0  0  0  0
  9  7  1  0  0  0  0
 10 32  1  0  0  0  0
 10  8  1  0  0  0  0
 11 12  1  0  0  0  0
 11 33  1  0  0  0  0
 12 10  1  0  0  0  0
 12 35  1  0  0  0  0
 16  2  1  0  0  0  0
 17  2  1  0  0  0  0
 18  3  1  0  0  0  0
 21  5  1  0  0  0  0
 22  5  1  0  0  0  0
 23  6  1  0  0  0  0
 24  6  1  0  0  0  0
 29  9  1  0  0  0  0
 30  9  1  0  0  0  0
 31 10  1  0  0  0  0
 34 11  1  0  0  0  0
 36 12  1  0  0  0  0
M  END
>  <HBA>
0

>  <HBD>
0

>  <TPSA>
0.0

>  <cid>
8183

>  <dipole>
0.39

>  <excitation_energy_1>
6.435

>  <excitation_energy_2>
6.681

>  <excitation_energy_3>
6.835

>  <excitation_energy_4>
6.929

>  <homo_energy>
-6.751

>  <homo_lumo_gap>
7.589

>  <logP>
4.703

>  <lumo_energy>
0.838

>  <melting_point>
-51.15

>  <molecular_refractivity>
59.32

>  <oscillator_strength_1>
0.0208

>  <oscillator_strength_2>
0.0097

>  <oscillator_strength_3>
0.0154

>  <oscillator_strength_4>
0.0902

>  <open_babel_can_smiles>
CCCCCCCCCCC=C

>  <mulliken_charges>
36
1   -0.339041
2   -0.441359
3   -0.05639
4   -0.246577
5   -0.296536
6   -0.246935
7   -0.261081
8   -0.25461
9   -0.256715
10   -0.254791
11   -0.254884
12   -0.255592
13   0.134154
14   0.13673
15   0.14105
16   0.140678
17   0.140711
18   0.120991
19   0.129428
20   0.129851
21   0.142376
22   0.142321
23   0.131607
24   0.124723
25   0.141649
26   0.134864
27   0.126269
28   0.125638
29   0.126804
30   0.126297
31   0.125669
32   0.126584
33   0.126362
34   0.127224
35   0.130941
36   0.131589

>  <lowdin_charges>
36
1   -0.353434
2   -0.445783
3   -0.146623
4   -0.271837
5   -0.275274
6   -0.277068
7   -0.278736
8   -0.275296
9   -0.276298
10   -0.274888
11   -0.275454
12   -0.27954
13   0.158329
14   0.155148
15   0.150113
16   0.14552
17   0.146291
18   0.148176
19   0.138494
20   0.138145
21   0.150373
22   0.149784
23   0.138987
24   0.135912
25   0.144792
26   0.141978
27   0.140108
28   0.136704
29   0.141287
30   0.137594
31   0.136752
32   0.139993
33   0.137624
34   0.140813
35   0.138393
36   0.138924

$$$$

