PCCDB-ID:  69657
public computational chemistry database (PCCDB) project, http://pccdb.org

 13 12  0  0  0  0  0  0  0  0999 V2000
    0.8762    0.0219   -0.3126 C   0  0  0  0  0  0  0  0  0  0  0  0
    0.3021    1.3760    0.1157 C   0  0  0  0  0  0  0  0  0  0  0  0
    3.1035   -0.6384    0.0159 C   0  0  0  0  0  0  0  0  0  0  0  0
    2.3088    0.1751   -0.5373 N   0  0  0  0  0  0  0  0  0  0  0  0
    0.5831    2.3757   -0.8459 O   0  0  0  0  0  0  0  0  0  0  0  0
    4.4421   -0.5647   -0.1213 O   0  0  0  0  0  0  0  0  0  0  0  0
    0.4081   -0.2666   -1.2626 H   0  0  0  0  0  0  0  0  0  0  0  0
    0.6365   -0.7521    0.4359 H   0  0  0  0  0  0  0  0  0  0  0  0
    0.7075    1.6436    1.1066 H   0  0  0  0  0  0  0  0  0  0  0  0
   -0.7878    1.3122    0.2053 H   0  0  0  0  0  0  0  0  0  0  0  0
    2.8260   -1.4843    0.6531 H   0  0  0  0  0  0  0  0  0  0  0  0
    1.5253    2.2632   -1.0612 H   0  0  0  0  0  0  0  0  0  0  0  0
    4.6199    0.1997   -0.7012 H   0  0  0  0  0  0  0  0  0  0  0  0
  1  2  1  0  0  0  0
  1  8  1  0  0  0  0
  2 10  1  0  0  0  0
  2  9  1  0  0  0  0
  3 11  1  0  0  0  0
  4  1  1  0  0  0  0
  4  3  2  0  0  0  0
  5  2  1  0  0  0  0
  6  3  1  0  0  0  0
  7  1  1  0  0  0  0
 12  5  1  0  0  0  0
 13  6  1  0  0  0  0
M  END
>  <HBA>
3

>  <HBD>
2

>  <TPSA>
49.33

>  <cid>
69657

>  <dipole>
1.92

>  <excitation_energy_1>
6.099

>  <excitation_energy_2>
6.296

>  <excitation_energy_3>
6.559

>  <excitation_energy_4>
6.83

>  <homo_energy>
-6.917

>  <homo_lumo_gap>
7.206

>  <logP>
-0.248

>  <lumo_energy>
0.288

>  <melting_point>
42.62

>  <molecular_refractivity>
21.09

>  <oscillator_strength_1>
0.0072

>  <oscillator_strength_2>
0.0294

>  <oscillator_strength_3>
0.0011

>  <oscillator_strength_4>
0.0111

>  <open_babel_can_smiles>
OCC/N=C/O

>  <mulliken_charges>
13
1   -0.163353
2   -0.013342
3   0.285046
4   -0.427273
5   -0.623532
6   -0.552723
7   0.160215
8   0.121432
9   0.11814
10   0.141428
11   0.146099
12   0.399658
13   0.408204

>  <lowdin_charges>
13
1   -0.215704
2   -0.132813
3   0.018574
4   -0.242962
5   -0.468457
6   -0.355372
7   0.153942
8   0.132292
9   0.123665
10   0.144593
11   0.143421
12   0.339345
13   0.359474

$$$$

