PCCDB-ID:  17497
public computational chemistry database (PCCDB) project, http://pccdb.org

 20 20  0  0  0  0  0  0  0  0999 V2000
    1.0848    0.2475   -0.1110 C   0  0  0  0  0  0  0  0  0  0  0  0
    2.3548    0.0753    0.2841 C   0  0  0  0  0  0  0  0  0  0  0  0
    4.5355   -3.6834    0.3416 C   0  0  0  0  0  0  0  0  0  0  0  0
    5.1980   -2.4452    0.9633 C   0  0  0  0  0  0  0  0  0  0  0  0
    3.0476   -3.7334    0.7057 C   0  0  0  0  0  0  0  0  0  0  0  0
    4.3539   -1.2081    0.8100 C   0  0  0  0  0  0  0  0  0  0  0  0
    2.3066   -2.4943    0.1801 C   0  0  0  0  0  0  0  0  0  0  0  0
    3.0552   -1.2019    0.4463 C   0  0  0  0  0  0  0  0  0  0  0  0
    0.6591    1.2416   -0.2101 H   0  0  0  0  0  0  0  0  0  0  0  0
    0.4281   -0.5836   -0.3517 H   0  0  0  0  0  0  0  0  0  0  0  0
    2.9541    0.9603    0.5018 H   0  0  0  0  0  0  0  0  0  0  0  0
    5.0488   -4.5943    0.6728 H   0  0  0  0  0  0  0  0  0  0  0  0
    4.6382   -3.6403   -0.7516 H   0  0  0  0  0  0  0  0  0  0  0  0
    6.1864   -2.2735    0.5142 H   0  0  0  0  0  0  0  0  0  0  0  0
    5.3931   -2.6218    2.0341 H   0  0  0  0  0  0  0  0  0  0  0  0
    2.9465   -3.7807    1.7990 H   0  0  0  0  0  0  0  0  0  0  0  0
    2.5804   -4.6421    0.3071 H   0  0  0  0  0  0  0  0  0  0  0  0
    4.8442   -0.2546    1.0087 H   0  0  0  0  0  0  0  0  0  0  0  0
    1.3100   -2.4403    0.6370 H   0  0  0  0  0  0  0  0  0  0  0  0
    2.1315   -2.5919   -0.9023 H   0  0  0  0  0  0  0  0  0  0  0  0
  1  2  2  0  0  0  0
  2  8  1  0  0  0  0
  2 11  1  0  0  0  0
  3 12  1  0  0  0  0
  3  5  1  0  0  0  0
  3  4  1  0  0  0  0
  4 15  1  0  0  0  0
  5 16  1  0  0  0  0
  6  4  1  0  0  0  0
  6 18  1  0  0  0  0
  7  8  1  0  0  0  0
  7 19  1  0  0  0  0
  7  5  1  0  0  0  0
  8  6  2  0  0  0  0
  9  1  1  0  0  0  0
 10  1  1  0  0  0  0
 13  3  1  0  0  0  0
 14  4  1  0  0  0  0
 17  5  1  0  0  0  0
 20  7  1  0  0  0  0
M  END
>  <HBA>
0

>  <HBD>
0

>  <TPSA>
0.0

>  <cid>
17497

>  <dipole>
0.65

>  <excitation_energy_1>
5.297

>  <excitation_energy_2>
5.444

>  <excitation_energy_3>
5.832

>  <excitation_energy_4>
5.9

>  <homo_energy>
-5.812

>  <homo_lumo_gap>
5.48

>  <logP>
2.673

>  <lumo_energy>
-0.332

>  <melting_point>
-12.7

>  <molecular_refractivity>
37.51

>  <oscillator_strength_1>
0.3964

>  <oscillator_strength_2>
0.187

>  <oscillator_strength_3>
0.0077

>  <oscillator_strength_4>
0.0133

>  <open_babel_can_smiles>
C=CC1=CCCCC1

>  <mulliken_charges>
20
1   -0.363813
2   -0.103888
3   -0.263365
4   -0.296276
5   -0.265971
6   -0.19125
7   -0.341295
8   0.191174
9   0.138504
10   0.137673
11   0.12013
12   0.131277
13   0.136825
14   0.142622
15   0.146499
16   0.136662
17   0.131229
18   0.120122
19   0.145055
20   0.148086

>  <lowdin_charges>
20
1   -0.351336
2   -0.145833
3   -0.274032
4   -0.273742
5   -0.27302
6   -0.174155
7   -0.274743
8   -0.018728
9   0.159347
10   0.157271
11   0.152109
12   0.144551
13   0.139934
14   0.150331
15   0.147929
16   0.139619
17   0.144894
18   0.149917
19   0.151302
20   0.148385

$$$$

