PCCDB-ID:  44595
public computational chemistry database (PCCDB) project, http://pccdb.org

 28 27  0  0  0  0  0  0  0  0999 V2000
    5.5955    2.3936    1.1287 C   0  0  0  0  0  0  0  0  0  0  0  0
    4.0119   -0.0492   -4.6078 C   0  0  0  0  0  0  0  0  0  0  0  0
    4.5501    2.3754   -4.3358 C   0  0  0  0  0  0  0  0  0  0  0  0
    6.8528   -0.5529   -3.6407 C   0  0  0  0  0  0  0  0  0  0  0  0
    4.8206    1.5142    0.1420 C   0  0  0  0  0  0  0  0  0  0  0  0
    5.2371    1.7307   -1.3197 C   0  0  0  0  0  0  0  0  0  0  0  0
    4.4576    0.8440   -2.2999 C   0  0  0  0  0  0  0  0  0  0  0  0
    4.8489    0.9623   -3.8032 C   0  0  0  0  0  0  0  0  0  0  0  0
    6.2827    0.7181   -4.0771 N   0  0  0  0  0  0  0  0  0  0  0  0
    5.2738    2.2161    2.1613 H   0  0  0  0  0  0  0  0  0  0  0  0
    5.4469    3.4587    0.9120 H   0  0  0  0  0  0  0  0  0  0  0  0
    6.6730    2.1935    1.0768 H   0  0  0  0  0  0  0  0  0  0  0  0
    2.9454    0.1909   -4.5317 H   0  0  0  0  0  0  0  0  0  0  0  0
    4.1427   -1.0730   -4.2401 H   0  0  0  0  0  0  0  0  0  0  0  0
    4.3005   -0.0245   -5.6638 H   0  0  0  0  0  0  0  0  0  0  0  0
    3.4996    2.6426   -4.1740 H   0  0  0  0  0  0  0  0  0  0  0  0
    4.7629    2.4243   -5.4085 H   0  0  0  0  0  0  0  0  0  0  0  0
    5.1672    3.1345   -3.8398 H   0  0  0  0  0  0  0  0  0  0  0  0
    7.9219   -0.5525   -3.8800 H   0  0  0  0  0  0  0  0  0  0  0  0
    6.3990   -1.3801   -4.1959 H   0  0  0  0  0  0  0  0  0  0  0  0
    6.7511   -0.7771   -2.5638 H   0  0  0  0  0  0  0  0  0  0  0  0
    3.7439    1.7111    0.2441 H   0  0  0  0  0  0  0  0  0  0  0  0
    4.9613    0.4562    0.4052 H   0  0  0  0  0  0  0  0  0  0  0  0
    6.3149    1.5329   -1.4137 H   0  0  0  0  0  0  0  0  0  0  0  0
    5.0973    2.7907   -1.5735 H   0  0  0  0  0  0  0  0  0  0  0  0
    3.3849    1.0667   -2.2065 H   0  0  0  0  0  0  0  0  0  0  0  0
    4.5697   -0.2044   -1.9898 H   0  0  0  0  0  0  0  0  0  0  0  0
    6.8240    1.4790   -3.6720 H   0  0  0  0  0  0  0  0  0  0  0  0
  1 10  1  0  0  0  0
  2 13  1  0  0  0  0
  2 14  1  0  0  0  0
  2  8  1  0  0  0  0
  3 16  1  0  0  0  0
  3 18  1  0  0  0  0
  3  8  1  0  0  0  0
  4 21  1  0  0  0  0
  5 22  1  0  0  0  0
  5 23  1  0  0  0  0
  5  1  1  0  0  0  0
  6  5  1  0  0  0  0
  7 26  1  0  0  0  0
  7 27  1  0  0  0  0
  7  6  1  0  0  0  0
  8  7  1  0  0  0  0
  9  8  1  0  0  0  0
  9 28  1  0  0  0  0
  9  4  1  0  0  0  0
 11  1  1  0  0  0  0
 12  1  1  0  0  0  0
 15  2  1  0  0  0  0
 17  3  1  0  0  0  0
 19  4  1  0  0  0  0
 20  4  1  0  0  0  0
 24  6  1  0  0  0  0
 25  6  1  0  0  0  0
M  END
>  <HBA>
1

>  <HBD>
1

>  <TPSA>
12.03

>  <cid>
44595

>  <dipole>
0.9

>  <excitation_energy_1>
5.273

>  <excitation_energy_2>
5.622

>  <excitation_energy_3>
5.755

>  <excitation_energy_4>
5.923

>  <homo_energy>
-5.698

>  <homo_lumo_gap>
7.717

>  <logP>
2.566

>  <lumo_energy>
2.019

>  <melting_point>
10.31

>  <molecular_refractivity>
43.41

>  <oscillator_strength_1>
0.0041

>  <oscillator_strength_2>
0.0026

>  <oscillator_strength_3>
0.0193

>  <oscillator_strength_4>
0.01

>  <open_babel_can_smiles>
CCCCC(NC)(C)C

>  <mulliken_charges>
28
1   -0.441754
2   -0.446197
3   -0.45353
4   -0.306607
5   -0.246909
6   -0.259943
7   -0.257593
8   0.209405
9   -0.549678
10   0.142136
11   0.14101
12   0.140408
13   0.137079
14   0.138661
15   0.151892
16   0.137195
17   0.154188
18   0.134721
19   0.145564
20   0.153044
21   0.121887
22   0.131208
23   0.130606
24   0.121707
25   0.131038
26   0.123554
27   0.126345
28   0.290561

>  <lowdin_charges>
28
1   -0.440251
2   -0.441769
3   -0.44459
4   -0.361722
5   -0.267235
6   -0.277383
7   -0.288561
8   0.066777
9   -0.366588
10   0.148408
11   0.144416
12   0.143916
13   0.147433
14   0.145652
15   0.153713
16   0.146783
17   0.154681
18   0.145317
19   0.148693
20   0.149755
21   0.118852
22   0.137252
23   0.137287
24   0.132873
25   0.137419
26   0.139343
27   0.138087
28   0.251441

$$$$

