PCCDB-ID:  6386
public computational chemistry database (PCCDB) project, http://pccdb.org

 15 14  0  0  0  0  0  0  0  0999 V2000
    0.9637   -0.0129   -0.1160 C   0  0  0  0  0  0  0  0  0  0  0  0
    3.0306    1.4368   -0.3018 C   0  0  0  0  0  0  0  0  0  0  0  0
    3.0351   -0.5861    1.2106 C   0  0  0  0  0  0  0  0  0  0  0  0
    2.4996    0.0105   -0.0934 C   0  0  0  0  0  0  0  0  0  0  0  0
    3.0100   -0.8499   -1.1275 O   0  0  0  0  0  0  0  0  0  0  0  0
    0.5395    0.5969    0.6902 H   0  0  0  0  0  0  0  0  0  0  0  0
    0.5992   -1.0394   -0.0051 H   0  0  0  0  0  0  0  0  0  0  0  0
    0.5822    0.3833   -1.0666 H   0  0  0  0  0  0  0  0  0  0  0  0
    2.6982    2.1109    0.4962 H   0  0  0  0  0  0  0  0  0  0  0  0
    2.6732    1.8501   -1.2545 H   0  0  0  0  0  0  0  0  0  0  0  0
    4.1254    1.4343   -0.3223 H   0  0  0  0  0  0  0  0  0  0  0  0
    2.7023   -0.0012    2.0749 H   0  0  0  0  0  0  0  0  0  0  0  0
    4.1299   -0.6003    1.1986 H   0  0  0  0  0  0  0  0  0  0  0  0
    2.6824   -1.6159    1.3287 H   0  0  0  0  0  0  0  0  0  0  0  0
    2.6898   -0.5025   -1.9756 H   0  0  0  0  0  0  0  0  0  0  0  0
  1  4  1  0  0  0  0
  1  7  1  0  0  0  0
  1  6  1  0  0  0  0
  2  4  1  0  0  0  0
  2  9  1  0  0  0  0
  3 14  1  0  0  0  0
  3 12  1  0  0  0  0
  4  3  1  0  0  0  0
  5  4  1  0  0  0  0
  8  1  1  0  0  0  0
 10  2  1  0  0  0  0
 11  2  1  0  0  0  0
 13  3  1  0  0  0  0
 15  5  1  0  0  0  0
M  END
>  <HBA>
1

>  <HBD>
1

>  <TPSA>
20.23

>  <cid>
6386

>  <dipole>
1.51

>  <excitation_energy_1>
6.45

>  <excitation_energy_2>
7.386

>  <excitation_energy_3>
7.683

>  <excitation_energy_4>
7.694

>  <homo_energy>
-7.059

>  <homo_lumo_gap>
8.855

>  <logP>
0.777

>  <lumo_energy>
1.796

>  <melting_point>
4.41

>  <molecular_refractivity>
22.54

>  <oscillator_strength_1>
0.0265

>  <oscillator_strength_2>
0.0093

>  <oscillator_strength_3>
0.006

>  <oscillator_strength_4>
0.0007

>  <open_babel_can_smiles>
CC(O)(C)C

>  <mulliken_charges>
15
1   -0.449474
2   -0.449457
3   -0.436846
4   0.303672
5   -0.632095
6   0.140184
7   0.153963
8   0.127624
9   0.140167
10   0.127587
11   0.153985
12   0.136343
13   0.151853
14   0.151866
15   0.380629

>  <lowdin_charges>
15
1   -0.457987
2   -0.456499
3   -0.442054
4   0.128357
5   -0.466397
6   0.15213
7   0.15515
8   0.142633
9   0.152001
10   0.142547
11   0.153952
12   0.149999
13   0.154076
14   0.15515
15   0.336941

$$$$

