PCCDB-ID:  27159
public computational chemistry database (PCCDB) project, http://pccdb.org

 29 28  0  0  0  0  0  0  0  0999 V2000
    2.6691   -1.9598    0.2448 C   0  0  0  0  0  0  0  0  0  0  0  0
    4.7578   -0.8049    0.4265 C   0  0  0  0  0  0  0  0  0  0  0  0
    1.2808    0.5214   -0.3938 C   0  0  0  0  0  0  0  0  0  0  0  0
    3.5502    1.6852   -0.3538 C   0  0  0  0  0  0  0  0  0  0  0  0
    2.8041    0.3480   -0.5342 C   0  0  0  0  0  0  0  0  0  0  0  0
   -0.7723    1.5825    1.1116 C   0  0  0  0  0  0  0  0  0  0  0  0
    4.4005    3.9865   -1.8254 C   0  0  0  0  0  0  0  0  0  0  0  0
   -1.3009    1.7498   -0.0312 N   0  0  0  0  0  0  0  0  0  0  0  0
    4.4398    5.0193   -2.5620 N   0  0  0  0  0  0  0  0  0  0  0  0
    3.3028   -0.6530    0.4289 N   0  0  0  0  0  0  0  0  0  0  0  0
   -1.2699    1.9077    2.3404 O   0  0  0  0  0  0  0  0  0  0  0  0
    5.4975    3.5968   -1.1335 O   0  0  0  0  0  0  0  0  0  0  0  0
    0.8235    0.8327    1.3631 S   0  0  0  0  0  0  0  0  0  0  0  0
    2.9774    2.9294   -1.5945 S   0  0  0  0  0  0  0  0  0  0  0  0
    3.0929   -2.6619    0.9687 H   0  0  0  0  0  0  0  0  0  0  0  0
    2.8235   -2.3786   -0.7687 H   0  0  0  0  0  0  0  0  0  0  0  0
    1.5963   -1.9040    0.4397 H   0  0  0  0  0  0  0  0  0  0  0  0
    5.0251   -1.6160    1.1100 H   0  0  0  0  0  0  0  0  0  0  0  0
    5.2504    0.0987    0.7920 H   0  0  0  0  0  0  0  0  0  0  0  0
    5.1713   -1.0515   -0.5706 H   0  0  0  0  0  0  0  0  0  0  0  0
    0.7443   -0.3606   -0.7480 H   0  0  0  0  0  0  0  0  0  0  0  0
    0.9147    1.3645   -0.9827 H   0  0  0  0  0  0  0  0  0  0  0  0
    4.6172    1.5656   -0.5233 H   0  0  0  0  0  0  0  0  0  0  0  0
    3.3893    2.0803    0.6520 H   0  0  0  0  0  0  0  0  0  0  0  0
    2.9821    0.0077   -1.5755 H   0  0  0  0  0  0  0  0  0  0  0  0
   -2.2162    2.2060    0.0197 H   0  0  0  0  0  0  0  0  0  0  0  0
    3.5509    5.2107   -3.0232 H   0  0  0  0  0  0  0  0  0  0  0  0
   -2.1480    2.3097    2.2254 H   0  0  0  0  0  0  0  0  0  0  0  0
    6.1824    4.2560   -1.3581 H   0  0  0  0  0  0  0  0  0  0  0  0
  1 10  1  0  0  0  0
  1 17  1  0  0  0  0
  1 15  1  0  0  0  0
  2 10  1  0  0  0  0
  2 19  1  0  0  0  0
  2 18  1  0  0  0  0
  3 13  1  0  0  0  0
  4 24  1  0  0  0  0
  5  3  1  0  0  0  0
  5  4  1  0  0  0  0
  5 10  1  0  0  0  0
  6 13  1  0  0  0  0
  6 11  1  0  0  0  0
  7 14  1  0  0  0  0
  7 12  1  0  0  0  0
  8 26  1  0  0  0  0
  8  6  2  0  0  0  0
  9  7  2  0  0  0  0
 14  4  1  0  0  0  0
 16  1  1  0  0  0  0
 20  2  1  0  0  0  0
 21  3  1  0  0  0  0
 22  3  1  0  0  0  0
 23  4  1  0  0  0  0
 25  5  1  0  0  0  0
 27  9  1  0  0  0  0
 28 11  1  0  0  0  0
 29 12  1  0  0  0  0
M  END
>  <HBA>
7

>  <HBD>
2

>  <TPSA>
140.02

>  <cid>
27159

>  <dipole>
1.44

>  <excitation_energy_1>
5.234

>  <excitation_energy_2>
5.321

>  <excitation_energy_3>
5.384

>  <excitation_energy_4>
5.52

>  <homo_energy>
-6.052

>  <homo_lumo_gap>
6.534

>  <logP>
1.941

>  <lumo_energy>
0.482

>  <melting_point>
165.3

>  <molecular_refractivity>
60.43

>  <oscillator_strength_1>
0.0022

>  <oscillator_strength_2>
0.0024

>  <oscillator_strength_3>
0.005

>  <oscillator_strength_4>
0.0105

>  <open_babel_can_smiles>
CN(C(CSC(=N)O)CSC(=N)O)C

>  <mulliken_charges>
29
1   -0.306861
2   -0.309094
3   -0.462679
4   -0.454989
5   0.049355
6   0.308685
7   0.329094
8   -0.591159
9   -0.625816
10   -0.380095
11   -0.566985
12   -0.569637
13   0.172231
14   0.132679
15   0.154977
16   0.122542
17   0.16978
18   0.154804
19   0.164155
20   0.125028
21   0.189667
22   0.232931
23   0.214209
24   0.210451
25   0.133424
26   0.2768
27   0.30711
28   0.40038
29   0.419011

>  <lowdin_charges>
29
1   -0.357685
2   -0.360875
3   -0.382305
4   -0.378145
5   -0.061942
6   0.020346
7   0.027548
8   -0.436792
9   -0.43844
10   -0.180902
11   -0.368924
12   -0.365629
13   0.172523
14   0.13503
15   0.156559
16   0.123021
17   0.15816
18   0.156356
19   0.156487
20   0.124996
21   0.168761
22   0.192462
23   0.18079
24   0.17767
25   0.131027
26   0.253328
27   0.272169
28   0.355531
29   0.368874

$$$$

