PCCDB-ID:  35822
public computational chemistry database (PCCDB) project, http://pccdb.org

 27 26  0  0  0  0  0  0  0  0999 V2000
    3.7832    1.9282    1.1876 C   0  0  0  0  0  0  0  0  0  0  0  0
    3.1187    0.9445    0.2093 C   0  0  0  0  0  0  0  0  0  0  0  0
    3.7154    1.0004   -1.1710 C   0  0  0  0  0  0  0  0  0  0  0  0
    4.3048   -0.0179   -1.8034 C   0  0  0  0  0  0  0  0  0  0  0  0
    4.9116    0.0459   -3.1791 C   0  0  0  0  0  0  0  0  0  0  0  0
    6.4189   -0.2731   -3.1860 C   0  0  0  0  0  0  0  0  0  0  0  0
    7.0230   -0.2801   -4.5952 C   0  0  0  0  0  0  0  0  0  0  0  0
    8.5301   -0.6070   -4.5931 C   0  0  0  0  0  0  0  0  0  0  0  0
    9.1344   -0.6758   -5.9895 C   0  0  0  0  0  0  0  0  0  0  0  0
    9.5987   -1.6696   -6.4873 O   0  0  0  0  0  0  0  0  0  0  0  0
    9.1137    0.4911   -6.6982 O   0  0  0  0  0  0  0  0  0  0  0  0
    3.3052    1.8871    2.1729 H   0  0  0  0  0  0  0  0  0  0  0  0
    3.7088    2.9600    0.8232 H   0  0  0  0  0  0  0  0  0  0  0  0
    4.8466    1.6964    1.3144 H   0  0  0  0  0  0  0  0  0  0  0  0
    2.0448    1.1778    0.1514 H   0  0  0  0  0  0  0  0  0  0  0  0
    3.1931   -0.0776    0.6020 H   0  0  0  0  0  0  0  0  0  0  0  0
    3.6549    1.9682   -1.6758 H   0  0  0  0  0  0  0  0  0  0  0  0
    4.3690   -0.9850   -1.2988 H   0  0  0  0  0  0  0  0  0  0  0  0
    4.7435    1.0418   -3.6110 H   0  0  0  0  0  0  0  0  0  0  0  0
    4.4011   -0.6708   -3.8412 H   0  0  0  0  0  0  0  0  0  0  0  0
    6.5864   -1.2526   -2.7161 H   0  0  0  0  0  0  0  0  0  0  0  0
    6.9447    0.4608   -2.5597 H   0  0  0  0  0  0  0  0  0  0  0  0
    6.8467    0.6986   -5.0664 H   0  0  0  0  0  0  0  0  0  0  0  0
    6.4982   -1.0154   -5.2191 H   0  0  0  0  0  0  0  0  0  0  0  0
    8.7069   -1.5784   -4.1245 H   0  0  0  0  0  0  0  0  0  0  0  0
    9.0719    0.1469   -4.0033 H   0  0  0  0  0  0  0  0  0  0  0  0
    8.7204    1.1991   -6.1622 H   0  0  0  0  0  0  0  0  0  0  0  0
  1 14  1  0  0  0  0
  1 12  1  0  0  0  0
  2 16  1  0  0  0  0
  2  1  1  0  0  0  0
  3  2  1  0  0  0  0
  4 18  1  0  0  0  0
  4  3  2  0  0  0  0
  5  4  1  0  0  0  0
  6  5  1  0  0  0  0
  6 21  1  0  0  0  0
  6 22  1  0  0  0  0
  7  8  1  0  0  0  0
  7  6  1  0  0  0  0
  8 25  1  0  0  0  0
  8 26  1  0  0  0  0
  9  8  1  0  0  0  0
 10  9  2  0  0  0  0
 11 27  1  0  0  0  0
 11  9  1  0  0  0  0
 13  1  1  0  0  0  0
 15  2  1  0  0  0  0
 17  3  1  0  0  0  0
 19  5  1  0  0  0  0
 20  5  1  0  0  0  0
 23  7  1  0  0  0  0
 24  7  1  0  0  0  0
M  END
>  <HBA>
2

>  <HBD>
1

>  <TPSA>
37.3

>  <cid>
35822

>  <dipole>
4.71

>  <excitation_energy_1>
5.592

>  <excitation_energy_2>
5.98

>  <excitation_energy_3>
6.281

>  <excitation_energy_4>
6.312

>  <homo_energy>
-6.659

>  <homo_lumo_gap>
6.934

>  <logP>
2.598

>  <lumo_energy>
0.275

>  <melting_point>
58.39

>  <molecular_refractivity>
46.67

>  <oscillator_strength_1>
0.0039

>  <oscillator_strength_2>
0.0033

>  <oscillator_strength_3>
0.0279

>  <oscillator_strength_4>
0.0192

>  <open_babel_can_smiles>
CC/C=C/CCCCC(=O)O

>  <mulliken_charges>
27
1   -0.439695
2   -0.29642
3   -0.088222
4   -0.095847
5   -0.304329
6   -0.252882
7   -0.270888
8   -0.378943
9   0.588841
10   -0.434918
11   -0.564514
12   0.145031
13   0.143267
14   0.148835
15   0.143636
16   0.139556
17   0.113584
18   0.116779
19   0.135975
20   0.143575
21   0.140891
22   0.138876
23   0.123538
24   0.160564
25   0.179983
26   0.15574
27   0.407987

>  <lowdin_charges>
27
1   -0.439678
2   -0.265874
3   -0.165037
4   -0.171452
5   -0.270912
6   -0.274315
7   -0.274568
8   -0.318259
9   0.195726
10   -0.237064
11   -0.364993
12   0.150092
13   0.146341
14   0.148492
15   0.146804
16   0.145236
17   0.143598
18   0.145347
19   0.14395
20   0.149778
21   0.144318
22   0.144842
23   0.133704
24   0.155043
25   0.172882
26   0.158692
27   0.357309

$$$$

