PCCDB-ID:  30313
public computational chemistry database (PCCDB) project, http://pccdb.org

 28 27  0  0  0  0  0  0  0  0999 V2000
    4.8797    4.8887    0.7842 C   0  0  0  0  0  0  0  0  0  0  0  0
    4.5414   -1.5114   -2.6491 C   0  0  0  0  0  0  0  0  0  0  0  0
    2.5445   -2.6792   -1.6415 C   0  0  0  0  0  0  0  0  0  0  0  0
    4.0883    3.5787    0.8389 C   0  0  0  0  0  0  0  0  0  0  0  0
    4.9175    2.3679    0.4067 C   0  0  0  0  0  0  0  0  0  0  0  0
    4.1482   -1.4664   -0.1179 C   0  0  0  0  0  0  0  0  0  0  0  0
    4.9755   -0.2181    0.2112 C   0  0  0  0  0  0  0  0  0  0  0  0
    3.5014   -1.4843   -1.5182 C   0  0  0  0  0  0  0  0  0  0  0  0
    4.1486    1.0507    0.4123 C   0  0  0  0  0  0  0  0  0  0  0  0
    2.9434    1.0134    0.5840 O   0  0  0  0  0  0  0  0  0  0  0  0
    4.2610    5.7367    1.0985 H   0  0  0  0  0  0  0  0  0  0  0  0
    5.2376    5.0978   -0.2318 H   0  0  0  0  0  0  0  0  0  0  0  0
    5.7570    4.8563    1.4423 H   0  0  0  0  0  0  0  0  0  0  0  0
    4.0507   -1.5423   -3.6292 H   0  0  0  0  0  0  0  0  0  0  0  0
    5.1824   -2.4002   -2.5727 H   0  0  0  0  0  0  0  0  0  0  0  0
    5.1925   -0.6297   -2.6407 H   0  0  0  0  0  0  0  0  0  0  0  0
    2.0406   -2.6855   -2.6153 H   0  0  0  0  0  0  0  0  0  0  0  0
    1.7729   -2.6519   -0.8634 H   0  0  0  0  0  0  0  0  0  0  0  0
    3.0863   -3.6295   -1.5427 H   0  0  0  0  0  0  0  0  0  0  0  0
    3.1997    3.6457    0.2013 H   0  0  0  0  0  0  0  0  0  0  0  0
    3.7113    3.4098    1.8550 H   0  0  0  0  0  0  0  0  0  0  0  0
    5.8126    2.2545    1.0370 H   0  0  0  0  0  0  0  0  0  0  0  0
    5.3075    2.5125   -0.6138 H   0  0  0  0  0  0  0  0  0  0  0  0
    3.3566   -1.5542    0.6351 H   0  0  0  0  0  0  0  0  0  0  0  0
    4.7897   -2.3528   -0.0106 H   0  0  0  0  0  0  0  0  0  0  0  0
    5.7520   -0.0258   -0.5409 H   0  0  0  0  0  0  0  0  0  0  0  0
    5.5273   -0.3750    1.1516 H   0  0  0  0  0  0  0  0  0  0  0  0
    2.9045   -0.5678   -1.6197 H   0  0  0  0  0  0  0  0  0  0  0  0
  1  4  1  0  0  0  0
  1 11  1  0  0  0  0
  1 13  1  0  0  0  0
  2 16  1  0  0  0  0
  2 15  1  0  0  0  0
  2  8  1  0  0  0  0
  3 19  1  0  0  0  0
  3  8  1  0  0  0  0
  3 18  1  0  0  0  0
  4 21  1  0  0  0  0
  5  9  1  0  0  0  0
  5  4  1  0  0  0  0
  5 22  1  0  0  0  0
  6 25  1  0  0  0  0
  6  7  1  0  0  0  0
  6 24  1  0  0  0  0
  7  9  1  0  0  0  0
  7 27  1  0  0  0  0
  8  6  1  0  0  0  0
  9 10  2  0  0  0  0
 12  1  1  0  0  0  0
 14  2  1  0  0  0  0
 17  3  1  0  0  0  0
 20  4  1  0  0  0  0
 23  5  1  0  0  0  0
 26  7  1  0  0  0  0
 28  8  1  0  0  0  0
M  END
>  <HBA>
1

>  <HBD>
0

>  <TPSA>
17.07

>  <cid>
30313

>  <dipole>
2.32

>  <excitation_energy_1>
4.413

>  <excitation_energy_2>
6.027

>  <excitation_energy_3>
6.659

>  <excitation_energy_4>
6.696

>  <homo_energy>
-6.569

>  <homo_lumo_gap>
6.321

>  <logP>
2.792

>  <lumo_energy>
-0.248

>  <melting_point>
-7.16

>  <molecular_refractivity>
45.58

>  <oscillator_strength_1>
0.0001

>  <oscillator_strength_2>
0.01

>  <oscillator_strength_3>
0.0126

>  <oscillator_strength_4>
0.0047

>  <open_babel_can_smiles>
CCCC(=O)CCC(C)C

>  <mulliken_charges>
28
1   -0.446331
2   -0.445399
3   -0.444043
4   -0.24048
5   -0.352448
6   -0.242202
7   -0.366929
8   -0.070668
9   0.461526
10   -0.45274
11   0.14746
12   0.140373
13   0.139899
14   0.142346
15   0.136754
16   0.134563
17   0.138586
18   0.146726
19   0.134749
20   0.154502
21   0.145984
22   0.150996
23   0.157924
24   0.151503
25   0.122314
26   0.151931
27   0.161651
28   0.141449

>  <lowdin_charges>
28
1   -0.445207
2   -0.447759
3   -0.443075
4   -0.268269
5   -0.308674
6   -0.275562
7   -0.313084
8   -0.12334
9   0.161301
10   -0.239708
11   0.152968
12   0.144976
13   0.145598
14   0.149103
15   0.144329
16   0.143216
17   0.147093
18   0.151428
19   0.142978
20   0.153567
21   0.148183
22   0.156242
23   0.160032
24   0.155599
25   0.140506
26   0.156031
27   0.166503
28   0.145024

$$$$

