PCCDB-ID:  7519
public computational chemistry database (PCCDB) project, http://pccdb.org

 16 16  0  0  0  0  0  0  0  0999 V2000
    3.1310    1.1297   -0.1373 C   0  0  0  0  0  0  0  0  0  0  0  0
    4.4238   -3.2767    1.9706 C   0  0  0  0  0  0  0  0  0  0  0  0
    3.2227   -3.4640    1.2770 C   0  0  0  0  0  0  0  0  0  0  0  0
    5.0181   -2.0173    1.9716 C   0  0  0  0  0  0  0  0  0  0  0  0
    2.6278   -2.4081    0.5962 C   0  0  0  0  0  0  0  0  0  0  0  0
    4.4323   -0.9443    1.2915 C   0  0  0  0  0  0  0  0  0  0  0  0
    3.2309   -1.1413    0.6007 C   0  0  0  0  0  0  0  0  0  0  0  0
    2.5677   -0.1704   -0.0965 O   0  0  0  0  0  0  0  0  0  0  0  0
    2.4498    1.7331   -0.7403 H   0  0  0  0  0  0  0  0  0  0  0  0
    4.1240    1.1264   -0.6068 H   0  0  0  0  0  0  0  0  0  0  0  0
    3.2111    1.5685    0.8664 H   0  0  0  0  0  0  0  0  0  0  0  0
    4.8861   -4.1033    2.5023 H   0  0  0  0  0  0  0  0  0  0  0  0
    2.7460   -4.4407    1.2664 H   0  0  0  0  0  0  0  0  0  0  0  0
    5.9512   -1.8560    2.5055 H   0  0  0  0  0  0  0  0  0  0  0  0
    1.6966   -2.5354    0.0527 H   0  0  0  0  0  0  0  0  0  0  0  0
    4.9143    0.0266    1.3075 H   0  0  0  0  0  0  0  0  0  0  0  0
  1  8  1  0  0  0  0
  1 11  1  0  0  0  0
  2  4  1  0  0  0  0
  2 12  1  0  0  0  0
  3  2  2  0  0  0  0
  4 14  1  0  0  0  0
  5  7  2  0  0  0  0
  5  3  1  0  0  0  0
  6 16  1  0  0  0  0
  6  4  2  0  0  0  0
  7  6  1  0  0  0  0
  8  7  1  0  0  0  0
  9  1  1  0  0  0  0
 10  1  1  0  0  0  0
 13  3  1  0  0  0  0
 15  5  1  0  0  0  0
M  END
>  <HBA>
1

>  <HBD>
0

>  <TPSA>
9.23

>  <cid>
7519

>  <dipole>
1.31

>  <excitation_energy_1>
5.052

>  <excitation_energy_2>
5.497

>  <excitation_energy_3>
5.764

>  <excitation_energy_4>
5.875

>  <homo_energy>
-5.853

>  <homo_lumo_gap>
5.962

>  <logP>
1.695

>  <lumo_energy>
0.109

>  <melting_point>
8.42

>  <molecular_refractivity>
32.93

>  <oscillator_strength_1>
0.034

>  <oscillator_strength_2>
0.0021

>  <oscillator_strength_3>
0.0834

>  <oscillator_strength_4>
0.0118

>  <open_babel_can_smiles>
COc1ccccc1

>  <mulliken_charges>
16
1   -0.213957
2   -0.133498
3   -0.133161
4   -0.136749
5   -0.171587
6   -0.196005
7   0.374042
8   -0.506627
9   0.168666
10   0.150966
11   0.150921
12   0.124389
13   0.129175
14   0.128111
15   0.136174
16   0.12914

>  <lowdin_charges>
16
1   -0.277278
2   -0.181133
3   -0.146907
4   -0.146006
5   -0.182364
6   -0.216141
7   0.101634
8   -0.200676
9   0.163816
10   0.143714
11   0.143893
12   0.157318
13   0.15756
14   0.15658
15   0.165325
16   0.160662

$$$$

