PCCDB-ID:  55899
public computational chemistry database (PCCDB) project, http://pccdb.org

 21 22  0  0  1  0  0  0  0  0999 V2000
    4.3403    0.5040    2.0209 C   0  0  0  0  0  0  0  0  0  0  0  0
    0.4394   -1.6222    3.6578 C   0  0  0  0  0  0  0  0  0  0  0  0
    1.4623   -0.6860    2.9788 C   0  0  0  0  0  0  0  0  0  0  0  0
    0.2453   -2.7502    2.6204 C   0  0  0  0  0  0  0  0  0  0  0  0
    2.9900   -1.0481    0.8420 C   0  0  0  0  0  0  0  0  0  0  0  0
    2.2451   -1.6094    2.0483 C   0  0  1  0  0  0  0  0  0  0  0  0
    3.8562   -0.1255    0.8099 N   0  0  0  0  0  0  0  0  0  0  0  0
    2.7350   -2.8813    2.5748 N   0  0  0  0  0  0  0  0  0  0  0  0
    1.4676   -2.8193    1.7845 N   0  0  1  0  0  0  0  0  0  0  0  0
    2.6140   -1.6316   -0.3220 O   0  0  0  0  0  0  0  0  0  0  0  0
    5.4194    0.6661    1.9184 H   0  0  0  0  0  0  0  0  0  0  0  0
    4.1821   -0.0663    2.9489 H   0  0  0  0  0  0  0  0  0  0  0  0
    3.8840    1.4960    2.1459 H   0  0  0  0  0  0  0  0  0  0  0  0
   -0.5005   -1.1149    3.8908 H   0  0  0  0  0  0  0  0  0  0  0  0
    0.8266   -2.0089    4.6069 H   0  0  0  0  0  0  0  0  0  0  0  0
    2.0966   -0.1601    3.6972 H   0  0  0  0  0  0  0  0  0  0  0  0
    0.9608    0.0759    2.3704 H   0  0  0  0  0  0  0  0  0  0  0  0
   -0.5731   -2.5181    1.9301 H   0  0  0  0  0  0  0  0  0  0  0  0
    0.0432   -3.7321    3.0597 H   0  0  0  0  0  0  0  0  0  0  0  0
    2.4997   -2.9362    3.5737 H   0  0  0  0  0  0  0  0  0  0  0  0
    2.0368   -2.3847   -0.0786 H   0  0  0  0  0  0  0  0  0  0  0  0
  1 13  1  0  0  0  0
  1 12  1  0  0  0  0
  2 14  1  0  0  0  0
  2 15  1  0  0  0  0
  3  2  1  0  0  0  0
  3 16  1  0  0  0  0
  4 19  1  0  0  0  0
  4  2  1  0  0  0  0
  6  5  1  6  0  0  0
  6  8  1  0  0  0  0
  6  3  1  0  0  0  0
  7  5  2  0  0  0  0
  7  1  1  0  0  0  0
  8 20  1  0  0  0  0
  9  6  1  0  0  0  0
  9  8  1  1  0  0  0
  9  4  1  0  0  0  0
 10 21  1  0  0  0  0
 10  5  1  0  0  0  0
 11  1  1  0  0  0  0
 17  3  1  0  0  0  0
 18  4  1  0  0  0  0
M  END
>  <HBA>
4

>  <HBD>
2

>  <TPSA>
54.05

>  <cid>
55899

>  <dipole>
6.21

>  <excitation_energy_1>
5.34

>  <excitation_energy_2>
5.749

>  <excitation_energy_3>
5.853

>  <excitation_energy_4>
5.982

>  <homo_energy>
-6.395

>  <homo_lumo_gap>
6.849

>  <logP>
-0.3

>  <lumo_energy>
0.454

>  <melting_point>
99.05

>  <molecular_refractivity>
43.3

>  <oscillator_strength_1>
0.0021

>  <oscillator_strength_2>
0.0047

>  <oscillator_strength_3>
0.0076

>  <oscillator_strength_4>
0.003

>  <open_babel_can_smiles>
C/N=C(\[C@]12CCCN2N1)/O

>  <mulliken_charges>
21
1   -0.32288
2   -0.33879
3   -0.283919
4   -0.140072
5   0.531599
6   0.164714
7   -0.418966
8   -0.412363
9   -0.356025
10   -0.601198
11   0.164777
12   0.12296
13   0.149525
14   0.167
15   0.154829
16   0.169017
17   0.169688
18   0.16953
19   0.167781
20   0.310483
21   0.432309

>  <lowdin_charges>
21
1   -0.353671
2   -0.303108
3   -0.291398
4   -0.218384
5   0.114866
6   0.042696
7   -0.201347
8   -0.283219
9   -0.150939
10   -0.362029
11   0.155239
12   0.126269
13   0.147654
14   0.166062
15   0.149121
16   0.165362
17   0.166058
18   0.161592
19   0.158439
20   0.25218
21   0.358558

$$$$

