PCCDB-ID:  8823
public computational chemistry database (PCCDB) project, http://pccdb.org

 12 11  0  0  0  0  0  0  0  0999 V2000
    1.0446    1.5026   -0.4750 C   0  0  0  0  0  0  0  0  0  0  0  0
    1.3687    0.1596    0.1495 C   0  0  0  0  0  0  0  0  0  0  0  0
    0.1959   -1.4514    1.4893 C   0  0  0  0  0  0  0  0  0  0  0  0
    0.1733   -0.2831    0.8485 O   0  0  0  0  0  0  0  0  0  0  0  0
    1.4504   -2.5123    1.6028 S   0  0  0  0  0  0  0  0  0  0  0  0
   -1.3642   -1.7873    2.2674 S   0  0  0  0  0  0  0  0  0  0  0  0
    1.9234    1.8740   -1.0128 H   0  0  0  0  0  0  0  0  0  0  0  0
    0.7734    2.2374    0.2895 H   0  0  0  0  0  0  0  0  0  0  0  0
    0.2171    1.4170   -1.1862 H   0  0  0  0  0  0  0  0  0  0  0  0
    2.1868    0.2182    0.8734 H   0  0  0  0  0  0  0  0  0  0  0  0
    1.6308   -0.5985   -0.5944 H   0  0  0  0  0  0  0  0  0  0  0  0
   -1.9902   -0.6531    1.8768 H   0  0  0  0  0  0  0  0  0  0  0  0
  1  2  1  0  0  0  0
  1  8  1  0  0  0  0
  2  4  1  0  0  0  0
  2 10  1  0  0  0  0
  3  5  2  0  0  0  0
  3  6  1  0  0  0  0
  4  3  1  0  0  0  0
  7  1  1  0  0  0  0
  9  1  1  0  0  0  0
 11  2  1  0  0  0  0
 12  6  1  0  0  0  0
M  END
>  <HBA>
3

>  <HBD>
1

>  <TPSA>
80.12

>  <cid>
8823

>  <dipole>
3.79

>  <excitation_energy_1>
3.54

>  <excitation_energy_2>
4.921

>  <excitation_energy_3>
5.399

>  <excitation_energy_4>
5.538

>  <homo_energy>
-6.346

>  <homo_lumo_gap>
4.977

>  <logP>
1.238

>  <lumo_energy>
-1.369

>  <melting_point>
17.1

>  <molecular_refractivity>
33.34

>  <oscillator_strength_1>
0.0002

>  <oscillator_strength_2>
0.1429

>  <oscillator_strength_3>
0.0084

>  <oscillator_strength_4>
0.0

>  <open_babel_can_smiles>
CCOC(=S)S

>  <mulliken_charges>
12
1   -0.463217
2   -0.047706
3   0.064307
4   -0.401579
5   -0.170582
6   0.050094
7   0.162408
8   0.167302
9   0.167279
10   0.180946
11   0.180982
12   0.109766

>  <lowdin_charges>
12
1   -0.450963
2   -0.122404
3   -0.113157
4   -0.171022
5   -0.139748
6   0.05149
7   0.165718
8   0.162779
9   0.162385
10   0.16441
11   0.164733
12   0.125779

$$$$

