PCCDB-ID:  43800
public computational chemistry database (PCCDB) project, http://pccdb.org

 29 28  0  0  0  0  0  0  0  0999 V2000
    4.4592    1.5780    1.4501 C   0  0  0  0  0  0  0  0  0  0  0  0
    4.6693   -3.2794   -2.6506 C   0  0  0  0  0  0  0  0  0  0  0  0
    4.8871    1.8562   -3.4981 C   0  0  0  0  0  0  0  0  0  0  0  0
    4.2507    0.1473    0.9247 C   0  0  0  0  0  0  0  0  0  0  0  0
    4.3053   -2.0304   -3.4596 C   0  0  0  0  0  0  0  0  0  0  0  0
    4.4207    0.4475   -3.8720 C   0  0  0  0  0  0  0  0  0  0  0  0
    4.8971   -0.0816   -0.4155 C   0  0  0  0  0  0  0  0  0  0  0  0
    4.2496   -0.4422   -1.5267 C   0  0  0  0  0  0  0  0  0  0  0  0
    4.8564   -0.6833   -2.8965 C   0  0  0  0  0  0  0  0  0  0  0  0
    6.3268   -0.6582   -2.8052 N   0  0  0  0  0  0  0  0  0  0  0  0
    4.0088    1.7043    2.4414 H   0  0  0  0  0  0  0  0  0  0  0  0
    4.0078    2.3127    0.7740 H   0  0  0  0  0  0  0  0  0  0  0  0
    5.5263    1.8165    1.5343 H   0  0  0  0  0  0  0  0  0  0  0  0
    4.2283   -4.1752   -3.1017 H   0  0  0  0  0  0  0  0  0  0  0  0
    4.3086   -3.2085   -1.6186 H   0  0  0  0  0  0  0  0  0  0  0  0
    5.7541   -3.4362   -2.6139 H   0  0  0  0  0  0  0  0  0  0  0  0
    4.5473    2.5830   -4.2452 H   0  0  0  0  0  0  0  0  0  0  0  0
    5.9781    1.9040   -3.4387 H   0  0  0  0  0  0  0  0  0  0  0  0
    4.4905    2.1596   -2.5239 H   0  0  0  0  0  0  0  0  0  0  0  0
    3.1768   -0.0723    0.8628 H   0  0  0  0  0  0  0  0  0  0  0  0
    4.6710   -0.5589    1.6570 H   0  0  0  0  0  0  0  0  0  0  0  0
    3.2111   -1.9573   -3.5352 H   0  0  0  0  0  0  0  0  0  0  0  0
    4.6744   -2.1435   -4.4895 H   0  0  0  0  0  0  0  0  0  0  0  0
    4.8008    0.1900   -4.8726 H   0  0  0  0  0  0  0  0  0  0  0  0
    3.3256    0.4259   -3.9531 H   0  0  0  0  0  0  0  0  0  0  0  0
    5.9730    0.0857   -0.4689 H   0  0  0  0  0  0  0  0  0  0  0  0
    3.1677   -0.5882   -1.4824 H   0  0  0  0  0  0  0  0  0  0  0  0
    6.7213   -0.8303   -3.7302 H   0  0  0  0  0  0  0  0  0  0  0  0
    6.6483   -1.4197   -2.2094 H   0  0  0  0  0  0  0  0  0  0  0  0
  1 13  1  0  0  0  0
  1 11  1  0  0  0  0
  2 16  1  0  0  0  0
  2 15  1  0  0  0  0
  3 18  1  0  0  0  0
  3 19  1  0  0  0  0
  4  1  1  0  0  0  0
  4 21  1  0  0  0  0
  5  9  1  0  0  0  0
  5  2  1  0  0  0  0
  6  3  1  0  0  0  0
  6  9  1  0  0  0  0
  7  4  1  0  0  0  0
  8 27  1  0  0  0  0
  8  7  2  0  0  0  0
  9 10  1  0  0  0  0
  9  8  1  0  0  0  0
 10 29  1  0  0  0  0
 12  1  1  0  0  0  0
 14  2  1  0  0  0  0
 17  3  1  0  0  0  0
 20  4  1  0  0  0  0
 22  5  1  0  0  0  0
 23  5  1  0  0  0  0
 24  6  1  0  0  0  0
 25  6  1  0  0  0  0
 26  7  1  0  0  0  0
 28 10  1  0  0  0  0
M  END
>  <HBA>
1

>  <HBD>
1

>  <TPSA>
26.02

>  <cid>
43800

>  <dipole>
1.2

>  <excitation_energy_1>
5.572

>  <excitation_energy_2>
5.872

>  <excitation_energy_3>
5.908

>  <excitation_energy_4>
6.18

>  <homo_energy>
-6.207

>  <homo_lumo_gap>
7.045

>  <logP>
3.17

>  <lumo_energy>
0.838

>  <melting_point>
46.51

>  <molecular_refractivity>
47.65

>  <oscillator_strength_1>
0.0218

>  <oscillator_strength_2>
0.0204

>  <oscillator_strength_3>
0.0172

>  <oscillator_strength_4>
0.0117

>  <open_babel_can_smiles>
CC/C=C/C(CC)(CC)N

>  <mulliken_charges>
29
1   -0.439164
2   -0.449768
3   -0.437131
4   -0.296731
5   -0.260902
6   -0.252666
7   -0.092429
8   -0.12137
9   0.172111
10   -0.730229
11   0.140768
12   0.150135
13   0.145311
14   0.144231
15   0.153275
16   0.129449
17   0.130627
18   0.160477
19   0.147407
20   0.135205
21   0.138932
22   0.127034
23   0.120422
24   0.119526
25   0.128194
26   0.137961
27   0.108901
28   0.291186
29   0.299238

>  <lowdin_charges>
29
1   -0.441811
2   -0.448889
3   -0.446251
4   -0.267352
5   -0.283842
6   -0.26887
7   -0.166826
8   -0.174803
9   0.058652
10   -0.542566
11   0.147792
12   0.15134
13   0.146964
14   0.152526
15   0.151707
16   0.138239
17   0.145576
18   0.15497
19   0.151063
20   0.141624
21   0.147049
22   0.138708
23   0.135221
24   0.134697
25   0.139536
26   0.155232
27   0.142682
28   0.25247
29   0.255161

$$$$

