PCCDB-ID:  8170
public computational chemistry database (PCCDB) project, http://pccdb.org

 28 27  0  0  0  0  0  0  0  0999 V2000
    3.2410    1.2485    0.6218 C   0  0  0  0  0  0  0  0  0  0  0  0
    4.6725    1.3753    0.0867 C   0  0  0  0  0  0  0  0  0  0  0  0
    4.9074    0.7103   -1.2804 C   0  0  0  0  0  0  0  0  0  0  0  0
    4.7626   -0.8188   -1.2729 C   0  0  0  0  0  0  0  0  0  0  0  0
    5.0355   -1.4904   -2.6296 C   0  0  0  0  0  0  0  0  0  0  0  0
    9.3976   -2.9058   -1.4351 C   0  0  0  0  0  0  0  0  0  0  0  0
    6.4844   -1.4159   -3.1024 C   0  0  0  0  0  0  0  0  0  0  0  0
    8.6933   -2.0552   -2.4812 C   0  0  0  0  0  0  0  0  0  0  0  0
    8.8939   -4.2303   -1.4294 O   0  0  0  0  0  0  0  0  0  0  0  0
    7.3134   -2.0642   -2.1480 O   0  0  0  0  0  0  0  0  0  0  0  0
    3.1246    1.7957    1.5643 H   0  0  0  0  0  0  0  0  0  0  0  0
    2.9652    0.2056    0.8131 H   0  0  0  0  0  0  0  0  0  0  0  0
    2.5150    1.6585   -0.0919 H   0  0  0  0  0  0  0  0  0  0  0  0
    5.3745    0.9503    0.8182 H   0  0  0  0  0  0  0  0  0  0  0  0
    4.9274    2.4406    0.0055 H   0  0  0  0  0  0  0  0  0  0  0  0
    5.9144    0.9804   -1.6258 H   0  0  0  0  0  0  0  0  0  0  0  0
    4.2077    1.1383   -2.0148 H   0  0  0  0  0  0  0  0  0  0  0  0
    3.7458   -1.0878   -0.9599 H   0  0  0  0  0  0  0  0  0  0  0  0
    5.4425   -1.2460   -0.5248 H   0  0  0  0  0  0  0  0  0  0  0  0
    4.4031   -1.0377   -3.4064 H   0  0  0  0  0  0  0  0  0  0  0  0
    4.7529   -2.5496   -2.5731 H   0  0  0  0  0  0  0  0  0  0  0  0
    9.2843   -2.4281   -0.4480 H   0  0  0  0  0  0  0  0  0  0  0  0
   10.4676   -2.9673   -1.6602 H   0  0  0  0  0  0  0  0  0  0  0  0
    6.8096   -0.3703   -3.2275 H   0  0  0  0  0  0  0  0  0  0  0  0
    6.5879   -1.9068   -4.0846 H   0  0  0  0  0  0  0  0  0  0  0  0
    8.8459   -2.4886   -3.4829 H   0  0  0  0  0  0  0  0  0  0  0  0
    9.0896   -1.0258   -2.4866 H   0  0  0  0  0  0  0  0  0  0  0  0
    7.9272   -4.1341   -1.3981 H   0  0  0  0  0  0  0  0  0  0  0  0
  1 12  1  0  0  0  0
  1 11  1  0  0  0  0
  2  1  1  0  0  0  0
  2 14  1  0  0  0  0
  3  4  1  0  0  0  0
  3  2  1  0  0  0  0
  4 18  1  0  0  0  0
  4 19  1  0  0  0  0
  5 21  1  0  0  0  0
  5  4  1  0  0  0  0
  6  9  1  0  0  0  0
  6 22  1  0  0  0  0
  7  5  1  0  0  0  0
  7 10  1  0  0  0  0
  8 10  1  0  0  0  0
  8  6  1  0  0  0  0
  9 28  1  0  0  0  0
 13  1  1  0  0  0  0
 15  2  1  0  0  0  0
 16  3  1  0  0  0  0
 17  3  1  0  0  0  0
 20  5  1  0  0  0  0
 23  6  1  0  0  0  0
 24  7  1  0  0  0  0
 25  7  1  0  0  0  0
 26  8  1  0  0  0  0
 27  8  1  0  0  0  0
M  END
>  <HBA>
2

>  <HBD>
1

>  <TPSA>
29.46

>  <cid>
8170

>  <dipole>
2.34

>  <excitation_energy_1>
6.647

>  <excitation_energy_2>
6.795

>  <excitation_energy_3>
6.94

>  <excitation_energy_4>
7.039

>  <homo_energy>
-7.053

>  <homo_lumo_gap>
9.075

>  <logP>
1.576

>  <lumo_energy>
2.022

>  <melting_point>
-18.22

>  <molecular_refractivity>
42.82

>  <oscillator_strength_1>
0.0182

>  <oscillator_strength_2>
0.0085

>  <oscillator_strength_3>
0.0152

>  <oscillator_strength_4>
0.0161

>  <open_babel_can_smiles>
CCCCCCOCCO

>  <mulliken_charges>
28
1   -0.4436
2   -0.248766
3   -0.253952
4   -0.254184
5   -0.280239
6   -0.034119
7   -0.010427
8   -0.031202
9   -0.622298
10   -0.490601
11   0.142566
12   0.146944
13   0.139789
14   0.132061
15   0.129823
16   0.13072
17   0.123275
18   0.133134
19   0.147513
20   0.132588
21   0.140874
22   0.12886
23   0.143781
24   0.123951
25   0.123716
26   0.130576
27   0.11987
28   0.399348

>  <lowdin_charges>
28
1   -0.44754
2   -0.271849
3   -0.278751
4   -0.280581
5   -0.282076
6   -0.137287
7   -0.128091
8   -0.145623
9   -0.466802
10   -0.284584
11   0.149987
12   0.146403
13   0.146502
14   0.141085
15   0.139652
16   0.139455
17   0.136373
18   0.142201
19   0.149138
20   0.147378
21   0.147143
22   0.131064
23   0.147732
24   0.125706
25   0.129604
26   0.132319
27   0.130066
28   0.341375

$$$$

