PCCDB-ID:  28369
public computational chemistry database (PCCDB) project, http://pccdb.org

 19 18  0  0  0  0  0  0  0  0999 V2000
    1.8163   -1.3584   -0.0975 C   0  0  0  0  0  0  0  0  0  0  0  0
    2.7162   -0.1728    0.2970 C   0  0  0  0  0  0  0  0  0  0  0  0
    3.0550    0.7093   -0.8679 C   0  0  0  0  0  0  0  0  0  0  0  0
    4.2980    0.9834   -1.3038 C   0  0  0  0  0  0  0  0  0  0  0  0
    4.5802    1.8357   -2.4424 C   0  0  0  0  0  0  0  0  0  0  0  0
    5.8179    2.1426   -2.8823 C   0  0  0  0  0  0  0  0  0  0  0  0
    6.1341    3.0588   -4.0052 C   0  0  0  0  0  0  0  0  0  0  0  0
    7.2057    3.6083   -4.1174 O   0  0  0  0  0  0  0  0  0  0  0  0
    5.1534    3.2857   -4.9288 O   0  0  0  0  0  0  0  0  0  0  0  0
    1.5601   -1.9595    0.7816 H   0  0  0  0  0  0  0  0  0  0  0  0
    2.3189   -2.0090   -0.8212 H   0  0  0  0  0  0  0  0  0  0  0  0
    0.8803   -1.0119   -0.5511 H   0  0  0  0  0  0  0  0  0  0  0  0
    3.6377   -0.5405    0.7646 H   0  0  0  0  0  0  0  0  0  0  0  0
    2.1943    0.4260    1.0586 H   0  0  0  0  0  0  0  0  0  0  0  0
    2.2066    1.1475   -1.3985 H   0  0  0  0  0  0  0  0  0  0  0  0
    5.1555    0.5527   -0.7867 H   0  0  0  0  0  0  0  0  0  0  0  0
    3.7058    2.2642   -2.9365 H   0  0  0  0  0  0  0  0  0  0  0  0
    6.6960    1.7768   -2.3571 H   0  0  0  0  0  0  0  0  0  0  0  0
    4.4313    2.6491   -4.8038 H   0  0  0  0  0  0  0  0  0  0  0  0
  1  2  1  0  0  0  0
  1 10  1  0  0  0  0
  2 13  1  0  0  0  0
  2 14  1  0  0  0  0
  3  2  1  0  0  0  0
  4  3  2  0  0  0  0
  4 16  1  0  0  0  0
  5  4  1  0  0  0  0
  6  5  2  0  0  0  0
  6 18  1  0  0  0  0
  7  6  1  0  0  0  0
  8  7  2  0  0  0  0
  9 19  1  0  0  0  0
  9  7  1  0  0  0  0
 11  1  1  0  0  0  0
 12  1  1  0  0  0  0
 15  3  1  0  0  0  0
 17  5  1  0  0  0  0
M  END
>  <HBA>
2

>  <HBD>
1

>  <TPSA>
37.3

>  <cid>
28369

>  <dipole>
6.16

>  <excitation_energy_1>
4.314

>  <excitation_energy_2>
4.882

>  <excitation_energy_3>
5.818

>  <excitation_energy_4>
6.044

>  <homo_energy>
-6.661

>  <homo_lumo_gap>
4.849

>  <logP>
1.593

>  <lumo_energy>
-1.812

>  <melting_point>
69.51

>  <molecular_refractivity>
36.59

>  <oscillator_strength_1>
0.0271

>  <oscillator_strength_2>
0.8555

>  <oscillator_strength_3>
0.0162

>  <oscillator_strength_4>
0.0399

>  <open_babel_can_smiles>
CC/C=C/C=C/C(=O)O

>  <mulliken_charges>
19
1   -0.444185
2   -0.305804
3   -0.093017
4   -0.10674
5   -0.109667
6   -0.212803
7   0.574566
8   -0.451494
9   -0.576038
10   0.153698
11   0.156018
12   0.148831
13   0.149607
14   0.156753
15   0.131204
16   0.135095
17   0.127724
18   0.161264
19   0.404987

>  <lowdin_charges>
19
1   -0.443505
2   -0.271169
3   -0.130238
4   -0.168931
5   -0.13
6   -0.209653
7   0.188338
8   -0.239213
9   -0.366379
10   0.156209
11   0.154994
12   0.150604
13   0.151778
14   0.158199
15   0.153131
16   0.15993
17   0.152439
18   0.178049
19   0.355417

$$$$

