PCCDB-ID:  61642
public computational chemistry database (PCCDB) project, http://pccdb.org

 23 22  0  0  0  0  0  0  0  0999 V2000
    3.3520   -1.6643   -1.0212 C   0  0  0  0  0  0  0  0  0  0  0  0
    4.1574   -1.7056    0.0433 C   0  0  0  0  0  0  0  0  0  0  0  0
    8.9333    4.7658    0.4926 C   0  0  0  0  0  0  0  0  0  0  0  0
    8.5302    3.4540   -0.1620 C   0  0  0  0  0  0  0  0  0  0  0  0
    6.7085    1.9220   -0.1556 C   0  0  0  0  0  0  0  0  0  0  0  0
    5.2928    1.7962    0.3981 C   0  0  0  0  0  0  0  0  0  0  0  0
    4.8824   -0.5385    0.6007 C   0  0  0  0  0  0  0  0  0  0  0  0
    8.8878    4.6721    1.9050 O   0  0  0  0  0  0  0  0  0  0  0  0
    5.5994   -0.6033    1.5796 O   0  0  0  0  0  0  0  0  0  0  0  0
    7.1944    3.1876    0.2513 O   0  0  0  0  0  0  0  0  0  0  0  0
    4.6553    0.6049   -0.0962 O   0  0  0  0  0  0  0  0  0  0  0  0
    2.8470   -2.5571   -1.3789 H   0  0  0  0  0  0  0  0  0  0  0  0
    3.1750   -0.7412   -1.5635 H   0  0  0  0  0  0  0  0  0  0  0  0
    4.3386   -2.6259    0.5906 H   0  0  0  0  0  0  0  0  0  0  0  0
    8.2785    5.5701    0.1194 H   0  0  0  0  0  0  0  0  0  0  0  0
    9.9640    5.0154    0.2195 H   0  0  0  0  0  0  0  0  0  0  0  0
    9.1982    2.6452    0.1726 H   0  0  0  0  0  0  0  0  0  0  0  0
    8.5905    3.5237   -1.2608 H   0  0  0  0  0  0  0  0  0  0  0  0
    6.6873    1.8444   -1.2545 H   0  0  0  0  0  0  0  0  0  0  0  0
    7.3411    1.1117    0.2347 H   0  0  0  0  0  0  0  0  0  0  0  0
    4.6761    2.6255    0.0453 H   0  0  0  0  0  0  0  0  0  0  0  0
    5.3095    1.7828    1.4901 H   0  0  0  0  0  0  0  0  0  0  0  0
    8.0169    4.2948    2.1128 H   0  0  0  0  0  0  0  0  0  0  0  0
  1  2  2  0  0  0  0
  2 14  1  0  0  0  0
  2  7  1  0  0  0  0
  3  8  1  0  0  0  0
  4 17  1  0  0  0  0
  4 10  1  0  0  0  0
  4  3  1  0  0  0  0
  5 20  1  0  0  0  0
  5 10  1  0  0  0  0
  5  6  1  0  0  0  0
  6 22  1  0  0  0  0
  7  9  2  0  0  0  0
  8 23  1  0  0  0  0
 11  6  1  0  0  0  0
 11  7  1  0  0  0  0
 12  1  1  0  0  0  0
 13  1  1  0  0  0  0
 15  3  1  0  0  0  0
 16  3  1  0  0  0  0
 18  4  1  0  0  0  0
 19  5  1  0  0  0  0
 21  6  1  0  0  0  0
M  END
>  <HBA>
4

>  <HBD>
1

>  <TPSA>
55.76

>  <cid>
61642

>  <dipole>
3.85

>  <excitation_energy_1>
4.726

>  <excitation_energy_2>
5.325

>  <excitation_energy_3>
5.38

>  <excitation_energy_4>
6.022

>  <homo_energy>
-7.148

>  <homo_lumo_gap>
5.739

>  <logP>
-0.276

>  <lumo_energy>
-1.41

>  <melting_point>
-25.72

>  <molecular_refractivity>
38.82

>  <oscillator_strength_1>
0.0001

>  <oscillator_strength_2>
0.0002

>  <oscillator_strength_3>
0.0015

>  <oscillator_strength_4>
0.1224

>  <open_babel_can_smiles>
OCCOCCOC(=O)C=C

>  <mulliken_charges>
23
1   -0.309776
2   -0.130598
3   -0.034401
4   -0.034838
5   -0.024795
6   -0.06567
7   0.609794
8   -0.61925
9   -0.482152
10   -0.498051
11   -0.47865
12   0.160939
13   0.177163
14   0.161499
15   0.130322
16   0.146589
17   0.138613
18   0.123412
19   0.132051
20   0.154127
21   0.165008
22   0.178931
23   0.399733

>  <lowdin_charges>
23
1   -0.273241
2   -0.178811
3   -0.138494
4   -0.144925
5   -0.138059
6   -0.134555
7   0.193078
8   -0.466705
9   -0.262071
10   -0.282805
11   -0.193062
12   0.171024
13   0.176703
14   0.17596
15   0.133359
16   0.150333
17   0.138675
18   0.130606
19   0.130893
20   0.146049
21   0.160817
22   0.161603
23   0.343628

$$$$

