PCCDB-ID:  11721
public computational chemistry database (PCCDB) project, http://pccdb.org

 15 14  0  0  0  0  0  0  0  0999 V2000
    1.0837   -0.0920   -0.0135 C   0  0  0  0  0  0  0  0  0  0  0  0
    2.9607   -1.1610   -1.3431 C   0  0  0  0  0  0  0  0  0  0  0  0
    4.4116    1.3701   -0.3857 C   0  0  0  0  0  0  0  0  0  0  0  0
    2.5917   -0.1758   -0.2290 C   0  0  0  0  0  0  0  0  0  0  0  0
    3.0250    1.1521   -0.5283 O   0  0  0  0  0  0  0  0  0  0  0  0
    0.6738   -1.0708    0.2588 H   0  0  0  0  0  0  0  0  0  0  0  0
    0.5893    0.2478   -0.9305 H   0  0  0  0  0  0  0  0  0  0  0  0
    0.8513    0.6208    0.7837 H   0  0  0  0  0  0  0  0  0  0  0  0
    2.5914   -2.1656   -1.1068 H   0  0  0  0  0  0  0  0  0  0  0  0
    4.0444   -1.2325   -1.4837 H   0  0  0  0  0  0  0  0  0  0  0  0
    2.5123   -0.8416   -2.2908 H   0  0  0  0  0  0  0  0  0  0  0  0
    4.5812    2.4405   -0.5324 H   0  0  0  0  0  0  0  0  0  0  0  0
    5.0105    0.8191   -1.1268 H   0  0  0  0  0  0  0  0  0  0  0  0
    4.7663    1.0902    0.6202 H   0  0  0  0  0  0  0  0  0  0  0  0
    3.0731   -0.5005    0.7106 H   0  0  0  0  0  0  0  0  0  0  0  0
  1  6  1  0  0  0  0
  1  8  1  0  0  0  0
  2  9  1  0  0  0  0
  2  4  1  0  0  0  0
  3 14  1  0  0  0  0
  4  1  1  0  0  0  0
  4 15  1  0  0  0  0
  5  3  1  0  0  0  0
  5  4  1  0  0  0  0
  7  1  1  0  0  0  0
 10  2  1  0  0  0  0
 11  2  1  0  0  0  0
 12  3  1  0  0  0  0
 13  3  1  0  0  0  0
M  END
>  <HBA>
1

>  <HBD>
0

>  <TPSA>
9.23

>  <cid>
11721

>  <dipole>
1.17

>  <excitation_energy_1>
6.402

>  <excitation_energy_2>
6.878

>  <excitation_energy_3>
7.034

>  <excitation_energy_4>
7.201

>  <homo_energy>
-6.721

>  <homo_lumo_gap>
9.091

>  <logP>
1.041

>  <lumo_energy>
2.37

>  <melting_point>
-34.18

>  <molecular_refractivity>
22.43

>  <oscillator_strength_1>
0.0112

>  <oscillator_strength_2>
0.0104

>  <oscillator_strength_3>
0.0314

>  <oscillator_strength_4>
0.0145

>  <open_babel_can_smiles>
COC(C)C

>  <mulliken_charges>
15
1   -0.445749
2   -0.454734
3   -0.194047
4   0.159909
5   -0.466334
6   0.138188
7   0.152432
8   0.153711
9   0.1413
10   0.144689
11   0.152451
12   0.155812
13   0.129983
14   0.125789
15   0.106599

>  <lowdin_charges>
15
1   -0.448645
2   -0.457609
3   -0.27975
4   0.009585
5   -0.275882
6   0.150405
7   0.155171
8   0.157638
9   0.152178
10   0.148609
11   0.154414
12   0.152299
13   0.131531
14   0.128857
15   0.121197

$$$$

