PCCDB-ID:  15036
public computational chemistry database (PCCDB) project, http://pccdb.org

 19 19  0  0  1  0  0  0  0  0999 V2000
    0.5472    0.3175    0.0168 C   0  0  0  0  0  0  0  0  0  0  0  0
    2.0308   -0.0585    0.0830 C   0  0  0  0  0  0  0  0  0  0  0  0
    2.9587    1.0622   -0.4037 C   0  0  0  0  0  0  0  0  0  0  0  0
    4.4464    0.6851   -0.3428 C   0  0  0  0  0  0  0  0  0  0  0  0
    5.8572    1.9111   -2.1672 C   0  0  0  0  0  0  0  0  0  0  0  0
    5.3537    1.8085   -0.7893 C   0  0  2  0  0  0  0  0  0  0  0  0
    6.7097    1.4619   -1.1062 O   0  0  0  0  0  0  0  0  0  0  0  0
   -0.0884   -0.5015    0.3720 H   0  0  0  0  0  0  0  0  0  0  0  0
    0.2434    0.5536   -1.0104 H   0  0  0  0  0  0  0  0  0  0  0  0
    0.3331    1.1976    0.6357 H   0  0  0  0  0  0  0  0  0  0  0  0
    2.2081   -0.9611   -0.5186 H   0  0  0  0  0  0  0  0  0  0  0  0
    2.2968   -0.3244    1.1158 H   0  0  0  0  0  0  0  0  0  0  0  0
    2.7841    1.9639    0.2020 H   0  0  0  0  0  0  0  0  0  0  0  0
    2.6932    1.3330   -1.4358 H   0  0  0  0  0  0  0  0  0  0  0  0
    4.6432   -0.1947   -0.9691 H   0  0  0  0  0  0  0  0  0  0  0  0
    4.7141    0.4021    0.6852 H   0  0  0  0  0  0  0  0  0  0  0  0
    6.1079    2.8850   -2.5895 H   0  0  0  0  0  0  0  0  0  0  0  0
    5.5808    1.1481   -2.8966 H   0  0  0  0  0  0  0  0  0  0  0  0
    5.2648    2.7367   -0.2180 H   0  0  0  0  0  0  0  0  0  0  0  0
  1  2  1  0  0  0  0
  1  8  1  0  0  0  0
  1 10  1  0  0  0  0
  2 12  1  0  0  0  0
  3  4  1  0  0  0  0
  3  2  1  0  0  0  0
  3 13  1  0  0  0  0
  4 16  1  0  0  0  0
  5  7  1  0  0  0  0
  5  6  1  0  0  0  0
  6  4  1  0  0  0  0
  6 19  1  1  0  0  0
  7  6  1  0  0  0  0
  9  1  1  0  0  0  0
 11  2  1  0  0  0  0
 14  3  1  0  0  0  0
 15  4  1  0  0  0  0
 17  5  1  0  0  0  0
 18  5  1  0  0  0  0
M  END
>  <HBA>
1

>  <HBD>
0

>  <TPSA>
12.53

>  <cid>
15036

>  <dipole>
2.06

>  <excitation_energy_1>
6.788

>  <excitation_energy_2>
7.1

>  <excitation_energy_3>
7.212

>  <excitation_energy_4>
7.286

>  <homo_energy>
-7.078

>  <homo_lumo_gap>
9.445

>  <logP>
1.575

>  <lumo_energy>
2.367

>  <melting_point>
-12.93

>  <molecular_refractivity>
29.93

>  <oscillator_strength_1>
0.0203

>  <oscillator_strength_2>
0.0051

>  <oscillator_strength_3>
0.0135

>  <oscillator_strength_4>
0.0032

>  <open_babel_can_smiles>
CCCC[C@@H]1CO1

>  <mulliken_charges>
19
1   -0.44266
2   -0.246933
3   -0.25533
4   -0.281241
5   -0.109609
6   0.110376
7   -0.451076
8   0.144473
9   0.14237
10   0.142522
11   0.133462
12   0.133942
13   0.131134
14   0.132436
15   0.141701
16   0.145021
17   0.14702
18   0.145482
19   0.13691

>  <lowdin_charges>
19
1   -0.444999
2   -0.270519
3   -0.273931
4   -0.27868
5   -0.171872
6   -0.021011
7   -0.28977
8   0.151706
9   0.146002
10   0.147323
11   0.140687
12   0.139664
13   0.139437
14   0.139067
15   0.150596
16   0.149118
17   0.151586
18   0.150934
19   0.144664

$$$$

