PCCDB-ID:  15061
public computational chemistry database (PCCDB) project, http://pccdb.org

 24 23  0  0  0  0  0  0  0  0999 V2000
    0.9429   -0.3449   -0.0697 C   0  0  0  0  0  0  0  0  0  0  0  0
    0.4461    0.0014   -1.4774 C   0  0  0  0  0  0  0  0  0  0  0  0
    2.4364   -0.6773   -0.0445 C   0  0  0  0  0  0  0  0  0  0  0  0
   -1.0494    0.3250   -1.5043 C   0  0  0  0  0  0  0  0  0  0  0  0
    4.3605   -1.3789    1.5050 C   0  0  0  0  0  0  0  0  0  0  0  0
   -2.9843    0.9687   -3.0656 C   0  0  0  0  0  0  0  0  0  0  0  0
    2.9412   -1.0367    1.3511 C   0  0  0  0  0  0  0  0  0  0  0  0
   -1.5516    0.6960   -2.8978 C   0  0  0  0  0  0  0  0  0  0  0  0
    5.8828   -1.3880   -0.4105 N   0  0  0  0  0  0  0  0  0  0  0  0
   -4.5364    0.8297   -1.1793 N   0  0  0  0  0  0  0  0  0  0  0  0
    5.1863   -1.3884    0.4928 N   0  0  0  0  0  0  0  0  0  0  0  0
   -3.8260    0.8991   -2.0689 N   0  0  0  0  0  0  0  0  0  0  0  0
    2.2134   -1.0484    2.3337 O   0  0  0  0  0  0  0  0  0  0  0  0
   -0.8104    0.7760   -3.8670 O   0  0  0  0  0  0  0  0  0  0  0  0
    0.3813   -1.1961    0.3345 H   0  0  0  0  0  0  0  0  0  0  0  0
    0.7516    0.4893    0.6166 H   0  0  0  0  0  0  0  0  0  0  0  0
    0.6439   -0.8301   -2.1654 H   0  0  0  0  0  0  0  0  0  0  0  0
    1.0026    0.8571   -1.8788 H   0  0  0  0  0  0  0  0  0  0  0  0
    3.0250    0.1712   -0.4245 H   0  0  0  0  0  0  0  0  0  0  0  0
    2.6551   -1.5132   -0.7258 H   0  0  0  0  0  0  0  0  0  0  0  0
   -1.2733    1.1568   -0.8192 H   0  0  0  0  0  0  0  0  0  0  0  0
   -1.6344   -0.5280   -1.1295 H   0  0  0  0  0  0  0  0  0  0  0  0
    4.7725   -1.6365    2.4720 H   0  0  0  0  0  0  0  0  0  0  0  0
   -3.3931    1.2406   -4.0300 H   0  0  0  0  0  0  0  0  0  0  0  0
  1  3  1  0  0  0  0
  1 15  1  0  0  0  0
  1 16  1  0  0  0  0
  2  1  1  0  0  0  0
  3  7  1  0  0  0  0
  4  2  1  0  0  0  0
  4 22  1  0  0  0  0
  4 21  1  0  0  0  0
  5 23  1  0  0  0  0
  6  8  1  0  0  0  0
  6 12  1  0  0  0  0
  7  5  1  0  0  0  0
  7 13  2  0  0  0  0
  8  4  1  0  0  0  0
  9 11  1  0  0  0  0
 11  5  1  0  0  0  0
 12 10  1  0  0  0  0
 14  8  2  0  0  0  0
 17  2  1  0  0  0  0
 18  2  1  0  0  0  0
 19  3  1  0  0  0  0
 20  3  1  0  0  0  0
 24  6  1  0  0  0  0
M  RAD  6   5   2   6   2   9   3  10   3  11   2  12   2
M  END
>  <HBA>
4

>  <HBD>
0

>  <TPSA>
102.42

>  <cid>
15061

>  <dipole>
0.09

>  <excitation_energy_1>
3.006

>  <excitation_energy_2>
3.006

>  <excitation_energy_3>
4.029

>  <excitation_energy_4>
4.029

>  <homo_energy>
-6.732

>  <homo_lumo_gap>
4.67

>  <logP>
2.797

>  <lumo_energy>
-2.063

>  <melting_point>
71.56

>  <molecular_refractivity>
46.94

>  <oscillator_strength_1>
0.0

>  <oscillator_strength_2>
0.0

>  <oscillator_strength_3>
0.0002

>  <oscillator_strength_4>
0.001

>  <open_babel_can_smiles>
[N][N][CH]C(=O)CCCCC(=O)[CH][N][N]

>  <mulliken_charges>
24
1   -0.250903
2   -0.251079
3   -0.377945
4   -0.377847
5   -0.138721
6   -0.138792
7   0.460251
8   0.460286
9   -0.19415
10   -0.19417
11   0.146823
12   0.146945
13   -0.48203
14   -0.482102
15   0.150898
16   0.150686
17   0.149044
18   0.15258
19   0.164589
20   0.163907
21   0.165799
22   0.162616
23   0.206652
24   0.206664

>  <lowdin_charges>
24
1   -0.270592
2   -0.270622
3   -0.312008
4   -0.312005
5   -0.282388
6   -0.28252
7   0.156656
8   0.156722
9   -0.04044
10   -0.040439
11   0.17139
12   0.171563
13   -0.256746
14   -0.256826
15   0.152357
16   0.152109
17   0.151245
18   0.153207
19   0.162803
20   0.162193
21   0.16337
22   0.161596
23   0.204685
24   0.204692

$$$$

