PCCDB-ID:  11923
public computational chemistry database (PCCDB) project, http://pccdb.org

 18 18  0  0  0  0  0  0  0  0999 V2000
   -1.3545   -0.0938    0.0536 C   0  0  0  0  0  0  0  0  0  0  0  0
   -0.6169   -1.2742    0.1577 C   0  0  0  0  0  0  0  0  0  0  0  0
   -0.6997    1.1295   -0.0817 C   0  0  0  0  0  0  0  0  0  0  0  0
    0.7714   -1.2169    0.1269 C   0  0  0  0  0  0  0  0  0  0  0  0
    1.3239    2.6099   -0.2865 C   0  0  0  0  0  0  0  0  0  0  0  0
    0.6968    1.2291   -0.1306 C   0  0  0  0  0  0  0  0  0  0  0  0
    1.4084    0.0175   -0.0261 C   0  0  0  0  0  0  0  0  0  0  0  0
    2.8790   -0.0242   -0.0639 N   0  0  0  0  0  0  0  0  0  0  0  0
    1.7664    2.8691   -1.6051 O   0  0  0  0  0  0  0  0  0  0  0  0
    3.4381   -1.0113    0.4057 O   0  0  0  0  0  0  0  0  0  0  0  0
    3.4898    0.9247   -0.5734 O   0  0  0  0  0  0  0  0  0  0  0  0
   -2.4401   -0.1240    0.0802 H   0  0  0  0  0  0  0  0  0  0  0  0
   -1.1160   -2.2323    0.2644 H   0  0  0  0  0  0  0  0  0  0  0  0
   -1.2822    2.0436   -0.1557 H   0  0  0  0  0  0  0  0  0  0  0  0
    1.3765   -2.1108    0.2135 H   0  0  0  0  0  0  0  0  0  0  0  0
    2.1311    2.7437    0.4461 H   0  0  0  0  0  0  0  0  0  0  0  0
    0.5542    3.3568   -0.0718 H   0  0  0  0  0  0  0  0  0  0  0  0
    2.5572    2.3146   -1.7184 H   0  0  0  0  0  0  0  0  0  0  0  0
  1 12  1  0  0  0  0
  1  2  2  0  0  0  0
  2 13  1  0  0  0  0
  3  1  1  0  0  0  0
  4  2  1  0  0  0  0
  4 15  1  0  0  0  0
  5  6  1  0  0  0  0
  5 17  1  0  0  0  0
  5 16  1  0  0  0  0
  6  3  2  0  0  0  0
  6  7  1  0  0  0  0
  7  4  2  0  0  0  0
  8  7  1  0  0  0  0
  8 10  2  0  0  0  0
  9  5  1  0  0  0  0
 11  8  2  0  0  0  0
 14  3  1  0  0  0  0
 18  9  1  0  0  0  0
M  END
>  <HBA>
1

>  <HBD>
1

>  <TPSA>
66.05

>  <cid>
11923

>  <dipole>
4.19

>  <excitation_energy_1>
3.71

>  <excitation_energy_2>
3.788

>  <excitation_energy_3>
4.046

>  <excitation_energy_4>
4.401

>  <homo_energy>
-7.252

>  <homo_lumo_gap>
4.566

>  <logP>
1.61

>  <lumo_energy>
-2.686

>  <melting_point>
65.57

>  <molecular_refractivity>
41.39

>  <oscillator_strength_1>
0.0089

>  <oscillator_strength_2>
0.0123

>  <oscillator_strength_3>
0.0145

>  <oscillator_strength_4>
0.0026

>  <open_babel_can_smiles>
OCc1ccccc1N(=O)=O

>  <mulliken_charges>
18
1   -0.101451
2   -0.141491
3   -0.192936
4   -0.140658
5   -0.098337
6   0.153096
7   0.213611
8   0.368787
9   -0.620676
10   -0.375441
11   -0.416237
12   0.151172
13   0.152705
14   0.150853
15   0.184763
16   0.146201
17   0.149127
18   0.416912

>  <lowdin_charges>
18
1   -0.125209
2   -0.14856
3   -0.150615
4   -0.135963
5   -0.135542
6   0.00106
7   -0.001616
8   0.313666
9   -0.46358
10   -0.232183
11   -0.258569
12   0.166837
13   0.169691
14   0.169037
15   0.188429
16   0.144908
17   0.153512
18   0.344699

$$$$

