PCCDB-ID:  38515
public computational chemistry database (PCCDB) project, http://pccdb.org

 29 29  0  0  1  0  0  0  0  0999 V2000
    3.2174    0.3915   -0.8590 C   0  0  0  0  0  0  0  0  0  0  0  0
   -0.1203    5.6651   -0.2688 C   0  0  0  0  0  0  0  0  0  0  0  0
    3.1270    9.3683   -1.5740 C   0  0  0  0  0  0  0  0  0  0  0  0
    3.1771    8.7465   -0.3241 C   0  0  0  0  0  0  0  0  0  0  0  0
    2.4781    8.7361   -2.6348 C   0  0  0  0  0  0  0  0  0  0  0  0
    2.5748    7.5035   -0.1338 C   0  0  0  0  0  0  0  0  0  0  0  0
    1.8839    7.4871   -2.4452 C   0  0  0  0  0  0  0  0  0  0  0  0
    2.9865    2.6035    0.4915 C   0  0  0  0  0  0  0  0  0  0  0  0
    3.8791    1.6342   -0.3071 C   0  0  0  0  0  0  0  0  0  0  0  0
    1.2180    5.5374   -0.9976 C   0  0  1  0  0  0  0  0  0  0  0  0
    1.9224    6.8617   -1.1945 C   0  0  0  0  0  0  0  0  0  0  0  0
    2.0075    3.3548   -0.4008 C   0  0  0  0  0  0  0  0  0  0  0  0
    5.0587    1.8782   -0.4546 O   0  0  0  0  0  0  0  0  0  0  0  0
    1.2392    2.8274   -1.1800 O   0  0  0  0  0  0  0  0  0  0  0  0
    2.1048    4.6824   -0.2080 O   0  0  0  0  0  0  0  0  0  0  0  0
    2.8894   -0.2504   -0.0304 H   0  0  0  0  0  0  0  0  0  0  0  0
    3.9235   -0.1578   -1.4846 H   0  0  0  0  0  0  0  0  0  0  0  0
    2.3212    0.6643   -1.4256 H   0  0  0  0  0  0  0  0  0  0  0  0
   -0.7896    6.3215   -0.8347 H   0  0  0  0  0  0  0  0  0  0  0  0
    0.0227    6.0991    0.7262 H   0  0  0  0  0  0  0  0  0  0  0  0
   -0.5961    4.6848   -0.1707 H   0  0  0  0  0  0  0  0  0  0  0  0
    3.5980   10.3365   -1.7210 H   0  0  0  0  0  0  0  0  0  0  0  0
    3.6873    9.2306    0.5044 H   0  0  0  0  0  0  0  0  0  0  0  0
    2.4407    9.2089   -3.6126 H   0  0  0  0  0  0  0  0  0  0  0  0
    2.6256    7.0179    0.8363 H   0  0  0  0  0  0  0  0  0  0  0  0
    1.3890    6.9922   -3.2780 H   0  0  0  0  0  0  0  0  0  0  0  0
    3.6256    3.3050    1.0280 H   0  0  0  0  0  0  0  0  0  0  0  0
    2.3857    2.0305    1.2099 H   0  0  0  0  0  0  0  0  0  0  0  0
    1.0631    5.0445   -1.9605 H   0  0  0  0  0  0  0  0  0  0  0  0
  1  9  1  0  0  0  0
  1 16  1  0  0  0  0
  2 21  1  0  0  0  0
  2 20  1  0  0  0  0
  3  4  2  0  0  0  0
  4  6  1  0  0  0  0
  4 23  1  0  0  0  0
  5  7  2  0  0  0  0
  5  3  1  0  0  0  0
  6 25  1  0  0  0  0
  7 11  1  0  0  0  0
  8 27  1  0  0  0  0
  8 28  1  0  0  0  0
  9  8  1  0  0  0  0
 10 29  1  6  0  0  0
 10  2  1  0  0  0  0
 10 15  1  0  0  0  0
 11 10  1  0  0  0  0
 11  6  2  0  0  0  0
 12 15  1  0  0  0  0
 12  8  1  0  0  0  0
 13  9  2  0  0  0  0
 14 12  2  0  0  0  0
 17  1  1  0  0  0  0
 18  1  1  0  0  0  0
 19  2  1  0  0  0  0
 22  3  1  0  0  0  0
 24  5  1  0  0  0  0
 26  7  1  0  0  0  0
M  END
>  <HBA>
3

>  <HBD>
0

>  <TPSA>
43.37

>  <cid>
38515

>  <dipole>
2.61

>  <excitation_energy_1>
4.356

>  <excitation_energy_2>
5.312

>  <excitation_energy_3>
5.485

>  <excitation_energy_4>
5.64

>  <homo_energy>
-6.778

>  <homo_lumo_gap>
6.106

>  <logP>
2.27

>  <lumo_energy>
-0.672

>  <melting_point>
37.66

>  <molecular_refractivity>
56.93

>  <oscillator_strength_1>
0.0017

>  <oscillator_strength_2>
0.0003

>  <oscillator_strength_3>
0.0166

>  <oscillator_strength_4>
0.0034

>  <open_babel_can_smiles>
C[C@@H](c1ccccc1)OC(=O)CC(=O)C

>  <mulliken_charges>
29
1   -0.538335
2   -0.454185
3   -0.126202
4   -0.130633
5   -0.128807
6   -0.166659
7   -0.184189
8   -0.437887
9   0.452636
10   0.036268
11   0.151706
12   0.627518
13   -0.41976
14   -0.475394
15   -0.461557
16   0.166419
17   0.177017
18   0.207533
19   0.15945
20   0.157257
21   0.169708
22   0.132748
23   0.133535
24   0.133423
25   0.139191
26   0.130373
27   0.193301
28   0.184732
29   0.170791

>  <lowdin_charges>
29
1   -0.481992
2   -0.449765
3   -0.153006
4   -0.153432
5   -0.153273
6   -0.155986
7   -0.16477
8   -0.331689
9   0.171173
10   0.010761
11   -0.012777
12   0.205483
13   -0.221503
14   -0.275474
15   -0.180842
16   0.171563
17   0.173276
18   0.188676
19   0.16465
20   0.156971
21   0.163417
22   0.158827
23   0.16051
24   0.159329
25   0.16202
26   0.158519
27   0.18416
28   0.183052
29   0.162121

$$$$

