PCCDB-ID:  48819
public computational chemistry database (PCCDB) project, http://pccdb.org

 30 30  0  0  0  0  0  0  0  0999 V2000
    5.2164    1.9939    2.9503 C   0  0  0  0  0  0  0  0  0  0  0  0
    3.3002   -1.1039    1.5838 C   0  0  0  0  0  0  0  0  0  0  0  0
    5.7254    0.9182    2.3489 C   0  0  0  0  0  0  0  0  0  0  0  0
    9.6302   -4.0164    0.7552 C   0  0  0  0  0  0  0  0  0  0  0  0
    7.6999   -5.4662    0.7228 C   0  0  0  0  0  0  0  0  0  0  0  0
    8.7942   -2.9100    0.8326 C   0  0  0  0  0  0  0  0  0  0  0  0
    6.8583   -4.3642    0.8072 C   0  0  0  0  0  0  0  0  0  0  0  0
    5.2516    0.3925    1.0175 C   0  0  0  0  0  0  0  0  0  0  0  0
    9.0959   -5.3099    0.6871 C   0  0  0  0  0  0  0  0  0  0  0  0
    7.3995   -3.0669    0.8628 C   0  0  0  0  0  0  0  0  0  0  0  0
   10.0563   -6.4558    0.5945 C   0  0  0  0  0  0  0  0  0  0  0  0
    9.5284   -7.6670    0.1954 N   0  0  0  0  0  0  0  0  0  0  0  0
    6.6499   -1.8714    0.9459 N   0  0  0  0  0  0  0  0  0  0  0  0
    5.4051   -2.0586    1.1187 N   0  0  0  0  0  0  0  0  0  0  0  0
    4.6660   -0.9523    1.1173 N   0  0  0  0  0  0  0  0  0  0  0  0
   11.2423   -6.3404    0.8809 O   0  0  0  0  0  0  0  0  0  0  0  0
    5.5893    2.3433    3.9092 H   0  0  0  0  0  0  0  0  0  0  0  0
    4.4137    2.5761    2.5010 H   0  0  0  0  0  0  0  0  0  0  0  0
    2.6133   -0.5691    0.9179 H   0  0  0  0  0  0  0  0  0  0  0  0
    3.1782   -0.7109    2.6021 H   0  0  0  0  0  0  0  0  0  0  0  0
    3.0584   -2.1676    1.5766 H   0  0  0  0  0  0  0  0  0  0  0  0
    6.5302    0.3531    2.8147 H   0  0  0  0  0  0  0  0  0  0  0  0
   10.7092   -3.9036    0.7423 H   0  0  0  0  0  0  0  0  0  0  0  0
    7.2613   -6.4607    0.7168 H   0  0  0  0  0  0  0  0  0  0  0  0
    9.1991   -1.9035    0.8779 H   0  0  0  0  0  0  0  0  0  0  0  0
    5.7822   -4.4917    0.8392 H   0  0  0  0  0  0  0  0  0  0  0  0
    6.0851    0.3183    0.3131 H   0  0  0  0  0  0  0  0  0  0  0  0
    4.4821    1.0472    0.5947 H   0  0  0  0  0  0  0  0  0  0  0  0
    8.6992   -7.6856   -0.3809 H   0  0  0  0  0  0  0  0  0  0  0  0
   10.2176   -8.3821    0.0016 H   0  0  0  0  0  0  0  0  0  0  0  0
  1 17  1  0  0  0  0
  2 20  1  0  0  0  0
  3 22  1  0  0  0  0
  3  1  2  0  0  0  0
  4  6  2  0  0  0  0
  5  7  1  0  0  0  0
  6 10  1  0  0  0  0
  6 25  1  0  0  0  0
  7 26  1  0  0  0  0
  7 10  2  0  0  0  0
  8 15  1  0  0  0  0
  8  3  1  0  0  0  0
  9  5  2  0  0  0  0
  9  4  1  0  0  0  0
 10 13  1  0  0  0  0
 11  9  1  0  0  0  0
 11 16  2  0  0  0  0
 12 11  1  0  0  0  0
 13 14  1  0  0  0  0
 15 14  1  0  0  0  0
 15  2  1  0  0  0  0
 18  1  1  0  0  0  0
 19  2  1  0  0  0  0
 21  2  1  0  0  0  0
 23  4  1  0  0  0  0
 24  5  1  0  0  0  0
 27  8  1  0  0  0  0
 28  8  1  0  0  0  0
 29 12  1  0  0  0  0
 30 12  1  0  0  0  0
M  RAD  2  13   2  14   2
M  END
>  <HBA>
5

>  <HBD>
1

>  <TPSA>
71.05

>  <cid>
48819

>  <dipole>
5.68

>  <excitation_energy_1>
3.769

>  <excitation_energy_2>
3.967

>  <excitation_energy_3>
4.29

>  <excitation_energy_4>
4.454

>  <homo_energy>
-5.728

>  <homo_lumo_gap>
4.278

>  <logP>
2.602

>  <lumo_energy>
-1.45

>  <melting_point>
97.07

>  <molecular_refractivity>
61.76

>  <oscillator_strength_1>
0.0967

>  <oscillator_strength_2>
0.7093

>  <oscillator_strength_3>
0.0112

>  <oscillator_strength_4>
0.006

>  <open_babel_can_smiles>
C=CCN([N][N]c1ccc(cc1)C(=O)N)C

>  <mulliken_charges>
30
1   -0.337792
2   -0.302035
3   -0.044368
4   -0.170915
5   -0.203531
6   -0.159607
7   -0.143874
8   -0.195881
9   0.085281
10   0.297359
11   0.523746
12   -0.752787
13   -0.399083
14   -0.03922
15   -0.196675
16   -0.505409
17   0.150361
18   0.138708
19   0.160222
20   0.169499
21   0.185541
22   0.15744
23   0.162458
24   0.129537
25   0.136022
26   0.143187
27   0.195221
28   0.150808
29   0.32887
30   0.336916

>  <lowdin_charges>
30
1   -0.332715
2   -0.351368
3   -0.154432
4   -0.128294
5   -0.155453
6   -0.162248
7   -0.170763
8   -0.211069
9   -0.052111
10   0.034092
11   0.162595
12   -0.475584
13   -0.176899
14   -0.030746
15   -0.031243
16   -0.30325
17   0.163727
18   0.155566
19   0.156225
20   0.155142
21   0.172711
22   0.166954
23   0.175146
24   0.156066
25   0.164295
26   0.164957
27   0.179512
28   0.157024
29   0.28286
30   0.289304

$$$$

