PCCDB-ID:  9895
public computational chemistry database (PCCDB) project, http://pccdb.org

 27 27  0  0  0  0  0  0  0  0999 V2000
    0.9232    0.1428   -0.0119 C   0  0  0  0  0  0  0  0  0  0  0  0
    5.1992   -1.7371   -1.4153 C   0  0  0  0  0  0  0  0  0  0  0  0
    5.1680   -2.1644    1.0667 C   0  0  0  0  0  0  0  0  0  0  0  0
    4.5761    1.2991   -0.5383 C   0  0  0  0  0  0  0  0  0  0  0  0
    3.1109    1.3601   -0.1115 C   0  0  0  0  0  0  0  0  0  0  0  0
    5.2736    0.1826    0.2345 C   0  0  0  0  0  0  0  0  0  0  0  0
    2.3976   -2.4383   -0.1619 C   0  0  0  0  0  0  0  0  0  0  0  0
    2.4312    0.0080   -0.0569 C   0  0  0  0  0  0  0  0  0  0  0  0
    3.1352   -1.1581   -0.0712 C   0  0  0  0  0  0  0  0  0  0  0  0
    4.6767   -1.2165   -0.0541 C   0  0  0  0  0  0  0  0  0  0  0  0
    2.8978   -3.5419   -0.3228 O   0  0  0  0  0  0  0  0  0  0  0  0
    0.6563    0.9711    0.6566 H   0  0  0  0  0  0  0  0  0  0  0  0
    0.3863   -0.7416    0.3299 H   0  0  0  0  0  0  0  0  0  0  0  0
    0.5352    0.4111   -1.0042 H   0  0  0  0  0  0  0  0  0  0  0  0
    6.2934   -1.8163   -1.3902 H   0  0  0  0  0  0  0  0  0  0  0  0
    4.9297   -1.0640   -2.2371 H   0  0  0  0  0  0  0  0  0  0  0  0
    4.7901   -2.7255   -1.6354 H   0  0  0  0  0  0  0  0  0  0  0  0
    6.2623   -2.1165    1.1317 H   0  0  0  0  0  0  0  0  0  0  0  0
    4.8766   -3.1980    0.8758 H   0  0  0  0  0  0  0  0  0  0  0  0
    4.7631   -1.8623    2.0403 H   0  0  0  0  0  0  0  0  0  0  0  0
    5.0625    2.2650   -0.3577 H   0  0  0  0  0  0  0  0  0  0  0  0
    4.6394    1.1128   -1.6179 H   0  0  0  0  0  0  0  0  0  0  0  0
    2.5328    2.0151   -0.7792 H   0  0  0  0  0  0  0  0  0  0  0  0
    3.0271    1.8217    0.8863 H   0  0  0  0  0  0  0  0  0  0  0  0
    5.1869    0.3955    1.3100 H   0  0  0  0  0  0  0  0  0  0  0  0
    6.3473    0.1586    0.0090 H   0  0  0  0  0  0  0  0  0  0  0  0
    1.2954   -2.3659   -0.1013 H   0  0  0  0  0  0  0  0  0  0  0  0
  1 13  1  0  0  0  0
  1 12  1  0  0  0  0
  2 15  1  0  0  0  0
  2 10  1  0  0  0  0
  3 18  1  0  0  0  0
  3 20  1  0  0  0  0
  4 21  1  0  0  0  0
  4  5  1  0  0  0  0
  4  6  1  0  0  0  0
  5  8  1  0  0  0  0
  5 24  1  0  0  0  0
  6 25  1  0  0  0  0
  7 27  1  0  0  0  0
  7  9  1  0  0  0  0
  8  1  1  0  0  0  0
  9  8  2  0  0  0  0
  9 10  1  0  0  0  0
 10  6  1  0  0  0  0
 10  3  1  0  0  0  0
 11  7  2  0  0  0  0
 14  1  1  0  0  0  0
 16  2  1  0  0  0  0
 17  2  1  0  0  0  0
 19  3  1  0  0  0  0
 22  4  1  0  0  0  0
 23  5  1  0  0  0  0
 26  6  1  0  0  0  0
M  END
>  <HBA>
1

>  <HBD>
0

>  <TPSA>
17.07

>  <cid>
9895

>  <dipole>
3.72

>  <excitation_energy_1>
3.54

>  <excitation_energy_2>
5.197

>  <excitation_energy_3>
5.973

>  <excitation_energy_4>
5.995

>  <homo_energy>
-6.433

>  <homo_lumo_gap>
5.102

>  <logP>
2.712

>  <lumo_energy>
-1.331

>  <melting_point>
60.4

>  <molecular_refractivity>
47.54

>  <oscillator_strength_1>
0.0003

>  <oscillator_strength_2>
0.2877

>  <oscillator_strength_3>
0.0001

>  <oscillator_strength_4>
0.0052

>  <open_babel_can_smiles>
O=CC1=C(C)CCCC1(C)C

>  <mulliken_charges>
27
1   -0.523437
2   -0.460644
3   -0.464399
4   -0.272761
5   -0.331179
6   -0.27125
7   0.193794
8   0.101133
9   0.057463
10   0.048134
11   -0.422357
12   0.162064
13   0.171072
14   0.170776
15   0.135276
16   0.134761
17   0.177922
18   0.133451
19   0.182339
20   0.132373
21   0.135252
22   0.143766
23   0.149594
24   0.155979
25   0.12894
26   0.132581
27   0.099356

>  <lowdin_charges>
27
1   -0.450127
2   -0.446327
3   -0.443539
4   -0.276219
5   -0.279707
6   -0.27107
7   0.040251
8   0.026184
9   -0.07425
10   0.019017
11   -0.24581
12   0.162377
13   0.162185
14   0.166404
15   0.143542
16   0.143858
17   0.166105
18   0.143523
19   0.166603
20   0.143613
21   0.147314
22   0.14302
23   0.155416
24   0.155619
25   0.138425
26   0.143987
27   0.119607

$$$$

