PCCDB-ID:  14057
public computational chemistry database (PCCDB) project, http://pccdb.org

 20 19  0  0  0  0  0  0  0  0999 V2000
    0.8444   -0.0667   -0.0131 C   0  0  0  0  0  0  0  0  0  0  0  0
    2.7478   -1.4079    0.9304 C   0  0  0  0  0  0  0  0  0  0  0  0
    2.8235   -0.6210   -1.4628 C   0  0  0  0  0  0  0  0  0  0  0  0
    3.0263    1.0771    0.4190 C   0  0  0  0  0  0  0  0  0  0  0  0
    4.5494    1.0649    0.4227 C   0  0  0  0  0  0  0  0  0  0  0  0
    2.3720   -0.2657   -0.0337 C   0  0  0  0  0  0  0  0  0  0  0  0
    5.2322    1.3908   -0.5161 O   0  0  0  0  0  0  0  0  0  0  0  0
    5.1470    0.6220    1.5682 O   0  0  0  0  0  0  0  0  0  0  0  0
    0.3327   -0.9791   -0.3415 H   0  0  0  0  0  0  0  0  0  0  0  0
    0.5410    0.7464   -0.6831 H   0  0  0  0  0  0  0  0  0  0  0  0
    0.4839    0.1743    0.9948 H   0  0  0  0  0  0  0  0  0  0  0  0
    2.2394   -2.3349    0.6421 H   0  0  0  0  0  0  0  0  0  0  0  0
    2.4417   -1.1792    1.9610 H   0  0  0  0  0  0  0  0  0  0  0  0
    3.8248   -1.6086    0.9270 H   0  0  0  0  0  0  0  0  0  0  0  0
    2.3458   -1.5515   -1.7914 H   0  0  0  0  0  0  0  0  0  0  0  0
    3.9079   -0.7530   -1.5257 H   0  0  0  0  0  0  0  0  0  0  0  0
    2.5467    0.1685   -2.1710 H   0  0  0  0  0  0  0  0  0  0  0  0
    2.7237    1.8711   -0.2701 H   0  0  0  0  0  0  0  0  0  0  0  0
    2.6463    1.3427    1.4156 H   0  0  0  0  0  0  0  0  0  0  0  0
    4.4709    0.3928    2.2260 H   0  0  0  0  0  0  0  0  0  0  0  0
  1 11  1  0  0  0  0
  2 13  1  0  0  0  0
  3  6  1  0  0  0  0
  4  5  1  0  0  0  0
  4 19  1  0  0  0  0
  5  8  1  0  0  0  0
  6  1  1  0  0  0  0
  6  4  1  0  0  0  0
  6  2  1  0  0  0  0
  7  5  2  0  0  0  0
  8 20  1  0  0  0  0
  9  1  1  0  0  0  0
 10  1  1  0  0  0  0
 12  2  1  0  0  0  0
 14  2  1  0  0  0  0
 15  3  1  0  0  0  0
 16  3  1  0  0  0  0
 17  3  1  0  0  0  0
 18  4  1  0  0  0  0
M  END
>  <HBA>
2

>  <HBD>
1

>  <TPSA>
37.3

>  <cid>
14057

>  <dipole>
4.24

>  <excitation_energy_1>
5.526

>  <excitation_energy_2>
6.477

>  <excitation_energy_3>
7.294

>  <excitation_energy_4>
7.512

>  <homo_energy>
-7.233

>  <homo_lumo_gap>
7.399

>  <logP>
1.507

>  <lumo_energy>
0.166

>  <melting_point>
69.28

>  <molecular_refractivity>
32.47

>  <oscillator_strength_1>
0.0014

>  <oscillator_strength_2>
0.0179

>  <oscillator_strength_3>
0.0048

>  <oscillator_strength_4>
0.0068

>  <open_babel_can_smiles>
OC(=O)CC(C)(C)C

>  <mulliken_charges>
20
1   -0.440012
2   -0.471733
3   -0.445441
4   -0.364561
5   0.588517
6   0.091344
7   -0.44141
8   -0.565551
9   0.147505
10   0.146634
11   0.138616
12   0.153703
13   0.128423
14   0.160613
15   0.140029
16   0.168221
17   0.148115
18   0.174307
19   0.13375
20   0.40893

>  <lowdin_charges>
20
1   -0.442096
2   -0.451871
3   -0.44397
4   -0.316676
5   0.196626
6   0.021356
7   -0.241858
8   -0.362723
9   0.152801
10   0.15196
11   0.146028
12   0.156588
13   0.13934
14   0.153718
15   0.14934
16   0.159858
17   0.154061
18   0.173382
19   0.146752
20   0.357382

$$$$

