PCCDB-ID:  36559
public computational chemistry database (PCCDB) project, http://pccdb.org

 38 40  0  0  1  0  0  0  0  0999 V2000
    0.8522    0.3327    0.9794 C   0  0  0  0  0  0  0  0  0  0  0  0
    2.2395   -2.3419    0.8902 C   0  0  0  0  0  0  0  0  0  0  0  0
    5.3082   -1.4296    2.0761 C   0  0  0  0  0  0  0  0  0  0  0  0
    1.9113   -1.8944    5.8861 C   0  0  0  0  0  0  0  0  0  0  0  0
    1.8186   -0.5868    5.4113 C   0  0  0  0  0  0  0  0  0  0  0  0
    2.6599   -2.8245    5.1648 C   0  0  0  0  0  0  0  0  0  0  0  0
    4.0880    3.5138    1.5155 C   0  0  0  0  0  0  0  0  0  0  0  0
    4.9720    2.9772    2.4576 C   0  0  0  0  0  0  0  0  0  0  0  0
    2.4652   -0.2160    4.2307 C   0  0  0  0  0  0  0  0  0  0  0  0
    3.3045   -2.4489    3.9857 C   0  0  0  0  0  0  0  0  0  0  0  0
    3.1940    2.6831    0.8360 C   0  0  0  0  0  0  0  0  0  0  0  0
    4.9697    1.6064    2.7267 C   0  0  0  0  0  0  0  0  0  0  0  0
    2.3120    0.2415    0.4938 C   0  0  2  0  0  0  0  0  0  0  0  0
    3.0806   -1.0660    0.8696 C   0  0  1  0  0  0  0  0  0  0  0  0
    3.2198   -1.1377    3.4870 C   0  0  0  0  0  0  0  0  0  0  0  0
    3.1937    1.3129    1.1030 C   0  0  0  0  0  0  0  0  0  0  0  0
    4.0799    0.7751    2.0435 C   0  0  0  0  0  0  0  0  0  0  0  0
    3.9271   -0.7402    2.1733 C   0  0  1  0  0  0  0  0  0  0  0  0
    0.2276   -0.4293    0.5002 H   0  0  0  0  0  0  0  0  0  0  0  0
    0.4321    1.3134    0.7278 H   0  0  0  0  0  0  0  0  0  0  0  0
    0.7734    0.2035    2.0630 H   0  0  0  0  0  0  0  0  0  0  0  0
    1.7558   -2.4921   -0.0828 H   0  0  0  0  0  0  0  0  0  0  0  0
    1.4588   -2.3151    1.6556 H   0  0  0  0  0  0  0  0  0  0  0  0
    2.8608   -3.2238    1.0839 H   0  0  0  0  0  0  0  0  0  0  0  0
    5.2148   -2.5108    1.9287 H   0  0  0  0  0  0  0  0  0  0  0  0
    5.9022   -1.2688    2.9823 H   0  0  0  0  0  0  0  0  0  0  0  0
    5.8672   -1.0271    1.2250 H   0  0  0  0  0  0  0  0  0  0  0  0
    1.4116   -2.1840    6.8067 H   0  0  0  0  0  0  0  0  0  0  0  0
    1.2465    0.1552    5.9628 H   0  0  0  0  0  0  0  0  0  0  0  0
    2.7479   -3.8484    5.5197 H   0  0  0  0  0  0  0  0  0  0  0  0
    4.1001    4.5809    1.3089 H   0  0  0  0  0  0  0  0  0  0  0  0
    5.6657    3.6299    2.9813 H   0  0  0  0  0  0  0  0  0  0  0  0
    2.3896    0.8114    3.8911 H   0  0  0  0  0  0  0  0  0  0  0  0
    3.8815   -3.1970    3.4520 H   0  0  0  0  0  0  0  0  0  0  0  0
    2.5101    3.1017    0.1007 H   0  0  0  0  0  0  0  0  0  0  0  0
    5.6562    1.1953    3.4627 H   0  0  0  0  0  0  0  0  0  0  0  0
    2.2937    0.3391   -0.6010 H   0  0  0  0  0  0  0  0  0  0  0  0
    3.8368   -1.1923    0.0822 H   0  0  0  0  0  0  0  0  0  0  0  0
  1 21  1  0  0  0  0
  2 24  1  0  0  0  0
  2 23  1  0  0  0  0
  3 26  1  0  0  0  0
  4 28  1  0  0  0  0
  5  4  1  0  0  0  0
  5 29  1  0  0  0  0
  6 30  1  0  0  0  0
  6  4  2  0  0  0  0
  7  8  2  0  0  0  0
  8 12  1  0  0  0  0
  8 32  1  0  0  0  0
  9  5  2  0  0  0  0
 10  6  1  0  0  0  0
 11 16  2  0  0  0  0
 11  7  1  0  0  0  0
 12 36  1  0  0  0  0
 13 37  1  6  0  0  0
 13 14  1  0  0  0  0
 13  1  1  0  0  0  0
 13 16  1  0  0  0  0
 14 38  1  6  0  0  0
 14  2  1  0  0  0  0
 14 18  1  0  0  0  0
 15 10  2  0  0  0  0
 15  9  1  0  0  0  0
 16 17  1  0  0  0  0
 17 18  1  0  0  0  0
 17 12  2  0  0  0  0
 18  3  1  6  0  0  0
 18 15  1  0  0  0  0
 19  1  1  0  0  0  0
 20  1  1  0  0  0  0
 22  2  1  0  0  0  0
 25  3  1  0  0  0  0
 27  3  1  0  0  0  0
 31  7  1  0  0  0  0
 33  9  1  0  0  0  0
 34 10  1  0  0  0  0
 35 11  1  0  0  0  0
M  END
>  <HBA>
0

>  <HBD>
0

>  <TPSA>
0.0

>  <cid>
36559

>  <dipole>
0.35

>  <excitation_energy_1>
5.154

>  <excitation_energy_2>
5.253

>  <excitation_energy_3>
5.536

>  <excitation_energy_4>
5.599

>  <homo_energy>
-6.299

>  <homo_lumo_gap>
6.226

>  <logP>
4.746

>  <lumo_energy>
-0.073

>  <melting_point>
69.25

>  <molecular_refractivity>
77.86

>  <oscillator_strength_1>
0.0085

>  <oscillator_strength_2>
0.0129

>  <oscillator_strength_3>
0.002

>  <oscillator_strength_4>
0.006

>  <open_babel_can_smiles>
C[C@H]1c2ccccc2[C@@]([C@H]1C)(C)c1ccccc1

>  <mulliken_charges>
38
1   -0.453868
2   -0.461635
3   -0.469455
4   -0.128815
5   -0.134898
6   -0.133376
7   -0.130522
8   -0.13609
9   -0.191508
10   -0.177957
11   -0.199373
12   -0.18576
13   -0.163813
14   -0.096489
15   0.164846
16   0.129655
17   0.088475
18   -0.061805
19   0.144168
20   0.141618
21   0.159135
22   0.140094
23   0.162757
24   0.138687
25   0.145165
26   0.151177
27   0.150503
28   0.126156
29   0.127605
30   0.126165
31   0.125366
32   0.125852
33   0.144268
34   0.121923
35   0.122824
36   0.128564
37   0.130262
38   0.130097

>  <lowdin_charges>
38
1   -0.447453
2   -0.448802
3   -0.439953
4   -0.160877
5   -0.159533
6   -0.15689
7   -0.156885
8   -0.162039
9   -0.170377
10   -0.168828
11   -0.16726
12   -0.162875
13   -0.124927
14   -0.119948
15   -0.0007
16   -0.013249
17   -0.013709
18   0.007338
19   0.150791
20   0.149758
21   0.154283
22   0.149283
23   0.158155
24   0.148518
25   0.146632
26   0.152674
27   0.154268
28   0.15621
29   0.157922
30   0.154749
31   0.154136
32   0.157522
33   0.164883
34   0.156683
35   0.155653
36   0.15852
37   0.14173
38   0.144598

$$$$

