PCCDB-ID:  33619
public computational chemistry database (PCCDB) project, http://pccdb.org

 40 42  0  0  1  0  0  0  0  0999 V2000
    2.0200    1.2330   -0.4537 C   0  0  0  0  0  0  0  0  0  0  0  0
    3.4485    1.7629   -0.5551 C   0  0  0  0  0  0  0  0  0  0  0  0
    6.3430    1.4802    1.8721 C   0  0  0  0  0  0  0  0  0  0  0  0
    5.6035    1.8938    0.5948 C   0  0  0  0  0  0  0  0  0  0  0  0
    9.9619    3.3091    3.5511 C   0  0  0  0  0  0  0  0  0  0  0  0
   10.3147    3.2399    1.0602 C   0  0  0  0  0  0  0  0  0  0  0  0
   10.6855    1.1671    2.4399 C   0  0  0  0  0  0  0  0  0  0  0  0
    7.9845    3.4480    1.9912 C   0  0  0  0  0  0  0  0  0  0  0  0
    8.3576    1.3823    3.3658 C   0  0  0  0  0  0  0  0  0  0  0  0
    8.7066    1.3106    0.8828 C   0  0  0  0  0  0  0  0  0  0  0  0
    9.4623    3.8453    2.1946 C   0  0  1  0  0  0  0  0  0  0  0  0
    9.8338    1.7721    3.5743 C   0  0  2  0  0  0  0  0  0  0  0  0
   10.1864    1.7027    1.0828 C   0  0  1  0  0  0  0  0  0  0  0  0
    7.8211    1.9062    2.0078 C   0  0  1  0  0  0  0  0  0  0  0  0
    4.2070    1.4615    0.6571 N   0  0  0  0  0  0  0  0  0  0  0  0
    1.4395    1.4993   -1.3439 H   0  0  0  0  0  0  0  0  0  0  0  0
    1.5189    1.6458    0.4279 H   0  0  0  0  0  0  0  0  0  0  0  0
    2.0096    0.1388   -0.3665 H   0  0  0  0  0  0  0  0  0  0  0  0
    3.4288    2.8550   -0.6720 H   0  0  0  0  0  0  0  0  0  0  0  0
    3.9297    1.3635   -1.4706 H   0  0  0  0  0  0  0  0  0  0  0  0
    6.2961    0.3824    1.9589 H   0  0  0  0  0  0  0  0  0  0  0  0
    5.7774    1.8757    2.7269 H   0  0  0  0  0  0  0  0  0  0  0  0
    6.1245    1.4985   -0.2985 H   0  0  0  0  0  0  0  0  0  0  0  0
    5.6040    2.9869    0.4939 H   0  0  0  0  0  0  0  0  0  0  0  0
    9.3765    3.7490    4.3705 H   0  0  0  0  0  0  0  0  0  0  0  0
   11.0081    3.6047    3.7122 H   0  0  0  0  0  0  0  0  0  0  0  0
   11.3669    3.5333    1.1807 H   0  0  0  0  0  0  0  0  0  0  0  0
    9.9844    3.6327    0.0882 H   0  0  0  0  0  0  0  0  0  0  0  0
   10.6184    0.0703    2.4609 H   0  0  0  0  0  0  0  0  0  0  0  0
   11.7445    1.4242    2.5820 H   0  0  0  0  0  0  0  0  0  0  0  0
    7.6266    3.8577    1.0371 H   0  0  0  0  0  0  0  0  0  0  0  0
    7.3613    3.8943    2.7798 H   0  0  0  0  0  0  0  0  0  0  0  0
    7.7432    1.7877    4.1827 H   0  0  0  0  0  0  0  0  0  0  0  0
    8.2497    0.2886    3.4043 H   0  0  0  0  0  0  0  0  0  0  0  0
    8.6048    0.2152    0.8738 H   0  0  0  0  0  0  0  0  0  0  0  0
    8.3653    1.6662   -0.0984 H   0  0  0  0  0  0  0  0  0  0  0  0
    9.5480    4.9401    2.1767 H   0  0  0  0  0  0  0  0  0  0  0  0
   10.1803    1.3870    4.5427 H   0  0  0  0  0  0  0  0  0  0  0  0
   10.7878    1.2702    0.2718 H   0  0  0  0  0  0  0  0  0  0  0  0
    4.1848    0.4527    0.8115 H   0  0  0  0  0  0  0  0  0  0  0  0
  1 18  1  0  0  0  0
  1 17  1  0  0  0  0
  2  1  1  0  0  0  0
  2 15  1  0  0  0  0
  3 21  1  0  0  0  0
  3 22  1  0  0  0  0
  4 15  1  0  0  0  0
  4  3  1  0  0  0  0
  5 12  1  0  0  0  0
  5 26  1  0  0  0  0
  5 25  1  0  0  0  0
  6 13  1  0  0  0  0
  6 27  1  0  0  0  0
  6 11  1  0  0  0  0
  7 29  1  0  0  0  0
  7 30  1  0  0  0  0
  7 12  1  0  0  0  0
  8 14  1  0  0  0  0
  8 11  1  0  0  0  0
  8 32  1  0  0  0  0
  9 34  1  0  0  0  0
  9 12  1  0  0  0  0
  9 33  1  0  0  0  0
 10 13  1  0  0  0  0
 10 14  1  0  0  0  0
 11 37  1  6  0  0  0
 11  5  1  0  0  0  0
 12 38  1  1  0  0  0
 13 39  1  6  0  0  0
 13  7  1  0  0  0  0
 14  3  1  6  0  0  0
 14  9  1  0  0  0  0
 15 40  1  0  0  0  0
 16  1  1  0  0  0  0
 19  2  1  0  0  0  0
 20  2  1  0  0  0  0
 23  4  1  0  0  0  0
 24  4  1  0  0  0  0
 28  6  1  0  0  0  0
 31  8  1  0  0  0  0
 35 10  1  0  0  0  0
 36 10  1  0  0  0  0
M  END
>  <HBA>
1

>  <HBD>
1

>  <TPSA>
12.03

>  <cid>
33619

>  <dipole>
0.87

>  <excitation_energy_1>
5.354

>  <excitation_energy_2>
5.585

>  <excitation_energy_3>
5.78

>  <excitation_energy_4>
5.977

>  <homo_energy>
-5.81

>  <homo_lumo_gap>
7.693

>  <logP>
3.593

>  <lumo_energy>
1.883

>  <melting_point>
81.72

>  <molecular_refractivity>
65.61

>  <oscillator_strength_1>
0.0021

>  <oscillator_strength_2>
0.0064

>  <oscillator_strength_3>
0.0191

>  <oscillator_strength_4>
0.0276

>  <open_babel_can_smiles>
CCNCC[C@]12C[C@H]3C[C@@H](C2)C[C@@H](C1)C3

>  <mulliken_charges>
40
1   -0.450929
2   -0.102533
3   -0.276148
4   -0.119866
5   -0.263579
6   -0.264673
7   -0.263685
8   -0.276709
9   -0.272241
10   -0.276602
11   -0.090968
12   -0.08986
13   -0.090219
14   0.090318
15   -0.554039
16   0.142763
17   0.15873
18   0.136863
19   0.137572
20   0.106622
21   0.115132
22   0.140549
23   0.111476
24   0.139486
25   0.124479
26   0.12358
27   0.124121
28   0.123663
29   0.123484
30   0.123716
31   0.127035
32   0.124313
33   0.123622
34   0.121139
35   0.119863
36   0.127982
37   0.113876
38   0.113568
39   0.113342
40   0.284756

>  <lowdin_charges>
40
1   -0.447393
2   -0.195509
3   -0.276132
4   -0.203436
5   -0.280924
6   -0.279535
7   -0.277009
8   -0.282599
9   -0.277383
10   -0.279592
11   -0.128341
12   -0.131193
13   -0.132007
14   0.001842
15   -0.362226
16   0.152323
17   0.156558
18   0.142055
19   0.137505
20   0.113135
21   0.132213
22   0.148569
23   0.116567
24   0.138319
25   0.140109
26   0.137598
27   0.137824
28   0.138289
29   0.136373
30   0.137322
31   0.139426
32   0.140688
33   0.139958
34   0.135551
35   0.135111
36   0.139008
37   0.135898
38   0.137977
39   0.138964
40   0.244095

$$$$

