PCCDB-ID:  69712
public computational chemistry database (PCCDB) project, http://pccdb.org

 17 17  0  0  0  0  0  0  0  0999 V2000
   -1.3144   -0.0321   -0.2920 C   0  0  0  0  0  0  0  0  0  0  0  0
   -0.6240    1.1724   -0.3021 C   0  0  0  0  0  0  0  0  0  0  0  0
    0.7816   -1.2072    0.0482 C   0  0  0  0  0  0  0  0  0  0  0  0
   -1.3216   -2.5284   -0.1082 C   0  0  0  0  0  0  0  0  0  0  0  0
   -0.6043   -1.2264   -0.1156 C   0  0  0  0  0  0  0  0  0  0  0  0
    0.7599    1.1924   -0.1214 C   0  0  0  0  0  0  0  0  0  0  0  0
    1.4931   -0.0037    0.0541 C   0  0  0  0  0  0  0  0  0  0  0  0
    1.4130    2.5100   -0.1141 N   0  0  0  0  0  0  0  0  0  0  0  0
   -0.7779   -3.6052    0.0322 O   0  0  0  0  0  0  0  0  0  0  0  0
    2.8364    0.0291    0.1861 O   0  0  0  0  0  0  0  0  0  0  0  0
    0.8281    3.4246   -0.6984 O   0  0  0  0  0  0  0  0  0  0  0  0
    2.4772    2.6253    0.4849 O   0  0  0  0  0  0  0  0  0  0  0  0
   -2.3926   -0.0490   -0.4230 H   0  0  0  0  0  0  0  0  0  0  0  0
   -1.1303    2.1183   -0.4506 H   0  0  0  0  0  0  0  0  0  0  0  0
    1.3010   -2.1549    0.1712 H   0  0  0  0  0  0  0  0  0  0  0  0
   -2.4218   -2.4548   -0.2431 H   0  0  0  0  0  0  0  0  0  0  0  0
    3.1652   -0.8835    0.2391 H   0  0  0  0  0  0  0  0  0  0  0  0
  1  5  1  0  0  0  0
  2  1  2  0  0  0  0
  2  6  1  0  0  0  0
  3  7  1  0  0  0  0
  3 15  1  0  0  0  0
  4  9  2  0  0  0  0
  5  4  1  0  0  0  0
  5  3  2  0  0  0  0
  6  8  1  0  0  0  0
  6  7  2  0  0  0  0
  7 10  1  0  0  0  0
  8 12  2  0  0  0  0
 10 17  1  0  0  0  0
 11  8  2  0  0  0  0
 13  1  1  0  0  0  0
 14  2  1  0  0  0  0
 16  4  1  0  0  0  0
M  END
>  <HBA>
2

>  <HBD>
1

>  <TPSA>
83.12

>  <cid>
69712

>  <dipole>
2.99

>  <excitation_energy_1>
3.411

>  <excitation_energy_2>
3.593

>  <excitation_energy_3>
3.655

>  <excitation_energy_4>
4.125

>  <homo_energy>
-7.217

>  <homo_lumo_gap>
4.294

>  <logP>
1.636

>  <lumo_energy>
-2.923

>  <melting_point>
117.86

>  <molecular_refractivity>
42.67

>  <oscillator_strength_1>
0.0005

>  <oscillator_strength_2>
0.028

>  <oscillator_strength_3>
0.0598

>  <oscillator_strength_4>
0.0053

>  <open_babel_can_smiles>
O=Cc1ccc(c(c1)O)N(=O)=O

>  <mulliken_charges>
17
1   -0.196058
2   -0.154969
3   -0.249199
4   0.20017
5   0.109769
6   0.262748
7   0.356312
8   0.362518
9   -0.392288
10   -0.602748
11   -0.389461
12   -0.363615
13   0.155409
14   0.191961
15   0.167493
16   0.119321
17   0.422639

>  <lowdin_charges>
17
1   -0.157037
2   -0.125413
3   -0.181174
4   0.055302
5   -0.029244
6   -0.008832
7   0.120022
8   0.307538
9   -0.212065
10   -0.331547
11   -0.250958
12   -0.219088
13   0.169414
14   0.192186
15   0.179348
16   0.124715
17   0.366835

$$$$

