PCCDB-ID:  43964
public computational chemistry database (PCCDB) project, http://pccdb.org

 30 29  0  0  1  0  0  0  0  0999 V2000
   11.2068    3.2285   -4.7334 C   0  0  0  0  0  0  0  0  0  0  0  0
   11.6468    0.7282    3.6315 C   0  0  0  0  0  0  0  0  0  0  0  0
    7.9744    0.9111    0.8864 C   0  0  0  0  0  0  0  0  0  0  0  0
   10.0589    3.0815   -3.7292 C   0  0  0  0  0  0  0  0  0  0  0  0
   10.7393    0.6873    2.3975 C   0  0  0  0  0  0  0  0  0  0  0  0
   10.5296    2.6094   -2.3481 C   0  0  0  0  0  0  0  0  0  0  0  0
    9.8790    1.9513    2.2611 C   0  0  0  0  0  0  0  0  0  0  0  0
    9.3875    2.4649   -1.3483 C   0  0  0  0  0  0  0  0  0  0  0  0
    9.0208    2.0279    0.9907 C   0  0  1  0  0  0  0  0  0  0  0  0
    9.9248    2.0188   -0.1153 O   0  0  0  0  0  0  0  0  0  0  0  0
   10.8423    3.5668   -5.7099 H   0  0  0  0  0  0  0  0  0  0  0  0
   11.7263    2.2742   -4.8829 H   0  0  0  0  0  0  0  0  0  0  0  0
   11.9482    3.9567   -4.3828 H   0  0  0  0  0  0  0  0  0  0  0  0
   12.2525   -0.1818    3.7117 H   0  0  0  0  0  0  0  0  0  0  0  0
   11.0612    0.8203    4.5551 H   0  0  0  0  0  0  0  0  0  0  0  0
   12.3338    1.5826    3.5904 H   0  0  0  0  0  0  0  0  0  0  0  0
    7.3398    0.8951    1.7803 H   0  0  0  0  0  0  0  0  0  0  0  0
    8.4562   -0.0667    0.7862 H   0  0  0  0  0  0  0  0  0  0  0  0
    7.3202    1.0558    0.0203 H   0  0  0  0  0  0  0  0  0  0  0  0
    9.3169    2.3734   -4.1247 H   0  0  0  0  0  0  0  0  0  0  0  0
    9.5372    4.0439   -3.6284 H   0  0  0  0  0  0  0  0  0  0  0  0
   10.0950   -0.2000    2.4549 H   0  0  0  0  0  0  0  0  0  0  0  0
   11.3461    0.5733    1.4919 H   0  0  0  0  0  0  0  0  0  0  0  0
   11.2654    3.3137   -1.9382 H   0  0  0  0  0  0  0  0  0  0  0  0
   11.0402    1.6411   -2.4359 H   0  0  0  0  0  0  0  0  0  0  0  0
   10.5349    2.8320    2.2698 H   0  0  0  0  0  0  0  0  0  0  0  0
    9.2147    2.0453    3.1322 H   0  0  0  0  0  0  0  0  0  0  0  0
    8.6378    1.7558   -1.7360 H   0  0  0  0  0  0  0  0  0  0  0  0
    8.8749    3.4336   -1.2095 H   0  0  0  0  0  0  0  0  0  0  0  0
    8.4917    2.9975    1.0005 H   0  0  0  0  0  0  0  0  0  0  0  0
  1 13  1  0  0  0  0
  1  4  1  0  0  0  0
  2 14  1  0  0  0  0
  2 15  1  0  0  0  0
  3  9  1  0  0  0  0
  3 17  1  0  0  0  0
  4 21  1  0  0  0  0
  4  6  1  0  0  0  0
  5 22  1  0  0  0  0
  5  2  1  0  0  0  0
  6 24  1  0  0  0  0
  6  8  1  0  0  0  0
  7 26  1  0  0  0  0
  7  5  1  0  0  0  0
  7 27  1  0  0  0  0
  8 29  1  0  0  0  0
  8 10  1  0  0  0  0
  9 30  1  1  0  0  0
  9  7  1  0  0  0  0
 10  9  1  0  0  0  0
 11  1  1  0  0  0  0
 12  1  1  0  0  0  0
 16  2  1  0  0  0  0
 18  3  1  0  0  0  0
 19  3  1  0  0  0  0
 20  4  1  0  0  0  0
 23  5  1  0  0  0  0
 25  6  1  0  0  0  0
 28  8  1  0  0  0  0
M  END
>  <HBA>
1

>  <HBD>
0

>  <TPSA>
9.23

>  <cid>
43964

>  <dipole>
1.02

>  <excitation_energy_1>
6.282

>  <excitation_energy_2>
6.71

>  <excitation_energy_3>
6.783

>  <excitation_energy_4>
6.844

>  <homo_energy>
-6.661

>  <homo_lumo_gap>
8.999

>  <logP>
2.992

>  <lumo_energy>
2.337

>  <melting_point>
-37.5

>  <molecular_refractivity>
46.46

>  <oscillator_strength_1>
0.0123

>  <oscillator_strength_2>
0.0112

>  <oscillator_strength_3>
0.011

>  <oscillator_strength_4>
0.0005

>  <open_babel_can_smiles>
CCCCO[C@H](CCC)C

>  <mulliken_charges>
30
1   -0.439695
2   -0.442868
3   -0.466663
4   -0.256505
5   -0.254033
6   -0.263915
7   -0.260484
8   -0.003061
9   0.163891
10   -0.491982
11   0.142154
12   0.143636
13   0.143587
14   0.14061
15   0.137408
16   0.141797
17   0.14106
18   0.157193
19   0.145207
20   0.131961
21   0.131675
22   0.129194
23   0.155407
24   0.140601
25   0.141979
26   0.136189
27   0.123259
28   0.11682
29   0.110916
30   0.104663

>  <lowdin_charges>
30
1   -0.443381
2   -0.444319
3   -0.463252
4   -0.273545
5   -0.276806
6   -0.281305
7   -0.282056
8   -0.129553
9   0.006752
10   -0.276398
11   0.14915
12   0.147517
13   0.148453
14   0.14879
15   0.14392
16   0.146543
17   0.153106
18   0.155201
19   0.151273
20   0.140339
21   0.138918
22   0.138675
23   0.151678
24   0.147179
25   0.146575
26   0.146576
27   0.140892
28   0.125026
29   0.121649
30   0.122404

$$$$

