PCCDB-ID:  16669
public computational chemistry database (PCCDB) project, http://pccdb.org

 38 37  0  0  0  0  0  0  0  0999 V2000
    6.7921   -0.1822    4.1272 C   0  0  0  0  0  0  0  0  0  0  0  0
    6.5439    9.6148   -4.6794 C   0  0  0  0  0  0  0  0  0  0  0  0
    6.3620   -0.2005    2.6567 C   0  0  0  0  0  0  0  0  0  0  0  0
    6.0464    8.4358   -3.8377 C   0  0  0  0  0  0  0  0  0  0  0  0
    6.7103    1.0974    1.9172 C   0  0  0  0  0  0  0  0  0  0  0  0
    6.5872    8.4554   -2.4026 C   0  0  0  0  0  0  0  0  0  0  0  0
    6.2865    1.0749    0.4545 C   0  0  0  0  0  0  0  0  0  0  0  0
    6.1165    7.2796   -1.5547 C   0  0  0  0  0  0  0  0  0  0  0  0
    6.3154    2.3918   -1.5276 C   0  0  0  0  0  0  0  0  0  0  0  0
    6.2095    4.9226   -1.4185 C   0  0  0  0  0  0  0  0  0  0  0  0
    6.8941    3.7068   -2.0490 C   0  0  0  0  0  0  0  0  0  0  0  0
    8.3005    3.7245   -1.8538 O   0  0  0  0  0  0  0  0  0  0  0  0
    6.6400    2.3122   -0.1463 O   0  0  0  0  0  0  0  0  0  0  0  0
    6.6115    6.0786   -2.1204 O   0  0  0  0  0  0  0  0  0  0  0  0
    6.5305   -1.1200    4.6299 H   0  0  0  0  0  0  0  0  0  0  0  0
    6.3055    0.6360    4.6719 H   0  0  0  0  0  0  0  0  0  0  0  0
    7.8760   -0.0438    4.2209 H   0  0  0  0  0  0  0  0  0  0  0  0
    6.1444    9.5740   -5.6992 H   0  0  0  0  0  0  0  0  0  0  0  0
    7.6385    9.6156   -4.7511 H   0  0  0  0  0  0  0  0  0  0  0  0
    6.2411   10.5744   -4.2413 H   0  0  0  0  0  0  0  0  0  0  0  0
    5.2788   -0.3767    2.5955 H   0  0  0  0  0  0  0  0  0  0  0  0
    6.8382   -1.0504    2.1477 H   0  0  0  0  0  0  0  0  0  0  0  0
    6.3348    7.4902   -4.3108 H   0  0  0  0  0  0  0  0  0  0  0  0
    4.9469    8.4442   -3.8076 H   0  0  0  0  0  0  0  0  0  0  0  0
    7.7923    1.2786    1.9665 H   0  0  0  0  0  0  0  0  0  0  0  0
    6.2266    1.9515    2.4092 H   0  0  0  0  0  0  0  0  0  0  0  0
    6.2793    9.3838   -1.9003 H   0  0  0  0  0  0  0  0  0  0  0  0
    7.6853    8.4539   -2.4190 H   0  0  0  0  0  0  0  0  0  0  0  0
    5.1978    0.9158    0.3700 H   0  0  0  0  0  0  0  0  0  0  0  0
    6.7781    0.2440   -0.0799 H   0  0  0  0  0  0  0  0  0  0  0  0
    5.0122    7.2540   -1.5126 H   0  0  0  0  0  0  0  0  0  0  0  0
    6.4778    7.3848   -0.5171 H   0  0  0  0  0  0  0  0  0  0  0  0
    6.7723    1.5519   -2.0742 H   0  0  0  0  0  0  0  0  0  0  0  0
    5.2238    2.3437   -1.6743 H   0  0  0  0  0  0  0  0  0  0  0  0
    6.4833    4.9910   -0.3531 H   0  0  0  0  0  0  0  0  0  0  0  0
    5.1116    4.8030   -1.4684 H   0  0  0  0  0  0  0  0  0  0  0  0
    6.7355    3.7571   -3.1327 H   0  0  0  0  0  0  0  0  0  0  0  0
    8.4352    3.4429   -0.9326 H   0  0  0  0  0  0  0  0  0  0  0  0
  1 17  1  0  0  0  0
  1 15  1  0  0  0  0
  1 16  1  0  0  0  0
  2 20  1  0  0  0  0
  2  4  1  0  0  0  0
  3  1  1  0  0  0  0
  4 24  1  0  0  0  0
  4  6  1  0  0  0  0
  5 25  1  0  0  0  0
  5 26  1  0  0  0  0
  5  3  1  0  0  0  0
  6 27  1  0  0  0  0
  6  8  1  0  0  0  0
  7  5  1  0  0  0  0
  8 31  1  0  0  0  0
  8 32  1  0  0  0  0
  9 13  1  0  0  0  0
 10 35  1  0  0  0  0
 11 12  1  0  0  0  0
 11  9  1  0  0  0  0
 11 10  1  0  0  0  0
 12 38  1  0  0  0  0
 13  7  1  0  0  0  0
 14  8  1  0  0  0  0
 14 10  1  0  0  0  0
 18  2  1  0  0  0  0
 19  2  1  0  0  0  0
 21  3  1  0  0  0  0
 22  3  1  0  0  0  0
 23  4  1  0  0  0  0
 28  6  1  0  0  0  0
 29  7  1  0  0  0  0
 30  7  1  0  0  0  0
 33  9  1  0  0  0  0
 34  9  1  0  0  0  0
 36 10  1  0  0  0  0
 37 11  1  0  0  0  0
M  END
>  <HBA>
3

>  <HBD>
1

>  <TPSA>
38.69

>  <cid>
16669

>  <dipole>
3.24

>  <excitation_energy_1>
6.355

>  <excitation_energy_2>
6.598

>  <excitation_energy_3>
6.727

>  <excitation_energy_4>
6.744

>  <homo_energy>
-6.68

>  <homo_lumo_gap>
8.819

>  <logP>
1.981

>  <lumo_energy>
2.139

>  <melting_point>
-29.16

>  <molecular_refractivity>
58.32

>  <oscillator_strength_1>
0.0167

>  <oscillator_strength_2>
0.0159

>  <oscillator_strength_3>
0.0205

>  <oscillator_strength_4>
0.0207

>  <open_babel_can_smiles>
CCCCOCC(COCCCC)O

>  <mulliken_charges>
38
1   -0.440743
2   -0.442261
3   -0.257492
4   -0.246185
5   -0.267837
6   -0.266618
7   -0.001631
8   -0.006533
9   -0.039493
10   0.001159
11   0.099915
12   -0.625144
13   -0.500399
14   -0.472097
15   0.14533
16   0.144896
17   0.145342
18   0.14066
19   0.143775
20   0.136986
21   0.13441
22   0.135057
23   0.155815
24   0.122669
25   0.142027
26   0.144531
27   0.125986
28   0.14659
29   0.120383
30   0.122415
31   0.109538
32   0.116699
33   0.135906
34   0.12203
35   0.125222
36   0.106221
37   0.147487
38   0.395386

>  <lowdin_charges>
38
1   -0.442134
2   -0.4411
3   -0.271102
4   -0.271778
5   -0.279846
6   -0.279782
7   -0.126402
8   -0.122354
9   -0.145009
10   -0.140313
11   -0.013576
12   -0.455289
13   -0.284265
14   -0.266475
15   0.151431
16   0.149266
17   0.146662
18   0.147808
19   0.145384
20   0.143505
21   0.138643
22   0.14169
23   0.151425
24   0.133421
25   0.14477
26   0.14872
27   0.142836
28   0.147113
29   0.124859
30   0.128852
31   0.117803
32   0.124825
33   0.138597
34   0.129026
35   0.130627
36   0.121209
37   0.151524
38   0.339431

$$$$

