PCCDB-ID:  8060
public computational chemistry database (PCCDB) project, http://pccdb.org

 19 18  0  0  0  0  0  0  0  0999 V2000
    2.6511    0.7319    1.9119 C   0  0  0  0  0  0  0  0  0  0  0  0
    2.5729    0.6043    0.3854 C   0  0  0  0  0  0  0  0  0  0  0  0
    3.2247   -0.6674   -0.1820 C   0  0  0  0  0  0  0  0  0  0  0  0
    4.7502   -0.7256   -0.0272 C   0  0  0  0  0  0  0  0  0  0  0  0
    5.3810   -1.9990   -0.6031 C   0  0  0  0  0  0  0  0  0  0  0  0
    4.9117   -3.1934    0.1130 N   0  0  0  0  0  0  0  0  0  0  0  0
    2.1264    1.6291    2.2605 H   0  0  0  0  0  0  0  0  0  0  0  0
    3.6864    0.8006    2.2650 H   0  0  0  0  0  0  0  0  0  0  0  0
    2.1909   -0.1350    2.4025 H   0  0  0  0  0  0  0  0  0  0  0  0
    3.0322    1.4895   -0.0789 H   0  0  0  0  0  0  0  0  0  0  0  0
    1.5166    0.6194    0.0842 H   0  0  0  0  0  0  0  0  0  0  0  0
    2.9826   -0.7410   -1.2523 H   0  0  0  0  0  0  0  0  0  0  0  0
    2.7863   -1.5552    0.2898 H   0  0  0  0  0  0  0  0  0  0  0  0
    5.0292   -0.6465    1.0339 H   0  0  0  0  0  0  0  0  0  0  0  0
    5.2067    0.1426   -0.5245 H   0  0  0  0  0  0  0  0  0  0  0  0
    6.4807   -1.8846   -0.5996 H   0  0  0  0  0  0  0  0  0  0  0  0
    5.0814   -2.1071   -1.6540 H   0  0  0  0  0  0  0  0  0  0  0  0
    5.2839   -3.1852    1.0626 H   0  0  0  0  0  0  0  0  0  0  0  0
    5.2886   -4.0309   -0.3279 H   0  0  0  0  0  0  0  0  0  0  0  0
  1  7  1  0  0  0  0
  1  8  1  0  0  0  0
  1  9  1  0  0  0  0
  2  1  1  0  0  0  0
  3  4  1  0  0  0  0
  3 13  1  0  0  0  0
  3  2  1  0  0  0  0
  4 14  1  0  0  0  0
  5 16  1  0  0  0  0
  5  4  1  0  0  0  0
  5  6  1  0  0  0  0
  6 18  1  0  0  0  0
 10  2  1  0  0  0  0
 11  2  1  0  0  0  0
 12  3  1  0  0  0  0
 15  4  1  0  0  0  0
 17  5  1  0  0  0  0
 19  6  1  0  0  0  0
M  END
>  <HBA>
1

>  <HBD>
1

>  <TPSA>
26.02

>  <cid>
8060

>  <dipole>
1.38

>  <excitation_energy_1>
5.58

>  <excitation_energy_2>
6.382

>  <excitation_energy_3>
6.411

>  <excitation_energy_4>
6.51

>  <homo_energy>
-6.207

>  <homo_lumo_gap>
8.444

>  <logP>
1.836

>  <lumo_energy>
2.237

>  <melting_point>
28.35

>  <molecular_refractivity>
28.86

>  <oscillator_strength_1>
0.0085

>  <oscillator_strength_2>
0.0099

>  <oscillator_strength_3>
0.0089

>  <oscillator_strength_4>
0.0316

>  <open_babel_can_smiles>
CCCCCN

>  <mulliken_charges>
19
1   -0.442289
2   -0.24871
3   -0.240666
4   -0.25352
5   -0.137913
6   -0.710976
7   0.139289
8   0.141872
9   0.141862
10   0.124521
11   0.129097
12   0.120401
13   0.154624
14   0.125357
15   0.125102
16   0.110193
17   0.136129
18   0.290363
19   0.295264

>  <lowdin_charges>
19
1   -0.447774
2   -0.272106
3   -0.275789
4   -0.280688
5   -0.200147
6   -0.559217
7   0.148644
8   0.143828
9   0.14711
10   0.136156
11   0.13949
12   0.136194
13   0.15219
14   0.134619
15   0.140475
16   0.114647
17   0.138041
18   0.249327
19   0.255

$$$$

