PCCDB-ID:  17835
public computational chemistry database (PCCDB) project, http://pccdb.org

 35 34  0  0  1  0  0  0  0  0999 V2000
    1.9376    1.3875   -0.9033 C   0  0  0  0  0  0  0  0  0  0  0  0
    7.1013   -3.6284   -6.6246 C   0  0  0  0  0  0  0  0  0  0  0  0
    7.0820   -4.7846   -1.6815 C   0  0  0  0  0  0  0  0  0  0  0  0
    3.4389    1.1052   -1.0189 C   0  0  0  0  0  0  0  0  0  0  0  0
    7.4970   -3.1360   -5.2282 C   0  0  0  0  0  0  0  0  0  0  0  0
    3.7536   -0.3082   -1.5255 C   0  0  0  0  0  0  0  0  0  0  0  0
    5.2554   -0.5993   -1.6377 C   0  0  0  0  0  0  0  0  0  0  0  0
    5.5734   -2.0147   -2.1399 C   0  0  0  0  0  0  0  0  0  0  0  0
    7.0191   -4.0711   -4.1086 C   0  0  0  0  0  0  0  0  0  0  0  0
    7.0827   -2.2870   -2.2279 C   0  0  0  0  0  0  0  0  0  0  0  0
    7.5022   -3.7025   -2.6900 C   0  0  1  0  0  0  0  0  0  0  0  0
    1.7477    2.4030   -0.5370 H   0  0  0  0  0  0  0  0  0  0  0  0
    1.4550    0.6878   -0.2096 H   0  0  0  0  0  0  0  0  0  0  0  0
    1.4384    1.2856   -1.8749 H   0  0  0  0  0  0  0  0  0  0  0  0
    7.4541   -2.9450   -7.4055 H   0  0  0  0  0  0  0  0  0  0  0  0
    6.0116   -3.7105   -6.7221 H   0  0  0  0  0  0  0  0  0  0  0  0
    7.5261   -4.6186   -6.8310 H   0  0  0  0  0  0  0  0  0  0  0  0
    7.5008   -5.7600   -1.9565 H   0  0  0  0  0  0  0  0  0  0  0  0
    5.9920   -4.8979   -1.6378 H   0  0  0  0  0  0  0  0  0  0  0  0
    7.4323   -4.5440   -0.6703 H   0  0  0  0  0  0  0  0  0  0  0  0
    3.9149    1.2523   -0.0388 H   0  0  0  0  0  0  0  0  0  0  0  0
    3.8993    1.8420   -1.6926 H   0  0  0  0  0  0  0  0  0  0  0  0
    7.0899   -2.1279   -5.0746 H   0  0  0  0  0  0  0  0  0  0  0  0
    8.5906   -3.0341   -5.1730 H   0  0  0  0  0  0  0  0  0  0  0  0
    3.2790   -0.4550   -2.5074 H   0  0  0  0  0  0  0  0  0  0  0  0
    3.2900   -1.0451   -0.8526 H   0  0  0  0  0  0  0  0  0  0  0  0
    5.7269   -0.4500   -0.6547 H   0  0  0  0  0  0  0  0  0  0  0  0
    5.7195    0.1378   -2.3101 H   0  0  0  0  0  0  0  0  0  0  0  0
    5.1077   -2.1571   -3.1254 H   0  0  0  0  0  0  0  0  0  0  0  0
    5.0982   -2.7449   -1.4705 H   0  0  0  0  0  0  0  0  0  0  0  0
    7.3673   -5.0905   -4.3323 H   0  0  0  0  0  0  0  0  0  0  0  0
    5.9206   -4.1242   -4.1241 H   0  0  0  0  0  0  0  0  0  0  0  0
    7.5293   -2.1082   -1.2387 H   0  0  0  0  0  0  0  0  0  0  0  0
    7.5363   -1.5414   -2.8953 H   0  0  0  0  0  0  0  0  0  0  0  0
    8.6033   -3.6983   -2.7196 H   0  0  0  0  0  0  0  0  0  0  0  0
  1 12  1  0  0  0  0
  1 13  1  0  0  0  0
  2  5  1  0  0  0  0
  3 19  1  0  0  0  0
  3 20  1  0  0  0  0
  4  1  1  0  0  0  0
  4 21  1  0  0  0  0
  5 24  1  0  0  0  0
  5 23  1  0  0  0  0
  5  9  1  0  0  0  0
  6  4  1  0  0  0  0
  6 26  1  0  0  0  0
  7  6  1  0  0  0  0
  7 27  1  0  0  0  0
  8  7  1  0  0  0  0
  8 30  1  0  0  0  0
  9 11  1  0  0  0  0
 10  8  1  0  0  0  0
 10 33  1  0  0  0  0
 11 35  1  6  0  0  0
 11 10  1  0  0  0  0
 11  3  1  0  0  0  0
 14  1  1  0  0  0  0
 15  2  1  0  0  0  0
 16  2  1  0  0  0  0
 17  2  1  0  0  0  0
 18  3  1  0  0  0  0
 22  4  1  0  0  0  0
 25  6  1  0  0  0  0
 28  7  1  0  0  0  0
 29  8  1  0  0  0  0
 31  9  1  0  0  0  0
 32  9  1  0  0  0  0
 34 10  1  0  0  0  0
M  END
>  <HBA>
0

>  <HBD>
0

>  <TPSA>
0.0

>  <cid>
17835

>  <dipole>
0.09

>  <excitation_energy_1>
7.52

>  <excitation_energy_2>
7.697

>  <excitation_energy_3>
7.757

>  <excitation_energy_4>
7.762

>  <homo_energy>
-7.935

>  <homo_lumo_gap>
10.101

>  <logP>
4.393

>  <lumo_energy>
2.166

>  <melting_point>
-29.88

>  <molecular_refractivity>
54.99

>  <oscillator_strength_1>
0.0043

>  <oscillator_strength_2>
0.0294

>  <oscillator_strength_3>
0.0173

>  <oscillator_strength_4>
0.0039

>  <open_babel_can_smiles>
CCCCCC[C@H](CCC)C

>  <mulliken_charges>
35
1   -0.441053
2   -0.441814
3   -0.450349
4   -0.246408
5   -0.254353
6   -0.245905
7   -0.252242
8   -0.260868
9   -0.246854
10   -0.261484
11   -0.070278
12   0.140878
13   0.140767
14   0.140706
15   0.140573
16   0.140769
17   0.140898
18   0.138673
19   0.142607
20   0.137457
21   0.129523
22   0.12949
23   0.135382
24   0.12904
25   0.125457
26   0.125728
27   0.12628
28   0.125807
29   0.130906
30   0.131135
31   0.123456
32   0.127535
33   0.123381
34   0.129671
35   0.115486

>  <lowdin_charges>
35
1   -0.44489
2   -0.442465
3   -0.443573
4   -0.272906
5   -0.271815
6   -0.275643
7   -0.274015
8   -0.279806
9   -0.27541
10   -0.280091
11   -0.121427
12   0.148027
13   0.147162
14   0.145666
15   0.149437
16   0.144077
17   0.145285
18   0.14707
19   0.144
20   0.145698
21   0.138081
22   0.139646
23   0.139371
24   0.136189
25   0.136324
26   0.138034
27   0.136615
28   0.137987
29   0.138124
30   0.140586
31   0.137873
32   0.135097
33   0.138089
34   0.14097
35   0.132636

$$$$

