PCCDB-ID:  22618
public computational chemistry database (PCCDB) project, http://pccdb.org

 28 27  0  0  0  0  0  0  0  0999 V2000
    4.4002   -1.6924    0.2687 C   0  0  0  0  0  0  0  0  0  0  0  0
    1.0637    0.7082    5.2415 C   0  0  0  0  0  0  0  0  0  0  0  0
    2.4134   -0.4945    2.6257 C   0  0  0  0  0  0  0  0  0  0  0  0
    3.3528    0.2110    1.5977 C   0  0  0  0  0  0  0  0  0  0  0  0
    2.9860   -0.4287    4.0104 C   0  0  0  0  0  0  0  0  0  0  0  0
    5.8335   -0.3503    1.7634 C   0  0  0  0  0  0  0  0  0  0  0  0
    4.5980   -0.5822    1.2698 C   0  0  0  0  0  0  0  0  0  0  0  0
    2.4532    0.1451    5.1011 C   0  0  0  0  0  0  0  0  0  0  0  0
    6.2097    0.6892    2.7471 C   0  0  0  0  0  0  0  0  0  0  0  0
    3.2734    0.1898    6.3637 C   0  0  0  0  0  0  0  0  0  0  0  0
    5.4618    1.2430    3.5333 O   0  0  0  0  0  0  0  0  0  0  0  0
    7.5259    1.0186    2.7661 O   0  0  0  0  0  0  0  0  0  0  0  0
    2.7874    0.0636    7.4667 O   0  0  0  0  0  0  0  0  0  0  0  0
    4.6043    0.3875    6.2127 O   0  0  0  0  0  0  0  0  0  0  0  0
    3.5970   -2.3674    0.5904 H   0  0  0  0  0  0  0  0  0  0  0  0
    5.3052   -2.2869    0.1150 H   0  0  0  0  0  0  0  0  0  0  0  0
    4.0886   -1.2801   -0.7003 H   0  0  0  0  0  0  0  0  0  0  0  0
    0.4395    0.5221    4.3643 H   0  0  0  0  0  0  0  0  0  0  0  0
    1.0922    1.7909    5.4199 H   0  0  0  0  0  0  0  0  0  0  0  0
    0.5840    0.2599    6.1176 H   0  0  0  0  0  0  0  0  0  0  0  0
    2.2612   -1.5391    2.3179 H   0  0  0  0  0  0  0  0  0  0  0  0
    1.4344   -0.0091    2.5775 H   0  0  0  0  0  0  0  0  0  0  0  0
    3.6085    1.2001    1.9822 H   0  0  0  0  0  0  0  0  0  0  0  0
    2.7909    0.3435    0.6633 H   0  0  0  0  0  0  0  0  0  0  0  0
    3.9812   -0.8573    4.1024 H   0  0  0  0  0  0  0  0  0  0  0  0
    6.6499   -0.9759    1.4027 H   0  0  0  0  0  0  0  0  0  0  0  0
    8.0032    0.5526    2.0600 H   0  0  0  0  0  0  0  0  0  0  0  0
    4.8124    0.6817    5.3016 H   0  0  0  0  0  0  0  0  0  0  0  0
  1 15  1  0  0  0  0
  1  7  1  0  0  0  0
  2 19  1  0  0  0  0
  2 20  1  0  0  0  0
  3  5  1  0  0  0  0
  4 23  1  0  0  0  0
  4  3  1  0  0  0  0
  5 25  1  0  0  0  0
  5  8  2  0  0  0  0
  6  9  1  0  0  0  0
  7  4  1  0  0  0  0
  7  6  2  0  0  0  0
  8  2  1  0  0  0  0
  8 10  1  0  0  0  0
  9 12  1  0  0  0  0
  9 11  2  0  0  0  0
 10 13  2  0  0  0  0
 14 10  1  0  0  0  0
 16  1  1  0  0  0  0
 17  1  1  0  0  0  0
 18  2  1  0  0  0  0
 21  3  1  0  0  0  0
 22  3  1  0  0  0  0
 24  4  1  0  0  0  0
 26  6  1  0  0  0  0
 27 12  1  0  0  0  0
 28 14  1  0  0  0  0
M  END
>  <HBA>
4

>  <HBD>
2

>  <TPSA>
74.6

>  <cid>
22618

>  <dipole>
9.46

>  <excitation_energy_1>
4.112

>  <excitation_energy_2>
4.527

>  <excitation_energy_3>
4.824

>  <excitation_energy_4>
4.875

>  <homo_energy>
-6.599

>  <homo_lumo_gap>
4.803

>  <logP>
1.828

>  <lumo_energy>
-1.796

>  <melting_point>
151.52

>  <molecular_refractivity>
52.78

>  <oscillator_strength_1>
0.0103

>  <oscillator_strength_2>
0.0046

>  <oscillator_strength_3>
0.0031

>  <oscillator_strength_4>
0.0052

>  <open_babel_can_smiles>
OC(=O)/C=C(\CC/C=C(/C(=O)O)\C)/C

>  <mulliken_charges>
28
1   -0.522827
2   -0.515785
3   -0.325156
4   -0.332965
5   -0.133859
6   -0.295619
7   0.213366
8   0.072408
9   0.61603
10   0.53839
11   -0.483891
12   -0.561993
13   -0.460967
14   -0.603235
15   0.1768
16   0.165235
17   0.174675
18   0.145183
19   0.165785
20   0.191729
21   0.15107
22   0.156861
23   0.188217
24   0.147483
25   0.134535
26   0.131433
27   0.415828
28   0.451269

>  <lowdin_charges>
28
1   -0.442678
2   -0.440117
3   -0.264943
4   -0.277239
5   -0.158931
6   -0.263649
7   0.066913
8   -0.050458
9   0.212796
10   0.189951
11   -0.272116
12   -0.34489
13   -0.257774
14   -0.364482
15   0.169415
16   0.161729
17   0.168986
18   0.152082
19   0.162041
20   0.179768
21   0.149723
22   0.15685
23   0.173997
24   0.155438
25   0.156634
26   0.158162
27   0.36292
28   0.359873

$$$$

