PCCDB-ID:  31503
public computational chemistry database (PCCDB) project, http://pccdb.org

 28 30  0  0  0  0  0  0  0  0999 V2000
    1.1080   -0.2179   -0.5052 C   0  0  0  0  0  0  0  0  0  0  0  0
    0.5110   -1.4733    3.5940 C   0  0  0  0  0  0  0  0  0  0  0  0
    6.6549    0.3969    0.0520 C   0  0  0  0  0  0  0  0  0  0  0  0
    1.2975   -2.2811    4.4228 C   0  0  0  0  0  0  0  0  0  0  0  0
    7.3609   -0.3777    0.9834 C   0  0  0  0  0  0  0  0  0  0  0  0
    1.0752   -0.8912    2.4651 C   0  0  0  0  0  0  0  0  0  0  0  0
    5.2670    0.3617    0.0397 C   0  0  0  0  0  0  0  0  0  0  0  0
    2.6430   -2.4595    4.1416 C   0  0  0  0  0  0  0  0  0  0  0  0
    6.6770   -1.1673    1.8965 C   0  0  0  0  0  0  0  0  0  0  0  0
    2.4273   -1.0854    2.1173 C   0  0  0  0  0  0  0  0  0  0  0  0
    4.5481   -0.4251    0.9536 C   0  0  0  0  0  0  0  0  0  0  0  0
    3.2216   -1.8459    3.0164 C   0  0  0  0  0  0  0  0  0  0  0  0
    5.2717   -1.1880    1.8905 C   0  0  0  0  0  0  0  0  0  0  0  0
    3.0628   -0.5150    0.8958 C   0  0  0  0  0  0  0  0  0  0  0  0
    2.5170   -0.1134   -0.1999 N   0  0  0  0  0  0  0  0  0  0  0  0
    4.5806   -1.9730    2.8018 N   0  0  0  0  0  0  0  0  0  0  0  0
    0.9953   -0.2235   -1.5955 H   0  0  0  0  0  0  0  0  0  0  0  0
    0.5467    0.6549   -0.1369 H   0  0  0  0  0  0  0  0  0  0  0  0
    0.6231   -1.1218   -0.1074 H   0  0  0  0  0  0  0  0  0  0  0  0
   -0.5346   -1.2984    3.8286 H   0  0  0  0  0  0  0  0  0  0  0  0
    7.1912    1.0168   -0.6606 H   0  0  0  0  0  0  0  0  0  0  0  0
    0.8648   -2.7542    5.3001 H   0  0  0  0  0  0  0  0  0  0  0  0
    8.4474   -0.3615    0.9979 H   0  0  0  0  0  0  0  0  0  0  0  0
    0.4592   -0.2488    1.8520 H   0  0  0  0  0  0  0  0  0  0  0  0
    4.6945    0.9315   -0.6838 H   0  0  0  0  0  0  0  0  0  0  0  0
    3.2698   -3.0554    4.8019 H   0  0  0  0  0  0  0  0  0  0  0  0
    7.2190   -1.7679    2.6242 H   0  0  0  0  0  0  0  0  0  0  0  0
    5.1190   -2.4695    3.4980 H   0  0  0  0  0  0  0  0  0  0  0  0
  1 15  1  0  0  0  0
  1 18  1  0  0  0  0
  1 19  1  0  0  0  0
  2 20  1  0  0  0  0
  2  4  2  0  0  0  0
  3  5  2  0  0  0  0
  4 22  1  0  0  0  0
  5 23  1  0  0  0  0
  5  9  1  0  0  0  0
  6  2  1  0  0  0  0
  7  3  1  0  0  0  0
  7 11  2  0  0  0  0
  8  4  1  0  0  0  0
  8 26  1  0  0  0  0
  9 27  1  0  0  0  0
 10  6  2  0  0  0  0
 10 12  1  0  0  0  0
 11 13  1  0  0  0  0
 12  8  2  0  0  0  0
 13  9  2  0  0  0  0
 13 16  1  0  0  0  0
 14 11  1  0  0  0  0
 14 10  1  0  0  0  0
 15 14  2  0  0  0  0
 16 12  1  0  0  0  0
 16 28  1  0  0  0  0
 17  1  1  0  0  0  0
 21  3  1  0  0  0  0
 24  6  1  0  0  0  0
 25  7  1  0  0  0  0
M  END
>  <HBA>
2

>  <HBD>
1

>  <TPSA>
24.92

>  <cid>
31503

>  <dipole>
3.03

>  <excitation_energy_1>
3.509

>  <excitation_energy_2>
3.814

>  <excitation_energy_3>
4.232

>  <excitation_energy_4>
4.434

>  <homo_energy>
-5.178

>  <homo_lumo_gap>
4.049

>  <logP>
3.503

>  <lumo_energy>
-1.129

>  <melting_point>
144.05

>  <molecular_refractivity>
68.55

>  <oscillator_strength_1>
0.1114

>  <oscillator_strength_2>
0.0013

>  <oscillator_strength_3>
0.1011

>  <oscillator_strength_4>
0.0468

>  <open_babel_can_smiles>
CN=c1c2ccccc2[nH]c2c1cccc2

>  <mulliken_charges>
28
1   -0.328309
2   -0.141568
3   -0.134706
4   -0.130147
5   -0.133315
6   -0.198694
7   -0.18123
8   -0.187815
9   -0.186047
10   0.085398
11   0.079925
12   0.340722
13   0.326981
14   0.244293
15   -0.472854
16   -0.816896
17   0.153253
18   0.149533
19   0.142733
20   0.129605
21   0.127418
22   0.133899
23   0.129798
24   0.143666
25   0.157766
26   0.124103
27   0.120035
28   0.322451

>  <lowdin_charges>
28
1   -0.363556
2   -0.180891
3   -0.177681
4   -0.137794
5   -0.140449
6   -0.144003
7   -0.129375
8   -0.197956
9   -0.197593
10   -0.05726
11   -0.041962
12   0.067331
13   0.055119
14   0.05247
15   -0.205313
16   -0.220282
17   0.148051
18   0.147002
19   0.141393
20   0.157994
21   0.159316
22   0.161369
23   0.156656
24   0.171125
25   0.177296
26   0.156421
27   0.154413
28   0.288162

$$$$

