PCCDB-ID:  38074
public computational chemistry database (PCCDB) project, http://pccdb.org

 31 33  0  0  0  0  0  0  0  0999 V2000
   -1.3109    0.2826    0.7944 C   0  0  0  0  0  0  0  0  0  0  0  0
   -0.9539    0.6572   -0.5015 C   0  0  0  0  0  0  0  0  0  0  0  0
   -0.3817   -0.3823    1.5971 C   0  0  0  0  0  0  0  0  0  0  0  0
    2.0379   -5.6116   -1.9214 C   0  0  0  0  0  0  0  0  0  0  0  0
    1.3905   -4.4172   -2.3141 C   0  0  0  0  0  0  0  0  0  0  0  0
    4.9898   -3.0731    0.9889 C   0  0  0  0  0  0  0  0  0  0  0  0
    0.3229    0.3682   -0.9863 C   0  0  0  0  0  0  0  0  0  0  0  0
    0.8933   -0.6690    1.1090 C   0  0  0  0  0  0  0  0  0  0  0  0
    3.0724   -5.5644   -1.0151 C   0  0  0  0  0  0  0  0  0  0  0  0
    4.5769   -4.2765    0.4715 C   0  0  0  0  0  0  0  0  0  0  0  0
    4.3530   -1.8736    0.5896 C   0  0  0  0  0  0  0  0  0  0  0  0
    1.7887   -3.2033   -1.7979 C   0  0  0  0  0  0  0  0  0  0  0  0
    2.6724   -0.5499   -0.7183 C   0  0  0  0  0  0  0  0  0  0  0  0
    1.2642   -0.2963   -0.1896 C   0  0  0  0  0  0  0  0  0  0  0  0
    3.5084   -4.3299   -0.4640 C   0  0  0  0  0  0  0  0  0  0  0  0
    3.3078   -1.8677   -0.3136 C   0  0  0  0  0  0  0  0  0  0  0  0
    2.8565   -3.1145   -0.8626 C   0  0  0  0  0  0  0  0  0  0  0  0
   -2.3045    0.5041    1.1747 H   0  0  0  0  0  0  0  0  0  0  0  0
   -1.6689    1.1722   -1.1380 H   0  0  0  0  0  0  0  0  0  0  0  0
   -0.6506   -0.6815    2.6070 H   0  0  0  0  0  0  0  0  0  0  0  0
    1.7147   -6.5633   -2.3345 H   0  0  0  0  0  0  0  0  0  0  0  0
    0.5699   -4.4586   -3.0254 H   0  0  0  0  0  0  0  0  0  0  0  0
    5.8084   -3.0323    1.7024 H   0  0  0  0  0  0  0  0  0  0  0  0
    0.5936    0.6647   -1.9979 H   0  0  0  0  0  0  0  0  0  0  0  0
    1.6070   -1.1943    1.7379 H   0  0  0  0  0  0  0  0  0  0  0  0
    3.5755   -6.4776   -0.7052 H   0  0  0  0  0  0  0  0  0  0  0  0
    5.0611   -5.2043    0.7671 H   0  0  0  0  0  0  0  0  0  0  0  0
    4.7018   -0.9294    1.0018 H   0  0  0  0  0  0  0  0  0  0  0  0
    1.2675   -2.3008   -2.0982 H   0  0  0  0  0  0  0  0  0  0  0  0
    3.3264    0.2600   -0.3677 H   0  0  0  0  0  0  0  0  0  0  0  0
    2.6573   -0.4631   -1.8124 H   0  0  0  0  0  0  0  0  0  0  0  0
  1 18  1  0  0  0  0
  1  3  2  0  0  0  0
  2  1  1  0  0  0  0
  3 20  1  0  0  0  0
  4  9  1  0  0  0  0
  5  4  2  0  0  0  0
  5 12  1  0  0  0  0
  6 23  1  0  0  0  0
  7  2  2  0  0  0  0
  7 14  1  0  0  0  0
  8  3  1  0  0  0  0
  8 25  1  0  0  0  0
  9 26  1  0  0  0  0
  9 15  2  0  0  0  0
 10 27  1  0  0  0  0
 10  6  2  0  0  0  0
 11  6  1  0  0  0  0
 11 28  1  0  0  0  0
 12 17  2  0  0  0  0
 13 30  1  0  0  0  0
 13 16  1  0  0  0  0
 13 14  1  0  0  0  0
 14  8  2  0  0  0  0
 15 10  1  0  0  0  0
 16 11  2  0  0  0  0
 17 15  1  0  0  0  0
 17 16  1  0  0  0  0
 19  2  1  0  0  0  0
 21  4  1  0  0  0  0
 22  5  1  0  0  0  0
 24  7  1  0  0  0  0
 29 12  1  0  0  0  0
 31 13  1  0  0  0  0
M  END
>  <HBA>
0

>  <HBD>
0

>  <TPSA>
0.0

>  <cid>
38074

>  <dipole>
0.07

>  <excitation_energy_1>
4.276

>  <excitation_energy_2>
4.395

>  <excitation_energy_3>
4.773

>  <excitation_energy_4>
5.001

>  <homo_energy>
-5.725

>  <homo_lumo_gap>
4.757

>  <logP>
4.431

>  <lumo_energy>
-0.969

>  <melting_point>
82.88

>  <molecular_refractivity>
73.4

>  <oscillator_strength_1>
0.1056

>  <oscillator_strength_2>
0.0005

>  <oscillator_strength_3>
0.004

>  <oscillator_strength_4>
0.0011

>  <open_babel_can_smiles>
c1ccc(cc1)Cc1cccc2c1cccc2

>  <mulliken_charges>
31
1   -0.130912
2   -0.126962
3   -0.128888
4   -0.131358
5   -0.137848
6   -0.129565
7   -0.191794
8   -0.177609
9   -0.19635
10   -0.192272
11   -0.211356
12   -0.188166
13   -0.44572
14   0.181492
15   0.141461
16   0.125944
17   0.078593
18   0.127107
19   0.127418
20   0.128786
21   0.128905
22   0.129262
23   0.128957
24   0.120692
25   0.134853
26   0.128445
27   0.12823
28   0.124313
29   0.137858
30   0.16242
31   0.154064

>  <lowdin_charges>
31
1   -0.160753
2   -0.156954
3   -0.151729
4   -0.15898
5   -0.155819
6   -0.159276
7   -0.17199
8   -0.165522
9   -0.157446
10   -0.158917
11   -0.174485
12   -0.159413
13   -0.271664
14   -0.003177
15   0.001854
16   -0.002452
17   -0.005942
18   0.156043
19   0.158034
20   0.156202
21   0.158228
22   0.158403
23   0.158522
24   0.151879
25   0.162963
26   0.157284
27   0.157361
28   0.155236
29   0.16482
30   0.163099
31   0.154592

$$$$

