PCCDB-ID:  53439
public computational chemistry database (PCCDB) project, http://pccdb.org

 32 33  0  0  1  0  0  0  0  0999 V2000
    1.6752   -1.4843   -2.2966 C   0  0  0  0  0  0  0  0  0  0  0  0
    1.5037    5.9046   -4.8050 C   0  0  0  0  0  0  0  0  0  0  0  0
    0.8219    4.6885   -4.7340 C   0  0  0  0  0  0  0  0  0  0  0  0
    2.7177    6.0651   -4.1301 C   0  0  0  0  0  0  0  0  0  0  0  0
    4.6879   -1.6352   -1.4755 C   0  0  0  0  0  0  0  0  0  0  0  0
    1.3518    3.6332   -3.9918 C   0  0  0  0  0  0  0  0  0  0  0  0
    3.2450    5.0134   -3.3876 C   0  0  0  0  0  0  0  0  0  0  0  0
    4.5245   -0.2650   -2.1839 C   0  0  0  0  0  0  0  0  0  0  0  0
    3.3999   -1.7600   -0.6067 C   0  0  0  0  0  0  0  0  0  0  0  0
    2.4774    1.3415   -2.4190 C   0  0  0  0  0  0  0  0  0  0  0  0
    2.5692    3.7850   -3.3106 C   0  0  0  0  0  0  0  0  0  0  0  0
    3.2199    0.3146   -1.5694 C   0  0  1  0  0  0  0  0  0  0  0  0
    3.1905    2.6896   -2.4929 C   0  0  0  0  0  0  0  0  0  0  0  0
    2.3943   -0.8554   -1.1871 N   0  0  0  0  0  0  0  0  0  0  0  0
    4.2411    2.8840   -1.8982 O   0  0  0  0  0  0  0  0  0  0  0  0
    1.1619   -2.3746   -1.9189 H   0  0  0  0  0  0  0  0  0  0  0  0
    2.3065   -1.7969   -3.1492 H   0  0  0  0  0  0  0  0  0  0  0  0
    0.9065   -0.8056   -2.6793 H   0  0  0  0  0  0  0  0  0  0  0  0
    1.0904    6.7258   -5.3846 H   0  0  0  0  0  0  0  0  0  0  0  0
   -0.1221    4.5613   -5.2565 H   0  0  0  0  0  0  0  0  0  0  0  0
    3.2495    7.0112   -4.1840 H   0  0  0  0  0  0  0  0  0  0  0  0
    5.5904   -1.6805   -0.8573 H   0  0  0  0  0  0  0  0  0  0  0  0
    4.7580   -2.4516   -2.2021 H   0  0  0  0  0  0  0  0  0  0  0  0
    0.8097    2.6941   -3.9450 H   0  0  0  0  0  0  0  0  0  0  0  0
    4.1842    5.1150   -2.8539 H   0  0  0  0  0  0  0  0  0  0  0  0
    4.4142   -0.3944   -3.2681 H   0  0  0  0  0  0  0  0  0  0  0  0
    5.3683    0.4096   -2.0232 H   0  0  0  0  0  0  0  0  0  0  0  0
    3.6090   -1.4242    0.4172 H   0  0  0  0  0  0  0  0  0  0  0  0
    3.0089   -2.7801   -0.5444 H   0  0  0  0  0  0  0  0  0  0  0  0
    1.4738    1.5060   -2.0011 H   0  0  0  0  0  0  0  0  0  0  0  0
    2.3243    0.9749   -3.4431 H   0  0  0  0  0  0  0  0  0  0  0  0
    3.4931    0.8071   -0.6276 H   0  0  0  0  0  0  0  0  0  0  0  0
  1 16  1  0  0  0  0
  1 14  1  0  0  0  0
  2  3  2  0  0  0  0
  2  4  1  0  0  0  0
  3  6  1  0  0  0  0
  4  7  2  0  0  0  0
  5 22  1  0  0  0  0
  5  9  1  0  0  0  0
  6 24  1  0  0  0  0
  6 11  2  0  0  0  0
  7 11  1  0  0  0  0
  7 25  1  0  0  0  0
  8 27  1  0  0  0  0
  8 12  1  0  0  0  0
  8  5  1  0  0  0  0
  9 29  1  0  0  0  0
  9 28  1  0  0  0  0
 10 30  1  0  0  0  0
 10 12  1  0  0  0  0
 11 13  1  0  0  0  0
 12 14  1  0  0  0  0
 12 32  1  1  0  0  0
 13 10  1  0  0  0  0
 13 15  2  0  0  0  0
 14  9  1  0  0  0  0
 17  1  1  0  0  0  0
 18  1  1  0  0  0  0
 19  2  1  0  0  0  0
 20  3  1  0  0  0  0
 21  4  1  0  0  0  0
 23  5  1  0  0  0  0
 26  8  1  0  0  0  0
 31 10  1  0  0  0  0
M  END
>  <HBA>
2

>  <HBD>
0

>  <TPSA>
20.31

>  <cid>
53439

>  <dipole>
2.7

>  <excitation_energy_1>
3.436

>  <excitation_energy_2>
3.769

>  <excitation_energy_3>
4.716

>  <excitation_energy_4>
4.777

>  <homo_energy>
-5.633

>  <homo_lumo_gap>
4.117

>  <logP>
2.292

>  <lumo_energy>
-1.516

>  <melting_point>
60.1

>  <molecular_refractivity>
65.37

>  <oscillator_strength_1>
0.0002

>  <oscillator_strength_2>
0.0

>  <oscillator_strength_3>
0.0214

>  <oscillator_strength_4>
0.0008

>  <open_babel_can_smiles>
CN1CCC[C@H]1CC(=O)c1ccccc1

>  <mulliken_charges>
32
1   -0.30823
2   -0.118063
3   -0.134807
4   -0.133832
5   -0.290557
6   -0.181385
7   -0.154736
8   -0.286743
9   -0.140683
10   -0.40671
11   0.079307
12   0.057236
13   0.411636
14   -0.391685
15   -0.468637
16   0.15043
17   0.120712
18   0.145769
19   0.13799
20   0.136576
21   0.138814
22   0.139283
23   0.137433
24   0.137926
25   0.164071
26   0.126847
27   0.163102
28   0.143386
29   0.134092
30   0.177023
31   0.163583
32   0.150855

>  <lowdin_charges>
32
1   -0.365909
2   -0.140189
3   -0.156274
4   -0.154858
5   -0.303385
6   -0.150154
7   -0.126514
8   -0.30047
9   -0.208417
10   -0.311838
11   -0.050026
12   -0.063901
13   0.162775
14   -0.193304
15   -0.241968
16   0.152013
17   0.121858
18   0.147712
19   0.162641
20   0.160618
21   0.161847
22   0.148291
23   0.144615
24   0.162344
25   0.176627
26   0.136283
27   0.161012
28   0.14195
29   0.14374
30   0.170494
31   0.161094
32   0.151294

$$$$

