PCCDB-ID:  17804
public computational chemistry database (PCCDB) project, http://pccdb.org

 24 24  0  0  0  0  0  0  0  0999 V2000
    0.9645   -0.1377   -0.0248 C   0  0  0  0  0  0  0  0  0  0  0  0
    7.2162   -0.0886   -1.1510 C   0  0  0  0  0  0  0  0  0  0  0  0
    3.1149    0.0715   -5.9994 C   0  0  0  0  0  0  0  0  0  0  0  0
    3.0037   -0.0919   -1.1785 C   0  0  0  0  0  0  0  0  0  0  0  0
    5.1971   -0.0511   -2.3395 C   0  0  0  0  0  0  0  0  0  0  0  0
    3.0943   -0.0061   -3.6574 C   0  0  0  0  0  0  0  0  0  0  0  0
    2.4163   -0.1346   -0.0464 N   0  0  0  0  0  0  0  0  0  0  0  0
    6.4720   -0.0493   -2.3971 N   0  0  0  0  0  0  0  0  0  0  0  0
    2.4073    0.0302   -4.7322 N   0  0  0  0  0  0  0  0  0  0  0  0
    4.4003   -0.0882   -1.2086 N   0  0  0  0  0  0  0  0  0  0  0  0
    2.4222   -0.0459   -2.4334 N   0  0  0  0  0  0  0  0  0  0  0  0
    4.4726   -0.0116   -3.5331 N   0  0  0  0  0  0  0  0  0  0  0  0
    0.6252   -0.1772    1.0139 H   0  0  0  0  0  0  0  0  0  0  0  0
    0.5313   -1.0098   -0.5426 H   0  0  0  0  0  0  0  0  0  0  0  0
    0.5286    0.7694   -0.4759 H   0  0  0  0  0  0  0  0  0  0  0  0
    8.2861   -0.0746   -1.3759 H   0  0  0  0  0  0  0  0  0  0  0  0
    7.0184   -1.0014   -0.5642 H   0  0  0  0  0  0  0  0  0  0  0  0
    7.0077    0.7780   -0.5014 H   0  0  0  0  0  0  0  0  0  0  0  0
    2.3847    0.0981   -6.8128 H   0  0  0  0  0  0  0  0  0  0  0  0
    3.7522   -0.8138   -6.1622 H   0  0  0  0  0  0  0  0  0  0  0  0
    3.7518    0.9658   -6.1042 H   0  0  0  0  0  0  0  0  0  0  0  0
    4.8348   -0.1256   -0.2978 H   0  0  0  0  0  0  0  0  0  0  0  0
    1.4155   -0.0459   -2.5129 H   0  0  0  0  0  0  0  0  0  0  0  0
    5.0447    0.0178   -4.3647 H   0  0  0  0  0  0  0  0  0  0  0  0
  1 13  1  0  0  0  0
  2 17  1  0  0  0  0
  2 18  1  0  0  0  0
  3  9  1  0  0  0  0
  4  7  2  0  0  0  0
  5 10  1  0  0  0  0
  6 12  1  0  0  0  0
  6 11  1  0  0  0  0
  7  1  1  0  0  0  0
  8  5  2  0  0  0  0
  8  2  1  0  0  0  0
  9  6  2  0  0  0  0
 10  4  1  0  0  0  0
 10 22  1  0  0  0  0
 11  4  1  0  0  0  0
 12  5  1  0  0  0  0
 14  1  1  0  0  0  0
 15  1  1  0  0  0  0
 16  2  1  0  0  0  0
 19  3  1  0  0  0  0
 20  3  1  0  0  0  0
 21  3  1  0  0  0  0
 23 11  1  0  0  0  0
 24 12  1  0  0  0  0
M  END
>  <HBA>
6

>  <HBD>
3

>  <TPSA>
74.76

>  <cid>
17804

>  <dipole>
0.01

>  <excitation_energy_1>
5.324

>  <excitation_energy_2>
5.722

>  <excitation_energy_3>
5.723

>  <excitation_energy_4>
5.725

>  <homo_energy>
-5.957

>  <homo_lumo_gap>
6.329

>  <logP>
0.216

>  <lumo_energy>
0.373

>  <melting_point>
155.5

>  <molecular_refractivity>
47.74

>  <oscillator_strength_1>
0.0028

>  <oscillator_strength_2>
0.0547

>  <oscillator_strength_3>
0.0058

>  <oscillator_strength_4>
0.139

>  <open_babel_can_smiles>
C/N=c/1\[nH]/c(=N/C)/[nH]/c(=N/C)/[nH]1

>  <mulliken_charges>
24
1   -0.343174
2   -0.343021
3   -0.34331
4   0.75362
5   0.75384
6   0.753607
7   -0.488335
8   -0.488484
9   -0.488279
10   -0.729914
11   -0.729741
12   -0.729779
13   0.167781
14   0.141536
15   0.141669
16   0.16777
17   0.141606
18   0.14149
19   0.167833
20   0.141625
21   0.141605
22   0.356696
23   0.356678
24   0.356683

>  <lowdin_charges>
24
1   -0.363361
2   -0.362163
3   -0.363933
4   0.136794
5   0.131455
6   0.137276
7   -0.269005
8   -0.267529
9   -0.270066
10   -0.248309
11   -0.24656
12   -0.248965
13   0.159325
14   0.138815
15   0.138669
16   0.158398
17   0.138413
18   0.138555
19   0.160924
20   0.138472
21   0.138347
22   0.308535
23   0.306696
24   0.309216

$$$$

