PCCDB-ID:  18851
public computational chemistry database (PCCDB) project, http://pccdb.org

 21 20  0  0  1  0  0  0  0  0999 V2000
    2.8119    1.0016    1.0326 C   0  0  0  0  0  0  0  0  0  0  0  0
    5.4387   -1.5830    0.5763 C   0  0  0  0  0  0  0  0  0  0  0  0
    5.2098   -0.3664   -1.5744 C   0  0  0  0  0  0  0  0  0  0  0  0
    2.5441   -2.0481   -1.4258 C   0  0  0  0  0  0  0  0  0  0  0  0
    2.4031    0.1544   -0.1758 C   0  0  0  0  0  0  0  0  0  0  0  0
    4.6384   -1.0777   -0.3690 C   0  0  0  0  0  0  0  0  0  0  0  0
    3.1240   -1.2115   -0.2679 C   0  0  2  0  0  0  0  0  0  0  0  0
    2.2543    1.9448    1.0588 H   0  0  0  0  0  0  0  0  0  0  0  0
    3.8807    1.2410    1.0139 H   0  0  0  0  0  0  0  0  0  0  0  0
    2.6127    0.4703    1.9714 H   0  0  0  0  0  0  0  0  0  0  0  0
    6.5218   -1.5049    0.5134 H   0  0  0  0  0  0  0  0  0  0  0  0
    5.0409   -2.0960    1.4489 H   0  0  0  0  0  0  0  0  0  0  0  0
    6.3036   -0.3573   -1.5451 H   0  0  0  0  0  0  0  0  0  0  0  0
    4.8678    0.6754   -1.6295 H   0  0  0  0  0  0  0  0  0  0  0  0
    4.9027   -0.8461   -2.5124 H   0  0  0  0  0  0  0  0  0  0  0  0
    1.4762   -2.2371   -1.2644 H   0  0  0  0  0  0  0  0  0  0  0  0
    3.0511   -3.0160   -1.5079 H   0  0  0  0  0  0  0  0  0  0  0  0
    2.6434   -1.5322   -2.3881 H   0  0  0  0  0  0  0  0  0  0  0  0
    2.5727    0.7211   -1.1020 H   0  0  0  0  0  0  0  0  0  0  0  0
    1.3218   -0.0368   -0.1370 H   0  0  0  0  0  0  0  0  0  0  0  0
    2.9131   -1.7524    0.6657 H   0  0  0  0  0  0  0  0  0  0  0  0
  1  8  1  0  0  0  0
  1 10  1  0  0  0  0
  2 12  1  0  0  0  0
  3 13  1  0  0  0  0
  3  6  1  0  0  0  0
  4 16  1  0  0  0  0
  4  7  1  0  0  0  0
  5 20  1  0  0  0  0
  5  1  1  0  0  0  0
  6  7  1  0  0  0  0
  6  2  2  0  0  0  0
  7  5  1  0  0  0  0
  7 21  1  1  0  0  0
  9  1  1  0  0  0  0
 11  2  1  0  0  0  0
 14  3  1  0  0  0  0
 15  3  1  0  0  0  0
 17  4  1  0  0  0  0
 18  4  1  0  0  0  0
 19  5  1  0  0  0  0
M  END
>  <HBA>
0

>  <HBD>
0

>  <TPSA>
0.0

>  <cid>
18851

>  <dipole>
0.46

>  <excitation_energy_1>
6.097

>  <excitation_energy_2>
6.483

>  <excitation_energy_3>
6.571

>  <excitation_energy_4>
6.616

>  <homo_energy>
-6.506

>  <homo_lumo_gap>
7.328

>  <logP>
2.609

>  <lumo_energy>
0.822

>  <melting_point>
-44.41

>  <molecular_refractivity>
35.29

>  <oscillator_strength_1>
0.0112

>  <oscillator_strength_2>
0.1278

>  <oscillator_strength_3>
0.0021

>  <oscillator_strength_4>
0.029

>  <open_babel_can_smiles>
CC[C@H](C(=C)C)C

>  <mulliken_charges>
21
1   -0.44399
2   -0.409004
3   -0.52318
4   -0.452151
5   -0.253941
6   0.247514
7   -0.136778
8   0.139404
9   0.15214
10   0.14069
11   0.128733
12   0.130558
13   0.152206
14   0.156127
15   0.155907
16   0.142317
17   0.14828
18   0.14208
19   0.129823
20   0.130724
21   0.122538

>  <lowdin_charges>
21
1   -0.445084
2   -0.365616
3   -0.44184
4   -0.442395
5   -0.272515
6   0.010154
7   -0.122414
8   0.148473
9   0.150603
10   0.146736
11   0.149657
12   0.15265
13   0.155051
14   0.154795
15   0.156404
16   0.148087
17   0.151887
18   0.14612
19   0.138408
20   0.139931
21   0.140909

$$$$

