PCCDB-ID:  47146
public computational chemistry database (PCCDB) project, http://pccdb.org

 20 20  0  0  0  0  0  0  0  0999 V2000
   -1.4967    0.8080    0.1902 C   0  0  0  0  0  0  0  0  0  0  0  0
   -0.3573    1.6470   -0.3903 C   0  0  0  0  0  0  0  0  0  0  0  0
   -1.4038   -0.6882   -0.1433 C   0  0  0  0  0  0  0  0  0  0  0  0
    1.0144    1.3611    0.2384 C   0  0  0  0  0  0  0  0  0  0  0  0
   -0.3044   -1.5044    0.5180 C   0  0  0  0  0  0  0  0  0  0  0  0
    1.6784    0.0260   -0.0610 C   0  0  0  0  0  0  0  0  0  0  0  0
   -0.4919   -2.6000    1.1592 N   0  0  0  0  0  0  0  0  0  0  0  0
    2.8769   -0.1137   -0.4978 N   0  0  0  0  0  0  0  0  0  0  0  0
    1.0268   -1.1516    0.3019 N   0  0  0  0  0  0  0  0  0  0  0  0
   -2.4491    1.1790   -0.2085 H   0  0  0  0  0  0  0  0  0  0  0  0
   -1.5419    0.9444    1.2796 H   0  0  0  0  0  0  0  0  0  0  0  0
   -0.5807    2.7091   -0.2300 H   0  0  0  0  0  0  0  0  0  0  0  0
   -0.3053    1.5017   -1.4783 H   0  0  0  0  0  0  0  0  0  0  0  0
   -1.2847   -0.7977   -1.2316 H   0  0  0  0  0  0  0  0  0  0  0  0
   -2.3522   -1.1685    0.1189 H   0  0  0  0  0  0  0  0  0  0  0  0
    0.9225    1.4429    1.3317 H   0  0  0  0  0  0  0  0  0  0  0  0
    1.7169    2.1393   -0.0777 H   0  0  0  0  0  0  0  0  0  0  0  0
   -1.4881   -2.8216    1.1928 H   0  0  0  0  0  0  0  0  0  0  0  0
    3.3033    0.8010   -0.6529 H   0  0  0  0  0  0  0  0  0  0  0  0
    1.6649   -1.9301    0.4293 H   0  0  0  0  0  0  0  0  0  0  0  0
  1 11  1  0  0  0  0
  2 12  1  0  0  0  0
  2  1  1  0  0  0  0
  2  4  1  0  0  0  0
  3 15  1  0  0  0  0
  3  1  1  0  0  0  0
  3  5  1  0  0  0  0
  4 16  1  0  0  0  0
  5  7  2  0  0  0  0
  6  4  1  0  0  0  0
  6  9  1  0  0  0  0
  7 18  1  0  0  0  0
  8  6  2  0  0  0  0
  9 20  1  0  0  0  0
  9  5  1  0  0  0  0
 10  1  1  0  0  0  0
 13  2  1  0  0  0  0
 14  3  1  0  0  0  0
 17  4  1  0  0  0  0
 19  8  1  0  0  0  0
M  END
>  <HBA>
3

>  <HBD>
2

>  <TPSA>
62.23

>  <cid>
47146

>  <dipole>
4.36

>  <excitation_energy_1>
5.238

>  <excitation_energy_2>
5.429

>  <excitation_energy_3>
5.647

>  <excitation_energy_4>
5.824

>  <homo_energy>
-6.12

>  <homo_lumo_gap>
5.921

>  <logP>
1.131

>  <lumo_energy>
-0.199

>  <melting_point>
99.43

>  <molecular_refractivity>
42.15

>  <oscillator_strength_1>
0.1477

>  <oscillator_strength_2>
0.0218

>  <oscillator_strength_3>
0.0033

>  <oscillator_strength_4>
0.2107

>  <open_babel_can_smiles>
N=C1CCCCC(=N)N1

>  <mulliken_charges>
20
1   -0.265599
2   -0.265414
3   -0.326452
4   -0.326356
5   0.45189
6   0.451621
7   -0.617645
8   -0.61776
9   -0.605458
10   0.146056
11   0.14585
12   0.145966
13   0.145676
14   0.165644
15   0.145998
16   0.165821
17   0.146
18   0.281361
19   0.281398
20   0.351403

>  <lowdin_charges>
20
1   -0.274315
2   -0.272842
3   -0.293869
4   -0.294227
5   0.092546
6   0.090717
7   -0.417916
8   -0.419097
9   -0.23973
10   0.152149
11   0.144459
12   0.150547
13   0.144337
14   0.16012
15   0.156987
16   0.160112
17   0.1579
18   0.24874
19   0.25015
20   0.303232

$$$$

