PCCDB-ID:  28003
public computational chemistry database (PCCDB) project, http://pccdb.org

 38 37  0  0  0  0  0  0  0  0999 V2000
    5.6367   -0.9035    3.2317 C   0  0  0  0  0  0  0  0  0  0  0  0
    4.5537    1.3339    2.8661 C   0  0  0  0  0  0  0  0  0  0  0  0
   11.4974    5.5335    0.1232 C   0  0  0  0  0  0  0  0  0  0  0  0
    9.0242    5.7043    0.3867 C   0  0  0  0  0  0  0  0  0  0  0  0
   12.0374    2.6774    2.2100 C   0  0  0  0  0  0  0  0  0  0  0  0
   11.1300    1.2949    0.2763 C   0  0  0  0  0  0  0  0  0  0  0  0
    9.0274    2.9770    1.5458 C   0  0  0  0  0  0  0  0  0  0  0  0
    7.8951    2.4587    0.6533 C   0  0  0  0  0  0  0  0  0  0  0  0
    5.6647    0.3279    2.7078 C   0  0  0  0  0  0  0  0  0  0  0  0
   10.2864    4.9842    0.8907 C   0  0  0  0  0  0  0  0  0  0  0  0
   11.3705    2.7114    0.8194 C   0  0  0  0  0  0  0  0  0  0  0  0
    6.8830    0.7079    1.9209 C   0  0  0  0  0  0  0  0  0  0  0  0
   10.1316    3.5202    0.7429 N   0  0  0  0  0  0  0  0  0  0  0  0
    7.8404   -0.0165    1.7214 O   0  0  0  0  0  0  0  0  0  0  0  0
    6.7865    1.9712    1.4468 O   0  0  0  0  0  0  0  0  0  0  0  0
    4.7886   -1.2530    3.8138 H   0  0  0  0  0  0  0  0  0  0  0  0
    6.4675   -1.5858    3.0843 H   0  0  0  0  0  0  0  0  0  0  0  0
    3.7347    0.9152    3.4584 H   0  0  0  0  0  0  0  0  0  0  0  0
    4.1566    1.6432    1.8928 H   0  0  0  0  0  0  0  0  0  0  0  0
    4.9107    2.2445    3.3604 H   0  0  0  0  0  0  0  0  0  0  0  0
   11.4623    5.2251   -0.9285 H   0  0  0  0  0  0  0  0  0  0  0  0
   12.4544    5.2147    0.5464 H   0  0  0  0  0  0  0  0  0  0  0  0
   11.4790    6.6282    0.1547 H   0  0  0  0  0  0  0  0  0  0  0  0
    9.1347    6.7876    0.5093 H   0  0  0  0  0  0  0  0  0  0  0  0
    8.1223    5.4076    0.9305 H   0  0  0  0  0  0  0  0  0  0  0  0
    8.8677    5.4892   -0.6768 H   0  0  0  0  0  0  0  0  0  0  0  0
   12.9916    2.1404    2.1592 H   0  0  0  0  0  0  0  0  0  0  0  0
   11.4115    2.1648    2.9496 H   0  0  0  0  0  0  0  0  0  0  0  0
   12.2421    3.6867    2.5858 H   0  0  0  0  0  0  0  0  0  0  0  0
   12.0752    0.7401    0.2488 H   0  0  0  0  0  0  0  0  0  0  0  0
   10.7334    1.3436   -0.7435 H   0  0  0  0  0  0  0  0  0  0  0  0
   10.4270    0.7185    0.8868 H   0  0  0  0  0  0  0  0  0  0  0  0
    9.3672    2.1491    2.1749 H   0  0  0  0  0  0  0  0  0  0  0  0
    8.6260    3.7345    2.2317 H   0  0  0  0  0  0  0  0  0  0  0  0
    8.2563    1.6594    0.0044 H   0  0  0  0  0  0  0  0  0  0  0  0
    7.4713    3.2596    0.0452 H   0  0  0  0  0  0  0  0  0  0  0  0
   10.4189    5.2536    1.9577 H   0  0  0  0  0  0  0  0  0  0  0  0
   12.0770    3.1802    0.1292 H   0  0  0  0  0  0  0  0  0  0  0  0
  1 16  1  0  0  0  0
  2 20  1  0  0  0  0
  2 18  1  0  0  0  0
  3 23  1  0  0  0  0
  3 22  1  0  0  0  0
  3 10  1  0  0  0  0
  4 24  1  0  0  0  0
  4 10  1  0  0  0  0
  4 25  1  0  0  0  0
  5 29  1  0  0  0  0
  5 28  1  0  0  0  0
  6 11  1  0  0  0  0
  6 32  1  0  0  0  0
  7 33  1  0  0  0  0
  7 34  1  0  0  0  0
  8 15  1  0  0  0  0
  8  7  1  0  0  0  0
  9  2  1  0  0  0  0
  9  1  2  0  0  0  0
 10 37  1  0  0  0  0
 11  5  1  0  0  0  0
 12  9  1  0  0  0  0
 13 11  1  0  0  0  0
 13 10  1  0  0  0  0
 13  7  1  0  0  0  0
 14 12  2  0  0  0  0
 15 12  1  0  0  0  0
 17  1  1  0  0  0  0
 19  2  1  0  0  0  0
 21  3  1  0  0  0  0
 26  4  1  0  0  0  0
 27  5  1  0  0  0  0
 30  6  1  0  0  0  0
 31  6  1  0  0  0  0
 35  8  1  0  0  0  0
 36  8  1  0  0  0  0
 38 11  1  0  0  0  0
M  END
>  <HBA>
3

>  <HBD>
0

>  <TPSA>
29.54

>  <cid>
28003

>  <dipole>
1.72

>  <excitation_energy_1>
3.832

>  <excitation_energy_2>
4.801

>  <excitation_energy_3>
5.186

>  <excitation_energy_4>
5.41

>  <homo_energy>
-5.524

>  <homo_lumo_gap>
4.539

>  <logP>
2.224

>  <lumo_energy>
-0.985

>  <melting_point>
-32.65

>  <molecular_refractivity>
63.51

>  <oscillator_strength_1>
0.0059

>  <oscillator_strength_2>
0.0001

>  <oscillator_strength_3>
0.0166

>  <oscillator_strength_4>
0.0055

>  <open_babel_can_smiles>
CC(N(C(C)C)CCOC(=O)C(=C)C)C

>  <mulliken_charges>
38
1   -0.358797
2   -0.502943
3   -0.46943
4   -0.449412
5   -0.45495
6   -0.464919
7   -0.172169
8   -0.039154
9   0.126745
10   0.075292
11   0.037436
12   0.590107
13   -0.401522
14   -0.494146
15   -0.478733
16   0.146543
17   0.177348
18   0.149239
19   0.168721
20   0.166859
21   0.153309
22   0.151767
23   0.14386
24   0.139553
25   0.146104
26   0.14822
27   0.141886
28   0.147557
29   0.143283
30   0.137291
31   0.145924
32   0.176292
33   0.163952
34   0.139875
35   0.172931
36   0.154286
37   0.105758
38   0.136035

>  <lowdin_charges>
38
1   -0.293433
2   -0.439582
3   -0.449138
4   -0.448196
5   -0.465004
6   -0.456733
7   -0.217135
8   -0.143599
9   -0.03332
10   -0.047785
11   -0.061206
12   0.196911
13   -0.195254
14   -0.278962
15   -0.191121
16   0.163321
17   0.180075
18   0.157238
19   0.165406
20   0.164981
21   0.151799
22   0.151327
23   0.15183
24   0.14801
25   0.149853
26   0.149304
27   0.15181
28   0.151014
29   0.147332
30   0.149865
31   0.150617
32   0.162784
33   0.155382
34   0.1436
35   0.162196
36   0.155463
37   0.112983
38   0.147365

$$$$

