PCCDB-ID:  9089
public computational chemistry database (PCCDB) project, http://pccdb.org

 15 16  0  0  0  0  0  0  0  0999 V2000
    1.0301   -0.5859    0.8845 C   0  0  0  0  0  0  0  0  0  0  0  0
    1.2279    0.8643   -0.5775 C   0  0  0  0  0  0  0  0  0  0  0  0
   -1.0299   -0.6012   -0.8734 C   0  0  0  0  0  0  0  0  0  0  0  0
   -1.2280    0.8740    0.5634 C   0  0  0  0  0  0  0  0  0  0  0  0
   -0.0000    0.1377   -0.0008 C   0  0  0  0  0  0  0  0  0  0  0  0
    2.1281    0.1409    0.2902 O   0  0  0  0  0  0  0  0  0  0  0  0
   -2.1281    0.1354   -0.2917 O   0  0  0  0  0  0  0  0  0  0  0  0
    1.1145   -1.6692    0.7200 H   0  0  0  0  0  0  0  0  0  0  0  0
    0.9428   -0.3932    1.9629 H   0  0  0  0  0  0  0  0  0  0  0  0
    1.2622    1.9479   -0.3973 H   0  0  0  0  0  0  0  0  0  0  0  0
    1.4337    0.6714   -1.6397 H   0  0  0  0  0  0  0  0  0  0  0  0
   -1.1141   -1.6816   -0.6902 H   0  0  0  0  0  0  0  0  0  0  0  0
   -0.9427   -0.4272   -1.9550 H   0  0  0  0  0  0  0  0  0  0  0  0
   -1.2625    1.9542    0.3643 H   0  0  0  0  0  0  0  0  0  0  0  0
   -1.4337    0.6994    1.6288 H   0  0  0  0  0  0  0  0  0  0  0  0
  1  9  1  0  0  0  0
  2 10  1  0  0  0  0
  2  5  1  0  0  0  0
  2  6  1  0  0  0  0
  3 12  1  0  0  0  0
  3  7  1  0  0  0  0
  3  5  1  0  0  0  0
  4 15  1  0  0  0  0
  5  4  1  0  0  0  0
  5  1  1  0  0  0  0
  6  1  1  0  0  0  0
  7  4  1  0  0  0  0
  8  1  1  0  0  0  0
 11  2  1  0  0  0  0
 13  3  1  0  0  0  0
 14  4  1  0  0  0  0
M  END
>  <HBA>
2

>  <HBD>
0

>  <TPSA>
18.46

>  <cid>
9089

>  <dipole>
0.0

>  <excitation_energy_1>
6.158

>  <excitation_energy_2>
6.159

>  <excitation_energy_3>
6.39

>  <excitation_energy_4>
6.39

>  <homo_energy>
-6.912

>  <homo_lumo_gap>
8.368

>  <logP>
0.033

>  <lumo_energy>
1.456

>  <melting_point>
20.05

>  <molecular_refractivity>
23.83

>  <oscillator_strength_1>
0.0008

>  <oscillator_strength_2>
0.0008

>  <oscillator_strength_3>
0.0331

>  <oscillator_strength_4>
0.0332

>  <open_babel_can_smiles>
O1CC2(C1)COC2

>  <mulliken_charges>
15
1   -0.017897
2   -0.018046
3   -0.018012
4   -0.018089
5   -0.053179
6   -0.496996
7   -0.496971
8   0.139873
9   0.139901
10   0.139917
11   0.139887
12   0.139892
13   0.139912
14   0.139918
15   0.13989

>  <lowdin_charges>
15
1   -0.117569
2   -0.117567
3   -0.117575
4   -0.117571
5   -0.035893
6   -0.302149
7   -0.302146
8   0.138669
9   0.138844
10   0.138686
11   0.13903
12   0.138731
13   0.138791
14   0.138746
15   0.138973

$$$$

