PCCDB-ID:  12130
public computational chemistry database (PCCDB) project, http://pccdb.org

 23 22  0  0  0  0  0  0  0  0999 V2000
    0.9768    1.6989    1.8894 C   0  0  0  0  0  0  0  0  0  0  0  0
    5.1281   -0.6863   -2.3398 C   0  0  0  0  0  0  0  0  0  0  0  0
    2.2655    1.0820    1.3360 C   0  0  0  0  0  0  0  0  0  0  0  0
    4.8520   -0.3345   -0.8749 C   0  0  0  0  0  0  0  0  0  0  0  0
    3.3948    2.1164    1.2397 C   0  0  0  0  0  0  0  0  0  0  0  0
    4.8698    1.1844   -0.6433 C   0  0  0  0  0  0  0  0  0  0  0  0
    5.6668    1.5627    1.6344 N   0  0  0  0  0  0  0  0  0  0  0  0
    4.6586    1.5780    0.7510 N   0  0  0  0  0  0  0  0  0  0  0  0
    6.7349    1.1384    1.1956 O   0  0  0  0  0  0  0  0  0  0  0  0
    0.1795    0.9512    1.9543 H   0  0  0  0  0  0  0  0  0  0  0  0
    0.6173    2.5142    1.2497 H   0  0  0  0  0  0  0  0  0  0  0  0
    1.1324    2.1087    2.8945 H   0  0  0  0  0  0  0  0  0  0  0  0
    5.1096   -1.7706   -2.4925 H   0  0  0  0  0  0  0  0  0  0  0  0
    6.1131   -0.3230   -2.6560 H   0  0  0  0  0  0  0  0  0  0  0  0
    4.3787   -0.2434   -3.0079 H   0  0  0  0  0  0  0  0  0  0  0  0
    2.0716    0.6504    0.3454 H   0  0  0  0  0  0  0  0  0  0  0  0
    2.5991    0.2580    1.9788 H   0  0  0  0  0  0  0  0  0  0  0  0
    5.6098   -0.7887   -0.2288 H   0  0  0  0  0  0  0  0  0  0  0  0
    3.8805   -0.7415   -0.5680 H   0  0  0  0  0  0  0  0  0  0  0  0
    3.6135    2.5310    2.2285 H   0  0  0  0  0  0  0  0  0  0  0  0
    3.0893    2.9477    0.5884 H   0  0  0  0  0  0  0  0  0  0  0  0
    4.0948    1.6780   -1.2401 H   0  0  0  0  0  0  0  0  0  0  0  0
    5.8458    1.5845   -0.9395 H   0  0  0  0  0  0  0  0  0  0  0  0
  1 10  1  0  0  0  0
  1 12  1  0  0  0  0
  2  4  1  0  0  0  0
  3  1  1  0  0  0  0
  3 17  1  0  0  0  0
  4  6  1  0  0  0  0
  4 19  1  0  0  0  0
  4 18  1  0  0  0  0
  5  3  1  0  0  0  0
  5 20  1  0  0  0  0
  6  8  1  0  0  0  0
  8  5  1  0  0  0  0
  8  7  1  0  0  0  0
  9  7  1  0  0  0  0
 11  1  1  0  0  0  0
 13  2  1  0  0  0  0
 14  2  1  0  0  0  0
 15  2  1  0  0  0  0
 16  3  1  0  0  0  0
 21  5  1  0  0  0  0
 22  6  1  0  0  0  0
 23  6  1  0  0  0  0
M  RAD  2   7   2   9   2
M  END
>  <HBA>
3

>  <HBD>
0

>  <TPSA>
32.67

>  <cid>
12130

>  <dipole>
4.07

>  <excitation_energy_1>
3.381

>  <excitation_energy_2>
5.692

>  <excitation_energy_3>
5.757

>  <excitation_energy_4>
5.94

>  <homo_energy>
-5.921

>  <homo_lumo_gap>
5.233

>  <logP>
1.79

>  <lumo_energy>
-0.688

>  <melting_point>
-4.88

>  <molecular_refractivity>
38.59

>  <oscillator_strength_1>
0.0011

>  <oscillator_strength_2>
0.0146

>  <oscillator_strength_3>
0.1611

>  <oscillator_strength_4>
0.0037

>  <open_babel_can_smiles>
CCCN(CCC)[N][O]

>  <mulliken_charges>
23
1   -0.449704
2   -0.449083
3   -0.258414
4   -0.258844
5   -0.130537
6   -0.138688
7   0.144768
8   -0.220828
9   -0.388659
10   0.154164
11   0.14662
12   0.152031
13   0.151743
14   0.153751
15   0.140242
16   0.143032
17   0.153676
18   0.172321
19   0.139026
20   0.174553
21   0.147283
22   0.144682
23   0.176865

>  <lowdin_charges>
23
1   -0.445336
2   -0.443491
3   -0.283107
4   -0.281121
5   -0.202159
6   -0.215838
7   0.046041
8   -0.037209
9   -0.279507
10   0.157513
11   0.150046
12   0.151244
13   0.153869
14   0.152335
15   0.146679
16   0.143814
17   0.152468
18   0.162018
19   0.142304
20   0.165151
21   0.146283
22   0.151697
23   0.166306

$$$$

