PCCDB-ID:  41529
public computational chemistry database (PCCDB) project, http://pccdb.org

 33 33  0  0  1  0  0  0  0  0999 V2000
    2.4774   -3.1733   -0.5557 C   0  0  0  0  0  0  0  0  0  0  0  0
    2.4254   -0.7794    0.2368 C   0  0  0  0  0  0  0  0  0  0  0  0
    6.2854   -0.3208   -1.5883 C   0  0  0  0  0  0  0  0  0  0  0  0
    5.4970    3.0045   -5.6067 C   0  0  0  0  0  0  0  0  0  0  0  0
    6.3640    1.9110   -5.6135 C   0  0  0  0  0  0  0  0  0  0  0  0
    4.2999    2.9293   -4.8907 C   0  0  0  0  0  0  0  0  0  0  0  0
    6.0407    0.7514   -4.9063 C   0  0  0  0  0  0  0  0  0  0  0  0
    3.9760    1.7677   -4.1904 C   0  0  0  0  0  0  0  0  0  0  0  0
    2.8358   -1.7244   -0.9004 C   0  0  0  0  0  0  0  0  0  0  0  0
    4.7878   -0.4823   -1.8723 C   0  0  1  0  0  0  0  0  0  0  0  0
    4.8443    0.6672   -4.1831 C   0  0  0  0  0  0  0  0  0  0  0  0
    4.4770   -0.5795   -3.3958 C   0  0  1  0  0  0  0  0  0  0  0  0
    4.2847   -1.6448   -1.1322 N   0  0  0  0  0  0  0  0  0  0  0  0
    5.1552   -1.7489   -3.8629 O   0  0  0  0  0  0  0  0  0  0  0  0
    1.4075   -3.2727   -0.3436 H   0  0  0  0  0  0  0  0  0  0  0  0
    3.0377   -3.5025    0.3271 H   0  0  0  0  0  0  0  0  0  0  0  0
    2.7199   -3.8496   -1.3850 H   0  0  0  0  0  0  0  0  0  0  0  0
    1.3444   -0.8329    0.4126 H   0  0  0  0  0  0  0  0  0  0  0  0
    2.6710    0.2642    0.0111 H   0  0  0  0  0  0  0  0  0  0  0  0
    2.9470   -1.0548    1.1601 H   0  0  0  0  0  0  0  0  0  0  0  0
    6.6971    0.5632   -2.0852 H   0  0  0  0  0  0  0  0  0  0  0  0
    6.8397   -1.1975   -1.9387 H   0  0  0  0  0  0  0  0  0  0  0  0
    6.4406   -0.2267   -0.5100 H   0  0  0  0  0  0  0  0  0  0  0  0
    5.7481    3.9063   -6.1587 H   0  0  0  0  0  0  0  0  0  0  0  0
    7.2966    1.9591   -6.1701 H   0  0  0  0  0  0  0  0  0  0  0  0
    3.6137    3.7723   -4.8856 H   0  0  0  0  0  0  0  0  0  0  0  0
    6.7152   -0.0995   -4.9096 H   0  0  0  0  0  0  0  0  0  0  0  0
    3.0347    1.7116   -3.6464 H   0  0  0  0  0  0  0  0  0  0  0  0
    2.2537   -1.4427   -1.8000 H   0  0  0  0  0  0  0  0  0  0  0  0
    4.2639    0.4070   -1.5028 H   0  0  0  0  0  0  0  0  0  0  0  0
    3.3892   -0.7266   -3.4916 H   0  0  0  0  0  0  0  0  0  0  0  0
    4.5962   -2.4780   -1.6295 H   0  0  0  0  0  0  0  0  0  0  0  0
    4.9105   -1.8800   -4.7921 H   0  0  0  0  0  0  0  0  0  0  0  0
  1 15  1  0  0  0  0
  1 16  1  0  0  0  0
  2 18  1  0  0  0  0
  2 20  1  0  0  0  0
  3 23  1  0  0  0  0
  4  6  1  0  0  0  0
  5  4  2  0  0  0  0
  5  7  1  0  0  0  0
  6 26  1  0  0  0  0
  6  8  2  0  0  0  0
  7 11  2  0  0  0  0
  8 11  1  0  0  0  0
  8 28  1  0  0  0  0
  9  1  1  0  0  0  0
  9  2  1  0  0  0  0
 10  3  1  0  0  0  0
 10 30  1  1  0  0  0
 10 13  1  0  0  0  0
 11 12  1  0  0  0  0
 12 31  1  6  0  0  0
 12 10  1  0  0  0  0
 13  9  1  0  0  0  0
 14 12  1  0  0  0  0
 17  1  1  0  0  0  0
 19  2  1  0  0  0  0
 21  3  1  0  0  0  0
 22  3  1  0  0  0  0
 24  4  1  0  0  0  0
 25  5  1  0  0  0  0
 27  7  1  0  0  0  0
 29  9  1  0  0  0  0
 32 13  1  0  0  0  0
 33 14  1  0  0  0  0
M  END
>  <HBA>
2

>  <HBD>
2

>  <TPSA>
32.26

>  <cid>
41529

>  <dipole>
2.06

>  <excitation_energy_1>
4.79

>  <excitation_energy_2>
4.884

>  <excitation_energy_3>
5.013

>  <excitation_energy_4>
5.443

>  <homo_energy>
-5.608

>  <homo_lumo_gap>
5.529

>  <logP>
2.497

>  <lumo_energy>
-0.079

>  <melting_point>
49.63

>  <molecular_refractivity>
59.41

>  <oscillator_strength_1>
0.0479

>  <oscillator_strength_2>
0.0865

>  <oscillator_strength_3>
0.0086

>  <oscillator_strength_4>
0.0014

>  <open_babel_can_smiles>
O[C@H](c1ccccc1)[C@@H](NC(C)C)C

>  <mulliken_charges>
33
1   -0.460846
2   -0.431881
3   -0.44809
4   -0.129123
5   -0.129976
6   -0.131122
7   -0.183919
8   -0.182136
9   0.066556
10   0.031482
11   0.120101
12   0.057249
13   -0.561782
14   -0.637796
15   0.142879
16   0.154835
17   0.139341
18   0.133284
19   0.139861
20   0.151054
21   0.146237
22   0.155058
23   0.151266
24   0.128922
25   0.129842
26   0.129604
27   0.139442
28   0.123511
29   0.100145
30   0.131587
31   0.122916
32   0.306079
33   0.39542

>  <lowdin_charges>
33
1   -0.448099
2   -0.44652
3   -0.45017
4   -0.160879
5   -0.153727
6   -0.155144
7   -0.171777
8   -0.168165
9   -0.055625
10   -0.067341
11   -0.026051
12   -0.018775
13   -0.358359
14   -0.460032
15   0.150109
16   0.154328
17   0.147522
18   0.144388
19   0.1452
20   0.153391
21   0.153688
22   0.155738
23   0.154892
24   0.157756
25   0.157179
26   0.158091
27   0.16353
28   0.153523
29   0.111445
30   0.144231
31   0.130765
32   0.259007
33   0.345881

$$$$

