PCCDB-ID:  59690
public computational chemistry database (PCCDB) project, http://pccdb.org

 25 26  0  0  1  0  0  0  0  0999 V2000
    1.1905   -0.4167   -0.0300 C   0  0  0  0  0  0  0  0  0  0  0  0
    3.1722    2.8855    0.7914 C   0  0  0  0  0  0  0  0  0  0  0  0
    2.5501    1.8915    1.8133 C   0  0  0  0  0  0  0  0  0  0  0  0
    5.0763    1.3087    0.3654 C   0  0  0  0  0  0  0  0  0  0  0  0
    2.9184    1.0790   -0.9122 C   0  0  0  0  0  0  0  0  0  0  0  0
    3.9138    2.0767   -0.2919 C   0  0  1  0  0  0  0  0  0  0  0  0
    2.9819    0.4576    1.4489 C   0  0  2  0  0  0  0  0  0  0  0  0
    4.5187    0.3224    1.4389 C   0  0  1  0  0  0  0  0  0  0  0  0
    2.5608    0.0509    0.0910 N   0  0  0  0  0  0  0  0  0  0  0  0
    4.8761   -1.0249    1.1737 O   0  0  0  0  0  0  0  0  0  0  0  0
    1.0327   -0.8254   -1.0351 H   0  0  0  0  0  0  0  0  0  0  0  0
    0.4334    0.3743    0.1301 H   0  0  0  0  0  0  0  0  0  0  0  0
    1.0068   -1.2193    0.6923 H   0  0  0  0  0  0  0  0  0  0  0  0
    3.8717    3.5716    1.2838 H   0  0  0  0  0  0  0  0  0  0  0  0
    2.3944    3.5050    0.3285 H   0  0  0  0  0  0  0  0  0  0  0  0
    1.4557    1.9560    1.8070 H   0  0  0  0  0  0  0  0  0  0  0  0
    2.8657    2.1202    2.8388 H   0  0  0  0  0  0  0  0  0  0  0  0
    5.7842    2.0177    0.8125 H   0  0  0  0  0  0  0  0  0  0  0  0
    5.6335    0.7242   -0.3755 H   0  0  0  0  0  0  0  0  0  0  0  0
    3.3462    0.5918   -1.8001 H   0  0  0  0  0  0  0  0  0  0  0  0
    2.0219    1.6300   -1.2485 H   0  0  0  0  0  0  0  0  0  0  0  0
    4.2881    2.7444   -1.0772 H   0  0  0  0  0  0  0  0  0  0  0  0
    2.5671   -0.2690    2.1554 H   0  0  0  0  0  0  0  0  0  0  0  0
    4.9222    0.5546    2.4307 H   0  0  0  0  0  0  0  0  0  0  0  0
    4.2523   -1.2860    0.4671 H   0  0  0  0  0  0  0  0  0  0  0  0
  1  9  1  0  0  0  0
  1 12  1  0  0  0  0
  1 13  1  0  0  0  0
  2 14  1  0  0  0  0
  2  3  1  0  0  0  0
  3 17  1  0  0  0  0
  4 18  1  0  0  0  0
  4  8  1  0  0  0  0
  5  6  1  0  0  0  0
  5  9  1  0  0  0  0
  6 22  1  6  0  0  0
  6  4  1  0  0  0  0
  6  2  1  0  0  0  0
  7  3  1  0  0  0  0
  7 23  1  1  0  0  0
  8  7  1  0  0  0  0
  8 24  1  1  0  0  0
  9  7  1  0  0  0  0
 10  8  1  0  0  0  0
 11  1  1  0  0  0  0
 15  2  1  0  0  0  0
 16  3  1  0  0  0  0
 19  4  1  0  0  0  0
 20  5  1  0  0  0  0
 21  5  1  0  0  0  0
 25 10  1  0  0  0  0
M  END
>  <HBA>
2

>  <HBD>
1

>  <TPSA>
23.47

>  <cid>
59690

>  <dipole>
2.61

>  <excitation_energy_1>
5.094

>  <excitation_energy_2>
5.619

>  <excitation_energy_3>
5.689

>  <excitation_energy_4>
5.748

>  <homo_energy>
-5.763

>  <homo_lumo_gap>
7.546

>  <logP>
0.399

>  <lumo_energy>
1.782

>  <melting_point>
38.52

>  <molecular_refractivity>
44.31

>  <oscillator_strength_1>
0.0077

>  <oscillator_strength_2>
0.0041

>  <oscillator_strength_3>
0.008

>  <oscillator_strength_4>
0.0345

>  <open_babel_can_smiles>
CN1C[C@H]2CC[C@@H]1[C@H](C2)O

>  <mulliken_charges>
25
1   -0.29847
2   -0.272226
3   -0.277308
4   -0.289886
5   -0.115848
6   -0.113331
7   -0.010413
8   0.165491
9   -0.41954
10   -0.648068
11   0.152357
12   0.123412
13   0.151729
14   0.135613
15   0.134087
16   0.140071
17   0.138967
18   0.132771
19   0.146155
20   0.137022
21   0.118608
22   0.122926
23   0.130062
24   0.125257
25   0.390561

>  <lowdin_charges>
25
1   -0.35701
2   -0.286202
3   -0.29455
4   -0.302185
5   -0.203167
6   -0.138585
7   -0.088152
8   -0.012342
9   -0.196019
10   -0.47094
11   0.150335
12   0.123484
13   0.151986
14   0.145647
15   0.144623
16   0.145088
17   0.147599
18   0.14696
19   0.155215
20   0.140069
21   0.12859
22   0.146871
23   0.14951
24   0.139297
25   0.333878

$$$$

