PCCDB-ID:  11463
public computational chemistry database (PCCDB) project, http://pccdb.org

 26 26  0  0  0  0  0  0  0  0999 V2000
    0.9706    0.3909   -0.3817 C   0  0  0  0  0  0  0  0  0  0  0  0
    3.0648    1.4002    0.5451 C   0  0  0  0  0  0  0  0  0  0  0  0
    5.5367   -3.4045   -3.0559 C   0  0  0  0  0  0  0  0  0  0  0  0
    3.3803   -2.9464   -1.8850 C   0  0  0  0  0  0  0  0  0  0  0  0
    5.3541   -1.5931   -1.2390 C   0  0  0  0  0  0  0  0  0  0  0  0
    2.4541   -2.2121   -0.9400 C   0  0  0  0  0  0  0  0  0  0  0  0
    4.5482   -1.2372    0.0244 C   0  0  0  0  0  0  0  0  0  0  0  0
    2.4359    0.1689   -0.0715 C   0  0  0  0  0  0  0  0  0  0  0  0
    4.6789   -2.6715   -2.0576 C   0  0  0  0  0  0  0  0  0  0  0  0
    3.0919   -0.9857   -0.3062 C   0  0  0  0  0  0  0  0  0  0  0  0
    0.8468    1.2006   -1.1153 H   0  0  0  0  0  0  0  0  0  0  0  0
    0.4363    0.7141    0.5230 H   0  0  0  0  0  0  0  0  0  0  0  0
    0.4550   -0.4901   -0.7670 H   0  0  0  0  0  0  0  0  0  0  0  0
    2.5682    1.6553    1.4923 H   0  0  0  0  0  0  0  0  0  0  0  0
    2.9279    2.2683   -0.1153 H   0  0  0  0  0  0  0  0  0  0  0  0
    4.1327    1.3061    0.7471 H   0  0  0  0  0  0  0  0  0  0  0  0
    4.9605   -4.1413   -3.6251 H   0  0  0  0  0  0  0  0  0  0  0  0
    6.3665   -3.9285   -2.5606 H   0  0  0  0  0  0  0  0  0  0  0  0
    5.9948   -2.7071   -3.7718 H   0  0  0  0  0  0  0  0  0  0  0  0
    2.9221   -3.7436   -2.4713 H   0  0  0  0  0  0  0  0  0  0  0  0
    6.3633   -1.9235   -0.9525 H   0  0  0  0  0  0  0  0  0  0  0  0
    5.4991   -0.6934   -1.8573 H   0  0  0  0  0  0  0  0  0  0  0  0
    2.1243   -2.9122   -0.1511 H   0  0  0  0  0  0  0  0  0  0  0  0
    1.5433   -1.9524   -1.4897 H   0  0  0  0  0  0  0  0  0  0  0  0
    5.0171   -0.3969    0.5399 H   0  0  0  0  0  0  0  0  0  0  0  0
    4.6039   -2.0963    0.7110 H   0  0  0  0  0  0  0  0  0  0  0  0
  1  8  1  0  0  0  0
  1 12  1  0  0  0  0
  2 16  1  0  0  0  0
  2 14  1  0  0  0  0
  3 18  1  0  0  0  0
  3  9  1  0  0  0  0
  4  6  1  0  0  0  0
  5 21  1  0  0  0  0
  5  7  1  0  0  0  0
  6 10  1  0  0  0  0
  6 23  1  0  0  0  0
  7 25  1  0  0  0  0
  7 26  1  0  0  0  0
  8  2  1  0  0  0  0
  9  4  2  0  0  0  0
  9  5  1  0  0  0  0
 10  8  2  0  0  0  0
 10  7  1  0  0  0  0
 11  1  1  0  0  0  0
 13  1  1  0  0  0  0
 15  2  1  0  0  0  0
 17  3  1  0  0  0  0
 19  3  1  0  0  0  0
 20  4  1  0  0  0  0
 22  5  1  0  0  0  0
 24  6  1  0  0  0  0
M  END
>  <HBA>
0

>  <HBD>
0

>  <TPSA>
0.0

>  <cid>
11463

>  <dipole>
0.18

>  <excitation_energy_1>
5.356

>  <excitation_energy_2>
5.538

>  <excitation_energy_3>
5.805

>  <excitation_energy_4>
5.847

>  <homo_energy>
-5.878

>  <homo_lumo_gap>
6.773

>  <logP>
3.453

>  <lumo_energy>
0.895

>  <melting_point>
23.2

>  <molecular_refractivity>
47.12

>  <oscillator_strength_1>
0.0217

>  <oscillator_strength_2>
0.001

>  <oscillator_strength_3>
0.1003

>  <oscillator_strength_4>
0.0483

>  <open_babel_can_smiles>
CC1=CCC(=C(C)C)CC1

>  <mulliken_charges>
26
1   -0.508545
2   -0.508771
3   -0.514102
4   -0.172116
5   -0.318447
6   -0.36162
7   -0.339097
8   0.099284
9   0.189039
10   0.122198
11   0.149219
12   0.148353
13   0.151739
14   0.148631
15   0.148249
16   0.152283
17   0.150306
18   0.148743
19   0.150038
20   0.110034
21   0.132923
22   0.145846
23   0.149291
24   0.148319
25   0.135424
26   0.142778

>  <lowdin_charges>
26
1   -0.446212
2   -0.442528
3   -0.441927
4   -0.194803
5   -0.273234
6   -0.275517
7   -0.274155
8   -0.027551
9   -0.018785
10   -0.033173
11   0.153327
12   0.153333
13   0.154997
14   0.152288
15   0.15283
16   0.152159
17   0.155504
18   0.153104
19   0.154424
20   0.147302
21   0.144025
22   0.149177
23   0.153451
24   0.155129
25   0.14884
26   0.147996

$$$$

