PCCDB-ID:  43007
public computational chemistry database (PCCDB) project, http://pccdb.org

 25 26  0  0  0  0  0  0  0  0999 V2000
   -2.2694    1.0005   -0.0937 C   0  0  0  0  0  0  0  0  0  0  0  0
   -1.0511    1.6571   -0.0088 C   0  0  0  0  0  0  0  0  0  0  0  0
    1.8548   -2.8937   -1.4848 C   0  0  0  0  0  0  0  0  0  0  0  0
    1.8250   -2.3482   -0.0486 C   0  0  0  0  0  0  0  0  0  0  0  0
   -1.1724   -1.2097   -0.1165 C   0  0  0  0  0  0  0  0  0  0  0  0
    2.1200    0.1655    0.1064 C   0  0  0  0  0  0  0  0  0  0  0  0
   -2.3097   -0.4062   -0.1453 C   0  0  0  0  0  0  0  0  0  0  0  0
    0.1211    0.8870    0.0214 C   0  0  0  0  0  0  0  0  0  0  0  0
    0.0382   -0.5303   -0.0337 C   0  0  0  0  0  0  0  0  0  0  0  0
    2.3190   -4.2798   -1.4560 N   0  0  0  0  0  0  0  0  0  0  0  0
    1.4411    1.2877    0.1084 N   0  0  0  0  0  0  0  0  0  0  0  0
    1.3517   -0.9715    0.0283 N   0  0  0  0  0  0  0  0  0  0  0  0
   -3.6159   -1.0682   -0.2360 N   0  0  0  0  0  0  0  0  0  0  0  0
   -4.6224   -0.3585   -0.2552 O   0  0  0  0  0  0  0  0  0  0  0  0
   -3.6343   -2.3003   -0.2887 O   0  0  0  0  0  0  0  0  0  0  0  0
   -3.2043    1.5453   -0.1210 H   0  0  0  0  0  0  0  0  0  0  0  0
   -0.9950    2.7397    0.0353 H   0  0  0  0  0  0  0  0  0  0  0  0
    2.4554   -2.2126   -2.1127 H   0  0  0  0  0  0  0  0  0  0  0  0
    0.8370   -2.8810   -1.8894 H   0  0  0  0  0  0  0  0  0  0  0  0
    2.8294   -2.3760    0.3883 H   0  0  0  0  0  0  0  0  0  0  0  0
    1.1859   -2.9840    0.5709 H   0  0  0  0  0  0  0  0  0  0  0  0
   -1.2642   -2.2878   -0.1574 H   0  0  0  0  0  0  0  0  0  0  0  0
    3.2000    0.0968    0.1674 H   0  0  0  0  0  0  0  0  0  0  0  0
    3.3316   -4.3143   -1.3515 H   0  0  0  0  0  0  0  0  0  0  0  0
    2.1053   -4.7418   -2.3366 H   0  0  0  0  0  0  0  0  0  0  0  0
  1  2  2  0  0  0  0
  2  8  1  0  0  0  0
  2 17  1  0  0  0  0
  3 10  1  0  0  0  0
  3  4  1  0  0  0  0
  4 12  1  0  0  0  0
  4 20  1  0  0  0  0
  4 21  1  0  0  0  0
  5  9  1  0  0  0  0
  6 11  2  0  0  0  0
  6 23  1  0  0  0  0
  7  5  2  0  0  0  0
  7  1  1  0  0  0  0
  8 11  1  0  0  0  0
  9  8  2  0  0  0  0
  9 12  1  0  0  0  0
 10 24  1  0  0  0  0
 12  6  1  0  0  0  0
 13  7  1  0  0  0  0
 14 13  2  0  0  0  0
 15 13  2  0  0  0  0
 16  1  1  0  0  0  0
 18  3  1  0  0  0  0
 19  3  1  0  0  0  0
 22  5  1  0  0  0  0
 25 10  1  0  0  0  0
M  END
>  <HBA>
3

>  <HBD>
1

>  <TPSA>
89.66

>  <cid>
43007

>  <dipole>
6.61

>  <excitation_energy_1>
3.668

>  <excitation_energy_2>
3.737

>  <excitation_energy_3>
4.069

>  <excitation_energy_4>
4.297

>  <homo_energy>
-6.675

>  <homo_lumo_gap>
4.435

>  <logP>
2.127

>  <lumo_energy>
-2.24

>  <melting_point>
159.71

>  <molecular_refractivity>
57.33

>  <oscillator_strength_1>
0.0359

>  <oscillator_strength_2>
0.0

>  <oscillator_strength_3>
0.2552

>  <oscillator_strength_4>
0.0005

>  <open_babel_can_smiles>
NCCn1cnc2c1cc(cc2)N(=O)=O

>  <mulliken_charges>
25
1   -0.173784
2   -0.178296
3   -0.146423
4   -0.152975
5   -0.2034
6   0.220531
7   0.259758
8   0.24495
9   0.326516
10   -0.716472
11   -0.501335
12   -0.502811
13   0.379194
14   -0.401206
15   -0.403931
16   0.179021
17   0.156805
18   0.133842
19   0.16417
20   0.160854
21   0.187494
22   0.186352
23   0.166281
24   0.301977
25   0.312889

>  <lowdin_charges>
25
1   -0.155428
2   -0.145338
3   -0.213313
4   -0.198444
5   -0.1632
6   -0.051638
7   -0.002836
8   0.025438
9   0.012367
10   -0.550329
11   -0.185558
12   -0.023106
13   0.307091
14   -0.250867
15   -0.257322
16   0.187362
17   0.17397
18   0.130028
19   0.154047
20   0.158185
21   0.171462
22   0.18759
23   0.169054
24   0.255131
25   0.265653

$$$$

