PCCDB-ID:  38236
public computational chemistry database (PCCDB) project, http://pccdb.org

 17 16  0  0  0  0  0  0  0  0999 V2000
    0.8999   -0.1993    2.0950 C   0  0  0  0  0  0  0  0  0  0  0  0
    1.6285   -1.0940    1.0965 C   0  0  0  0  0  0  0  0  0  0  0  0
    2.7911   -0.8961   -1.0539 C   0  0  0  0  0  0  0  0  0  0  0  0
    3.0468   -2.1268   -1.3002 N   0  0  0  0  0  0  0  0  0  0  0  0
    2.0593   -0.3193   -0.0600 N   0  0  0  0  0  0  0  0  0  0  0  0
    3.2822   -0.0110   -2.0717 N   0  0  0  0  0  0  0  0  0  0  0  0
    3.7975    1.2566   -1.8689 N   0  0  0  0  0  0  0  0  0  0  0  0
    3.4029    1.9063   -0.8967 O   0  0  0  0  0  0  0  0  0  0  0  0
    4.5756    1.6504   -2.7285 O   0  0  0  0  0  0  0  0  0  0  0  0
    0.5647   -0.7882    2.9541 H   0  0  0  0  0  0  0  0  0  0  0  0
    0.0220    0.2669    1.6356 H   0  0  0  0  0  0  0  0  0  0  0  0
    1.5575    0.5944    2.4681 H   0  0  0  0  0  0  0  0  0  0  0  0
    0.9570   -1.8938    0.7569 H   0  0  0  0  0  0  0  0  0  0  0  0
    2.4903   -1.5806    1.5796 H   0  0  0  0  0  0  0  0  0  0  0  0
    2.6133   -2.7488   -0.6193 H   0  0  0  0  0  0  0  0  0  0  0  0
    2.1803    0.6812    0.0488 H   0  0  0  0  0  0  0  0  0  0  0  0
    3.8229   -0.4973   -2.7798 H   0  0  0  0  0  0  0  0  0  0  0  0
  1 12  1  0  0  0  0
  1 10  1  0  0  0  0
  2 14  1  0  0  0  0
  2  1  1  0  0  0  0
  3  5  1  0  0  0  0
  4  3  2  0  0  0  0
  4 15  1  0  0  0  0
  5 16  1  0  0  0  0
  5  2  1  0  0  0  0
  6  7  1  0  0  0  0
  6  3  1  0  0  0  0
  7  8  2  0  0  0  0
  9  7  2  0  0  0  0
 11  1  1  0  0  0  0
 13  2  1  0  0  0  0
 17  6  1  0  0  0  0
M  END
>  <HBA>
3

>  <HBD>
2

>  <TPSA>
96.23

>  <cid>
38236

>  <dipole>
3.84

>  <excitation_energy_1>
3.972

>  <excitation_energy_2>
4.532

>  <excitation_energy_3>
5.062

>  <excitation_energy_4>
5.351

>  <homo_energy>
-6.705

>  <homo_lumo_gap>
4.871

>  <logP>
0.717

>  <lumo_energy>
-1.834

>  <melting_point>
105.48

>  <molecular_refractivity>
33.83

>  <oscillator_strength_1>
0.0108

>  <oscillator_strength_2>
0.001

>  <oscillator_strength_3>
0.0255

>  <oscillator_strength_4>
0.0651

>  <open_babel_can_smiles>
CCNC(=N)NN(=O)=O

>  <mulliken_charges>
17
1   -0.478099
2   -0.118144
3   0.650772
4   -0.657677
5   -0.613697
6   -0.442693
7   0.626232
8   -0.426674
9   -0.389529
10   0.163697
11   0.168308
12   0.162941
13   0.158274
14   0.15513
15   0.297125
16   0.369273
17   0.374761

>  <lowdin_charges>
17
1   -0.450103
2   -0.192531
3   0.12881
4   -0.459889
5   -0.295948
6   -0.208027
7   0.347808
8   -0.275271
9   -0.247811
10   0.164758
11   0.161191
12   0.158431
13   0.149086
14   0.143649
15   0.264793
16   0.295409
17   0.315647

$$$$

