PCCDB-ID:  31215
public computational chemistry database (PCCDB) project, http://pccdb.org

 25 24  0  0  0  0  0  0  0  0999 V2000
    1.1768   -0.6640    1.3381 C   0  0  0  0  0  0  0  0  0  0  0  0
    5.5005    2.0497   -2.5091 C   0  0  0  0  0  0  0  0  0  0  0  0
    5.9091    2.4545    3.8416 C   0  0  0  0  0  0  0  0  0  0  0  0
    2.5736   -0.3365    1.8375 C   0  0  0  0  0  0  0  0  0  0  0  0
    4.7368    1.6962   -1.2451 C   0  0  0  0  0  0  0  0  0  0  0  0
    6.2756    1.7895    2.5243 C   0  0  0  0  0  0  0  0  0  0  0  0
    3.3771    0.0353    0.7082 O   0  0  0  0  0  0  0  0  0  0  0  0
    5.4114    0.5863   -0.6061 O   0  0  0  0  0  0  0  0  0  0  0  0
    5.0698    1.4766    1.8117 O   0  0  0  0  0  0  0  0  0  0  0  0
    5.0223    0.0757    0.8987 P   0  0  0  0  0  0  0  0  0  0  0  0
    0.5250   -0.9363    2.1759 H   0  0  0  0  0  0  0  0  0  0  0  0
    1.2076   -1.5011    0.6332 H   0  0  0  0  0  0  0  0  0  0  0  0
    0.7407    0.2006    0.8270 H   0  0  0  0  0  0  0  0  0  0  0  0
    5.0115    2.8859   -3.0223 H   0  0  0  0  0  0  0  0  0  0  0  0
    5.5333    1.1955   -3.1932 H   0  0  0  0  0  0  0  0  0  0  0  0
    6.5297    2.3409   -2.2746 H   0  0  0  0  0  0  0  0  0  0  0  0
    6.8131    2.7356    4.3943 H   0  0  0  0  0  0  0  0  0  0  0  0
    5.3175    1.7759    4.4649 H   0  0  0  0  0  0  0  0  0  0  0  0
    5.3182    3.3587    3.6622 H   0  0  0  0  0  0  0  0  0  0  0  0
    3.0157   -1.2066    2.3460 H   0  0  0  0  0  0  0  0  0  0  0  0
    2.5542    0.4946    2.5532 H   0  0  0  0  0  0  0  0  0  0  0  0
    3.7085    1.3971   -1.4699 H   0  0  0  0  0  0  0  0  0  0  0  0
    4.7029    2.5415   -0.5490 H   0  0  0  0  0  0  0  0  0  0  0  0
    6.8645    0.8774    2.7002 H   0  0  0  0  0  0  0  0  0  0  0  0
    6.8875    2.4621    1.9089 H   0  0  0  0  0  0  0  0  0  0  0  0
  1  4  1  0  0  0  0
  1 11  1  0  0  0  0
  2 16  1  0  0  0  0
  2  5  1  0  0  0  0
  3 17  1  0  0  0  0
  3 18  1  0  0  0  0
  4 20  1  0  0  0  0
  4 21  1  0  0  0  0
  5  8  1  0  0  0  0
  5 23  1  0  0  0  0
  6 24  1  0  0  0  0
  6  3  1  0  0  0  0
  7 10  1  0  0  0  0
  7  4  1  0  0  0  0
  8 10  1  0  0  0  0
  9  6  1  0  0  0  0
 10  9  1  0  0  0  0
 12  1  1  0  0  0  0
 13  1  1  0  0  0  0
 14  2  1  0  0  0  0
 15  2  1  0  0  0  0
 19  3  1  0  0  0  0
 22  5  1  0  0  0  0
 25  6  1  0  0  0  0
M  END
>  <HBA>
3

>  <HBD>
0

>  <TPSA>
41.28

>  <cid>
31215

>  <dipole>
1.58

>  <excitation_energy_1>
6.124

>  <excitation_energy_2>
6.249

>  <excitation_energy_3>
6.471

>  <excitation_energy_4>
6.645

>  <homo_energy>
-6.463

>  <homo_lumo_gap>
7.538

>  <logP>
2.323

>  <lumo_energy>
1.075

>  <melting_point>
-57.66

>  <molecular_refractivity>
42.19

>  <oscillator_strength_1>
0.0777

>  <oscillator_strength_2>
0.0714

>  <oscillator_strength_3>
0.0276

>  <oscillator_strength_4>
0.0901

>  <open_babel_can_smiles>
CCOP(OCC)OCC

>  <mulliken_charges>
25
1   -0.449803
2   -0.450857
3   -0.445744
4   -0.027984
5   -0.038044
6   -0.031626
7   -0.568169
8   -0.543703
9   -0.580521
10   0.883697
11   0.143379
12   0.160072
13   0.159551
14   0.142846
15   0.160059
16   0.15523
17   0.143731
18   0.154301
19   0.15946
20   0.135248
21   0.149818
22   0.157485
23   0.15
24   0.139806
25   0.141767

>  <lowdin_charges>
25
1   -0.450086
2   -0.448393
3   -0.451953
4   -0.126679
5   -0.128099
6   -0.128648
7   -0.42985
8   -0.412004
9   -0.439075
10   0.747563
11   0.154853
12   0.158258
13   0.158463
14   0.154746
15   0.158201
16   0.154351
17   0.154518
18   0.156122
19   0.157716
20   0.138615
21   0.144021
22   0.148626
23   0.146804
24   0.141096
25   0.140835

$$$$

