PCCDB-ID:  7626
public computational chemistry database (PCCDB) project, http://pccdb.org

 18 18  0  0  0  0  0  0  0  0999 V2000
   -1.6651    0.0253    0.1626 C   0  0  0  0  0  0  0  0  0  0  0  0
   -0.9681    1.1888   -0.1816 C   0  0  0  0  0  0  0  0  0  0  0  0
   -0.9719   -1.1725    0.3412 C   0  0  0  0  0  0  0  0  0  0  0  0
    0.4117    1.1563   -0.3459 C   0  0  0  0  0  0  0  0  0  0  0  0
    0.4109   -1.2061    0.1766 C   0  0  0  0  0  0  0  0  0  0  0  0
    2.5744   -0.1447   -0.3253 C   0  0  0  0  0  0  0  0  0  0  0  0
    3.4220    0.8439   -0.6446 C   0  0  0  0  0  0  0  0  0  0  0  0
    1.1266   -0.0448   -0.1680 C   0  0  0  0  0  0  0  0  0  0  0  0
    4.8454    0.5880   -0.7592 N   0  0  0  0  0  0  0  0  0  0  0  0
    5.2734   -0.5529   -0.5678 O   0  0  0  0  0  0  0  0  0  0  0  0
    5.5438    1.5641   -1.0491 O   0  0  0  0  0  0  0  0  0  0  0  0
   -2.7436    0.0554    0.2897 H   0  0  0  0  0  0  0  0  0  0  0  0
   -1.5050    2.1226   -0.3222 H   0  0  0  0  0  0  0  0  0  0  0  0
   -1.5066   -2.0791    0.6094 H   0  0  0  0  0  0  0  0  0  0  0  0
    0.9382    2.0678   -0.6126 H   0  0  0  0  0  0  0  0  0  0  0  0
    0.9511   -2.1390    0.3165 H   0  0  0  0  0  0  0  0  0  0  0  0
    3.0197   -1.1238   -0.1646 H   0  0  0  0  0  0  0  0  0  0  0  0
    3.1855    1.8798   -0.8416 H   0  0  0  0  0  0  0  0  0  0  0  0
  1 12  1  0  0  0  0
  1  3  2  0  0  0  0
  2  1  1  0  0  0  0
  3 14  1  0  0  0  0
  4  2  2  0  0  0  0
  4  8  1  0  0  0  0
  5 16  1  0  0  0  0
  5  3  1  0  0  0  0
  6  8  1  0  0  0  0
  6 17  1  0  0  0  0
  7  6  2  0  0  0  0
  8  5  2  0  0  0  0
  9  7  1  0  0  0  0
  9 10  2  0  0  0  0
 11  9  2  0  0  0  0
 13  2  1  0  0  0  0
 15  4  1  0  0  0  0
 18  7  1  0  0  0  0
M  END
>  <HBA>
0

>  <HBD>
0

>  <TPSA>
45.82

>  <cid>
7626

>  <dipole>
5.87

>  <excitation_energy_1>
3.574

>  <excitation_energy_2>
3.961

>  <excitation_energy_3>
4.099

>  <excitation_energy_4>
4.111

>  <homo_energy>
-6.944

>  <homo_lumo_gap>
4.313

>  <logP>
2.457

>  <lumo_energy>
-2.631

>  <melting_point>
57.59

>  <molecular_refractivity>
44.64

>  <oscillator_strength_1>
0.0

>  <oscillator_strength_2>
0.521

>  <oscillator_strength_3>
0.0003

>  <oscillator_strength_4>
0.0481

>  <open_babel_can_smiles>
O=N(=O)/C=C/c1ccccc1

>  <mulliken_charges>
18
1   -0.120313
2   -0.130312
3   -0.130639
4   -0.168303
5   -0.183721
6   -0.165409
7   -8e-05
8   0.170378
9   0.437121
10   -0.408685
11   -0.393497
12   0.1447
13   0.144705
14   0.144958
15   0.14158
16   0.147465
17   0.192314
18   0.177738

>  <lowdin_charges>
18
1   -0.135371
2   -0.149179
3   -0.151427
4   -0.1429
5   -0.143316
6   -0.102879
7   -0.149266
8   -0.007613
9   0.30826
10   -0.263712
11   -0.256058
12   0.163263
13   0.165368
14   0.16599
15   0.163755
16   0.165631
17   0.188057
18   0.181397

$$$$

