PCCDB-ID:  12141
public computational chemistry database (PCCDB) project, http://pccdb.org

 23 23  0  0  0  0  0  0  0  0999 V2000
   -2.6748    1.6289    1.8853 C   0  0  0  0  0  0  0  0  0  0  0  0
   -2.3403    1.4335    0.5447 C   0  0  0  0  0  0  0  0  0  0  0  0
   -1.8927    1.0448    2.8841 C   0  0  0  0  0  0  0  0  0  0  0  0
   -1.2309    0.6564    0.2074 C   0  0  0  0  0  0  0  0  0  0  0  0
   -0.7786    0.2765    2.5460 C   0  0  0  0  0  0  0  0  0  0  0  0
    2.1013   -3.7328    2.4521 C   0  0  0  0  0  0  0  0  0  0  0  0
    2.1572   -2.5421    1.5072 C   0  0  0  0  0  0  0  0  0  0  0  0
    0.7930   -0.7168    0.8280 C   0  0  0  0  0  0  0  0  0  0  0  0
   -0.4374    0.0764    1.2029 C   0  0  0  0  0  0  0  0  0  0  0  0
    0.9525   -4.5252    2.2105 O   0  0  0  0  0  0  0  0  0  0  0  0
    0.9773   -1.7858    1.7427 O   0  0  0  0  0  0  0  0  0  0  0  0
   -3.5423    2.2274    2.1504 H   0  0  0  0  0  0  0  0  0  0  0  0
   -2.9477    1.8765   -0.2402 H   0  0  0  0  0  0  0  0  0  0  0  0
   -2.1503    1.1881    3.9304 H   0  0  0  0  0  0  0  0  0  0  0  0
   -0.9822    0.4971   -0.8398 H   0  0  0  0  0  0  0  0  0  0  0  0
   -0.1733   -0.1844    3.3201 H   0  0  0  0  0  0  0  0  0  0  0  0
    2.1291   -3.3683    3.4921 H   0  0  0  0  0  0  0  0  0  0  0  0
    2.9751   -4.3740    2.2955 H   0  0  0  0  0  0  0  0  0  0  0  0
    2.1806   -2.8936    0.4634 H   0  0  0  0  0  0  0  0  0  0  0  0
    3.0580   -1.9319    1.6877 H   0  0  0  0  0  0  0  0  0  0  0  0
    1.6857   -0.0664    0.8430 H   0  0  0  0  0  0  0  0  0  0  0  0
    0.6996   -1.1041   -0.1998 H   0  0  0  0  0  0  0  0  0  0  0  0
    0.2075   -3.9010    2.1963 H   0  0  0  0  0  0  0  0  0  0  0  0
  1 12  1  0  0  0  0
  1  3  2  0  0  0  0
  2  1  1  0  0  0  0
  3 14  1  0  0  0  0
  4  2  2  0  0  0  0
  4  9  1  0  0  0  0
  5  3  1  0  0  0  0
  5 16  1  0  0  0  0
  6 17  1  0  0  0  0
  7 20  1  0  0  0  0
  7 11  1  0  0  0  0
  7  6  1  0  0  0  0
  8 21  1  0  0  0  0
  8  9  1  0  0  0  0
  8 11  1  0  0  0  0
  9  5  2  0  0  0  0
 10  6  1  0  0  0  0
 13  2  1  0  0  0  0
 15  4  1  0  0  0  0
 18  6  1  0  0  0  0
 19  7  1  0  0  0  0
 22  8  1  0  0  0  0
 23 10  1  0  0  0  0
M  END
>  <HBA>
2

>  <HBD>
1

>  <TPSA>
29.46

>  <cid>
12141

>  <dipole>
2.26

>  <excitation_energy_1>
5.292

>  <excitation_energy_2>
5.855

>  <excitation_energy_3>
6.174

>  <excitation_energy_4>
6.278

>  <homo_energy>
-6.618

>  <homo_lumo_gap>
6.523

>  <logP>
1.196

>  <lumo_energy>
-0.095

>  <melting_point>
15.49

>  <molecular_refractivity>
43.27

>  <oscillator_strength_1>
0.0001

>  <oscillator_strength_2>
0.0375

>  <oscillator_strength_3>
0.006

>  <oscillator_strength_4>
0.0401

>  <open_babel_can_smiles>
OCCOCc1ccccc1

>  <mulliken_charges>
23
1   -0.127443
2   -0.12901
3   -0.131858
4   -0.180773
5   -0.163354
6   -0.034455
7   -0.031662
8   -0.074431
9   0.126682
10   -0.621171
11   -0.492109
12   0.129746
13   0.130262
14   0.130788
15   0.123664
16   0.14067
17   0.129684
18   0.145279
19   0.132759
20   0.12248
21   0.139023
22   0.13348
23   0.401747

>  <lowdin_charges>
23
1   -0.157352
2   -0.156355
3   -0.152419
4   -0.164757
5   -0.158937
6   -0.138581
7   -0.147782
8   -0.123121
9   -0.014517
10   -0.468159
11   -0.278116
12   0.158125
13   0.159258
14   0.156679
15   0.153363
16   0.16554
17   0.13054
18   0.150984
19   0.133272
20   0.132565
21   0.13863
22   0.135134
23   0.346004

$$$$

