PCCDB-ID:  27053
public computational chemistry database (PCCDB) project, http://pccdb.org

 21 21  0  0  1  0  0  0  0  0999 V2000
    1.5107   -1.1902    0.4856 C   0  0  0  0  0  0  0  0  0  0  0  0
    5.4767   -1.2447   -0.4504 C   0  0  0  0  0  0  0  0  0  0  0  0
    4.9169   -1.4926   -2.9138 C   0  0  0  0  0  0  0  0  0  0  0  0
    2.0537   -0.4326   -2.3659 C   0  0  0  0  0  0  0  0  0  0  0  0
    2.6774   -0.2857    0.1176 C   0  0  0  0  0  0  0  0  0  0  0  0
    4.5553   -0.8443   -1.5889 C   0  0  0  0  0  0  0  0  0  0  0  0
    3.1627   -0.3437   -1.3272 C   0  0  1  0  0  0  0  0  0  0  0  0
    3.2021    0.4361    0.9423 O   0  0  0  0  0  0  0  0  0  0  0  0
    4.2329    0.5543   -1.6402 O   0  0  0  0  0  0  0  0  0  0  0  0
    0.5826   -0.8384    0.0188 H   0  0  0  0  0  0  0  0  0  0  0  0
    1.3865   -1.1830    1.5702 H   0  0  0  0  0  0  0  0  0  0  0  0
    1.6774   -2.2166    0.1364 H   0  0  0  0  0  0  0  0  0  0  0  0
    5.4342   -2.3270   -0.2768 H   0  0  0  0  0  0  0  0  0  0  0  0
    5.2274   -0.7197    0.4717 H   0  0  0  0  0  0  0  0  0  0  0  0
    6.5095   -0.9922   -0.7181 H   0  0  0  0  0  0  0  0  0  0  0  0
    4.8460   -2.5843   -2.8405 H   0  0  0  0  0  0  0  0  0  0  0  0
    5.9546   -1.2443   -3.1663 H   0  0  0  0  0  0  0  0  0  0  0  0
    4.2851   -1.1565   -3.7370 H   0  0  0  0  0  0  0  0  0  0  0  0
    1.5325   -1.3954   -2.3265 H   0  0  0  0  0  0  0  0  0  0  0  0
    2.4531   -0.2955   -3.3712 H   0  0  0  0  0  0  0  0  0  0  0  0
    1.3138    0.3591   -2.1980 H   0  0  0  0  0  0  0  0  0  0  0  0
  1 11  1  0  0  0  0
  2 13  1  0  0  0  0
  2 14  1  0  0  0  0
  3 16  1  0  0  0  0
  3  6  1  0  0  0  0
  4 19  1  0  0  0  0
  4 21  1  0  0  0  0
  4  7  1  0  0  0  0
  5  1  1  0  0  0  0
  5  8  2  0  0  0  0
  6  7  1  0  0  0  0
  6  2  1  0  0  0  0
  7  5  1  1  0  0  0
  9  6  1  0  0  0  0
  9  7  1  0  0  0  0
 10  1  1  0  0  0  0
 12  1  1  0  0  0  0
 15  2  1  0  0  0  0
 17  3  1  0  0  0  0
 18  3  1  0  0  0  0
 20  4  1  0  0  0  0
M  END
>  <HBA>
2

>  <HBD>
0

>  <TPSA>
29.6

>  <cid>
27053

>  <dipole>
3.97

>  <excitation_energy_1>
4.208

>  <excitation_energy_2>
5.494

>  <excitation_energy_3>
6.156

>  <excitation_energy_4>
6.326

>  <homo_energy>
-6.629

>  <homo_lumo_gap>
6.014

>  <logP>
1.143

>  <lumo_energy>
-0.615

>  <melting_point>
29.84

>  <molecular_refractivity>
35.01

>  <oscillator_strength_1>
0.001

>  <oscillator_strength_2>
0.004

>  <oscillator_strength_3>
0.0505

>  <oscillator_strength_4>
0.0918

>  <open_babel_can_smiles>
CC(=O)[C@@]1(C)OC1(C)C

>  <mulliken_charges>
21
1   -0.541881
2   -0.49079
3   -0.476591
4   -0.502867
5   0.429293
6   0.297454
7   0.207515
8   -0.430319
9   -0.474423
10   0.177169
11   0.183271
12   0.16666
13   0.142529
14   0.193461
15   0.156275
16   0.150641
17   0.16205
18   0.159023
19   0.155004
20   0.171856
21   0.164668

>  <lowdin_charges>
21
1   -0.474581
2   -0.452981
3   -0.445397
4   -0.448438
5   0.156844
6   0.120688
7   0.058969
8   -0.22077
9   -0.263819
10   0.174715
11   0.173956
12   0.165528
13   0.15118
14   0.178638
15   0.15936
16   0.155483
17   0.161502
18   0.161204
19   0.158389
20   0.167364
21   0.162166

$$$$

