PCCDB-ID:  34416
public computational chemistry database (PCCDB) project, http://pccdb.org

 30 29  0  0  0  0  0  0  0  0999 V2000
    1.0503   -0.5294    0.0401 C   0  0  0  0  0  0  0  0  0  0  0  0
    7.6488    0.1478    6.5696 C   0  0  0  0  0  0  0  0  0  0  0  0
    2.5618   -0.3102   -0.0823 C   0  0  0  0  0  0  0  0  0  0  0  0
    3.0985    0.7178    0.9214 C   0  0  0  0  0  0  0  0  0  0  0  0
    6.7041    3.1859    2.8385 C   0  0  0  0  0  0  0  0  0  0  0  0
    6.3401    2.7090    4.2477 C   0  0  0  0  0  0  0  0  0  0  0  0
    4.6025    0.9335    0.8051 C   0  0  0  0  0  0  0  0  0  0  0  0
    6.3950    2.1605    1.7521 C   0  0  0  0  0  0  0  0  0  0  0  0
    7.2713    1.6372    4.7805 C   0  0  0  0  0  0  0  0  0  0  0  0
    8.2921    1.2512    4.2498 O   0  0  0  0  0  0  0  0  0  0  0  0
    6.8255    1.1570    5.9641 O   0  0  0  0  0  0  0  0  0  0  0  0
    4.9993    1.9019    1.7597 O   0  0  0  0  0  0  0  0  0  0  0  0
    0.6934   -1.2663   -0.6883 H   0  0  0  0  0  0  0  0  0  0  0  0
    0.5000    0.4037   -0.1310 H   0  0  0  0  0  0  0  0  0  0  0  0
    0.7831   -0.8918    1.0403 H   0  0  0  0  0  0  0  0  0  0  0  0
    7.1493   -0.1172    7.5021 H   0  0  0  0  0  0  0  0  0  0  0  0
    8.6518    0.5355    6.7681 H   0  0  0  0  0  0  0  0  0  0  0  0
    7.7306   -0.7255    5.9167 H   0  0  0  0  0  0  0  0  0  0  0  0
    2.8014    0.0170   -1.1040 H   0  0  0  0  0  0  0  0  0  0  0  0
    3.0821   -1.2679    0.0611 H   0  0  0  0  0  0  0  0  0  0  0  0
    2.8701    0.3970    1.9466 H   0  0  0  0  0  0  0  0  0  0  0  0
    2.5954    1.6830    0.7763 H   0  0  0  0  0  0  0  0  0  0  0  0
    7.7715    3.4285    2.7927 H   0  0  0  0  0  0  0  0  0  0  0  0
    6.1449    4.1032    2.6204 H   0  0  0  0  0  0  0  0  0  0  0  0
    5.3150    2.3245    4.2701 H   0  0  0  0  0  0  0  0  0  0  0  0
    6.3672    3.5440    4.9603 H   0  0  0  0  0  0  0  0  0  0  0  0
    4.8647    1.2732   -0.2128 H   0  0  0  0  0  0  0  0  0  0  0  0
    5.1426   -0.0146    0.9755 H   0  0  0  0  0  0  0  0  0  0  0  0
    6.9599    1.2323    1.9295 H   0  0  0  0  0  0  0  0  0  0  0  0
    6.7033    2.5525    0.7679 H   0  0  0  0  0  0  0  0  0  0  0  0
  1 15  1  0  0  0  0
  2 17  1  0  0  0  0
  2 16  1  0  0  0  0
  3  1  1  0  0  0  0
  3 20  1  0  0  0  0
  3  4  1  0  0  0  0
  4 21  1  0  0  0  0
  5  6  1  0  0  0  0
  6 25  1  0  0  0  0
  6  9  1  0  0  0  0
  6 26  1  0  0  0  0
  7  4  1  0  0  0  0
  7 28  1  0  0  0  0
  7 12  1  0  0  0  0
  8 12  1  0  0  0  0
  8 29  1  0  0  0  0
  8  5  1  0  0  0  0
  9 11  1  0  0  0  0
 10  9  2  0  0  0  0
 11  2  1  0  0  0  0
 13  1  1  0  0  0  0
 14  1  1  0  0  0  0
 18  2  1  0  0  0  0
 19  3  1  0  0  0  0
 22  4  1  0  0  0  0
 23  5  1  0  0  0  0
 24  5  1  0  0  0  0
 27  7  1  0  0  0  0
 30  8  1  0  0  0  0
M  END
>  <HBA>
3

>  <HBD>
0

>  <TPSA>
35.53

>  <cid>
34416

>  <dipole>
0.89

>  <excitation_energy_1>
5.834

>  <excitation_energy_2>
6.321

>  <excitation_energy_3>
6.46

>  <excitation_energy_4>
6.774

>  <homo_energy>
-6.759

>  <homo_lumo_gap>
7.206

>  <logP>
1.756

>  <lumo_energy>
0.446

>  <melting_point>
-25.06

>  <molecular_refractivity>
47.75

>  <oscillator_strength_1>
0.001

>  <oscillator_strength_2>
0.0042

>  <oscillator_strength_3>
0.0092

>  <oscillator_strength_4>
0.017

>  <open_babel_can_smiles>
CCCCOCCCC(=O)OC

>  <mulliken_charges>
30
1   -0.439994
2   -0.216719
3   -0.256422
4   -0.26514
5   -0.271643
6   -0.361054
7   6.5e-05
8   -0.018981
9   0.618554
10   -0.483719
11   -0.450956
12   -0.485695
13   0.142827
14   0.143726
15   0.143485
16   0.163243
17   0.168469
18   0.168551
19   0.132928
20   0.132868
21   0.140443
22   0.142207
23   0.154429
24   0.144309
25   0.193437
26   0.170773
27   0.114042
28   0.115783
29   0.142361
30   0.117823

>  <lowdin_charges>
30
1   -0.443642
2   -0.279045
3   -0.271275
4   -0.279259
5   -0.277098
6   -0.304981
7   -0.127179
8   -0.130989
9   0.198469
10   -0.271145
11   -0.194649
12   -0.280995
13   0.15084
14   0.147737
15   0.146962
16   0.159909
17   0.157455
18   0.158644
19   0.138916
20   0.139622
21   0.144943
22   0.146627
23   0.157744
24   0.152622
25   0.178003
26   0.171594
27   0.12194
28   0.123682
29   0.136929
30   0.127619

$$$$

