PCCDB-ID:  500
public computational chemistry database (PCCDB) project, http://pccdb.org

 21 20  0  0  0  0  0  0  0  0999 V2000
    0.8141   -0.8294   -0.8653 C   0  0  0  0  0  0  0  0  0  0  0  0
    0.3884   -2.3127   -0.8117 C   0  0  0  0  0  0  0  0  0  0  0  0
    2.3166   -0.5640   -0.6899 C   0  0  0  0  0  0  0  0  0  0  0  0
    0.5045   -2.8890    0.6026 C   0  0  0  0  0  0  0  0  0  0  0  0
    3.8119   -2.1713   -1.8782 C   0  0  0  0  0  0  0  0  0  0  0  0
    3.6123   -3.0930   -0.9937 N   0  0  0  0  0  0  0  0  0  0  0  0
    4.7350   -2.2458   -2.9234 N   0  0  0  0  0  0  0  0  0  0  0  0
    3.1300   -0.9797   -1.8413 N   0  0  0  0  0  0  0  0  0  0  0  0
   -0.4378   -2.9035    1.3662 O   0  0  0  0  0  0  0  0  0  0  0  0
    1.7142   -3.3305    0.9764 O   0  0  0  0  0  0  0  0  0  0  0  0
    0.2755   -0.2838   -0.0793 H   0  0  0  0  0  0  0  0  0  0  0  0
    0.4963   -0.4020   -1.8245 H   0  0  0  0  0  0  0  0  0  0  0  0
    0.9778   -2.8990   -1.5247 H   0  0  0  0  0  0  0  0  0  0  0  0
   -0.6657   -2.3883   -1.0913 H   0  0  0  0  0  0  0  0  0  0  0  0
    2.6957   -1.0508    0.2137 H   0  0  0  0  0  0  0  0  0  0  0  0
    2.4733    0.5128   -0.5662 H   0  0  0  0  0  0  0  0  0  0  0  0
    4.1476   -3.9366   -1.1880 H   0  0  0  0  0  0  0  0  0  0  0  0
    5.0814   -3.1789   -3.1071 H   0  0  0  0  0  0  0  0  0  0  0  0
    4.4535   -1.7809   -3.7796 H   0  0  0  0  0  0  0  0  0  0  0  0
    3.5813   -0.2271   -2.3419 H   0  0  0  0  0  0  0  0  0  0  0  0
    2.3909   -3.2469    0.2398 H   0  0  0  0  0  0  0  0  0  0  0  0
  1  2  1  0  0  0  0
  1  3  1  0  0  0  0
  1 11  1  0  0  0  0
  2  4  1  0  0  0  0
  3 16  1  0  0  0  0
  3 15  1  0  0  0  0
  4 10  1  0  0  0  0
  4  9  2  0  0  0  0
  5  8  1  0  0  0  0
  5  6  1  0  0  0  0
  7  5  2  0  0  0  0
  8  3  1  0  0  0  0
 12  1  1  0  0  0  0
 13  2  1  0  0  0  0
 14  2  1  0  0  0  0
 17  6  1  0  0  0  0
 18  7  1  0  0  0  0
 19  7  1  0  0  0  0
 20  8  1  0  0  0  0
 21 10  1  0  0  0  0
M  RAD  1   6   2
M  END
>  <HBA>
5

>  <HBD>
3

>  <TPSA>
101.7

>  <cid>
500

>  <dipole>
9.14

>  <excitation_energy_1>
5.375

>  <excitation_energy_2>
5.457

>  <excitation_energy_3>
5.594

>  <excitation_energy_4>
6.043

>  <homo_energy>
-6.267

>  <homo_lumo_gap>
6.977

>  <logP>
0.525

>  <lumo_energy>
0.71

>  <melting_point>
177.62

>  <molecular_refractivity>
37.02

>  <oscillator_strength_1>
0.0017

>  <oscillator_strength_2>
0.0035

>  <oscillator_strength_3>
0.0003

>  <oscillator_strength_4>
0.0027

>  <open_babel_can_smiles>
[NH]C(=[NH2])NCCCC(=O)O

>  <mulliken_charges>
21
1   -0.254576
2   -0.357185
3   -0.157217
4   0.565177
5   0.66465
6   -0.714987
7   -0.761379
8   -0.595248
9   -0.469559
10   -0.613835
11   0.160203
12   0.138343
13   0.151436
14   0.16371
15   0.187833
16   0.146256
17   0.290692
18   0.331724
19   0.329627
20   0.327498
21   0.466836

>  <lowdin_charges>
21
1   -0.27488
2   -0.321072
3   -0.199803
4   0.185571
5   0.151369
6   -0.492562
7   -0.497207
8   -0.294062
9   -0.278709
10   -0.384869
11   0.158393
12   0.146523
13   0.156633
14   0.165385
15   0.166463
16   0.150871
17   0.262168
18   0.282987
19   0.283151
20   0.282814
21   0.350836

$$$$

