PCCDB-ID:  69211
public computational chemistry database (PCCDB) project, http://pccdb.org

 20 20  0  0  0  0  0  0  0  0999 V2000
    0.9425    0.1063    0.1054 C   0  0  0  0  0  0  0  0  0  0  0  0
    6.7690    0.1996   -0.5344 C   0  0  0  0  0  0  0  0  0  0  0  0
    3.1532    1.3383   -0.1366 C   0  0  0  0  0  0  0  0  0  0  0  0
    4.5586   -1.0324   -0.2901 C   0  0  0  0  0  0  0  0  0  0  0  0
    2.4405    0.1384   -0.0583 C   0  0  0  0  0  0  0  0  0  0  0  0
    5.2712    0.1675   -0.3688 C   0  0  0  0  0  0  0  0  0  0  0  0
    3.1710   -1.0555   -0.1378 C   0  0  0  0  0  0  0  0  0  0  0  0
    4.5408    1.3614   -0.2888 C   0  0  0  0  0  0  0  0  0  0  0  0
    2.4575   -2.2306   -0.0595 O   0  0  0  0  0  0  0  0  0  0  0  0
    5.2541    2.5365   -0.3687 O   0  0  0  0  0  0  0  0  0  0  0  0
    0.5309    1.1188    0.1635 H   0  0  0  0  0  0  0  0  0  0  0  0
    0.6527   -0.4351    1.0140 H   0  0  0  0  0  0  0  0  0  0  0  0
    0.4607   -0.4124   -0.7322 H   0  0  0  0  0  0  0  0  0  0  0  0
    7.1826   -0.8130   -0.5745 H   0  0  0  0  0  0  0  0  0  0  0  0
    7.2502    0.7349    0.2930 H   0  0  0  0  0  0  0  0  0  0  0  0
    7.0570    0.7246   -1.4532 H   0  0  0  0  0  0  0  0  0  0  0  0
    2.6059    2.2789   -0.0777 H   0  0  0  0  0  0  0  0  0  0  0  0
    5.1056   -1.9729   -0.3515 H   0  0  0  0  0  0  0  0  0  0  0  0
    3.0777   -2.9732   -0.1176 H   0  0  0  0  0  0  0  0  0  0  0  0
    4.6357    3.2792   -0.2943 H   0  0  0  0  0  0  0  0  0  0  0  0
  1 11  1  0  0  0  0
  1 12  1  0  0  0  0
  2  6  1  0  0  0  0
  2 15  1  0  0  0  0
  3 17  1  0  0  0  0
  3  5  1  0  0  0  0
  4  7  1  0  0  0  0
  5  1  1  0  0  0  0
  6  4  2  0  0  0  0
  6  8  1  0  0  0  0
  7  9  1  0  0  0  0
  7  5  2  0  0  0  0
  8  3  2  0  0  0  0
 10 20  1  0  0  0  0
 10  8  1  0  0  0  0
 13  1  1  0  0  0  0
 14  2  1  0  0  0  0
 16  2  1  0  0  0  0
 18  4  1  0  0  0  0
 19  9  1  0  0  0  0
M  END
>  <HBA>
2

>  <HBD>
2

>  <TPSA>
40.46

>  <cid>
69211

>  <dipole>
0.02

>  <excitation_energy_1>
4.604

>  <excitation_energy_2>
4.621

>  <excitation_energy_3>
4.646

>  <excitation_energy_4>
5.346

>  <homo_energy>
-5.195

>  <homo_lumo_gap>
5.412

>  <logP>
1.715

>  <lumo_energy>
0.218

>  <melting_point>
93.94

>  <molecular_refractivity>
40.42

>  <oscillator_strength_1>
0.0843

>  <oscillator_strength_2>
0.0058

>  <oscillator_strength_3>
0.0

>  <oscillator_strength_4>
0.0031

>  <open_babel_can_smiles>
Cc1cc(O)c(cc1O)C

>  <mulliken_charges>
20
1   -0.515808
2   -0.51578
3   -0.263824
4   -0.263915
5   0.141707
6   0.141751
7   0.300859
8   0.300758
9   -0.654617
10   -0.65462
11   0.143587
12   0.16735
13   0.16714
14   0.143591
15   0.167271
16   0.167222
17   0.108522
18   0.108539
19   0.405136
20   0.405132

>  <lowdin_charges>
20
1   -0.436201
2   -0.436174
3   -0.212941
4   -0.212947
5   -0.022222
6   -0.022216
7   0.077129
8   0.077134
9   -0.392425
10   -0.392448
11   0.151304
12   0.164267
13   0.164671
14   0.151303
15   0.164834
16   0.164089
17   0.14969
18   0.149693
19   0.356727
20   0.356736

$$$$

