PCCDB-ID:  9254
public computational chemistry database (PCCDB) project, http://pccdb.org

  8  8  0  0  0  0  0  0  0  0999 V2000
   -1.2036    0.0207   -0.0004 C   0  0  0  0  0  0  0  0  0  0  0  0
   -0.3033   -1.0821    0.0026 C   0  0  0  0  0  0  0  0  0  0  0  0
   -0.3692    1.0946    0.0000 C   0  0  0  0  0  0  0  0  0  0  0  0
    0.9540   -0.7054    0.0046 N   0  0  0  0  0  0  0  0  0  0  0  0
    0.9144    0.6933    0.0030 O   0  0  0  0  0  0  0  0  0  0  0  0
   -2.2829    0.0089   -0.0019 H   0  0  0  0  0  0  0  0  0  0  0  0
   -0.5303   -2.1410    0.0028 H   0  0  0  0  0  0  0  0  0  0  0  0
   -0.5272    2.1637   -0.0021 H   0  0  0  0  0  0  0  0  0  0  0  0
  1  3  2  0  0  0  0
  1  2  1  0  0  0  0
  2  7  1  0  0  0  0
  2  4  2  0  0  0  0
  3  5  1  0  0  0  0
  5  4  1  0  0  0  0
  6  1  1  0  0  0  0
  8  3  1  0  0  0  0
M  END
>  <HBA>
2

>  <HBD>
0

>  <TPSA>
26.03

>  <cid>
9254

>  <dipole>
2.97

>  <excitation_energy_1>
6.383

>  <excitation_energy_2>
6.491

>  <excitation_energy_3>
6.812

>  <excitation_energy_4>
7.048

>  <homo_energy>
-7.306

>  <homo_lumo_gap>
6.893

>  <logP>
0.675

>  <lumo_energy>
-0.414

>  <melting_point>
17.05

>  <molecular_refractivity>
16.5

>  <oscillator_strength_1>
0.1078

>  <oscillator_strength_2>
0.0059

>  <oscillator_strength_3>
0.0158

>  <oscillator_strength_4>
0.0269

>  <open_babel_can_smiles>
c1ccno1

>  <mulliken_charges>
8
1   -0.233261
2   0.0555
3   0.148426
4   -0.157973
5   -0.315993
6   0.156895
7   0.168744
8   0.177661

>  <lowdin_charges>
8
1   -0.229799
2   -0.122505
3   -0.04677
4   -0.069603
5   -0.065589
6   0.178319
7   0.176513
8   0.179434

$$$$

