PCCDB-ID:  1188
public computational chemistry database (PCCDB) project, http://pccdb.org

 15 16  0  0  0  0  0  0  0  0999 V2000
   -2.2899   -0.0285    0.0018 C   0  0  0  0  0  0  0  0  0  0  0  0
   -0.2744   -0.6907    0.0021 C   0  0  0  0  0  0  0  0  0  0  0  0
   -0.1992    0.7064    0.0030 C   0  0  0  0  0  0  0  0  0  0  0  0
    0.9596   -1.3629    0.0013 C   0  0  0  0  0  0  0  0  0  0  0  0
    2.0112    0.6587    0.0035 C   0  0  0  0  0  0  0  0  0  0  0  0
   -1.5878   -1.1327    0.0010 N   0  0  0  0  0  0  0  0  0  0  0  0
   -1.5117    1.1183    0.0028 N   0  0  0  0  0  0  0  0  0  0  0  0
    0.9198    1.4367    0.0037 N   0  0  0  0  0  0  0  0  0  0  0  0
    2.0949   -0.6805    0.0023 N   0  0  0  0  0  0  0  0  0  0  0  0
    1.0434   -2.7023   -0.0003 O   0  0  0  0  0  0  0  0  0  0  0  0
    3.1995    1.2905    0.0042 O   0  0  0  0  0  0  0  0  0  0  0  0
   -3.3706    0.0259    0.0015 H   0  0  0  0  0  0  0  0  0  0  0  0
   -1.8341    2.0755    0.0043 H   0  0  0  0  0  0  0  0  0  0  0  0
    0.1344   -3.0531   -0.0006 H   0  0  0  0  0  0  0  0  0  0  0  0
    2.9980    2.2424    0.0057 H   0  0  0  0  0  0  0  0  0  0  0  0
  1  7  1  0  0  0  0
  2  3  2  0  0  0  0
  3  8  1  0  0  0  0
  4  2  1  0  0  0  0
  4  9  2  0  0  0  0
  5  8  2  0  0  0  0
  5 11  1  0  0  0  0
  6  1  2  0  0  0  0
  6  2  1  0  0  0  0
  7  3  1  0  0  0  0
  7 13  1  0  0  0  0
  9  5  2  0  0  0  0
 10  4  1  0  0  0  0
 11 15  1  0  0  0  0
 12  1  1  0  0  0  0
 14 10  1  0  0  0  0
M  END
>  <HBA>
3

>  <HBD>
3

>  <TPSA>
94.4

>  <cid>
1188

>  <dipole>
5.56

>  <excitation_energy_1>
5.028

>  <excitation_energy_2>
5.135

>  <excitation_energy_3>
5.473

>  <excitation_energy_4>
5.549

>  <homo_energy>
-6.267

>  <homo_lumo_gap>
5.521

>  <logP>
-1.06

>  <lumo_energy>
-0.746

>  <melting_point>
275.87

>  <molecular_refractivity>
37.34

>  <oscillator_strength_1>
0.1607

>  <oscillator_strength_2>
0.0012

>  <oscillator_strength_3>
0.0013

>  <oscillator_strength_4>
0.0561

>  <open_babel_can_smiles>
OC1=[N]=[C](=Nc2c1nc[nH]2)O

>  <mulliken_charges>
15
1   0.234812
2   0.150349
3   0.555445
4   0.502817
5   0.630644
6   -0.517097
7   -0.664743
8   -0.582733
9   -0.501493
10   -0.589602
11   -0.585823
12   0.17233
13   0.345061
14   0.433472
15   0.416563

>  <lowdin_charges>
15
1   -0.054716
2   -0.090312
3   0.075187
4   0.159949
5   0.168588
6   -0.190747
7   -0.192505
8   -0.242404
9   -0.188179
10   -0.323839
11   -0.333356
12   0.172877
13   0.303758
14   0.373114
15   0.362585

$$$$

