PCCDB-ID:  46430
public computational chemistry database (PCCDB) project, http://pccdb.org

 23 22  0  0  1  0  0  0  0  0999 V2000
    0.7730    0.0521    0.1145 C   0  0  0  0  0  0  0  0  0  0  0  0
    1.8369   -2.2514    1.6902 C   0  0  0  0  0  0  0  0  0  0  0  0
    2.6101   -2.4978   -0.5855 C   0  0  0  0  0  0  0  0  0  0  0  0
    2.8885    0.7113    1.3690 C   0  0  0  0  0  0  0  0  0  0  0  0
    2.2727   -0.2248    0.3043 C   0  0  1  0  0  0  0  0  0  0  0  0
    4.4173    0.6855    1.4467 C   0  0  0  0  0  0  0  0  0  0  0  0
    5.1775    1.6963    1.6018 N   0  0  0  0  0  0  0  0  0  0  0  0
    2.6116   -1.6450    0.6044 N   0  0  0  0  0  0  0  0  0  0  0  0
    4.9719   -0.5418    1.3788 O   0  0  0  0  0  0  0  0  0  0  0  0
    0.6238    1.0704   -0.2601 H   0  0  0  0  0  0  0  0  0  0  0  0
    0.2205   -0.0386    1.0564 H   0  0  0  0  0  0  0  0  0  0  0  0
    0.3249   -0.6356   -0.6111 H   0  0  0  0  0  0  0  0  0  0  0  0
    2.2860   -3.2156    1.9486 H   0  0  0  0  0  0  0  0  0  0  0  0
    0.7818   -2.4264    1.4247 H   0  0  0  0  0  0  0  0  0  0  0  0
    1.8687   -1.6191    2.5814 H   0  0  0  0  0  0  0  0  0  0  0  0
    2.9878   -3.4898   -0.3173 H   0  0  0  0  0  0  0  0  0  0  0  0
    3.2757   -2.0734   -1.3432 H   0  0  0  0  0  0  0  0  0  0  0  0
    1.6081   -2.6253   -1.0293 H   0  0  0  0  0  0  0  0  0  0  0  0
    2.4815    0.4581    2.3585 H   0  0  0  0  0  0  0  0  0  0  0  0
    2.5671    1.7367    1.1591 H   0  0  0  0  0  0  0  0  0  0  0  0
    2.7777   -0.0100   -0.6458 H   0  0  0  0  0  0  0  0  0  0  0  0
    4.6138    2.5472    1.6446 H   0  0  0  0  0  0  0  0  0  0  0  0
    4.2487   -1.1864    1.1509 H   0  0  0  0  0  0  0  0  0  0  0  0
  1  5  1  0  0  0  0
  1 11  1  0  0  0  0
  2 13  1  0  0  0  0
  2 15  1  0  0  0  0
  3 16  1  0  0  0  0
  3  8  1  0  0  0  0
  4  6  1  0  0  0  0
  4 19  1  0  0  0  0
  5 21  1  6  0  0  0
  5  8  1  0  0  0  0
  5  4  1  0  0  0  0
  6  7  2  0  0  0  0
  7 22  1  0  0  0  0
  8  2  1  0  0  0  0
  9  6  1  0  0  0  0
 10  1  1  0  0  0  0
 12  1  1  0  0  0  0
 14  2  1  0  0  0  0
 17  3  1  0  0  0  0
 18  3  1  0  0  0  0
 20  4  1  0  0  0  0
 23  9  1  0  0  0  0
M  END
>  <HBA>
3

>  <HBD>
1

>  <TPSA>
46.33

>  <cid>
46430

>  <dipole>
6.29

>  <excitation_energy_1>
5.66

>  <excitation_energy_2>
5.95

>  <excitation_energy_3>
6.039

>  <excitation_energy_4>
6.184

>  <homo_energy>
-6.411

>  <homo_lumo_gap>
7.57

>  <logP>
0.512

>  <lumo_energy>
1.159

>  <melting_point>
51.71

>  <molecular_refractivity>
36.76

>  <oscillator_strength_1>
0.0054

>  <oscillator_strength_2>
0.0142

>  <oscillator_strength_3>
0.0053

>  <oscillator_strength_4>
0.0211

>  <open_babel_can_smiles>
C[C@H](N(C)C)CC(=N)O

>  <mulliken_charges>
23
1   -0.460853
2   -0.308333
3   -0.300784
4   -0.367608
5   0.038335
6   0.482096
7   -0.600348
8   -0.440785
9   -0.606977
10   0.156894
11   0.15214
12   0.154191
13   0.164597
14   0.142416
15   0.163181
16   0.161878
17   0.166804
18   0.138289
19   0.163393
20   0.149678
21   0.150254
22   0.268652
23   0.432891

>  <lowdin_charges>
23
1   -0.458342
2   -0.360417
3   -0.358434
4   -0.319062
5   -0.062495
6   0.121056
7   -0.419282
8   -0.183788
9   -0.391528
10   0.159355
11   0.153211
12   0.156002
13   0.158763
14   0.13507
15   0.156566
16   0.156876
17   0.160046
18   0.132903
19   0.159297
20   0.158312
21   0.150858
22   0.247444
23   0.347589

$$$$

