PCCDB-ID:  27825
public computational chemistry database (PCCDB) project, http://pccdb.org

 32 31  0  0  0  0  0  0  0  0999 V2000
    3.8371    1.9519   -2.4117 C   0  0  0  0  0  0  0  0  0  0  0  0
    9.2472    4.5375    2.8387 C   0  0  0  0  0  0  0  0  0  0  0  0
    3.6546    1.0108   -1.2169 C   0  0  0  0  0  0  0  0  0  0  0  0
    7.8371    4.6128    3.4371 C   0  0  0  0  0  0  0  0  0  0  0  0
    4.3184    1.5284    0.0668 C   0  0  0  0  0  0  0  0  0  0  0  0
    7.1661    3.2470    3.6578 C   0  0  0  0  0  0  0  0  0  0  0  0
    4.1363    0.5792    1.2570 C   0  0  0  0  0  0  0  0  0  0  0  0
    6.8555    2.5000    2.3505 C   0  0  0  0  0  0  0  0  0  0  0  0
    4.7259    1.0683    2.5887 C   0  0  0  0  0  0  0  0  0  0  0  0
    6.8724    0.1125    2.8814 N   0  0  0  0  0  0  0  0  0  0  0  0
    6.1823    1.2187    2.5844 N   0  0  0  0  0  0  0  0  0  0  0  0
    8.0962    0.2475    2.9036 O   0  0  0  0  0  0  0  0  0  0  0  0
    3.3510    1.5551   -3.3100 H   0  0  0  0  0  0  0  0  0  0  0  0
    4.8993    2.0961   -2.6443 H   0  0  0  0  0  0  0  0  0  0  0  0
    3.4056    2.9398   -2.2085 H   0  0  0  0  0  0  0  0  0  0  0  0
    9.6907    5.5363    2.7571 H   0  0  0  0  0  0  0  0  0  0  0  0
    9.2456    4.0978    1.8351 H   0  0  0  0  0  0  0  0  0  0  0  0
    9.9084    3.9270    3.4650 H   0  0  0  0  0  0  0  0  0  0  0  0
    4.0675    0.0222   -1.4613 H   0  0  0  0  0  0  0  0  0  0  0  0
    2.5823    0.8556   -1.0315 H   0  0  0  0  0  0  0  0  0  0  0  0
    7.1964    5.2346    2.7946 H   0  0  0  0  0  0  0  0  0  0  0  0
    7.8860    5.1301    4.4042 H   0  0  0  0  0  0  0  0  0  0  0  0
    3.9013    2.5163    0.3161 H   0  0  0  0  0  0  0  0  0  0  0  0
    5.3894    1.6828   -0.1236 H   0  0  0  0  0  0  0  0  0  0  0  0
    6.2295    3.3891    4.2138 H   0  0  0  0  0  0  0  0  0  0  0  0
    7.8095    2.6087    4.2744 H   0  0  0  0  0  0  0  0  0  0  0  0
    4.5834   -0.3965    1.0264 H   0  0  0  0  0  0  0  0  0  0  0  0
    3.0636    0.4009    1.4201 H   0  0  0  0  0  0  0  0  0  0  0  0
    7.7765    2.2759    1.8071 H   0  0  0  0  0  0  0  0  0  0  0  0
    6.2061    3.1015    1.7073 H   0  0  0  0  0  0  0  0  0  0  0  0
    4.4810    0.3514    3.3779 H   0  0  0  0  0  0  0  0  0  0  0  0
    4.2954    2.0350    2.8742 H   0  0  0  0  0  0  0  0  0  0  0  0
  1 15  1  0  0  0  0
  1  3  1  0  0  0  0
  2  4  1  0  0  0  0
  2 18  1  0  0  0  0
  3 20  1  0  0  0  0
  3  5  1  0  0  0  0
  4  6  1  0  0  0  0
  4 22  1  0  0  0  0
  5 23  1  0  0  0  0
  5  7  1  0  0  0  0
  6 25  1  0  0  0  0
  6 26  1  0  0  0  0
  7 28  1  0  0  0  0
  7  9  1  0  0  0  0
  8 11  1  0  0  0  0
  8  6  1  0  0  0  0
  9 32  1  0  0  0  0
  9 31  1  0  0  0  0
 10 12  2  0  0  0  0
 11  9  1  0  0  0  0
 11 10  1  0  0  0  0
 13  1  1  0  0  0  0
 14  1  1  0  0  0  0
 16  2  1  0  0  0  0
 17  2  1  0  0  0  0
 19  3  1  0  0  0  0
 21  4  1  0  0  0  0
 24  5  1  0  0  0  0
 27  7  1  0  0  0  0
 29  8  1  0  0  0  0
 30  8  1  0  0  0  0
M  END
>  <HBA>
3

>  <HBD>
0

>  <TPSA>
32.67

>  <cid>
27825

>  <dipole>
4.03

>  <excitation_energy_1>
3.339

>  <excitation_energy_2>
5.564

>  <excitation_energy_3>
5.653

>  <excitation_energy_4>
5.875

>  <homo_energy>
-5.856

>  <homo_lumo_gap>
5.17

>  <logP>
2.96

>  <lumo_energy>
-0.686

>  <melting_point>
-6.87

>  <molecular_refractivity>
53.01

>  <oscillator_strength_1>
0.0012

>  <oscillator_strength_2>
0.007

>  <oscillator_strength_3>
0.144

>  <oscillator_strength_4>
0.002

>  <open_babel_can_smiles>
CCCCCN(CCCC)N=O

>  <mulliken_charges>
32
1   -0.443006
2   -0.444622
3   -0.248959
4   -0.255189
5   -0.254858
6   -0.259098
7   -0.255641
8   -0.150469
9   -0.147328
10   0.146328
11   -0.220714
12   -0.392627
13   0.145777
14   0.144192
15   0.141282
16   0.144236
17   0.147447
18   0.154081
19   0.137638
20   0.132334
21   0.128376
22   0.139089
23   0.124517
24   0.141921
25   0.131413
26   0.164981
27   0.156078
28   0.135432
29   0.18366
30   0.15032
31   0.17231
32   0.1511

>  <lowdin_charges>
32
1   -0.442865
2   -0.446945
3   -0.269205
4   -0.27405
5   -0.277787
6   -0.284611
7   -0.279685
8   -0.222311
9   -0.201304
10   0.04365
11   -0.040787
12   -0.281517
13   0.151999
14   0.146354
15   0.145774
16   0.150705
17   0.147278
18   0.154396
19   0.142173
20   0.137962
21   0.138971
22   0.146475
23   0.134914
24   0.141987
25   0.141789
26   0.15876
27   0.152903
28   0.1448
29   0.169382
30   0.153934
31   0.165789
32   0.151071

$$$$

