PCCDB-ID:  19846
public computational chemistry database (PCCDB) project, http://pccdb.org

 22 21  0  0  1  0  0  0  0  0999 V2000
    5.1147   -5.2587    3.3597 C   0  0  0  0  0  0  0  0  0  0  0  0
    4.7592   -2.9808    4.4192 C   0  0  0  0  0  0  0  0  0  0  0  0
    8.4734   -1.8537    1.4605 C   0  0  0  0  0  0  0  0  0  0  0  0
    5.9460   -2.0722    1.7213 C   0  0  0  0  0  0  0  0  0  0  0  0
    4.9236   -3.7655    3.1154 C   0  0  0  0  0  0  0  0  0  0  0  0
    7.1223   -1.9650    0.7469 C   0  0  2  0  0  0  0  0  0  0  0  0
    7.0958   -3.0717   -0.1484 O   0  0  0  0  0  0  0  0  0  0  0  0
    6.0709   -3.3270    2.3797 O   0  0  0  0  0  0  0  0  0  0  0  0
    4.2550   -5.6758    3.8950 H   0  0  0  0  0  0  0  0  0  0  0  0
    6.0143   -5.4335    3.9608 H   0  0  0  0  0  0  0  0  0  0  0  0
    5.2262   -5.7937    2.4112 H   0  0  0  0  0  0  0  0  0  0  0  0
    3.8873   -3.3421    4.9762 H   0  0  0  0  0  0  0  0  0  0  0  0
    4.6143   -1.9113    4.2340 H   0  0  0  0  0  0  0  0  0  0  0  0
    5.6473   -3.1029    5.0498 H   0  0  0  0  0  0  0  0  0  0  0  0
    8.5255   -0.9459    2.0743 H   0  0  0  0  0  0  0  0  0  0  0  0
    9.2800   -1.8214    0.7219 H   0  0  0  0  0  0  0  0  0  0  0  0
    8.6336   -2.7168    2.1150 H   0  0  0  0  0  0  0  0  0  0  0  0
    4.9990   -2.0358    1.1603 H   0  0  0  0  0  0  0  0  0  0  0  0
    5.9571   -1.2373    2.4384 H   0  0  0  0  0  0  0  0  0  0  0  0
    4.0293   -3.6128    2.4875 H   0  0  0  0  0  0  0  0  0  0  0  0
    6.9659   -1.0740    0.1259 H   0  0  0  0  0  0  0  0  0  0  0  0
    6.9593   -3.8488    0.4211 H   0  0  0  0  0  0  0  0  0  0  0  0
  1  9  1  0  0  0  0
  1 10  1  0  0  0  0
  2 12  1  0  0  0  0
  2 14  1  0  0  0  0
  3 15  1  0  0  0  0
  3 17  1  0  0  0  0
  4  8  1  0  0  0  0
  4 19  1  0  0  0  0
  5  1  1  0  0  0  0
  5  2  1  0  0  0  0
  6 21  1  6  0  0  0
  6  3  1  0  0  0  0
  6  4  1  0  0  0  0
  7 22  1  0  0  0  0
  7  6  1  0  0  0  0
  8  5  1  0  0  0  0
 11  1  1  0  0  0  0
 13  2  1  0  0  0  0
 16  3  1  0  0  0  0
 18  4  1  0  0  0  0
 20  5  1  0  0  0  0
M  END
>  <HBA>
2

>  <HBD>
1

>  <TPSA>
29.46

>  <cid>
19846

>  <dipole>
2.48

>  <excitation_energy_1>
6.588

>  <excitation_energy_2>
6.701

>  <excitation_energy_3>
6.931

>  <excitation_energy_4>
7.025

>  <homo_energy>
-6.914

>  <homo_lumo_gap>
8.944

>  <logP>
0.792

>  <lumo_energy>
2.03

>  <melting_point>
-16.89

>  <molecular_refractivity>
33.2

>  <oscillator_strength_1>
0.0004

>  <oscillator_strength_2>
0.0414

>  <oscillator_strength_3>
0.0039

>  <oscillator_strength_4>
0.0059

>  <open_babel_can_smiles>
CC(OC[C@H](O)C)C

>  <mulliken_charges>
22
1   -0.451252
2   -0.457827
3   -0.45212
4   -0.031298
5   0.16424
6   0.127136
7   -0.633625
8   -0.502003
9   0.144631
10   0.154562
11   0.152336
12   0.145262
13   0.149224
14   0.154108
15   0.131681
16   0.155599
17   0.154574
18   0.129314
19   0.122604
20   0.1159
21   0.132113
22   0.394841

>  <lowdin_charges>
22
1   -0.449651
2   -0.458758
3   -0.462412
4   -0.148076
5   0.01074
6   -0.006922
7   -0.468841
8   -0.283082
9   0.155104
10   0.155992
11   0.155707
12   0.155661
13   0.150878
14   0.155741
15   0.147226
16   0.158339
17   0.155532
18   0.134262
19   0.132134
20   0.126444
21   0.14361
22   0.340371

$$$$

