PCCDB-ID:  15658
public computational chemistry database (PCCDB) project, http://pccdb.org

 16 16  0  0  1  0  0  0  0  0999 V2000
    1.0457    0.0123    0.5473 C   0  0  0  0  0  0  0  0  0  0  0  0
    3.6749    0.6957   -2.0261 C   0  0  0  0  0  0  0  0  0  0  0  0
    3.6802   -0.6401   -2.0287 C   0  0  0  0  0  0  0  0  0  0  0  0
    2.7463    1.2522   -0.9708 C   0  0  0  0  0  0  0  0  0  0  0  0
    2.7553   -1.2080   -0.9763 C   0  0  0  0  0  0  0  0  0  0  0  0
    2.4430    0.0189   -0.0730 C   0  0  2  0  0  0  0  0  0  0  0  0
    0.8839    0.8944    1.1787 H   0  0  0  0  0  0  0  0  0  0  0  0
    0.8893   -0.8759    1.1716 H   0  0  0  0  0  0  0  0  0  0  0  0
    0.2711    0.0131   -0.2303 H   0  0  0  0  0  0  0  0  0  0  0  0
    4.2292    1.3258   -2.7169 H   0  0  0  0  0  0  0  0  0  0  0  0
    4.2407   -1.2630   -2.7210 H   0  0  0  0  0  0  0  0  0  0  0  0
    1.8268    1.6472   -1.4332 H   0  0  0  0  0  0  0  0  0  0  0  0
    3.1833    2.0830   -0.4014 H   0  0  0  0  0  0  0  0  0  0  0  0
    3.1973   -2.0388   -0.4107 H   0  0  0  0  0  0  0  0  0  0  0  0
    1.8386   -1.6065   -1.4412 H   0  0  0  0  0  0  0  0  0  0  0  0
    3.1852    0.0198    0.7370 H   0  0  0  0  0  0  0  0  0  0  0  0
  1  8  1  0  0  0  0
  1  7  1  0  0  0  0
  2  4  1  0  0  0  0
  3  2  2  0  0  0  0
  3  5  1  0  0  0  0
  4 13  1  0  0  0  0
  4  6  1  0  0  0  0
  5 14  1  0  0  0  0
  5  6  1  0  0  0  0
  6  1  1  0  0  0  0
  6 16  1  1  0  0  0
  9  1  1  0  0  0  0
 10  2  1  0  0  0  0
 11  3  1  0  0  0  0
 12  4  1  0  0  0  0
 15  5  1  0  0  0  0
M  END
>  <HBA>
0

>  <HBD>
0

>  <TPSA>
0.0

>  <cid>
15658

>  <dipole>
0.14

>  <excitation_energy_1>
5.974

>  <excitation_energy_2>
6.41

>  <excitation_energy_3>
6.633

>  <excitation_energy_4>
6.674

>  <homo_energy>
-6.338

>  <homo_lumo_gap>
7.203

>  <logP>
1.972

>  <lumo_energy>
0.865

>  <melting_point>
5.81

>  <molecular_refractivity>
28.37

>  <oscillator_strength_1>
0.005

>  <oscillator_strength_2>
0.0084

>  <oscillator_strength_3>
0.0098

>  <oscillator_strength_4>
0.0313

>  <open_babel_can_smiles>
C[C@@H]1CC=CC1

>  <mulliken_charges>
16
1   -0.452853
2   -0.107452
3   -0.107549
4   -0.302552
5   -0.302518
6   -0.077717
7   0.141436
8   0.141438
9   0.140482
10   0.12159
11   0.121607
12   0.138967
13   0.137066
14   0.13703
15   0.138994
16   0.132031

>  <lowdin_charges>
16
1   -0.44615
2   -0.174039
3   -0.17404
4   -0.280976
5   -0.280986
6   -0.118147
7   0.148788
8   0.148754
9   0.145925
10   0.153343
11   0.153349
12   0.144778
13   0.146319
14   0.146309
15   0.144814
16   0.14196

$$$$

