PCCDB-ID:  69102
public computational chemistry database (PCCDB) project, http://pccdb.org

 18 18  0  0  0  0  0  0  0  0999 V2000
   -0.7098    1.2212   -0.0009 C   0  0  0  0  0  0  0  0  0  0  0  0
   -1.4073    0.0130    0.0012 C   0  0  0  0  0  0  0  0  0  0  0  0
    0.6825    1.2150   -0.0224 C   0  0  0  0  0  0  0  0  0  0  0  0
   -0.7051   -1.1892    0.0218 C   0  0  0  0  0  0  0  0  0  0  0  0
    1.3959    0.0090   -0.0136 C   0  0  0  0  0  0  0  0  0  0  0  0
    0.6962   -1.2030    0.0137 C   0  0  0  0  0  0  0  0  0  0  0  0
   -1.3634    2.4499   -0.0438 O   0  0  0  0  0  0  0  0  0  0  0  0
   -2.7972   -0.0373    0.0414 O   0  0  0  0  0  0  0  0  0  0  0  0
    1.4156    2.3786   -0.0336 O   0  0  0  0  0  0  0  0  0  0  0  0
   -1.3450   -2.4067    0.0307 O   0  0  0  0  0  0  0  0  0  0  0  0
    2.7606    0.0026   -0.0229 O   0  0  0  0  0  0  0  0  0  0  0  0
    1.3844   -2.3813    0.0235 O   0  0  0  0  0  0  0  0  0  0  0  0
   -2.0107    2.4698    0.6809 H   0  0  0  0  0  0  0  0  0  0  0  0
   -3.1371    0.5428   -0.6605 H   0  0  0  0  0  0  0  0  0  0  0  0
    0.7786    3.1136   -0.0266 H   0  0  0  0  0  0  0  0  0  0  0  0
   -2.3003   -2.2243    0.0168 H   0  0  0  0  0  0  0  0  0  0  0  0
    3.0476    0.9314   -0.0415 H   0  0  0  0  0  0  0  0  0  0  0  0
    0.7236   -3.0945    0.0366 H   0  0  0  0  0  0  0  0  0  0  0  0
  1  2  2  0  0  0  0
  2  4  1  0  0  0  0
  2  8  1  0  0  0  0
  3  5  2  0  0  0  0
  3  1  1  0  0  0  0
  4 10  1  0  0  0  0
  5  6  1  0  0  0  0
  6  4  2  0  0  0  0
  6 12  1  0  0  0  0
  7  1  1  0  0  0  0
  7 13  1  0  0  0  0
  9 15  1  0  0  0  0
  9  3  1  0  0  0  0
 11  5  1  0  0  0  0
 12 18  1  0  0  0  0
 14  8  1  0  0  0  0
 16 10  1  0  0  0  0
 17 11  1  0  0  0  0
M  END
>  <HBA>
6

>  <HBD>
6

>  <TPSA>
121.38

>  <cid>
69102

>  <dipole>
4.77

>  <excitation_energy_1>
3.799

>  <excitation_energy_2>
3.878

>  <excitation_energy_3>
4.856

>  <excitation_energy_4>
4.904

>  <homo_energy>
-5.271

>  <homo_lumo_gap>
5.646

>  <logP>
-0.08

>  <lumo_energy>
0.376

>  <melting_point>
248.16

>  <molecular_refractivity>
38.58

>  <oscillator_strength_1>
0.0009

>  <oscillator_strength_2>
0.0011

>  <oscillator_strength_3>
0.0018

>  <oscillator_strength_4>
0.005

>  <open_babel_can_smiles>
Oc1c(O)c(O)c(c(c1O)O)O

>  <mulliken_charges>
18
1   0.224314
2   0.228131
3   0.262016
4   0.260945
5   0.267951
6   0.268669
7   -0.690475
8   -0.690264
9   -0.688217
10   -0.688356
11   -0.646473
12   -0.646359
13   0.416016
14   0.416013
15   0.42648
16   0.426895
17   0.426294
18   0.426419

>  <lowdin_charges>
18
1   0.004181
2   0.007825
3   0.031969
4   0.0309
5   0.055532
6   0.055348
7   -0.418728
8   -0.419704
9   -0.40234
10   -0.399878
11   -0.369817
12   -0.370793
13   0.364457
14   0.364988
15   0.368254
16   0.366162
17   0.364583
18   0.367063

$$$$

