PCCDB-ID:  70043
public computational chemistry database (PCCDB) project, http://pccdb.org

 30 31  0  0  0  0  0  0  0  0999 V2000
   -0.3110   -2.2191    0.2550 C   0  0  0  0  0  0  0  0  0  0  0  0
    0.5396   -2.4335    1.3415 C   0  0  0  0  0  0  0  0  0  0  0  0
    0.1651   -1.5614   -0.8809 C   0  0  0  0  0  0  0  0  0  0  0  0
    1.8609   -1.9893    1.2906 C   0  0  0  0  0  0  0  0  0  0  0  0
    1.4873   -1.1193   -0.9277 C   0  0  0  0  0  0  0  0  0  0  0  0
    7.9684   -0.4715   -0.4821 C   0  0  0  0  0  0  0  0  0  0  0  0
    7.9946   -2.7057   -1.3618 C   0  0  0  0  0  0  0  0  0  0  0  0
    6.5876   -0.5552   -0.2716 C   0  0  0  0  0  0  0  0  0  0  0  0
    6.6270   -2.8102   -1.1539 C   0  0  0  0  0  0  0  0  0  0  0  0
   10.1798   -1.4247   -1.2844 C   0  0  0  0  0  0  0  0  0  0  0  0
    3.7812   -0.8709    0.0947 C   0  0  0  0  0  0  0  0  0  0  0  0
    8.6907   -1.5303   -1.0318 C   0  0  0  0  0  0  0  0  0  0  0  0
    2.3468   -1.3277    0.1570 C   0  0  0  0  0  0  0  0  0  0  0  0
    5.9102   -1.7320   -0.6088 C   0  0  0  0  0  0  0  0  0  0  0  0
   10.8975   -2.6068   -0.9382 O   0  0  0  0  0  0  0  0  0  0  0  0
    4.5698   -1.9380   -0.4448 O   0  0  0  0  0  0  0  0  0  0  0  0
   -1.3419   -2.5606    0.2948 H   0  0  0  0  0  0  0  0  0  0  0  0
    0.1735   -2.9440    2.2281 H   0  0  0  0  0  0  0  0  0  0  0  0
   -0.4933   -1.3913   -1.7286 H   0  0  0  0  0  0  0  0  0  0  0  0
    2.5234   -2.1578    2.1365 H   0  0  0  0  0  0  0  0  0  0  0  0
    1.8579   -0.6085   -1.8135 H   0  0  0  0  0  0  0  0  0  0  0  0
    8.4856    0.4458   -0.2074 H   0  0  0  0  0  0  0  0  0  0  0  0
    8.5449   -3.5457   -1.7767 H   0  0  0  0  0  0  0  0  0  0  0  0
    6.0641    0.2903    0.1599 H   0  0  0  0  0  0  0  0  0  0  0  0
    6.0842   -3.7163   -1.4054 H   0  0  0  0  0  0  0  0  0  0  0  0
   10.5826   -0.5428   -0.7601 H   0  0  0  0  0  0  0  0  0  0  0  0
   10.3841   -1.2819   -2.3524 H   0  0  0  0  0  0  0  0  0  0  0  0
    4.1501   -0.6112    1.0966 H   0  0  0  0  0  0  0  0  0  0  0  0
    3.8787    0.0181   -0.5435 H   0  0  0  0  0  0  0  0  0  0  0  0
   10.6651   -2.8208   -0.0204 H   0  0  0  0  0  0  0  0  0  0  0  0
  1 17  1  0  0  0  0
  1  2  2  0  0  0  0
  2 18  1  0  0  0  0
  3  1  1  0  0  0  0
  4  2  1  0  0  0  0
  4 20  1  0  0  0  0
  5  3  2  0  0  0  0
  5 13  1  0  0  0  0
  6  8  1  0  0  0  0
  6 22  1  0  0  0  0
  7  9  2  0  0  0  0
  7 12  1  0  0  0  0
  8 24  1  0  0  0  0
  9 14  1  0  0  0  0
 10 12  1  0  0  0  0
 10 15  1  0  0  0  0
 10 26  1  0  0  0  0
 11 13  1  0  0  0  0
 11 28  1  0  0  0  0
 12  6  2  0  0  0  0
 13  4  2  0  0  0  0
 14 16  1  0  0  0  0
 14  8  2  0  0  0  0
 15 30  1  0  0  0  0
 16 11  1  0  0  0  0
 19  3  1  0  0  0  0
 21  5  1  0  0  0  0
 23  7  1  0  0  0  0
 25  9  1  0  0  0  0
 27 10  1  0  0  0  0
 29 11  1  0  0  0  0
M  END
>  <HBA>
2

>  <HBD>
1

>  <TPSA>
29.46

>  <cid>
70043

>  <dipole>
2.98

>  <excitation_energy_1>
4.827

>  <excitation_energy_2>
4.921

>  <excitation_energy_3>
5.071

>  <excitation_energy_4>
5.331

>  <homo_energy>
-5.834

>  <homo_lumo_gap>
5.508

>  <logP>
2.758

>  <lumo_energy>
-0.327

>  <melting_point>
62.27

>  <molecular_refractivity>
63.55

>  <oscillator_strength_1>
0.0002

>  <oscillator_strength_2>
0.0249

>  <oscillator_strength_3>
0.0701

>  <oscillator_strength_4>
0.0016

>  <open_babel_can_smiles>
OCc1ccc(cc1)OCc1ccccc1

>  <mulliken_charges>
30
1   -0.12497
2   -0.131052
3   -0.131005
4   -0.162788
5   -0.163328
6   -0.19575
7   -0.176445
8   -0.193863
9   -0.174142
10   -0.09296
11   -0.12805
12   0.104289
13   0.149319
14   0.379235
15   -0.610554
16   -0.513086
17   0.132949
18   0.133382
19   0.133557
20   0.132212
21   0.13269
22   0.123942
23   0.143658
24   0.134091
25   0.140024
26   0.124862
27   0.158936
28   0.143803
29   0.144691
30   0.386355

>  <lowdin_charges>
30
1   -0.149586
2   -0.15494
3   -0.155658
4   -0.154117
5   -0.153385
6   -0.157905
7   -0.151813
8   -0.217729
9   -0.180498
10   -0.129858
11   -0.123822
12   -0.053808
13   -0.014238
14   0.103415
15   -0.464047
16   -0.201127
17   0.158168
18   0.160005
19   0.160326
20   0.159724
21   0.159703
22   0.154954
23   0.166573
24   0.162863
25   0.16774
26   0.130809
27   0.152444
28   0.142359
29   0.143926
30   0.339524

$$$$

