PCCDB-ID:  16043
public computational chemistry database (PCCDB) project, http://pccdb.org

 26 26  0  0  0  0  0  0  0  0999 V2000
    1.0971   -0.7640   -0.3926 C   0  0  0  0  0  0  0  0  0  0  0  0
    2.4083    0.4881    1.3178 C   0  0  0  0  0  0  0  0  0  0  0  0
    3.5848   -1.1756   -0.1166 C   0  0  0  0  0  0  0  0  0  0  0  0
    3.3071    2.9865   -3.1053 C   0  0  0  0  0  0  0  0  0  0  0  0
    3.1346    1.6551   -3.4858 C   0  0  0  0  0  0  0  0  0  0  0  0
    2.9390    2.3177   -0.8156 C   0  0  0  0  0  0  0  0  0  0  0  0
    3.2069    3.3167   -1.7577 C   0  0  0  0  0  0  0  0  0  0  0  0
    2.7630    0.9758   -1.1670 C   0  0  0  0  0  0  0  0  0  0  0  0
    2.8682    0.6627   -2.5440 C   0  0  0  0  0  0  0  0  0  0  0  0
    2.4678   -0.1030   -0.1050 C   0  0  0  0  0  0  0  0  0  0  0  0
    3.3592    4.5971   -1.2829 O   0  0  0  0  0  0  0  0  0  0  0  0
    2.7017   -0.6471   -2.9466 O   0  0  0  0  0  0  0  0  0  0  0  0
    0.8869   -1.5311    0.3631 H   0  0  0  0  0  0  0  0  0  0  0  0
    1.0749   -1.2367   -1.3763 H   0  0  0  0  0  0  0  0  0  0  0  0
    0.2929   -0.0199   -0.3487 H   0  0  0  0  0  0  0  0  0  0  0  0
    2.1962   -0.3154    2.0321 H   0  0  0  0  0  0  0  0  0  0  0  0
    1.6152    1.2374    1.4209 H   0  0  0  0  0  0  0  0  0  0  0  0
    3.3579    0.9487    1.6131 H   0  0  0  0  0  0  0  0  0  0  0  0
    3.3777   -1.9383    0.6444 H   0  0  0  0  0  0  0  0  0  0  0  0
    4.5565   -0.7240    0.1163 H   0  0  0  0  0  0  0  0  0  0  0  0
    3.6600   -1.6711   -1.0864 H   0  0  0  0  0  0  0  0  0  0  0  0
    3.5125    3.7475   -3.8554 H   0  0  0  0  0  0  0  0  0  0  0  0
    3.2108    1.3846   -4.5381 H   0  0  0  0  0  0  0  0  0  0  0  0
    2.8721    2.6298    0.2189 H   0  0  0  0  0  0  0  0  0  0  0  0
    3.5357    5.1873   -2.0313 H   0  0  0  0  0  0  0  0  0  0  0  0
    2.8047   -0.6850   -3.9098 H   0  0  0  0  0  0  0  0  0  0  0  0
  1 15  1  0  0  0  0
  1 10  1  0  0  0  0
  1 13  1  0  0  0  0
  2 17  1  0  0  0  0
  2 18  1  0  0  0  0
  2 16  1  0  0  0  0
  3 10  1  0  0  0  0
  3 20  1  0  0  0  0
  3 19  1  0  0  0  0
  4  7  1  0  0  0  0
  5  4  2  0  0  0  0
  5  9  1  0  0  0  0
  6 24  1  0  0  0  0
  7 11  1  0  0  0  0
  7  6  2  0  0  0  0
  8  6  1  0  0  0  0
  8 10  1  0  0  0  0
  9  8  2  0  0  0  0
 10  2  1  0  0  0  0
 12  9  1  0  0  0  0
 14  1  1  0  0  0  0
 21  3  1  0  0  0  0
 22  4  1  0  0  0  0
 23  5  1  0  0  0  0
 25 11  1  0  0  0  0
 26 12  1  0  0  0  0
M  END
>  <HBA>
2

>  <HBD>
2

>  <TPSA>
40.46

>  <cid>
16043

>  <dipole>
2.64

>  <excitation_energy_1>
4.63

>  <excitation_energy_2>
4.663

>  <excitation_energy_3>
4.783

>  <excitation_energy_4>
5.445

>  <homo_energy>
-5.347

>  <homo_lumo_gap>
5.391

>  <logP>
2.395

>  <lumo_energy>
0.044

>  <melting_point>
94.06

>  <molecular_refractivity>
49.76

>  <oscillator_strength_1>
0.0789

>  <oscillator_strength_2>
0.0

>  <oscillator_strength_3>
0.0002

>  <oscillator_strength_4>
0.0002

>  <open_babel_can_smiles>
Oc1ccc(c(c1)C(C)(C)C)O

>  <mulliken_charges>
26
1   -0.450718
2   -0.455591
3   -0.451488
4   -0.20347
5   -0.195393
6   -0.251854
7   0.356956
8   0.141657
9   0.290273
10   0.030203
11   -0.651275
12   -0.6517
13   0.131843
14   0.170361
15   0.138137
16   0.140168
17   0.144839
18   0.144914
19   0.131818
20   0.138167
21   0.170794
22   0.117208
23   0.114962
24   0.140385
25   0.403727
26   0.405079

>  <lowdin_charges>
26
1   -0.446803
2   -0.445293
3   -0.446376
4   -0.211971
5   -0.20054
6   -0.188479
7   0.088235
8   -0.014629
9   0.080706
10   0.022804
11   -0.390277
12   -0.386439
13   0.144781
14   0.160828
15   0.147443
16   0.150964
17   0.149247
18   0.148839
19   0.144721
20   0.146626
21   0.161216
22   0.154472
23   0.150414
24   0.170493
25   0.356055
26   0.352963

$$$$

