PCCDB-ID:  52161
public computational chemistry database (PCCDB) project, http://pccdb.org

 14 14  0  0  1  0  0  0  0  0999 V2000
    0.9954   -0.0524   -0.0082 C   0  0  0  0  0  0  0  0  0  0  0  0
    4.6042    1.4260   -0.6060 C   0  0  0  0  0  0  0  0  0  0  0  0
    2.5052   -0.0133    0.0627 C   0  0  2  0  0  0  0  0  0  0  0  0
    3.3068    0.7305   -0.9441 C   0  0  2  0  0  0  0  0  0  0  0  0
    3.3263   -0.7483   -0.9211 N   0  0  0  0  0  0  0  0  0  0  0  0
    0.5506    0.7540    0.5879 H   0  0  0  0  0  0  0  0  0  0  0  0
    0.6046   -1.0036    0.3738 H   0  0  0  0  0  0  0  0  0  0  0  0
    0.6455    0.0646   -1.0417 H   0  0  0  0  0  0  0  0  0  0  0  0
    4.4241    2.4587   -0.2827 H   0  0  0  0  0  0  0  0  0  0  0  0
    5.2736    1.4525   -1.4743 H   0  0  0  0  0  0  0  0  0  0  0  0
    5.1226    0.8953    0.1989 H   0  0  0  0  0  0  0  0  0  0  0  0
    2.9116   -0.0785    1.0731 H   0  0  0  0  0  0  0  0  0  0  0  0
    2.7318    1.1996   -1.7453 H   0  0  0  0  0  0  0  0  0  0  0  0
    2.7250   -1.1168   -1.6606 H   0  0  0  0  0  0  0  0  0  0  0  0
  1  3  1  0  0  0  0
  1  7  1  0  0  0  0
  1  6  1  0  0  0  0
  2  9  1  0  0  0  0
  2 11  1  0  0  0  0
  3 12  1  1  0  0  0
  4 13  1  6  0  0  0
  4  5  1  0  0  0  0
  4  2  1  0  0  0  0
  4  3  1  0  0  0  0
  5  3  1  0  0  0  0
  8  1  1  0  0  0  0
 10  2  1  0  0  0  0
 14  5  1  0  0  0  0
M  END
>  <HBA>
1

>  <HBD>
1

>  <TPSA>
21.94

>  <cid>
52161

>  <dipole>
1.74

>  <excitation_energy_1>
5.99

>  <excitation_energy_2>
6.442

>  <excitation_energy_3>
6.591

>  <excitation_energy_4>
6.73

>  <homo_energy>
-6.397

>  <homo_lumo_gap>
8.729

>  <logP>
0.695

>  <lumo_energy>
2.332

>  <melting_point>
29.5

>  <molecular_refractivity>
25.94

>  <oscillator_strength_1>
0.0079

>  <oscillator_strength_2>
0.0077

>  <oscillator_strength_3>
0.0148

>  <oscillator_strength_4>
0.0313

>  <open_babel_can_smiles>
C[C@H]1N[C@@H]1C

>  <mulliken_charges>
14
1   -0.464609
2   -0.441099
3   0.001068
4   -0.018666
5   -0.536876
6   0.154317
7   0.154734
8   0.138158
9   0.141081
10   0.148721
11   0.156782
12   0.140386
13   0.128753
14   0.297251

>  <lowdin_charges>
14
1   -0.446678
2   -0.439129
3   -0.09636
4   -0.099138
5   -0.385854
6   0.158532
7   0.154475
8   0.14694
9   0.14906
10   0.154306
11   0.160193
12   0.148668
13   0.141171
14   0.253814

$$$$

