PCCDB-ID:  24274
public computational chemistry database (PCCDB) project, http://pccdb.org

 19 20  0  0  0  0  0  0  0  0999 V2000
    1.9847    1.1182   -0.0617 C   0  0  0  0  0  0  0  0  0  0  0  0
    2.2696   -0.2471    0.0129 C   0  0  0  0  0  0  0  0  0  0  0  0
    0.6571    1.5641   -0.0664 C   0  0  0  0  0  0  0  0  0  0  0  0
    1.2503   -1.2029    0.0785 C   0  0  0  0  0  0  0  0  0  0  0  0
   -1.8680    0.8438    0.0554 C   0  0  0  0  0  0  0  0  0  0  0  0
   -2.4394   -0.5807   -0.1356 C   0  0  0  0  0  0  0  0  0  0  0  0
   -0.3685    0.6313   -0.0019 C   0  0  0  0  0  0  0  0  0  0  0  0
   -0.0671   -0.7386    0.0644 C   0  0  0  0  0  0  0  0  0  0  0  0
   -1.5090   -2.7715    0.2850 N   0  0  0  0  0  0  0  0  0  0  0  0
   -1.2816   -1.4646    0.1033 N   0  0  0  0  0  0  0  0  0  0  0  0
   -0.5039   -3.4651    0.4386 O   0  0  0  0  0  0  0  0  0  0  0  0
    2.7958    1.8387   -0.1157 H   0  0  0  0  0  0  0  0  0  0  0  0
    3.3033   -0.5814    0.0166 H   0  0  0  0  0  0  0  0  0  0  0  0
    0.4330    2.6268   -0.1166 H   0  0  0  0  0  0  0  0  0  0  0  0
    1.4636   -2.2596    0.1364 H   0  0  0  0  0  0  0  0  0  0  0  0
   -2.1636    1.2622    1.0262 H   0  0  0  0  0  0  0  0  0  0  0  0
   -2.2310    1.5306   -0.7157 H   0  0  0  0  0  0  0  0  0  0  0  0
   -2.8040   -0.7324   -1.1578 H   0  0  0  0  0  0  0  0  0  0  0  0
   -3.2421   -0.8345    0.5588 H   0  0  0  0  0  0  0  0  0  0  0  0
  1  2  1  0  0  0  0
  2 13  1  0  0  0  0
  2  4  2  0  0  0  0
  3  1  2  0  0  0  0
  3  7  1  0  0  0  0
  4 15  1  0  0  0  0
  5 16  1  0  0  0  0
  6  5  1  0  0  0  0
  6 10  1  0  0  0  0
  6 19  1  0  0  0  0
  7  5  1  0  0  0  0
  7  8  2  0  0  0  0
  8  4  1  0  0  0  0
  8 10  1  0  0  0  0
  9 11  2  0  0  0  0
 10  9  1  0  0  0  0
 12  1  1  0  0  0  0
 14  3  1  0  0  0  0
 17  5  1  0  0  0  0
 18  6  1  0  0  0  0
M  END
>  <HBA>
3

>  <HBD>
0

>  <TPSA>
32.67

>  <cid>
24274

>  <dipole>
4.32

>  <excitation_energy_1>
3.021

>  <excitation_energy_2>
4.423

>  <excitation_energy_3>
4.653

>  <excitation_energy_4>
4.901

>  <homo_energy>
-6.038

>  <homo_lumo_gap>
4.68

>  <logP>
1.796

>  <lumo_energy>
-1.358

>  <melting_point>
59.79

>  <molecular_refractivity>
46.37

>  <oscillator_strength_1>
0.0013

>  <oscillator_strength_2>
0.2315

>  <oscillator_strength_3>
0.062

>  <oscillator_strength_4>
0.006

>  <open_babel_can_smiles>
O=NN1CCc2c1cccc2

>  <mulliken_charges>
19
1   -0.123643
2   -0.146662
3   -0.204549
4   -0.147365
5   -0.361896
6   -0.124696
7   0.08672
8   0.356855
9   0.136611
10   -0.386826
11   -0.371625
12   0.133885
13   0.138386
14   0.132063
15   0.181825
16   0.1744
17   0.168444
18   0.176532
19   0.181541

>  <lowdin_charges>
19
1   -0.158324
2   -0.149227
3   -0.159183
4   -0.165446
5   -0.279129
6   -0.187325
7   -0.019653
8   0.033157
9   0.053788
10   -0.024583
11   -0.265936
12   0.161609
13   0.16168
14   0.15848
15   0.184589
16   0.163723
17   0.165159
18   0.158089
19   0.168533

$$$$

