PCCDB-ID:  25374
public computational chemistry database (PCCDB) project, http://pccdb.org

 42 42  0  0  0  0  0  0  0  0999 V2000
    0.5160   -0.3548   -1.4208 C   0  0  0  0  0  0  0  0  0  0  0  0
    0.3108   -0.3338    1.0755 C   0  0  0  0  0  0  0  0  0  0  0  0
    4.4015    2.4125    3.5505 C   0  0  0  0  0  0  0  0  0  0  0  0
    2.0860    3.4144    3.8318 C   0  0  0  0  0  0  0  0  0  0  0  0
    1.7988    5.2494   -0.9937 C   0  0  0  0  0  0  0  0  0  0  0  0
    4.1174    4.4583   -1.6635 C   0  0  0  0  0  0  0  0  0  0  0  0
    2.9413    0.7736    1.2495 C   0  0  0  0  0  0  0  0  0  0  0  0
    2.8578    1.6121   -0.9405 C   0  0  0  0  0  0  0  0  0  0  0  0
    3.0423    3.1415    0.8993 C   0  0  0  0  0  0  0  0  0  0  0  0
    0.8868    0.4032   -0.1371 C   0  0  0  0  0  0  0  0  0  0  0  0
    2.8996    2.2645    3.2219 C   0  0  0  0  0  0  0  0  0  0  0  0
    2.6573    4.0397   -1.3902 C   0  0  0  0  0  0  0  0  0  0  0  0
    2.3684    0.5485   -0.0693 N   0  0  0  0  0  0  0  0  0  0  0  0
    2.5719    2.0856    1.7964 N   0  0  0  0  0  0  0  0  0  0  0  0
    2.4811    2.9353   -0.4338 N   0  0  0  0  0  0  0  0  0  0  0  0
   -0.5738   -0.4223   -1.5201 H   0  0  0  0  0  0  0  0  0  0  0  0
    0.9267   -1.3708   -1.3970 H   0  0  0  0  0  0  0  0  0  0  0  0
    0.8937    0.1374   -2.3231 H   0  0  0  0  0  0  0  0  0  0  0  0
   -0.7584   -0.5108    0.9163 H   0  0  0  0  0  0  0  0  0  0  0  0
    0.4154    0.2510    1.9937 H   0  0  0  0  0  0  0  0  0  0  0  0
    0.7923   -1.3099    1.2159 H   0  0  0  0  0  0  0  0  0  0  0  0
    4.5558    2.4040    4.6358 H   0  0  0  0  0  0  0  0  0  0  0  0
    4.8088    3.3552    3.1673 H   0  0  0  0  0  0  0  0  0  0  0  0
    4.9924    1.5942    3.1243 H   0  0  0  0  0  0  0  0  0  0  0  0
    2.1975    3.4208    4.9222 H   0  0  0  0  0  0  0  0  0  0  0  0
    1.0250    3.3015    3.5888 H   0  0  0  0  0  0  0  0  0  0  0  0
    2.4197    4.3933    3.4677 H   0  0  0  0  0  0  0  0  0  0  0  0
    1.7807    5.9862   -1.8050 H   0  0  0  0  0  0  0  0  0  0  0  0
    2.1865    5.7593   -0.1037 H   0  0  0  0  0  0  0  0  0  0  0  0
    0.7722    4.9324   -0.7861 H   0  0  0  0  0  0  0  0  0  0  0  0
    4.1559    5.1954   -2.4743 H   0  0  0  0  0  0  0  0  0  0  0  0
    4.7356    3.6049   -1.9641 H   0  0  0  0  0  0  0  0  0  0  0  0
    4.5790    4.9160   -0.7807 H   0  0  0  0  0  0  0  0  0  0  0  0
    4.0373    0.6695    1.1324 H   0  0  0  0  0  0  0  0  0  0  0  0
    2.6123    0.0000    1.9460 H   0  0  0  0  0  0  0  0  0  0  0  0
    2.4439    1.4997   -1.9462 H   0  0  0  0  0  0  0  0  0  0  0  0
    3.9552    1.4888   -1.0158 H   0  0  0  0  0  0  0  0  0  0  0  0
    4.1568    3.1589    0.8617 H   0  0  0  0  0  0  0  0  0  0  0  0
    2.7086    4.1099    1.2801 H   0  0  0  0  0  0  0  0  0  0  0  0
    0.4319    1.4041   -0.1661 H   0  0  0  0  0  0  0  0  0  0  0  0
    2.5521    1.3377    3.7001 H   0  0  0  0  0  0  0  0  0  0  0  0
    2.2440    3.6568   -2.3339 H   0  0  0  0  0  0  0  0  0  0  0  0
  1 17  1  0  0  0  0
  1 10  1  0  0  0  0
  2 21  1  0  0  0  0
  2 20  1  0  0  0  0
  3 22  1  0  0  0  0
  4 25  1  0  0  0  0
  5 30  1  0  0  0  0
  5 29  1  0  0  0  0
  6 12  1  0  0  0  0
  6 33  1  0  0  0  0
  7 14  1  0  0  0  0
  7 35  1  0  0  0  0
  8 15  1  0  0  0  0
  8 13  1  0  0  0  0
  9 39  1  0  0  0  0
  9 14  1  0  0  0  0
 10 13  1  0  0  0  0
 10  2  1  0  0  0  0
 11  3  1  0  0  0  0
 11 41  1  0  0  0  0
 11  4  1  0  0  0  0
 12  5  1  0  0  0  0
 12 15  1  0  0  0  0
 13  7  1  0  0  0  0
 14 11  1  0  0  0  0
 15  9  1  0  0  0  0
 16  1  1  0  0  0  0
 18  1  1  0  0  0  0
 19  2  1  0  0  0  0
 23  3  1  0  0  0  0
 24  3  1  0  0  0  0
 26  4  1  0  0  0  0
 27  4  1  0  0  0  0
 28  5  1  0  0  0  0
 31  6  1  0  0  0  0
 32  6  1  0  0  0  0
 34  7  1  0  0  0  0
 36  8  1  0  0  0  0
 37  8  1  0  0  0  0
 38  9  1  0  0  0  0
 40 10  1  0  0  0  0
 42 12  1  0  0  0  0
M  END
>  <HBA>
3

>  <HBD>
0

>  <TPSA>
9.72

>  <cid>
25374

>  <dipole>
1.18

>  <excitation_energy_1>
4.977

>  <excitation_energy_2>
5.086

>  <excitation_energy_3>
5.264

>  <excitation_energy_4>
5.337

>  <homo_energy>
-5.51

>  <homo_lumo_gap>
7.508

>  <logP>
1.817

>  <lumo_energy>
1.997

>  <melting_point>
-0.06

>  <molecular_refractivity>
78.12

>  <oscillator_strength_1>
0.0023

>  <oscillator_strength_2>
0.0053

>  <oscillator_strength_3>
0.0076

>  <oscillator_strength_4>
0.002

>  <open_babel_can_smiles>
CC(N1CN(CN(C1)C(C)C)C(C)C)C

>  <mulliken_charges>
42
1   -0.442172
2   -0.476596
3   -0.458468
4   -0.447482
5   -0.447582
6   -0.456946
7   -0.01698
8   -0.020198
9   0.019858
10   0.082317
11   0.052826
12   0.052689
13   -0.402801
14   -0.400835
15   -0.396515
16   0.134179
17   0.145334
18   0.13788
19   0.141385
20   0.159042
21   0.142933
22   0.141986
23   0.144582
24   0.148461
25   0.139948
26   0.157345
27   0.140406
28   0.139917
29   0.140251
30   0.157756
31   0.141833
32   0.147854
33   0.144483
34   0.117402
35   0.146042
36   0.14059
37   0.118387
38   0.096459
39   0.143558
40   0.138534
41   0.12604
42   0.126298

>  <lowdin_charges>
42
1   -0.445691
2   -0.449645
3   -0.46439
4   -0.445674
5   -0.449923
6   -0.4662
7   -0.144647
8   -0.138262
9   -0.130624
10   -0.05322
11   -0.055275
12   -0.055722
13   -0.183546
14   -0.203101
15   -0.197438
16   0.14424
17   0.148673
18   0.14552
19   0.151189
20   0.15545
21   0.146125
22   0.150192
23   0.148051
24   0.151535
25   0.148684
26   0.155956
27   0.144819
28   0.151148
29   0.145494
30   0.156825
31   0.152317
32   0.151112
33   0.14871
34   0.116852
35   0.150253
36   0.14438
37   0.117466
38   0.095491
39   0.14756
40   0.135573
41   0.139676
42   0.140067

$$$$

