PCCDB-ID:  20073
public computational chemistry database (PCCDB) project, http://pccdb.org

 31 33  0  0  0  0  0  0  0  0999 V2000
    1.4080    0.3363    0.6045 C   0  0  0  0  0  0  0  0  0  0  0  0
   -3.7421   -3.8260   -3.1769 C   0  0  0  0  0  0  0  0  0  0  0  0
   -3.1125   -2.5673   -3.1899 C   0  0  0  0  0  0  0  0  0  0  0  0
   -3.0769   -4.9140   -2.6479 C   0  0  0  0  0  0  0  0  0  0  0  0
   -1.8381   -2.4184   -2.6733 C   0  0  0  0  0  0  0  0  0  0  0  0
   -1.0900   -5.9271   -1.5734 C   0  0  0  0  0  0  0  0  0  0  0  0
    0.1657   -5.8142   -1.0620 C   0  0  0  0  0  0  0  0  0  0  0  0
    2.1566   -4.4446   -0.5108 C   0  0  0  0  0  0  0  0  0  0  0  0
    2.8256   -3.2415   -0.4871 C   0  0  0  0  0  0  0  0  0  0  0  0
    0.9132   -2.1648   -1.5120 C   0  0  0  0  0  0  0  0  0  0  0  0
    2.5698    0.1608   -0.3492 C   0  0  0  0  0  0  0  0  0  0  0  0
   -1.7723   -4.7875   -2.1154 C   0  0  0  0  0  0  0  0  0  0  0  0
    0.8484   -4.5545   -1.0401 C   0  0  0  0  0  0  0  0  0  0  0  0
    2.1946   -2.0709   -0.9751 C   0  0  0  0  0  0  0  0  0  0  0  0
   -1.1304   -3.5119   -2.1209 C   0  0  0  0  0  0  0  0  0  0  0  0
    0.2117   -3.3906   -1.5633 C   0  0  0  0  0  0  0  0  0  0  0  0
    2.9262   -0.8760   -0.9870 N   0  0  0  0  0  0  0  0  0  0  0  0
    3.3512    1.2669   -0.5130 O   0  0  0  0  0  0  0  0  0  0  0  0
    0.8635   -0.5985    0.7407 H   0  0  0  0  0  0  0  0  0  0  0  0
    0.7087    1.0938    0.2292 H   0  0  0  0  0  0  0  0  0  0  0  0
    1.7754    0.6771    1.5811 H   0  0  0  0  0  0  0  0  0  0  0  0
   -4.7438   -3.9393   -3.5824 H   0  0  0  0  0  0  0  0  0  0  0  0
   -3.6284   -1.7069   -3.6076 H   0  0  0  0  0  0  0  0  0  0  0  0
   -3.5498   -5.8934   -2.6349 H   0  0  0  0  0  0  0  0  0  0  0  0
   -1.3782   -1.4363   -2.7015 H   0  0  0  0  0  0  0  0  0  0  0  0
   -1.5993   -6.8877   -1.5846 H   0  0  0  0  0  0  0  0  0  0  0  0
    0.6772   -6.6842   -0.6566 H   0  0  0  0  0  0  0  0  0  0  0  0
    2.6380   -5.3400   -0.1241 H   0  0  0  0  0  0  0  0  0  0  0  0
    3.8357   -3.1654   -0.0966 H   0  0  0  0  0  0  0  0  0  0  0  0
    0.4700   -1.2631   -1.9202 H   0  0  0  0  0  0  0  0  0  0  0  0
    3.0088    1.9848    0.0416 H   0  0  0  0  0  0  0  0  0  0  0  0
  1 19  1  0  0  0  0
  1 21  1  0  0  0  0
  2  4  1  0  0  0  0
  3  2  2  0  0  0  0
  3  5  1  0  0  0  0
  4 24  1  0  0  0  0
  4 12  2  0  0  0  0
  5 15  2  0  0  0  0
  6  7  2  0  0  0  0
  7 13  1  0  0  0  0
  7 27  1  0  0  0  0
  8  9  1  0  0  0  0
  8 28  1  0  0  0  0
  9 29  1  0  0  0  0
 10 14  1  0  0  0  0
 11  1  1  0  0  0  0
 12  6  1  0  0  0  0
 13  8  2  0  0  0  0
 14  9  2  0  0  0  0
 15 12  1  0  0  0  0
 15 16  1  0  0  0  0
 16 10  2  0  0  0  0
 16 13  1  0  0  0  0
 17 14  1  0  0  0  0
 17 11  2  0  0  0  0
 18 11  1  0  0  0  0
 18 31  1  0  0  0  0
 20  1  1  0  0  0  0
 22  2  1  0  0  0  0
 23  3  1  0  0  0  0
 25  5  1  0  0  0  0
 26  6  1  0  0  0  0
 30 10  1  0  0  0  0
M  END
>  <HBA>
2

>  <HBD>
1

>  <TPSA>
29.1

>  <cid>
20073

>  <dipole>
3.75

>  <excitation_energy_1>
3.784

>  <excitation_energy_2>
3.968

>  <excitation_energy_3>
4.564

>  <excitation_energy_4>
4.647

>  <homo_energy>
-5.358

>  <homo_lumo_gap>
4.468

>  <logP>
4.024

>  <lumo_energy>
-0.89

>  <melting_point>
149.27

>  <molecular_refractivity>
75.77

>  <oscillator_strength_1>
0.0112

>  <oscillator_strength_2>
0.1967

>  <oscillator_strength_3>
0.0309

>  <oscillator_strength_4>
0.076

>  <open_babel_can_smiles>
C/C(=N\c1ccc2c(c1)c1ccccc1cc2)/O

>  <mulliken_charges>
31
1   -0.555235
2   -0.128051
3   -0.140079
4   -0.207287
5   -0.185274
6   -0.197433
7   -0.195083
8   -0.216785
9   -0.150617
10   -0.239138
11   0.481921
12   0.142679
13   0.145588
14   0.24391
15   0.054006
16   0.062595
17   -0.466251
18   -0.568434
19   0.200601
20   0.176225
21   0.1719
22   0.128278
23   0.126863
24   0.128028
25   0.13047
26   0.126822
27   0.127697
28   0.130214
29   0.134664
30   0.128524
31   0.408683

>  <lowdin_charges>
31
1   -0.484764
2   -0.156797
3   -0.160686
4   -0.157837
5   -0.157992
6   -0.165661
7   -0.157376
8   -0.153204
9   -0.168088
10   -0.195703
11   0.147912
12   0.000134
13   -0.012215
14   0.049372
15   -0.004889
16   0.001891
17   -0.169535
18   -0.360313
19   0.185416
20   0.171407
21   0.168252
22   0.157011
23   0.157993
24   0.156215
25   0.156071
26   0.157121
27   0.158321
28   0.15849
29   0.16382
30   0.157476
31   0.358158

$$$$

