PCCDB-ID:  24913
public computational chemistry database (PCCDB) project, http://pccdb.org

 20 20  0  0  0  0  0  0  0  0999 V2000
    5.2904   -2.3910   -1.4706 C   0  0  0  0  0  0  0  0  0  0  0  0
    2.0664    0.5207   -5.2764 C   0  0  0  0  0  0  0  0  0  0  0  0
    2.5443    1.3904   -4.2944 C   0  0  0  0  0  0  0  0  0  0  0  0
    1.8882   -0.8353   -4.9882 C   0  0  0  0  0  0  0  0  0  0  0  0
    2.8434    0.9075   -3.0199 C   0  0  0  0  0  0  0  0  0  0  0  0
    2.1870   -1.3232   -3.7177 C   0  0  0  0  0  0  0  0  0  0  0  0
    2.6620   -0.4508   -2.7270 C   0  0  0  0  0  0  0  0  0  0  0  0
    1.6295   -1.6128   -0.5666 O   0  0  0  0  0  0  0  0  0  0  0  0
    3.7381   -0.0504   -0.1955 O   0  0  0  0  0  0  0  0  0  0  0  0
    3.8674   -2.4386   -1.2681 O   0  0  0  0  0  0  0  0  0  0  0  0
    3.0607   -1.0398   -1.0716 P   0  0  2  0  0  0  0  0  0  0  0  0
    5.6470   -3.4195   -1.3915 H   0  0  0  0  0  0  0  0  0  0  0  0
    5.7686   -1.7674   -0.7106 H   0  0  0  0  0  0  0  0  0  0  0  0
    5.5244   -2.0006   -2.4680 H   0  0  0  0  0  0  0  0  0  0  0  0
    1.8332    0.8979   -6.2687 H   0  0  0  0  0  0  0  0  0  0  0  0
    2.6850    2.4437   -4.5208 H   0  0  0  0  0  0  0  0  0  0  0  0
    1.5177   -1.5109   -5.7543 H   0  0  0  0  0  0  0  0  0  0  0  0
    3.2177    1.5708   -2.2462 H   0  0  0  0  0  0  0  0  0  0  0  0
    2.0537   -2.3773   -3.4928 H   0  0  0  0  0  0  0  0  0  0  0  0
    1.6754   -1.8639    0.3717 H   0  0  0  0  0  0  0  0  0  0  0  0
  1 12  1  0  0  0  0
  1 10  1  0  0  0  0
  1 13  1  0  0  0  0
  2  4  2  0  0  0  0
  2  3  1  0  0  0  0
  3  5  2  0  0  0  0
  4  6  1  0  0  0  0
  5  7  1  0  0  0  0
  5 18  1  0  0  0  0
  6 19  1  0  0  0  0
  6  7  2  0  0  0  0
  7 11  1  0  0  0  0
  8 20  1  0  0  0  0
 10 11  1  0  0  0  0
 11  8  1  0  0  0  0
 11  9  2  1  0  0  0
 14  1  1  0  0  0  0
 15  2  1  0  0  0  0
 16  3  1  0  0  0  0
 17  4  1  0  0  0  0
M  END
>  <HBA>
3

>  <HBD>
1

>  <TPSA>
56.34

>  <cid>
24913

>  <dipole>
2.52

>  <excitation_energy_1>
5.243

>  <excitation_energy_2>
5.814

>  <excitation_energy_3>
5.983

>  <excitation_energy_4>
6.264

>  <homo_energy>
-7.097

>  <homo_lumo_gap>
6.289

>  <logP>
1.144

>  <lumo_energy>
-0.808

>  <melting_point>
59.86

>  <molecular_refractivity>
42.85

>  <oscillator_strength_1>
0.0103

>  <oscillator_strength_2>
0.0904

>  <oscillator_strength_3>
0.0016

>  <oscillator_strength_4>
0.0102

>  <open_babel_can_smiles>
CO[P@@](=O)(c1ccccc1)O

>  <mulliken_charges>
20
1   -0.220451
2   -0.123833
3   -0.123443
4   -0.125849
5   -0.160619
6   -0.146624
7   -0.103043
8   -0.642122
9   -0.561928
10   -0.529777
11   1.038287
12   0.168242
13   0.183805
14   0.15906
15   0.139054
16   0.140067
17   0.138756
18   0.174047
19   0.15824
20   0.43813

>  <lowdin_charges>
20
1   -0.271729
2   -0.139255
3   -0.152896
4   -0.156664
5   -0.134911
6   -0.131761
7   -0.190646
8   -0.561269
9   -0.597914
10   -0.409028
11   1.047516
12   0.160431
13   0.167856
14   0.150693
15   0.161315
16   0.161368
17   0.163369
18   0.182628
19   0.171277
20   0.37962

$$$$

