PCCDB-ID:  10005
public computational chemistry database (PCCDB) project, http://pccdb.org

 10  9  0  0  0  0  0  0  0  0999 V2000
    3.1519    1.3127    0.2099 C   0  0  0  0  0  0  0  0  0  0  0  0
    3.1978   -0.9210   -0.7761 C   0  0  0  0  0  0  0  0  0  0  0  0
    3.7185    2.2659    0.5768 N   0  0  0  0  0  0  0  0  0  0  0  0
    2.4366   -1.8569   -1.1943 N   0  0  0  0  0  0  0  0  0  0  0  0
    4.5739   -0.8554   -0.7158 N   0  0  0  0  0  0  0  0  0  0  0  0
    2.5445    0.2112   -0.2317 N   0  0  0  0  0  0  0  0  0  0  0  0
    2.9731   -2.6461   -1.5537 H   0  0  0  0  0  0  0  0  0  0  0  0
    5.0729   -1.4907   -1.3217 H   0  0  0  0  0  0  0  0  0  0  0  0
    5.0119    0.0516   -0.6091 H   0  0  0  0  0  0  0  0  0  0  0  0
    1.5341    0.1427   -0.2163 H   0  0  0  0  0  0  0  0  0  0  0  0
  1  3  3  0  0  0  0
  2  5  2  0  0  0  0
  2  6  1  0  0  0  0
  4  2  1  0  0  0  0
  5  9  1  0  0  0  0
  6 10  1  0  0  0  0
  6  1  1  0  0  0  0
  7  4  1  0  0  0  0
  8  5  1  0  0  0  0
M  RAD  1   4   2
M  END
>  <HBA>
4

>  <HBD>
2

>  <TPSA>
88.19

>  <cid>
10005

>  <dipole>
2.99

>  <excitation_energy_1>
5.597

>  <excitation_energy_2>
5.719

>  <excitation_energy_3>
6.396

>  <excitation_energy_4>
6.599

>  <homo_energy>
-6.789

>  <homo_lumo_gap>
7.135

>  <logP>
0.141

>  <lumo_energy>
0.346

>  <melting_point>
136.36

>  <molecular_refractivity>
20.58

>  <oscillator_strength_1>
0.0025

>  <oscillator_strength_2>
0.0003

>  <oscillator_strength_3>
0.0156

>  <oscillator_strength_4>
0.0661

>  <open_babel_can_smiles>
[NH]C(=[NH2])NC#N

>  <mulliken_charges>
10
1   0.522809
2   0.626032
3   -0.444339
4   -0.639119
5   -0.763579
6   -0.66135
7   0.284916
8   0.340879
9   0.355499
10   0.378252

>  <lowdin_charges>
10
1   0.002261
2   0.150684
3   -0.15621
4   -0.461237
5   -0.487254
6   -0.223345
7   0.261177
8   0.293758
9   0.298524
10   0.321643

$$$$

