PCCDB-ID:  71792
public computational chemistry database (PCCDB) project, http://pccdb.org

 27 28  0  0  1  0  0  0  0  0999 V2000
    2.0480   -0.8369   -2.3892 C   0  0  0  0  0  0  0  0  0  0  0  0
    2.4053   -0.2851   -1.3762 C   0  0  0  0  0  0  0  0  0  0  0  0
    7.0127   -2.0916    0.2792 C   0  0  0  0  0  0  0  0  0  0  0  0
    5.8481   -1.3309    2.3694 C   0  0  0  0  0  0  0  0  0  0  0  0
    7.8840   -0.7983    0.3646 C   0  0  0  0  0  0  0  0  0  0  0  0
    6.7534   -0.0603    2.3538 C   0  0  0  0  0  0  0  0  0  0  0  0
    2.8399    0.3884   -0.1417 C   0  0  0  0  0  0  0  0  0  0  0  0
    5.9383    0.5929    0.1925 C   0  0  0  0  0  0  0  0  0  0  0  0
    5.6393   -1.7862    0.9110 C   0  0  1  0  0  0  0  0  0  0  0  0
    4.9927   -0.6489    0.1048 C   0  0  1  0  0  0  0  0  0  0  0  0
    7.1470    0.3161    0.9834 N   0  0  2  0  0  0  0  0  0  0  0  0
    3.6991   -0.3976    0.6689 O   0  0  0  0  0  0  0  0  0  0  0  0
    1.7255   -1.3258   -3.2805 H   0  0  0  0  0  0  0  0  0  0  0  0
    7.4846   -2.9231    0.8165 H   0  0  0  0  0  0  0  0  0  0  0  0
    6.8881   -2.4150   -0.7621 H   0  0  0  0  0  0  0  0  0  0  0  0
    4.8807   -1.1241    2.8364 H   0  0  0  0  0  0  0  0  0  0  0  0
    6.3185   -2.1417    2.9392 H   0  0  0  0  0  0  0  0  0  0  0  0
    8.2076   -0.4744   -0.6314 H   0  0  0  0  0  0  0  0  0  0  0  0
    8.7898   -0.9701    0.9574 H   0  0  0  0  0  0  0  0  0  0  0  0
    7.6718   -0.2176    2.9312 H   0  0  0  0  0  0  0  0  0  0  0  0
    6.2347    0.7970    2.7977 H   0  0  0  0  0  0  0  0  0  0  0  0
    1.9676    0.6098    0.4835 H   0  0  0  0  0  0  0  0  0  0  0  0
    3.3049    1.3531   -0.4007 H   0  0  0  0  0  0  0  0  0  0  0  0
    5.4034    1.4205    0.6739 H   0  0  0  0  0  0  0  0  0  0  0  0
    6.2522    0.9288   -0.8031 H   0  0  0  0  0  0  0  0  0  0  0  0
    4.9884   -2.6658    0.8714 H   0  0  0  0  0  0  0  0  0  0  0  0
    4.8640   -0.9721   -0.9383 H   0  0  0  0  0  0  0  0  0  0  0  0
  1  2  3  0  0  0  0
  2  7  1  0  0  0  0
  3  5  1  0  0  0  0
  3 14  1  0  0  0  0
  3  9  1  0  0  0  0
  4 16  1  0  0  0  0
  4 17  1  0  0  0  0
  5 19  1  0  0  0  0
  5 11  1  0  0  0  0
  6  4  1  0  0  0  0
  6 21  1  0  0  0  0
  6 20  1  0  0  0  0
  7 22  1  0  0  0  0
  7 12  1  0  0  0  0
  8 24  1  0  0  0  0
  9 26  1  6  0  0  0
  9  4  1  0  0  0  0
 10 27  1  6  0  0  0
 10  8  1  0  0  0  0
 10 12  1  0  0  0  0
 10  9  1  0  0  0  0
 11  8  1  6  0  0  0
 11  6  1  0  0  0  0
 13  1  1  0  0  0  0
 15  3  1  0  0  0  0
 18  5  1  0  0  0  0
 23  7  1  0  0  0  0
 25  8  1  0  0  0  0
M  END
>  <HBA>
2

>  <HBD>
0

>  <TPSA>
12.47

>  <cid>
71792

>  <dipole>
0.87

>  <excitation_energy_1>
4.969

>  <excitation_energy_2>
5.212

>  <excitation_energy_3>
5.418

>  <excitation_energy_4>
5.575

>  <homo_energy>
-5.478

>  <homo_lumo_gap>
6.351

>  <logP>
0.668

>  <lumo_energy>
0.873

>  <melting_point>
26.97

>  <molecular_refractivity>
52.01

>  <oscillator_strength_1>
0.0031

>  <oscillator_strength_2>
0.0076

>  <oscillator_strength_3>
0.0188

>  <oscillator_strength_4>
0.012

>  <open_babel_can_smiles>
C#CCO[C@H]1CN2CC[C@H]1CC2

>  <mulliken_charges>
27
1   -0.477529
2   0.318349
3   -0.290069
4   -0.285732
5   -0.146366
6   -0.146865
7   -0.162454
8   -0.169896
9   -0.119972
10   0.14207
11   -0.376164
12   -0.487037
13   0.192343
14   0.13692
15   0.134542
16   0.157099
17   0.129508
18   0.139963
19   0.141204
20   0.13838
21   0.14246
22   0.179219
23   0.15802
24   0.147098
25   0.140648
26   0.135878
27   0.128385

>  <lowdin_charges>
27
1   -0.243582
2   -0.056239
3   -0.301572
4   -0.303715
5   -0.212151
6   -0.21201
7   -0.119919
8   -0.229703
9   -0.134173
10   -0.022647
11   -0.182809
12   -0.263115
13   0.206592
14   0.14734
15   0.14233
16   0.155084
17   0.143366
18   0.143879
19   0.145582
20   0.144002
21   0.146828
22   0.172597
23   0.150721
24   0.151578
25   0.145225
26   0.150796
27   0.135716

$$$$

