PCCDB-ID:  32804
public computational chemistry database (PCCDB) project, http://pccdb.org

 19 19  0  0  1  0  0  0  0  0999 V2000
    1.1416   -0.2047    0.3694 C   0  0  0  0  0  0  0  0  0  0  0  0
    4.2300    1.0401   -1.5667 C   0  0  0  0  0  0  0  0  0  0  0  0
    2.8373    1.2743   -0.9129 C   0  0  0  0  0  0  0  0  0  0  0  0
    4.5511   -0.4652   -1.3551 C   0  0  0  0  0  0  0  0  0  0  0  0
    2.5978    0.0432   -0.0202 C   0  0  2  0  0  0  0  0  0  0  0  0
    3.2481   -1.0881   -0.8405 C   0  0  2  0  0  0  0  0  0  0  0  0
    3.5384   -2.2711   -0.1055 O   0  0  0  0  0  0  0  0  0  0  0  0
    0.7307    0.6312    0.9471 H   0  0  0  0  0  0  0  0  0  0  0  0
    1.0412   -1.1053    0.9895 H   0  0  0  0  0  0  0  0  0  0  0  0
    0.5116   -0.3355   -0.5205 H   0  0  0  0  0  0  0  0  0  0  0  0
    4.9964    1.6682   -1.1008 H   0  0  0  0  0  0  0  0  0  0  0  0
    4.2148    1.3063   -2.6288 H   0  0  0  0  0  0  0  0  0  0  0  0
    2.0577    1.3221   -1.6856 H   0  0  0  0  0  0  0  0  0  0  0  0
    2.7828    2.2140   -0.3528 H   0  0  0  0  0  0  0  0  0  0  0  0
    5.3121   -0.6015   -0.5777 H   0  0  0  0  0  0  0  0  0  0  0  0
    4.9203   -0.9604   -2.2585 H   0  0  0  0  0  0  0  0  0  0  0  0
    3.2000    0.1430    0.8954 H   0  0  0  0  0  0  0  0  0  0  0  0
    2.5868   -1.3260   -1.6936 H   0  0  0  0  0  0  0  0  0  0  0  0
    2.6944   -2.6824    0.1368 H   0  0  0  0  0  0  0  0  0  0  0  0
  1  8  1  0  0  0  0
  1  9  1  0  0  0  0
  2  4  1  0  0  0  0
  2 11  1  0  0  0  0
  2  3  1  0  0  0  0
  3 14  1  0  0  0  0
  3  5  1  0  0  0  0
  4  6  1  0  0  0  0
  4 15  1  0  0  0  0
  5  1  1  0  0  0  0
  5 17  1  1  0  0  0
  6 18  1  6  0  0  0
  6  7  1  0  0  0  0
  6  5  1  0  0  0  0
  7 19  1  0  0  0  0
 10  1  1  0  0  0  0
 12  2  1  0  0  0  0
 13  3  1  0  0  0  0
 16  4  1  0  0  0  0
M  END
>  <HBA>
1

>  <HBD>
1

>  <TPSA>
20.23

>  <cid>
32804

>  <dipole>
1.49

>  <excitation_energy_1>
6.283

>  <excitation_energy_2>
6.911

>  <excitation_energy_3>
7.068

>  <excitation_energy_4>
7.317

>  <homo_energy>
-6.934

>  <homo_lumo_gap>
8.811

>  <logP>
1.167

>  <lumo_energy>
1.878

>  <melting_point>
14.63

>  <molecular_refractivity>
30.0

>  <oscillator_strength_1>
0.0034

>  <oscillator_strength_2>
0.0047

>  <oscillator_strength_3>
0.0172

>  <oscillator_strength_4>
0.022

>  <open_babel_can_smiles>
O[C@@H]1CCC[C@H]1C

>  <mulliken_charges>
19
1   -0.459429
2   -0.280127
3   -0.274209
4   -0.281209
5   -0.092095
6   0.144666
7   -0.632498
8   0.149548
9   0.130639
10   0.139499
11   0.140168
12   0.137085
13   0.130493
14   0.135881
15   0.150794
16   0.139963
17   0.129966
18   0.101345
19   0.38952

>  <lowdin_charges>
19
1   -0.448964
2   -0.285167
3   -0.284427
4   -0.289292
5   -0.146792
6   -0.008835
7   -0.46258
8   0.154715
9   0.142364
10   0.14561
11   0.147901
12   0.143801
13   0.140062
14   0.146186
15   0.153387
16   0.149485
17   0.141938
18   0.118754
19   0.341852

$$$$

