PCCDB-ID:  10263
public computational chemistry database (PCCDB) project, http://pccdb.org

 24 24  0  0  0  0  0  0  0  0999 V2000
    0.9778    0.0139    0.0862 C   0  0  0  0  0  0  0  0  0  0  0  0
    6.8368    0.0157    0.2466 C   0  0  0  0  0  0  0  0  0  0  0  0
    2.4699   -2.5818    0.1313 C   0  0  0  0  0  0  0  0  0  0  0  0
    5.3462   -2.5810    0.2064 C   0  0  0  0  0  0  0  0  0  0  0  0
    3.2120    1.1584    0.1464 C   0  0  0  0  0  0  0  0  0  0  0  0
    4.6020    1.1588    0.1849 C   0  0  0  0  0  0  0  0  0  0  0  0
    2.4907   -0.0385    0.1284 C   0  0  0  0  0  0  0  0  0  0  0  0
    5.3240   -0.0377    0.2047 C   0  0  0  0  0  0  0  0  0  0  0  0
    3.2017   -1.2562    0.1487 C   0  0  0  0  0  0  0  0  0  0  0  0
    4.6137   -1.2557    0.1867 C   0  0  0  0  0  0  0  0  0  0  0  0
    0.6312    1.0520    0.0740 H   0  0  0  0  0  0  0  0  0  0  0  0
    0.5209   -0.4731    0.9570 H   0  0  0  0  0  0  0  0  0  0  0  0
    0.5703   -0.4777   -0.8062 H   0  0  0  0  0  0  0  0  0  0  0  0
    7.1828    1.0540    0.2569 H   0  0  0  0  0  0  0  0  0  0  0  0
    7.2939   -0.4726   -0.6234 H   0  0  0  0  0  0  0  0  0  0  0  0
    7.2448   -0.4741    1.1398 H   0  0  0  0  0  0  0  0  0  0  0  0
    1.3862   -2.4578    0.1058 H   0  0  0  0  0  0  0  0  0  0  0  0
    2.7092   -3.1863    1.0163 H   0  0  0  0  0  0  0  0  0  0  0  0
    2.7505   -3.1864   -0.7413 H   0  0  0  0  0  0  0  0  0  0  0  0
    6.4298   -2.4563    0.2319 H   0  0  0  0  0  0  0  0  0  0  0  0
    5.1073   -3.1871   -0.6775 H   0  0  0  0  0  0  0  0  0  0  0  0
    5.0657   -3.1842    1.0801 H   0  0  0  0  0  0  0  0  0  0  0  0
    2.6746    2.1040    0.1314 H   0  0  0  0  0  0  0  0  0  0  0  0
    5.1388    2.1047    0.1985 H   0  0  0  0  0  0  0  0  0  0  0  0
  1  7  1  0  0  0  0
  1 12  1  0  0  0  0
  2 14  1  0  0  0  0
  2 16  1  0  0  0  0
  3  9  1  0  0  0  0
  3 18  1  0  0  0  0
  4 20  1  0  0  0  0
  4 22  1  0  0  0  0
  5  6  1  0  0  0  0
  6 24  1  0  0  0  0
  6  8  2  0  0  0  0
  7  5  2  0  0  0  0
  7  9  1  0  0  0  0
  8  2  1  0  0  0  0
  9 10  2  0  0  0  0
 10  8  1  0  0  0  0
 10  4  1  0  0  0  0
 11  1  1  0  0  0  0
 13  1  1  0  0  0  0
 15  2  1  0  0  0  0
 17  3  1  0  0  0  0
 19  3  1  0  0  0  0
 21  4  1  0  0  0  0
 23  5  1  0  0  0  0
M  END
>  <HBA>
0

>  <HBD>
0

>  <TPSA>
0.0

>  <cid>
10263

>  <dipole>
0.55

>  <excitation_energy_1>
5.094

>  <excitation_energy_2>
5.656

>  <excitation_energy_3>
5.706

>  <excitation_energy_4>
5.788

>  <homo_energy>
-5.973

>  <homo_lumo_gap>
6.259

>  <logP>
2.92

>  <lumo_energy>
0.286

>  <melting_point>
21.67

>  <molecular_refractivity>
46.31

>  <oscillator_strength_1>
0.0023

>  <oscillator_strength_2>
0.0

>  <oscillator_strength_3>
0.0023

>  <oscillator_strength_4>
0.0081

>  <open_babel_can_smiles>
Cc1c(C)ccc(c1C)C

>  <mulliken_charges>
24
1   -0.539482
2   -0.539488
3   -0.535813
4   -0.535854
5   -0.184897
6   -0.184966
7   0.136165
8   0.136175
9   0.071271
10   0.07134
11   0.152613
12   0.158217
13   0.158246
14   0.152613
15   0.15822
16   0.158243
17   0.15501
18   0.157094
19   0.157114
20   0.155015
21   0.157096
22   0.157119
23   0.114473
24   0.114476

>  <lowdin_charges>
24
1   -0.444867
2   -0.444864
3   -0.444966
4   -0.444969
5   -0.173132
6   -0.173129
7   -0.01318
8   -0.013179
9   -0.017246
10   -0.017246
11   0.15462
12   0.157398
13   0.157271
14   0.154617
15   0.157407
16   0.157261
17   0.15733
18   0.157749
19   0.157835
20   0.157332
21   0.157752
22   0.157833
23   0.151189
24   0.151186

$$$$

