PCCDB-ID:  66805
public computational chemistry database (PCCDB) project, http://pccdb.org

 36 36  0  0  0  0  0  0  0  0999 V2000
    1.4292   -0.7179   -0.0423 C   0  0  0  0  0  0  0  0  0  0  0  0
    2.4199    0.9619    1.5222 C   0  0  0  0  0  0  0  0  0  0  0  0
    3.9214   -0.6509    0.3429 C   0  0  0  0  0  0  0  0  0  0  0  0
    1.4584   -0.4799   -5.0862 C   0  0  0  0  0  0  0  0  0  0  0  0
    3.5341   -1.1843   -6.0687 C   0  0  0  0  0  0  0  0  0  0  0  0
    2.7251    2.5599   -0.8761 C   0  0  0  0  0  0  0  0  0  0  0  0
    2.8732    3.3926   -1.9873 C   0  0  0  0  0  0  0  0  0  0  0  0
    3.0289    0.6527   -2.2855 C   0  0  0  0  0  0  0  0  0  0  0  0
    3.4511    0.8606   -4.7858 C   0  0  0  0  0  0  0  0  0  0  0  0
    3.1737    1.4565   -3.4161 C   0  0  0  0  0  0  0  0  0  0  0  0
    2.8018    1.1684   -0.9976 C   0  0  0  0  0  0  0  0  0  0  0  0
    3.1000    2.8501   -3.2508 C   0  0  0  0  0  0  0  0  0  0  0  0
    2.6440    0.2097    0.1967 C   0  0  0  0  0  0  0  0  0  0  0  0
    2.9106   -0.4905   -4.9502 N   0  0  0  0  0  0  0  0  0  0  0  0
    3.2657    3.6359   -4.3659 O   0  0  0  0  0  0  0  0  0  0  0  0
    1.3080   -1.4164    0.7953 H   0  0  0  0  0  0  0  0  0  0  0  0
    1.5451   -1.3093   -0.9564 H   0  0  0  0  0  0  0  0  0  0  0  0
    0.5051   -0.1356   -0.1351 H   0  0  0  0  0  0  0  0  0  0  0  0
    2.3246    0.2437    2.3445 H   0  0  0  0  0  0  0  0  0  0  0  0
    1.5028    1.5620    1.5002 H   0  0  0  0  0  0  0  0  0  0  0  0
    3.2580    1.6271    1.7598 H   0  0  0  0  0  0  0  0  0  0  0  0
    3.8237   -1.3428    1.1890 H   0  0  0  0  0  0  0  0  0  0  0  0
    4.7999   -0.0197    0.5200 H   0  0  0  0  0  0  0  0  0  0  0  0
    4.1145   -1.2474   -0.5548 H   0  0  0  0  0  0  0  0  0  0  0  0
    1.0853   -1.5092   -5.1269 H   0  0  0  0  0  0  0  0  0  0  0  0
    1.1166    0.0470   -5.9992 H   0  0  0  0  0  0  0  0  0  0  0  0
    1.0079    0.0134   -4.2204 H   0  0  0  0  0  0  0  0  0  0  0  0
    3.1441   -2.2065   -6.1278 H   0  0  0  0  0  0  0  0  0  0  0  0
    4.6171   -1.2419   -5.9144 H   0  0  0  0  0  0  0  0  0  0  0  0
    3.3520   -0.6950   -7.0464 H   0  0  0  0  0  0  0  0  0  0  0  0
    2.5487    3.0229    0.0885 H   0  0  0  0  0  0  0  0  0  0  0  0
    2.8130    4.4736   -1.8666 H   0  0  0  0  0  0  0  0  0  0  0  0
    3.0891   -0.4197   -2.4450 H   0  0  0  0  0  0  0  0  0  0  0  0
    4.5389    0.7995   -4.9289 H   0  0  0  0  0  0  0  0  0  0  0  0
    3.0824    1.5483   -5.5676 H   0  0  0  0  0  0  0  0  0  0  0  0
    3.1673    4.5647   -4.1055 H   0  0  0  0  0  0  0  0  0  0  0  0
  1 13  1  0  0  0  0
  1 16  1  0  0  0  0
  2 21  1  0  0  0  0
  2 19  1  0  0  0  0
  3 23  1  0  0  0  0
  3 22  1  0  0  0  0
  4 14  1  0  0  0  0
  4 27  1  0  0  0  0
  5 29  1  0  0  0  0
  5 14  1  0  0  0  0
  6 31  1  0  0  0  0
  7 32  1  0  0  0  0
  7  6  2  0  0  0  0
  8 11  2  0  0  0  0
  9 10  1  0  0  0  0
 10 12  2  0  0  0  0
 10  8  1  0  0  0  0
 11  6  1  0  0  0  0
 11 13  1  0  0  0  0
 12  7  1  0  0  0  0
 13  3  1  0  0  0  0
 13  2  1  0  0  0  0
 14  9  1  0  0  0  0
 15 36  1  0  0  0  0
 15 12  1  0  0  0  0
 17  1  1  0  0  0  0
 18  1  1  0  0  0  0
 20  2  1  0  0  0  0
 24  3  1  0  0  0  0
 25  4  1  0  0  0  0
 26  4  1  0  0  0  0
 28  5  1  0  0  0  0
 30  5  1  0  0  0  0
 33  8  1  0  0  0  0
 34  9  1  0  0  0  0
 35  9  1  0  0  0  0
M  END
>  <HBA>
2

>  <HBD>
1

>  <TPSA>
23.47

>  <cid>
66805

>  <dipole>
1.1

>  <excitation_energy_1>
4.82

>  <excitation_energy_2>
4.911

>  <excitation_energy_3>
4.958

>  <excitation_energy_4>
5.227

>  <homo_energy>
-5.63

>  <homo_lumo_gap>
5.785

>  <logP>
2.751

>  <lumo_energy>
0.155

>  <melting_point>
59.23

>  <molecular_refractivity>
65.21

>  <oscillator_strength_1>
0.0063

>  <oscillator_strength_2>
0.0406

>  <oscillator_strength_3>
0.0006

>  <oscillator_strength_4>
0.0129

>  <open_babel_can_smiles>
CN(Cc1cc(ccc1O)C(C)(C)C)C

>  <mulliken_charges>
36
1   -0.438861
2   -0.456686
3   -0.438822
4   -0.302865
5   -0.291374
6   -0.204844
7   -0.193878
8   -0.258009
9   -0.18107
10   0.103117
11   0.184973
12   0.290928
13   0.021306
14   -0.372281
15   -0.651453
16   0.134552
17   0.146577
18   0.142946
19   0.13933
20   0.142457
21   0.143086
22   0.13436
23   0.144005
24   0.146246
25   0.14494
26   0.118
27   0.161101
28   0.146513
29   0.148616
30   0.11745
31   0.123111
32   0.111039
33   0.144897
34   0.152066
35   0.142175
36   0.406355

>  <lowdin_charges>
36
1   -0.440657
2   -0.445363
3   -0.441104
4   -0.360487
5   -0.351944
6   -0.16702
7   -0.213298
8   -0.158404
9   -0.196405
10   -0.0406
11   -0.019142
12   0.087862
13   0.018173
14   -0.18156
15   -0.385154
16   0.145175
17   0.150422
18   0.149454
19   0.149957
20   0.14794
21   0.148911
22   0.145011
23   0.150382
24   0.150531
25   0.14716
26   0.121229
27   0.157478
28   0.147812
29   0.147124
30   0.119864
31   0.158438
32   0.147678
33   0.163028
34   0.152773
35   0.139098
36   0.355637

$$$$

