PCCDB-ID:  39359
public computational chemistry database (PCCDB) project, http://pccdb.org

 28 27  0  0  1  0  0  0  0  0999 V2000
    0.7766    0.1795    1.4246 C   0  0  0  0  0  0  0  0  0  0  0  0
    4.7074   -4.1401    1.5538 C   0  0  0  0  0  0  0  0  0  0  0  0
    5.4368   -3.5860    3.9067 C   0  0  0  0  0  0  0  0  0  0  0  0
    5.1993    0.2242    0.6146 C   0  0  0  0  0  0  0  0  0  0  0  0
    2.0974   -0.1523    0.7331 C   0  0  0  0  0  0  0  0  0  0  0  0
    5.2036   -1.7181    2.2223 C   0  0  0  0  0  0  0  0  0  0  0  0
    4.6614   -3.0912    2.6757 C   0  0  0  0  0  0  0  0  0  0  0  0
    4.3957   -0.9718    1.1446 C   0  0  1  0  0  0  0  0  0  0  0  0
    3.1215   -0.5093    1.7142 N   0  0  0  0  0  0  0  0  0  0  0  0
    0.0162    0.4743    0.6930 H   0  0  0  0  0  0  0  0  0  0  0  0
    0.9112    0.9983    2.1388 H   0  0  0  0  0  0  0  0  0  0  0  0
    0.3882   -0.6878    1.9745 H   0  0  0  0  0  0  0  0  0  0  0  0
    4.3258   -5.1062    1.9048 H   0  0  0  0  0  0  0  0  0  0  0  0
    5.7388   -4.2956    1.2107 H   0  0  0  0  0  0  0  0  0  0  0  0
    4.1093   -3.8440    0.6852 H   0  0  0  0  0  0  0  0  0  0  0  0
    5.0509   -4.5504    4.2575 H   0  0  0  0  0  0  0  0  0  0  0  0
    5.3679   -2.8721    4.7359 H   0  0  0  0  0  0  0  0  0  0  0  0
    6.5007   -3.7199    3.6706 H   0  0  0  0  0  0  0  0  0  0  0  0
    6.1400   -0.1125    0.1635 H   0  0  0  0  0  0  0  0  0  0  0  0
    5.4295    0.9171    1.4317 H   0  0  0  0  0  0  0  0  0  0  0  0
    4.6458    0.7778   -0.1509 H   0  0  0  0  0  0  0  0  0  0  0  0
    2.4390    0.7273    0.1744 H   0  0  0  0  0  0  0  0  0  0  0  0
    1.9345   -0.9518   -0.0176 H   0  0  0  0  0  0  0  0  0  0  0  0
    6.2283   -1.8621    1.8511 H   0  0  0  0  0  0  0  0  0  0  0  0
    5.2788   -1.0535    3.0945 H   0  0  0  0  0  0  0  0  0  0  0  0
    3.6097   -2.9761    2.9829 H   0  0  0  0  0  0  0  0  0  0  0  0
    4.2207   -1.6580    0.2922 H   0  0  0  0  0  0  0  0  0  0  0  0
    2.7407   -1.2457    2.3064 H   0  0  0  0  0  0  0  0  0  0  0  0
  1 12  1  0  0  0  0
  1 11  1  0  0  0  0
  2 13  1  0  0  0  0
  2  7  1  0  0  0  0
  3 16  1  0  0  0  0
  3 17  1  0  0  0  0
  4  8  1  0  0  0  0
  4 20  1  0  0  0  0
  5  1  1  0  0  0  0
  5  9  1  0  0  0  0
  6  7  1  0  0  0  0
  6 25  1  0  0  0  0
  7 26  1  0  0  0  0
  7  3  1  0  0  0  0
  8 27  1  6  0  0  0
  8  9  1  0  0  0  0
  8  6  1  0  0  0  0
  9 28  1  0  0  0  0
 10  1  1  0  0  0  0
 14  2  1  0  0  0  0
 15  2  1  0  0  0  0
 18  3  1  0  0  0  0
 19  4  1  0  0  0  0
 21  4  1  0  0  0  0
 22  5  1  0  0  0  0
 23  5  1  0  0  0  0
 24  6  1  0  0  0  0
M  END
>  <HBA>
1

>  <HBD>
1

>  <TPSA>
12.03

>  <cid>
39359

>  <dipole>
0.91

>  <excitation_energy_1>
5.457

>  <excitation_energy_2>
5.797

>  <excitation_energy_3>
5.987

>  <excitation_energy_4>
6.029

>  <homo_energy>
-5.815

>  <homo_lumo_gap>
7.902

>  <logP>
2.421

>  <lumo_energy>
2.087

>  <melting_point>
-0.71

>  <molecular_refractivity>
43.37

>  <oscillator_strength_1>
0.0027

>  <oscillator_strength_2>
0.0384

>  <oscillator_strength_3>
0.0241

>  <oscillator_strength_4>
0.0416

>  <open_babel_can_smiles>
CCN[C@H](CC(C)C)C

>  <mulliken_charges>
28
1   -0.454091
2   -0.444147
3   -0.441153
4   -0.439505
5   -0.108183
6   -0.266307
7   -0.079541
8   0.062141
9   -0.564928
10   0.143622
11   0.158952
12   0.136617
13   0.139971
14   0.139468
15   0.146321
16   0.139351
17   0.142528
18   0.139811
19   0.134456
20   0.149851
21   0.141434
22   0.14188
23   0.107144
24   0.125993
25   0.137796
26   0.115054
27   0.101902
28   0.293562

>  <lowdin_charges>
28
1   -0.450361
2   -0.446929
3   -0.442079
4   -0.449838
5   -0.20009
6   -0.282078
7   -0.12184
8   -0.059967
9   -0.36931
10   0.153212
11   0.156454
12   0.144239
13   0.148045
14   0.14515
15   0.149181
16   0.147399
17   0.149254
18   0.144508
19   0.146759
20   0.153245
21   0.149521
22   0.141436
23   0.113964
24   0.141985
25   0.14724
26   0.128189
27   0.114388
28   0.248324

$$$$

