PCCDB-ID:  10748
public computational chemistry database (PCCDB) project, http://pccdb.org

 21 22  0  0  0  0  0  0  0  0999 V2000
    0.9987   -0.1143   -0.2497 C   0  0  0  0  0  0  0  0  0  0  0  0
    5.2081    2.1807    0.0542 C   0  0  0  0  0  0  0  0  0  0  0  0
    5.2846    4.7011    0.1107 C   0  0  0  0  0  0  0  0  0  0  0  0
    4.4648    1.0197   -0.0120 C   0  0  0  0  0  0  0  0  0  0  0  0
    4.6090    5.8752    0.1002 C   0  0  0  0  0  0  0  0  0  0  0  0
    2.4098    2.3272   -0.0989 C   0  0  0  0  0  0  0  0  0  0  0  0
    4.5866    3.4472    0.0461 C   0  0  0  0  0  0  0  0  0  0  0  0
    3.0564    1.0898   -0.0908 C   0  0  0  0  0  0  0  0  0  0  0  0
    3.1823    3.4890   -0.0303 C   0  0  0  0  0  0  0  0  0  0  0  0
    3.1554    5.9178    0.0250 C   0  0  0  0  0  0  0  0  0  0  0  0
    2.4621    6.9068    0.0142 O   0  0  0  0  0  0  0  0  0  0  0  0
    2.4183   -0.1058   -0.1552 O   0  0  0  0  0  0  0  0  0  0  0  0
    2.5094    4.6737   -0.0425 O   0  0  0  0  0  0  0  0  0  0  0  0
    0.7113   -1.1654   -0.3016 H   0  0  0  0  0  0  0  0  0  0  0  0
    0.6558    0.4038   -1.1540 H   0  0  0  0  0  0  0  0  0  0  0  0
    0.5367    0.3476    0.6318 H   0  0  0  0  0  0  0  0  0  0  0  0
    6.2922    2.1278    0.1135 H   0  0  0  0  0  0  0  0  0  0  0  0
    6.3709    4.6910    0.1695 H   0  0  0  0  0  0  0  0  0  0  0  0
    4.9336    0.0417   -0.0065 H   0  0  0  0  0  0  0  0  0  0  0  0
    5.1051    6.8372    0.1491 H   0  0  0  0  0  0  0  0  0  0  0  0
    1.3336    2.4264   -0.1571 H   0  0  0  0  0  0  0  0  0  0  0  0
  1 12  1  0  0  0  0
  1 16  1  0  0  0  0
  2 17  1  0  0  0  0
  3 18  1  0  0  0  0
  4 19  1  0  0  0  0
  4  2  2  0  0  0  0
  5  3  2  0  0  0  0
  5 20  1  0  0  0  0
  6  8  2  0  0  0  0
  6  9  1  0  0  0  0
  7  2  1  0  0  0  0
  7  3  1  0  0  0  0
  8  4  1  0  0  0  0
  9  7  2  0  0  0  0
 10  5  1  0  0  0  0
 11 10  2  0  0  0  0
 12  8  1  0  0  0  0
 13  9  1  0  0  0  0
 13 10  1  0  0  0  0
 14  1  1  0  0  0  0
 15  1  1  0  0  0  0
 21  6  1  0  0  0  0
M  END
>  <HBA>
3

>  <HBD>
0

>  <TPSA>
39.44

>  <cid>
10748

>  <dipole>
4.37

>  <excitation_energy_1>
4.062

>  <excitation_energy_2>
4.477

>  <excitation_energy_3>
4.571

>  <excitation_energy_4>
5.081

>  <homo_energy>
-6.038

>  <homo_lumo_gap>
4.411

>  <logP>
1.802

>  <lumo_energy>
-1.627

>  <melting_point>
88.43

>  <molecular_refractivity>
48.98

>  <oscillator_strength_1>
0.3255

>  <oscillator_strength_2>
0.0203

>  <oscillator_strength_3>
0.0

>  <oscillator_strength_4>
0.06

>  <open_babel_can_smiles>
COc1ccc2c(c1)oc(=O)cc2

>  <mulliken_charges>
21
1   -0.221457
2   -0.200147
3   -0.121052
4   -0.170986
5   -0.224011
6   -0.256388
7   0.123268
8   0.38778
9   0.317869
10   0.593818
11   -0.467202
12   -0.502313
13   -0.522559
14   0.177444
15   0.161854
16   0.161839
17   0.143145
18   0.15313
19   0.147548
20   0.161286
21   0.157133

>  <lowdin_charges>
21
1   -0.27614
2   -0.133652
3   -0.103634
4   -0.188531
5   -0.211046
6   -0.232073
7   -0.059709
8   0.118531
9   0.124831
10   0.19893
11   -0.243836
12   -0.185787
13   -0.138425
14   0.166016
15   0.15178
16   0.151995
17   0.162969
18   0.166651
19   0.172296
20   0.180953
21   0.17788

$$$$

