PCCDB-ID:  70968
public computational chemistry database (PCCDB) project, http://pccdb.org

 19 19  0  0  0  0  0  0  0  0999 V2000
    0.8761   -0.0995    0.2441 C   0  0  0  0  0  0  0  0  0  0  0  0
    6.0220    4.0827   -0.4804 C   0  0  0  0  0  0  0  0  0  0  0  0
    3.1934   -1.3080   -0.0270 C   0  0  0  0  0  0  0  0  0  0  0  0
    4.5073   -0.7854   -0.1204 C   0  0  0  0  0  0  0  0  0  0  0  0
    2.3519   -0.2282    0.1054 C   0  0  0  0  0  0  0  0  0  0  0  0
    5.0792    3.0863    0.1527 C   0  0  0  0  0  0  0  0  0  0  0  0
    4.3936    0.5836   -0.0307 C   0  0  0  0  0  0  0  0  0  0  0  0
    5.4311    1.6017   -0.0987 C   0  0  0  0  0  0  0  0  0  0  0  0
    4.1433    3.3947    0.8625 O   0  0  0  0  0  0  0  0  0  0  0  0
    6.6015    1.3029   -0.3211 O   0  0  0  0  0  0  0  0  0  0  0  0
    3.0676    0.9217    0.1049 O   0  0  0  0  0  0  0  0  0  0  0  0
    0.4107   -1.0883    0.2345 H   0  0  0  0  0  0  0  0  0  0  0  0
    0.4519    0.4928   -0.5754 H   0  0  0  0  0  0  0  0  0  0  0  0
    0.6110    0.4020    1.1823 H   0  0  0  0  0  0  0  0  0  0  0  0
    5.9631    4.0120   -1.5740 H   0  0  0  0  0  0  0  0  0  0  0  0
    7.0554    3.8466   -0.2093 H   0  0  0  0  0  0  0  0  0  0  0  0
    5.7560    5.0916   -0.1599 H   0  0  0  0  0  0  0  0  0  0  0  0
    2.8941   -2.3465   -0.0549 H   0  0  0  0  0  0  0  0  0  0  0  0
    5.4359   -1.3253   -0.2380 H   0  0  0  0  0  0  0  0  0  0  0  0
  1 14  1  0  0  0  0
  2 16  1  0  0  0  0
  2 17  1  0  0  0  0
  2  6  1  0  0  0  0
  3  5  2  0  0  0  0
  4  7  2  0  0  0  0
  4  3  1  0  0  0  0
  5  1  1  0  0  0  0
  6  9  2  0  0  0  0
  7 11  1  0  0  0  0
  8  7  1  0  0  0  0
  8  6  1  0  0  0  0
 10  8  2  0  0  0  0
 11  5  1  0  0  0  0
 12  1  1  0  0  0  0
 13  1  1  0  0  0  0
 15  2  1  0  0  0  0
 18  3  1  0  0  0  0
 19  4  1  0  0  0  0
M  END
>  <HBA>
3

>  <HBD>
0

>  <TPSA>
47.28

>  <cid>
70968

>  <dipole>
2.92

>  <excitation_energy_1>
2.704

>  <excitation_energy_2>
3.831

>  <excitation_energy_3>
4.313

>  <excitation_energy_4>
4.877

>  <homo_energy>
-6.332

>  <homo_lumo_gap>
4.098

>  <logP>
1.36

>  <lumo_energy>
-2.234

>  <melting_point>
63.01

>  <molecular_refractivity>
38.88

>  <oscillator_strength_1>
0.0004

>  <oscillator_strength_2>
0.2368

>  <oscillator_strength_3>
0.001

>  <oscillator_strength_4>
0.0023

>  <open_babel_can_smiles>
Cc1ccc(o1)C(=O)C(=O)C

>  <mulliken_charges>
19
1   -0.533103
2   -0.526892
3   -0.213548
4   -0.160227
5   0.370522
6   0.387329
7   0.293652
8   0.308409
9   -0.411121
10   -0.474343
11   -0.453568
12   0.171323
13   0.183108
14   0.188373
15   0.176309
16   0.19798
17   0.175543
18   0.148777
19   0.171477

>  <lowdin_charges>
19
1   -0.442272
2   -0.466576
3   -0.2161
4   -0.147155
5   0.102431
6   0.141809
7   0.026035
8   0.111529
9   -0.201438
10   -0.241985
11   -0.080169
12   0.171024
13   0.176025
14   0.177766
15   0.174479
16   0.186295
17   0.171044
18   0.17161
19   0.185647

$$$$

