PCCDB-ID:  13879
public computational chemistry database (PCCDB) project, http://pccdb.org

 23 23  0  0  0  0  0  0  0  0999 V2000
    2.6674   -0.8982   -2.4436 C   0  0  0  0  0  0  0  0  0  0  0  0
    2.1811   -1.7534   -1.2763 C   0  0  0  0  0  0  0  0  0  0  0  0
   -2.7971   -1.0724    1.2419 C   0  0  0  0  0  0  0  0  0  0  0  0
   -2.2926   -2.3599    1.0580 C   0  0  0  0  0  0  0  0  0  0  0  0
   -1.9143   -0.0046    1.4223 C   0  0  0  0  0  0  0  0  0  0  0  0
   -0.9130   -2.5775    1.0545 C   0  0  0  0  0  0  0  0  0  0  0  0
   -0.5373   -0.2232    1.4191 C   0  0  0  0  0  0  0  0  0  0  0  0
    1.4835   -1.7420    1.2297 C   0  0  0  0  0  0  0  0  0  0  0  0
   -0.0208   -1.5148    1.2387 C   0  0  0  0  0  0  0  0  0  0  0  0
    2.1389   -1.0113    0.0513 C   0  0  0  0  0  0  0  0  0  0  0  0
    2.5713    0.1184    0.1838 O   0  0  0  0  0  0  0  0  0  0  0  0
    2.6994   -1.4852   -3.3673 H   0  0  0  0  0  0  0  0  0  0  0  0
    3.6683   -0.5037   -2.2466 H   0  0  0  0  0  0  0  0  0  0  0  0
    2.0057   -0.0410   -2.6029 H   0  0  0  0  0  0  0  0  0  0  0  0
    2.8270   -2.6346   -1.1375 H   0  0  0  0  0  0  0  0  0  0  0  0
    1.1777   -2.1612   -1.4651 H   0  0  0  0  0  0  0  0  0  0  0  0
   -3.8702   -0.9010    1.2445 H   0  0  0  0  0  0  0  0  0  0  0  0
   -2.9707   -3.1978    0.9185 H   0  0  0  0  0  0  0  0  0  0  0  0
   -2.2992    1.0015    1.5672 H   0  0  0  0  0  0  0  0  0  0  0  0
   -0.5262   -3.5849    0.9169 H   0  0  0  0  0  0  0  0  0  0  0  0
    0.1491    0.6095    1.5485 H   0  0  0  0  0  0  0  0  0  0  0  0
    1.6942   -2.8162    1.1757 H   0  0  0  0  0  0  0  0  0  0  0  0
    1.9338   -1.3461    2.1461 H   0  0  0  0  0  0  0  0  0  0  0  0
  1 13  1  0  0  0  0
  1  2  1  0  0  0  0
  2 15  1  0  0  0  0
  2 10  1  0  0  0  0
  3 17  1  0  0  0  0
  3  5  2  0  0  0  0
  4  3  1  0  0  0  0
  5 19  1  0  0  0  0
  6  4  2  0  0  0  0
  6  9  1  0  0  0  0
  7  5  1  0  0  0  0
  7 21  1  0  0  0  0
  8  9  1  0  0  0  0
  8 23  1  0  0  0  0
  9  7  2  0  0  0  0
 10 11  2  0  0  0  0
 10  8  1  0  0  0  0
 12  1  1  0  0  0  0
 14  1  1  0  0  0  0
 16  2  1  0  0  0  0
 18  4  1  0  0  0  0
 20  6  1  0  0  0  0
 22  8  1  0  0  0  0
M  END
>  <HBA>
1

>  <HBD>
0

>  <TPSA>
17.07

>  <cid>
13879

>  <dipole>
2.46

>  <excitation_energy_1>
4.248

>  <excitation_energy_2>
5.119

>  <excitation_energy_3>
5.419

>  <excitation_energy_4>
5.607

>  <homo_energy>
-6.351

>  <homo_lumo_gap>
5.777

>  <logP>
2.208

>  <lumo_energy>
-0.574

>  <melting_point>
26.55

>  <molecular_refractivity>
46.03

>  <oscillator_strength_1>
0.0116

>  <oscillator_strength_2>
0.0002

>  <oscillator_strength_3>
0.062

>  <oscillator_strength_4>
0.0374

>  <open_babel_can_smiles>
CCC(=O)Cc1ccccc1

>  <mulliken_charges>
23
1   -0.434362
2   -0.352444
3   -0.129492
4   -0.12712
5   -0.128491
6   -0.187252
7   -0.172455
8   -0.4201
9   0.15034
10   0.461827
11   -0.445253
12   0.140274
13   0.163311
14   0.160534
15   0.159705
16   0.166393
17   0.130837
18   0.130624
19   0.13358
20   0.123441
21   0.15137
22   0.147986
23   0.176747

>  <lowdin_charges>
23
1   -0.4401
2   -0.30706
3   -0.155812
4   -0.156068
5   -0.150957
6   -0.170497
7   -0.162319
8   -0.301739
9   -0.003074
10   0.165412
11   -0.237728
12   0.150653
13   0.159397
14   0.159043
15   0.162179
16   0.163927
17   0.156575
18   0.159097
19   0.158826
20   0.153454
21   0.168768
22   0.154813
23   0.17321

$$$$

