PCCDB-ID:  16139
public computational chemistry database (PCCDB) project, http://pccdb.org

 23 25  0  0  0  0  0  0  0  0999 V2000
   -3.0437   -1.1737   -0.0000 C   0  0  0  0  0  0  0  0  0  0  0  0
   -3.4740    0.1561    0.0004 C   0  0  0  0  0  0  0  0  0  0  0  0
    3.4623    0.1348   -0.0012 C   0  0  0  0  0  0  0  0  0  0  0  0
   -1.6792   -1.5035   -0.0005 C   0  0  0  0  0  0  0  0  0  0  0  0
   -2.5384    1.1993    0.0003 C   0  0  0  0  0  0  0  0  0  0  0  0
    2.5383    1.1874   -0.0013 C   0  0  0  0  0  0  0  0  0  0  0  0
    3.0278   -1.1916   -0.0015 C   0  0  0  0  0  0  0  0  0  0  0  0
   -0.7506   -0.4675   -0.0009 C   0  0  0  0  0  0  0  0  0  0  0  0
   -1.1908    0.8731   -0.0005 C   0  0  0  0  0  0  0  0  0  0  0  0
    1.1909    0.8615   -0.0014 C   0  0  0  0  0  0  0  0  0  0  0  0
    1.6580   -1.5086   -0.0014 C   0  0  0  0  0  0  0  0  0  0  0  0
    0.7299   -0.4684   -0.0015 C   0  0  0  0  0  0  0  0  0  0  0  0
    0.0002    1.7787   -0.0016 C   0  0  0  0  0  0  0  0  0  0  0  0
    1.2000   -2.7971   -0.0015 O   0  0  0  0  0  0  0  0  0  0  0  0
    0.0114    2.9971   -0.0033 O   0  0  0  0  0  0  0  0  0  0  0  0
   -3.7808   -1.9725   -0.0002 H   0  0  0  0  0  0  0  0  0  0  0  0
   -4.5372    0.3793    0.0003 H   0  0  0  0  0  0  0  0  0  0  0  0
    4.5286    0.3420   -0.0016 H   0  0  0  0  0  0  0  0  0  0  0  0
   -1.3575   -2.5391   -0.0000 H   0  0  0  0  0  0  0  0  0  0  0  0
   -2.8467    2.2412    0.0015 H   0  0  0  0  0  0  0  0  0  0  0  0
    2.8530    2.2264   -0.0007 H   0  0  0  0  0  0  0  0  0  0  0  0
    3.7582   -1.9993   -0.0013 H   0  0  0  0  0  0  0  0  0  0  0  0
    1.9567   -3.4042   -0.0004 H   0  0  0  0  0  0  0  0  0  0  0  0
  1  2  2  0  0  0  0
  4  1  1  0  0  0  0
  4 19  1  0  0  0  0
  5  2  1  0  0  0  0
  5 20  1  0  0  0  0
  6  3  2  0  0  0  0
  6 21  1  0  0  0  0
  7 11  2  0  0  0  0
  7 22  1  0  0  0  0
  7  3  1  0  0  0  0
  8  4  2  0  0  0  0
  8  9  1  0  0  0  0
  9  5  2  0  0  0  0
 10  6  1  0  0  0  0
 12 10  2  0  0  0  0
 12 11  1  0  0  0  0
 12  8  1  0  0  0  0
 13 10  1  0  0  0  0
 13  9  1  0  0  0  0
 14 11  1  0  0  0  0
 14 23  1  0  0  0  0
 15 13  2  0  0  0  0
 16  1  1  0  0  0  0
 17  2  1  0  0  0  0
 18  3  1  0  0  0  0
M  END
>  <HBA>
2

>  <HBD>
1

>  <TPSA>
37.3

>  <cid>
16139

>  <dipole>
4.25

>  <excitation_energy_1>
2.977

>  <excitation_energy_2>
3.151

>  <excitation_energy_3>
3.797

>  <excitation_energy_4>
4.203

>  <homo_energy>
-5.978

>  <homo_lumo_gap>
3.791

>  <logP>
2.604

>  <lumo_energy>
-2.188

>  <melting_point>
140.69

>  <molecular_refractivity>
57.33

>  <oscillator_strength_1>
0.0211

>  <oscillator_strength_2>
0.0

>  <oscillator_strength_3>
0.0595

>  <oscillator_strength_4>
0.0268

>  <open_babel_can_smiles>
Oc1cccc2c1c1ccccc1C2=O

>  <mulliken_charges>
23
1   -0.129575
2   -0.135101
3   -0.13865
4   -0.190686
5   -0.178271
6   -0.180389
7   -0.181765
8   0.090883
9   0.043813
10   0.029715
11   0.273997
12   0.054013
13   0.338277
14   -0.64507
15   -0.464141
16   0.136113
17   0.135609
18   0.139672
19   0.155213
20   0.154762
21   0.154669
22   0.124792
23   0.41212

>  <lowdin_charges>
23
1   -0.139315
2   -0.156947
3   -0.142246
4   -0.158421
5   -0.125208
6   -0.146015
7   -0.19664
8   0.010041
9   -0.051521
10   -0.036996
11   0.100418
12   -0.027219
13   0.151122
14   -0.375009
15   -0.222557
16   0.161963
17   0.159481
18   0.161851
19   0.170328
20   0.170809
21   0.172476
22   0.157853
23   0.361754

$$$$

