PCCDB-ID:  18196
public computational chemistry database (PCCDB) project, http://pccdb.org

 35 34  0  0  0  0  0  0  0  0999 V2000
    3.3936    0.1434   -1.2929 C   0  0  0  0  0  0  0  0  0  0  0  0
    5.5258    1.0318   -1.9315 C   0  0  0  0  0  0  0  0  0  0  0  0
    9.4014    0.3971    3.4535 C   0  0  0  0  0  0  0  0  0  0  0  0
    8.8338    1.2499    5.6203 C   0  0  0  0  0  0  0  0  0  0  0  0
    4.1503   -0.4207    3.8551 C   0  0  0  0  0  0  0  0  0  0  0  0
    5.0483    0.6857    0.4055 C   0  0  0  0  0  0  0  0  0  0  0  0
    7.0751    0.8049    4.0350 C   0  0  0  0  0  0  0  0  0  0  0  0
    4.6021   -0.3205    1.4759 C   0  0  0  0  0  0  0  0  0  0  0  0
    6.4391   -0.2266    3.0920 C   0  0  0  0  0  0  0  0  0  0  0  0
    4.8106    0.2161   -0.9593 N   0  0  0  0  0  0  0  0  0  0  0  0
    8.4000    0.4098    4.5122 N   0  0  0  0  0  0  0  0  0  0  0  0
    5.0339    0.0928    2.8148 N   0  0  0  0  0  0  0  0  0  0  0  0
    3.2793   -0.2310   -2.3159 H   0  0  0  0  0  0  0  0  0  0  0  0
    2.8809    1.1247   -1.2287 H   0  0  0  0  0  0  0  0  0  0  0  0
    2.8761   -0.5536   -0.6272 H   0  0  0  0  0  0  0  0  0  0  0  0
    5.3831    0.6174   -2.9358 H   0  0  0  0  0  0  0  0  0  0  0  0
    6.5985    1.0195   -1.7093 H   0  0  0  0  0  0  0  0  0  0  0  0
    5.1926    2.0890   -1.9497 H   0  0  0  0  0  0  0  0  0  0  0  0
   10.3664    0.0877    3.8693 H   0  0  0  0  0  0  0  0  0  0  0  0
    9.5385    1.3871    2.9724 H   0  0  0  0  0  0  0  0  0  0  0  0
    9.1318   -0.3235    2.6758 H   0  0  0  0  0  0  0  0  0  0  0  0
    9.7958    0.8891    6.0016 H   0  0  0  0  0  0  0  0  0  0  0  0
    8.1042    1.1953    6.4356 H   0  0  0  0  0  0  0  0  0  0  0  0
    8.9569    2.3161    5.3426 H   0  0  0  0  0  0  0  0  0  0  0  0
    3.1302   -0.0579    3.6896 H   0  0  0  0  0  0  0  0  0  0  0  0
    4.4740   -0.0599    4.8364 H   0  0  0  0  0  0  0  0  0  0  0  0
    4.1222   -1.5272    3.8976 H   0  0  0  0  0  0  0  0  0  0  0  0
    6.1265    0.8557    0.5072 H   0  0  0  0  0  0  0  0  0  0  0  0
    4.5587    1.6591    0.6074 H   0  0  0  0  0  0  0  0  0  0  0  0
    6.4334    0.9187    4.9163 H   0  0  0  0  0  0  0  0  0  0  0  0
    7.0876    1.7907    3.5282 H   0  0  0  0  0  0  0  0  0  0  0  0
    4.9684   -1.3274    1.2028 H   0  0  0  0  0  0  0  0  0  0  0  0
    3.5086   -0.3772    1.4893 H   0  0  0  0  0  0  0  0  0  0  0  0
    6.5528   -1.2353    3.5303 H   0  0  0  0  0  0  0  0  0  0  0  0
    6.9811   -0.2361    2.1419 H   0  0  0  0  0  0  0  0  0  0  0  0
  1 14  1  0  0  0  0
  1 10  1  0  0  0  0
  1 15  1  0  0  0  0
  2 17  1  0  0  0  0
  2 10  1  0  0  0  0
  3 19  1  0  0  0  0
  3 11  1  0  0  0  0
  4 22  1  0  0  0  0
  4 23  1  0  0  0  0
  5 27  1  0  0  0  0
  5 26  1  0  0  0  0
  6 28  1  0  0  0  0
  6 29  1  0  0  0  0
  6  8  1  0  0  0  0
  7 11  1  0  0  0  0
  7 30  1  0  0  0  0
  8 33  1  0  0  0  0
  8 12  1  0  0  0  0
  9 34  1  0  0  0  0
  9  7  1  0  0  0  0
 10  6  1  0  0  0  0
 11  4  1  0  0  0  0
 12  9  1  0  0  0  0
 12  5  1  0  0  0  0
 13  1  1  0  0  0  0
 16  2  1  0  0  0  0
 18  2  1  0  0  0  0
 20  3  1  0  0  0  0
 21  3  1  0  0  0  0
 24  4  1  0  0  0  0
 25  5  1  0  0  0  0
 31  7  1  0  0  0  0
 32  8  1  0  0  0  0
 35  9  1  0  0  0  0
M  END
>  <HBA>
3

>  <HBD>
0

>  <TPSA>
9.72

>  <cid>
18196

>  <dipole>
0.49

>  <excitation_energy_1>
5.276

>  <excitation_energy_2>
5.295

>  <excitation_energy_3>
5.344

>  <excitation_energy_4>
5.522

>  <homo_energy>
-5.622

>  <homo_lumo_gap>
7.796

>  <logP>
0.041

>  <lumo_energy>
2.174

>  <melting_point>
-20.65

>  <molecular_refractivity>
54.06

>  <oscillator_strength_1>
0.0323

>  <oscillator_strength_2>
0.006

>  <oscillator_strength_3>
0.0014

>  <oscillator_strength_4>
0.0156

>  <open_babel_can_smiles>
CN(CCN(C)C)CCN(C)C

>  <mulliken_charges>
35
1   -0.300791
2   -0.29213
3   -0.301559
4   -0.291822
5   -0.30316
6   -0.10978
7   -0.107125
8   -0.131148
9   -0.14077
10   -0.370791
11   -0.370359
12   -0.387286
13   0.147616
14   0.116478
15   0.15278
16   0.146115
17   0.147153
18   0.116995
19   0.147719
20   0.115566
21   0.153485
22   0.145906
23   0.147357
24   0.116576
25   0.148931
26   0.14984
27   0.121244
28   0.135087
29   0.116565
30   0.135331
31   0.114923
32   0.127773
33   0.133526
34   0.129248
35   0.140508

>  <lowdin_charges>
35
1   -0.358776
2   -0.351244
3   -0.35959
4   -0.353508
5   -0.353026
6   -0.203556
7   -0.204384
8   -0.201602
9   -0.205791
10   -0.184967
11   -0.18506
12   -0.186715
13   0.149214
14   0.119459
15   0.151406
16   0.14763
17   0.146577
18   0.118075
19   0.150125
20   0.118813
21   0.151054
22   0.148133
23   0.149096
24   0.117727
25   0.147778
26   0.148282
27   0.119302
28   0.14106
29   0.120467
30   0.144245
31   0.11875
32   0.126762
33   0.14117
34   0.128402
35   0.144692

$$$$

