PCCDB-ID:  796
public computational chemistry database (PCCDB) project, http://pccdb.org

 14 13  0  0  0  0  0  0  0  0999 V2000
    1.0926    0.1326   -0.1007 C   0  0  0  0  0  0  0  0  0  0  0  0
    1.0307    1.2932   -1.0784 C   0  0  0  0  0  0  0  0  0  0  0  0
    2.5279   -0.3184    0.2602 C   0  0  0  0  0  0  0  0  0  0  0  0
    1.1955    0.9200   -2.5360 C   0  0  0  0  0  0  0  0  0  0  0  0
    0.8820    2.5267   -0.8015 N   0  0  0  0  0  0  0  0  0  0  0  0
    2.9689   -0.1974    1.3759 O   0  0  0  0  0  0  0  0  0  0  0  0
    3.2387   -0.8663   -0.7358 O   0  0  0  0  0  0  0  0  0  0  0  0
    0.7770    1.8453   -3.3957 O   0  0  0  0  0  0  0  0  0  0  0  0
    1.6696   -0.1517   -2.8900 O   0  0  0  0  0  0  0  0  0  0  0  0
    0.5508   -0.7264   -0.5145 H   0  0  0  0  0  0  0  0  0  0  0  0
    0.6169    0.4279    0.8360 H   0  0  0  0  0  0  0  0  0  0  0  0
    0.8120    2.6624    0.2139 H   0  0  0  0  0  0  0  0  0  0  0  0
    2.7265   -0.8375   -1.5762 H   0  0  0  0  0  0  0  0  0  0  0  0
    0.9568    1.4996   -4.2915 H   0  0  0  0  0  0  0  0  0  0  0  0
  1  3  1  0  0  0  0
  1 11  1  0  0  0  0
  2  5  2  0  0  0  0
  2  1  1  0  0  0  0
  3  6  2  0  0  0  0
  4  2  1  0  0  0  0
  5 12  1  0  0  0  0
  7  3  1  0  0  0  0
  8  4  1  0  0  0  0
  9  4  2  0  0  0  0
 10  1  1  0  0  0  0
 13  7  1  0  0  0  0
 14  8  1  0  0  0  0
M  END
>  <HBA>
5

>  <HBD>
3

>  <TPSA>
98.45

>  <cid>
796

>  <dipole>
4.34

>  <excitation_energy_1>
4.046

>  <excitation_energy_2>
4.503

>  <excitation_energy_3>
5.144

>  <excitation_energy_4>
5.357

>  <homo_energy>
-7.377

>  <homo_lumo_gap>
4.928

>  <logP>
-0.335

>  <lumo_energy>
-2.449

>  <melting_point>
160.38

>  <molecular_refractivity>
28.48

>  <oscillator_strength_1>
0.0077

>  <oscillator_strength_2>
0.0243

>  <oscillator_strength_3>
0.002

>  <oscillator_strength_4>
0.001

>  <open_babel_can_smiles>
OC(=O)CC(=N)C(=O)O

>  <mulliken_charges>
14
1   -0.45543
2   0.23437
3   0.592799
4   0.601152
5   -0.520121
6   -0.432771
7   -0.575987
8   -0.521003
9   -0.49308
10   0.195237
11   0.190728
12   0.312112
13   0.446042
14   0.425952

>  <lowdin_charges>
14
1   -0.33556
2   0.024626
3   0.191342
4   0.199011
5   -0.283823
6   -0.239486
7   -0.35392
8   -0.291912
9   -0.278861
10   0.183432
11   0.183301
12   0.266025
13   0.361892
14   0.373932

$$$$

