PCCDB-ID:  26508
public computational chemistry database (PCCDB) project, http://pccdb.org

 33 33  0  0  0  0  0  0  0  0999 V2000
    1.9413    1.1247   -0.0698 C   0  0  0  0  0  0  0  0  0  0  0  0
    2.3465   -5.2590   -1.1965 C   0  0  0  0  0  0  0  0  0  0  0  0
    1.0834   -4.7791   -1.5427 C   0  0  0  0  0  0  0  0  0  0  0  0
    3.3402   -4.3610   -0.7984 C   0  0  0  0  0  0  0  0  0  0  0  0
    0.8178   -3.4089   -1.4893 C   0  0  0  0  0  0  0  0  0  0  0  0
    3.0735   -2.9937   -0.7549 C   0  0  0  0  0  0  0  0  0  0  0  0
    1.8707   -0.4205    2.6217 C   0  0  0  0  0  0  0  0  0  0  0  0
    1.1609   -0.7285    1.2967 C   0  0  0  0  0  0  0  0  0  0  0  0
    1.5302   -1.0088   -1.0980 C   0  0  0  0  0  0  0  0  0  0  0  0
    1.8078   -2.5003   -1.0996 C   0  0  0  0  0  0  0  0  0  0  0  0
    3.2930   -2.3452    3.1655 C   0  0  0  0  0  0  0  0  0  0  0  0
    2.2948   -2.9496    3.7004 N   0  0  0  0  0  0  0  0  0  0  0  0
    4.5808   -2.8669    2.9433 N   0  0  0  0  0  0  0  0  0  0  0  0
    3.1918   -1.0343    2.7074 N   0  0  0  0  0  0  0  0  0  0  0  0
    1.9558   -0.3219    0.1279 N   0  0  0  0  0  0  0  0  0  0  0  0
    2.3139    1.6357    0.8226 H   0  0  0  0  0  0  0  0  0  0  0  0
    0.9301    1.5205   -0.2882 H   0  0  0  0  0  0  0  0  0  0  0  0
    2.5980    1.3901   -0.9054 H   0  0  0  0  0  0  0  0  0  0  0  0
    2.5548   -6.3252   -1.2311 H   0  0  0  0  0  0  0  0  0  0  0  0
    0.3007   -5.4695   -1.8464 H   0  0  0  0  0  0  0  0  0  0  0  0
    4.3252   -4.7254   -0.5189 H   0  0  0  0  0  0  0  0  0  0  0  0
   -0.1714   -3.0403   -1.7527 H   0  0  0  0  0  0  0  0  0  0  0  0
    3.8456   -2.2987   -0.4386 H   0  0  0  0  0  0  0  0  0  0  0  0
    1.2708   -0.8075    3.4471 H   0  0  0  0  0  0  0  0  0  0  0  0
    1.9848    0.6608    2.7665 H   0  0  0  0  0  0  0  0  0  0  0  0
    0.1613   -0.2506    1.2900 H   0  0  0  0  0  0  0  0  0  0  0  0
    1.0071   -1.8097    1.2443 H   0  0  0  0  0  0  0  0  0  0  0  0
    0.4563   -0.8377   -1.3082 H   0  0  0  0  0  0  0  0  0  0  0  0
    2.0808   -0.5455   -1.9283 H   0  0  0  0  0  0  0  0  0  0  0  0
    2.5748   -3.8568    4.0762 H   0  0  0  0  0  0  0  0  0  0  0  0
    4.7577   -3.7287    3.4455 H   0  0  0  0  0  0  0  0  0  0  0  0
    5.3228   -2.1927    3.1034 H   0  0  0  0  0  0  0  0  0  0  0  0
    3.7250   -0.8794    1.8566 H   0  0  0  0  0  0  0  0  0  0  0  0
  1 15  1  0  0  0  0
  1 16  1  0  0  0  0
  2  4  2  0  0  0  0
  3  5  2  0  0  0  0
  3  2  1  0  0  0  0
  4  6  1  0  0  0  0
  4 21  1  0  0  0  0
  5 10  1  0  0  0  0
  6 23  1  0  0  0  0
  7 14  1  0  0  0  0
  7 25  1  0  0  0  0
  7 24  1  0  0  0  0
  8  7  1  0  0  0  0
  9 15  1  0  0  0  0
 10  9  1  0  0  0  0
 10  6  2  0  0  0  0
 11 12  1  0  0  0  0
 12 30  1  0  0  0  0
 13 32  1  0  0  0  0
 13 11  2  0  0  0  0
 13 31  1  0  0  0  0
 14 11  1  0  0  0  0
 15  8  1  0  0  0  0
 17  1  1  0  0  0  0
 18  1  1  0  0  0  0
 19  2  1  0  0  0  0
 20  3  1  0  0  0  0
 22  5  1  0  0  0  0
 26  8  1  0  0  0  0
 27  8  1  0  0  0  0
 28  9  1  0  0  0  0
 29  9  1  0  0  0  0
 33 14  1  0  0  0  0
M  RAD  1  12   2
M  END
>  <HBA>
4

>  <HBD>
2

>  <TPSA>
67.64

>  <cid>
26508

>  <dipole>
2.11

>  <excitation_energy_1>
5.006

>  <excitation_energy_2>
5.158

>  <excitation_energy_3>
5.183

>  <excitation_energy_4>
5.308

>  <homo_energy>
-5.84

>  <homo_lumo_gap>
5.927

>  <logP>
1.792

>  <lumo_energy>
0.087

>  <melting_point>
133.49

>  <molecular_refractivity>
62.63

>  <oscillator_strength_1>
0.0005

>  <oscillator_strength_2>
0.0038

>  <oscillator_strength_3>
0.0049

>  <oscillator_strength_4>
0.0003

>  <open_babel_can_smiles>
CN(Cc1ccccc1)CCNC(=[NH2])[NH]

>  <mulliken_charges>
33
1   -0.302856
2   -0.129263
3   -0.126512
4   -0.126222
5   -0.183499
6   -0.155649
7   -0.149219
8   -0.139464
9   -0.195449
10   0.146159
11   0.590299
12   -0.649192
13   -0.757918
14   -0.592176
15   -0.390888
16   0.152913
17   0.122268
18   0.148743
19   0.125224
20   0.126756
21   0.127472
22   0.122572
23   0.128889
24   0.190042
25   0.135117
26   0.109075
27   0.18123
28   0.118237
29   0.148352
30   0.262377
31   0.315849
32   0.320195
33   0.326537

>  <lowdin_charges>
33
1   -0.361458
2   -0.157383
3   -0.15767
4   -0.151448
5   -0.166922
6   -0.156457
7   -0.206669
8   -0.213875
9   -0.194817
10   -0.013725
11   0.129011
12   -0.484138
13   -0.515007
14   -0.309603
15   -0.190951
16   0.151249
17   0.122918
18   0.150257
19   0.15392
20   0.15749
21   0.15641
22   0.15331
23   0.159445
24   0.178706
25   0.136941
26   0.12123
27   0.165137
28   0.122357
29   0.153006
30   0.2457
31   0.273636
32   0.277292
33   0.272108

$$$$

