PCCDB-ID:  32548
public computational chemistry database (PCCDB) project, http://pccdb.org

 40 42  0  0  1  0  0  0  0  0999 V2000
   -0.0913   -0.3357   -1.9980 C   0  0  0  0  0  0  0  0  0  0  0  0
    0.8016   -1.0842    0.1820 C   0  0  0  0  0  0  0  0  0  0  0  0
    1.8604    1.8800   -0.6484 C   0  0  0  0  0  0  0  0  0  0  0  0
    5.4437    0.1608    4.9535 C   0  0  0  0  0  0  0  0  0  0  0  0
    5.3181   -0.7754    3.8730 C   0  0  0  0  0  0  0  0  0  0  0  0
    2.5229   -0.8477   -3.2696 C   0  0  0  0  0  0  0  0  0  0  0  0
    2.5673    0.6376   -2.7931 C   0  0  0  0  0  0  0  0  0  0  0  0
    5.3674    1.3964    4.3916 C   0  0  0  0  0  0  0  0  0  0  0  0
    3.4241   -1.6041   -1.0789 C   0  0  0  0  0  0  0  0  0  0  0  0
    5.0025   -0.3805    1.2910 C   0  0  0  0  0  0  0  0  0  0  0  0
    2.1653   -1.6134   -1.9719 C   0  0  1  0  0  0  0  0  0  0  0  0
    5.1793   -0.0427    2.7324 C   0  0  0  0  0  0  0  0  0  0  0  0
    3.5611   -0.1043   -0.6614 C   0  0  1  0  0  0  0  0  0  0  0  0
    1.2138   -0.6250   -1.2304 C   0  0  0  0  0  0  0  0  0  0  0  0
    2.2680    0.5483   -1.2686 C   0  0  1  0  0  0  0  0  0  0  0  0
    3.6903    0.0521    0.7921 N   0  0  0  0  0  0  0  0  0  0  0  0
    5.2097    1.2952    3.0388 O   0  0  0  0  0  0  0  0  0  0  0  0
   -0.7312   -1.2270   -1.9914 H   0  0  0  0  0  0  0  0  0  0  0  0
    0.0555   -0.0485   -3.0418 H   0  0  0  0  0  0  0  0  0  0  0  0
   -0.6567    0.4676   -1.5103 H   0  0  0  0  0  0  0  0  0  0  0  0
    0.2890   -2.0537    0.1279 H   0  0  0  0  0  0  0  0  0  0  0  0
    0.0919   -0.3712    0.6206 H   0  0  0  0  0  0  0  0  0  0  0  0
    1.6433   -1.1637    0.8705 H   0  0  0  0  0  0  0  0  0  0  0  0
    2.6723    2.6170   -0.7145 H   0  0  0  0  0  0  0  0  0  0  0  0
    1.5848    1.7744    0.4070 H   0  0  0  0  0  0  0  0  0  0  0  0
    0.9970    2.3066   -1.1720 H   0  0  0  0  0  0  0  0  0  0  0  0
    5.5706   -0.0623    6.0038 H   0  0  0  0  0  0  0  0  0  0  0  0
    5.3284   -1.8547    3.9382 H   0  0  0  0  0  0  0  0  0  0  0  0
    3.4815   -1.1837   -3.6805 H   0  0  0  0  0  0  0  0  0  0  0  0
    1.7730   -0.9996   -4.0525 H   0  0  0  0  0  0  0  0  0  0  0  0
    1.8106    1.2462   -3.2997 H   0  0  0  0  0  0  0  0  0  0  0  0
    3.5346    1.1153   -2.9852 H   0  0  0  0  0  0  0  0  0  0  0  0
    5.4059    2.4010    4.7845 H   0  0  0  0  0  0  0  0  0  0  0  0
    4.3066   -1.9766   -1.6112 H   0  0  0  0  0  0  0  0  0  0  0  0
    3.2866   -2.2277   -0.1901 H   0  0  0  0  0  0  0  0  0  0  0  0
    5.0875   -1.4672    1.1841 H   0  0  0  0  0  0  0  0  0  0  0  0
    5.8327    0.0609    0.7031 H   0  0  0  0  0  0  0  0  0  0  0  0
    1.7565   -2.6148   -2.1458 H   0  0  0  0  0  0  0  0  0  0  0  0
    4.4417    0.3440   -1.1605 H   0  0  0  0  0  0  0  0  0  0  0  0
    3.5876    1.0381    1.0272 H   0  0  0  0  0  0  0  0  0  0  0  0
  1 18  1  0  0  0  0
  1 20  1  0  0  0  0
  1 14  1  0  0  0  0
  2 22  1  0  0  0  0
  2 23  1  0  0  0  0
  3 25  1  0  0  0  0
  4 27  1  0  0  0  0
  5 28  1  0  0  0  0
  5  4  1  0  0  0  0
  6  7  1  0  0  0  0
  6 11  1  0  0  0  0
  7 15  1  0  0  0  0
  8 33  1  0  0  0  0
  8  4  2  0  0  0  0
  9 13  1  0  0  0  0
  9 35  1  0  0  0  0
 10 12  1  0  0  0  0
 11 38  1  6  0  0  0
 11 14  1  0  0  0  0
 11  9  1  0  0  0  0
 12 17  1  0  0  0  0
 12  5  2  0  0  0  0
 13 39  1  6  0  0  0
 13 16  1  0  0  0  0
 14  2  1  0  0  0  0
 15 14  1  0  0  0  0
 15 13  1  0  0  0  0
 15  3  1  1  0  0  0
 16 40  1  0  0  0  0
 16 10  1  0  0  0  0
 17  8  1  0  0  0  0
 19  1  1  0  0  0  0
 21  2  1  0  0  0  0
 24  3  1  0  0  0  0
 26  3  1  0  0  0  0
 29  6  1  0  0  0  0
 30  6  1  0  0  0  0
 31  7  1  0  0  0  0
 32  7  1  0  0  0  0
 34  9  1  0  0  0  0
 36 10  1  0  0  0  0
 37 10  1  0  0  0  0
M  END
>  <HBA>
2

>  <HBD>
1

>  <TPSA>
25.17

>  <cid>
32548

>  <dipole>
0.61

>  <excitation_energy_1>
5.275

>  <excitation_energy_2>
5.513

>  <excitation_energy_3>
5.618

>  <excitation_energy_4>
5.773

>  <homo_energy>
-5.886

>  <homo_lumo_gap>
6.332

>  <logP>
3.975

>  <lumo_energy>
0.446

>  <melting_point>
109.45

>  <molecular_refractivity>
69.8

>  <oscillator_strength_1>
0.0129

>  <oscillator_strength_2>
0.01

>  <oscillator_strength_3>
0.0063

>  <oscillator_strength_4>
0.0062

>  <open_babel_can_smiles>
CC1(C)[C@H]2CC[C@]1(C)[C@H](C2)NCc1ccco1

>  <mulliken_charges>
40
1   -0.467241
2   -0.480158
3   -0.503096
4   -0.18282
5   -0.202496
6   -0.279359
7   -0.291084
8   0.082879
9   -0.286983
10   -0.193076
11   -0.101319
12   0.335741
13   0.04641
14   0.105556
15   0.08969
16   -0.580623
17   -0.444971
18   0.139993
19   0.141599
20   0.140137
21   0.12836
22   0.131806
23   0.186428
24   0.139701
25   0.1561
26   0.146493
27   0.139869
28   0.137341
29   0.129438
30   0.136532
31   0.134936
32   0.130053
33   0.151603
34   0.127812
35   0.147048
36   0.158423
37   0.129186
38   0.107544
39   0.100605
40   0.311942

>  <lowdin_charges>
40
1   -0.447237
2   -0.459824
3   -0.450651
4   -0.202124
5   -0.210929
6   -0.287882
7   -0.28791
8   -0.082043
9   -0.292128
10   -0.199012
11   -0.131923
12   0.06446
13   -0.070854
14   0.004769
15   -0.001895
16   -0.35488
17   -0.113955
18   0.149877
19   0.147514
20   0.14868
21   0.142908
22   0.146108
23   0.168744
24   0.148697
25   0.152892
26   0.153924
27   0.167134
28   0.166061
29   0.142083
30   0.144581
31   0.144481
32   0.141158
33   0.168866
34   0.141596
35   0.152126
36   0.155811
37   0.131466
38   0.136755
39   0.116721
40   0.255835

$$$$

