PCCDB-ID:  14507
public computational chemistry database (PCCDB) project, http://pccdb.org

 16 17  0  0  0  0  0  0  0  0999 V2000
   -0.5904   -2.6084    1.1039 C   0  0  0  0  0  0  0  0  0  0  0  0
   -0.5151   -1.1403    1.3128 C   0  0  0  0  0  0  0  0  0  0  0  0
   -1.2747   -3.1581   -3.3897 C   0  0  0  0  0  0  0  0  0  0  0  0
   -1.1215   -4.0230   -2.1924 C   0  0  0  0  0  0  0  0  0  0  0  0
   -0.0437   -1.7363    0.0482 N   0  0  0  0  0  0  0  0  0  0  0  0
   -0.4175   -2.7296   -2.2679 N   0  0  0  0  0  0  0  0  0  0  0  0
   -2.5146   -1.7307   -0.9614 O   0  0  0  0  0  0  0  0  0  0  0  0
   -1.0890   -1.4171   -1.3215 S   0  0  0  0  0  0  0  0  0  0  0  0
   -1.5853   -3.0196    0.9463 H   0  0  0  0  0  0  0  0  0  0  0  0
    0.1416   -3.2777    1.5478 H   0  0  0  0  0  0  0  0  0  0  0  0
    0.2722   -0.6965    1.9164 H   0  0  0  0  0  0  0  0  0  0  0  0
   -1.4629   -0.6041    1.3074 H   0  0  0  0  0  0  0  0  0  0  0  0
   -2.2421   -2.6734   -3.5124 H   0  0  0  0  0  0  0  0  0  0  0  0
   -0.7336   -3.3671   -4.3087 H   0  0  0  0  0  0  0  0  0  0  0  0
   -0.4621   -4.8866   -2.2043 H   0  0  0  0  0  0  0  0  0  0  0  0
   -1.9830   -4.0837   -1.5306 H   0  0  0  0  0  0  0  0  0  0  0  0
  1  2  1  0  0  0  0
  1 10  1  0  0  0  0
  2 11  1  0  0  0  0
  3  6  1  0  0  0  0
  3  4  1  0  0  0  0
  4 16  1  0  0  0  0
  5  1  1  0  0  0  0
  5  2  1  0  0  0  0
  6  4  1  0  0  0  0
  6  8  1  0  0  0  0
  8  7  2  0  0  0  0
  8  5  1  0  0  0  0
  9  1  1  0  0  0  0
 12  2  1  0  0  0  0
 13  3  1  0  0  0  0
 14  3  1  0  0  0  0
 15  4  1  0  0  0  0
M  END
>  <HBA>
3

>  <HBD>
0

>  <TPSA>
42.3

>  <cid>
14507

>  <dipole>
1.33

>  <excitation_energy_1>
5.739

>  <excitation_energy_2>
5.982

>  <excitation_energy_3>
6.185

>  <excitation_energy_4>
6.38

>  <homo_energy>
-6.776

>  <homo_lumo_gap>
7.059

>  <logP>
-0.062

>  <lumo_energy>
0.283

>  <melting_point>
16.65

>  <molecular_refractivity>
39.01

>  <oscillator_strength_1>
0.079

>  <oscillator_strength_2>
0.011

>  <oscillator_strength_3>
0.0139

>  <oscillator_strength_4>
0.0313

>  <open_babel_can_smiles>
O=S(N1CC1)N1CC1

>  <mulliken_charges>
16
1   -0.206359
2   -0.21509
3   -0.215095
4   -0.206113
5   -0.477937
6   -0.478389
7   -0.621038
8   0.97182
9   0.189619
10   0.175392
11   0.175611
12   0.183565
13   0.183689
14   0.175498
15   0.175285
16   0.189542

>  <lowdin_charges>
16
1   -0.240523
2   -0.236199
3   -0.236035
4   -0.239195
5   -0.346572
6   -0.346644
7   -0.644423
8   0.935463
9   0.169708
10   0.170593
11   0.169081
12   0.168416
13   0.168215
14   0.167988
15   0.169613
16   0.170512

$$$$

