PCCDB-ID:  23407
public computational chemistry database (PCCDB) project, http://pccdb.org

 22 22  0  0  0  0  0  0  0  0999 V2000
    1.0082   -0.0961    0.0977 C   0  0  0  0  0  0  0  0  0  0  0  0
    2.3703    2.5326    0.0784 C   0  0  0  0  0  0  0  0  0  0  0  0
    3.2639   -1.1527   -0.3216 C   0  0  0  0  0  0  0  0  0  0  0  0
    4.6423   -1.0920   -0.5217 C   0  0  0  0  0  0  0  0  0  0  0  0
    4.5316    1.3006   -0.3357 C   0  0  0  0  0  0  0  0  0  0  0  0
    6.7961    0.2244   -0.7178 C   0  0  0  0  0  0  0  0  0  0  0  0
    2.4996    0.0019   -0.1186 C   0  0  0  0  0  0  0  0  0  0  0  0
    3.1498    1.2545   -0.1258 C   0  0  0  0  0  0  0  0  0  0  0  0
    5.2943    0.1438   -0.5280 C   0  0  0  0  0  0  0  0  0  0  0  0
    7.3140   -0.7640   -1.6022 O   0  0  0  0  0  0  0  0  0  0  0  0
    0.6723   -1.1371    0.0663 H   0  0  0  0  0  0  0  0  0  0  0  0
    0.4479    0.4578   -0.6671 H   0  0  0  0  0  0  0  0  0  0  0  0
    0.7088    0.3205    1.0686 H   0  0  0  0  0  0  0  0  0  0  0  0
    3.0280    3.4066    0.0437 H   0  0  0  0  0  0  0  0  0  0  0  0
    1.8537    2.5427    1.0469 H   0  0  0  0  0  0  0  0  0  0  0  0
    1.5979    2.6659   -0.6905 H   0  0  0  0  0  0  0  0  0  0  0  0
    2.7669   -2.1206   -0.3219 H   0  0  0  0  0  0  0  0  0  0  0  0
    5.2180   -1.9992   -0.6806 H   0  0  0  0  0  0  0  0  0  0  0  0
    5.0265    2.2708   -0.3526 H   0  0  0  0  0  0  0  0  0  0  0  0
    7.3128    0.0448    0.2329 H   0  0  0  0  0  0  0  0  0  0  0  0
    7.0744    1.2399   -1.0440 H   0  0  0  0  0  0  0  0  0  0  0  0
    6.8286   -0.6808   -2.4386 H   0  0  0  0  0  0  0  0  0  0  0  0
  1 13  1  0  0  0  0
  2 15  1  0  0  0  0
  3  7  2  0  0  0  0
  4  3  1  0  0  0  0
  5  8  2  0  0  0  0
  6  9  1  0  0  0  0
  6 20  1  0  0  0  0
  7  1  1  0  0  0  0
  8  7  1  0  0  0  0
  8  2  1  0  0  0  0
  9  4  2  0  0  0  0
  9  5  1  0  0  0  0
 10  6  1  0  0  0  0
 11  1  1  0  0  0  0
 12  1  1  0  0  0  0
 14  2  1  0  0  0  0
 16  2  1  0  0  0  0
 17  3  1  0  0  0  0
 18  4  1  0  0  0  0
 19  5  1  0  0  0  0
 21  6  1  0  0  0  0
 22 10  1  0  0  0  0
M  END
>  <HBA>
1

>  <HBD>
1

>  <TPSA>
20.23

>  <cid>
23407

>  <dipole>
2.1

>  <excitation_energy_1>
5.127

>  <excitation_energy_2>
5.611

>  <excitation_energy_3>
5.859

>  <excitation_energy_4>
6.072

>  <homo_energy>
-6.199

>  <homo_lumo_gap>
6.207

>  <logP>
1.796

>  <lumo_energy>
0.008

>  <melting_point>
35.45

>  <molecular_refractivity>
42.5

>  <oscillator_strength_1>
0.002

>  <oscillator_strength_2>
0.0772

>  <oscillator_strength_3>
0.0058

>  <oscillator_strength_4>
0.0204

>  <open_babel_can_smiles>
OCc1ccc(c(c1)C)C

>  <mulliken_charges>
22
1   -0.532666
2   -0.533117
3   -0.185311
4   -0.177668
5   -0.246674
6   -0.091161
7   0.131678
8   0.137501
9   0.111625
10   -0.610462
11   0.154936
12   0.158426
13   0.159262
14   0.154561
15   0.159831
16   0.158931
17   0.120937
18   0.138559
19   0.11384
20   0.162371
21   0.127073
22   0.387528

>  <lowdin_charges>
22
1   -0.441841
2   -0.441896
3   -0.16492
4   -0.16959
5   -0.178012
6   -0.131051
7   -0.009029
8   -0.007124
9   -0.036542
10   -0.462367
11   0.156116
12   0.158982
13   0.158047
14   0.157086
15   0.158414
16   0.158639
17   0.153189
18   0.163619
19   0.149884
20   0.15625
21   0.130326
22   0.341818

$$$$

