PCCDB-ID:  26843
public computational chemistry database (PCCDB) project, http://pccdb.org

 19 20  0  0  0  0  0  0  0  0999 V2000
    0.9760   -0.0821   -0.0280 C   0  0  0  0  0  0  0  0  0  0  0  0
    3.3414    3.6542   -0.0940 C   0  0  0  0  0  0  0  0  0  0  0  0
    4.7580    3.5702   -0.1122 C   0  0  0  0  0  0  0  0  0  0  0  0
    2.5664    2.5166   -0.0738 C   0  0  0  0  0  0  0  0  0  0  0  0
    5.3784    2.3438   -0.1096 C   0  0  0  0  0  0  0  0  0  0  0  0
    3.2623   -1.1394   -0.0498 C   0  0  0  0  0  0  0  0  0  0  0  0
    2.4788   -0.0021   -0.0503 C   0  0  0  0  0  0  0  0  0  0  0  0
    3.1784    1.2338   -0.0709 C   0  0  0  0  0  0  0  0  0  0  0  0
    4.6035    1.1533   -0.0887 C   0  0  0  0  0  0  0  0  0  0  0  0
    4.6229   -1.1556   -0.0678 N   0  0  0  0  0  0  0  0  0  0  0  0
    5.2860   -0.0327   -0.0868 N   0  0  0  0  0  0  0  0  0  0  0  0
    0.6407   -1.1231   -0.0369 H   0  0  0  0  0  0  0  0  0  0  0  0
    0.5351    0.4219   -0.8966 H   0  0  0  0  0  0  0  0  0  0  0  0
    0.5636    0.3975    0.8683 H   0  0  0  0  0  0  0  0  0  0  0  0
    2.8654    4.6311   -0.0967 H   0  0  0  0  0  0  0  0  0  0  0  0
    5.3479    4.4822   -0.1282 H   0  0  0  0  0  0  0  0  0  0  0  0
    1.4836    2.5952   -0.0605 H   0  0  0  0  0  0  0  0  0  0  0  0
    6.4587    2.2397   -0.1235 H   0  0  0  0  0  0  0  0  0  0  0  0
    2.8078   -2.1271   -0.0354 H   0  0  0  0  0  0  0  0  0  0  0  0
  1 14  1  0  0  0  0
  2  4  2  0  0  0  0
  3  5  2  0  0  0  0
  3  2  1  0  0  0  0
  4  8  1  0  0  0  0
  4 17  1  0  0  0  0
  5  9  1  0  0  0  0
  6 19  1  0  0  0  0
  7  6  1  0  0  0  0
  7  1  1  0  0  0  0
  8  7  2  0  0  0  0
  9 11  2  0  0  0  0
  9  8  1  0  0  0  0
 10  6  2  0  0  0  0
 11 10  1  0  0  0  0
 12  1  1  0  0  0  0
 13  1  1  0  0  0  0
 15  2  1  0  0  0  0
 16  3  1  0  0  0  0
 18  5  1  0  0  0  0
M  END
>  <HBA>
2

>  <HBD>
0

>  <TPSA>
25.78

>  <cid>
26843

>  <dipole>
4.55

>  <excitation_energy_1>
3.016

>  <excitation_energy_2>
4.137

>  <excitation_energy_3>
4.167

>  <excitation_energy_4>
4.581

>  <homo_energy>
-6.082

>  <homo_lumo_gap>
4.193

>  <logP>
1.938

>  <lumo_energy>
-1.888

>  <melting_point>
83.5

>  <molecular_refractivity>
44.5

>  <oscillator_strength_1>
0.0024

>  <oscillator_strength_2>
0.0003

>  <oscillator_strength_3>
0.0732

>  <oscillator_strength_4>
0.0113

>  <open_babel_can_smiles>
Cc1cnnc2c1cccc2

>  <mulliken_charges>
19
1   -0.53912
2   -0.125026
3   -0.137837
4   -0.197331
5   -0.129824
6   -0.040748
7   0.148477
8   0.128219
9   0.235567
10   -0.239897
11   -0.34177
12   0.169629
13   0.173191
14   0.173918
15   0.140954
16   0.14236
17   0.138
18   0.156606
19   0.144633

>  <lowdin_charges>
19
1   -0.442288
2   -0.139955
3   -0.152636
4   -0.160441
5   -0.134315
6   -0.136252
7   0.011044
8   -0.010212
9   0.021109
10   -0.08836
11   -0.094977
12   0.164935
13   0.168031
14   0.168319
15   0.163336
16   0.165072
17   0.161224
18   0.173823
19   0.162544

$$$$

