PCCDB-ID:  61296
public computational chemistry database (PCCDB) project, http://pccdb.org

 28 27  0  0  0  0  0  0  0  0999 V2000
    1.1804    0.8864    0.8171 C   0  0  0  0  0  0  0  0  0  0  0  0
    2.6308   -1.1596    0.5112 C   0  0  0  0  0  0  0  0  0  0  0  0
    4.6931    5.2646   -4.3404 C   0  0  0  0  0  0  0  0  0  0  0  0
    2.8797    0.8603   -1.0462 C   0  0  0  0  0  0  0  0  0  0  0  0
    4.3076    0.5667   -1.4965 C   0  0  0  0  0  0  0  0  0  0  0  0
    5.0636    2.6941   -4.4572 C   0  0  0  0  0  0  0  0  0  0  0  0
    2.5598    0.3706    0.3815 C   0  0  0  0  0  0  0  0  0  0  0  0
    4.2113    3.9200   -4.8372 C   0  0  0  0  0  0  0  0  0  0  0  0
    4.8993    2.3292   -2.9881 C   0  0  0  0  0  0  0  0  0  0  0  0
    3.2113    3.7808   -5.5107 O   0  0  0  0  0  0  0  0  0  0  0  0
    5.0831    3.0950   -2.0633 O   0  0  0  0  0  0  0  0  0  0  0  0
    4.5284    1.0434   -2.8507 O   0  0  0  0  0  0  0  0  0  0  0  0
    0.9511    0.5805    1.8445 H   0  0  0  0  0  0  0  0  0  0  0  0
    0.3904    0.4891    0.1669 H   0  0  0  0  0  0  0  0  0  0  0  0
    1.1310    1.9805    0.7724 H   0  0  0  0  0  0  0  0  0  0  0  0
    2.3716   -1.4763    1.5281 H   0  0  0  0  0  0  0  0  0  0  0  0
    3.6306   -1.5519    0.2942 H   0  0  0  0  0  0  0  0  0  0  0  0
    1.9250   -1.6429   -0.1771 H   0  0  0  0  0  0  0  0  0  0  0  0
    4.8721    5.2208   -3.2609 H   0  0  0  0  0  0  0  0  0  0  0  0
    3.9598    6.0359   -4.5837 H   0  0  0  0  0  0  0  0  0  0  0  0
    5.6529    5.5110   -4.8140 H   0  0  0  0  0  0  0  0  0  0  0  0
    2.1796    0.4056   -1.7604 H   0  0  0  0  0  0  0  0  0  0  0  0
    2.7283    1.9453   -1.0933 H   0  0  0  0  0  0  0  0  0  0  0  0
    4.5098   -0.5043   -1.5590 H   0  0  0  0  0  0  0  0  0  0  0  0
    5.0372    1.0388   -0.8332 H   0  0  0  0  0  0  0  0  0  0  0  0
    6.1248    2.9266   -4.6128 H   0  0  0  0  0  0  0  0  0  0  0  0
    4.7743    1.8554   -5.0906 H   0  0  0  0  0  0  0  0  0  0  0  0
    3.3102    0.8047    1.0600 H   0  0  0  0  0  0  0  0  0  0  0  0
  1 13  1  0  0  0  0
  2 16  1  0  0  0  0
  3 19  1  0  0  0  0
  4  7  1  0  0  0  0
  5  4  1  0  0  0  0
  5 25  1  0  0  0  0
  6  9  1  0  0  0  0
  7  2  1  0  0  0  0
  7  1  1  0  0  0  0
  7 28  1  0  0  0  0
  8  6  1  0  0  0  0
  8  3  1  0  0  0  0
  9 12  1  0  0  0  0
  9 11  2  0  0  0  0
 10  8  2  0  0  0  0
 12  5  1  0  0  0  0
 14  1  1  0  0  0  0
 15  1  1  0  0  0  0
 17  2  1  0  0  0  0
 18  2  1  0  0  0  0
 20  3  1  0  0  0  0
 21  3  1  0  0  0  0
 22  4  1  0  0  0  0
 23  4  1  0  0  0  0
 24  5  1  0  0  0  0
 26  6  1  0  0  0  0
 27  6  1  0  0  0  0
M  END
>  <HBA>
3

>  <HBD>
0

>  <TPSA>
43.37

>  <cid>
61296

>  <dipole>
2.32

>  <excitation_energy_1>
4.354

>  <excitation_energy_2>
5.63

>  <excitation_energy_3>
5.989

>  <excitation_energy_4>
6.418

>  <homo_energy>
-6.822

>  <homo_lumo_gap>
6.155

>  <logP>
1.555

>  <lumo_energy>
-0.667

>  <melting_point>
5.28

>  <molecular_refractivity>
46.86

>  <oscillator_strength_1>
0.0016

>  <oscillator_strength_2>
0.0064

>  <oscillator_strength_3>
0.0229

>  <oscillator_strength_4>
0.0112

>  <open_babel_can_smiles>
CC(CCOC(=O)CC(=O)C)C

>  <mulliken_charges>
28
1   -0.442542
2   -0.448603
3   -0.538132
4   -0.272829
5   -0.056307
6   -0.434811
7   -0.078024
8   0.450852
9   0.618986
10   -0.42115
11   -0.474449
12   -0.451237
13   0.142859
14   0.142661
15   0.146643
16   0.14633
17   0.141916
18   0.14356
19   0.206864
20   0.176716
21   0.166889
22   0.143677
23   0.157447
24   0.157128
25   0.169116
26   0.184367
27   0.19299
28   0.129084

>  <lowdin_charges>
28
1   -0.440735
2   -0.448219
3   -0.478196
4   -0.287092
5   -0.132282
6   -0.32891
7   -0.120427
8   0.170446
9   0.204871
10   -0.22261
11   -0.27639
12   -0.182407
13   0.148761
14   0.148649
15   0.148986
16   0.151153
17   0.146164
18   0.149177
19   0.186532
20   0.172505
21   0.170835
22   0.148987
23   0.154533
24   0.152751
25   0.159753
26   0.180074
27   0.183493
28   0.139599

$$$$

