PCCDB-ID:  27691
public computational chemistry database (PCCDB) project, http://pccdb.org

 12 12  0  0  0  0  0  0  0  0999 V2000
   -0.7685    1.1567    0.0083 C   0  0  0  0  0  0  0  0  0  0  0  0
   -1.4302   -0.0676   -0.0555 C   0  0  0  0  0  0  0  0  0  0  0  0
    0.6245    1.1669    0.0751 C   0  0  0  0  0  0  0  0  0  0  0  0
    0.7258   -1.1193    0.0140 C   0  0  0  0  0  0  0  0  0  0  0  0
   -0.6712   -1.2419   -0.0538 C   0  0  0  0  0  0  0  0  0  0  0  0
    1.3638    0.0505    0.0786 N   0  0  0  0  0  0  0  0  0  0  0  0
   -1.3725   -2.8818   -0.1239 S   0  0  0  0  0  0  0  0  0  0  0  0
   -1.3274    2.0880    0.0078 H   0  0  0  0  0  0  0  0  0  0  0  0
   -2.5153   -0.1048   -0.1050 H   0  0  0  0  0  0  0  0  0  0  0  0
    1.1715    2.1061    0.1271 H   0  0  0  0  0  0  0  0  0  0  0  0
    1.3527   -2.0101    0.0148 H   0  0  0  0  0  0  0  0  0  0  0  0
   -2.6570   -2.4953   -0.2639 H   0  0  0  0  0  0  0  0  0  0  0  0
  1  3  2  0  0  0  0
  2  5  2  0  0  0  0
  2  1  1  0  0  0  0
  3  6  1  0  0  0  0
  3 10  1  0  0  0  0
  4 11  1  0  0  0  0
  4  6  2  0  0  0  0
  5  4  1  0  0  0  0
  7  5  1  0  0  0  0
  8  1  1  0  0  0  0
  9  2  1  0  0  0  0
 12  7  1  0  0  0  0
M  END
>  <HBA>
2

>  <HBD>
1

>  <TPSA>
51.69

>  <cid>
27691

>  <dipole>
2.83

>  <excitation_energy_1>
4.613

>  <excitation_energy_2>
4.845

>  <excitation_energy_3>
4.856

>  <excitation_energy_4>
5.199

>  <homo_energy>
-6.294

>  <homo_lumo_gap>
5.489

>  <logP>
1.37

>  <lumo_energy>
-0.805

>  <melting_point>
43.59

>  <molecular_refractivity>
31.49

>  <oscillator_strength_1>
0.0467

>  <oscillator_strength_2>
0.0046

>  <oscillator_strength_3>
0.0025

>  <oscillator_strength_4>
0.023

>  <open_babel_can_smiles>
Sc1cccnc1

>  <mulliken_charges>
12
1   -0.124757
2   -0.128698
3   0.031226
4   0.018707
5   -0.070753
6   -0.398
7   -0.00951
8   0.142755
9   0.142779
10   0.145492
11   0.15331
12   0.097449

>  <lowdin_charges>
12
1   -0.16668
2   -0.145695
3   -0.09728
4   -0.098733
5   -0.132371
6   -0.137678
7   0.005416
8   0.167415
9   0.161148
10   0.159374
11   0.164196
12   0.120885

$$$$

