PCCDB-ID:  39655
public computational chemistry database (PCCDB) project, http://pccdb.org

 14 14  0  0  1  0  0  0  0  0999 V2000
    0.8730    0.0717    0.2497 C   0  0  0  0  0  0  0  0  0  0  0  0
    2.7552    1.0278   -1.1879 C   0  0  0  0  0  0  0  0  0  0  0  0
    4.0926   -1.1738   -1.9935 C   0  0  0  0  0  0  0  0  0  0  0  0
    2.3458   -0.0221   -0.1551 C   0  0  2  0  0  0  0  0  0  0  0  0
    4.4332    0.6215   -1.7947 S   0  0  0  0  0  0  0  0  0  0  0  0
    2.6926   -1.6844   -0.9007 S   0  0  0  0  0  0  0  0  0  0  0  0
    0.6735    1.0458    0.7121 H   0  0  0  0  0  0  0  0  0  0  0  0
    0.6128   -0.7019    0.9796 H   0  0  0  0  0  0  0  0  0  0  0  0
    0.2165   -0.0443   -0.6188 H   0  0  0  0  0  0  0  0  0  0  0  0
    2.8076    2.0241   -0.7350 H   0  0  0  0  0  0  0  0  0  0  0  0
    2.0412    1.0569   -2.0179 H   0  0  0  0  0  0  0  0  0  0  0  0
    5.0015   -1.7160   -1.7234 H   0  0  0  0  0  0  0  0  0  0  0  0
    3.8268   -1.4082   -3.0267 H   0  0  0  0  0  0  0  0  0  0  0  0
    2.9805    0.0854    0.7304 H   0  0  0  0  0  0  0  0  0  0  0  0
  1  7  1  0  0  0  0
  1  8  1  0  0  0  0
  2 10  1  0  0  0  0
  2  4  1  0  0  0  0
  3  5  1  0  0  0  0
  3 12  1  0  0  0  0
  3  6  1  0  0  0  0
  4  1  1  0  0  0  0
  4 14  1  1  0  0  0
  5  2  1  0  0  0  0
  6  4  1  0  0  0  0
  9  1  1  0  0  0  0
 11  2  1  0  0  0  0
 13  3  1  0  0  0  0
M  END
>  <HBA>
2

>  <HBD>
0

>  <TPSA>
50.6

>  <cid>
39655

>  <dipole>
1.35

>  <excitation_energy_1>
4.529

>  <excitation_energy_2>
4.746

>  <excitation_energy_3>
5.517

>  <excitation_energy_4>
5.711

>  <homo_energy>
-6.098

>  <homo_lumo_gap>
5.973

>  <logP>
1.812

>  <lumo_energy>
-0.125

>  <melting_point>
15.28

>  <molecular_refractivity>
34.41

>  <oscillator_strength_1>
0.001

>  <oscillator_strength_2>
0.0014

>  <oscillator_strength_3>
0.0226

>  <oscillator_strength_4>
0.0103

>  <open_babel_can_smiles>
C[C@@H]1CSCS1

>  <mulliken_charges>
14
1   -0.450909
2   -0.414802
3   -0.565384
4   -0.234831
5   0.115564
6   0.100614
7   0.154193
8   0.167327
9   0.166009
10   0.182197
11   0.183482
12   0.207113
13   0.205752
14   0.183675

>  <lowdin_charges>
14
1   -0.444886
2   -0.377784
3   -0.480691
4   -0.21736
5   0.110217
6   0.081654
7   0.155823
8   0.163825
9   0.160962
10   0.172373
11   0.162956
12   0.180061
13   0.170901
14   0.161947

$$$$

