PCCDB-ID:  68485
public computational chemistry database (PCCDB) project, http://pccdb.org

 22 24  0  0  0  0  0  0  0  0999 V2000
   -3.6099   -0.8498    0.0065 C   0  0  0  0  0  0  0  0  0  0  0  0
   -3.7816    0.5421    0.0044 C   0  0  0  0  0  0  0  0  0  0  0  0
   -2.3310   -1.3821    0.0052 C   0  0  0  0  0  0  0  0  0  0  0  0
   -2.6780    1.3883   -0.0000 C   0  0  0  0  0  0  0  0  0  0  0  0
    3.6141   -0.8539    0.0015 C   0  0  0  0  0  0  0  0  0  0  0  0
    2.3748   -1.3834    0.0000 C   0  0  0  0  0  0  0  0  0  0  0  0
    2.6236    1.4412   -0.0001 C   0  0  0  0  0  0  0  0  0  0  0  0
    3.8300    0.6080    0.0009 C   0  0  0  0  0  0  0  0  0  0  0  0
   -1.1913   -0.5485    0.0006 C   0  0  0  0  0  0  0  0  0  0  0  0
    1.1740   -0.5554   -0.0014 C   0  0  0  0  0  0  0  0  0  0  0  0
   -1.3832    0.8536   -0.0017 C   0  0  0  0  0  0  0  0  0  0  0  0
    1.3747    0.9055   -0.0023 C   0  0  0  0  0  0  0  0  0  0  0  0
    0.0341   -1.1867   -0.0000 N   0  0  0  0  0  0  0  0  0  0  0  0
    4.9617    1.0958    0.0012 O   0  0  0  0  0  0  0  0  0  0  0  0
   -0.0279    1.9760   -0.0086 S   0  0  0  0  0  0  0  0  0  0  0  0
   -4.4747   -1.5062    0.0103 H   0  0  0  0  0  0  0  0  0  0  0  0
   -4.7806    0.9685    0.0058 H   0  0  0  0  0  0  0  0  0  0  0  0
   -2.1578   -2.4534    0.0073 H   0  0  0  0  0  0  0  0  0  0  0  0
   -2.8159    2.4663   -0.0014 H   0  0  0  0  0  0  0  0  0  0  0  0
    4.5061   -1.4731    0.0029 H   0  0  0  0  0  0  0  0  0  0  0  0
    2.1992   -2.4550    0.0005 H   0  0  0  0  0  0  0  0  0  0  0  0
    2.7851    2.5155    0.0001 H   0  0  0  0  0  0  0  0  0  0  0  0
  1 16  1  0  0  0  0
  2 17  1  0  0  0  0
  2  1  2  0  0  0  0
  3  1  1  0  0  0  0
  3 18  1  0  0  0  0
  4  2  1  0  0  0  0
  5 20  1  0  0  0  0
  6 21  1  0  0  0  0
  6  5  2  0  0  0  0
  7 22  1  0  0  0  0
  7  8  1  0  0  0  0
  8 14  2  0  0  0  0
  8  5  1  0  0  0  0
  9  3  2  0  0  0  0
 10 13  2  0  0  0  0
 10  6  1  0  0  0  0
 11  4  2  0  0  0  0
 11  9  1  0  0  0  0
 12 10  1  0  0  0  0
 12  7  2  0  0  0  0
 13  9  1  0  0  0  0
 15 12  1  0  0  0  0
 15 11  1  0  0  0  0
 19  4  1  0  0  0  0
M  END
>  <HBA>
3

>  <HBD>
0

>  <TPSA>
58.2

>  <cid>
68485

>  <dipole>
5.47

>  <excitation_energy_1>
2.562

>  <excitation_energy_2>
2.613

>  <excitation_energy_3>
3.432

>  <excitation_energy_4>
3.457

>  <homo_energy>
-6.014

>  <homo_lumo_gap>
2.961

>  <logP>
2.761

>  <lumo_energy>
-3.053

>  <melting_point>
135.33

>  <molecular_refractivity>
62.51

>  <oscillator_strength_1>
0.0

>  <oscillator_strength_2>
0.1294

>  <oscillator_strength_3>
0.2813

>  <oscillator_strength_4>
0.0014

>  <open_babel_can_smiles>
O=c1ccc2c(c1)sc1c(n2)cccc1

>  <mulliken_charges>
22
1   -0.138608
2   -0.110054
3   -0.136147
4   -0.177451
5   -0.180348
6   -0.126563
7   -0.256399
8   0.448608
9   0.264715
10   0.300995
11   -0.102278
12   -0.086906
13   -0.550976
14   -0.502336
15   0.271066
16   0.145732
17   0.147907
18   0.156352
19   0.15447
20   0.158087
21   0.160794
22   0.159337

>  <lowdin_charges>
22
1   -0.158674
2   -0.133326
3   -0.13214
4   -0.161417
5   -0.160127
6   -0.136761
7   -0.202595
8   0.132392
9   0.021171
10   0.05978
11   -0.130729
12   -0.13191
13   -0.121876
14   -0.258592
15   0.307368
16   0.167482
17   0.167147
18   0.174082
19   0.168964
20   0.177463
21   0.175925
22   0.176372

$$$$

