PCCDB-ID:  69666
public computational chemistry database (PCCDB) project, http://pccdb.org

 18 18  0  0  0  0  0  0  0  0999 V2000
    0.8562   -0.0476    0.3958 C   0  0  0  0  0  0  0  0  0  0  0  0
    3.7718   -0.0023    2.2447 C   0  0  0  0  0  0  0  0  0  0  0  0
    3.5650    1.1692    1.6355 C   0  0  0  0  0  0  0  0  0  0  0  0
    3.3682   -1.3157    1.6211 C   0  0  0  0  0  0  0  0  0  0  0  0
    2.9033    1.2719    0.2764 C   0  0  0  0  0  0  0  0  0  0  0  0
    3.0291   -1.1267    0.1280 C   0  0  0  0  0  0  0  0  0  0  0  0
    2.2064    0.0538   -0.1479 N   0  0  0  0  0  0  0  0  0  0  0  0
    0.2591    0.7997    0.0399 H   0  0  0  0  0  0  0  0  0  0  0  0
    0.7990   -0.0588    1.4993 H   0  0  0  0  0  0  0  0  0  0  0  0
    0.3878   -0.9655    0.0221 H   0  0  0  0  0  0  0  0  0  0  0  0
    4.2451   -0.0318    3.2255 H   0  0  0  0  0  0  0  0  0  0  0  0
    3.8930    2.0981    2.1012 H   0  0  0  0  0  0  0  0  0  0  0  0
    2.5090   -1.7394    2.1636 H   0  0  0  0  0  0  0  0  0  0  0  0
    4.1758   -2.0536    1.7284 H   0  0  0  0  0  0  0  0  0  0  0  0
    3.6643    1.5235   -0.4808 H   0  0  0  0  0  0  0  0  0  0  0  0
    2.1857    2.1022    0.2651 H   0  0  0  0  0  0  0  0  0  0  0  0
    2.5178   -2.0120   -0.2687 H   0  0  0  0  0  0  0  0  0  0  0  0
    3.9634   -1.0126   -0.4378 H   0  0  0  0  0  0  0  0  0  0  0  0
  1  9  1  0  0  0  0
  2 11  1  0  0  0  0
  3 12  1  0  0  0  0
  3  2  2  0  0  0  0
  4 14  1  0  0  0  0
  4 13  1  0  0  0  0
  4  2  1  0  0  0  0
  5  3  1  0  0  0  0
  6  4  1  0  0  0  0
  7  6  1  0  0  0  0
  7  5  1  0  0  0  0
  7  1  1  0  0  0  0
  8  1  1  0  0  0  0
 10  1  1  0  0  0  0
 15  5  1  0  0  0  0
 16  5  1  0  0  0  0
 17  6  1  0  0  0  0
 18  6  1  0  0  0  0
M  END
>  <HBA>
1

>  <HBD>
0

>  <TPSA>
3.24

>  <cid>
69666

>  <dipole>
0.69

>  <excitation_energy_1>
4.875

>  <excitation_energy_2>
5.1

>  <excitation_energy_3>
5.556

>  <excitation_energy_4>
5.606

>  <homo_energy>
-5.437

>  <homo_lumo_gap>
6.251

>  <logP>
0.816

>  <lumo_energy>
0.814

>  <melting_point>
8.44

>  <molecular_refractivity>
35.18

>  <oscillator_strength_1>
0.0035

>  <oscillator_strength_2>
0.0048

>  <oscillator_strength_3>
0.0169

>  <oscillator_strength_4>
0.0065

>  <open_babel_can_smiles>
CN1CCC=CC1

>  <mulliken_charges>
18
1   -0.302362
2   -0.099975
3   -0.11813
4   -0.310684
5   -0.173263
6   -0.146322
7   -0.365282
8   0.146976
9   0.129299
10   0.144752
11   0.121054
12   0.119916
13   0.146137
14   0.139738
15   0.149891
16   0.141014
17   0.135339
18   0.141902

>  <lowdin_charges>
18
1   -0.356926
2   -0.173696
3   -0.191173
4   -0.296123
5   -0.204855
6   -0.203603
7   -0.186841
8   0.149213
9   0.123444
10   0.148508
11   0.150244
12   0.152192
13   0.149059
14   0.151727
15   0.14933
16   0.150516
17   0.144571
18   0.144414

$$$$

