PCCDB-ID:  56197
public computational chemistry database (PCCDB) project, http://pccdb.org

 25 25  0  0  1  0  0  0  0  0999 V2000
    3.3479   -2.6957   -0.3004 C   0  0  0  0  0  0  0  0  0  0  0  0
    3.4642   -1.5063   -0.1245 C   0  0  0  0  0  0  0  0  0  0  0  0
    5.4169    1.8505    2.9294 C   0  0  0  0  0  0  0  0  0  0  0  0
    3.6162   -0.0690    0.1105 C   0  0  0  0  0  0  0  0  0  0  0  0
    4.3726    1.7627    1.7865 C   0  0  0  0  0  0  0  0  0  0  0  0
    6.2442    0.5328    2.8543 C   0  0  0  0  0  0  0  0  0  0  0  0
    4.2839    0.2594    1.4596 C   0  0  2  0  0  0  0  0  0  0  0  0
    5.7355   -0.2181    1.6145 C   0  0  1  0  0  0  0  0  0  0  0  0
    7.6263   -0.3338    0.1662 C   0  0  0  0  0  0  0  0  0  0  0  0
    8.1762   -1.2059    0.9151 N   0  0  0  0  0  0  0  0  0  0  0  0
    8.0755    0.2082   -0.9998 O   0  0  0  0  0  0  0  0  0  0  0  0
    6.4413    0.2253    0.4228 O   0  0  0  0  0  0  0  0  0  0  0  0
    3.2453   -3.7447   -0.4603 H   0  0  0  0  0  0  0  0  0  0  0  0
    4.9193    1.9335    3.9018 H   0  0  0  0  0  0  0  0  0  0  0  0
    6.0506    2.7365    2.8242 H   0  0  0  0  0  0  0  0  0  0  0  0
    2.6300    0.4138    0.0720 H   0  0  0  0  0  0  0  0  0  0  0  0
    4.2116    0.3735   -0.6973 H   0  0  0  0  0  0  0  0  0  0  0  0
    4.7257    2.3049    0.9011 H   0  0  0  0  0  0  0  0  0  0  0  0
    3.4016    2.1862    2.0647 H   0  0  0  0  0  0  0  0  0  0  0  0
    6.0708   -0.0924    3.7376 H   0  0  0  0  0  0  0  0  0  0  0  0
    7.3226    0.6946    2.7917 H   0  0  0  0  0  0  0  0  0  0  0  0
    3.7165   -0.2411    2.2570 H   0  0  0  0  0  0  0  0  0  0  0  0
    5.8444   -1.3012    1.6827 H   0  0  0  0  0  0  0  0  0  0  0  0
    9.0693   -1.5277    0.5432 H   0  0  0  0  0  0  0  0  0  0  0  0
    8.9454   -0.1720   -1.1957 H   0  0  0  0  0  0  0  0  0  0  0  0
  1  2  3  0  0  0  0
  2  4  1  0  0  0  0
  3 14  1  0  0  0  0
  4  7  1  0  0  0  0
  5 19  1  0  0  0  0
  5  3  1  0  0  0  0
  6  3  1  0  0  0  0
  6 20  1  0  0  0  0
  7  8  1  0  0  0  0
  7  5  1  0  0  0  0
  7 22  1  1  0  0  0
  8 23  1  1  0  0  0
  8  6  1  0  0  0  0
  9 12  1  0  0  0  0
  9 10  2  0  0  0  0
 11  9  1  0  0  0  0
 12  8  1  0  0  0  0
 13  1  1  0  0  0  0
 15  3  1  0  0  0  0
 16  4  1  0  0  0  0
 17  4  1  0  0  0  0
 18  5  1  0  0  0  0
 21  6  1  0  0  0  0
 24 10  1  0  0  0  0
 25 11  1  0  0  0  0
M  END
>  <HBA>
3

>  <HBD>
1

>  <TPSA>
52.32

>  <cid>
56197

>  <dipole>
1.33

>  <excitation_energy_1>
5.87

>  <excitation_energy_2>
6.281

>  <excitation_energy_3>
6.295

>  <excitation_energy_4>
6.409

>  <homo_energy>
-6.939

>  <homo_lumo_gap>
8.21

>  <logP>
1.974

>  <lumo_energy>
1.271

>  <melting_point>
88.4

>  <molecular_refractivity>
45.81

>  <oscillator_strength_1>
0.0034

>  <oscillator_strength_2>
0.0008

>  <oscillator_strength_3>
0.0049

>  <oscillator_strength_4>
0.0501

>  <open_babel_can_smiles>
C#CC[C@@H]1CCC[C@@H]1OC(=N)O

>  <mulliken_charges>
25
1   -0.518124
2   0.350851
3   -0.279243
4   -0.404864
5   -0.274432
6   -0.283634
7   -0.118472
8   0.130383
9   0.648389
10   -0.627053
11   -0.572369
12   -0.467836
13   0.183815
14   0.138162
15   0.143423
16   0.165628
17   0.189368
18   0.151779
19   0.135919
20   0.14467
21   0.164044
22   0.142514
23   0.175725
24   0.274698
25   0.406659

>  <lowdin_charges>
25
1   -0.266034
2   -0.038724
3   -0.285181
4   -0.263928
5   -0.285986
6   -0.289679
7   -0.131658
8   0.009409
9   0.191238
10   -0.472686
11   -0.366699
12   -0.181533
13   0.200875
14   0.145002
15   0.149756
16   0.166741
17   0.177731
18   0.150446
19   0.145776
20   0.153893
21   0.161135
22   0.152283
23   0.162501
24   0.255648
25   0.359676

$$$$

