PCCDB-ID:  36937
public computational chemistry database (PCCDB) project, http://pccdb.org

 23 24  0  0  0  0  0  0  0  0999 V2000
   -1.2799    1.4781    0.0764 C   0  0  0  0  0  0  0  0  0  0  0  0
   -2.4565    0.6169   -0.3888 C   0  0  0  0  0  0  0  0  0  0  0  0
    1.2543    1.3810    0.0466 C   0  0  0  0  0  0  0  0  0  0  0  0
    1.2469   -1.3762   -0.0578 C   0  0  0  0  0  0  0  0  0  0  0  0
   -1.2762   -1.4713   -0.0979 C   0  0  0  0  0  0  0  0  0  0  0  0
    0.0240    0.7061    0.0231 C   0  0  0  0  0  0  0  0  0  0  0  0
    0.0233   -0.6913   -0.0280 C   0  0  0  0  0  0  0  0  0  0  0  0
    2.4677    0.7030    0.0193 C   0  0  0  0  0  0  0  0  0  0  0  0
    2.4641   -0.7052   -0.0338 C   0  0  0  0  0  0  0  0  0  0  0  0
   -2.4101   -0.6546    0.3332 N   0  0  0  0  0  0  0  0  0  0  0  0
    3.6855    1.3265    0.0394 O   0  0  0  0  0  0  0  0  0  0  0  0
    3.6784   -1.3355   -0.0560 O   0  0  0  0  0  0  0  0  0  0  0  0
   -1.4736    1.8034    1.1079 H   0  0  0  0  0  0  0  0  0  0  0  0
   -1.2123    2.3859   -0.5375 H   0  0  0  0  0  0  0  0  0  0  0  0
   -2.4072    0.4874   -1.4885 H   0  0  0  0  0  0  0  0  0  0  0  0
   -3.4039    1.1173   -0.1607 H   0  0  0  0  0  0  0  0  0  0  0  0
    1.2639    2.4705    0.0869 H   0  0  0  0  0  0  0  0  0  0  0  0
    1.2504   -2.4659   -0.0966 H   0  0  0  0  0  0  0  0  0  0  0  0
   -1.2161   -2.3525    0.5539 H   0  0  0  0  0  0  0  0  0  0  0  0
   -1.4011   -1.8526   -1.1330 H   0  0  0  0  0  0  0  0  0  0  0  0
   -3.2716   -1.1738    0.1802 H   0  0  0  0  0  0  0  0  0  0  0  0
    3.5355    2.2833    0.0863 H   0  0  0  0  0  0  0  0  0  0  0  0
    3.5235   -2.2921   -0.0908 H   0  0  0  0  0  0  0  0  0  0  0  0
  1 13  1  0  0  0  0
  2 16  1  0  0  0  0
  2  1  1  0  0  0  0
  2 10  1  0  0  0  0
  3 17  1  0  0  0  0
  4  9  2  0  0  0  0
  4  7  1  0  0  0  0
  5  7  1  0  0  0  0
  5 10  1  0  0  0  0
  5 19  1  0  0  0  0
  6  3  1  0  0  0  0
  6  1  1  0  0  0  0
  7  6  2  0  0  0  0
  8 11  1  0  0  0  0
  8  3  2  0  0  0  0
  9  8  1  0  0  0  0
 11 22  1  0  0  0  0
 12  9  1  0  0  0  0
 14  1  1  0  0  0  0
 15  2  1  0  0  0  0
 18  4  1  0  0  0  0
 20  5  1  0  0  0  0
 21 10  1  0  0  0  0
 23 12  1  0  0  0  0
M  END
>  <HBA>
3

>  <HBD>
3

>  <TPSA>
52.49

>  <cid>
36937

>  <dipole>
2.06

>  <excitation_energy_1>
4.642

>  <excitation_energy_2>
4.71

>  <excitation_energy_3>
4.846

>  <excitation_energy_4>
5.019

>  <homo_energy>
-5.312

>  <homo_lumo_gap>
5.54

>  <logP>
1.072

>  <lumo_energy>
0.229

>  <melting_point>
143.03

>  <molecular_refractivity>
49.83

>  <oscillator_strength_1>
0.0777

>  <oscillator_strength_2>
0.0001

>  <oscillator_strength_3>
0.0001

>  <oscillator_strength_4>
0.0085

>  <open_babel_can_smiles>
Oc1cc2CNCCc2cc1O

>  <mulliken_charges>
23
1   -0.320076
2   -0.148913
3   -0.271999
4   -0.264315
5   -0.19935
6   0.121518
7   0.112837
8   0.329919
9   0.327082
10   -0.552304
11   -0.638169
12   -0.637805
13   0.158886
14   0.135042
15   0.115717
16   0.135473
17   0.108476
18   0.107502
19   0.146442
20   0.124801
21   0.297692
22   0.405894
23   0.405652

>  <lowdin_charges>
23
1   -0.27513
2   -0.199563
3   -0.211775
4   -0.211665
5   -0.199514
6   -0.021088
7   -0.02671
8   0.07599
9   0.075849
10   -0.364161
11   -0.37009
12   -0.370066
13   0.155575
14   0.147617
15   0.114595
16   0.145654
17   0.147761
18   0.147386
19   0.150286
20   0.122662
21   0.255903
22   0.355304
23   0.355179

$$$$

