PCCDB-ID:  21715
public computational chemistry database (PCCDB) project, http://pccdb.org

 22 21  0  0  1  0  0  0  0  0999 V2000
    2.4454    0.8130   -4.0894 C   0  0  0  0  0  0  0  0  0  0  0  0
    3.8040    0.4814   -3.4798 C   0  0  0  0  0  0  0  0  0  0  0  0
    5.9226   -0.6195   -1.4817 C   0  0  0  0  0  0  0  0  0  0  0  0
    5.0859    0.6753   -1.3235 C   0  0  1  0  0  0  0  0  0  0  0  0
    6.6020   -0.8998   -2.8282 C   0  0  0  0  0  0  0  0  0  0  0  0
    5.8947    1.9702   -1.5531 C   0  0  0  0  0  0  0  0  0  0  0  0
    3.8094    0.8076   -2.0376 N   0  0  0  0  0  0  0  0  0  0  0  0
    6.2925   -1.8350   -3.5306 O   0  0  0  0  0  0  0  0  0  0  0  0
    7.5953   -0.0642   -3.1773 O   0  0  0  0  0  0  0  0  0  0  0  0
    7.1086    2.0348   -1.4748 O   0  0  0  0  0  0  0  0  0  0  0  0
    5.1282    3.0306   -1.7857 O   0  0  0  0  0  0  0  0  0  0  0  0
    2.4409    0.5734   -5.1574 H   0  0  0  0  0  0  0  0  0  0  0  0
    2.2055    1.8751   -3.9708 H   0  0  0  0  0  0  0  0  0  0  0  0
    1.6457    0.2290   -3.6165 H   0  0  0  0  0  0  0  0  0  0  0  0
    4.5853    1.0857   -3.9573 H   0  0  0  0  0  0  0  0  0  0  0  0
    4.0590   -0.5697   -3.6627 H   0  0  0  0  0  0  0  0  0  0  0  0
    5.2791   -1.4770   -1.2700 H   0  0  0  0  0  0  0  0  0  0  0  0
    6.7021   -0.5910   -0.7105 H   0  0  0  0  0  0  0  0  0  0  0  0
    4.8240    0.7225   -0.2563 H   0  0  0  0  0  0  0  0  0  0  0  0
    3.0861    0.2704   -1.5645 H   0  0  0  0  0  0  0  0  0  0  0  0
    7.6912    0.6540   -2.5102 H   0  0  0  0  0  0  0  0  0  0  0  0
    4.2106    2.6527   -1.8681 H   0  0  0  0  0  0  0  0  0  0  0  0
  1 13  1  0  0  0  0
  1 14  1  0  0  0  0
  1  2  1  0  0  0  0
  2  7  1  0  0  0  0
  3  4  1  0  0  0  0
  3 17  1  0  0  0  0
  3 18  1  0  0  0  0
  4 19  1  1  0  0  0
  5  3  1  0  0  0  0
  6 10  2  0  0  0  0
  6  4  1  0  0  0  0
  7 20  1  0  0  0  0
  7  4  1  0  0  0  0
  8  5  2  0  0  0  0
  9  5  1  0  0  0  0
  9 21  1  0  0  0  0
 11  6  1  0  0  0  0
 12  1  1  0  0  0  0
 15  2  1  0  0  0  0
 16  2  1  0  0  0  0
 22 11  1  0  0  0  0
M  END
>  <HBA>
5

>  <HBD>
3

>  <TPSA>
86.63

>  <cid>
21715

>  <dipole>
5.54

>  <excitation_energy_1>
5.314

>  <excitation_energy_2>
5.478

>  <excitation_energy_3>
5.815

>  <excitation_energy_4>
5.918

>  <homo_energy>
-7.236

>  <homo_lumo_gap>
6.67

>  <logP>
-0.085

>  <lumo_energy>
-0.566

>  <melting_point>
154.93

>  <molecular_refractivity>
37.3

>  <oscillator_strength_1>
0.0023

>  <oscillator_strength_2>
0.0013

>  <oscillator_strength_3>
0.0032

>  <oscillator_strength_4>
0.0027

>  <open_babel_can_smiles>
CCN[C@H](C(=O)O)CC(=O)O

>  <mulliken_charges>
22
1   -0.452347
2   -0.153942
3   -0.38459
4   -0.094761
5   0.597778
6   0.634683
7   -0.611719
8   -0.458444
9   -0.58456
10   -0.49632
11   -0.559879
12   0.166953
13   0.156015
14   0.146201
15   0.164539
16   0.182949
17   0.175746
18   0.183589
19   0.188369
20   0.318884
21   0.446373
22   0.434483

>  <lowdin_charges>
22
1   -0.444441
2   -0.210789
3   -0.329392
4   -0.107274
5   0.186196
6   0.182525
7   -0.363718
8   -0.258182
9   -0.35894
10   -0.273629
11   -0.324235
12   0.163676
13   0.152816
14   0.15069
15   0.154297
16   0.15456
17   0.17456
18   0.179567
19   0.175342
20   0.269435
21   0.36402
22   0.362915

$$$$

