PCCDB-ID:  2992
public computational chemistry database (PCCDB) project, http://pccdb.org

 31 32  0  0  1  0  0  0  0  0999 V2000
    9.2692   -2.1022    1.8914 C   0  0  0  0  0  0  0  0  0  0  0  0
    0.7721    1.1228    8.8130 C   0  0  0  0  0  0  0  0  0  0  0  0
    8.1383   -1.4138    1.7436 C   0  0  0  0  0  0  0  0  0  0  0  0
    3.4967   -0.7497    4.9444 C   0  0  0  0  0  0  0  0  0  0  0  0
    3.5754   -1.6819    3.9888 C   0  0  0  0  0  0  0  0  0  0  0  0
    0.7403    0.2327    7.5713 C   0  0  2  0  0  0  0  0  0  0  0  0
    6.7633   -2.0362    1.6717 C   0  0  1  0  0  0  0  0  0  0  0  0
    2.6264   -0.8698    6.1297 C   0  0  2  0  0  0  0  0  0  0  0  0
    4.4297   -1.5700    2.7816 C   0  0  2  0  0  0  0  0  0  0  0  0
    2.0461    0.3096    6.7980 C   0  0  2  0  0  0  0  0  0  0  0  0
    5.9063   -1.5905    2.8548 C   0  0  2  0  0  0  0  0  0  0  0  0
   -0.3616    0.5369    6.7161 O   0  0  0  0  0  0  0  0  0  0  0  0
    6.1063   -1.7147    0.4508 O   0  0  0  0  0  0  0  0  0  0  0  0
    3.1682   -0.3597    7.3771 O   0  0  0  0  0  0  0  0  0  0  0  0
    5.1995   -0.3556    2.6323 O   0  0  0  0  0  0  0  0  0  0  0  0
   10.2373   -1.6117    1.9439 H   0  0  0  0  0  0  0  0  0  0  0  0
    9.2717   -3.1883    1.9613 H   0  0  0  0  0  0  0  0  0  0  0  0
    1.5964    0.8331    9.4731 H   0  0  0  0  0  0  0  0  0  0  0  0
   -0.1701    1.0415    9.3639 H   0  0  0  0  0  0  0  0  0  0  0  0
    0.9192    2.1757    8.5345 H   0  0  0  0  0  0  0  0  0  0  0  0
    8.1628   -0.3257    1.6707 H   0  0  0  0  0  0  0  0  0  0  0  0
    4.0848    0.1615    4.8561 H   0  0  0  0  0  0  0  0  0  0  0  0
    2.9818   -2.5938    4.0578 H   0  0  0  0  0  0  0  0  0  0  0  0
    0.5864   -0.8084    7.8761 H   0  0  0  0  0  0  0  0  0  0  0  0
    6.8592   -3.1287    1.6963 H   0  0  0  0  0  0  0  0  0  0  0  0
    2.0906   -1.8148    6.2362 H   0  0  0  0  0  0  0  0  0  0  0  0
    3.9921   -1.9238    1.8477 H   0  0  0  0  0  0  0  0  0  0  0  0
    2.2762    1.2968    6.3822 H   0  0  0  0  0  0  0  0  0  0  0  0
    6.3669   -1.6710    3.8399 H   0  0  0  0  0  0  0  0  0  0  0  0
   -0.3422    1.4918    6.5411 H   0  0  0  0  0  0  0  0  0  0  0  0
    5.7626   -0.8103    0.5716 H   0  0  0  0  0  0  0  0  0  0  0  0
  1 16  1  0  0  0  0
  1 17  1  0  0  0  0
  2 19  1  0  0  0  0
  2 18  1  0  0  0  0
  3  1  2  0  0  0  0
  4  8  1  0  0  0  0
  5 23  1  0  0  0  0
  5  4  2  0  0  0  0
  6 24  1  1  0  0  0
  6  2  1  0  0  0  0
  7 25  1  1  0  0  0
  7  3  1  0  0  0  0
  7 11  1  0  0  0  0
  8 26  1  1  0  0  0
  8 10  1  0  0  0  0
  8 14  1  0  0  0  0
  9 27  1  6  0  0  0
  9 11  1  0  0  0  0
  9  5  1  0  0  0  0
 10 28  1  6  0  0  0
 10 14  1  0  0  0  0
 10  6  1  0  0  0  0
 11 29  1  1  0  0  0
 12  6  1  0  0  0  0
 13 31  1  0  0  0  0
 13  7  1  0  0  0  0
 15  9  1  0  0  0  0
 15 11  1  0  0  0  0
 20  2  1  0  0  0  0
 21  3  1  0  0  0  0
 22  4  1  0  0  0  0
 30 12  1  0  0  0  0
M  END
>  <HBA>
4

>  <HBD>
2

>  <TPSA>
65.52

>  <cid>
2992

>  <dipole>
1.04

>  <excitation_energy_1>
5.715

>  <excitation_energy_2>
5.946

>  <excitation_energy_3>
6.076

>  <excitation_energy_4>
6.216

>  <homo_energy>
-6.588

>  <homo_lumo_gap>
6.259

>  <logP>
0.005

>  <lumo_energy>
-0.329

>  <melting_point>
23.8

>  <molecular_refractivity>
54.31

>  <oscillator_strength_1>
0.4832

>  <oscillator_strength_2>
0.0006

>  <oscillator_strength_3>
0.1589

>  <oscillator_strength_4>
0.0013

>  <open_babel_can_smiles>
C=C[C@@H]([C@H]1O[C@@H]1/C=C/[C@H]1O[C@@H]1[C@H](O)C)O

>  <mulliken_charges>
31
1   -0.343497
2   -0.469281
3   -0.045254
4   -0.093839
5   -0.144267
6   0.10793
7   0.07913
8   0.051062
9   0.041255
10   0.081373
11   0.048457
12   -0.614842
13   -0.62916
14   -0.462382
15   -0.474773
16   0.147458
17   0.141864
18   0.170648
19   0.162012
20   0.13272
21   0.135794
22   0.156983
23   0.13708
24   0.146644
25   0.149452
26   0.143054
27   0.165021
28   0.128488
29   0.161169
30   0.386178
31   0.403523

>  <lowdin_charges>
31
1   -0.325527
2   -0.459754
3   -0.157026
4   -0.155737
5   -0.174667
6   -0.003802
7   -0.004582
8   -0.017175
9   -0.02495
10   -0.038418
11   -0.035717
12   -0.453674
13   -0.451164
14   -0.286019
15   -0.291611
16   0.162745
17   0.15487
18   0.167944
19   0.160486
20   0.142915
21   0.154364
22   0.170581
23   0.161036
24   0.149445
25   0.151691
26   0.153223
27   0.164122
28   0.141611
29   0.162154
30   0.338337
31   0.344298

$$$$

