PCCDB-ID:  7483
public computational chemistry database (PCCDB) project, http://pccdb.org

 19 19  0  0  0  0  0  0  0  0999 V2000
    2.3078   -1.5786    0.2903 C   0  0  0  0  0  0  0  0  0  0  0  0
    4.0162    0.1219    1.9669 C   0  0  0  0  0  0  0  0  0  0  0  0
    2.8325    2.0643    1.1057 C   0  0  0  0  0  0  0  0  0  0  0  0
    4.7685    0.9521    2.7843 C   0  0  0  0  0  0  0  0  0  0  0  0
    3.5816    2.8894    1.9227 C   0  0  0  0  0  0  0  0  0  0  0  0
    3.0330    0.6619    1.1058 C   0  0  0  0  0  0  0  0  0  0  0  0
    4.5528    2.3307    2.7613 C   0  0  0  0  0  0  0  0  0  0  0  0
    2.2916   -0.1300    0.2680 N   0  0  0  0  0  0  0  0  0  0  0  0
    5.3423    3.1965    3.6211 N   0  0  0  0  0  0  0  0  0  0  0  0
    6.1927    2.6729    4.3479 O   0  0  0  0  0  0  0  0  0  0  0  0
    5.1211    4.4111    3.5791 O   0  0  0  0  0  0  0  0  0  0  0  0
    1.6117   -1.9465   -0.4666 H   0  0  0  0  0  0  0  0  0  0  0  0
    2.0086   -1.9888    1.2660 H   0  0  0  0  0  0  0  0  0  0  0  0
    3.3046   -1.9653    0.0457 H   0  0  0  0  0  0  0  0  0  0  0  0
    4.1890   -0.9479    1.9943 H   0  0  0  0  0  0  0  0  0  0  0  0
    2.0799    2.4944    0.4491 H   0  0  0  0  0  0  0  0  0  0  0  0
    5.5235    0.5471    3.4471 H   0  0  0  0  0  0  0  0  0  0  0  0
    3.4316    3.9621    1.9280 H   0  0  0  0  0  0  0  0  0  0  0  0
    1.5186    0.3140   -0.2043 H   0  0  0  0  0  0  0  0  0  0  0  0
  1 13  1  0  0  0  0
  2 15  1  0  0  0  0
  2  4  2  0  0  0  0
  3  6  2  0  0  0  0
  3  5  1  0  0  0  0
  4 17  1  0  0  0  0
  5 18  1  0  0  0  0
  5  7  2  0  0  0  0
  6  2  1  0  0  0  0
  7  4  1  0  0  0  0
  7  9  1  0  0  0  0
  8  1  1  0  0  0  0
  8  6  1  0  0  0  0
  9 10  2  0  0  0  0
 11  9  2  0  0  0  0
 12  1  1  0  0  0  0
 14  1  1  0  0  0  0
 16  3  1  0  0  0  0
 19  8  1  0  0  0  0
M  END
>  <HBA>
1

>  <HBD>
1

>  <TPSA>
57.85

>  <cid>
7483

>  <dipole>
7.82

>  <excitation_energy_1>
3.731

>  <excitation_energy_2>
3.78

>  <excitation_energy_3>
4.353

>  <excitation_energy_4>
4.444

>  <homo_energy>
-5.97

>  <homo_lumo_gap>
4.117

>  <logP>
2.233

>  <lumo_energy>
-1.853

>  <melting_point>
77.67

>  <molecular_refractivity>
44.57

>  <oscillator_strength_1>
0.3757

>  <oscillator_strength_2>
0.0017

>  <oscillator_strength_3>
0.0004

>  <oscillator_strength_4>
0.0003

>  <open_babel_can_smiles>
CNc1ccc(cc1)N(=O)=O

>  <mulliken_charges>
19
1   -0.302723
2   -0.19813
3   -0.202832
4   -0.159182
5   -0.153631
6   0.398586
7   0.272746
8   -0.651773
9   0.365398
10   -0.414086
11   -0.413739
12   0.165269
13   0.164787
14   0.172762
15   0.139025
16   0.130991
17   0.178534
18   0.178345
19   0.329655

>  <lowdin_charges>
19
1   -0.350297
2   -0.206287
3   -0.197618
4   -0.123468
5   -0.124889
6   0.081608
7   -0.032642
8   -0.273399
9   0.307714
10   -0.26817
11   -0.265698
12   0.165731
13   0.150017
14   0.157354
15   0.163943
16   0.159937
17   0.186759
18   0.184359
19   0.285043

$$$$

