PCCDB-ID:  12329
public computational chemistry database (PCCDB) project, http://pccdb.org

 26 25  0  0  0  0  0  0  0  0999 V2000
    3.3872   -4.4293   -2.0865 C   0  0  0  0  0  0  0  0  0  0  0  0
   -2.3931   -6.2900    3.7960 C   0  0  0  0  0  0  0  0  0  0  0  0
    1.2364   -2.2199    0.8231 C   0  0  0  0  0  0  0  0  0  0  0  0
    1.0039   -3.4756    1.6718 C   0  0  0  0  0  0  0  0  0  0  0  0
    2.7217   -1.9221    0.5624 C   0  0  0  0  0  0  0  0  0  0  0  0
   -0.4809   -3.7259    1.9429 C   0  0  0  0  0  0  0  0  0  0  0  0
    3.4719   -2.9798   -0.2279 C   0  0  0  0  0  0  0  0  0  0  0  0
   -0.7342   -4.9997    2.7262 C   0  0  0  0  0  0  0  0  0  0  0  0
    4.6030   -3.3480    0.0006 O   0  0  0  0  0  0  0  0  0  0  0  0
    0.0989   -5.8306    3.0160 O   0  0  0  0  0  0  0  0  0  0  0  0
    2.7344   -3.4484   -1.2637 O   0  0  0  0  0  0  0  0  0  0  0  0
   -2.0409   -5.1048    3.0642 O   0  0  0  0  0  0  0  0  0  0  0  0
    3.6881   -5.2936   -1.4891 H   0  0  0  0  0  0  0  0  0  0  0  0
    4.2743   -4.0019   -2.5620 H   0  0  0  0  0  0  0  0  0  0  0  0
    2.6515   -4.7180   -2.8379 H   0  0  0  0  0  0  0  0  0  0  0  0
   -1.8495   -6.3329    4.7438 H   0  0  0  0  0  0  0  0  0  0  0  0
   -2.1599   -7.1860    3.2145 H   0  0  0  0  0  0  0  0  0  0  0  0
   -3.4666   -6.2166    3.9733 H   0  0  0  0  0  0  0  0  0  0  0  0
    0.7988   -1.3480    1.3283 H   0  0  0  0  0  0  0  0  0  0  0  0
    0.7161   -2.3190   -0.1369 H   0  0  0  0  0  0  0  0  0  0  0  0
    1.5370   -3.3866    2.6270 H   0  0  0  0  0  0  0  0  0  0  0  0
    1.4268   -4.3536    1.1704 H   0  0  0  0  0  0  0  0  0  0  0  0
    3.2708   -1.7852    1.4989 H   0  0  0  0  0  0  0  0  0  0  0  0
    2.8102   -0.9824   -0.0004 H   0  0  0  0  0  0  0  0  0  0  0  0
   -1.0434   -3.7988    1.0015 H   0  0  0  0  0  0  0  0  0  0  0  0
   -0.9361   -2.8912    2.4915 H   0  0  0  0  0  0  0  0  0  0  0  0
  1 13  1  0  0  0  0
  1 11  1  0  0  0  0
  2 18  1  0  0  0  0
  2 16  1  0  0  0  0
  3 19  1  0  0  0  0
  3  4  1  0  0  0  0
  4  6  1  0  0  0  0
  4 21  1  0  0  0  0
  5  3  1  0  0  0  0
  5 23  1  0  0  0  0
  6 26  1  0  0  0  0
  6  8  1  0  0  0  0
  7  9  2  0  0  0  0
  7  5  1  0  0  0  0
  8 10  2  0  0  0  0
  8 12  1  0  0  0  0
 11  7  1  0  0  0  0
 12  2  1  0  0  0  0
 14  1  1  0  0  0  0
 15  1  1  0  0  0  0
 17  2  1  0  0  0  0
 20  3  1  0  0  0  0
 22  4  1  0  0  0  0
 24  5  1  0  0  0  0
 25  6  1  0  0  0  0
M  END
>  <HBA>
4

>  <HBD>
0

>  <TPSA>
52.6

>  <cid>
12329

>  <dipole>
3.29

>  <excitation_energy_1>
5.719

>  <excitation_energy_2>
5.846

>  <excitation_energy_3>
6.883

>  <excitation_energy_4>
6.949

>  <homo_energy>
-7.219

>  <homo_lumo_gap>
7.595

>  <logP>
0.893

>  <lumo_energy>
0.376

>  <melting_point>
-3.01

>  <molecular_refractivity>
43.14

>  <oscillator_strength_1>
0.002

>  <oscillator_strength_2>
0.0006

>  <oscillator_strength_3>
0.0085

>  <oscillator_strength_4>
0.0143

>  <open_babel_can_smiles>
COC(=O)CCCCC(=O)OC

>  <mulliken_charges>
26
1   -0.218042
2   -0.217522
3   -0.265082
4   -0.252427
5   -0.353148
6   -0.362909
7   0.612271
8   0.619799
9   -0.473789
10   -0.476408
11   -0.44847
12   -0.454181
13   0.174014
14   0.169001
15   0.161831
16   0.169953
17   0.169439
18   0.163517
19   0.134588
20   0.153232
21   0.149567
22   0.162121
23   0.1709
24   0.1694
25   0.172968
26   0.169377

>  <lowdin_charges>
26
1   -0.281507
2   -0.277193
3   -0.275067
4   -0.273568
5   -0.298024
6   -0.302829
7   0.191965
8   0.199217
9   -0.26041
10   -0.263487
11   -0.197155
12   -0.198557
13   0.161902
14   0.159178
15   0.160261
16   0.158708
17   0.159115
18   0.158088
19   0.145178
20   0.150957
21   0.150668
22   0.156923
23   0.16766
24   0.171262
25   0.169164
26   0.167548

$$$$

