PCCDB-ID:  9236
public computational chemistry database (PCCDB) project, http://pccdb.org

 21 22  0  0  1  0  0  0  0  0999 V2000
    0.7771    1.4137   -0.2995 C   0  0  0  0  0  0  0  0  0  0  0  0
    0.7856   -0.4510    1.3906 C   0  0  0  0  0  0  0  0  0  0  0  0
   -0.7802    1.3922   -0.3333 C   0  0  0  0  0  0  0  0  0  0  0  0
   -0.7720   -0.4422    1.3951 C   0  0  0  0  0  0  0  0  0  0  0  0
    0.7338   -0.9682   -1.0627 C   0  0  0  0  0  0  0  0  0  0  0  0
    1.2913   -0.0079    0.0032 C   0  0  1  0  0  0  0  0  0  0  0  0
   -1.2685   -0.0294   -0.0082 C   0  0  2  0  0  0  0  0  0  0  0  0
   -0.7515   -0.9290   -1.0575 N   0  0  0  0  0  0  0  0  0  0  0  0
    1.1463    2.1104    0.4635 H   0  0  0  0  0  0  0  0  0  0  0  0
    1.1805    1.7571   -1.2597 H   0  0  0  0  0  0  0  0  0  0  0  0
    1.1702   -1.4528    1.6198 H   0  0  0  0  0  0  0  0  0  0  0  0
    1.1848    0.2197    2.1612 H   0  0  0  0  0  0  0  0  0  0  0  0
   -1.1534    1.6743   -1.3231 H   0  0  0  0  0  0  0  0  0  0  0  0
   -1.2020    2.1011    0.3893 H   0  0  0  0  0  0  0  0  0  0  0  0
   -1.1652    0.2468    2.1541 H   0  0  0  0  0  0  0  0  0  0  0  0
   -1.1683   -1.4355    1.6426 H   0  0  0  0  0  0  0  0  0  0  0  0
    1.1000   -1.9874   -0.8717 H   0  0  0  0  0  0  0  0  0  0  0  0
    1.1089   -0.6787   -2.0559 H   0  0  0  0  0  0  0  0  0  0  0  0
    2.3879   -0.0274   -0.0253 H   0  0  0  0  0  0  0  0  0  0  0  0
   -2.3633   -0.0672   -0.0510 H   0  0  0  0  0  0  0  0  0  0  0  0
   -1.1197   -1.8640   -0.9012 H   0  0  0  0  0  0  0  0  0  0  0  0
  1  6  1  0  0  0  0
  1  9  1  0  0  0  0
  2  4  1  0  0  0  0
  2 11  1  0  0  0  0
  2 12  1  0  0  0  0
  3  1  1  0  0  0  0
  3  7  1  0  0  0  0
  3 14  1  0  0  0  0
  4 16  1  0  0  0  0
  4 15  1  0  0  0  0
  5  8  1  0  0  0  0
  5 17  1  0  0  0  0
  5  6  1  0  0  0  0
  6 19  1  6  0  0  0
  6  2  1  0  0  0  0
  7 20  1  6  0  0  0
  7  4  1  0  0  0  0
  8 21  1  0  0  0  0
  8  7  1  0  0  0  0
 10  1  1  0  0  0  0
 13  3  1  0  0  0  0
 18  5  1  0  0  0  0
M  END
>  <HBA>
1

>  <HBD>
1

>  <TPSA>
12.03

>  <cid>
9236

>  <dipole>
1.15

>  <excitation_energy_1>
4.826

>  <excitation_energy_2>
5.536

>  <excitation_energy_3>
5.618

>  <excitation_energy_4>
5.828

>  <homo_energy>
-5.521

>  <homo_lumo_gap>
7.323

>  <logP>
1.477

>  <lumo_energy>
1.801

>  <melting_point>
45.11

>  <molecular_refractivity>
38.25

>  <oscillator_strength_1>
0.0036

>  <oscillator_strength_2>
0.0109

>  <oscillator_strength_3>
0.0077

>  <oscillator_strength_4>
0.0116

>  <open_babel_can_smiles>
C1C[C@H]2CC[C@@H]1NC2

>  <mulliken_charges>
21
1   -0.26865
2   -0.266174
3   -0.255531
4   -0.267202
5   -0.125965
6   -0.101437
7   0.007749
8   -0.551628
9   0.129376
10   0.135425
11   0.129193
12   0.132118
13   0.145889
14   0.128444
15   0.12904
16   0.123754
17   0.120073
18   0.131857
19   0.115708
20   0.118444
21   0.289515

>  <lowdin_charges>
21
1   -0.284499
2   -0.28457
3   -0.28774
4   -0.300983
5   -0.204199
6   -0.13613
7   -0.067644
8   -0.374428
9   0.142216
10   0.144676
11   0.14048
12   0.143976
13   0.151034
14   0.143303
15   0.14286
16   0.138043
17   0.130818
18   0.134252
19   0.139998
20   0.138538
21   0.25

$$$$

