PCCDB-ID:  29909
public computational chemistry database (PCCDB) project, http://pccdb.org

 16 16  0  0  0  0  0  0  0  0999 V2000
    0.9888    0.0574   -0.1713 C   0  0  0  0  0  0  0  0  0  0  0  0
    2.8641   -0.0204    1.5433 C   0  0  0  0  0  0  0  0  0  0  0  0
    3.9383   -0.9677   -1.5572 C   0  0  0  0  0  0  0  0  0  0  0  0
    3.0626   -1.3238   -0.6166 C   0  0  0  0  0  0  0  0  0  0  0  0
    4.0245    0.5143   -1.5876 C   0  0  0  0  0  0  0  0  0  0  0  0
    2.4983   -0.0936    0.0556 C   0  0  0  0  0  0  0  0  0  0  0  0
    4.6912    1.2331   -2.2885 O   0  0  0  0  0  0  0  0  0  0  0  0
    3.1666    0.9974   -0.6263 O   0  0  0  0  0  0  0  0  0  0  0  0
    0.4427   -0.7565    0.3183 H   0  0  0  0  0  0  0  0  0  0  0  0
    0.7577    0.0402   -1.2405 H   0  0  0  0  0  0  0  0  0  0  0  0
    0.6423    1.0082    0.2452 H   0  0  0  0  0  0  0  0  0  0  0  0
    2.4012   -0.8466    2.0942 H   0  0  0  0  0  0  0  0  0  0  0  0
    2.5095    0.9233    1.9692 H   0  0  0  0  0  0  0  0  0  0  0  0
    3.9487   -0.0766    1.6739 H   0  0  0  0  0  0  0  0  0  0  0  0
    4.5212   -1.5938   -2.2200 H   0  0  0  0  0  0  0  0  0  0  0  0
    2.7630   -2.3282   -0.3355 H   0  0  0  0  0  0  0  0  0  0  0  0
  1  6  1  0  0  0  0
  1 11  1  0  0  0  0
  1  9  1  0  0  0  0
  2 14  1  0  0  0  0
  2 13  1  0  0  0  0
  2 12  1  0  0  0  0
  3  4  2  0  0  0  0
  4 16  1  0  0  0  0
  4  6  1  0  0  0  0
  5  3  1  0  0  0  0
  5  8  1  0  0  0  0
  6  2  1  0  0  0  0
  7  5  2  0  0  0  0
  8  6  1  0  0  0  0
 10  1  1  0  0  0  0
 15  3  1  0  0  0  0
M  END
>  <HBA>
2

>  <HBD>
0

>  <TPSA>
26.3

>  <cid>
29909

>  <dipole>
4.93

>  <excitation_energy_1>
4.674

>  <excitation_energy_2>
5.921

>  <excitation_energy_3>
6.451

>  <excitation_energy_4>
6.874

>  <homo_energy>
-7.244

>  <homo_lumo_gap>
6.057

>  <logP>
0.878

>  <lumo_energy>
-1.186

>  <melting_point>
29.27

>  <molecular_refractivity>
29.69

>  <oscillator_strength_1>
0.0002

>  <oscillator_strength_2>
0.1439

>  <oscillator_strength_3>
0.1298

>  <oscillator_strength_4>
0.0625

>  <open_babel_can_smiles>
O=C1C=CC(O1)(C)C

>  <mulliken_charges>
16
1   -0.443742
2   -0.443196
3   -0.178195
4   -0.118199
5   0.593775
6   0.253692
7   -0.468034
8   -0.481717
9   0.14793
10   0.165425
11   0.168795
12   0.14785
13   0.168346
14   0.165551
15   0.16343
16   0.15829

>  <lowdin_charges>
16
1   -0.442262
2   -0.441736
3   -0.196366
4   -0.131201
5   0.19127
6   0.13195
7   -0.240165
8   -0.194923
9   0.157268
10   0.162257
11   0.16549
12   0.157168
13   0.165328
14   0.162097
15   0.182063
16   0.171762

$$$$

