PCCDB-ID:  15692
public computational chemistry database (PCCDB) project, http://pccdb.org

 23 23  0  0  0  0  0  0  0  0999 V2000
    1.7652   -0.5510   -1.3775 C   0  0  0  0  0  0  0  0  0  0  0  0
    3.9665   -1.2003   -0.4475 C   0  0  0  0  0  0  0  0  0  0  0  0
    2.9657    3.6694    4.5191 C   0  0  0  0  0  0  0  0  0  0  0  0
    1.9581    2.7525    4.2171 C   0  0  0  0  0  0  0  0  0  0  0  0
    4.1645    3.6286    3.8004 C   0  0  0  0  0  0  0  0  0  0  0  0
    2.1377    1.8109    3.2033 C   0  0  0  0  0  0  0  0  0  0  0  0
    4.3509    2.6892    2.7904 C   0  0  0  0  0  0  0  0  0  0  0  0
    2.6324    0.5379    0.6321 C   0  0  0  0  0  0  0  0  0  0  0  0
    3.3332    1.7758    2.4605 C   0  0  0  0  0  0  0  0  0  0  0  0
    3.5839    0.8479    1.4385 N   0  0  0  0  0  0  0  0  0  0  0  0
    2.7277   -0.4560   -0.2978 N   0  0  0  0  0  0  0  0  0  0  0  0
    1.4903   -1.5989   -1.5497 H   0  0  0  0  0  0  0  0  0  0  0  0
    2.1614   -0.1436   -2.3205 H   0  0  0  0  0  0  0  0  0  0  0  0
    0.8597    0.0042   -1.1173 H   0  0  0  0  0  0  0  0  0  0  0  0
    3.7393   -2.2417   -0.7033 H   0  0  0  0  0  0  0  0  0  0  0  0
    4.5150   -1.1589    0.4936 H   0  0  0  0  0  0  0  0  0  0  0  0
    4.6000   -0.7769   -1.2412 H   0  0  0  0  0  0  0  0  0  0  0  0
    2.8258    4.3971    5.3137 H   0  0  0  0  0  0  0  0  0  0  0  0
    1.0292    2.7593    4.7825 H   0  0  0  0  0  0  0  0  0  0  0  0
    4.9612    4.3312    4.0327 H   0  0  0  0  0  0  0  0  0  0  0  0
    1.3632    1.0747    3.0035 H   0  0  0  0  0  0  0  0  0  0  0  0
    5.2792    2.6484    2.2281 H   0  0  0  0  0  0  0  0  0  0  0  0
    1.6571    1.0427    0.6298 H   0  0  0  0  0  0  0  0  0  0  0  0
  1 14  1  0  0  0  0
  1 11  1  0  0  0  0
  2 11  1  0  0  0  0
  2 16  1  0  0  0  0
  3 18  1  0  0  0  0
  4  3  1  0  0  0  0
  4 19  1  0  0  0  0
  5 20  1  0  0  0  0
  5  3  2  0  0  0  0
  6  4  2  0  0  0  0
  7  5  1  0  0  0  0
  8 10  2  0  0  0  0
  9  7  2  0  0  0  0
  9  6  1  0  0  0  0
 10  9  1  0  0  0  0
 11  8  1  0  0  0  0
 12  1  1  0  0  0  0
 13  1  1  0  0  0  0
 15  2  1  0  0  0  0
 17  2  1  0  0  0  0
 21  6  1  0  0  0  0
 22  7  1  0  0  0  0
 23  8  1  0  0  0  0
M  END
>  <HBA>
2

>  <HBD>
0

>  <TPSA>
15.6

>  <cid>
15692

>  <dipole>
3.33

>  <excitation_energy_1>
4.598

>  <excitation_energy_2>
4.741

>  <excitation_energy_3>
4.868

>  <excitation_energy_4>
5.284

>  <homo_energy>
-5.295

>  <homo_lumo_gap>
5.293

>  <logP>
1.908

>  <lumo_energy>
-0.003

>  <melting_point>
29.86

>  <molecular_refractivity>
48.16

>  <oscillator_strength_1>
0.3698

>  <oscillator_strength_2>
0.0246

>  <oscillator_strength_3>
0.0482

>  <oscillator_strength_4>
0.1144

>  <open_babel_can_smiles>
CN(/C=N/c1ccccc1)C

>  <mulliken_charges>
23
1   -0.30964
2   -0.31149
3   -0.132786
4   -0.140242
5   -0.137656
6   -0.167808
7   -0.156332
8   0.260739
9   0.275424
10   -0.53059
11   -0.369316
12   0.16032
13   0.156682
14   0.164655
15   0.149278
16   0.202797
17   0.152937
18   0.119833
19   0.121716
20   0.122805
21   0.116703
22   0.124944
23   0.127025

>  <lowdin_charges>
23
1   -0.345989
2   -0.35291
3   -0.176161
4   -0.155252
5   -0.156007
6   -0.197022
7   -0.173738
8   -0.024366
9   0.0483
10   -0.225553
11   -0.091331
12   0.151981
13   0.146157
14   0.161269
15   0.14948
16   0.182872
17   0.148502
18   0.154035
19   0.153572
20   0.155248
21   0.152824
22   0.159609
23   0.134478

$$$$

