PCCDB-ID:  68103
public computational chemistry database (PCCDB) project, http://pccdb.org

 20 20  0  0  0  0  0  0  0  0999 V2000
    0.8782    0.0688   -0.0078 C   0  0  0  0  0  0  0  0  0  0  0  0
    6.7457    0.0548   -0.0356 C   0  0  0  0  0  0  0  0  0  0  0  0
    3.1015    1.2744   -0.0178 C   0  0  0  0  0  0  0  0  0  0  0  0
    3.1044   -1.1278   -0.0211 C   0  0  0  0  0  0  0  0  0  0  0  0
    2.3895    0.0750   -0.0155 C   0  0  0  0  0  0  0  0  0  0  0  0
    5.2385    0.0803   -0.0293 C   0  0  0  0  0  0  0  0  0  0  0  0
    4.5031    1.2716   -0.0243 C   0  0  0  0  0  0  0  0  0  0  0  0
    4.5008   -1.1139   -0.0277 C   0  0  0  0  0  0  0  0  0  0  0  0
    5.2114    2.4470   -0.0264 O   0  0  0  0  0  0  0  0  0  0  0  0
    5.2330   -2.2735   -0.0345 O   0  0  0  0  0  0  0  0  0  0  0  0
    0.4742    1.0859   -0.0119 H   0  0  0  0  0  0  0  0  0  0  0  0
    0.4846   -0.4426    0.8796 H   0  0  0  0  0  0  0  0  0  0  0  0
    0.4756   -0.4537   -0.8845 H   0  0  0  0  0  0  0  0  0  0  0  0
    7.1523    1.0671   -0.0305 H   0  0  0  0  0  0  0  0  0  0  0  0
    7.1269   -0.4708   -0.9195 H   0  0  0  0  0  0  0  0  0  0  0  0
    7.1336   -0.4830    0.8379 H   0  0  0  0  0  0  0  0  0  0  0  0
    2.5664    2.2229   -0.0145 H   0  0  0  0  0  0  0  0  0  0  0  0
    2.5732   -2.0788   -0.0191 H   0  0  0  0  0  0  0  0  0  0  0  0
    4.5822    3.1841   -0.0187 H   0  0  0  0  0  0  0  0  0  0  0  0
    4.6211   -3.0254   -0.0212 H   0  0  0  0  0  0  0  0  0  0  0  0
  1 12  1  0  0  0  0
  2 14  1  0  0  0  0
  2  6  1  0  0  0  0
  2 16  1  0  0  0  0
  3  5  1  0  0  0  0
  3 17  1  0  0  0  0
  4 18  1  0  0  0  0
  4  5  2  0  0  0  0
  5  1  1  0  0  0  0
  6  8  2  0  0  0  0
  6  7  1  0  0  0  0
  7  3  2  0  0  0  0
  8  4  1  0  0  0  0
  9  7  1  0  0  0  0
  9 19  1  0  0  0  0
 10  8  1  0  0  0  0
 10 20  1  0  0  0  0
 11  1  1  0  0  0  0
 13  1  1  0  0  0  0
 15  2  1  0  0  0  0
M  END
>  <HBA>
2

>  <HBD>
2

>  <TPSA>
40.46

>  <cid>
68103

>  <dipole>
2.29

>  <excitation_energy_1>
4.935

>  <excitation_energy_2>
4.973

>  <excitation_energy_3>
5.061

>  <excitation_energy_4>
5.306

>  <homo_energy>
-5.69

>  <homo_lumo_gap>
6.046

>  <logP>
1.715

>  <lumo_energy>
0.356

>  <melting_point>
93.94

>  <molecular_refractivity>
40.42

>  <oscillator_strength_1>
0.0001

>  <oscillator_strength_2>
0.007

>  <oscillator_strength_3>
0.0018

>  <oscillator_strength_4>
0.0041

>  <open_babel_can_smiles>
Cc1cc(O)c(c(c1)O)C

>  <mulliken_charges>
20
1   -0.533012
2   -0.515216
3   -0.261723
4   -0.252451
5   0.177487
6   0.097334
7   0.29812
8   0.294215
9   -0.651469
10   -0.64497
11   0.153504
12   0.161502
13   0.161432
14   0.172495
15   0.161215
16   0.161146
17   0.103415
18   0.102616
19   0.407469
20   0.406893

>  <lowdin_charges>
20
1   -0.441151
2   -0.439089
3   -0.247199
4   -0.24725
5   0.017036
6   -0.06344
7   0.102745
8   0.105325
9   -0.383721
10   -0.380707
11   0.155042
12   0.160628
13   0.160684
14   0.166768
15   0.161751
16   0.161823
17   0.147605
18   0.147796
19   0.357746
20   0.357608

$$$$

