PCCDB-ID:  48771
public computational chemistry database (PCCDB) project, http://pccdb.org

 26 26  0  0  1  0  0  0  0  0999 V2000
    2.4601   -0.8171   -1.6074 C   0  0  0  0  0  0  0  0  0  0  0  0
    1.9968    0.6879    2.5510 C   0  0  0  0  0  0  0  0  0  0  0  0
    3.1091   -1.3154    3.5298 C   0  0  0  0  0  0  0  0  0  0  0  0
    2.2617   -0.2367   -0.2030 C   0  0  0  0  0  0  0  0  0  0  0  0
    2.5966   -0.4970    2.3636 C   0  0  0  0  0  0  0  0  0  0  0  0
    4.3072   -1.3529    0.7528 C   0  0  0  0  0  0  0  0  0  0  0  0
    2.1347   -2.4862    0.9212 C   0  0  0  0  0  0  0  0  0  0  0  0
    3.9926   -3.5231    0.0019 C   0  0  0  0  0  0  0  0  0  0  0  0
    2.8120   -1.1157    0.9707 C   0  0  2  0  0  0  0  0  0  0  0  0
    4.8372   -2.4215    0.3131 N   0  0  0  0  0  0  0  0  0  0  0  0
    2.6541   -3.5603    0.4822 N   0  0  0  0  0  0  0  0  0  0  0  0
    5.1129   -0.3038    1.0197 O   0  0  0  0  0  0  0  0  0  0  0  0
    0.8552   -2.5239    1.3486 O   0  0  0  0  0  0  0  0  0  0  0  0
    4.4238   -4.4467   -0.6483 O   0  0  0  0  0  0  0  0  0  0  0  0
    2.0395   -0.1282   -2.3469 H   0  0  0  0  0  0  0  0  0  0  0  0
    1.9568   -1.7816   -1.7261 H   0  0  0  0  0  0  0  0  0  0  0  0
    3.5189   -0.9563   -1.8460 H   0  0  0  0  0  0  0  0  0  0  0  0
    1.8657    1.0870    3.5532 H   0  0  0  0  0  0  0  0  0  0  0  0
    1.6179    1.3012    1.7406 H   0  0  0  0  0  0  0  0  0  0  0  0
    2.9168   -0.8086    4.4792 H   0  0  0  0  0  0  0  0  0  0  0  0
    4.1885   -1.4912    3.4490 H   0  0  0  0  0  0  0  0  0  0  0  0
    2.6304   -2.3014    3.5656 H   0  0  0  0  0  0  0  0  0  0  0  0
    1.1924   -0.0686   -0.0279 H   0  0  0  0  0  0  0  0  0  0  0  0
    2.7452    0.7457   -0.1456 H   0  0  0  0  0  0  0  0  0  0  0  0
    4.5867    0.4081    1.4256 H   0  0  0  0  0  0  0  0  0  0  0  0
    0.6213   -1.6598    1.7320 H   0  0  0  0  0  0  0  0  0  0  0  0
  1  4  1  0  0  0  0
  2 18  1  0  0  0  0
  3 22  1  0  0  0  0
  3 20  1  0  0  0  0
  4 24  1  0  0  0  0
  4 23  1  0  0  0  0
  4  9  1  0  0  0  0
  5  2  2  0  0  0  0
  5  3  1  0  0  0  0
  6  9  1  0  0  0  0
  6 12  1  0  0  0  0
  7  9  1  0  0  0  0
  7 13  1  0  0  0  0
  8 10  2  0  0  0  0
  8 11  1  0  0  0  0
  9  5  1  1  0  0  0
 10  6  2  0  0  0  0
 11  7  2  0  0  0  0
 12 25  1  0  0  0  0
 13 26  1  0  0  0  0
 14  8  2  0  0  0  0
 15  1  1  0  0  0  0
 16  1  1  0  0  0  0
 17  1  1  0  0  0  0
 19  2  1  0  0  0  0
 21  3  1  0  0  0  0
M  END
>  <HBA>
5

>  <HBD>
2

>  <TPSA>
75.27

>  <cid>
48771

>  <dipole>
9.63

>  <excitation_energy_1>
4.016

>  <excitation_energy_2>
4.239

>  <excitation_energy_3>
5.016

>  <excitation_energy_4>
5.345

>  <homo_energy>
-6.92

>  <homo_lumo_gap>
5.393

>  <logP>
0.983

>  <lumo_energy>
-1.527

>  <melting_point>
124.4

>  <molecular_refractivity>
56.95

>  <oscillator_strength_1>
0.0005

>  <oscillator_strength_2>
0.0002

>  <oscillator_strength_3>
0.0327

>  <oscillator_strength_4>
0.0041

>  <open_babel_can_smiles>
CC[C@@]1(C(=C)C)C(=N[C](=[N]=C1O)=O)O

>  <mulliken_charges>
26
1   -0.47559
2   -0.409177
3   -0.525308
4   -0.271273
5   0.124358
6   0.542823
7   0.542719
8   0.617895
9   -0.167177
10   -0.468531
11   -0.468651
12   -0.577927
13   -0.577985
14   -0.428528
15   0.160769
16   0.183289
17   0.183172
18   0.164566
19   0.163954
20   0.16874
21   0.190356
22   0.190365
23   0.15144
24   0.151336
25   0.417141
26   0.417224

>  <lowdin_charges>
26
1   -0.453311
2   -0.354048
3   -0.448427
4   -0.264756
5   -0.023795
6   0.144777
7   0.145513
8   0.175117
9   -0.062578
10   -0.183966
11   -0.183685
12   -0.330392
13   -0.330212
14   -0.208115
15   0.163845
16   0.167515
17   0.166355
18   0.170793
19   0.169982
20   0.166782
21   0.173705
22   0.174893
23   0.149146
24   0.150213
25   0.363298
26   0.361352

$$$$

