PCCDB-ID:  72918
public computational chemistry database (PCCDB) project, http://pccdb.org

 26 26  0  0  0  0  0  0  0  0999 V2000
    1.9389    0.5001   -2.1660 C   0  0  0  0  0  0  0  0  0  0  0  0
    1.8519   -0.1113   -0.7627 C   0  0  0  0  0  0  0  0  0  0  0  0
    2.4745   -1.5121   -0.6374 C   0  0  0  0  0  0  0  0  0  0  0  0
    3.9917   -1.5569   -0.8640 C   0  0  0  0  0  0  0  0  0  0  0  0
    4.5809   -2.9694   -0.6656 C   0  0  0  0  0  0  0  0  0  0  0  0
    6.6208   -3.2236   -2.1613 C   0  0  0  0  0  0  0  0  0  0  0  0
    6.9809   -2.8159    0.1589 C   0  0  0  0  0  0  0  0  0  0  0  0
    8.0059   -3.2201   -2.3226 C   0  0  0  0  0  0  0  0  0  0  0  0
    8.3502   -2.8300   -0.1055 C   0  0  0  0  0  0  0  0  0  0  0  0
    6.0748   -3.0162   -0.8889 C   0  0  0  0  0  0  0  0  0  0  0  0
    8.8747   -3.0275   -1.3217 N   0  0  0  0  0  0  0  0  0  0  0  0
    1.4221    1.4657   -2.2060 H   0  0  0  0  0  0  0  0  0  0  0  0
    1.4736   -0.1565   -2.9121 H   0  0  0  0  0  0  0  0  0  0  0  0
    2.9759    0.6713   -2.4755 H   0  0  0  0  0  0  0  0  0  0  0  0
    0.7963   -0.1726   -0.4661 H   0  0  0  0  0  0  0  0  0  0  0  0
    2.3317    0.5628   -0.0388 H   0  0  0  0  0  0  0  0  0  0  0  0
    1.9812   -2.1923   -1.3479 H   0  0  0  0  0  0  0  0  0  0  0  0
    2.2553   -1.9084    0.3645 H   0  0  0  0  0  0  0  0  0  0  0  0
    4.4880   -0.8610   -0.1728 H   0  0  0  0  0  0  0  0  0  0  0  0
    4.2372   -1.2100   -1.8757 H   0  0  0  0  0  0  0  0  0  0  0  0
    4.0840   -3.6642   -1.3554 H   0  0  0  0  0  0  0  0  0  0  0  0
    4.3496   -3.3148    0.3505 H   0  0  0  0  0  0  0  0  0  0  0  0
    5.9743   -3.3923   -3.0193 H   0  0  0  0  0  0  0  0  0  0  0  0
    6.6251   -2.6546    1.1738 H   0  0  0  0  0  0  0  0  0  0  0  0
    8.4413   -3.3842   -3.3075 H   0  0  0  0  0  0  0  0  0  0  0  0
    9.0640   -2.6786    0.7032 H   0  0  0  0  0  0  0  0  0  0  0  0
  1  2  1  0  0  0  0
  2  3  1  0  0  0  0
  2 15  1  0  0  0  0
  2 16  1  0  0  0  0
  3 18  1  0  0  0  0
  4  5  1  0  0  0  0
  4  3  1  0  0  0  0
  4 19  1  0  0  0  0
  5 22  1  0  0  0  0
  6 10  1  0  0  0  0
  7 24  1  0  0  0  0
  8  6  2  0  0  0  0
  8 11  1  0  0  0  0
  9  7  1  0  0  0  0
  9 26  1  0  0  0  0
 10  5  1  0  0  0  0
 10  7  2  0  0  0  0
 11  9  2  0  0  0  0
 12  1  1  0  0  0  0
 13  1  1  0  0  0  0
 14  1  1  0  0  0  0
 17  3  1  0  0  0  0
 20  4  1  0  0  0  0
 21  5  1  0  0  0  0
 23  6  1  0  0  0  0
 25  8  1  0  0  0  0
M  END
>  <HBA>
1

>  <HBD>
0

>  <TPSA>
12.89

>  <cid>
72918

>  <dipole>
2.82

>  <excitation_energy_1>
4.926

>  <excitation_energy_2>
5.155

>  <excitation_energy_3>
5.455

>  <excitation_energy_4>
6.112

>  <homo_energy>
-6.762

>  <homo_lumo_gap>
6.289

>  <logP>
2.814

>  <lumo_energy>
-0.473

>  <melting_point>
20.0

>  <molecular_refractivity>
48.43

>  <oscillator_strength_1>
0.0052

>  <oscillator_strength_2>
0.0

>  <oscillator_strength_3>
0.0245

>  <oscillator_strength_4>
0.0184

>  <open_babel_can_smiles>
CCCCCc1ccncc1

>  <mulliken_charges>
26
1   -0.444551
2   -0.249579
3   -0.249005
4   -0.252547
5   -0.347878
6   -0.184901
7   -0.185411
8   0.038164
9   0.038481
10   0.188059
11   -0.411143
12   0.144645
13   0.140971
14   0.14792
15   0.133207
16   0.131955
17   0.128364
18   0.129344
19   0.137325
20   0.1431
21   0.145413
22   0.144418
23   0.128414
24   0.128354
25   0.138449
26   0.138432

>  <lowdin_charges>
26
1   -0.447456
2   -0.272345
3   -0.276861
4   -0.273311
5   -0.273904
6   -0.189281
7   -0.187
8   -0.087906
9   -0.089931
10   0.025851
11   -0.156068
12   0.150942
13   0.147221
14   0.147049
15   0.141756
16   0.141076
17   0.139391
18   0.140236
19   0.144403
20   0.144351
21   0.152198
22   0.149362
23   0.160356
24   0.15879
25   0.154716
26   0.156365

$$$$

