PCCDB-ID:  31954
public computational chemistry database (PCCDB) project, http://pccdb.org

 28 28  0  0  0  0  0  0  0  0999 V2000
    2.9064   -5.7452    1.5187 C   0  0  0  0  0  0  0  0  0  0  0  0
    3.1859   -5.4472    0.0469 C   0  0  0  0  0  0  0  0  0  0  0  0
   10.7946   -4.7935   -3.0000 C   0  0  0  0  0  0  0  0  0  0  0  0
    9.8118   -5.3621   -3.8182 C   0  0  0  0  0  0  0  0  0  0  0  0
   10.4213   -3.8525   -2.0438 C   0  0  0  0  0  0  0  0  0  0  0  0
    8.4782   -4.9950   -3.6802 C   0  0  0  0  0  0  0  0  0  0  0  0
    9.0839   -3.4708   -1.8931 C   0  0  0  0  0  0  0  0  0  0  0  0
    6.3236   -2.8153   -1.6910 C   0  0  0  0  0  0  0  0  0  0  0  0
    4.8168   -2.6915   -1.8196 C   0  0  0  0  0  0  0  0  0  0  0  0
    8.1083   -4.0462   -2.7154 C   0  0  0  0  0  0  0  0  0  0  0  0
    3.9142   -4.1344   -0.1607 C   0  0  0  0  0  0  0  0  0  0  0  0
    4.2585   -3.3705    0.7161 O   0  0  0  0  0  0  0  0  0  0  0  0
    6.7738   -3.7498   -2.6619 O   0  0  0  0  0  0  0  0  0  0  0  0
    4.1355   -3.9133   -1.4803 O   0  0  0  0  0  0  0  0  0  0  0  0
    2.3757   -6.6973    1.6203 H   0  0  0  0  0  0  0  0  0  0  0  0
    2.2946   -4.9584    1.9699 H   0  0  0  0  0  0  0  0  0  0  0  0
    3.8370   -5.8054    2.0908 H   0  0  0  0  0  0  0  0  0  0  0  0
    2.2586   -5.4106   -0.5393 H   0  0  0  0  0  0  0  0  0  0  0  0
    3.7909   -6.2379   -0.4151 H   0  0  0  0  0  0  0  0  0  0  0  0
   11.8357   -5.0826   -3.1100 H   0  0  0  0  0  0  0  0  0  0  0  0
   10.0867   -6.0998   -4.5676 H   0  0  0  0  0  0  0  0  0  0  0  0
   11.1726   -3.4017   -1.4005 H   0  0  0  0  0  0  0  0  0  0  0  0
    7.7027   -5.4251   -4.3064 H   0  0  0  0  0  0  0  0  0  0  0  0
    8.8194   -2.7360   -1.1411 H   0  0  0  0  0  0  0  0  0  0  0  0
    6.5915   -3.1404   -0.6784 H   0  0  0  0  0  0  0  0  0  0  0  0
    6.7759   -1.8271   -1.8662 H   0  0  0  0  0  0  0  0  0  0  0  0
    4.5411   -2.4931   -2.8574 H   0  0  0  0  0  0  0  0  0  0  0  0
    4.4634   -1.8826   -1.1746 H   0  0  0  0  0  0  0  0  0  0  0  0
  1 15  1  0  0  0  0
  1 16  1  0  0  0  0
  1 17  1  0  0  0  0
  2  1  1  0  0  0  0
  3  5  2  0  0  0  0
  4  6  2  0  0  0  0
  4  3  1  0  0  0  0
  5  7  1  0  0  0  0
  5 22  1  0  0  0  0
  6 10  1  0  0  0  0
  7 24  1  0  0  0  0
  8 25  1  0  0  0  0
  9  8  1  0  0  0  0
  9 14  1  0  0  0  0
  9 28  1  0  0  0  0
 10 13  1  0  0  0  0
 10  7  2  0  0  0  0
 11  2  1  0  0  0  0
 11 12  2  0  0  0  0
 13  8  1  0  0  0  0
 14 11  1  0  0  0  0
 18  2  1  0  0  0  0
 19  2  1  0  0  0  0
 20  3  1  0  0  0  0
 21  4  1  0  0  0  0
 23  6  1  0  0  0  0
 26  8  1  0  0  0  0
 27  9  1  0  0  0  0
M  END
>  <HBA>
3

>  <HBD>
0

>  <TPSA>
35.53

>  <cid>
31954

>  <dipole>
0.65

>  <excitation_energy_1>
5.06

>  <excitation_energy_2>
5.47

>  <excitation_energy_3>
5.639

>  <excitation_energy_4>
5.764

>  <homo_energy>
-5.929

>  <homo_lumo_gap>
5.978

>  <logP>
2.019

>  <lumo_energy>
0.049

>  <melting_point>
18.21

>  <molecular_refractivity>
53.45

>  <oscillator_strength_1>
0.031

>  <oscillator_strength_2>
0.0033

>  <oscillator_strength_3>
0.0016

>  <oscillator_strength_4>
0.0965

>  <open_babel_can_smiles>
CCC(=O)OCCOc1ccccc1

>  <mulliken_charges>
28
1   -0.436073
2   -0.353761
3   -0.13311
4   -0.132898
5   -0.137534
6   -0.174889
7   -0.195589
8   -0.053465
9   -0.062525
10   0.377367
11   0.622747
12   -0.480587
13   -0.518737
14   -0.45436
15   0.144463
16   0.162173
17   0.162662
18   0.174224
19   0.17864
20   0.125585
21   0.129995
22   0.130074
23   0.136884
24   0.134681
25   0.170717
26   0.143607
27   0.168928
28   0.170779

>  <lowdin_charges>
28
1   -0.440296
2   -0.301831
3   -0.177858
4   -0.146671
5   -0.147384
6   -0.185059
7   -0.215099
8   -0.13843
9   -0.136584
10   0.10339
11   0.203191
12   -0.270584
13   -0.201654
14   -0.191652
15   0.152674
16   0.160436
17   0.159715
18   0.17012
19   0.173231
20   0.155604
21   0.1589
22   0.15913
23   0.167097
24   0.163005
25   0.154474
26   0.144816
27   0.162738
28   0.164581

$$$$

