PCCDB-ID:  69812
public computational chemistry database (PCCDB) project, http://pccdb.org

 18 17  0  0  1  0  0  0  0  0999 V2000
    4.5361   -0.3962   -0.4399 C   0  0  0  0  0  0  0  0  0  0  0  0
    2.3248    0.0614    0.8032 C   0  0  0  0  0  0  0  0  0  0  0  0
    3.0282   -0.3496   -0.4827 C   0  0  0  0  0  0  0  0  0  0  0  0
    0.8381   -0.2783    0.9495 C   0  0  1  0  0  0  0  0  0  0  0  0
    0.8250    0.0079    3.2640 C   0  0  0  0  0  0  0  0  0  0  0  0
    0.9065   -0.7184    4.3091 N   0  0  0  0  0  0  0  0  0  0  0  0
    0.2124   -0.3140    2.0613 N   0  0  0  0  0  0  0  0  0  0  0  0
    2.4150   -0.6118   -1.5103 O   0  0  0  0  0  0  0  0  0  0  0  0
    0.1537   -0.5401   -0.1651 O   0  0  0  0  0  0  0  0  0  0  0  0
    1.3182    1.2826    3.3004 O   0  0  0  0  0  0  0  0  0  0  0  0
    4.9436    0.5115    0.0203 H   0  0  0  0  0  0  0  0  0  0  0  0
    4.9345   -0.5200   -1.4484 H   0  0  0  0  0  0  0  0  0  0  0  0
    4.8571   -1.2415    0.1827 H   0  0  0  0  0  0  0  0  0  0  0  0
    2.4273    1.1531    0.8916 H   0  0  0  0  0  0  0  0  0  0  0  0
    2.8725   -0.3363    1.6640 H   0  0  0  0  0  0  0  0  0  0  0  0
    0.4650   -1.6223    4.1380 H   0  0  0  0  0  0  0  0  0  0  0  0
    0.7860   -0.5764   -0.9235 H   0  0  0  0  0  0  0  0  0  0  0  0
    1.6282    1.4034    4.2168 H   0  0  0  0  0  0  0  0  0  0  0  0
  1 11  1  0  0  0  0
  1 13  1  0  0  0  0
  2 14  1  0  0  0  0
  2  4  1  0  0  0  0
  2 15  1  0  0  0  0
  3  1  1  0  0  0  0
  3  2  1  0  0  0  0
  4  9  1  6  0  0  0
  4  7  1  0  0  0  0
  5 10  1  0  0  0  0
  5  6  1  0  0  0  0
  7  5  2  0  0  0  0
  8  3  2  0  0  0  0
 10 18  1  0  0  0  0
 12  1  1  0  0  0  0
 16  6  1  0  0  0  0
 17  9  1  0  0  0  0
M  RAD  2   4   2   6   2
M  END
>  <HBA>
5

>  <HBD>
2

>  <TPSA>
89.26

>  <cid>
69812

>  <dipole>
5.36

>  <excitation_energy_1>
4.457

>  <excitation_energy_2>
4.568

>  <excitation_energy_3>
5.088

>  <excitation_energy_4>
5.282

>  <homo_energy>
-6.607

>  <homo_lumo_gap>
5.034

>  <logP>
0.252

>  <lumo_energy>
-1.573

>  <melting_point>
130.04

>  <molecular_refractivity>
32.65

>  <oscillator_strength_1>
0.0022

>  <oscillator_strength_2>
0.0004

>  <oscillator_strength_3>
0.0003

>  <oscillator_strength_4>
0.0467

>  <open_babel_can_smiles>
CC(=O)C[C](/N=C(\O)/[NH])O

>  <mulliken_charges>
18
1   -0.532394
2   -0.464896
3   0.468461
4   0.512025
5   0.556118
6   -0.628489
7   -0.444525
8   -0.457417
9   -0.579696
10   -0.594053
11   0.18346
12   0.196273
13   0.193002
14   0.235508
15   0.203067
16   0.294968
17   0.444472
18   0.414118

>  <lowdin_charges>
18
1   -0.467502
2   -0.346488
3   0.186439
4   0.164867
5   0.148565
6   -0.45367
7   -0.197271
8   -0.240181
9   -0.341244
10   -0.389179
11   0.178353
12   0.181688
13   0.185428
14   0.207382
15   0.190095
16   0.265357
17   0.365202
18   0.362158

$$$$

