PCCDB-ID:  14260
public computational chemistry database (PCCDB) project, http://pccdb.org

 42 41  0  0  0  0  0  0  0  0999 V2000
    4.2793   -3.9713    3.4405 C   0  0  0  0  0  0  0  0  0  0  0  0
   14.3553   -5.4385   -5.2028 C   0  0  0  0  0  0  0  0  0  0  0  0
    5.1713   -3.8495    2.4563 C   0  0  0  0  0  0  0  0  0  0  0  0
   12.8345   -5.6226   -5.1317 C   0  0  0  0  0  0  0  0  0  0  0  0
    5.5188   -4.9297    1.4670 C   0  0  0  0  0  0  0  0  0  0  0  0
   12.0772   -4.4578   -4.4707 C   0  0  0  0  0  0  0  0  0  0  0  0
    5.1235   -4.6037    0.0079 C   0  0  0  0  0  0  0  0  0  0  0  0
   12.3787   -4.2699   -2.9761 C   0  0  0  0  0  0  0  0  0  0  0  0
    5.7735   -3.3504   -0.6021 C   0  0  0  0  0  0  0  0  0  0  0  0
   11.6312   -3.0998   -2.3137 C   0  0  0  0  0  0  0  0  0  0  0  0
    7.3053   -3.3987   -0.7017 C   0  0  0  0  0  0  0  0  0  0  0  0
   10.1053   -3.2602   -2.2412 C   0  0  0  0  0  0  0  0  0  0  0  0
    7.8902   -2.1827   -1.4353 C   0  0  0  0  0  0  0  0  0  0  0  0
    9.4262   -2.1218   -1.4656 C   0  0  0  0  0  0  0  0  0  0  0  0
    4.0636   -3.1553    4.1254 H   0  0  0  0  0  0  0  0  0  0  0  0
    3.7308   -4.8976    3.6028 H   0  0  0  0  0  0  0  0  0  0  0  0
   14.8278   -6.2719   -5.7354 H   0  0  0  0  0  0  0  0  0  0  0  0
   14.8099   -5.3862   -4.2073 H   0  0  0  0  0  0  0  0  0  0  0  0
   14.6155   -4.5144   -5.7344 H   0  0  0  0  0  0  0  0  0  0  0  0
    5.6961   -2.9001    2.3415 H   0  0  0  0  0  0  0  0  0  0  0  0
   12.6038   -6.5535   -4.5936 H   0  0  0  0  0  0  0  0  0  0  0  0
   12.4465   -5.7584   -6.1503 H   0  0  0  0  0  0  0  0  0  0  0  0
    5.0220   -5.8625    1.7630 H   0  0  0  0  0  0  0  0  0  0  0  0
    6.5996   -5.1287    1.5100 H   0  0  0  0  0  0  0  0  0  0  0  0
   11.0005   -4.6239   -4.6066 H   0  0  0  0  0  0  0  0  0  0  0  0
   12.3116   -3.5247   -5.0059 H   0  0  0  0  0  0  0  0  0  0  0  0
    4.0321   -4.4926   -0.0376 H   0  0  0  0  0  0  0  0  0  0  0  0
    5.3737   -5.4734   -0.6163 H   0  0  0  0  0  0  0  0  0  0  0  0
   13.4563   -4.1103   -2.8399 H   0  0  0  0  0  0  0  0  0  0  0  0
   12.1387   -5.2015   -2.4410 H   0  0  0  0  0  0  0  0  0  0  0  0
    5.4743   -2.4603   -0.0309 H   0  0  0  0  0  0  0  0  0  0  0  0
    5.3600   -3.2082   -1.6108 H   0  0  0  0  0  0  0  0  0  0  0  0
   11.8732   -2.1674   -2.8456 H   0  0  0  0  0  0  0  0  0  0  0  0
   12.0175   -2.9724   -1.2922 H   0  0  0  0  0  0  0  0  0  0  0  0
    7.6012   -4.3245   -1.2148 H   0  0  0  0  0  0  0  0  0  0  0  0
    7.7472   -3.4528    0.3039 H   0  0  0  0  0  0  0  0  0  0  0  0
    9.8722   -4.2258   -1.7706 H   0  0  0  0  0  0  0  0  0  0  0  0
    9.6817   -3.3033   -3.2544 H   0  0  0  0  0  0  0  0  0  0  0  0
    7.5135   -1.2681   -0.9550 H   0  0  0  0  0  0  0  0  0  0  0  0
    7.5048   -2.1627   -2.4658 H   0  0  0  0  0  0  0  0  0  0  0  0
    9.7300   -1.1632   -1.9102 H   0  0  0  0  0  0  0  0  0  0  0  0
    9.8081   -2.1106   -0.4336 H   0  0  0  0  0  0  0  0  0  0  0  0
  1 16  1  0  0  0  0
  1 15  1  0  0  0  0
  2  4  1  0  0  0  0
  2 18  1  0  0  0  0
  3  1  2  0  0  0  0
  4 21  1  0  0  0  0
  4  6  1  0  0  0  0
  5 24  1  0  0  0  0
  5 23  1  0  0  0  0
  5  3  1  0  0  0  0
  6  8  1  0  0  0  0
  7  5  1  0  0  0  0
  8 29  1  0  0  0  0
  8 30  1  0  0  0  0
  8 10  1  0  0  0  0
  9 31  1  0  0  0  0
  9  7  1  0  0  0  0
 10 12  1  0  0  0  0
 10 34  1  0  0  0  0
 11  9  1  0  0  0  0
 11 36  1  0  0  0  0
 12 37  1  0  0  0  0
 12 14  1  0  0  0  0
 13 39  1  0  0  0  0
 13 11  1  0  0  0  0
 14 13  1  0  0  0  0
 14 42  1  0  0  0  0
 17  2  1  0  0  0  0
 19  2  1  0  0  0  0
 20  3  1  0  0  0  0
 22  4  1  0  0  0  0
 25  6  1  0  0  0  0
 26  6  1  0  0  0  0
 27  7  1  0  0  0  0
 28  7  1  0  0  0  0
 32  9  1  0  0  0  0
 33 10  1  0  0  0  0
 35 11  1  0  0  0  0
 38 12  1  0  0  0  0
 40 13  1  0  0  0  0
 41 14  1  0  0  0  0
M  END
>  <HBA>
0

>  <HBD>
0

>  <TPSA>
0.0

>  <cid>
14260

>  <dipole>
0.4

>  <excitation_energy_1>
6.426

>  <excitation_energy_2>
6.625

>  <excitation_energy_3>
6.839

>  <excitation_energy_4>
6.879

>  <homo_energy>
-6.762

>  <homo_lumo_gap>
7.434

>  <logP>
5.483

>  <lumo_energy>
0.672

>  <melting_point>
-52.47

>  <molecular_refractivity>
68.94

>  <oscillator_strength_1>
0.043

>  <oscillator_strength_2>
0.0571

>  <oscillator_strength_3>
0.0196

>  <oscillator_strength_4>
0.0181

>  <open_babel_can_smiles>
CCCCCCCCCCCCC=C

>  <mulliken_charges>
42
1   -0.342394
2   -0.443132
3   -0.040607
4   -0.248469
5   -0.307717
6   -0.25024
7   -0.254939
8   -0.255466
9   -0.258522
10   -0.254912
11   -0.25639
12   -0.255127
13   -0.255293
14   -0.255271
15   0.136235
16   0.133006
17   0.141304
18   0.146262
19   0.140038
20   0.125545
21   0.128946
22   0.129486
23   0.135801
24   0.143677
25   0.131803
26   0.124155
27   0.135582
28   0.128028
29   0.131157
30   0.124238
31   0.132337
32   0.129626
33   0.126007
34   0.126262
35   0.132224
36   0.129291
37   0.13072
38   0.131178
39   0.126527
40   0.12644
41   0.127056
42   0.125553

>  <lowdin_charges>
42
1   -0.345234
2   -0.448436
3   -0.14616
4   -0.271888
5   -0.274529
6   -0.276373
7   -0.27212
8   -0.275793
9   -0.278368
10   -0.273832
11   -0.279428
12   -0.278504
13   -0.274144
14   -0.273825
15   0.157344
16   0.152594
17   0.150302
18   0.146533
19   0.145721
20   0.148583
21   0.138368
22   0.140242
23   0.147954
24   0.146258
25   0.139147
26   0.13622
27   0.142431
28   0.140595
29   0.139635
30   0.136298
31   0.139634
32   0.141341
33   0.137102
34   0.138912
35   0.139191
36   0.136564
37   0.138014
38   0.137593
39   0.140306
40   0.136108
41   0.140093
42   0.135556

$$$$

