PCCDB-ID:  20084
public computational chemistry database (PCCDB) project, http://pccdb.org

 26 25  0  0  0  0  0  0  0  0999 V2000
    0.1043    1.1402   -0.0986 C   0  0  0  0  0  0  0  0  0  0  0  0
    1.8915    1.2249   -1.8943 C   0  0  0  0  0  0  0  0  0  0  0  0
    4.9226   -1.7172    2.0748 C   0  0  0  0  0  0  0  0  0  0  0  0
    5.9934   -1.8019   -0.2315 C   0  0  0  0  0  0  0  0  0  0  0  0
    1.5470    0.7737   -0.4643 C   0  0  0  0  0  0  0  0  0  0  0  0
    5.3326   -0.9173    0.8293 C   0  0  0  0  0  0  0  0  0  0  0  0
    3.5865    0.8859    0.7573 C   0  0  0  0  0  0  0  0  0  0  0  0
    2.4408    1.3950    0.5046 N   0  0  0  0  0  0  0  0  0  0  0  0
    4.1951   -0.2198    0.2106 N   0  0  0  0  0  0  0  0  0  0  0  0
    4.3901    1.5084    1.6668 O   0  0  0  0  0  0  0  0  0  0  0  0
   -0.6092    0.6839   -0.7950 H   0  0  0  0  0  0  0  0  0  0  0  0
   -0.0250    2.2280   -0.1295 H   0  0  0  0  0  0  0  0  0  0  0  0
   -0.1332    0.8025    0.9155 H   0  0  0  0  0  0  0  0  0  0  0  0
    1.2093    0.7762   -2.6266 H   0  0  0  0  0  0  0  0  0  0  0  0
    2.9167    0.9448   -2.1614 H   0  0  0  0  0  0  0  0  0  0  0  0
    1.8115    2.3151   -1.9702 H   0  0  0  0  0  0  0  0  0  0  0  0
    5.7943   -2.2009    2.5313 H   0  0  0  0  0  0  0  0  0  0  0  0
    4.1987   -2.5003    1.8153 H   0  0  0  0  0  0  0  0  0  0  0  0
    4.4672   -1.0591    2.8210 H   0  0  0  0  0  0  0  0  0  0  0  0
    6.8758   -2.3020    0.1813 H   0  0  0  0  0  0  0  0  0  0  0  0
    6.3025   -1.2090   -1.0981 H   0  0  0  0  0  0  0  0  0  0  0  0
    5.3045   -2.5838   -0.5790 H   0  0  0  0  0  0  0  0  0  0  0  0
    1.6189   -0.3322   -0.4284 H   0  0  0  0  0  0  0  0  0  0  0  0
    6.0406   -0.1403    1.1297 H   0  0  0  0  0  0  0  0  0  0  0  0
    3.5686   -0.8120   -0.3199 H   0  0  0  0  0  0  0  0  0  0  0  0
    3.8703    2.2854    1.9404 H   0  0  0  0  0  0  0  0  0  0  0  0
  1 13  1  0  0  0  0
  2  5  1  0  0  0  0
  3 17  1  0  0  0  0
  3 19  1  0  0  0  0
  4 20  1  0  0  0  0
  4  6  1  0  0  0  0
  5 23  1  0  0  0  0
  5  1  1  0  0  0  0
  5  8  1  0  0  0  0
  6 24  1  0  0  0  0
  6  3  1  0  0  0  0
  7 10  1  0  0  0  0
  8  7  2  0  0  0  0
  9  7  1  0  0  0  0
  9  6  1  0  0  0  0
 10 26  1  0  0  0  0
 11  1  1  0  0  0  0
 12  1  1  0  0  0  0
 14  2  1  0  0  0  0
 15  2  1  0  0  0  0
 16  2  1  0  0  0  0
 18  3  1  0  0  0  0
 21  4  1  0  0  0  0
 22  4  1  0  0  0  0
 25  9  1  0  0  0  0
M  END
>  <HBA>
3

>  <HBD>
2

>  <TPSA>
41.13

>  <cid>
20084

>  <dipole>
1.95

>  <excitation_energy_1>
5.306

>  <excitation_energy_2>
5.728

>  <excitation_energy_3>
6.043

>  <excitation_energy_4>
6.057

>  <homo_energy>
-5.823

>  <homo_lumo_gap>
7.535

>  <logP>
1.884

>  <lumo_energy>
1.712

>  <melting_point>
58.86

>  <molecular_refractivity>
41.96

>  <oscillator_strength_1>
0.0051

>  <oscillator_strength_2>
0.009

>  <oscillator_strength_3>
0.009

>  <oscillator_strength_4>
0.0754

>  <open_babel_can_smiles>
CC(N/C(=N\C(C)C)/O)C

>  <mulliken_charges>
26
1   -0.426985
2   -0.435075
3   -0.440349
4   -0.45606
5   0.02144
6   0.049318
7   0.692061
8   -0.500628
9   -0.622456
10   -0.617755
11   0.128445
12   0.147372
13   0.143405
14   0.133442
15   0.141671
16   0.151715
17   0.143323
18   0.135197
19   0.164904
20   0.152537
21   0.1607
22   0.137343
23   0.089909
24   0.169964
25   0.324271
26   0.412292

>  <lowdin_charges>
26
1   -0.442567
2   -0.451581
3   -0.458419
4   -0.450294
5   -0.048866
6   -0.050425
7   0.159679
8   -0.299604
9   -0.298103
10   -0.382428
11   0.143974
12   0.150054
13   0.150389
14   0.146774
15   0.146997
16   0.15171
17   0.152895
18   0.145817
19   0.161812
20   0.157492
21   0.159124
22   0.14587
23   0.105618
24   0.161337
25   0.279085
26   0.363661

$$$$

