PCCDB-ID:  32851
public computational chemistry database (PCCDB) project, http://pccdb.org

 24 23  0  0  1  0  0  0  0  0999 V2000
    0.8685   -0.2367    0.1058 C   0  0  0  0  0  0  0  0  0  0  0  0
    4.4652    1.1575    0.9210 C   0  0  0  0  0  0  0  0  0  0  0  0
    3.0296   -2.6992    0.8219 C   0  0  0  0  0  0  0  0  0  0  0  0
    2.3032    3.6225    0.2259 C   0  0  0  0  0  0  0  0  0  0  0  0
    2.4027   -0.2315    0.3020 C   0  0  1  0  0  0  0  0  0  0  0  0
    2.9299    1.1523    0.7328 C   0  0  2  0  0  0  0  0  0  0  0  0
    2.7283   -1.3063    1.3451 C   0  0  0  0  0  0  0  0  0  0  0  0
    2.5985    2.2308   -0.3043 C   0  0  0  0  0  0  0  0  0  0  0  0
    2.7164   -1.0598    2.5381 O   0  0  0  0  0  0  0  0  0  0  0  0
    2.6014    1.9886   -1.4982 O   0  0  0  0  0  0  0  0  0  0  0  0
    0.5841    0.4556   -0.6912 H   0  0  0  0  0  0  0  0  0  0  0  0
    0.3621    0.0573    1.0323 H   0  0  0  0  0  0  0  0  0  0  0  0
    0.5035   -1.2312   -0.1744 H   0  0  0  0  0  0  0  0  0  0  0  0
    4.7539    0.4634    1.7150 H   0  0  0  0  0  0  0  0  0  0  0  0
    4.8318    2.1512    1.2014 H   0  0  0  0  0  0  0  0  0  0  0  0
    4.9668    0.8651   -0.0087 H   0  0  0  0  0  0  0  0  0  0  0  0
    4.0039   -2.6924    0.3155 H   0  0  0  0  0  0  0  0  0  0  0  0
    2.2898   -3.0141    0.0765 H   0  0  0  0  0  0  0  0  0  0  0  0
    3.0579   -3.4135    1.6473 H   0  0  0  0  0  0  0  0  0  0  0  0
    3.0463    3.9324    0.9700 H   0  0  0  0  0  0  0  0  0  0  0  0
    1.3305    3.6162    0.7355 H   0  0  0  0  0  0  0  0  0  0  0  0
    2.2737    4.3402   -0.5965 H   0  0  0  0  0  0  0  0  0  0  0  0
    2.8675   -0.4995   -0.6546 H   0  0  0  0  0  0  0  0  0  0  0  0
    2.4704    1.4159    1.6932 H   0  0  0  0  0  0  0  0  0  0  0  0
  1  5  1  0  0  0  0
  1 12  1  0  0  0  0
  2 15  1  0  0  0  0
  2 14  1  0  0  0  0
  3  7  1  0  0  0  0
  3 19  1  0  0  0  0
  4 21  1  0  0  0  0
  4 20  1  0  0  0  0
  5 23  1  6  0  0  0
  5  6  1  0  0  0  0
  5  7  1  0  0  0  0
  6  2  1  0  0  0  0
  6 24  1  1  0  0  0
  7  9  2  0  0  0  0
  8  4  1  0  0  0  0
  8  6  1  0  0  0  0
 10  8  2  0  0  0  0
 11  1  1  0  0  0  0
 13  1  1  0  0  0  0
 16  2  1  0  0  0  0
 17  3  1  0  0  0  0
 18  3  1  0  0  0  0
 22  4  1  0  0  0  0
M  END
>  <HBA>
2

>  <HBD>
0

>  <TPSA>
34.14

>  <cid>
32851

>  <dipole>
0.02

>  <excitation_energy_1>
4.34

>  <excitation_energy_2>
4.341

>  <excitation_energy_3>
5.441

>  <excitation_energy_4>
5.45

>  <homo_energy>
-6.615

>  <homo_lumo_gap>
6.163

>  <logP>
1.437

>  <lumo_energy>
-0.452

>  <melting_point>
14.89

>  <molecular_refractivity>
40.97

>  <oscillator_strength_1>
0.0001

>  <oscillator_strength_2>
0.0004

>  <oscillator_strength_3>
0.0

>  <oscillator_strength_4>
0.0006

>  <open_babel_can_smiles>
C[C@H]([C@@H](C(=O)C)C)C(=O)C

>  <mulliken_charges>
24
1   -0.475561
2   -0.475442
3   -0.533933
4   -0.53393
5   -0.151179
6   -0.151826
7   0.456848
8   0.456856
9   -0.453977
10   -0.454007
11   0.176274
12   0.159033
13   0.148791
14   0.175654
15   0.149018
16   0.15916
17   0.174925
18   0.169025
19   0.178925
20   0.168912
21   0.175038
22   0.178916
23   0.150938
24   0.151541

>  <lowdin_charges>
24
1   -0.443347
2   -0.443166
3   -0.475318
4   -0.475327
5   -0.152388
6   -0.152543
7   0.168488
8   0.168492
9   -0.244036
10   -0.244117
11   0.166584
12   0.1555
13   0.152431
14   0.166266
15   0.15252
16   0.155513
17   0.173606
18   0.169322
19   0.17259
20   0.16922
21   0.173704
22   0.172599
23   0.156578
24   0.156829

$$$$

