PCCDB-ID:  33448
public computational chemistry database (PCCDB) project, http://pccdb.org

 51 50  0  0  0  0  0  0  0  0999 V2000
    2.2315    2.5585    3.7600 C   0  0  0  0  0  0  0  0  0  0  0  0
   16.4970   -7.8764   -0.9780 C   0  0  0  0  0  0  0  0  0  0  0  0
    3.2709    1.4741    3.7019 C   0  0  0  0  0  0  0  0  0  0  0  0
   15.1377   -8.3330   -0.4381 C   0  0  0  0  0  0  0  0  0  0  0  0
    3.7932    0.9804    2.5758 C   0  0  0  0  0  0  0  0  0  0  0  0
   14.1204   -7.1913   -0.3141 C   0  0  0  0  0  0  0  0  0  0  0  0
    4.8353   -0.1031    2.4494 C   0  0  0  0  0  0  0  0  0  0  0  0
   12.7569   -7.6377    0.2286 C   0  0  0  0  0  0  0  0  0  0  0  0
    5.3350   -0.7172    3.7631 C   0  0  0  0  0  0  0  0  0  0  0  0
   11.7406   -6.4942    0.3472 C   0  0  0  0  0  0  0  0  0  0  0  0
    6.3600   -1.8493    3.5786 C   0  0  0  0  0  0  0  0  0  0  0  0
   10.3800   -6.9442    0.8983 C   0  0  0  0  0  0  0  0  0  0  0  0
    7.7176   -1.3994    3.0159 C   0  0  0  0  0  0  0  0  0  0  0  0
    9.3081   -5.8420    0.9480 C   0  0  0  0  0  0  0  0  0  0  0  0
    8.7849   -2.5068    2.9747 C   0  0  0  0  0  0  0  0  0  0  0  0
    9.6093   -4.6946    1.9223 C   0  0  0  0  0  0  0  0  0  0  0  0
    8.4828   -3.6549    2.0014 C   0  0  0  0  0  0  0  0  0  0  0  0
    1.3212    2.2133    4.2694 H   0  0  0  0  0  0  0  0  0  0  0  0
    1.9488    2.8990    2.7578 H   0  0  0  0  0  0  0  0  0  0  0  0
    2.5926    3.4295    4.3243 H   0  0  0  0  0  0  0  0  0  0  0  0
   17.1999   -8.7140   -1.0541 H   0  0  0  0  0  0  0  0  0  0  0  0
   16.9493   -7.1204   -0.3242 H   0  0  0  0  0  0  0  0  0  0  0  0
   16.3983   -7.4325   -1.9763 H   0  0  0  0  0  0  0  0  0  0  0  0
    3.6019    1.0832    4.6639 H   0  0  0  0  0  0  0  0  0  0  0  0
   15.2744   -8.8040    0.5459 H   0  0  0  0  0  0  0  0  0  0  0  0
   14.7270   -9.1143   -1.0935 H   0  0  0  0  0  0  0  0  0  0  0  0
    3.4445    1.3908    1.6251 H   0  0  0  0  0  0  0  0  0  0  0  0
   13.9833   -6.7197   -1.2988 H   0  0  0  0  0  0  0  0  0  0  0  0
   14.5335   -6.4091    0.3404 H   0  0  0  0  0  0  0  0  0  0  0  0
    5.6848    0.3033    1.8799 H   0  0  0  0  0  0  0  0  0  0  0  0
    4.4285   -0.9060    1.8130 H   0  0  0  0  0  0  0  0  0  0  0  0
   12.8953   -8.1039    1.2157 H   0  0  0  0  0  0  0  0  0  0  0  0
   12.3458   -8.4240   -0.4220 H   0  0  0  0  0  0  0  0  0  0  0  0
    4.4731   -1.1106    4.3187 H   0  0  0  0  0  0  0  0  0  0  0  0
    5.7734    0.0698    4.3932 H   0  0  0  0  0  0  0  0  0  0  0  0
   11.5953   -6.0331   -0.6415 H   0  0  0  0  0  0  0  0  0  0  0  0
   12.1626   -5.7088    0.9893 H   0  0  0  0  0  0  0  0  0  0  0  0
    5.9237   -2.6240    2.9328 H   0  0  0  0  0  0  0  0  0  0  0  0
    6.5305   -2.3280    4.5538 H   0  0  0  0  0  0  0  0  0  0  0  0
   10.5182   -7.3602    1.9076 H   0  0  0  0  0  0  0  0  0  0  0  0
   10.0050   -7.7718    0.2792 H   0  0  0  0  0  0  0  0  0  0  0  0
    8.0936   -0.5707    3.6333 H   0  0  0  0  0  0  0  0  0  0  0  0
    7.5896   -0.9905    2.0038 H   0  0  0  0  0  0  0  0  0  0  0  0
    8.3476   -6.2984    1.2273 H   0  0  0  0  0  0  0  0  0  0  0  0
    9.1647   -5.4305   -0.0625 H   0  0  0  0  0  0  0  0  0  0  0  0
    8.9205   -2.9158    3.9873 H   0  0  0  0  0  0  0  0  0  0  0  0
    9.7489   -2.0561    2.6986 H   0  0  0  0  0  0  0  0  0  0  0  0
   10.5409   -4.1900    1.6314 H   0  0  0  0  0  0  0  0  0  0  0  0
    9.7895   -5.1113    2.9250 H   0  0  0  0  0  0  0  0  0  0  0  0
    8.3017   -3.2383    0.9987 H   0  0  0  0  0  0  0  0  0  0  0  0
    7.5514   -4.1597    2.2929 H   0  0  0  0  0  0  0  0  0  0  0  0
  1 18  1  0  0  0  0
  1 20  1  0  0  0  0
  2  4  1  0  0  0  0
  2 22  1  0  0  0  0
  3  1  1  0  0  0  0
  3 24  1  0  0  0  0
  4  6  1  0  0  0  0
  4 25  1  0  0  0  0
  5  3  2  0  0  0  0
  6  8  1  0  0  0  0
  6 29  1  0  0  0  0
  7  5  1  0  0  0  0
  7  9  1  0  0  0  0
  8 10  1  0  0  0  0
  8 32  1  0  0  0  0
  9 34  1  0  0  0  0
  9 35  1  0  0  0  0
 10 12  1  0  0  0  0
 10 37  1  0  0  0  0
 11  9  1  0  0  0  0
 11 39  1  0  0  0  0
 12 14  1  0  0  0  0
 12 40  1  0  0  0  0
 13 11  1  0  0  0  0
 13 42  1  0  0  0  0
 14 44  1  0  0  0  0
 14 16  1  0  0  0  0
 15 13  1  0  0  0  0
 15 46  1  0  0  0  0
 16 17  1  0  0  0  0
 16 49  1  0  0  0  0
 17 51  1  0  0  0  0
 17 15  1  0  0  0  0
 19  1  1  0  0  0  0
 21  2  1  0  0  0  0
 23  2  1  0  0  0  0
 26  4  1  0  0  0  0
 27  5  1  0  0  0  0
 28  6  1  0  0  0  0
 30  7  1  0  0  0  0
 31  7  1  0  0  0  0
 33  8  1  0  0  0  0
 36 10  1  0  0  0  0
 38 11  1  0  0  0  0
 41 12  1  0  0  0  0
 43 13  1  0  0  0  0
 45 14  1  0  0  0  0
 47 15  1  0  0  0  0
 48 16  1  0  0  0  0
 50 17  1  0  0  0  0
M  END
>  <HBA>
0

>  <HBD>
0

>  <TPSA>
0.0

>  <cid>
33448

>  <dipole>
0.13

>  <excitation_energy_1>
6.072

>  <excitation_energy_2>
6.216

>  <excitation_energy_3>
6.379

>  <excitation_energy_4>
6.475

>  <homo_energy>
-6.348

>  <homo_lumo_gap>
7.396

>  <logP>
6.654

>  <lumo_energy>
1.048

>  <melting_point>
-24.08

>  <molecular_refractivity>
83.36

>  <oscillator_strength_1>
0.005

>  <oscillator_strength_2>
0.0006

>  <oscillator_strength_3>
0.0016

>  <oscillator_strength_4>
0.0096

>  <open_babel_can_smiles>
CCCCCCCCCCCCCC/C=C/C

>  <mulliken_charges>
51
1   -0.48777
2   -0.44098
3   -0.084197
4   -0.246419
5   -0.107509
6   -0.245551
7   -0.29478
8   -0.252247
9   -0.262349
10   -0.25377
11   -0.257274
12   -0.254395
13   -0.256554
14   -0.254613
15   -0.255298
16   -0.254085
17   -0.25403
18   0.151268
19   0.149361
20   0.151315
21   0.140829
22   0.140694
23   0.140744
24   0.120619
25   0.129438
26   0.129493
27   0.110669
28   0.125691
29   0.125579
30   0.145177
31   0.138519
32   0.126338
33   0.12596
34   0.134101
35   0.133153
36   0.125078
37   0.132176
38   0.132082
39   0.126093
40   0.125553
41   0.126037
42   0.126618
43   0.130714
44   0.125908
45   0.125464
46   0.125699
47   0.126217
48   0.132231
49   0.125474
50   0.125327
51   0.132203

>  <lowdin_charges>
51
1   -0.43873
2   -0.445575
3   -0.174391
4   -0.272806
5   -0.172427
6   -0.27523
7   -0.276432
8   -0.274677
9   -0.277668
10   -0.277189
11   -0.27778
12   -0.275402
13   -0.27795
14   -0.27431
15   -0.273932
16   -0.275955
17   -0.275949
18   0.154416
19   0.152223
20   0.154694
21   0.149294
22   0.147044
23   0.145303
24   0.148024
25   0.138015
26   0.139475
27   0.143938
28   0.136441
29   0.137798
30   0.149994
31   0.147818
32   0.136839
33   0.137889
34   0.144171
35   0.14136
36   0.136126
37   0.139985
38   0.14014
39   0.139683
40   0.136264
41   0.140534
42   0.140733
43   0.137273
44   0.139391
45   0.136139
46   0.136028
47   0.139469
48   0.138857
49   0.136174
50   0.136034
51   0.138836

$$$$

