PCCDB-ID:  16778
public computational chemistry database (PCCDB) project, http://pccdb.org

 26 25  0  0  0  0  0  0  0  0999 V2000
    4.2437   -2.2674    0.3254 C   0  0  0  0  0  0  0  0  0  0  0  0
    3.4292   -0.9657    0.2339 C   0  0  0  0  0  0  0  0  0  0  0  0
    3.9217    0.0990    1.1767 C   0  0  0  0  0  0  0  0  0  0  0  0
    4.3858    1.2990    0.8172 C   0  0  0  0  0  0  0  0  0  0  0  0
    4.8991    2.3539    1.7594 C   0  0  0  0  0  0  0  0  0  0  0  0
    6.3822    2.7003    1.5252 C   0  0  0  0  0  0  0  0  0  0  0  0
    6.8883    3.8173    2.4454 C   0  0  0  0  0  0  0  0  0  0  0  0
    8.3613    4.1574    2.2159 C   0  0  0  0  0  0  0  0  0  0  0  0
    8.8918    5.2643    3.0982 C   0  0  0  0  0  0  0  0  0  0  0  0
    8.2406    5.8626    3.9263 O   0  0  0  0  0  0  0  0  0  0  0  0
    3.8429   -3.0322   -0.3497 H   0  0  0  0  0  0  0  0  0  0  0  0
    4.2230   -2.6765    1.3429 H   0  0  0  0  0  0  0  0  0  0  0  0
    5.2923   -2.0923    0.0598 H   0  0  0  0  0  0  0  0  0  0  0  0
    2.3761   -1.1938    0.4576 H   0  0  0  0  0  0  0  0  0  0  0  0
    3.4515   -0.5856   -0.7955 H   0  0  0  0  0  0  0  0  0  0  0  0
    3.8978   -0.1583    2.2388 H   0  0  0  0  0  0  0  0  0  0  0  0
    4.4166    1.5533   -0.2453 H   0  0  0  0  0  0  0  0  0  0  0  0
    4.7592    2.0243    2.7977 H   0  0  0  0  0  0  0  0  0  0  0  0
    4.3046    3.2736    1.6436 H   0  0  0  0  0  0  0  0  0  0  0  0
    6.5235    2.9962    0.4750 H   0  0  0  0  0  0  0  0  0  0  0  0
    6.9865    1.7938    1.6699 H   0  0  0  0  0  0  0  0  0  0  0  0
    6.7479    3.5303    3.4953 H   0  0  0  0  0  0  0  0  0  0  0  0
    6.2858    4.7232    2.3019 H   0  0  0  0  0  0  0  0  0  0  0  0
    8.5475    4.4560    1.1712 H   0  0  0  0  0  0  0  0  0  0  0  0
    9.0068    3.2778    2.3723 H   0  0  0  0  0  0  0  0  0  0  0  0
    9.9666    5.5131    2.9383 H   0  0  0  0  0  0  0  0  0  0  0  0
  1 12  1  0  0  0  0
  2  1  1  0  0  0  0
  2 14  1  0  0  0  0
  2  3  1  0  0  0  0
  3 16  1  0  0  0  0
  4  3  2  0  0  0  0
  4  5  1  0  0  0  0
  5 18  1  0  0  0  0
  6 21  1  0  0  0  0
  6  5  1  0  0  0  0
  6  7  1  0  0  0  0
  7 22  1  0  0  0  0
  8 25  1  0  0  0  0
  8  7  1  0  0  0  0
  8  9  1  0  0  0  0
  9 10  2  0  0  0  0
 11  1  1  0  0  0  0
 13  1  1  0  0  0  0
 15  2  1  0  0  0  0
 17  4  1  0  0  0  0
 19  5  1  0  0  0  0
 20  6  1  0  0  0  0
 23  7  1  0  0  0  0
 24  8  1  0  0  0  0
 26  9  1  0  0  0  0
M  END
>  <HBA>
1

>  <HBD>
0

>  <TPSA>
17.07

>  <cid>
16778

>  <dipole>
2.56

>  <excitation_energy_1>
4.329

>  <excitation_energy_2>
5.348

>  <excitation_energy_3>
6.173

>  <excitation_energy_4>
6.337

>  <homo_energy>
-6.471

>  <homo_lumo_gap>
5.959

>  <logP>
2.712

>  <lumo_energy>
-0.512

>  <melting_point>
12.96

>  <molecular_refractivity>
45.1

>  <oscillator_strength_1>
0.0002

>  <oscillator_strength_2>
0.0001

>  <oscillator_strength_3>
0.0239

>  <oscillator_strength_4>
0.052

>  <open_babel_can_smiles>
O=CCCCC/C=C/CC

>  <mulliken_charges>
26
1   -0.438829
2   -0.29564
3   -0.088768
4   -0.095334
5   -0.302558
6   -0.2565
7   -0.24771
8   -0.350933
9   0.253365
10   -0.382531
11   0.14285
12   0.143078
13   0.148213
14   0.141715
15   0.137628
16   0.113523
17   0.112993
18   0.137805
19   0.140223
20   0.128121
21   0.134907
22   0.149693
23   0.149768
24   0.160613
25   0.161141
26   0.103167

>  <lowdin_charges>
26
1   -0.441796
2   -0.265849
3   -0.166495
4   -0.168877
5   -0.268988
6   -0.272746
7   -0.27064
8   -0.313627
9   0.059006
10   -0.21947
11   0.150408
12   0.146507
13   0.14839
14   0.146008
15   0.144104
16   0.142486
17   0.142167
18   0.144499
19   0.147289
20   0.136518
21   0.14163
22   0.149704
23   0.151254
24   0.162096
25   0.163905
26   0.112518

$$$$

