PCCDB-ID:  8092
public computational chemistry database (PCCDB) project, http://pccdb.org

 25 24  0  0  0  0  0  0  0  0999 V2000
    0.7964    0.0838    0.0040 C   0  0  0  0  0  0  0  0  0  0  0  0
    5.0909   -1.8558   -7.5637 C   0  0  0  0  0  0  0  0  0  0  0  0
    2.3281    0.0930   -0.0014 C   0  0  0  0  0  0  0  0  0  0  0  0
    2.9355   -1.1275   -0.7054 C   0  0  0  0  0  0  0  0  0  0  0  0
    4.4673   -1.1310   -0.6812 C   0  0  0  0  0  0  0  0  0  0  0  0
    5.1044   -2.3606   -1.3713 C   0  0  0  0  0  0  0  0  0  0  0  0
    4.8629   -2.4075   -2.8122 C   0  0  0  0  0  0  0  0  0  0  0  0
    4.6610   -2.4240   -4.0064 C   0  0  0  0  0  0  0  0  0  0  0  0
    4.3720   -2.4979   -5.4198 C   0  0  0  0  0  0  0  0  0  0  0  0
    3.4247   -3.0833   -5.9035 O   0  0  0  0  0  0  0  0  0  0  0  0
    5.2984   -1.8273   -6.1416 O   0  0  0  0  0  0  0  0  0  0  0  0
    0.3936    0.9699    0.5074 H   0  0  0  0  0  0  0  0  0  0  0  0
    0.4074   -0.8006    0.5234 H   0  0  0  0  0  0  0  0  0  0  0  0
    0.3962    0.0693   -1.0171 H   0  0  0  0  0  0  0  0  0  0  0  0
    5.9074   -1.2698   -7.9865 H   0  0  0  0  0  0  0  0  0  0  0  0
    4.1247   -1.4135   -7.8207 H   0  0  0  0  0  0  0  0  0  0  0  0
    5.1212   -2.8834   -7.9359 H   0  0  0  0  0  0  0  0  0  0  0  0
    2.6983    0.1362    1.0333 H   0  0  0  0  0  0  0  0  0  0  0  0
    2.6880    1.0091   -0.4908 H   0  0  0  0  0  0  0  0  0  0  0  0
    2.5847   -1.1616   -1.7460 H   0  0  0  0  0  0  0  0  0  0  0  0
    2.5639   -2.0460   -0.2270 H   0  0  0  0  0  0  0  0  0  0  0  0
    4.8207   -1.1180    0.3586 H   0  0  0  0  0  0  0  0  0  0  0  0
    4.8520   -0.2184   -1.1542 H   0  0  0  0  0  0  0  0  0  0  0  0
    4.7162   -3.2796   -0.9102 H   0  0  0  0  0  0  0  0  0  0  0  0
    6.1880   -2.3565   -1.1929 H   0  0  0  0  0  0  0  0  0  0  0  0
  1 12  1  0  0  0  0
  1 13  1  0  0  0  0
  2 11  1  0  0  0  0
  3  1  1  0  0  0  0
  3 18  1  0  0  0  0
  4  5  1  0  0  0  0
  4 21  1  0  0  0  0
  4  3  1  0  0  0  0
  5 22  1  0  0  0  0
  6 25  1  0  0  0  0
  6 24  1  0  0  0  0
  6  5  1  0  0  0  0
  7  6  1  0  0  0  0
  8  7  3  0  0  0  0
  9  8  1  0  0  0  0
 10  9  2  0  0  0  0
 11  9  1  0  0  0  0
 14  1  1  0  0  0  0
 15  2  1  0  0  0  0
 16  2  1  0  0  0  0
 17  2  1  0  0  0  0
 19  3  1  0  0  0  0
 20  4  1  0  0  0  0
 23  5  1  0  0  0  0
M  END
>  <HBA>
2

>  <HBD>
0

>  <TPSA>
26.3

>  <cid>
8092

>  <dipole>
2.28

>  <excitation_energy_1>
4.682

>  <excitation_energy_2>
5.525

>  <excitation_energy_3>
5.699

>  <excitation_energy_4>
6.733

>  <homo_energy>
-7.129

>  <homo_lumo_gap>
6.248

>  <logP>
1.743

>  <lumo_energy>
-0.882

>  <melting_point>
1.24

>  <molecular_refractivity>
44.82

>  <oscillator_strength_1>
0.0001

>  <oscillator_strength_2>
0.0007

>  <oscillator_strength_3>
0.1839

>  <oscillator_strength_4>
0.0039

>  <open_babel_can_smiles>
CCCCCC#CC(=O)OC

>  <mulliken_charges>
25
1   -0.442521
2   -0.215486
3   -0.249124
4   -0.24918
5   -0.258888
6   -0.406358
7   -0.011834
8   0.175121
9   0.431803
10   -0.464594
11   -0.438375
12   0.14318
13   0.142763
14   0.146524
15   0.167576
16   0.171914
17   0.171734
18   0.130062
19   0.133548
20   0.150242
21   0.128968
22   0.140442
23   0.148652
24   0.177013
25   0.176818

>  <lowdin_charges>
25
1   -0.444517
2   -0.277462
3   -0.270696
4   -0.276654
5   -0.265018
6   -0.260291
7   -0.010134
8   -0.102667
9   0.203556
10   -0.246993
11   -0.181154
12   0.150834
13   0.147716
14   0.148182
15   0.162986
16   0.160332
17   0.159518
18   0.137156
19   0.14075
20   0.148576
21   0.139439
22   0.14527
23   0.149948
24   0.170545
25   0.170781

$$$$

