PCCDB-ID:  26029
public computational chemistry database (PCCDB) project, http://pccdb.org

 18 18  0  0  0  0  0  0  0  0999 V2000
    0.8899    0.0039    0.0767 C   0  0  0  0  0  0  0  0  0  0  0  0
    2.8421   -3.1381   -1.9075 C   0  0  0  0  0  0  0  0  0  0  0  0
    5.0188   -2.1080   -1.2495 C   0  0  0  0  0  0  0  0  0  0  0  0
    2.8838   -1.0403   -0.5799 C   0  0  0  0  0  0  0  0  0  0  0  0
    2.1048   -4.0196   -2.4658 N   0  0  0  0  0  0  0  0  0  0  0  0
    6.2951   -2.0524   -1.2116 N   0  0  0  0  0  0  0  0  0  0  0  0
    2.3393   -0.0652    0.0356 N   0  0  0  0  0  0  0  0  0  0  0  0
    4.2358   -3.0904   -1.8713 N   0  0  0  0  0  0  0  0  0  0  0  0
    2.2390   -2.0789   -1.2427 N   0  0  0  0  0  0  0  0  0  0  0  0
    4.2697   -1.1271   -0.6310 N   0  0  0  0  0  0  0  0  0  0  0  0
    0.5937    0.8874    0.6486 H   0  0  0  0  0  0  0  0  0  0  0  0
    0.4328   -0.8703    0.5701 H   0  0  0  0  0  0  0  0  0  0  0  0
    0.4377    0.0986   -0.9248 H   0  0  0  0  0  0  0  0  0  0  0  0
    2.6555   -4.7476   -2.9209 H   0  0  0  0  0  0  0  0  0  0  0  0
    6.7258   -2.8338   -1.7056 H   0  0  0  0  0  0  0  0  0  0  0  0
    4.7300   -3.8357   -2.3396 H   0  0  0  0  0  0  0  0  0  0  0  0
    1.2295   -2.0989   -1.2563 H   0  0  0  0  0  0  0  0  0  0  0  0
    4.7821   -0.3898   -0.1666 H   0  0  0  0  0  0  0  0  0  0  0  0
  1 12  1  0  0  0  0
  1 11  1  0  0  0  0
  2  8  1  0  0  0  0
  2  9  1  0  0  0  0
  3  6  2  0  0  0  0
  3 10  1  0  0  0  0
  4  7  2  0  0  0  0
  5  2  2  0  0  0  0
  7  1  1  0  0  0  0
  8  3  1  0  0  0  0
  9  4  1  0  0  0  0
 10  4  1  0  0  0  0
 10 18  1  0  0  0  0
 13  1  1  0  0  0  0
 14  5  1  0  0  0  0
 15  6  1  0  0  0  0
 16  8  1  0  0  0  0
 17  9  1  0  0  0  0
M  END
>  <HBA>
6

>  <HBD>
3

>  <TPSA>
102.74

>  <cid>
26029

>  <dipole>
2.41

>  <excitation_energy_1>
5.128

>  <excitation_energy_2>
5.662

>  <excitation_energy_3>
5.764

>  <excitation_energy_4>
5.824

>  <homo_energy>
-6.169

>  <homo_lumo_gap>
6.463

>  <logP>
0.313

>  <lumo_energy>
0.294

>  <melting_point>
184.7

>  <molecular_refractivity>
37.94

>  <oscillator_strength_1>
0.0034

>  <oscillator_strength_2>
0.0454

>  <oscillator_strength_3>
0.005

>  <oscillator_strength_4>
0.0

>  <open_babel_can_smiles>
CN=c1[nH]c(=N)[nH]c(=N)[nH]1

>  <mulliken_charges>
18
1   -0.344775
2   0.692368
3   0.692023
4   0.755332
5   -0.647913
6   -0.646998
7   -0.481711
8   -0.707575
9   -0.70412
10   -0.679925
11   0.169608
12   0.14111
13   0.14191
14   0.280315
15   0.277448
16   0.337419
17   0.361596
18   0.363888

>  <lowdin_charges>
18
1   -0.36411
2   0.145064
3   0.137156
4   0.136889
5   -0.457094
6   -0.45434
7   -0.264871
8   -0.276394
9   -0.247365
10   -0.231964
11   0.161838
12   0.138475
13   0.137816
14   0.258564
15   0.256289
16   0.297661
17   0.308861
18   0.317526

$$$$

