PCCDB-ID:  11582
public computational chemistry database (PCCDB) project, http://pccdb.org

 23 22  0  0  0  0  0  0  0  0999 V2000
    0.9075    0.3048   -0.3815 C   0  0  0  0  0  0  0  0  0  0  0  0
    4.7258    4.2887    0.4034 C   0  0  0  0  0  0  0  0  0  0  0  0
    6.4899    3.4056   -1.1704 C   0  0  0  0  0  0  0  0  0  0  0  0
    2.4299    0.4229   -0.5063 C   0  0  0  0  0  0  0  0  0  0  0  0
    2.9212    1.8757   -0.5719 C   0  0  0  0  0  0  0  0  0  0  0  0
    4.4461    1.9927   -0.6969 C   0  0  0  0  0  0  0  0  0  0  0  0
    4.9893    3.4285   -0.8423 C   0  0  0  0  0  0  0  0  0  0  0  0
    0.5889   -0.7430   -0.3367 H   0  0  0  0  0  0  0  0  0  0  0  0
    0.4021    0.7700   -1.2369 H   0  0  0  0  0  0  0  0  0  0  0  0
    0.5447    0.8023    0.5264 H   0  0  0  0  0  0  0  0  0  0  0  0
    5.1212    5.3028    0.2700 H   0  0  0  0  0  0  0  0  0  0  0  0
    5.2149    3.8558    1.2863 H   0  0  0  0  0  0  0  0  0  0  0  0
    3.6571    4.3791    0.6249 H   0  0  0  0  0  0  0  0  0  0  0  0
    6.8831    4.4198   -1.3103 H   0  0  0  0  0  0  0  0  0  0  0  0
    6.6908    2.8381   -2.0870 H   0  0  0  0  0  0  0  0  0  0  0  0
    7.0615    2.9379   -0.3577 H   0  0  0  0  0  0  0  0  0  0  0  0
    2.7668   -0.1146   -1.4043 H   0  0  0  0  0  0  0  0  0  0  0  0
    2.9073   -0.0815    0.3459 H   0  0  0  0  0  0  0  0  0  0  0  0
    2.5722    2.4075    0.3240 H   0  0  0  0  0  0  0  0  0  0  0  0
    2.4471    2.3781   -1.4287 H   0  0  0  0  0  0  0  0  0  0  0  0
    4.7698    1.4091   -1.5714 H   0  0  0  0  0  0  0  0  0  0  0  0
    4.9221    1.5184    0.1755 H   0  0  0  0  0  0  0  0  0  0  0  0
    4.4679    3.8969   -1.6919 H   0  0  0  0  0  0  0  0  0  0  0  0
  1  8  1  0  0  0  0
  1 10  1  0  0  0  0
  2 13  1  0  0  0  0
  2 12  1  0  0  0  0
  3  7  1  0  0  0  0
  3 16  1  0  0  0  0
  4  1  1  0  0  0  0
  4 18  1  0  0  0  0
  5  4  1  0  0  0  0
  5 19  1  0  0  0  0
  6  5  1  0  0  0  0
  6 22  1  0  0  0  0
  7  6  1  0  0  0  0
  7  2  1  0  0  0  0
  9  1  1  0  0  0  0
 11  2  1  0  0  0  0
 14  3  1  0  0  0  0
 15  3  1  0  0  0  0
 17  4  1  0  0  0  0
 20  5  1  0  0  0  0
 21  6  1  0  0  0  0
 23  7  1  0  0  0  0
M  END
>  <HBA>
0

>  <HBD>
0

>  <TPSA>
0.0

>  <cid>
11582

>  <dipole>
0.06

>  <excitation_energy_1>
7.783

>  <excitation_energy_2>
8.067

>  <excitation_energy_3>
8.116

>  <excitation_energy_4>
8.152

>  <homo_energy>
-8.158

>  <homo_lumo_gap>
10.539

>  <logP>
2.833

>  <lumo_energy>
2.381

>  <melting_point>
-27.23

>  <molecular_refractivity>
35.76

>  <oscillator_strength_1>
0.016

>  <oscillator_strength_2>
0.0273

>  <oscillator_strength_3>
0.041

>  <oscillator_strength_4>
0.0247

>  <open_babel_can_smiles>
CCCCC(C)C

>  <mulliken_charges>
23
1   -0.441306
2   -0.444383
3   -0.441766
4   -0.247039
5   -0.251896
6   -0.245348
7   -0.065433
8   0.14101
9   0.14077
10   0.140677
11   0.138799
12   0.136828
13   0.144384
14   0.138166
15   0.138527
16   0.137665
17   0.129481
18   0.129956
19   0.130902
20   0.125191
21   0.123833
22   0.122297
23   0.118684

>  <lowdin_charges>
23
1   -0.444802
2   -0.44506
3   -0.445093
4   -0.272972
5   -0.278257
6   -0.276895
7   -0.120805
8   0.147685
9   0.146756
10   0.146243
11   0.146876
12   0.14507
13   0.146813
14   0.146207
15   0.146785
16   0.145897
17   0.138682
18   0.139535
19   0.139286
20   0.1376
21   0.138993
22   0.136837
23   0.134619

$$$$

