PCCDB-ID:  40895
public computational chemistry database (PCCDB) project, http://pccdb.org

 19 18  0  0  1  0  0  0  0  0999 V2000
    1.7520   -0.9891   -1.7869 C   0  0  0  0  0  0  0  0  0  0  0  0
    4.2759    1.9387    2.4563 C   0  0  0  0  0  0  0  0  0  0  0  0
    2.0130   -0.2479   -0.4731 C   0  0  0  0  0  0  0  0  0  0  0  0
    2.7782    1.9273    0.6228 C   0  0  0  0  0  0  0  0  0  0  0  0
    2.5365    1.1812   -0.6903 C   0  0  1  0  0  0  0  0  0  0  0  0
    3.7318    1.1955   -1.4675 O   0  0  0  0  0  0  0  0  0  0  0  0
    3.8574    1.2779    1.2803 O   0  0  0  0  0  0  0  0  0  0  0  0
    1.4215   -2.0176   -1.6032 H   0  0  0  0  0  0  0  0  0  0  0  0
    2.6602   -1.0213   -2.3958 H   0  0  0  0  0  0  0  0  0  0  0  0
    0.9737   -0.4885   -2.3767 H   0  0  0  0  0  0  0  0  0  0  0  0
    5.1146    1.3696    2.8657 H   0  0  0  0  0  0  0  0  0  0  0  0
    3.4701    1.9778    3.2058 H   0  0  0  0  0  0  0  0  0  0  0  0
    4.6067    2.9683    2.2473 H   0  0  0  0  0  0  0  0  0  0  0  0
    2.7419   -0.7977    0.1357 H   0  0  0  0  0  0  0  0  0  0  0  0
    1.0889   -0.1962    0.1203 H   0  0  0  0  0  0  0  0  0  0  0  0
    1.8760    1.9216    1.2565 H   0  0  0  0  0  0  0  0  0  0  0  0
    3.0437    2.9753    0.4102 H   0  0  0  0  0  0  0  0  0  0  0  0
    1.7986    1.7492   -1.2723 H   0  0  0  0  0  0  0  0  0  0  0  0
    4.4377    0.9323   -0.8517 H   0  0  0  0  0  0  0  0  0  0  0  0
  1  8  1  0  0  0  0
  1  3  1  0  0  0  0
  2 11  1  0  0  0  0
  2 12  1  0  0  0  0
  3 15  1  0  0  0  0
  3 14  1  0  0  0  0
  4 16  1  0  0  0  0
  4  7  1  0  0  0  0
  5 18  1  6  0  0  0
  5  3  1  0  0  0  0
  5  4  1  0  0  0  0
  6 19  1  0  0  0  0
  6  5  1  0  0  0  0
  7  2  1  0  0  0  0
  9  1  1  0  0  0  0
 10  1  1  0  0  0  0
 13  2  1  0  0  0  0
 17  4  1  0  0  0  0
M  END
>  <HBA>
2

>  <HBD>
1

>  <TPSA>
29.46

>  <cid>
40895

>  <dipole>
2.41

>  <excitation_energy_1>
6.682

>  <excitation_energy_2>
6.721

>  <excitation_energy_3>
6.956

>  <excitation_energy_4>
7.101

>  <homo_energy>
-6.983

>  <homo_lumo_gap>
9.113

>  <logP>
0.404

>  <lumo_energy>
2.131

>  <melting_point>
-16.23

>  <molecular_refractivity>
28.4

>  <oscillator_strength_1>
0.0331

>  <oscillator_strength_2>
0.0112

>  <oscillator_strength_3>
0.0009

>  <oscillator_strength_4>
0.0157

>  <open_babel_can_smiles>
COC[C@H](CC)O

>  <mulliken_charges>
19
1   -0.442313
2   -0.191229
3   -0.260732
4   -0.034303
5   0.126252
6   -0.634123
7   -0.478412
8   0.137595
9   0.163281
10   0.136326
11   0.160686
12   0.135443
13   0.136035
14   0.143807
15   0.121886
16   0.120891
17   0.130656
18   0.130125
19   0.398129

>  <lowdin_charges>
19
1   -0.446161
2   -0.278259
3   -0.291676
4   -0.146161
5   -0.010723
6   -0.466708
7   -0.278902
8   0.146677
9   0.158132
10   0.145527
11   0.157398
12   0.135747
13   0.134043
14   0.14888
15   0.140069
16   0.131268
17   0.133062
18   0.144377
19   0.343411

$$$$

