PCCDB-ID:  69201
public computational chemistry database (PCCDB) project, http://pccdb.org

 18 18  0  0  0  0  0  0  0  0999 V2000
    2.1743   -1.5161    2.6268 C   0  0  0  0  0  0  0  0  0  0  0  0
    2.1191   -0.8732    1.2490 C   0  0  0  0  0  0  0  0  0  0  0  0
    5.6564    1.5211    0.4951 C   0  0  0  0  0  0  0  0  0  0  0  0
    6.9218    1.8425    0.1258 C   0  0  0  0  0  0  0  0  0  0  0  0
    6.7288   -0.3091   -0.2350 C   0  0  0  0  0  0  0  0  0  0  0  0
    5.5233    0.1070    0.2597 C   0  0  0  0  0  0  0  0  0  0  0  0
    4.3713   -0.7807    0.4796 C   0  0  0  0  0  0  0  0  0  0  0  0
    4.3664   -1.9737    0.2401 O   0  0  0  0  0  0  0  0  0  0  0  0
    7.5884    0.7303   -0.3230 O   0  0  0  0  0  0  0  0  0  0  0  0
    3.3125   -0.0999    0.9800 O   0  0  0  0  0  0  0  0  0  0  0  0
    1.2312   -2.0356    2.8326 H   0  0  0  0  0  0  0  0  0  0  0  0
    2.3279   -0.7604    3.4040 H   0  0  0  0  0  0  0  0  0  0  0  0
    2.9862   -2.2469    2.6767 H   0  0  0  0  0  0  0  0  0  0  0  0
    1.3063   -0.1459    1.1781 H   0  0  0  0  0  0  0  0  0  0  0  0
    2.0029   -1.6253    0.4650 H   0  0  0  0  0  0  0  0  0  0  0  0
    4.8989    2.1843    0.8854 H   0  0  0  0  0  0  0  0  0  0  0  0
    7.4896    2.7598    0.1132 H   0  0  0  0  0  0  0  0  0  0  0  0
    7.0936   -1.2739   -0.5513 H   0  0  0  0  0  0  0  0  0  0  0  0
  1 13  1  0  0  0  0
  1 11  1  0  0  0  0
  1 12  1  0  0  0  0
  2  1  1  0  0  0  0
  3 16  1  0  0  0  0
  4  3  2  0  0  0  0
  5  6  2  0  0  0  0
  6  7  1  0  0  0  0
  6  3  1  0  0  0  0
  7 10  1  0  0  0  0
  8  7  2  0  0  0  0
  9  5  1  0  0  0  0
  9  4  1  0  0  0  0
 10  2  1  0  0  0  0
 14  2  1  0  0  0  0
 15  2  1  0  0  0  0
 17  4  1  0  0  0  0
 18  5  1  0  0  0  0
M  END
>  <HBA>
3

>  <HBD>
0

>  <TPSA>
39.44

>  <cid>
69201

>  <dipole>
2.01

>  <excitation_energy_1>
5.163

>  <excitation_energy_2>
5.195

>  <excitation_energy_3>
6.157

>  <excitation_energy_4>
6.167

>  <homo_energy>
-6.534

>  <homo_lumo_gap>
5.807

>  <logP>
1.456

>  <lumo_energy>
-0.727

>  <melting_point>
27.83

>  <molecular_refractivity>
34.79

>  <oscillator_strength_1>
0.0003

>  <oscillator_strength_2>
0.0611

>  <oscillator_strength_3>
0.0048

>  <oscillator_strength_4>
0.0317

>  <open_babel_can_smiles>
CCOC(=O)c1cocc1

>  <mulliken_charges>
18
1   -0.461625
2   -0.04145
3   -0.192065
4   0.072355
5   0.082985
6   0.013055
7   0.580685
8   -0.501904
9   -0.393712
10   -0.475342
11   0.149804
12   0.156536
13   0.177585
14   0.151472
15   0.171769
16   0.159551
17   0.165656
18   0.184645

>  <lowdin_charges>
18
1   -0.455926
2   -0.128853
3   -0.192894
4   -0.079527
5   -0.04292
6   -0.083965
7   0.196517
8   -0.27802
9   -0.079094
10   -0.194591
11   0.15861
12   0.156436
13   0.166629
14   0.15253
15   0.160301
16   0.182184
17   0.175803
18   0.18678

$$$$

