PCCDB-ID:  59411
public computational chemistry database (PCCDB) project, http://pccdb.org

 36 37  0  0  1  0  0  0  0  0999 V2000
    3.7040    3.4694   -1.4473 C   0  0  0  0  0  0  0  0  0  0  0  0
    0.5633    2.5110    0.5397 C   0  0  0  0  0  0  0  0  0  0  0  0
    3.4561    3.3041    0.0620 C   0  0  0  0  0  0  0  0  0  0  0  0
    1.6800    1.5739    0.0769 C   0  0  0  0  0  0  0  0  0  0  0  0
    7.6180    4.3349    5.6668 C   0  0  0  0  0  0  0  0  0  0  0  0
    7.5323    2.9801    5.9896 C   0  0  0  0  0  0  0  0  0  0  0  0
    7.4461    4.7472    4.3423 C   0  0  0  0  0  0  0  0  0  0  0  0
    7.2747    2.0420    4.9885 C   0  0  0  0  0  0  0  0  0  0  0  0
    7.1886    3.8097    3.3439 C   0  0  0  0  0  0  0  0  0  0  0  0
    3.9885    0.9178    0.3066 C   0  0  0  0  0  0  0  0  0  0  0  0
    7.0970    2.4500    3.6634 C   0  0  0  0  0  0  0  0  0  0  0  0
    5.3177    1.2084    0.9277 C   0  0  0  0  0  0  0  0  0  0  0  0
    6.7861    1.4250    2.6006 C   0  0  2  0  0  0  0  0  0  0  0  0
    6.4285    1.3103    0.3027 N   0  0  0  0  0  0  0  0  0  0  0  0
    7.3751    1.7233    1.2819 N   0  0  0  0  0  0  0  0  0  0  0  0
    3.0118    1.9835    0.5290 N   0  0  0  0  0  0  0  0  0  0  0  0
    5.3725    1.4106    2.2820 O   0  0  0  0  0  0  0  0  0  0  0  0
    3.9870    4.5062   -1.6636 H   0  0  0  0  0  0  0  0  0  0  0  0
    2.8100    3.2409   -2.0390 H   0  0  0  0  0  0  0  0  0  0  0  0
    4.5203    2.8276   -1.7948 H   0  0  0  0  0  0  0  0  0  0  0  0
   -0.4117    2.0651    0.3128 H   0  0  0  0  0  0  0  0  0  0  0  0
    0.5994    3.4847    0.0401 H   0  0  0  0  0  0  0  0  0  0  0  0
    0.6262    2.6763    1.6204 H   0  0  0  0  0  0  0  0  0  0  0  0
    2.7111    4.0344    0.3937 H   0  0  0  0  0  0  0  0  0  0  0  0
    4.3755    3.5480    0.6062 H   0  0  0  0  0  0  0  0  0  0  0  0
    1.6241    1.4486   -1.0223 H   0  0  0  0  0  0  0  0  0  0  0  0
    1.4963    0.5795    0.5035 H   0  0  0  0  0  0  0  0  0  0  0  0
    7.8210    5.0677    6.4433 H   0  0  0  0  0  0  0  0  0  0  0  0
    7.6699    2.6528    7.0166 H   0  0  0  0  0  0  0  0  0  0  0  0
    7.5192    5.8013    4.0876 H   0  0  0  0  0  0  0  0  0  0  0  0
    7.2064    0.9854    5.2386 H   0  0  0  0  0  0  0  0  0  0  0  0
    7.0719    4.1164    2.3093 H   0  0  0  0  0  0  0  0  0  0  0  0
    3.5866    0.0057    0.7671 H   0  0  0  0  0  0  0  0  0  0  0  0
    4.1784    0.6914   -0.7568 H   0  0  0  0  0  0  0  0  0  0  0  0
    7.0467    0.4154    2.9704 H   0  0  0  0  0  0  0  0  0  0  0  0
    8.2545    1.2425    1.1168 H   0  0  0  0  0  0  0  0  0  0  0  0
  1  3  1  0  0  0  0
  2 23  1  0  0  0  0
  3 24  1  0  0  0  0
  3 16  1  0  0  0  0
  3 25  1  0  0  0  0
  4 27  1  0  0  0  0
  4 16  1  0  0  0  0
  4  2  1  0  0  0  0
  5  6  1  0  0  0  0
  5 28  1  0  0  0  0
  6 29  1  0  0  0  0
  7  5  2  0  0  0  0
  8 31  1  0  0  0  0
  8  6  2  0  0  0  0
  9 11  2  0  0  0  0
  9  7  1  0  0  0  0
 10 16  1  0  0  0  0
 10 33  1  0  0  0  0
 10 12  1  0  0  0  0
 11  8  1  0  0  0  0
 12 17  1  0  0  0  0
 13 35  1  1  0  0  0
 13 11  1  0  0  0  0
 14 12  2  0  0  0  0
 14 15  1  0  0  0  0
 15 13  1  0  0  0  0
 17 13  1  0  0  0  0
 18  1  1  0  0  0  0
 19  1  1  0  0  0  0
 20  1  1  0  0  0  0
 21  2  1  0  0  0  0
 22  2  1  0  0  0  0
 26  4  1  0  0  0  0
 30  7  1  0  0  0  0
 32  9  1  0  0  0  0
 34 10  1  0  0  0  0
 36 15  1  0  0  0  0
M  END
>  <HBA>
4

>  <HBD>
1

>  <TPSA>
36.86

>  <cid>
59411

>  <dipole>
1.11

>  <excitation_energy_1>
4.348

>  <excitation_energy_2>
4.586

>  <excitation_energy_3>
4.68

>  <excitation_energy_4>
4.823

>  <homo_energy>
-5.559

>  <homo_lumo_gap>
5.216

>  <logP>
1.725

>  <lumo_energy>
-0.343

>  <melting_point>
64.47

>  <molecular_refractivity>
75.84

>  <oscillator_strength_1>
0.0038

>  <oscillator_strength_2>
0.0004

>  <oscillator_strength_3>
0.0035

>  <oscillator_strength_4>
0.0012

>  <open_babel_can_smiles>
CCN(CC1=NN[C@H](O1)c1ccccc1)CC

>  <mulliken_charges>
36
1   -0.464549
2   -0.457213
3   -0.144683
4   -0.103732
5   -0.123785
6   -0.131655
7   -0.132946
8   -0.18352
9   -0.16449
10   -0.182284
11   0.170029
12   0.527571
13   0.16183
14   -0.337708
15   -0.457292
16   -0.381935
17   -0.486877
18   0.143159
19   0.143644
20   0.164083
21   0.143241
22   0.149407
23   0.160472
24   0.144502
25   0.159317
26   0.114014
27   0.13582
28   0.132255
29   0.132204
30   0.133438
31   0.129949
32   0.156111
33   0.157405
34   0.147534
35   0.121499
36   0.325183

>  <lowdin_charges>
36
1   -0.468384
2   -0.448623
3   -0.207759
4   -0.192466
5   -0.151652
6   -0.154966
7   -0.15229
8   -0.156058
9   -0.142069
10   -0.198806
11   -0.026792
12   0.096203
13   0.062129
14   -0.15746
15   -0.282297
16   -0.186554
17   -0.205162
18   0.153026
19   0.147201
20   0.157815
21   0.153292
22   0.148848
23   0.155464
24   0.148273
25   0.152322
26   0.114588
27   0.142582
28   0.160016
29   0.158028
30   0.157836
31   0.155502
32   0.169213
33   0.160765
34   0.14189
35   0.12364
36   0.272703

$$$$

