PCCDB-ID:  14318
public computational chemistry database (PCCDB) project, http://pccdb.org

 19 20  0  0  0  0  0  0  0  0999 V2000
    0.8952   -0.0122   -0.0160 C   0  0  0  0  0  0  0  0  0  0  0  0
    3.1478   -1.1676   -0.0174 C   0  0  0  0  0  0  0  0  0  0  0  0
    4.5436   -1.1464   -0.0196 C   0  0  0  0  0  0  0  0  0  0  0  0
    3.0669    1.2681   -0.0043 C   0  0  0  0  0  0  0  0  0  0  0  0
    2.4046    0.0247   -0.0113 C   0  0  0  0  0  0  0  0  0  0  0  0
    5.1956    0.0820   -0.0156 C   0  0  0  0  0  0  0  0  0  0  0  0
    4.4526    1.2808   -0.0077 C   0  0  0  0  0  0  0  0  0  0  0  0
    6.6224    0.4327   -0.0143 C   0  0  0  0  0  0  0  0  0  0  0  0
    6.6527    2.0044   -0.0066 C   0  0  0  0  0  0  0  0  0  0  0  0
    5.3182    2.3843   -0.0014 N   0  0  0  0  0  0  0  0  0  0  0  0
    7.6094   -0.2704   -0.0181 O   0  0  0  0  0  0  0  0  0  0  0  0
    7.6191    2.7315   -0.0056 O   0  0  0  0  0  0  0  0  0  0  0  0
    0.5192   -1.0373    0.0433 H   0  0  0  0  0  0  0  0  0  0  0  0
    0.4926    0.4416   -0.9304 H   0  0  0  0  0  0  0  0  0  0  0  0
    0.4818    0.5505    0.8296 H   0  0  0  0  0  0  0  0  0  0  0  0
    2.6217   -2.1179   -0.0212 H   0  0  0  0  0  0  0  0  0  0  0  0
    5.1227   -2.0653   -0.0248 H   0  0  0  0  0  0  0  0  0  0  0  0
    2.4957    2.1930    0.0016 H   0  0  0  0  0  0  0  0  0  0  0  0
    5.0261    3.3519   -0.0014 H   0  0  0  0  0  0  0  0  0  0  0  0
  1  5  1  0  0  0  0
  1 13  1  0  0  0  0
  1 15  1  0  0  0  0
  2  5  1  0  0  0  0
  3  2  2  0  0  0  0
  3  6  1  0  0  0  0
  4 18  1  0  0  0  0
  5  4  2  0  0  0  0
  6  8  1  0  0  0  0
  6  7  2  0  0  0  0
  7  4  1  0  0  0  0
  7 10  1  0  0  0  0
  8  9  1  0  0  0  0
  9 12  2  0  0  0  0
  9 10  1  0  0  0  0
 10 19  1  0  0  0  0
 11  8  2  0  0  0  0
 14  1  1  0  0  0  0
 16  2  1  0  0  0  0
 17  3  1  0  0  0  0
M  END
>  <HBA>
3

>  <HBD>
1

>  <TPSA>
46.17

>  <cid>
14318

>  <dipole>
6.57

>  <excitation_energy_1>
2.707

>  <excitation_energy_2>
3.097

>  <excitation_energy_3>
4.235

>  <excitation_energy_4>
4.381

>  <homo_energy>
-6.457

>  <homo_lumo_gap>
3.916

>  <logP>
1.268

>  <lumo_energy>
-2.542

>  <melting_point>
123.24

>  <molecular_refractivity>
47.12

>  <oscillator_strength_1>
0.0

>  <oscillator_strength_2>
0.0229

>  <oscillator_strength_3>
0.1195

>  <oscillator_strength_4>
0.0

>  <open_babel_can_smiles>
Cc1ccc2c(c1)NC(=O)C2=O

>  <mulliken_charges>
19
1   -0.534161
2   -0.194901
3   -0.167497
4   -0.228047
5   0.177308
6   0.063556
7   0.348787
8   0.314911
9   0.574753
10   -0.746888
11   -0.432584
12   -0.454671
13   0.165474
14   0.173314
15   0.17118
16   0.134617
17   0.163866
18   0.13302
19   0.337961

>  <lowdin_charges>
19
1   -0.442583
2   -0.185564
3   -0.107915
4   -0.202237
5   0.039098
6   -0.08623
7   0.074429
8   0.124693
9   0.142166
10   -0.244783
11   -0.184555
12   -0.221814
13   0.161822
14   0.168068
15   0.167368
16   0.161891
17   0.177052
18   0.162161
19   0.296935

$$$$

