PCCDB-ID:  66020
public computational chemistry database (PCCDB) project, http://pccdb.org

 33 32  0  0  0  0  0  0  0  0999 V2000
    3.0771    1.2848   -0.2074 C   0  0  0  0  0  0  0  0  0  0  0  0
    1.2694   -2.1406   -1.0234 C   0  0  0  0  0  0  0  0  0  0  0  0
    5.5723   -4.3830    2.6934 C   0  0  0  0  0  0  0  0  0  0  0  0
    3.2536   -2.1606    4.5038 C   0  0  0  0  0  0  0  0  0  0  0  0
    2.1961    0.3283    0.6182 C   0  0  0  0  0  0  0  0  0  0  0  0
    2.6686   -1.8453   -0.4804 C   0  0  0  0  0  0  0  0  0  0  0  0
    5.3959   -2.8879    2.4194 C   0  0  0  0  0  0  0  0  0  0  0  0
    3.0195   -2.8065    3.1262 C   0  0  0  0  0  0  0  0  0  0  0  0
    3.8945   -1.1874    1.5158 C   0  0  0  0  0  0  0  0  0  0  0  0
    2.6594   -1.0537    0.7531 N   0  0  0  0  0  0  0  0  0  0  0  0
    4.0189   -2.5239    2.0874 N   0  0  0  0  0  0  0  0  0  0  0  0
    2.6210    2.2814   -0.2416 H   0  0  0  0  0  0  0  0  0  0  0  0
    3.1975    0.9410   -1.2406 H   0  0  0  0  0  0  0  0  0  0  0  0
    4.0768    1.3919    0.2291 H   0  0  0  0  0  0  0  0  0  0  0  0
    1.3360   -2.8189   -1.8820 H   0  0  0  0  0  0  0  0  0  0  0  0
    0.7510   -1.2368   -1.3625 H   0  0  0  0  0  0  0  0  0  0  0  0
    0.6529   -2.6163   -0.2532 H   0  0  0  0  0  0  0  0  0  0  0  0
    6.6363   -4.6194    2.8079 H   0  0  0  0  0  0  0  0  0  0  0  0
    5.1723   -4.9739    1.8624 H   0  0  0  0  0  0  0  0  0  0  0  0
    5.0657   -4.7000    3.6112 H   0  0  0  0  0  0  0  0  0  0  0  0
    3.3192   -1.0685    4.4381 H   0  0  0  0  0  0  0  0  0  0  0  0
    4.1723   -2.5224    4.9792 H   0  0  0  0  0  0  0  0  0  0  0  0
    2.4195   -2.4008    5.1735 H   0  0  0  0  0  0  0  0  0  0  0  0
    1.1891    0.3061    0.1863 H   0  0  0  0  0  0  0  0  0  0  0  0
    2.0823    0.7344    1.6318 H   0  0  0  0  0  0  0  0  0  0  0  0
    3.2815   -1.3737   -1.2727 H   0  0  0  0  0  0  0  0  0  0  0  0
    3.1572   -2.7899   -0.2250 H   0  0  0  0  0  0  0  0  0  0  0  0
    6.0158   -2.6161    1.5560 H   0  0  0  0  0  0  0  0  0  0  0  0
    5.7974   -2.3129    3.2761 H   0  0  0  0  0  0  0  0  0  0  0  0
    2.0613   -2.4701    2.7200 H   0  0  0  0  0  0  0  0  0  0  0  0
    2.9454   -3.8937    3.2460 H   0  0  0  0  0  0  0  0  0  0  0  0
    3.8894   -0.3892    2.2809 H   0  0  0  0  0  0  0  0  0  0  0  0
    4.7956   -1.0215    0.8977 H   0  0  0  0  0  0  0  0  0  0  0  0
  1 14  1  0  0  0  0
  1  5  1  0  0  0  0
  2  6  1  0  0  0  0
  2 17  1  0  0  0  0
  3 18  1  0  0  0  0
  3 20  1  0  0  0  0
  4 22  1  0  0  0  0
  4 23  1  0  0  0  0
  5 10  1  0  0  0  0
  5 25  1  0  0  0  0
  6 27  1  0  0  0  0
  6 10  1  0  0  0  0
  7  3  1  0  0  0  0
  7 29  1  0  0  0  0
  8 31  1  0  0  0  0
  8  4  1  0  0  0  0
  9 11  1  0  0  0  0
  9 32  1  0  0  0  0
 10  9  1  0  0  0  0
 11  7  1  0  0  0  0
 11  8  1  0  0  0  0
 12  1  1  0  0  0  0
 13  1  1  0  0  0  0
 15  2  1  0  0  0  0
 16  2  1  0  0  0  0
 19  3  1  0  0  0  0
 21  4  1  0  0  0  0
 24  5  1  0  0  0  0
 26  6  1  0  0  0  0
 28  7  1  0  0  0  0
 30  8  1  0  0  0  0
 33  9  1  0  0  0  0
M  END
>  <HBA>
2

>  <HBD>
0

>  <TPSA>
6.48

>  <cid>
66020

>  <dipole>
0.67

>  <excitation_energy_1>
4.989

>  <excitation_energy_2>
5.079

>  <excitation_energy_3>
5.313

>  <excitation_energy_4>
5.358

>  <homo_energy>
-5.421

>  <homo_lumo_gap>
7.516

>  <logP>
1.627

>  <lumo_energy>
2.095

>  <melting_point>
-23.28

>  <molecular_refractivity>
51.17

>  <oscillator_strength_1>
0.0151

>  <oscillator_strength_2>
0.0142

>  <oscillator_strength_3>
0.0093

>  <oscillator_strength_4>
0.0096

>  <open_babel_can_smiles>
CCN(CN(CC)CC)CC

>  <mulliken_charges>
33
1   -0.456892
2   -0.449677
3   -0.453213
4   -0.461071
5   -0.137132
6   -0.116908
7   -0.110001
8   -0.136969
9   0.020155
10   -0.377228
11   -0.383116
12   0.141186
13   0.15005
14   0.146662
15   0.139329
16   0.141479
17   0.152869
18   0.141198
19   0.153656
20   0.148619
21   0.145186
22   0.145078
23   0.142136
24   0.141324
25   0.136293
26   0.107072
27   0.158875
28   0.135033
29   0.113093
30   0.15974
31   0.136863
32   0.113536
33   0.112772

>  <lowdin_charges>
33
1   -0.4639
2   -0.451822
3   -0.450662
4   -0.464259
5   -0.202438
6   -0.205368
7   -0.199449
8   -0.208077
9   -0.13127
10   -0.186963
11   -0.188795
12   0.151424
13   0.148795
14   0.147524
15   0.15117
16   0.145116
17   0.154171
18   0.150582
19   0.154434
20   0.149201
21   0.145114
22   0.147033
23   0.153447
24   0.143433
25   0.140854
26   0.116441
27   0.155913
28   0.143355
29   0.117512
30   0.15564
31   0.139524
32   0.120779
33   0.12154

$$$$

