PCCDB-ID:  21565
public computational chemistry database (PCCDB) project, http://pccdb.org

 37 37  0  0  1  0  0  0  0  0999 V2000
    4.9140    5.2322    0.2913 C   0  0  0  0  0  0  0  0  0  0  0  0
    5.6381    4.1084    1.0394 C   0  0  0  0  0  0  0  0  0  0  0  0
    4.8227    2.8112    1.1143 C   0  0  0  0  0  0  0  0  0  0  0  0
    5.5394    1.6819    1.8659 C   0  0  0  0  0  0  0  0  0  0  0  0
   -0.4485   -2.5615    1.9652 C   0  0  0  0  0  0  0  0  0  0  0  0
    0.1281   -3.1376    0.8323 C   0  0  0  0  0  0  0  0  0  0  0  0
    0.3010   -2.4441    3.1378 C   0  0  0  0  0  0  0  0  0  0  0  0
    4.7159    0.3878    1.9290 C   0  0  0  0  0  0  0  0  0  0  0  0
    1.4481   -3.5910    0.8680 C   0  0  0  0  0  0  0  0  0  0  0  0
    1.6194   -2.8977    3.1738 C   0  0  0  0  0  0  0  0  0  0  0  0
    5.4427   -0.7145    2.6895 C   0  0  0  0  0  0  0  0  0  0  0  0
    2.2027   -3.4709    2.0379 C   0  0  0  0  0  0  0  0  0  0  0  0
    3.6542   -3.9529    2.0699 C   0  0  2  0  0  0  0  0  0  0  0  0
    4.6128   -2.7759    1.8309 C   0  0  0  0  0  0  0  0  0  0  0  0
    3.9190   -4.9408    1.1025 O   0  0  0  0  0  0  0  0  0  0  0  0
    5.2917   -2.6951    0.8238 O   0  0  0  0  0  0  0  0  0  0  0  0
    4.6073   -1.8958    2.8340 O   0  0  0  0  0  0  0  0  0  0  0  0
    5.5214    6.1435    0.2538 H   0  0  0  0  0  0  0  0  0  0  0  0
    3.9638    5.4852    0.7778 H   0  0  0  0  0  0  0  0  0  0  0  0
    4.6881    4.9394   -0.7414 H   0  0  0  0  0  0  0  0  0  0  0  0
    5.8805    4.4425    2.0584 H   0  0  0  0  0  0  0  0  0  0  0  0
    6.6008    3.9040    0.5495 H   0  0  0  0  0  0  0  0  0  0  0  0
    4.5832    2.4730    0.0955 H   0  0  0  0  0  0  0  0  0  0  0  0
    3.8580    3.0163    1.6012 H   0  0  0  0  0  0  0  0  0  0  0  0
    5.7755    2.0172    2.8869 H   0  0  0  0  0  0  0  0  0  0  0  0
    6.5047    1.4795    1.3796 H   0  0  0  0  0  0  0  0  0  0  0  0
   -1.4777   -2.2131    1.9377 H   0  0  0  0  0  0  0  0  0  0  0  0
   -0.4513   -3.2402   -0.0816 H   0  0  0  0  0  0  0  0  0  0  0  0
   -0.1432   -2.0056    4.0278 H   0  0  0  0  0  0  0  0  0  0  0  0
    4.5009    0.0333    0.9136 H   0  0  0  0  0  0  0  0  0  0  0  0
    3.7510    0.5782    2.4161 H   0  0  0  0  0  0  0  0  0  0  0  0
    1.8960   -4.0627   -0.0000 H   0  0  0  0  0  0  0  0  0  0  0  0
    2.1996   -2.8047    4.0884 H   0  0  0  0  0  0  0  0  0  0  0  0
    5.6631   -0.4172    3.7179 H   0  0  0  0  0  0  0  0  0  0  0  0
    6.3706   -1.0011    2.1878 H   0  0  0  0  0  0  0  0  0  0  0  0
    3.8700   -4.3516    3.0716 H   0  0  0  0  0  0  0  0  0  0  0  0
    4.5436   -4.5312    0.4730 H   0  0  0  0  0  0  0  0  0  0  0  0
  1 19  1  0  0  0  0
  1  2  1  0  0  0  0
  2  3  1  0  0  0  0
  2 21  1  0  0  0  0
  3 24  1  0  0  0  0
  3  4  1  0  0  0  0
  4  8  1  0  0  0  0
  4 25  1  0  0  0  0
  5  7  2  0  0  0  0
  6  9  2  0  0  0  0
  6  5  1  0  0  0  0
  7 10  1  0  0  0  0
  7 29  1  0  0  0  0
  8 31  1  0  0  0  0
  8 11  1  0  0  0  0
  9 12  1  0  0  0  0
 10 33  1  0  0  0  0
 11 17  1  0  0  0  0
 11 34  1  0  0  0  0
 12 13  1  0  0  0  0
 12 10  2  0  0  0  0
 13 36  1  1  0  0  0
 14 13  1  0  0  0  0
 14 17  1  0  0  0  0
 15 13  1  0  0  0  0
 16 14  2  0  0  0  0
 18  1  1  0  0  0  0
 20  1  1  0  0  0  0
 22  2  1  0  0  0  0
 23  3  1  0  0  0  0
 26  4  1  0  0  0  0
 27  5  1  0  0  0  0
 28  6  1  0  0  0  0
 30  8  1  0  0  0  0
 32  9  1  0  0  0  0
 35 11  1  0  0  0  0
 37 15  1  0  0  0  0
M  END
>  <HBA>
3

>  <HBD>
1

>  <TPSA>
46.53

>  <cid>
21565

>  <dipole>
3.3

>  <excitation_energy_1>
5.185

>  <excitation_energy_2>
5.319

>  <excitation_energy_3>
5.897

>  <excitation_energy_4>
5.996

>  <homo_energy>
-6.512

>  <homo_lumo_gap>
6.128

>  <logP>
2.844

>  <lumo_energy>
-0.384

>  <melting_point>
33.56

>  <molecular_refractivity>
67.5

>  <oscillator_strength_1>
0.0154

>  <oscillator_strength_2>
0.0407

>  <oscillator_strength_3>
0.0311

>  <oscillator_strength_4>
0.0066

>  <open_babel_can_smiles>
CCCCCCOC(=O)[C@@H](c1ccccc1)O

>  <mulliken_charges>
37
1   -0.442144
2   -0.248623
3   -0.24609
4   -0.265969
5   -0.126716
6   -0.131247
7   -0.134295
8   -0.280839
9   -0.165921
10   -0.166228
11   -0.05339
12   0.131517
13   0.000518
14   0.608582
15   -0.636446
16   -0.49364
17   -0.454295
18   0.14365
19   0.142372
20   0.143509
21   0.130746
22   0.132477
23   0.133677
24   0.130788
25   0.130569
26   0.137425
27   0.128517
28   0.130322
29   0.128554
30   0.162458
31   0.151133
32   0.143253
33   0.1299
34   0.15591
35   0.172484
36   0.164285
37   0.413196

>  <lowdin_charges>
37
1   -0.443187
2   -0.271219
3   -0.271951
4   -0.272839
5   -0.156033
6   -0.154897
7   -0.157276
8   -0.285442
9   -0.156729
10   -0.163343
11   -0.126933
12   -0.019594
13   -0.022184
14   0.185952
15   -0.449686
16   -0.274157
17   -0.171043
18   0.150526
19   0.146776
20   0.146396
21   0.138194
22   0.139621
23   0.140229
24   0.139223
25   0.138128
26   0.142036
27   0.155939
28   0.158188
29   0.157644
30   0.155992
31   0.15068
32   0.167216
33   0.158396
34   0.153742
35   0.159835
36   0.159064
37   0.352738

$$$$

