PCCDB-ID:  8455
public computational chemistry database (PCCDB) project, http://pccdb.org

 43 43  0  0  0  0  0  0  0  0999 V2000
    3.8131    1.7781    1.8895 C   0  0  0  0  0  0  0  0  0  0  0  0
    7.4012   -2.0689    0.7283 C   0  0  0  0  0  0  0  0  0  0  0  0
    3.0815   -0.4565   -0.1648 C   0  0  0  0  0  0  0  0  0  0  0  0
    2.4073    1.3361   -1.7571 C   0  0  0  0  0  0  0  0  0  0  0  0
    8.4524   -1.0959   -2.9253 C   0  0  0  0  0  0  0  0  0  0  0  0
    9.4383   -0.3730   -0.7155 C   0  0  0  0  0  0  0  0  0  0  0  0
    2.9820    1.9474    0.6130 C   0  0  0  0  0  0  0  0  0  0  0  0
    7.5797   -2.0626   -0.7971 C   0  0  0  0  0  0  0  0  0  0  0  0
    5.2141    2.5129   -1.4344 C   0  0  0  0  0  0  0  0  0  0  0  0
    6.5184    2.7342   -1.8591 C   0  0  0  0  0  0  0  0  0  0  0  0
    5.7767    0.2286   -1.0238 C   0  0  0  0  0  0  0  0  0  0  0  0
    4.8068    1.2417   -1.0121 C   0  0  0  0  0  0  0  0  0  0  0  0
    7.1109    0.4052   -1.4282 C   0  0  0  0  0  0  0  0  0  0  0  0
    7.4568    1.6993   -1.8707 C   0  0  0  0  0  0  0  0  0  0  0  0
    3.3488    1.0055   -0.5730 C   0  0  0  0  0  0  0  0  0  0  0  0
    8.1278   -0.7603   -1.4466 C   0  0  0  0  0  0  0  0  0  0  0  0
    8.7301    1.9383   -2.3359 O   0  0  0  0  0  0  0  0  0  0  0  0
    3.5132    2.5164    2.6421 H   0  0  0  0  0  0  0  0  0  0  0  0
    4.8811    1.9176    1.6905 H   0  0  0  0  0  0  0  0  0  0  0  0
    3.6819    0.7864    2.3362 H   0  0  0  0  0  0  0  0  0  0  0  0
    6.9442   -3.0114    1.0522 H   0  0  0  0  0  0  0  0  0  0  0  0
    6.7638   -1.2509    1.0795 H   0  0  0  0  0  0  0  0  0  0  0  0
    8.3625   -1.9789    1.2443 H   0  0  0  0  0  0  0  0  0  0  0  0
    2.0362   -0.5654    0.1467 H   0  0  0  0  0  0  0  0  0  0  0  0
    3.7105   -0.7834    0.6691 H   0  0  0  0  0  0  0  0  0  0  0  0
    3.2486   -1.1447   -1.0013 H   0  0  0  0  0  0  0  0  0  0  0  0
    1.3601    1.1717   -1.4734 H   0  0  0  0  0  0  0  0  0  0  0  0
    2.6292    0.7008   -2.6221 H   0  0  0  0  0  0  0  0  0  0  0  0
    2.5057    2.3793   -2.0756 H   0  0  0  0  0  0  0  0  0  0  0  0
    9.2233   -1.8752   -2.9798 H   0  0  0  0  0  0  0  0  0  0  0  0
    8.8208   -0.2178   -3.4614 H   0  0  0  0  0  0  0  0  0  0  0  0
    7.5606   -1.4667   -3.4446 H   0  0  0  0  0  0  0  0  0  0  0  0
   10.0860   -1.2547   -0.6273 H   0  0  0  0  0  0  0  0  0  0  0  0
    9.2392   -0.0005    0.2949 H   0  0  0  0  0  0  0  0  0  0  0  0
    9.9851    0.3995   -1.2559 H   0  0  0  0  0  0  0  0  0  0  0  0
    3.0642    2.9880    0.2730 H   0  0  0  0  0  0  0  0  0  0  0  0
    1.9191    1.7933    0.8482 H   0  0  0  0  0  0  0  0  0  0  0  0
    6.6382   -2.3480   -1.2846 H   0  0  0  0  0  0  0  0  0  0  0  0
    8.2892   -2.8596   -1.0577 H   0  0  0  0  0  0  0  0  0  0  0  0
    4.5156    3.3450   -1.4436 H   0  0  0  0  0  0  0  0  0  0  0  0
    6.8175    3.7255   -2.1990 H   0  0  0  0  0  0  0  0  0  0  0  0
    5.4772   -0.7583   -0.7034 H   0  0  0  0  0  0  0  0  0  0  0  0
    8.7855    2.8683   -2.6049 H   0  0  0  0  0  0  0  0  0  0  0  0
  1 20  1  0  0  0  0
  1 18  1  0  0  0  0
  2 21  1  0  0  0  0
  2 22  1  0  0  0  0
  2 23  1  0  0  0  0
  3 24  1  0  0  0  0
  3 25  1  0  0  0  0
  4 27  1  0  0  0  0
  4 15  1  0  0  0  0
  5 16  1  0  0  0  0
  6 33  1  0  0  0  0
  6 34  1  0  0  0  0
  7 37  1  0  0  0  0
  7  1  1  0  0  0  0
  8  2  1  0  0  0  0
  9 12  2  0  0  0  0
 10  9  1  0  0  0  0
 11 12  1  0  0  0  0
 11 42  1  0  0  0  0
 12 15  1  0  0  0  0
 13 11  2  0  0  0  0
 14 10  2  0  0  0  0
 14 13  1  0  0  0  0
 15  3  1  0  0  0  0
 15  7  1  0  0  0  0
 16 13  1  0  0  0  0
 16  8  1  0  0  0  0
 16  6  1  0  0  0  0
 17 14  1  0  0  0  0
 19  1  1  0  0  0  0
 26  3  1  0  0  0  0
 28  4  1  0  0  0  0
 29  4  1  0  0  0  0
 30  5  1  0  0  0  0
 31  5  1  0  0  0  0
 32  5  1  0  0  0  0
 35  6  1  0  0  0  0
 36  7  1  0  0  0  0
 38  8  1  0  0  0  0
 39  8  1  0  0  0  0
 40  9  1  0  0  0  0
 41 10  1  0  0  0  0
 43 17  1  0  0  0  0
M  END
>  <HBA>
1

>  <HBD>
1

>  <TPSA>
20.23

>  <cid>
8455

>  <dipole>
1.37

>  <excitation_energy_1>
4.91

>  <excitation_energy_2>
4.956

>  <excitation_energy_3>
5.403

>  <excitation_energy_4>
5.554

>  <homo_energy>
-5.668

>  <homo_lumo_gap>
5.785

>  <logP>
4.767

>  <lumo_energy>
0.117

>  <melting_point>
61.54

>  <molecular_refractivity>
76.62

>  <oscillator_strength_1>
0.0363

>  <oscillator_strength_2>
0.0069

>  <oscillator_strength_3>
0.0019

>  <oscillator_strength_4>
0.0396

>  <open_babel_can_smiles>
CCC(c1ccc(c(c1)C(CC)(C)C)O)(C)C

>  <mulliken_charges>
43
1   -0.452049
2   -0.455834
3   -0.46705
4   -0.440782
5   -0.452364
6   -0.462941
7   -0.244843
8   -0.2645
9   -0.203897
10   -0.19106
11   -0.299616
12   0.189401
13   0.14947
14   0.290205
15   0.018307
16   0.038231
17   -0.648527
18   0.139481
19   0.156286
20   0.143064
21   0.138758
22   0.151735
23   0.148125
24   0.139142
25   0.151221
26   0.144919
27   0.135794
28   0.145525
29   0.138933
30   0.132739
31   0.164449
32   0.137154
33   0.129326
34   0.142462
35   0.172939
36   0.127401
37   0.125701
38   0.131643
39   0.129007
40   0.12454
41   0.111207
42   0.130135
43   0.406163

>  <lowdin_charges>
43
1   -0.449081
2   -0.454996
3   -0.446962
4   -0.436775
5   -0.445525
6   -0.450586
7   -0.267974
8   -0.277208
9   -0.161742
10   -0.210425
11   -0.175577
12   -0.018931
13   -0.028827
14   0.094027
15   0.014131
16   0.018967
17   -0.381401
18   0.150451
19   0.152837
20   0.146154
21   0.149244
22   0.151083
23   0.150494
24   0.148523
25   0.151332
26   0.150419
27   0.143806
28   0.151338
29   0.145453
30   0.144031
31   0.159268
32   0.146602
33   0.143339
34   0.148088
35   0.164655
36   0.137964
37   0.137218
38   0.139594
39   0.144818
40   0.155363
41   0.148995
42   0.163796
43   0.354022

$$$$

