PCCDB-ID:  70515
public computational chemistry database (PCCDB) project, http://pccdb.org

 22 23  0  0  1  0  0  0  0  0999 V2000
   -1.5412   -0.1721    0.0135 C   0  0  0  0  0  0  0  0  0  0  0  0
   -0.9506    1.0626    0.2914 C   0  0  0  0  0  0  0  0  0  0  0  0
   -0.7324   -1.2733   -0.2667 C   0  0  0  0  0  0  0  0  0  0  0  0
    0.4376    1.1925    0.2891 C   0  0  0  0  0  0  0  0  0  0  0  0
    0.6571   -1.1383   -0.2694 C   0  0  0  0  0  0  0  0  0  0  0  0
    3.4465    0.7833    1.2526 C   0  0  0  0  0  0  0  0  0  0  0  0
    3.3213    1.1863   -1.0863 C   0  0  0  0  0  0  0  0  0  0  0  0
    1.2633    0.0930    0.0087 C   0  0  0  0  0  0  0  0  0  0  0  0
    2.7724    0.2199   -0.0110 C   0  0  2  0  0  0  0  0  0  0  0  0
    4.7352    1.4083    0.7267 C   0  0  0  0  0  0  0  0  0  0  0  0
    5.7218    1.7197    1.3386 O   0  0  0  0  0  0  0  0  0  0  0  0
    4.6222    1.5933   -0.6233 O   0  0  0  0  0  0  0  0  0  0  0  0
   -2.6230   -0.2734    0.0161 H   0  0  0  0  0  0  0  0  0  0  0  0
   -1.5717    1.9269    0.5111 H   0  0  0  0  0  0  0  0  0  0  0  0
   -1.1805   -2.2393   -0.4831 H   0  0  0  0  0  0  0  0  0  0  0  0
    0.8790    2.1618    0.5103 H   0  0  0  0  0  0  0  0  0  0  0  0
    1.2809   -2.0019   -0.4890 H   0  0  0  0  0  0  0  0  0  0  0  0
    3.6651    0.0401    2.0223 H   0  0  0  0  0  0  0  0  0  0  0  0
    2.8463    1.5747    1.7193 H   0  0  0  0  0  0  0  0  0  0  0  0
    2.6902    2.0767   -1.1932 H   0  0  0  0  0  0  0  0  0  0  0  0
    3.4434    0.7206   -2.0668 H   0  0  0  0  0  0  0  0  0  0  0  0
    3.2009   -0.7703   -0.2075 H   0  0  0  0  0  0  0  0  0  0  0  0
  1 13  1  0  0  0  0
  1  2  2  0  0  0  0
  2 14  1  0  0  0  0
  3  1  1  0  0  0  0
  4  2  1  0  0  0  0
  4 16  1  0  0  0  0
  5  3  2  0  0  0  0
  5  8  1  0  0  0  0
  6 19  1  0  0  0  0
  6 18  1  0  0  0  0
  7 12  1  0  0  0  0
  7  9  1  0  0  0  0
  8  4  2  0  0  0  0
  9 22  1  6  0  0  0
  9  8  1  0  0  0  0
  9  6  1  0  0  0  0
 10  6  1  0  0  0  0
 10 11  2  0  0  0  0
 12 10  1  0  0  0  0
 15  3  1  0  0  0  0
 17  5  1  0  0  0  0
 20  7  1  0  0  0  0
 21  7  1  0  0  0  0
M  END
>  <HBA>
2

>  <HBD>
0

>  <TPSA>
26.3

>  <cid>
70515

>  <dipole>
4.75

>  <excitation_energy_1>
5.266

>  <excitation_energy_2>
5.537

>  <excitation_energy_3>
5.862

>  <excitation_energy_4>
6.149

>  <homo_energy>
-6.825

>  <homo_lumo_gap>
6.343

>  <logP>
1.717

>  <lumo_energy>
-0.482

>  <melting_point>
40.18

>  <molecular_refractivity>
45.0

>  <oscillator_strength_1>
0.0035

>  <oscillator_strength_2>
0.0116

>  <oscillator_strength_3>
0.045

>  <oscillator_strength_4>
0.0006

>  <open_babel_can_smiles>
O=C1OC[C@@H](C1)c1ccccc1

>  <mulliken_charges>
22
1   -0.128189
2   -0.129628
3   -0.126351
4   -0.190341
5   -0.191521
6   -0.383535
7   -0.034476
8   0.185672
9   -0.235222
10   0.614798
11   -0.454365
12   -0.445093
13   0.135102
14   0.135924
15   0.135445
16   0.128549
17   0.129989
18   0.188907
19   0.184163
20   0.157769
21   0.167052
22   0.155352

>  <lowdin_charges>
22
1   -0.152549
2   -0.151911
3   -0.151633
4   -0.168133
5   -0.166652
6   -0.313704
7   -0.129885
8   -0.006681
9   -0.137165
10   0.19413
11   -0.233035
12   -0.194043
13   0.15859
14   0.161398
15   0.160539
16   0.154721
17   0.157668
18   0.179362
19   0.17564
20   0.148844
21   0.159381
22   0.155118

$$$$

