PCCDB-ID:  10438
public computational chemistry database (PCCDB) project, http://pccdb.org

 24 23  0  0  0  0  0  0  0  0999 V2000
    0.4183    1.3124   -0.1459 C   0  0  0  0  0  0  0  0  0  0  0  0
    2.1406    3.1468   -0.4870 C   0  0  0  0  0  0  0  0  0  0  0  0
    7.4153    0.4729   -0.3113 C   0  0  0  0  0  0  0  0  0  0  0  0
    6.9334   -1.9937    0.0520 C   0  0  0  0  0  0  0  0  0  0  0  0
    2.8213    0.7192   -0.1811 C   0  0  0  0  0  0  0  0  0  0  0  0
    5.0408   -0.4076   -0.1174 C   0  0  0  0  0  0  0  0  0  0  0  0
    1.8757    1.6813   -0.2680 C   0  0  0  0  0  0  0  0  0  0  0  0
    6.3785   -0.6028   -0.1285 C   0  0  0  0  0  0  0  0  0  0  0  0
    4.2981    0.8717   -0.2721 C   0  0  0  0  0  0  0  0  0  0  0  0
    4.8550    1.9578   -0.4590 O   0  0  0  0  0  0  0  0  0  0  0  0
   -0.0467    1.8479    0.6933 H   0  0  0  0  0  0  0  0  0  0  0  0
    0.2700    0.2392    0.0060 H   0  0  0  0  0  0  0  0  0  0  0  0
   -0.1333    1.6137   -1.0471 H   0  0  0  0  0  0  0  0  0  0  0  0
    1.6639    3.4738   -1.4221 H   0  0  0  0  0  0  0  0  0  0  0  0
    3.2049    3.3668   -0.5303 H   0  0  0  0  0  0  0  0  0  0  0  0
    1.6734    3.7344    0.3157 H   0  0  0  0  0  0  0  0  0  0  0  0
    8.1323    0.4464    0.5210 H   0  0  0  0  0  0  0  0  0  0  0  0
    6.9685    1.4621   -0.3810 H   0  0  0  0  0  0  0  0  0  0  0  0
    7.9972    0.2750   -1.2229 H   0  0  0  0  0  0  0  0  0  0  0  0
    7.5653   -2.2721   -0.8026 H   0  0  0  0  0  0  0  0  0  0  0  0
    6.1470   -2.7467    0.1590 H   0  0  0  0  0  0  0  0  0  0  0  0
    7.5785   -2.0394    0.9402 H   0  0  0  0  0  0  0  0  0  0  0  0
    2.4754   -0.3007   -0.0223 H   0  0  0  0  0  0  0  0  0  0  0  0
    4.4144   -1.2865    0.0249 H   0  0  0  0  0  0  0  0  0  0  0  0
  1 12  1  0  0  0  0
  1 11  1  0  0  0  0
  2  7  1  0  0  0  0
  2 16  1  0  0  0  0
  3  8  1  0  0  0  0
  3 17  1  0  0  0  0
  4 21  1  0  0  0  0
  4 22  1  0  0  0  0
  5 23  1  0  0  0  0
  6 24  1  0  0  0  0
  7  5  2  0  0  0  0
  7  1  1  0  0  0  0
  8  6  2  0  0  0  0
  8  4  1  0  0  0  0
  9  5  1  0  0  0  0
  9  6  1  0  0  0  0
 10  9  2  0  0  0  0
 13  1  1  0  0  0  0
 14  2  1  0  0  0  0
 15  2  1  0  0  0  0
 18  3  1  0  0  0  0
 19  3  1  0  0  0  0
 20  4  1  0  0  0  0
M  END
>  <HBA>
1

>  <HBD>
0

>  <TPSA>
17.07

>  <cid>
10438

>  <dipole>
2.15

>  <excitation_energy_1>
3.137

>  <excitation_energy_2>
4.645

>  <excitation_energy_3>
4.891

>  <excitation_energy_4>
5.815

>  <homo_energy>
-6.196

>  <homo_lumo_gap>
4.577

>  <logP>
2.488

>  <lumo_energy>
-1.619

>  <melting_point>
19.26

>  <molecular_refractivity>
44.63

>  <oscillator_strength_1>
0.0

>  <oscillator_strength_2>
0.6779

>  <oscillator_strength_3>
0.0104

>  <oscillator_strength_4>
0.001

>  <open_babel_can_smiles>
O=C(C=C(C)C)C=C(C)C

>  <mulliken_charges>
24
1   -0.510945
2   -0.531252
3   -0.531017
4   -0.510992
5   -0.250748
6   -0.250597
7   0.206896
8   0.206795
9   0.444107
10   -0.50842
11   0.161447
12   0.157243
13   0.161431
14   0.153677
15   0.216794
16   0.150921
17   0.15036
18   0.216615
19   0.154302
20   0.161173
21   0.15721
22   0.161705
23   0.116643
24   0.116654

>  <lowdin_charges>
24
1   -0.441061
2   -0.45695
3   -0.456806
4   -0.442471
5   -0.237639
6   -0.238831
7   0.060613
8   0.059858
9   0.155051
10   -0.279659
11   0.162306
12   0.155362
13   0.161823
14   0.160418
15   0.187004
16   0.159313
17   0.158307
18   0.187738
19   0.160947
20   0.161849
21   0.157591
22   0.16186
23   0.150845
24   0.152534

$$$$

