PCCDB-ID:  61400
public computational chemistry database (PCCDB) project, http://pccdb.org

 24 24  0  0  0  0  0  0  0  0999 V2000
    1.1893   -0.2731   -0.8371 C   0  0  0  0  0  0  0  0  0  0  0  0
    6.1387   -0.5575    4.8847 C   0  0  0  0  0  0  0  0  0  0  0  0
    4.4015   -4.0083    2.9283 C   0  0  0  0  0  0  0  0  0  0  0  0
    2.1463    0.3858   -0.1707 C   0  0  0  0  0  0  0  0  0  0  0  0
    3.8940    0.7541    1.5474 C   0  0  0  0  0  0  0  0  0  0  0  0
    4.6734    0.3485    2.6333 C   0  0  0  0  0  0  0  0  0  0  0  0
    2.8101   -1.3875    1.5099 C   0  0  0  0  0  0  0  0  0  0  0  0
    2.9442   -0.0945    0.9663 C   0  0  0  0  0  0  0  0  0  0  0  0
    4.5198   -0.9311    3.1703 C   0  0  0  0  0  0  0  0  0  0  0  0
    3.5748   -1.8098    2.5862 C   0  0  0  0  0  0  0  0  0  0  0  0
    5.2128   -1.4186    4.2404 O   0  0  0  0  0  0  0  0  0  0  0  0
    3.3477   -3.0606    3.1097 O   0  0  0  0  0  0  0  0  0  0  0  0
    0.6656    0.1925   -1.6662 H   0  0  0  0  0  0  0  0  0  0  0  0
    0.8892   -1.2875   -0.5882 H   0  0  0  0  0  0  0  0  0  0  0  0
    6.5512   -1.1315    5.7163 H   0  0  0  0  0  0  0  0  0  0  0  0
    5.6456    0.3428    5.2734 H   0  0  0  0  0  0  0  0  0  0  0  0
    6.9519   -0.2601    4.2093 H   0  0  0  0  0  0  0  0  0  0  0  0
    5.3150   -3.6982    3.4451 H   0  0  0  0  0  0  0  0  0  0  0  0
    4.6148   -4.1556    1.8608 H   0  0  0  0  0  0  0  0  0  0  0  0
    4.0402   -4.9464    3.3563 H   0  0  0  0  0  0  0  0  0  0  0  0
    2.3824    1.4023   -0.4869 H   0  0  0  0  0  0  0  0  0  0  0  0
    4.0282    1.7569    1.1492 H   0  0  0  0  0  0  0  0  0  0  0  0
    5.3917    1.0404    3.0583 H   0  0  0  0  0  0  0  0  0  0  0  0
    2.0927   -2.0946    1.1059 H   0  0  0  0  0  0  0  0  0  0  0  0
  1 14  1  0  0  0  0
  1  4  2  0  0  0  0
  2 16  1  0  0  0  0
  2 15  1  0  0  0  0
  3 12  1  0  0  0  0
  3 20  1  0  0  0  0
  3 18  1  0  0  0  0
  4  8  1  0  0  0  0
  5  6  2  0  0  0  0
  6 23  1  0  0  0  0
  6  9  1  0  0  0  0
  7 10  1  0  0  0  0
  8  7  2  0  0  0  0
  8  5  1  0  0  0  0
  9 11  1  0  0  0  0
 10 12  1  0  0  0  0
 10  9  2  0  0  0  0
 11  2  1  0  0  0  0
 13  1  1  0  0  0  0
 17  2  1  0  0  0  0
 19  3  1  0  0  0  0
 21  4  1  0  0  0  0
 22  5  1  0  0  0  0
 24  7  1  0  0  0  0
M  END
>  <HBA>
2

>  <HBD>
0

>  <TPSA>
18.46

>  <cid>
61400

>  <dipole>
2.49

>  <excitation_energy_1>
4.425

>  <excitation_energy_2>
4.772

>  <excitation_energy_3>
5.135

>  <excitation_energy_4>
5.36

>  <homo_energy>
-5.478

>  <homo_lumo_gap>
4.904

>  <logP>
2.347

>  <lumo_energy>
-0.574

>  <melting_point>
8.67

>  <molecular_refractivity>
49.52

>  <oscillator_strength_1>
0.2429

>  <oscillator_strength_2>
0.256

>  <oscillator_strength_3>
0.0068

>  <oscillator_strength_4>
0.1031

>  <open_babel_can_smiles>
COc1cc(C=C)ccc1OC

>  <mulliken_charges>
24
1   -0.353999
2   -0.215961
3   -0.210154
4   -0.119711
5   -0.208315
6   -0.204278
7   -0.242073
8   0.176775
9   0.347385
10   0.318723
11   -0.505139
12   -0.520825
13   0.140607
14   0.140765
15   0.171476
16   0.156153
17   0.152546
18   0.160471
19   0.138692
20   0.158173
21   0.123526
22   0.126702
23   0.133785
24   0.134675

>  <lowdin_charges>
24
1   -0.340703
2   -0.279512
3   -0.274279
4   -0.144032
5   -0.159459
6   -0.211985
7   -0.169234
8   -0.015813
9   0.079572
10   0.072788
11   -0.190768
12   -0.224238
13   0.162201
14   0.155136
15   0.164663
16   0.148325
17   0.146169
18   0.148762
19   0.136669
20   0.155856
21   0.151672
22   0.155885
23   0.164314
24   0.168011

$$$$

