PCCDB-ID:  6595
public computational chemistry database (PCCDB) project, http://pccdb.org

 13 12  0  0  0  0  0  0  0  0999 V2000
    0.9224    0.0498   -0.1291 C   0  0  0  0  0  0  0  0  0  0  0  0
    3.0922    0.7479   -1.1458 C   0  0  0  0  0  0  0  0  0  0  0  0
    2.2628    0.0614   -0.0887 C   0  0  0  0  0  0  0  0  0  0  0  0
    3.0020   -0.5777    1.0500 C   0  0  0  0  0  0  0  0  0  0  0  0
    4.1489   -0.2507    1.4946 N   0  0  0  0  0  0  0  0  0  0  0  0
    2.3597   -1.5983    1.6874 O   0  0  0  0  0  0  0  0  0  0  0  0
    0.3764    0.5206   -0.9416 H   0  0  0  0  0  0  0  0  0  0  0  0
    0.3199   -0.3873    0.6628 H   0  0  0  0  0  0  0  0  0  0  0  0
    2.4630    1.1020   -1.9667 H   0  0  0  0  0  0  0  0  0  0  0  0
    3.8553    0.0754   -1.5547 H   0  0  0  0  0  0  0  0  0  0  0  0
    3.6187    1.6195   -0.7352 H   0  0  0  0  0  0  0  0  0  0  0  0
    4.5139    0.5513    0.9801 H   0  0  0  0  0  0  0  0  0  0  0  0
    1.6511   -1.9235    1.1110 H   0  0  0  0  0  0  0  0  0  0  0  0
  1  3  2  0  0  0  0
  1  8  1  0  0  0  0
  2 11  1  0  0  0  0
  2  3  1  0  0  0  0
  3  4  1  0  0  0  0
  4  5  2  0  0  0  0
  4  6  1  0  0  0  0
  7  1  1  0  0  0  0
  9  2  1  0  0  0  0
 10  2  1  0  0  0  0
 12  5  1  0  0  0  0
 13  6  1  0  0  0  0
M  END
>  <HBA>
2

>  <HBD>
1

>  <TPSA>
43.09

>  <cid>
6595

>  <dipole>
4.23

>  <excitation_energy_1>
4.956

>  <excitation_energy_2>
5.599

>  <excitation_energy_3>
6.269

>  <excitation_energy_4>
6.364

>  <homo_energy>
-7.042

>  <homo_lumo_gap>
6.057

>  <logP>
0.748

>  <lumo_energy>
-0.985

>  <melting_point>
33.23

>  <molecular_refractivity>
23.78

>  <oscillator_strength_1>
0.0044

>  <oscillator_strength_2>
0.1843

>  <oscillator_strength_3>
0.092

>  <oscillator_strength_4>
0.0701

>  <open_babel_can_smiles>
CC(=C)C(=N)O

>  <mulliken_charges>
13
1   -0.409188
2   -0.52917
3   0.159612
4   0.426511
5   -0.57779
6   -0.57841
7   0.155303
8   0.154727
9   0.163576
10   0.175581
11   0.169165
12   0.287465
13   0.402617

>  <lowdin_charges>
13
1   -0.341155
2   -0.44459
3   -0.029101
4   0.120598
5   -0.384483
6   -0.364365
7   0.167692
8   0.164639
9   0.165022
10   0.168021
11   0.16433
12   0.25807
13   0.355321

$$$$

