PCCDB-ID:  69319
public computational chemistry database (PCCDB) project, http://pccdb.org

 14 14  0  0  0  0  0  0  0  0999 V2000
   -1.4453   -0.2016    0.1717 C   0  0  0  0  0  0  0  0  0  0  0  0
   -0.8393    1.0398    0.3809 C   0  0  0  0  0  0  0  0  0  0  0  0
   -0.6629   -1.2944   -0.2067 C   0  0  0  0  0  0  0  0  0  0  0  0
    0.5351    1.1914    0.2152 C   0  0  0  0  0  0  0  0  0  0  0  0
    0.7139   -1.1564   -0.3762 C   0  0  0  0  0  0  0  0  0  0  0  0
    1.3142    0.0919   -0.1639 C   0  0  0  0  0  0  0  0  0  0  0  0
    4.2259   -1.3706   -0.9469 N   0  0  0  0  0  0  0  0  0  0  0  0
    2.7066    0.3381   -0.3099 N   0  0  0  0  0  0  0  0  0  0  0  0
    3.4390   -0.6005   -0.6452 N   0  0  0  0  0  0  0  0  0  0  0  0
   -2.5177   -0.3157    0.2996 H   0  0  0  0  0  0  0  0  0  0  0  0
   -1.4390    1.8966    0.6754 H   0  0  0  0  0  0  0  0  0  0  0  0
   -1.1239   -2.2642   -0.3728 H   0  0  0  0  0  0  0  0  0  0  0  0
    1.0209    2.1487    0.3743 H   0  0  0  0  0  0  0  0  0  0  0  0
    1.3164   -2.0113   -0.6711 H   0  0  0  0  0  0  0  0  0  0  0  0
  1 10  1  0  0  0  0
  1  2  2  0  0  0  0
  2 11  1  0  0  0  0
  3  1  1  0  0  0  0
  4 13  1  0  0  0  0
  4  2  1  0  0  0  0
  5  3  2  0  0  0  0
  5  6  1  0  0  0  0
  6  4  2  0  0  0  0
  7  9  2  0  0  0  0
  8  6  1  0  0  0  0
  9  8  2  0  0  0  0
 12  3  1  0  0  0  0
 14  5  1  0  0  0  0
M  RAD  1   7   2
M  END
>  <HBA>
1

>  <HBD>
0

>  <TPSA>
49.75

>  <cid>
69319

>  <dipole>
1.95

>  <excitation_energy_1>
3.739

>  <excitation_energy_2>
4.771

>  <excitation_energy_3>
4.969

>  <excitation_energy_4>
5.181

>  <homo_energy>
-6.204

>  <homo_lumo_gap>
5.167

>  <logP>
2.081

>  <lumo_energy>
-1.037

>  <melting_point>
58.28

>  <molecular_refractivity>
31.98

>  <oscillator_strength_1>
0.0002

>  <oscillator_strength_2>
0.1322

>  <oscillator_strength_3>
0.1436

>  <oscillator_strength_4>
0.0

>  <open_babel_can_smiles>
[N]=[N]=Nc1ccccc1

>  <mulliken_charges>
14
1   -0.124654
2   -0.13796
3   -0.141739
4   -0.148042
5   -0.155645
6   0.29177
7   -0.249681
8   -0.466208
9   0.43342
10   0.134399
11   0.138193
12   0.13911
13   0.147192
14   0.139844

>  <lowdin_charges>
14
1   -0.161287
2   -0.146863
3   -0.143534
4   -0.16456
5   -0.188744
6   0.048366
7   -0.093636
8   -0.168459
9   0.1999
10   0.159228
11   0.163316
12   0.162228
13   0.170224
14   0.163822

$$$$

