PCCDB-ID:  47176
public computational chemistry database (PCCDB) project, http://pccdb.org

 35 35  0  0  1  0  0  0  0  0999 V2000
    7.9922    0.1953   -1.0495 C   0  0  0  0  0  0  0  0  0  0  0  0
    3.8743   -1.2939    3.8659 C   0  0  0  0  0  0  0  0  0  0  0  0
    5.1308   -0.1260    5.7193 C   0  0  0  0  0  0  0  0  0  0  0  0
    6.4146    2.3940    0.5291 C   0  0  0  0  0  0  0  0  0  0  0  0
    6.9645   -0.0190    0.0241 C   0  0  0  0  0  0  0  0  0  0  0  0
    5.2938    0.4239    1.7824 C   0  0  0  0  0  0  0  0  0  0  0  0
    4.6285   -0.0170    4.2696 C   0  0  0  0  0  0  0  0  0  0  0  0
    6.2876    0.9011    0.7321 C   0  0  0  0  0  0  0  0  0  0  0  0
    6.2541    1.8171    3.6983 C   0  0  0  0  0  0  0  0  0  0  0  0
    6.9937   -0.4822    3.4022 C   0  0  0  0  0  0  0  0  0  0  0  0
    8.3966    1.1460    4.2947 C   0  0  0  0  0  0  0  0  0  0  0  0
    5.7874    0.4242    3.2764 C   0  0  2  0  0  0  0  0  0  0  0  0
    7.4015    2.1423    4.1489 N   0  0  0  0  0  0  0  0  0  0  0  0
    8.1484   -0.1826    3.8542 N   0  0  0  0  0  0  0  0  0  0  0  0
    5.3435    2.8125    3.6063 O   0  0  0  0  0  0  0  0  0  0  0  0
    6.7740   -1.7434    2.9783 O   0  0  0  0  0  0  0  0  0  0  0  0
    9.4669    1.4221    4.7875 O   0  0  0  0  0  0  0  0  0  0  0  0
    7.6951   -0.3124   -1.9771 H   0  0  0  0  0  0  0  0  0  0  0  0
    8.9547   -0.2410   -0.7502 H   0  0  0  0  0  0  0  0  0  0  0  0
    8.1661    1.2485   -1.2816 H   0  0  0  0  0  0  0  0  0  0  0  0
    3.0885   -1.4870    4.6047 H   0  0  0  0  0  0  0  0  0  0  0  0
    4.5362   -2.1630    3.8396 H   0  0  0  0  0  0  0  0  0  0  0  0
    3.3874   -1.2046    2.8903 H   0  0  0  0  0  0  0  0  0  0  0  0
    4.2848   -0.3017    6.3918 H   0  0  0  0  0  0  0  0  0  0  0  0
    5.6388    0.7840    6.0542 H   0  0  0  0  0  0  0  0  0  0  0  0
    5.8264   -0.9647    5.8369 H   0  0  0  0  0  0  0  0  0  0  0  0
    6.9913    2.6399   -0.3648 H   0  0  0  0  0  0  0  0  0  0  0  0
    6.9005    2.8907    1.3766 H   0  0  0  0  0  0  0  0  0  0  0  0
    5.4238    2.8554    0.4176 H   0  0  0  0  0  0  0  0  0  0  0  0
    6.7687   -1.0668    0.2546 H   0  0  0  0  0  0  0  0  0  0  0  0
    4.9987   -0.6008    1.5519 H   0  0  0  0  0  0  0  0  0  0  0  0
    4.3725    1.0250    1.7254 H   0  0  0  0  0  0  0  0  0  0  0  0
    3.8969    0.8035    4.2406 H   0  0  0  0  0  0  0  0  0  0  0  0
    4.5245    2.4792    3.2070 H   0  0  0  0  0  0  0  0  0  0  0  0
    7.6241   -2.2095    3.1088 H   0  0  0  0  0  0  0  0  0  0  0  0
  1 19  1  0  0  0  0
  1  5  1  0  0  0  0
  2  7  1  0  0  0  0
  2 21  1  0  0  0  0
  3 26  1  0  0  0  0
  3 25  1  0  0  0  0
  3 24  1  0  0  0  0
  4  8  1  0  0  0  0
  4 28  1  0  0  0  0
  5 30  1  0  0  0  0
  5  8  2  0  0  0  0
  7  3  1  0  0  0  0
  8  6  1  0  0  0  0
  9 13  2  0  0  0  0
 10 14  2  0  0  0  0
 11 17  2  0  0  0  0
 12  6  1  6  0  0  0
 12 10  1  0  0  0  0
 12  9  1  0  0  0  0
 12  7  1  0  0  0  0
 13 11  2  0  0  0  0
 14 11  1  0  0  0  0
 15  9  1  0  0  0  0
 16 35  1  0  0  0  0
 16 10  1  0  0  0  0
 18  1  1  0  0  0  0
 20  1  1  0  0  0  0
 22  2  1  0  0  0  0
 23  2  1  0  0  0  0
 27  4  1  0  0  0  0
 29  4  1  0  0  0  0
 31  6  1  0  0  0  0
 32  6  1  0  0  0  0
 33  7  1  0  0  0  0
 34 15  1  0  0  0  0
M  END
>  <HBA>
5

>  <HBD>
2

>  <TPSA>
75.27

>  <cid>
47176

>  <dipole>
7.6

>  <excitation_energy_1>
4.046

>  <excitation_energy_2>
4.27

>  <excitation_energy_3>
4.4

>  <excitation_energy_4>
5.334

>  <homo_energy>
-6.713

>  <homo_lumo_gap>
5.265

>  <logP>
2.009

>  <lumo_energy>
-1.448

>  <melting_point>
152.79

>  <molecular_refractivity>
71.37

>  <oscillator_strength_1>
0.0001

>  <oscillator_strength_2>
0.0007

>  <oscillator_strength_3>
0.0041

>  <oscillator_strength_4>
0.0005

>  <open_babel_can_smiles>
C/C=C(/C[C@@]1(C(C)C)C(=N[C](=[N]=C1O)=O)O)\C

>  <mulliken_charges>
35
1   -0.491573
2   -0.45733
3   -0.473654
4   -0.536765
5   -0.150885
6   -0.379588
7   -0.084945
8   0.181853
9   0.557185
10   0.57394
11   0.623499
12   -0.094641
13   -0.482893
14   -0.522096
15   -0.583725
16   -0.601765
17   -0.438978
18   0.157785
19   0.166681
20   0.15986
21   0.151939
22   0.176101
23   0.149232
24   0.156556
25   0.176942
26   0.16479
27   0.16109
28   0.195193
29   0.142998
30   0.12793
31   0.18977
32   0.125533
33   0.120511
34   0.41835
35   0.421099

>  <lowdin_charges>
35
1   -0.442273
2   -0.452764
3   -0.454478
4   -0.453777
5   -0.167494
6   -0.269685
7   -0.114076
8   -0.030008
9   0.150818
10   0.156743
11   0.172269
12   -0.048349
13   -0.19096
14   -0.219641
15   -0.329048
16   -0.340437
17   -0.215304
18   0.159407
19   0.164189
20   0.156473
21   0.157721
22   0.164265
23   0.151613
24   0.159735
25   0.165446
26   0.159038
27   0.161598
28   0.175366
29   0.150411
30   0.149627
31   0.172361
32   0.138952
33   0.136915
34   0.357342
35   0.368005

$$$$

