PCCDB-ID:  66021
public computational chemistry database (PCCDB) project, http://pccdb.org

 24 23  0  0  1  0  0  0  0  0999 V2000
    6.1817    3.5781    1.2111 C   0  0  0  0  0  0  0  0  0  0  0  0
    8.2256   -1.7457    3.7870 C   0  0  0  0  0  0  0  0  0  0  0  0
    3.8005   -1.2199    3.5229 C   0  0  0  0  0  0  0  0  0  0  0  0
    4.5865    0.2647    1.6266 C   0  0  0  0  0  0  0  0  0  0  0  0
    5.1865    2.5600    1.7136 C   0  0  0  0  0  0  0  0  0  0  0  0
    6.9438   -0.9825    4.0288 C   0  0  0  0  0  0  0  0  0  0  0  0
    4.8970   -0.2723    3.0138 C   0  0  2  0  0  0  0  0  0  0  0  0
    2.5311   -0.5889    3.5737 O   0  0  0  0  0  0  0  0  0  0  0  0
    4.2435    2.7936    2.4383 O   0  0  0  0  0  0  0  0  0  0  0  0
    6.6636   -0.4138    5.0613 O   0  0  0  0  0  0  0  0  0  0  0  0
    5.4855    1.3237    1.2413 O   0  0  0  0  0  0  0  0  0  0  0  0
    6.1438   -1.0032    2.9330 O   0  0  0  0  0  0  0  0  0  0  0  0
    5.9293    4.5606    1.6109 H   0  0  0  0  0  0  0  0  0  0  0  0
    6.1705    3.6063    0.1166 H   0  0  0  0  0  0  0  0  0  0  0  0
    7.1942    3.2983    1.5197 H   0  0  0  0  0  0  0  0  0  0  0  0
    8.3709   -2.4657    4.5976 H   0  0  0  0  0  0  0  0  0  0  0  0
    9.0652   -1.0432    3.8208 H   0  0  0  0  0  0  0  0  0  0  0  0
    8.2208   -2.2594    2.8247 H   0  0  0  0  0  0  0  0  0  0  0  0
    4.1060   -1.6154    4.5018 H   0  0  0  0  0  0  0  0  0  0  0  0
    3.6932   -2.0655    2.8355 H   0  0  0  0  0  0  0  0  0  0  0  0
    3.5564    0.6242    1.6104 H   0  0  0  0  0  0  0  0  0  0  0  0
    4.7268   -0.5147    0.8741 H   0  0  0  0  0  0  0  0  0  0  0  0
    5.0220    0.5522    3.7203 H   0  0  0  0  0  0  0  0  0  0  0  0
    2.5849    0.1429    4.2093 H   0  0  0  0  0  0  0  0  0  0  0  0
  1 15  1  0  0  0  0
  1 13  1  0  0  0  0
  1  5  1  0  0  0  0
  2 17  1  0  0  0  0
  2  6  1  0  0  0  0
  2 16  1  0  0  0  0
  3  8  1  0  0  0  0
  3 19  1  0  0  0  0
  4  7  1  0  0  0  0
  5  9  2  0  0  0  0
  6 10  2  0  0  0  0
  7  3  1  0  0  0  0
  7 23  1  1  0  0  0
  8 24  1  0  0  0  0
 11  4  1  0  0  0  0
 11  5  1  0  0  0  0
 12  7  1  0  0  0  0
 12  6  1  0  0  0  0
 14  1  1  0  0  0  0
 18  2  1  0  0  0  0
 20  3  1  0  0  0  0
 21  4  1  0  0  0  0
 22  4  1  0  0  0  0
M  END
>  <HBA>
5

>  <HBD>
1

>  <TPSA>
72.83

>  <cid>
66021

>  <dipole>
2.88

>  <excitation_energy_1>
5.798

>  <excitation_energy_2>
5.816

>  <excitation_energy_3>
6.708

>  <excitation_energy_4>
6.807

>  <homo_energy>
-7.347

>  <homo_lumo_gap>
7.505

>  <logP>
-0.526

>  <lumo_energy>
0.158

>  <melting_point>
16.27

>  <molecular_refractivity>
39.49

>  <oscillator_strength_1>
0.0009

>  <oscillator_strength_2>
0.0008

>  <oscillator_strength_3>
0.0094

>  <oscillator_strength_4>
0.0394

>  <open_babel_can_smiles>
OC[C@@H](OC(=O)C)COC(=O)C

>  <mulliken_charges>
24
1   -0.523374
2   -0.533255
3   -0.054822
4   -0.050937
5   0.601945
6   0.613209
7   0.06115
8   -0.606182
9   -0.471411
10   -0.466374
11   -0.45378
12   -0.467708
13   0.18463
14   0.183934
15   0.183683
16   0.187994
17   0.189337
18   0.178539
19   0.151919
20   0.1536
21   0.190114
22   0.162017
23   0.181959
24   0.403813

>  <lowdin_charges>
24
1   -0.460453
2   -0.466408
3   -0.145273
4   -0.141838
5   0.20276
6   0.202138
7   -0.030979
8   -0.455717
9   -0.268103
10   -0.269204
11   -0.194723
12   -0.191314
13   0.176563
14   0.17727
15   0.178402
16   0.181588
17   0.183214
18   0.17214
19   0.145823
20   0.151963
21   0.171944
22   0.162243
23   0.165801
24   0.352162

$$$$

