PCCDB-ID:  69217
public computational chemistry database (PCCDB) project, http://pccdb.org

 14 14  0  0  0  0  0  0  0  0999 V2000
    1.1104    0.0241    0.4391 C   0  0  0  0  0  0  0  0  0  0  0  0
    3.2613    1.2410   -0.2167 C   0  0  0  0  0  0  0  0  0  0  0  0
    4.6224    0.6063   -0.4505 C   0  0  0  0  0  0  0  0  0  0  0  0
    3.3347   -1.0680    0.0610 C   0  0  0  0  0  0  0  0  0  0  0  0
    4.6643   -0.6604   -0.2989 N   0  0  0  0  0  0  0  0  0  0  0  0
    2.5148    0.0582    0.1068 N   0  0  0  0  0  0  0  0  0  0  0  0
    5.7010    1.3246   -0.7916 O   0  0  0  0  0  0  0  0  0  0  0  0
    2.9808   -2.2037    0.2882 O   0  0  0  0  0  0  0  0  0  0  0  0
    0.8929    0.6237    1.3331 H   0  0  0  0  0  0  0  0  0  0  0  0
    0.8538   -1.0182    0.6386 H   0  0  0  0  0  0  0  0  0  0  0  0
    0.4903    0.3928   -0.3891 H   0  0  0  0  0  0  0  0  0  0  0  0
    2.8923    1.7569   -1.1183 H   0  0  0  0  0  0  0  0  0  0  0  0
    3.2901    1.9762    0.6043 H   0  0  0  0  0  0  0  0  0  0  0  0
    5.4667    2.2643   -0.8573 H   0  0  0  0  0  0  0  0  0  0  0  0
  1 10  1  0  0  0  0
  1  9  1  0  0  0  0
  2  6  1  0  0  0  0
  2 13  1  0  0  0  0
  3  5  2  0  0  0  0
  3  2  1  0  0  0  0
  4  6  1  0  0  0  0
  4  8  2  0  0  0  0
  5  4  1  0  0  0  0
  6  1  1  0  0  0  0
  7  3  1  0  0  0  0
 11  1  1  0  0  0  0
 12  2  1  0  0  0  0
 14  7  1  0  0  0  0
M  END
>  <HBA>
4

>  <HBD>
1

>  <TPSA>
49.41

>  <cid>
69217

>  <dipole>
7.2

>  <excitation_energy_1>
5.062

>  <excitation_energy_2>
5.169

>  <excitation_energy_3>
5.38

>  <excitation_energy_4>
5.75

>  <homo_energy>
-6.748

>  <homo_lumo_gap>
6.044

>  <logP>
-0.565

>  <lumo_energy>
-0.705

>  <melting_point>
80.27

>  <molecular_refractivity>
33.54

>  <oscillator_strength_1>
0.0002

>  <oscillator_strength_2>
0.0463

>  <oscillator_strength_3>
0.005

>  <oscillator_strength_4>
0.0004

>  <open_babel_can_smiles>
OC1=NC(=O)N(C1)C

>  <mulliken_charges>
14
1   -0.317495
2   -0.200333
3   0.511778
4   0.708602
5   -0.470183
6   -0.443973
7   -0.566686
8   -0.500664
9   0.153595
10   0.205164
11   0.15379
12   0.17324
13   0.173136
14   0.420028

>  <lowdin_charges>
14
1   -0.349869
2   -0.229417
3   0.134997
4   0.173709
5   -0.186211
6   -0.129611
7   -0.316262
8   -0.270674
9   0.149138
10   0.185248
11   0.149913
12   0.161076
13   0.161275
14   0.366688

$$$$

