PCCDB-ID:  10273
public computational chemistry database (PCCDB) project, http://pccdb.org

 17 17  0  0  0  0  0  0  0  0999 V2000
   -0.6920    1.1739    0.0322 C   0  0  0  0  0  0  0  0  0  0  0  0
   -1.2645   -0.0875    0.1493 C   0  0  0  0  0  0  0  0  0  0  0  0
    0.7811   -1.0899    0.1626 C   0  0  0  0  0  0  0  0  0  0  0  0
    0.7033    1.2984   -0.0530 C   0  0  0  0  0  0  0  0  0  0  0  0
    1.4863    0.1211    0.0181 C   0  0  0  0  0  0  0  0  0  0  0  0
    1.2432    2.6799   -0.2375 C   0  0  0  0  0  0  0  0  0  0  0  0
    3.0030   -0.0711    0.0323 C   0  0  0  0  0  0  0  0  0  0  0  0
   -0.5458   -1.2136    0.2115 N   0  0  0  0  0  0  0  0  0  0  0  0
    0.3976    3.6332    0.1861 O   0  0  0  0  0  0  0  0  0  0  0  0
    2.3152    2.9781   -0.7453 O   0  0  0  0  0  0  0  0  0  0  0  0
    3.4639   -1.0791    0.5239 O   0  0  0  0  0  0  0  0  0  0  0  0
    3.7950    0.8375   -0.5339 O   0  0  0  0  0  0  0  0  0  0  0  0
   -1.3184    2.0565   -0.0015 H   0  0  0  0  0  0  0  0  0  0  0  0
   -2.3456   -0.1983    0.2005 H   0  0  0  0  0  0  0  0  0  0  0  0
    1.3604   -2.0038    0.2445 H   0  0  0  0  0  0  0  0  0  0  0  0
    0.8218    4.4896   -0.0142 H   0  0  0  0  0  0  0  0  0  0  0  0
    3.2932    1.6362   -0.8257 H   0  0  0  0  0  0  0  0  0  0  0  0
  1  2  2  0  0  0  0
  2 14  1  0  0  0  0
  2  8  1  0  0  0  0
  3  8  2  0  0  0  0
  3 15  1  0  0  0  0
  4  5  2  0  0  0  0
  4  1  1  0  0  0  0
  5  7  1  0  0  0  0
  5  3  1  0  0  0  0
  6  4  1  0  0  0  0
  6  9  1  0  0  0  0
  7 11  2  0  0  0  0
 10  6  2  0  0  0  0
 12  7  1  0  0  0  0
 13  1  1  0  0  0  0
 16  9  1  0  0  0  0
 17 12  1  0  0  0  0
M  END
>  <HBA>
5

>  <HBD>
2

>  <TPSA>
87.49

>  <cid>
10273

>  <dipole>
6.53

>  <excitation_energy_1>
3.623

>  <excitation_energy_2>
3.979

>  <excitation_energy_3>
4.51

>  <excitation_energy_4>
4.661

>  <homo_energy>
-7.309

>  <homo_lumo_gap>
4.596

>  <logP>
0.478

>  <lumo_energy>
-2.713

>  <melting_point>
202.48

>  <molecular_refractivity>
38.16

>  <oscillator_strength_1>
0.0041

>  <oscillator_strength_2>
0.0138

>  <oscillator_strength_3>
0.0619

>  <oscillator_strength_4>
0.0048

>  <open_babel_can_smiles>
OC(=O)c1cnccc1C(=O)O

>  <mulliken_charges>
17
1   -0.168657
2   0.050141
3   0.025282
4   0.044295
5   -0.024173
6   0.569686
7   0.566839
8   -0.393287
9   -0.55213
10   -0.496751
11   -0.449007
12   -0.592419
13   0.176707
14   0.161833
15   0.19864
16   0.430828
17   0.452172

>  <lowdin_charges>
17
1   -0.156191
2   -0.072582
3   -0.062357
4   -0.028899
5   -0.052199
6   0.213568
7   0.188697
8   -0.120904
9   -0.322495
10   -0.269272
11   -0.248828
12   -0.348386
13   0.184334
14   0.165318
15   0.188617
16   0.375819
17   0.36576

$$$$

