PCCDB-ID:  56020
public computational chemistry database (PCCDB) project, http://pccdb.org

 14 14  0  0  1  0  0  0  0  0999 V2000
    1.1206    0.2862    0.3895 C   0  0  0  0  0  0  0  0  0  0  0  0
   -0.8601    1.2279   -1.0215 C   0  0  0  0  0  0  0  0  0  0  0  0
    0.4807    1.3828   -0.4397 C   0  0  2  0  0  0  0  0  0  0  0  0
    2.5605   -0.0123   -0.0292 C   0  0  0  0  0  0  0  0  0  0  0  0
    3.5815   -0.0846    0.7230 N   0  0  0  0  0  0  0  0  0  0  0  0
    2.7155   -0.2666   -1.3515 O   0  0  0  0  0  0  0  0  0  0  0  0
    0.3098    1.0691   -1.8407 O   0  0  0  0  0  0  0  0  0  0  0  0
    0.5326   -0.6347    0.2745 H   0  0  0  0  0  0  0  0  0  0  0  0
    1.0928    0.5644    1.4481 H   0  0  0  0  0  0  0  0  0  0  0  0
   -1.4580    2.1080   -1.2532 H   0  0  0  0  0  0  0  0  0  0  0  0
   -1.4244    0.3152   -0.8316 H   0  0  0  0  0  0  0  0  0  0  0  0
    0.8586    2.3916   -0.2700 H   0  0  0  0  0  0  0  0  0  0  0  0
    3.3186    0.1156    1.6887 H   0  0  0  0  0  0  0  0  0  0  0  0
    1.8785   -0.0833   -1.8178 H   0  0  0  0  0  0  0  0  0  0  0  0
  1  9  1  0  0  0  0
  2 11  1  0  0  0  0
  2  3  1  0  0  0  0
  3 12  1  1  0  0  0
  3  1  1  0  0  0  0
  4  1  1  0  0  0  0
  4  5  2  0  0  0  0
  5 13  1  0  0  0  0
  6  4  1  0  0  0  0
  7  2  1  0  0  0  0
  7  3  1  0  0  0  0
  8  1  1  0  0  0  0
 10  2  1  0  0  0  0
 14  6  1  0  0  0  0
M  END
>  <HBA>
3

>  <HBD>
1

>  <TPSA>
55.62

>  <cid>
56020

>  <dipole>
5.74

>  <excitation_energy_1>
6.028

>  <excitation_energy_2>
6.467

>  <excitation_energy_3>
6.523

>  <excitation_energy_4>
6.783

>  <homo_energy>
-7.007

>  <homo_lumo_gap>
7.646

>  <logP>
-0.039

>  <lumo_energy>
0.639

>  <melting_point>
64.03

>  <molecular_refractivity>
23.22

>  <oscillator_strength_1>
0.0032

>  <oscillator_strength_2>
0.0182

>  <oscillator_strength_3>
0.0209

>  <oscillator_strength_4>
0.0043

>  <open_babel_can_smiles>
OC(=N)C[C@@H]1CO1

>  <mulliken_charges>
14
1   -0.391143
2   -0.108042
3   0.089526
4   0.488459
5   -0.583054
6   -0.59119
7   -0.456371
8   0.174423
9   0.160256
10   0.168288
11   0.163436
12   0.171709
13   0.27793
14   0.435772

>  <lowdin_charges>
14
1   -0.315261
2   -0.157567
3   -0.019431
4   0.124826
5   -0.397656
6   -0.368752
7   -0.297295
8   0.169191
9   0.165263
10   0.164965
11   0.159932
12   0.161377
13   0.252315
14   0.358092

$$$$

