PCCDB-ID:  25828
public computational chemistry database (PCCDB) project, http://pccdb.org

 15 15  0  0  0  0  0  0  0  0999 V2000
    1.0582    0.0873   -0.7106 C   0  0  0  0  0  0  0  0  0  0  0  0
    1.7775   -2.4746    2.5313 C   0  0  0  0  0  0  0  0  0  0  0  0
    1.4164   -1.2319    3.2507 C   0  0  0  0  0  0  0  0  0  0  0  0
    2.4359   -0.5686    1.0932 C   0  0  0  0  0  0  0  0  0  0  0  0
    2.3294    0.0437   -0.0101 N   0  0  0  0  0  0  0  0  0  0  0  0
    1.4037   -1.2617    1.7716 N   0  0  0  0  0  0  0  0  0  0  0  0
    3.6474   -0.5913    1.7291 O   0  0  0  0  0  0  0  0  0  0  0  0
    0.7632    1.1349   -0.8499 H   0  0  0  0  0  0  0  0  0  0  0  0
    0.2512   -0.4460   -0.1953 H   0  0  0  0  0  0  0  0  0  0  0  0
    1.1880   -0.3408   -1.7125 H   0  0  0  0  0  0  0  0  0  0  0  0
    1.0608   -3.2872    2.4423 H   0  0  0  0  0  0  0  0  0  0  0  0
    2.8241   -2.7656    2.5287 H   0  0  0  0  0  0  0  0  0  0  0  0
    2.2190   -0.6822    3.7342 H   0  0  0  0  0  0  0  0  0  0  0  0
    0.4313   -1.1203    3.6970 H   0  0  0  0  0  0  0  0  0  0  0  0
    4.2429   -0.0800    1.1522 H   0  0  0  0  0  0  0  0  0  0  0  0
  1  9  1  0  0  0  0
  1  5  1  0  0  0  0
  2  3  1  0  0  0  0
  3 14  1  0  0  0  0
  3 13  1  0  0  0  0
  4  7  1  0  0  0  0
  4  6  1  0  0  0  0
  5  4  2  0  0  0  0
  6  2  1  0  0  0  0
  6  3  1  0  0  0  0
  8  1  1  0  0  0  0
 10  1  1  0  0  0  0
 11  2  1  0  0  0  0
 12  2  1  0  0  0  0
 15  7  1  0  0  0  0
M  END
>  <HBA>
3

>  <HBD>
1

>  <TPSA>
32.11

>  <cid>
25828

>  <dipole>
1.41

>  <excitation_energy_1>
6.053

>  <excitation_energy_2>
6.269

>  <excitation_energy_3>
6.334

>  <excitation_energy_4>
6.431

>  <homo_energy>
-6.74

>  <homo_lumo_gap>
7.54

>  <logP>
-0.03

>  <lumo_energy>
0.8

>  <melting_point>
44.96

>  <molecular_refractivity>
29.43

>  <oscillator_strength_1>
0.0022

>  <oscillator_strength_2>
0.0001

>  <oscillator_strength_3>
0.0008

>  <oscillator_strength_4>
0.057

>  <open_babel_can_smiles>
C/N=C(\N1CC1)/O

>  <mulliken_charges>
15
1   -0.322447
2   -0.194349
3   -0.194582
4   0.632528
5   -0.460375
6   -0.426048
7   -0.607203
8   0.149856
9   0.162577
10   0.149905
11   0.166623
12   0.181796
13   0.181531
14   0.166639
15   0.413548

>  <lowdin_charges>
15
1   -0.356645
2   -0.225915
3   -0.225796
4   0.147165
5   -0.235434
6   -0.188649
7   -0.390538
8   0.148872
9   0.149757
10   0.149264
11   0.164396
12   0.16613
13   0.168474
14   0.16339
15   0.365528

$$$$

