PCCDB-ID:  36628
public computational chemistry database (PCCDB) project, http://pccdb.org

 21 21  0  0  0  0  0  0  0  0999 V2000
    1.1046   -0.8925   -0.3332 C   0  0  0  0  0  0  0  0  0  0  0  0
    8.4294   -2.2371    1.1163 C   0  0  0  0  0  0  0  0  0  0  0  0
    2.6334   -0.9647   -0.2838 C   0  0  0  0  0  0  0  0  0  0  0  0
    3.1887   -0.7902    1.1446 C   0  0  0  0  0  0  0  0  0  0  0  0
    6.9258   -0.1708    1.5024 C   0  0  0  0  0  0  0  0  0  0  0  0
    5.5467    0.2080    1.5146 C   0  0  0  0  0  0  0  0  0  0  0  0
    7.1318   -1.4917    1.2153 C   0  0  0  0  0  0  0  0  0  0  0  0
    4.6883   -0.8199    1.2362 C   0  0  0  0  0  0  0  0  0  0  0  0
    5.5967   -2.2947    0.9504 S   0  0  0  0  0  0  0  0  0  0  0  0
    0.7344   -1.0202   -1.3566 H   0  0  0  0  0  0  0  0  0  0  0  0
    0.7395    0.0742    0.0349 H   0  0  0  0  0  0  0  0  0  0  0  0
    0.6494   -1.6755    0.2858 H   0  0  0  0  0  0  0  0  0  0  0  0
    9.2624   -1.5556    1.3166 H   0  0  0  0  0  0  0  0  0  0  0  0
    8.5819   -2.6682    0.1190 H   0  0  0  0  0  0  0  0  0  0  0  0
    8.4885   -3.0599    1.8398 H   0  0  0  0  0  0  0  0  0  0  0  0
    3.0686   -0.1913   -0.9296 H   0  0  0  0  0  0  0  0  0  0  0  0
    2.9727   -1.9273   -0.6881 H   0  0  0  0  0  0  0  0  0  0  0  0
    2.7525   -1.5641    1.7927 H   0  0  0  0  0  0  0  0  0  0  0  0
    2.8488    0.1729    1.5482 H   0  0  0  0  0  0  0  0  0  0  0  0
    7.7406    0.5172    1.7071 H   0  0  0  0  0  0  0  0  0  0  0  0
    5.2020    1.2152    1.7292 H   0  0  0  0  0  0  0  0  0  0  0  0
  1  3  1  0  0  0  0
  1 11  1  0  0  0  0
  1 12  1  0  0  0  0
  2  7  1  0  0  0  0
  2 13  1  0  0  0  0
  2 15  1  0  0  0  0
  3  4  1  0  0  0  0
  4  8  1  0  0  0  0
  4 19  1  0  0  0  0
  4 18  1  0  0  0  0
  5  6  1  0  0  0  0
  5 20  1  0  0  0  0
  6 21  1  0  0  0  0
  7  5  2  0  0  0  0
  8  6  2  0  0  0  0
  9  7  1  0  0  0  0
  9  8  1  0  0  0  0
 10  1  1  0  0  0  0
 14  2  1  0  0  0  0
 16  3  1  0  0  0  0
 17  3  1  0  0  0  0
M  END
>  <HBA>
1

>  <HBD>
0

>  <TPSA>
28.24

>  <cid>
36628

>  <dipole>
0.48

>  <excitation_energy_1>
5.132

>  <excitation_energy_2>
5.246

>  <excitation_energy_3>
5.423

>  <excitation_energy_4>
5.611

>  <homo_energy>
-5.747

>  <homo_lumo_gap>
5.712

>  <logP>
3.009

>  <lumo_energy>
-0.035

>  <melting_point>
9.89

>  <molecular_refractivity>
43.87

>  <oscillator_strength_1>
0.1507

>  <oscillator_strength_2>
0.029

>  <oscillator_strength_3>
0.0078

>  <oscillator_strength_4>
0.0678

>  <open_babel_can_smiles>
CCCc1ccc(s1)C

>  <mulliken_charges>
21
1   -0.443634
2   -0.505683
3   -0.248037
4   -0.318997
5   -0.126301
6   -0.128961
7   -0.102337
8   -0.108449
9   0.205005
10   0.146519
11   0.142418
12   0.14335
13   0.16457
14   0.167934
15   0.167949
16   0.143168
17   0.145759
18   0.150156
19   0.148282
20   0.128588
21   0.1287

>  <lowdin_charges>
21
1   -0.445837
2   -0.43552
3   -0.272548
4   -0.269785
5   -0.200408
6   -0.198485
7   -0.152797
8   -0.151135
9   0.268532
10   0.151466
11   0.146727
12   0.148427
13   0.165296
14   0.162492
15   0.16342
16   0.147083
17   0.146446
18   0.153403
19   0.153918
20   0.160418
21   0.158887

$$$$

