PCCDB-ID:  22
public computational chemistry database (PCCDB) project, http://pccdb.org

 17 16  0  0  1  0  0  0  0  0999 V2000
    3.6681   -0.7139   -1.1789 C   0  0  0  0  0  0  0  0  0  0  0  0
    4.3376   -0.8979    1.8821 C   0  0  0  0  0  0  0  0  0  0  0  0
    2.7447   -0.3688   -0.0452 C   0  0  0  0  0  0  0  0  0  0  0  0
    4.0392    1.4850    1.1028 C   0  0  0  0  0  0  0  0  0  0  0  0
    3.3311    0.1118    1.3079 C   0  0  2  0  0  0  0  0  0  0  0  0
    1.5297   -0.4657   -0.1179 O   0  0  0  0  0  0  0  0  0  0  0  0
    5.0265    1.6222    0.4179 O   0  0  0  0  0  0  0  0  0  0  0  0
    3.4550    2.4842    1.7678 O   0  0  0  0  0  0  0  0  0  0  0  0
    2.2474    0.2908    2.2079 O   0  0  0  0  0  0  0  0  0  0  0  0
    4.1697   -1.6658   -0.9621 H   0  0  0  0  0  0  0  0  0  0  0  0
    4.4491    0.0448   -1.2819 H   0  0  0  0  0  0  0  0  0  0  0  0
    3.0916   -0.8207   -2.0997 H   0  0  0  0  0  0  0  0  0  0  0  0
    5.2383   -0.9428    1.2658 H   0  0  0  0  0  0  0  0  0  0  0  0
    3.8824   -1.8911    1.9472 H   0  0  0  0  0  0  0  0  0  0  0  0
    4.6203   -0.5845    2.8913 H   0  0  0  0  0  0  0  0  0  0  0  0
    2.6996    2.0707    2.2487 H   0  0  0  0  0  0  0  0  0  0  0  0
    1.4471    0.0743    1.6758 H   0  0  0  0  0  0  0  0  0  0  0  0
  1 10  1  0  0  0  0
  1  3  1  0  0  0  0
  2 14  1  0  0  0  0
  2 15  1  0  0  0  0
  4  5  1  0  0  0  0
  4  8  1  0  0  0  0
  5  3  1  6  0  0  0
  5  2  1  0  0  0  0
  5  9  1  0  0  0  0
  6  3  2  0  0  0  0
  7  4  2  0  0  0  0
  8 16  1  0  0  0  0
 11  1  1  0  0  0  0
 12  1  1  0  0  0  0
 13  2  1  0  0  0  0
 17  9  1  0  0  0  0
M  END
>  <HBA>
4

>  <HBD>
2

>  <TPSA>
74.6

>  <cid>
22

>  <dipole>
2.67

>  <excitation_energy_1>
4.617

>  <excitation_energy_2>
4.975

>  <excitation_energy_3>
5.975

>  <excitation_energy_4>
6.499

>  <homo_energy>
-7.374

>  <homo_lumo_gap>
5.91

>  <logP>
-0.589

>  <lumo_energy>
-1.464

>  <melting_point>
102.29

>  <molecular_refractivity>
29.32

>  <oscillator_strength_1>
0.0028

>  <oscillator_strength_2>
0.0162

>  <oscillator_strength_3>
0.0065

>  <oscillator_strength_4>
0.0108

>  <open_babel_can_smiles>
CC(=O)[C@@](C(=O)O)(O)C

>  <mulliken_charges>
17
1   -0.544389
2   -0.456443
3   0.445502
4   0.595895
5   0.137062
6   -0.453176
7   -0.458165
8   -0.567271
9   -0.684653
10   0.18704
11   0.221887
12   0.188063
13   0.180709
14   0.164523
15   0.179462
16   0.439002
17   0.424952

>  <lowdin_charges>
17
1   -0.472621
2   -0.438672
3   0.165824
4   0.173634
5   0.048766
6   -0.232365
7   -0.253106
8   -0.331614
9   -0.454372
10   0.183541
11   0.197388
12   0.179948
13   0.172712
14   0.161474
15   0.17151
16   0.369986
17   0.357968

$$$$

