PCCDB-ID:  8093
public computational chemistry database (PCCDB) project, http://pccdb.org

 25 24  0  0  0  0  0  0  0  0999 V2000
    1.0435   -0.1064   -0.4413 C   0  0  0  0  0  0  0  0  0  0  0  0
    6.9747   -4.3707    0.5221 C   0  0  0  0  0  0  0  0  0  0  0  0
    2.5631   -0.2062   -0.2742 C   0  0  0  0  0  0  0  0  0  0  0  0
    3.1807   -1.3774   -1.0490 C   0  0  0  0  0  0  0  0  0  0  0  0
    4.7015   -1.4869   -0.8819 C   0  0  0  0  0  0  0  0  0  0  0  0
    5.3119   -2.6553   -1.6674 C   0  0  0  0  0  0  0  0  0  0  0  0
    6.8461   -2.7676   -1.5240 C   0  0  0  0  0  0  0  0  0  0  0  0
    7.3108   -3.0197   -0.0929 C   0  0  0  0  0  0  0  0  0  0  0  0
    7.9200   -2.1736    0.5352 O   0  0  0  0  0  0  0  0  0  0  0  0
    0.6336    0.7391    0.1229 H   0  0  0  0  0  0  0  0  0  0  0  0
    0.5447   -1.0167   -0.0861 H   0  0  0  0  0  0  0  0  0  0  0  0
    0.7681    0.0311   -1.4943 H   0  0  0  0  0  0  0  0  0  0  0  0
    5.8880   -4.5034    0.5947 H   0  0  0  0  0  0  0  0  0  0  0  0
    7.4121   -4.4378    1.5201 H   0  0  0  0  0  0  0  0  0  0  0  0
    7.3522   -5.1883   -0.1044 H   0  0  0  0  0  0  0  0  0  0  0  0
    2.8087   -0.3085    0.7923 H   0  0  0  0  0  0  0  0  0  0  0  0
    3.0309    0.7320   -0.6044 H   0  0  0  0  0  0  0  0  0  0  0  0
    2.9378   -1.2737   -2.1172 H   0  0  0  0  0  0  0  0  0  0  0  0
    2.7094   -2.3165   -0.7214 H   0  0  0  0  0  0  0  0  0  0  0  0
    4.9442   -1.5880    0.1855 H   0  0  0  0  0  0  0  0  0  0  0  0
    5.1751   -0.5496   -1.2074 H   0  0  0  0  0  0  0  0  0  0  0  0
    5.0783   -2.5372   -2.7339 H   0  0  0  0  0  0  0  0  0  0  0  0
    4.8381   -3.5975   -1.3588 H   0  0  0  0  0  0  0  0  0  0  0  0
    7.3232   -1.8415   -1.8611 H   0  0  0  0  0  0  0  0  0  0  0  0
    7.2046   -3.5878   -2.1617 H   0  0  0  0  0  0  0  0  0  0  0  0
  1  3  1  0  0  0  0
  1 11  1  0  0  0  0
  1 10  1  0  0  0  0
  2 13  1  0  0  0  0
  2 14  1  0  0  0  0
  3 16  1  0  0  0  0
  4  5  1  0  0  0  0
  4 19  1  0  0  0  0
  4  3  1  0  0  0  0
  5 20  1  0  0  0  0
  6  7  1  0  0  0  0
  6 23  1  0  0  0  0
  6  5  1  0  0  0  0
  7  8  1  0  0  0  0
  8  2  1  0  0  0  0
  8  9  2  0  0  0  0
 12  1  1  0  0  0  0
 15  2  1  0  0  0  0
 17  3  1  0  0  0  0
 18  4  1  0  0  0  0
 21  5  1  0  0  0  0
 22  6  1  0  0  0  0
 24  7  1  0  0  0  0
 25  7  1  0  0  0  0
M  END
>  <HBA>
1

>  <HBD>
0

>  <TPSA>
17.07

>  <cid>
8093

>  <dipole>
2.75

>  <excitation_energy_1>
4.299

>  <excitation_energy_2>
6.062

>  <excitation_energy_3>
6.709

>  <excitation_energy_4>
6.758

>  <homo_energy>
-6.493

>  <homo_lumo_gap>
6.202

>  <logP>
2.546

>  <lumo_energy>
-0.291

>  <melting_point>
-6.5

>  <molecular_refractivity>
40.77

>  <oscillator_strength_1>
0.0002

>  <oscillator_strength_2>
0.0234

>  <oscillator_strength_3>
0.0158

>  <oscillator_strength_4>
0.0096

>  <open_babel_can_smiles>
CCCCCCC(=O)C

>  <mulliken_charges>
25
1   -0.441843
2   -0.533574
3   -0.247797
4   -0.246816
5   -0.254934
6   -0.27467
7   -0.337356
8   0.455697
9   -0.437936
10   0.143352
11   0.140806
12   0.141191
13   0.170785
14   0.179317
15   0.164209
16   0.133259
17   0.133006
18   0.127294
19   0.125024
20   0.141245
21   0.138188
22   0.142317
23   0.134006
24   0.16121
25   0.144022

>  <lowdin_charges>
25
1   -0.444554
2   -0.47767
3   -0.270278
4   -0.272767
5   -0.276392
6   -0.269838
7   -0.309356
8   0.166084
9   -0.237139
10   0.150992
11   0.146375
12   0.144891
13   0.167967
14   0.172024
15   0.167886
16   0.138722
17   0.140457
18   0.135744
19   0.13647
20   0.142353
21   0.144253
22   0.145862
23   0.139588
24   0.161516
25   0.15681

$$$$

