PCCDB-ID:  41285
public computational chemistry database (PCCDB) project, http://pccdb.org

 27 27  0  0  1  0  0  0  0  0999 V2000
    1.8360    0.7631    0.8780 C   0  0  0  0  0  0  0  0  0  0  0  0
    2.9407    0.5855   -4.6230 C   0  0  0  0  0  0  0  0  0  0  0  0
    2.4813   -0.6198    0.7293 C   0  0  0  0  0  0  0  0  0  0  0  0
    2.7648   -1.0409   -0.7224 C   0  0  0  0  0  0  0  0  0  0  0  0
    3.8261   -0.1750   -1.4178 C   0  0  0  0  0  0  0  0  0  0  0  0
    3.7676   -1.8627   -4.7935 C   0  0  0  0  0  0  0  0  0  0  0  0
    3.2010   -0.7419   -3.9117 C   0  0  1  0  0  0  0  0  0  0  0  0
    4.2701   -0.6576   -2.7986 C   0  0  2  0  0  0  0  0  0  0  0  0
    4.5661   -2.7229   -3.8211 C   0  0  0  0  0  0  0  0  0  0  0  0
    4.9607   -3.8503   -3.9652 O   0  0  0  0  0  0  0  0  0  0  0  0
    4.8037   -2.0038   -2.6859 O   0  0  0  0  0  0  0  0  0  0  0  0
    0.8894    0.8195    0.3251 H   0  0  0  0  0  0  0  0  0  0  0  0
    2.4863    1.5626    0.5043 H   0  0  0  0  0  0  0  0  0  0  0  0
    1.6187    0.9842    1.9290 H   0  0  0  0  0  0  0  0  0  0  0  0
    3.8560    0.9682   -5.0917 H   0  0  0  0  0  0  0  0  0  0  0  0
    2.5749    1.3492   -3.9268 H   0  0  0  0  0  0  0  0  0  0  0  0
    2.1866    0.4678   -5.4087 H   0  0  0  0  0  0  0  0  0  0  0  0
    1.8223   -1.3707    1.1845 H   0  0  0  0  0  0  0  0  0  0  0  0
    3.4183   -0.6507    1.3035 H   0  0  0  0  0  0  0  0  0  0  0  0
    3.1045   -2.0831   -0.7319 H   0  0  0  0  0  0  0  0  0  0  0  0
    1.8226   -1.0135   -1.2883 H   0  0  0  0  0  0  0  0  0  0  0  0
    4.7188   -0.1249   -0.7802 H   0  0  0  0  0  0  0  0  0  0  0  0
    3.4722    0.8583   -1.5309 H   0  0  0  0  0  0  0  0  0  0  0  0
    4.4609   -1.4691   -5.5502 H   0  0  0  0  0  0  0  0  0  0  0  0
    3.0208   -2.4665   -5.3146 H   0  0  0  0  0  0  0  0  0  0  0  0
    2.2646   -1.0988   -3.4647 H   0  0  0  0  0  0  0  0  0  0  0  0
    5.0956   -0.0178   -3.1454 H   0  0  0  0  0  0  0  0  0  0  0  0
  1 14  1  0  0  0  0
  2 16  1  0  0  0  0
  2  7  1  0  0  0  0
  3  1  1  0  0  0  0
  3 18  1  0  0  0  0
  3 19  1  0  0  0  0
  4  3  1  0  0  0  0
  5 22  1  0  0  0  0
  5  4  1  0  0  0  0
  6  7  1  0  0  0  0
  6  9  1  0  0  0  0
  7 26  1  1  0  0  0
  7  8  1  0  0  0  0
  8 27  1  6  0  0  0
  8 11  1  0  0  0  0
  8  5  1  0  0  0  0
  9 11  1  0  0  0  0
 10  9  2  0  0  0  0
 12  1  1  0  0  0  0
 13  1  1  0  0  0  0
 15  2  1  0  0  0  0
 17  2  1  0  0  0  0
 20  4  1  0  0  0  0
 21  4  1  0  0  0  0
 23  5  1  0  0  0  0
 24  6  1  0  0  0  0
 25  6  1  0  0  0  0
M  END
>  <HBA>
2

>  <HBD>
0

>  <TPSA>
26.3

>  <cid>
41285

>  <dipole>
4.5

>  <excitation_energy_1>
5.633

>  <excitation_energy_2>
6.636

>  <excitation_energy_3>
7.005

>  <excitation_energy_4>
7.121

>  <homo_energy>
-7.078

>  <homo_lumo_gap>
7.508

>  <logP>
2.128

>  <lumo_energy>
0.43

>  <melting_point>
6.46

>  <molecular_refractivity>
44.55

>  <oscillator_strength_1>
0.0003

>  <oscillator_strength_2>
0.0102

>  <oscillator_strength_3>
0.0003

>  <oscillator_strength_4>
0.0034

>  <open_babel_can_smiles>
C[C@H]1CC(=O)O[C@@H]1CCCC

>  <mulliken_charges>
27
1   -0.445441
2   -0.460463
3   -0.252758
4   -0.265436
5   -0.281249
6   -0.388137
7   -0.119679
8   0.143208
9   0.614357
10   -0.45903
11   -0.465884
12   0.140349
13   0.143946
14   0.146676
15   0.148101
16   0.153296
17   0.156623
18   0.136534
19   0.135543
20   0.159337
21   0.12839
22   0.150848
23   0.140936
24   0.175326
25   0.180997
26   0.150394
27   0.133215

>  <lowdin_charges>
27
1   -0.447714
2   -0.445916
3   -0.272631
4   -0.280823
5   -0.283309
6   -0.316036
7   -0.140333
8   0.002527
9   0.188681
10   -0.236762
11   -0.19476
12   0.145382
13   0.146595
14   0.150961
15   0.150621
16   0.155046
17   0.158347
18   0.146243
19   0.141446
20   0.153972
21   0.136805
22   0.154598
23   0.148298
24   0.171677
25   0.175843
26   0.150693
27   0.140552

$$$$

