PCCDB-ID:  11756
public computational chemistry database (PCCDB) project, http://pccdb.org

 17 16  0  0  0  0  0  0  0  0999 V2000
    2.8564    0.9368   -0.8939 C   0  0  0  0  0  0  0  0  0  0  0  0
    2.5242   -0.2844   -0.0328 C   0  0  0  0  0  0  0  0  0  0  0  0
    3.0634   -0.2025    1.4299 C   0  0  0  0  0  0  0  0  0  0  0  0
    2.4779   -1.3959    2.2173 C   0  0  0  0  0  0  0  0  0  0  0  0
    4.5736   -0.1583    1.4257 C   0  0  0  0  0  0  0  0  0  0  0  0
    1.3909   -1.3133    2.7354 O   0  0  0  0  0  0  0  0  0  0  0  0
    3.1882   -2.5337    2.2187 O   0  0  0  0  0  0  0  0  0  0  0  0
    5.2965   -1.1378    1.3091 O   0  0  0  0  0  0  0  0  0  0  0  0
    5.0691    1.0841    1.5309 O   0  0  0  0  0  0  0  0  0  0  0  0
    2.3950    0.8351   -1.8819 H   0  0  0  0  0  0  0  0  0  0  0  0
    3.9348    1.0580   -1.0423 H   0  0  0  0  0  0  0  0  0  0  0  0
    2.4767    1.8584   -0.4386 H   0  0  0  0  0  0  0  0  0  0  0  0
    2.9132   -1.1987   -0.4971 H   0  0  0  0  0  0  0  0  0  0  0  0
    1.4382   -0.4015    0.0468 H   0  0  0  0  0  0  0  0  0  0  0  0
    2.6749    0.7055    1.8958 H   0  0  0  0  0  0  0  0  0  0  0  0
    4.0693   -2.3694    1.8083 H   0  0  0  0  0  0  0  0  0  0  0  0
    6.0428    1.0056    1.4955 H   0  0  0  0  0  0  0  0  0  0  0  0
  1 12  1  0  0  0  0
  1  2  1  0  0  0  0
  2 14  1  0  0  0  0
  2  3  1  0  0  0  0
  3 15  1  0  0  0  0
  3  4  1  0  0  0  0
  4  7  1  0  0  0  0
  4  6  2  0  0  0  0
  5  3  1  0  0  0  0
  5  9  1  0  0  0  0
  8  5  2  0  0  0  0
 10  1  1  0  0  0  0
 11  1  1  0  0  0  0
 13  2  1  0  0  0  0
 16  7  1  0  0  0  0
 17  9  1  0  0  0  0
M  END
>  <HBA>
4

>  <HBD>
2

>  <TPSA>
74.6

>  <cid>
11756

>  <dipole>
4.91

>  <excitation_energy_1>
5.481

>  <excitation_energy_2>
5.871

>  <excitation_energy_3>
5.959

>  <excitation_energy_4>
6.649

>  <homo_energy>
-7.334

>  <homo_lumo_gap>
6.504

>  <logP>
0.182

>  <lumo_energy>
-0.83

>  <melting_point>
128.42

>  <molecular_refractivity>
29.69

>  <oscillator_strength_1>
0.0108

>  <oscillator_strength_2>
0.0077

>  <oscillator_strength_3>
0.0116

>  <oscillator_strength_4>
0.0148

>  <open_babel_can_smiles>
CCC(C(=O)O)C(=O)O

>  <mulliken_charges>
17
1   -0.450294
2   -0.271452
3   -0.277642
4   0.602303
5   0.600535
6   -0.451888
7   -0.58123
8   -0.49294
9   -0.546726
10   0.160343
11   0.152909
12   0.159227
13   0.159901
14   0.18212
15   0.193674
16   0.440698
17   0.420462

>  <lowdin_charges>
17
1   -0.444656
2   -0.257336
3   -0.19121
4   0.188611
5   0.206261
6   -0.245001
7   -0.35109
8   -0.286145
9   -0.323594
10   0.160204
11   0.149979
12   0.156569
13   0.154789
14   0.166009
15   0.185179
16   0.36415
17   0.367282

$$$$

