PCCDB-ID:  11443
public computational chemistry database (PCCDB) project, http://pccdb.org

 19 19  0  0  0  0  0  0  0  0999 V2000
    0.7756   -0.0830    0.1025 C   0  0  0  0  0  0  0  0  0  0  0  0
    2.8075   -1.6046    0.0375 C   0  0  0  0  0  0  0  0  0  0  0  0
    4.1802   -1.8343    0.0601 C   0  0  0  0  0  0  0  0  0  0  0  0
    4.5472    0.5485    0.2660 C   0  0  0  0  0  0  0  0  0  0  0  0
    7.2751   -1.7884    0.1695 C   0  0  0  0  0  0  0  0  0  0  0  0
    2.9870    3.1987    0.4341 C   0  0  0  0  0  0  0  0  0  0  0  0
    2.2637   -0.3189    0.1266 C   0  0  0  0  0  0  0  0  0  0  0  0
    5.0579   -0.7480    0.1762 C   0  0  0  0  0  0  0  0  0  0  0  0
    3.1641    0.7576    0.2403 C   0  0  0  0  0  0  0  0  0  0  0  0
    6.4455   -0.9085    0.2068 N   0  0  0  0  0  0  0  0  0  0  0  0
    2.6309    2.0475    0.3282 N   0  0  0  0  0  0  0  0  0  0  0  0
    8.1815   -2.5399    0.1436 O   0  0  0  0  0  0  0  0  0  0  0  0
    3.1947    4.3534    0.5353 O   0  0  0  0  0  0  0  0  0  0  0  0
    0.2328   -1.0284    0.0134 H   0  0  0  0  0  0  0  0  0  0  0  0
    0.4857    0.5589   -0.7379 H   0  0  0  0  0  0  0  0  0  0  0  0
    0.4362    0.4219    1.0146 H   0  0  0  0  0  0  0  0  0  0  0  0
    2.1329   -2.4520   -0.0522 H   0  0  0  0  0  0  0  0  0  0  0  0
    4.5732   -2.8440   -0.0110 H   0  0  0  0  0  0  0  0  0  0  0  0
    5.2299    1.3868    0.3555 H   0  0  0  0  0  0  0  0  0  0  0  0
  1  7  1  0  0  0  0
  1 16  1  0  0  0  0
  2  3  2  0  0  0  0
  2  7  1  0  0  0  0
  3  8  1  0  0  0  0
  4 19  1  0  0  0  0
  5 10  2  0  0  0  0
  6 13  2  0  0  0  0
  7  9  2  0  0  0  0
  8 10  1  0  0  0  0
  8  4  2  0  0  0  0
  9  4  1  0  0  0  0
  9 11  1  0  0  0  0
 11  6  2  0  0  0  0
 12  5  2  0  0  0  0
 14  1  1  0  0  0  0
 15  1  1  0  0  0  0
 17  2  1  0  0  0  0
 18  3  1  0  0  0  0
M  END
>  <HBA>
4

>  <HBD>
0

>  <TPSA>
58.86

>  <cid>
11443

>  <dipole>
2.64

>  <excitation_energy_1>
4.634

>  <excitation_energy_2>
5.079

>  <excitation_energy_3>
5.109

>  <excitation_energy_4>
5.277

>  <homo_energy>
-6.395

>  <homo_lumo_gap>
5.396

>  <logP>
1.93

>  <lumo_energy>
-0.999

>  <melting_point>
125.46

>  <molecular_refractivity>
46.97

>  <oscillator_strength_1>
0.0217

>  <oscillator_strength_2>
0.0006

>  <oscillator_strength_3>
0.1586

>  <oscillator_strength_4>
0.0005

>  <open_babel_can_smiles>
O=C=Nc1ccc(c(c1)N=C=O)C

>  <mulliken_charges>
19
1   -0.519767
2   -0.210507
3   -0.137223
4   -0.167836
5   0.603026
6   0.595272
7   0.171065
8   0.279694
9   0.236955
10   -0.502598
11   -0.502487
12   -0.392655
13   -0.391304
14   0.156145
15   0.173038
16   0.173022
17   0.138779
18   0.142806
19   0.154573

>  <lowdin_charges>
19
1   -0.439029
2   -0.152525
3   -0.176065
4   -0.179498
5   0.192921
6   0.189027
7   -0.009111
8   0.069219
9   0.062768
10   -0.144369
11   -0.140779
12   -0.138956
13   -0.135647
14   0.159089
15   0.168391
16   0.168087
17   0.164656
18   0.166178
19   0.175643

$$$$

