PCCDB-ID:  19974
public computational chemistry database (PCCDB) project, http://pccdb.org

 30 29  0  0  1  0  0  0  0  0999 V2000
    0.5454    3.4220    2.2948 C   0  0  0  0  0  0  0  0  0  0  0  0
    5.8315    2.8337   -3.1037 C   0  0  0  0  0  0  0  0  0  0  0  0
    7.0224    0.6234   -2.7378 C   0  0  0  0  0  0  0  0  0  0  0  0
    3.6518    3.6275    2.6311 C   0  0  0  0  0  0  0  0  0  0  0  0
    1.5844    2.4813    1.6726 C   0  0  0  0  0  0  0  0  0  0  0  0
    5.1209    2.7496   -0.0304 C   0  0  0  0  0  0  0  0  0  0  0  0
    5.9114    1.7415   -0.8217 C   0  0  0  0  0  0  0  0  0  0  0  0
    3.8281    2.1462    0.5577 C   0  0  0  0  0  0  0  0  0  0  0  0
    6.2212    1.7498   -2.1276 C   0  0  0  0  0  0  0  0  0  0  0  0
    2.9490    3.1302    1.3578 C   0  0  2  0  0  0  0  0  0  0  0  0
   -0.4214    2.9173    2.4041 H   0  0  0  0  0  0  0  0  0  0  0  0
    0.3874    4.3072    1.6657 H   0  0  0  0  0  0  0  0  0  0  0  0
    0.8457    3.7707    3.2888 H   0  0  0  0  0  0  0  0  0  0  0  0
    5.2548    2.4124   -3.9391 H   0  0  0  0  0  0  0  0  0  0  0  0
    6.7245    3.2962   -3.5472 H   0  0  0  0  0  0  0  0  0  0  0  0
    5.2336    3.6293   -2.6533 H   0  0  0  0  0  0  0  0  0  0  0  0
    6.4649    0.1340   -3.5493 H   0  0  0  0  0  0  0  0  0  0  0  0
    7.2831   -0.1402   -1.9980 H   0  0  0  0  0  0  0  0  0  0  0  0
    7.9554    0.9959   -3.1845 H   0  0  0  0  0  0  0  0  0  0  0  0
    3.0428    4.3612    3.1694 H   0  0  0  0  0  0  0  0  0  0  0  0
    4.6102    4.1069    2.4062 H   0  0  0  0  0  0  0  0  0  0  0  0
    3.8498    2.7923    3.3165 H   0  0  0  0  0  0  0  0  0  0  0  0
    1.1728    2.0711    0.7400 H   0  0  0  0  0  0  0  0  0  0  0  0
    1.7442    1.6198    2.3382 H   0  0  0  0  0  0  0  0  0  0  0  0
    4.8629    3.6224   -0.6414 H   0  0  0  0  0  0  0  0  0  0  0  0
    5.7521    3.1251    0.7879 H   0  0  0  0  0  0  0  0  0  0  0  0
    6.2587    0.8877   -0.2356 H   0  0  0  0  0  0  0  0  0  0  0  0
    4.0857    1.2896    1.1992 H   0  0  0  0  0  0  0  0  0  0  0  0
    3.2364    1.7359   -0.2720 H   0  0  0  0  0  0  0  0  0  0  0  0
    2.7557    4.0037    0.7134 H   0  0  0  0  0  0  0  0  0  0  0  0
  1 11  1  0  0  0  0
  1 13  1  0  0  0  0
  2 16  1  0  0  0  0
  2  9  1  0  0  0  0
  3  9  1  0  0  0  0
  3 18  1  0  0  0  0
  4 20  1  0  0  0  0
  4 22  1  0  0  0  0
  5  1  1  0  0  0  0
  5 24  1  0  0  0  0
  6  8  1  0  0  0  0
  6 26  1  0  0  0  0
  7 27  1  0  0  0  0
  7  6  1  0  0  0  0
  8 28  1  0  0  0  0
  8 10  1  0  0  0  0
  9  7  2  0  0  0  0
 10 30  1  6  0  0  0
 10  5  1  0  0  0  0
 10  4  1  0  0  0  0
 12  1  1  0  0  0  0
 14  2  1  0  0  0  0
 15  2  1  0  0  0  0
 17  3  1  0  0  0  0
 19  3  1  0  0  0  0
 21  4  1  0  0  0  0
 23  5  1  0  0  0  0
 25  6  1  0  0  0  0
 29  8  1  0  0  0  0
M  END
>  <HBA>
0

>  <HBD>
0

>  <TPSA>
0.0

>  <cid>
19974

>  <dipole>
0.23

>  <excitation_energy_1>
5.682

>  <excitation_energy_2>
6.057

>  <excitation_energy_3>
6.178

>  <excitation_energy_4>
6.258

>  <homo_energy>
-6.109

>  <homo_lumo_gap>
7.094

>  <logP>
3.779

>  <lumo_energy>
0.985

>  <melting_point>
-16.01

>  <molecular_refractivity>
49.71

>  <oscillator_strength_1>
0.0045

>  <oscillator_strength_2>
0.0024

>  <oscillator_strength_3>
0.0395

>  <oscillator_strength_4>
0.0651

>  <open_babel_can_smiles>
CC[C@H](CCC=C(C)C)C

>  <mulliken_charges>
30
1   -0.448343
2   -0.512423
3   -0.505198
4   -0.454503
5   -0.246319
6   -0.307018
7   -0.160908
8   -0.25094
9   0.187204
10   -0.062479
11   0.141622
12   0.140187
13   0.145636
14   0.149977
15   0.150877
16   0.153486
17   0.147371
18   0.149952
19   0.147482
20   0.144572
21   0.144898
22   0.136985
23   0.128366
24   0.12651
25   0.133602
26   0.141014
27   0.108098
28   0.124478
29   0.131912
30   0.113899

>  <lowdin_charges>
30
1   -0.446586
2   -0.446625
3   -0.440833
4   -0.450895
5   -0.27413
6   -0.277455
7   -0.190016
8   -0.275088
9   -0.013452
10   -0.1247
11   0.149653
12   0.146027
13   0.146813
14   0.154829
15   0.155073
16   0.155794
17   0.152319
18   0.154437
19   0.151544
20   0.15101
21   0.148871
22   0.14534
23   0.140344
24   0.138172
25   0.143712
26   0.14813
27   0.144551
28   0.137726
29   0.143228
30   0.132205

$$$$

