PCCDB-ID:  61055
public computational chemistry database (PCCDB) project, http://pccdb.org

 26 26  0  0  0  0  0  0  0  0999 V2000
    1.2376    0.1234   -1.5714 C   0  0  0  0  0  0  0  0  0  0  0  0
    2.3070   -0.9103   -1.2123 C   0  0  0  0  0  0  0  0  0  0  0  0
    1.6124    1.5590   -1.1840 C   0  0  0  0  0  0  0  0  0  0  0  0
    3.3580    3.2460   -1.1632 C   0  0  0  0  0  0  0  0  0  0  0  0
    2.6388    2.3416   -3.2576 C   0  0  0  0  0  0  0  0  0  0  0  0
    4.6578    3.6884   -1.8314 C   0  0  0  0  0  0  0  0  0  0  0  0
    3.9538    2.8097   -3.8777 C   0  0  0  0  0  0  0  0  0  0  0  0
    1.8383   -2.2637   -1.5454 N   0  0  0  0  0  0  0  0  0  0  0  0
    2.8286    2.0570   -1.8338 N   0  0  0  0  0  0  0  0  0  0  0  0
    4.4639    3.9571   -3.2135 O   0  0  0  0  0  0  0  0  0  0  0  0
    0.3049   -0.1425   -1.0592 H   0  0  0  0  0  0  0  0  0  0  0  0
    1.0160    0.0623   -2.6466 H   0  0  0  0  0  0  0  0  0  0  0  0
    2.4822   -0.8797   -0.1284 H   0  0  0  0  0  0  0  0  0  0  0  0
    3.2582   -0.6269   -1.6914 H   0  0  0  0  0  0  0  0  0  0  0  0
    1.7906    1.5906   -0.1011 H   0  0  0  0  0  0  0  0  0  0  0  0
    0.7517    2.2297   -1.3793 H   0  0  0  0  0  0  0  0  0  0  0  0
    2.6368    4.0875   -1.1876 H   0  0  0  0  0  0  0  0  0  0  0  0
    3.5520    3.0039   -0.1109 H   0  0  0  0  0  0  0  0  0  0  0  0
    2.3048    1.4346   -3.7731 H   0  0  0  0  0  0  0  0  0  0  0  0
    1.8657    3.1207   -3.4148 H   0  0  0  0  0  0  0  0  0  0  0  0
    5.4206    2.9026   -1.7025 H   0  0  0  0  0  0  0  0  0  0  0  0
    5.0279    4.6156   -1.3835 H   0  0  0  0  0  0  0  0  0  0  0  0
    3.8065    3.0959   -4.9236 H   0  0  0  0  0  0  0  0  0  0  0  0
    4.6900    1.9896   -3.8352 H   0  0  0  0  0  0  0  0  0  0  0  0
    1.7680   -2.3554   -2.5591 H   0  0  0  0  0  0  0  0  0  0  0  0
    2.5377   -2.9467   -1.2569 H   0  0  0  0  0  0  0  0  0  0  0  0
  1  2  1  0  0  0  0
  1  3  1  0  0  0  0
  1 11  1  0  0  0  0
  2 13  1  0  0  0  0
  3 15  1  0  0  0  0
  4 18  1  0  0  0  0
  5  9  1  0  0  0  0
  6 21  1  0  0  0  0
  6 22  1  0  0  0  0
  6  4  1  0  0  0  0
  7 24  1  0  0  0  0
  7  5  1  0  0  0  0
  7 10  1  0  0  0  0
  8 26  1  0  0  0  0
  8  2  1  0  0  0  0
  9  3  1  0  0  0  0
  9  4  1  0  0  0  0
 10  6  1  0  0  0  0
 12  1  1  0  0  0  0
 14  2  1  0  0  0  0
 16  3  1  0  0  0  0
 17  4  1  0  0  0  0
 19  5  1  0  0  0  0
 20  5  1  0  0  0  0
 23  7  1  0  0  0  0
 25  8  1  0  0  0  0
M  END
>  <HBA>
3

>  <HBD>
1

>  <TPSA>
38.49

>  <cid>
61055

>  <dipole>
0.73

>  <excitation_energy_1>
5.287

>  <excitation_energy_2>
5.57

>  <excitation_energy_3>
5.687

>  <excitation_energy_4>
5.721

>  <homo_energy>
-5.782

>  <homo_lumo_gap>
7.973

>  <logP>
0.306

>  <lumo_energy>
2.191

>  <melting_point>
43.29

>  <molecular_refractivity>
44.25

>  <oscillator_strength_1>
0.0087

>  <oscillator_strength_2>
0.0454

>  <oscillator_strength_3>
0.0081

>  <oscillator_strength_4>
0.029

>  <open_babel_can_smiles>
NCCCN1CCOCC1

>  <mulliken_charges>
26
1   -0.263992
2   -0.130553
3   -0.115074
4   -0.130476
5   -0.135878
6   -0.033766
7   -0.032603
8   -0.71834
9   -0.397974
10   -0.466856
11   0.150055
12   0.127023
13   0.132341
14   0.13133
15   0.133431
16   0.113611
17   0.118678
18   0.137916
19   0.13943
20   0.118757
21   0.126934
22   0.143846
23   0.143715
24   0.125998
25   0.288507
26   0.293941

>  <lowdin_charges>
26
1   -0.28331
2   -0.205016
3   -0.197526
4   -0.214662
5   -0.218394
6   -0.137696
7   -0.136755
8   -0.559573
9   -0.193881
10   -0.273825
11   0.15467
12   0.134775
13   0.136846
14   0.125833
15   0.141059
16   0.121766
17   0.122469
18   0.147018
19   0.149556
20   0.122459
21   0.131409
22   0.151631
23   0.149473
24   0.130928
25   0.246594
26   0.254154

$$$$

