PCCDB-ID:  57979
public computational chemistry database (PCCDB) project, http://pccdb.org

 34 33  0  0  1  0  0  0  0  0999 V2000
    0.5699    1.4981   -1.3052 C   0  0  0  0  0  0  0  0  0  0  0  0
    7.0407    1.8521    1.0564 C   0  0  0  0  0  0  0  0  0  0  0  0
    1.8170    3.3673   -2.6188 C   0  0  0  0  0  0  0  0  0  0  0  0
    5.7548    3.8790    0.1460 C   0  0  0  0  0  0  0  0  0  0  0  0
    3.0558    1.2565   -1.8523 C   0  0  0  0  0  0  0  0  0  0  0  0
    4.9819    1.4874   -0.3544 C   0  0  0  0  0  0  0  0  0  0  0  0
    1.7041    1.8535   -2.2828 C   0  0  1  0  0  0  0  0  0  0  0  0
    5.6677    2.4157    0.6614 C   0  0  1  0  0  0  0  0  0  0  0  0
    2.0366    4.3469   -1.4750 C   0  0  0  0  0  0  0  0  0  0  0  0
    6.3524    3.9626   -1.2586 C   0  0  0  0  0  0  0  0  0  0  0  0
    3.6180    1.9205   -0.6815 N   0  0  0  0  0  0  0  0  0  0  0  0
    2.9999    5.0766   -1.3627 O   0  0  0  0  0  0  0  0  0  0  0  0
    1.0374    4.4632   -0.5685 O   0  0  0  0  0  0  0  0  0  0  0  0
    7.4980    3.6487   -1.5062 O   0  0  0  0  0  0  0  0  0  0  0  0
    5.5309    4.3680   -2.2462 O   0  0  0  0  0  0  0  0  0  0  0  0
   -0.3974    1.8921   -1.6469 H   0  0  0  0  0  0  0  0  0  0  0  0
    0.7518    1.8687   -0.2895 H   0  0  0  0  0  0  0  0  0  0  0  0
    0.4597    0.4106   -1.2345 H   0  0  0  0  0  0  0  0  0  0  0  0
    7.4898    2.4532    1.8552 H   0  0  0  0  0  0  0  0  0  0  0  0
    7.7261    1.8678    0.2047 H   0  0  0  0  0  0  0  0  0  0  0  0
    6.9524    0.8218    1.4223 H   0  0  0  0  0  0  0  0  0  0  0  0
    0.8957    3.6778   -3.1338 H   0  0  0  0  0  0  0  0  0  0  0  0
    2.6421    3.5175   -3.3193 H   0  0  0  0  0  0  0  0  0  0  0  0
    6.4138    4.4459    0.8137 H   0  0  0  0  0  0  0  0  0  0  0  0
    4.7664    4.3422    0.1769 H   0  0  0  0  0  0  0  0  0  0  0  0
    3.7716    1.3920   -2.6723 H   0  0  0  0  0  0  0  0  0  0  0  0
    2.9317    0.1632   -1.7229 H   0  0  0  0  0  0  0  0  0  0  0  0
    5.0086    0.4494    0.0256 H   0  0  0  0  0  0  0  0  0  0  0  0
    5.5639    1.4875   -1.2844 H   0  0  0  0  0  0  0  0  0  0  0  0
    1.4527    1.3740   -3.2389 H   0  0  0  0  0  0  0  0  0  0  0  0
    5.0403    2.4454    1.5656 H   0  0  0  0  0  0  0  0  0  0  0  0
    3.0237    1.7587    0.1303 H   0  0  0  0  0  0  0  0  0  0  0  0
    0.3028    3.8726   -0.8007 H   0  0  0  0  0  0  0  0  0  0  0  0
    4.6405    4.6053   -1.9011 H   0  0  0  0  0  0  0  0  0  0  0  0
  1 18  1  0  0  0  0
  1 17  1  0  0  0  0
  2 21  1  0  0  0  0
  2 19  1  0  0  0  0
  3  7  1  0  0  0  0
  3  9  1  0  0  0  0
  4 25  1  0  0  0  0
  4  8  1  0  0  0  0
  4 24  1  0  0  0  0
  5 27  1  0  0  0  0
  5 11  1  0  0  0  0
  6 28  1  0  0  0  0
  6  8  1  0  0  0  0
  7 30  1  6  0  0  0
  7  5  1  0  0  0  0
  7  1  1  0  0  0  0
  8  2  1  0  0  0  0
  8 31  1  1  0  0  0
  9 12  2  0  0  0  0
  9 13  1  0  0  0  0
 10  4  1  0  0  0  0
 11  6  1  0  0  0  0
 11 32  1  0  0  0  0
 14 10  2  0  0  0  0
 15 34  1  0  0  0  0
 15 10  1  0  0  0  0
 16  1  1  0  0  0  0
 20  2  1  0  0  0  0
 22  3  1  0  0  0  0
 23  3  1  0  0  0  0
 26  5  1  0  0  0  0
 29  6  1  0  0  0  0
 33 13  1  0  0  0  0
M  END
>  <HBA>
5

>  <HBD>
3

>  <TPSA>
86.63

>  <cid>
57979

>  <dipole>
8.51

>  <excitation_energy_1>
4.958

>  <excitation_energy_2>
5.31

>  <excitation_energy_3>
5.378

>  <excitation_energy_4>
5.514

>  <homo_energy>
-6.387

>  <homo_lumo_gap>
5.976

>  <logP>
1.188

>  <lumo_energy>
-0.411

>  <melting_point>
152.28

>  <molecular_refractivity>
56.53

>  <oscillator_strength_1>
0.0271

>  <oscillator_strength_2>
0.0118

>  <oscillator_strength_3>
0.0006

>  <oscillator_strength_4>
0.0005

>  <open_babel_can_smiles>
C[C@@H](CC(=O)O)CNC[C@H](CC(=O)O)C

>  <mulliken_charges>
34
1   -0.503897
2   -0.457115
3   -0.395466
4   -0.364344
5   -0.115519
6   -0.136614
7   -0.084866
8   -0.089058
9   0.640107
10   0.574667
11   -0.578867
12   -0.470841
13   -0.558308
14   -0.468597
15   -0.614839
16   0.146654
17   0.156255
18   0.169194
19   0.141399
20   0.1873
21   0.130451
22   0.163015
23   0.19133
24   0.162472
25   0.168667
26   0.159123
27   0.116988
28   0.117343
29   0.167217
30   0.147989
31   0.12005
32   0.298104
33   0.420791
34   0.459216

>  <lowdin_charges>
34
1   -0.463341
2   -0.451852
3   -0.318222
4   -0.321767
5   -0.201774
6   -0.207301
7   -0.124605
8   -0.119098
9   0.216495
10   0.189195
11   -0.365002
12   -0.255071
13   -0.344516
14   -0.276246
15   -0.371056
16   0.14843
17   0.149128
18   0.163076
19   0.151454
20   0.170327
21   0.142059
22   0.164367
23   0.181407
24   0.168218
25   0.163494
26   0.154014
27   0.119785
28   0.122457
29   0.154957
30   0.154284
31   0.135983
32   0.25196
33   0.361253
34   0.357509

$$$$

