PCCDB-ID:  22147
public computational chemistry database (PCCDB) project, http://pccdb.org

 15 15  0  0  1  0  0  0  0  0999 V2000
    0.9838   -0.0525   -0.0981 C   0  0  0  0  0  0  0  0  0  0  0  0
   -1.0041    1.2471    0.8120 C   0  0  0  0  0  0  0  0  0  0  0  0
   -0.0385    3.7048    0.7803 C   0  0  0  0  0  0  0  0  0  0  0  0
    0.5012    0.9787    0.9310 C   0  0  2  0  0  0  0  0  0  0  0  0
    2.3772   -0.2968   -0.0247 O   0  0  0  0  0  0  0  0  0  0  0  0
   -1.4151    2.8400    1.6130 S   0  0  0  0  0  0  0  0  0  0  0  0
    1.4236    2.5828    0.7075 S   0  0  0  0  0  0  0  0  0  0  0  0
    0.6813    0.2682   -1.1070 H   0  0  0  0  0  0  0  0  0  0  0  0
    0.4989   -1.0140    0.1090 H   0  0  0  0  0  0  0  0  0  0  0  0
   -1.5808    0.4640    1.3144 H   0  0  0  0  0  0  0  0  0  0  0  0
   -1.3083    1.2771   -0.2407 H   0  0  0  0  0  0  0  0  0  0  0  0
    0.2253    4.5865    1.3685 H   0  0  0  0  0  0  0  0  0  0  0  0
   -0.3268    4.0154   -0.2269 H   0  0  0  0  0  0  0  0  0  0  0  0
    0.7433    0.6203    1.9353 H   0  0  0  0  0  0  0  0  0  0  0  0
    2.8256    0.4771   -0.4030 H   0  0  0  0  0  0  0  0  0  0  0  0
  1  5  1  0  0  0  0
  1  9  1  0  0  0  0
  1  4  1  0  0  0  0
  2  4  1  0  0  0  0
  2 10  1  0  0  0  0
  2  6  1  0  0  0  0
  3 12  1  0  0  0  0
  3  6  1  0  0  0  0
  4 14  1  1  0  0  0
  7  3  1  0  0  0  0
  7  4  1  0  0  0  0
  8  1  1  0  0  0  0
 11  2  1  0  0  0  0
 13  3  1  0  0  0  0
 15  5  1  0  0  0  0
M  END
>  <HBA>
3

>  <HBD>
1

>  <TPSA>
70.83

>  <cid>
22147

>  <dipole>
1.81

>  <excitation_energy_1>
4.705

>  <excitation_energy_2>
4.743

>  <excitation_energy_3>
5.643

>  <excitation_energy_4>
5.687

>  <homo_energy>
-6.351

>  <homo_lumo_gap>
6.087

>  <logP>
0.785

>  <lumo_energy>
-0.264

>  <melting_point>
33.9

>  <molecular_refractivity>
35.57

>  <oscillator_strength_1>
0.002

>  <oscillator_strength_2>
0.0044

>  <oscillator_strength_3>
0.007

>  <oscillator_strength_4>
0.0216

>  <open_babel_can_smiles>
OC[C@@H]1CSCS1

>  <mulliken_charges>
15
1   -0.027866
2   -0.429642
3   -0.561168
4   -0.253348
5   -0.610946
6   0.131255
7   0.076649
8   0.133542
9   0.15338
10   0.190683
11   0.18033
12   0.211632
13   0.205057
14   0.194225
15   0.406216

>  <lowdin_charges>
15
1   -0.138265
2   -0.378409
3   -0.478246
4   -0.236459
5   -0.459014
6   0.125276
7   0.067387
8   0.133117
9   0.151266
10   0.178837
11   0.158681
12   0.188336
13   0.168363
14   0.16935
15   0.349779

$$$$

