PCCDB-ID:  43722
public computational chemistry database (PCCDB) project, http://pccdb.org

 32 33  0  0  1  0  0  0  0  0999 V2000
    2.7169    0.3767   -1.3317 C   0  0  0  0  0  0  0  0  0  0  0  0
    0.7414   -4.1017   -1.9327 C   0  0  0  0  0  0  0  0  0  0  0  0
    0.4904   -3.7188   -0.6142 C   0  0  0  0  0  0  0  0  0  0  0  0
    1.8911   -3.6417   -2.5756 C   0  0  0  0  0  0  0  0  0  0  0  0
    1.3833   -2.8831    0.0561 C   0  0  0  0  0  0  0  0  0  0  0  0
    2.7865   -2.8083   -1.9036 C   0  0  0  0  0  0  0  0  0  0  0  0
    5.5782   -2.7658   -0.4458 C   0  0  0  0  0  0  0  0  0  0  0  0
    5.7549   -0.3755   -0.2889 C   0  0  0  0  0  0  0  0  0  0  0  0
    6.9401   -2.8549   -0.7099 C   0  0  0  0  0  0  0  0  0  0  0  0
    7.1168   -0.4541   -0.5600 C   0  0  0  0  0  0  0  0  0  0  0  0
    3.3997   -1.6355    1.6084 C   0  0  0  0  0  0  0  0  0  0  0  0
    2.5463   -2.4243   -0.5771 C   0  0  0  0  0  0  0  0  0  0  0  0
    4.9571   -1.5251   -0.2490 C   0  0  0  0  0  0  0  0  0  0  0  0
    7.7355   -1.6972   -0.7769 C   0  0  0  0  0  0  0  0  0  0  0  0
    3.4694   -1.4188    0.1378 C   0  0  2  0  0  0  0  0  0  0  0  0
    3.3712   -1.8224    2.7535 N   0  0  0  0  0  0  0  0  0  0  0  0
    9.1091   -1.7855   -0.9906 N   0  0  0  0  0  0  0  0  0  0  0  0
    2.9766   -0.0730   -0.0064 O   0  0  0  0  0  0  0  0  0  0  0  0
    2.4731    1.4371   -1.2313 H   0  0  0  0  0  0  0  0  0  0  0  0
    1.8669   -0.1475   -1.7835 H   0  0  0  0  0  0  0  0  0  0  0  0
    3.5922    0.2708   -1.9857 H   0  0  0  0  0  0  0  0  0  0  0  0
    0.0468   -4.7543   -2.4546 H   0  0  0  0  0  0  0  0  0  0  0  0
   -0.4011   -4.0713   -0.1029 H   0  0  0  0  0  0  0  0  0  0  0  0
    2.0957   -3.9311   -3.6029 H   0  0  0  0  0  0  0  0  0  0  0  0
    1.1790   -2.5925    1.0822 H   0  0  0  0  0  0  0  0  0  0  0  0
    3.6802   -2.4617   -2.4122 H   0  0  0  0  0  0  0  0  0  0  0  0
    4.9937   -3.6794   -0.3918 H   0  0  0  0  0  0  0  0  0  0  0  0
    5.3007    0.5907   -0.0970 H   0  0  0  0  0  0  0  0  0  0  0  0
    7.3985   -3.8305   -0.8552 H   0  0  0  0  0  0  0  0  0  0  0  0
    7.7146    0.4543   -0.5882 H   0  0  0  0  0  0  0  0  0  0  0  0
    9.4255   -2.6219   -1.4642 H   0  0  0  0  0  0  0  0  0  0  0  0
    9.5486   -0.9516   -1.3586 H   0  0  0  0  0  0  0  0  0  0  0  0
  1 19  1  0  0  0  0
  1 18  1  0  0  0  0
  2  3  1  0  0  0  0
  3 23  1  0  0  0  0
  3  5  2  0  0  0  0
  4  2  2  0  0  0  0
  4  6  1  0  0  0  0
  5 25  1  0  0  0  0
  6 12  2  0  0  0  0
  7 27  1  0  0  0  0
  7 13  2  0  0  0  0
  8 13  1  0  0  0  0
  8 28  1  0  0  0  0
  9  7  1  0  0  0  0
 10  8  2  0  0  0  0
 11 16  3  0  0  0  0
 12  5  1  0  0  0  0
 12 15  1  0  0  0  0
 13 15  1  0  0  0  0
 14  9  2  0  0  0  0
 14 10  1  0  0  0  0
 15 11  1  1  0  0  0
 17 14  1  0  0  0  0
 18 15  1  0  0  0  0
 20  1  1  0  0  0  0
 21  1  1  0  0  0  0
 22  2  1  0  0  0  0
 24  4  1  0  0  0  0
 26  6  1  0  0  0  0
 29  9  1  0  0  0  0
 30 10  1  0  0  0  0
 31 17  1  0  0  0  0
 32 17  1  0  0  0  0
M  END
>  <HBA>
3

>  <HBD>
1

>  <TPSA>
59.04

>  <cid>
43722

>  <dipole>
6.52

>  <excitation_energy_1>
4.349

>  <excitation_energy_2>
4.62

>  <excitation_energy_3>
4.825

>  <excitation_energy_4>
4.875

>  <homo_energy>
-5.687

>  <homo_lumo_gap>
5.061

>  <logP>
3.264

>  <lumo_energy>
-0.626

>  <melting_point>
118.27

>  <molecular_refractivity>
70.63

>  <oscillator_strength_1>
0.0081

>  <oscillator_strength_2>
0.0182

>  <oscillator_strength_3>
0.0308

>  <oscillator_strength_4>
0.0082

>  <open_babel_can_smiles>
CO[C@@](c1ccccc1)(c1ccc(cc1)N)C#N

>  <mulliken_charges>
32
1   -0.215815
2   -0.121382
3   -0.138353
4   -0.13776
5   -0.167617
6   -0.174853
7   -0.172903
8   -0.178501
9   -0.180834
10   -0.175798
11   0.365649
12   0.113122
13   0.086508
14   0.324868
15   0.166716
16   -0.490501
17   -0.789554
18   -0.489819
19   0.165375
20   0.158088
21   0.141793
22   0.135271
23   0.139571
24   0.134475
25   0.164054
26   0.146557
27   0.145449
28   0.152924
29   0.123366
30   0.122566
31   0.323572
32   0.323766

>  <lowdin_charges>
32
1   -0.288119
2   -0.150433
3   -0.152907
4   -0.1559
5   -0.147328
6   -0.160616
7   -0.146041
8   -0.14396
9   -0.198082
10   -0.1992
11   -0.007415
12   -0.023516
13   -0.052557
14   0.068571
15   0.138222
16   -0.122743
17   -0.484447
18   -0.254616
19   0.158896
20   0.149089
21   0.140299
22   0.161989
23   0.163053
24   0.158848
25   0.175083
26   0.16709
27   0.16716
28   0.170476
29   0.155635
30   0.155824
31   0.278723
32   0.278923

$$$$

