PCCDB-ID:  30617
public computational chemistry database (PCCDB) project, http://pccdb.org

 19 19  0  0  0  0  0  0  0  0999 V2000
    1.9773    1.8228    1.7589 C   0  0  0  0  0  0  0  0  0  0  0  0
    6.0183    3.2349   -2.7360 C   0  0  0  0  0  0  0  0  0  0  0  0
    5.0720    2.4161   -2.0419 C   0  0  0  0  0  0  0  0  0  0  0  0
    5.5407    4.4827   -3.0154 C   0  0  0  0  0  0  0  0  0  0  0  0
    2.6474    2.5070   -1.1211 C   0  0  0  0  0  0  0  0  0  0  0  0
    2.6438    0.9697    0.6978 C   0  0  0  0  0  0  0  0  0  0  0  0
    3.8857    3.0501   -1.7975 C   0  0  0  0  0  0  0  0  0  0  0  0
    2.9307    1.2297   -0.5063 N   0  0  0  0  0  0  0  0  0  0  0  0
    2.9707   -0.2893    1.1291 O   0  0  0  0  0  0  0  0  0  0  0  0
    3.9154    4.6830   -2.4263 S   0  0  0  0  0  0  0  0  0  0  0  0
    1.7646    2.8352    1.4147 H   0  0  0  0  0  0  0  0  0  0  0  0
    2.6217    1.8946    2.6439 H   0  0  0  0  0  0  0  0  0  0  0  0
    1.0298    1.3647    2.0695 H   0  0  0  0  0  0  0  0  0  0  0  0
    7.0127    2.9015   -3.0141 H   0  0  0  0  0  0  0  0  0  0  0  0
    5.2501    1.3937   -1.7316 H   0  0  0  0  0  0  0  0  0  0  0  0
    6.0358    5.2985   -3.5245 H   0  0  0  0  0  0  0  0  0  0  0  0
    1.8678    2.3447   -1.8814 H   0  0  0  0  0  0  0  0  0  0  0  0
    2.2455    3.2701   -0.4343 H   0  0  0  0  0  0  0  0  0  0  0  0
    2.7153   -0.3847    2.0594 H   0  0  0  0  0  0  0  0  0  0  0  0
  1 13  1  0  0  0  0
  1 12  1  0  0  0  0
  2  3  1  0  0  0  0
  3  7  2  0  0  0  0
  3 15  1  0  0  0  0
  4  2  2  0  0  0  0
  4 10  1  0  0  0  0
  5  8  1  0  0  0  0
  5 18  1  0  0  0  0
  6  9  1  0  0  0  0
  6  1  1  0  0  0  0
  7  5  1  0  0  0  0
  8  6  2  0  0  0  0
  9 19  1  0  0  0  0
 10  7  1  0  0  0  0
 11  1  1  0  0  0  0
 14  2  1  0  0  0  0
 16  4  1  0  0  0  0
 17  5  1  0  0  0  0
M  END
>  <HBA>
3

>  <HBD>
1

>  <TPSA>
57.34

>  <cid>
30617

>  <dipole>
3.59

>  <excitation_energy_1>
5.159

>  <excitation_energy_2>
5.334

>  <excitation_energy_3>
5.362

>  <excitation_energy_4>
5.563

>  <homo_energy>
-5.867

>  <homo_lumo_gap>
5.878

>  <logP>
1.775

>  <lumo_energy>
0.011

>  <melting_point>
53.62

>  <molecular_refractivity>
41.9

>  <oscillator_strength_1>
0.0024

>  <oscillator_strength_2>
0.0037

>  <oscillator_strength_3>
0.1397

>  <oscillator_strength_4>
0.0131

>  <open_babel_can_smiles>
C/C(=N\Cc1cccs1)/O

>  <mulliken_charges>
19
1   -0.558121
2   -0.102099
3   -0.108513
4   -0.344428
5   -0.182098
6   0.495264
7   -0.14345
8   -0.405547
9   -0.575267
10   0.218903
11   0.18532
12   0.175119
13   0.177785
14   0.136735
15   0.15918
16   0.166505
17   0.171337
18   0.128894
19   0.404481

>  <lowdin_charges>
19
1   -0.482881
2   -0.179945
3   -0.188635
4   -0.326147
5   -0.191006
6   0.133768
7   -0.165082
8   -0.195296
9   -0.368653
10   0.284626
11   0.173155
12   0.169753
13   0.170861
14   0.162703
15   0.175356
16   0.18005
17   0.161518
18   0.13383
19   0.352025

$$$$

