PCCDB-ID:  32597
public computational chemistry database (PCCDB) project, http://pccdb.org

 31 32  0  0  0  0  0  0  0  0999 V2000
    4.4137    0.2596   -0.4392 C   0  0  0  0  0  0  0  0  0  0  0  0
    1.7861    0.5115    5.8553 C   0  0  0  0  0  0  0  0  0  0  0  0
    0.5551    0.9197    5.3343 C   0  0  0  0  0  0  0  0  0  0  0  0
    2.9173    0.5442    5.0377 C   0  0  0  0  0  0  0  0  0  0  0  0
    1.5055   -2.6383    0.7532 C   0  0  0  0  0  0  0  0  0  0  0  0
    0.4543    1.3537    4.0145 C   0  0  0  0  0  0  0  0  0  0  0  0
    2.8220    0.9643    3.7110 C   0  0  0  0  0  0  0  0  0  0  0  0
    1.2075   -1.2395    1.3041 C   0  0  0  0  0  0  0  0  0  0  0  0
    3.0032   -2.8960    0.8231 C   0  0  0  0  0  0  0  0  0  0  0  0
    3.3513   -0.6210    0.1584 C   0  0  0  0  0  0  0  0  0  0  0  0
    1.5835    1.3627    3.1770 C   0  0  0  0  0  0  0  0  0  0  0  0
    2.1908   -0.2273    0.7382 C   0  0  0  0  0  0  0  0  0  0  0  0
    1.8119    1.2135    0.8403 C   0  0  0  0  0  0  0  0  0  0  0  0
    1.4523    1.8639    1.8737 N   0  0  0  0  0  0  0  0  0  0  0  0
    1.7758    1.9106   -0.3389 O   0  0  0  0  0  0  0  0  0  0  0  0
    3.7430   -1.9247    0.0651 O   0  0  0  0  0  0  0  0  0  0  0  0
    4.1382    1.3142   -0.4246 H   0  0  0  0  0  0  0  0  0  0  0  0
    4.6145   -0.0456   -1.4734 H   0  0  0  0  0  0  0  0  0  0  0  0
    5.3501    0.1287    0.1156 H   0  0  0  0  0  0  0  0  0  0  0  0
    1.8645    0.1857    6.8888 H   0  0  0  0  0  0  0  0  0  0  0  0
   -0.3317    0.9104    5.9631 H   0  0  0  0  0  0  0  0  0  0  0  0
    3.8846    0.2453    5.4348 H   0  0  0  0  0  0  0  0  0  0  0  0
    1.1780   -2.7183   -0.2909 H   0  0  0  0  0  0  0  0  0  0  0  0
    0.9714   -3.4068    1.3237 H   0  0  0  0  0  0  0  0  0  0  0  0
   -0.4954    1.6890    3.6081 H   0  0  0  0  0  0  0  0  0  0  0  0
    3.7065    1.0035    3.0822 H   0  0  0  0  0  0  0  0  0  0  0  0
    1.2524   -1.2447    2.4002 H   0  0  0  0  0  0  0  0  0  0  0  0
    0.1834   -0.9418    1.0466 H   0  0  0  0  0  0  0  0  0  0  0  0
    3.2821   -3.8620    0.3949 H   0  0  0  0  0  0  0  0  0  0  0  0
    3.3530   -2.8604    1.8641 H   0  0  0  0  0  0  0  0  0  0  0  0
    1.8643    1.2663   -1.0594 H   0  0  0  0  0  0  0  0  0  0  0  0
  1 17  1  0  0  0  0
  1 19  1  0  0  0  0
  1 10  1  0  0  0  0
  2 20  1  0  0  0  0
  3  2  1  0  0  0  0
  3 21  1  0  0  0  0
  4 22  1  0  0  0  0
  4  2  2  0  0  0  0
  5  9  1  0  0  0  0
  5  8  1  0  0  0  0
  5 24  1  0  0  0  0
  6  3  2  0  0  0  0
  7  4  1  0  0  0  0
  8 27  1  0  0  0  0
  9 30  1  0  0  0  0
 10 12  2  0  0  0  0
 11  7  2  0  0  0  0
 11  6  1  0  0  0  0
 12 13  1  0  0  0  0
 12  8  1  0  0  0  0
 13 14  2  0  0  0  0
 14 11  1  0  0  0  0
 15 13  1  0  0  0  0
 16 10  1  0  0  0  0
 16  9  1  0  0  0  0
 18  1  1  0  0  0  0
 23  5  1  0  0  0  0
 25  6  1  0  0  0  0
 26  7  1  0  0  0  0
 28  8  1  0  0  0  0
 29  9  1  0  0  0  0
 31 15  1  0  0  0  0
M  END
>  <HBA>
3

>  <HBD>
1

>  <TPSA>
38.33

>  <cid>
32597

>  <dipole>
4.33

>  <excitation_energy_1>
4.29

>  <excitation_energy_2>
4.822

>  <excitation_energy_3>
4.905

>  <excitation_energy_4>
5.085

>  <homo_energy>
-5.608

>  <homo_lumo_gap>
5.176

>  <logP>
2.783

>  <lumo_energy>
-0.433

>  <melting_point>
85.53

>  <molecular_refractivity>
63.29

>  <oscillator_strength_1>
0.0788

>  <oscillator_strength_2>
0.0568

>  <oscillator_strength_3>
0.0726

>  <oscillator_strength_4>
0.0516

>  <open_babel_can_smiles>
O/C(=N/c1ccccc1)/C1=C(C)OCCC1

>  <mulliken_charges>
31
1   -0.532412
2   -0.133025
3   -0.138769
4   -0.142568
5   -0.298923
6   -0.154577
7   -0.148807
8   -0.316895
9   -0.03818
10   0.35017
11   0.246986
12   -0.052939
13   0.408406
14   -0.481885
15   -0.575447
16   -0.491788
17   0.182571
18   0.170455
19   0.177496
20   0.121531
21   0.125324
22   0.123756
23   0.152424
24   0.148979
25   0.129969
26   0.122726
27   0.179169
28   0.155354
29   0.156184
30   0.153014
31   0.401702

>  <lowdin_charges>
31
1   -0.453812
2   -0.174911
3   -0.155665
4   -0.156467
5   -0.288667
6   -0.176973
7   -0.188307
8   -0.268426
9   -0.124823
10   0.099376
11   0.051313
12   -0.13969
13   0.145913
14   -0.175294
15   -0.362624
16   -0.204458
17   0.172184
18   0.166964
19   0.172133
20   0.153217
21   0.156182
22   0.154466
23   0.149341
24   0.158812
25   0.161436
26   0.157262
27   0.162856
28   0.156122
29   0.155786
30   0.144152
31   0.352605

$$$$

