PCCDB-ID:  4025
public computational chemistry database (PCCDB) project, http://pccdb.org

 33 33  0  0  1  0  0  0  0  0999 V2000
    0.3416    1.2488   -1.7781 C   0  0  0  0  0  0  0  0  0  0  0  0
    1.4011    0.7071   -0.8056 C   0  0  0  0  0  0  0  0  0  0  0  0
   -0.9783    1.5653   -1.0588 C   0  0  0  0  0  0  0  0  0  0  0  0
    1.8701   -1.0888    0.9860 C   0  0  0  0  0  0  0  0  0  0  0  0
   -2.7434    0.6951    0.5628 C   0  0  0  0  0  0  0  0  0  0  0  0
    2.0684   -0.3428    2.3162 C   0  0  0  0  0  0  0  0  0  0  0  0
   -3.3972   -0.5133    1.2367 C   0  0  0  0  0  0  0  0  0  0  0  0
    0.8417   -0.4747    0.0122 C   0  0  1  0  0  0  0  0  0  0  0  0
   -1.4613    0.3699   -0.2142 C   0  0  2  0  0  0  0  0  0  0  0  0
    1.1051   -0.8266    3.3141 N   0  0  0  0  0  0  0  0  0  0  0  0
   -4.6393   -0.1069    1.9118 N   0  0  0  0  0  0  0  0  0  0  0  0
   -0.4127   -0.1153    0.7077 N   0  0  0  0  0  0  0  0  0  0  0  0
    0.1537    0.4929   -2.5549 H   0  0  0  0  0  0  0  0  0  0  0  0
    0.7158    2.1397   -2.2981 H   0  0  0  0  0  0  0  0  0  0  0  0
    1.7213    1.5059   -0.1191 H   0  0  0  0  0  0  0  0  0  0  0  0
    2.2961    0.3916   -1.3587 H   0  0  0  0  0  0  0  0  0  0  0  0
   -1.7500    1.8512   -1.7861 H   0  0  0  0  0  0  0  0  0  0  0  0
   -0.8397    2.4313   -0.3926 H   0  0  0  0  0  0  0  0  0  0  0  0
    1.5696   -2.1131    1.2365 H   0  0  0  0  0  0  0  0  0  0  0  0
    2.8287   -1.1589    0.4563 H   0  0  0  0  0  0  0  0  0  0  0  0
   -2.5155    1.4607    1.3232 H   0  0  0  0  0  0  0  0  0  0  0  0
   -3.4745    1.1514   -0.1158 H   0  0  0  0  0  0  0  0  0  0  0  0
    2.0296    0.7502    2.1393 H   0  0  0  0  0  0  0  0  0  0  0  0
    3.0762   -0.5466    2.6993 H   0  0  0  0  0  0  0  0  0  0  0  0
   -2.6622   -1.0046    1.8938 H   0  0  0  0  0  0  0  0  0  0  0  0
   -3.6669   -1.2468    0.4653 H   0  0  0  0  0  0  0  0  0  0  0  0
    0.5693   -1.2643   -0.7041 H   0  0  0  0  0  0  0  0  0  0  0  0
   -1.6758   -0.4668   -0.8977 H   0  0  0  0  0  0  0  0  0  0  0  0
    0.1694   -0.8097    2.9115 H   0  0  0  0  0  0  0  0  0  0  0  0
    1.0998   -0.2180    4.1308 H   0  0  0  0  0  0  0  0  0  0  0  0
   -4.4113    0.4934    2.7047 H   0  0  0  0  0  0  0  0  0  0  0  0
   -5.0914   -0.9279    2.3123 H   0  0  0  0  0  0  0  0  0  0  0  0
   -0.2038    0.6534    1.3494 H   0  0  0  0  0  0  0  0  0  0  0  0
  1  3  1  0  0  0  0
  1  2  1  0  0  0  0
  2 15  1  0  0  0  0
  2  8  1  0  0  0  0
  3 18  1  0  0  0  0
  3  9  1  0  0  0  0
  4 19  1  0  0  0  0
  4  6  1  0  0  0  0
  5  7  1  0  0  0  0
  5 21  1  0  0  0  0
  6 24  1  0  0  0  0
  6 10  1  0  0  0  0
  7 25  1  0  0  0  0
  7 11  1  0  0  0  0
  8 27  1  6  0  0  0
  8 12  1  0  0  0  0
  8  4  1  0  0  0  0
  9 28  1  6  0  0  0
  9  5  1  0  0  0  0
  9 12  1  0  0  0  0
 10 30  1  0  0  0  0
 11 32  1  0  0  0  0
 11 31  1  0  0  0  0
 12 33  1  0  0  0  0
 13  1  1  0  0  0  0
 14  1  1  0  0  0  0
 16  2  1  0  0  0  0
 17  3  1  0  0  0  0
 20  4  1  0  0  0  0
 22  5  1  0  0  0  0
 23  6  1  0  0  0  0
 26  7  1  0  0  0  0
 29 10  1  0  0  0  0
M  END
>  <HBA>
3

>  <HBD>
3

>  <TPSA>
64.07

>  <cid>
4025

>  <dipole>
1.5

>  <excitation_energy_1>
5.163

>  <excitation_energy_2>
5.41

>  <excitation_energy_3>
5.449

>  <excitation_energy_4>
5.515

>  <homo_energy>
-5.78

>  <homo_lumo_gap>
7.695

>  <logP>
1.924

>  <lumo_energy>
1.916

>  <melting_point>
129.7

>  <molecular_refractivity>
55.39

>  <oscillator_strength_1>
0.0095

>  <oscillator_strength_2>
0.0123

>  <oscillator_strength_3>
0.0046

>  <oscillator_strength_4>
0.0056

>  <open_babel_can_smiles>
NCC[C@@H]1CCC[C@@H](N1)CCN

>  <mulliken_charges>
33
1   -0.267157
2   -0.266521
3   -0.261556
4   -0.269898
5   -0.255166
6   -0.138285
7   -0.138335
8   0.032025
9   0.032146
10   -0.734392
11   -0.719145
12   -0.563115
13   0.129982
14   0.133734
15   0.12484
16   0.129662
17   0.132506
18   0.120316
19   0.157197
20   0.130244
21   0.111889
22   0.148584
23   0.104014
24   0.13991
25   0.135161
26   0.13446
27   0.126586
28   0.125781
29   0.312824
30   0.28652
31   0.287865
32   0.294541
33   0.282782

>  <lowdin_charges>
33
1   -0.280432
2   -0.297201
3   -0.293415
4   -0.285117
5   -0.283026
6   -0.203547
7   -0.209609
8   -0.071058
9   -0.068392
10   -0.570734
11   -0.562216
12   -0.35997
13   0.139523
14   0.145507
15   0.136314
16   0.144523
17   0.146977
18   0.135425
19   0.156292
20   0.146377
21   0.132369
22   0.1543
23   0.107128
24   0.142352
25   0.12871
26   0.140757
27   0.13978
28   0.136948
29   0.254446
30   0.24993
31   0.249067
32   0.254409
33   0.243583

$$$$

