PCCDB-ID:  52425
public computational chemistry database (PCCDB) project, http://pccdb.org

 30 32  0  0  0  0  0  0  0  0999 V2000
    0.9808    0.0521    0.0844 C   0  0  0  0  0  0  0  0  0  0  0  0
    6.3779   -4.5672    0.4340 C   0  0  0  0  0  0  0  0  0  0  0  0
    5.2283   -5.3015   -0.2772 C   0  0  0  0  0  0  0  0  0  0  0  0
    6.4479   -3.0799    0.0316 C   0  0  0  0  0  0  0  0  0  0  0  0
    3.8534   -4.7158    0.1059 C   0  0  0  0  0  0  0  0  0  0  0  0
    4.6428    1.3130   -0.0036 C   0  0  0  0  0  0  0  0  0  0  0  0
    5.3662    0.1342   -0.0003 C   0  0  0  0  0  0  0  0  0  0  0  0
    2.5360    2.5612    0.0190 C   0  0  0  0  0  0  0  0  0  0  0  0
    2.4868    0.1035    0.0569 C   0  0  0  0  0  0  0  0  0  0  0  0
    3.2224    1.3040    0.0237 C   0  0  0  0  0  0  0  0  0  0  0  0
    5.0749   -2.4674    0.0453 C   0  0  0  0  0  0  0  0  0  0  0  0
    4.6731   -1.0893    0.0314 C   0  0  0  0  0  0  0  0  0  0  0  0
    3.9243   -3.2208    0.0753 C   0  0  0  0  0  0  0  0  0  0  0  0
    3.2493   -1.0684    0.0595 C   0  0  0  0  0  0  0  0  0  0  0  0
    1.9813    3.5855    0.0150 N   0  0  0  0  0  0  0  0  0  0  0  0
    2.8228   -2.3836    0.0859 N   0  0  0  0  0  0  0  0  0  0  0  0
    0.5444    1.0533    0.0996 H   0  0  0  0  0  0  0  0  0  0  0  0
    0.6188   -0.4833    0.9724 H   0  0  0  0  0  0  0  0  0  0  0  0
    0.5858   -0.4705   -0.7972 H   0  0  0  0  0  0  0  0  0  0  0  0
    7.3317   -5.0594    0.2105 H   0  0  0  0  0  0  0  0  0  0  0  0
    6.2310   -4.6408    1.5206 H   0  0  0  0  0  0  0  0  0  0  0  0
    5.2510   -6.3704   -0.0361 H   0  0  0  0  0  0  0  0  0  0  0  0
    5.3637   -5.2175   -1.3640 H   0  0  0  0  0  0  0  0  0  0  0  0
    6.8975   -2.9895   -0.9693 H   0  0  0  0  0  0  0  0  0  0  0  0
    7.1204   -2.5419    0.7130 H   0  0  0  0  0  0  0  0  0  0  0  0
    3.5675   -5.0603    1.1119 H   0  0  0  0  0  0  0  0  0  0  0  0
    3.0766   -5.0867   -0.5774 H   0  0  0  0  0  0  0  0  0  0  0  0
    5.1529    2.2703   -0.0272 H   0  0  0  0  0  0  0  0  0  0  0  0
    6.4520    0.1576   -0.0217 H   0  0  0  0  0  0  0  0  0  0  0  0
    1.8615   -2.6869    0.1019 H   0  0  0  0  0  0  0  0  0  0  0  0
  1 17  1  0  0  0  0
  1 18  1  0  0  0  0
  2 21  1  0  0  0  0
  3 22  1  0  0  0  0
  3  5  1  0  0  0  0
  3  2  1  0  0  0  0
  4 11  1  0  0  0  0
  4  2  1  0  0  0  0
  4 25  1  0  0  0  0
  5 26  1  0  0  0  0
  6  7  2  0  0  0  0
  6 10  1  0  0  0  0
  7 12  1  0  0  0  0
  8 10  1  0  0  0  0
  9 14  1  0  0  0  0
  9  1  1  0  0  0  0
 10  9  2  0  0  0  0
 11 13  2  0  0  0  0
 12 11  1  0  0  0  0
 12 14  2  0  0  0  0
 13 16  1  0  0  0  0
 13  5  1  0  0  0  0
 14 16  1  0  0  0  0
 15  8  3  0  0  0  0
 16 30  1  0  0  0  0
 19  1  1  0  0  0  0
 20  2  1  0  0  0  0
 23  3  1  0  0  0  0
 24  4  1  0  0  0  0
 27  5  1  0  0  0  0
 28  6  1  0  0  0  0
 29  7  1  0  0  0  0
M  END
>  <HBA>
1

>  <HBD>
1

>  <TPSA>
39.58

>  <cid>
52425

>  <dipole>
6.97

>  <excitation_energy_1>
4.19

>  <excitation_energy_2>
4.503

>  <excitation_energy_3>
4.722

>  <excitation_energy_4>
5.132

>  <homo_energy>
-5.611

>  <homo_lumo_gap>
4.667

>  <logP>
3.227

>  <lumo_energy>
-0.944

>  <melting_point>
169.43

>  <molecular_refractivity>
65.41

>  <oscillator_strength_1>
0.1945

>  <oscillator_strength_2>
0.0636

>  <oscillator_strength_3>
0.0031

>  <oscillator_strength_4>
0.0064

>  <open_babel_can_smiles>
N#Cc1ccc2c(c1C)[nH]c1c2CCCC1

>  <mulliken_charges>
30
1   -0.554872
2   -0.270353
3   -0.266034
4   -0.335368
5   -0.347472
6   -0.153633
7   -0.217999
8   0.218943
9   0.156579
10   0.067578
11   0.040797
12   0.09536
13   0.318326
14   0.24962
15   -0.506935
16   -0.779307
17   0.19357
18   0.160981
19   0.162524
20   0.137834
21   0.140996
22   0.139023
23   0.14575
24   0.147443
25   0.146415
26   0.157563
27   0.147681
28   0.145732
29   0.133093
30   0.326165

>  <lowdin_charges>
30
1   -0.448569
2   -0.271647
3   -0.267445
4   -0.271618
5   -0.280084
6   -0.154921
7   -0.160976
8   -0.015274
9   -0.002682
10   -0.046041
11   -0.075379
12   -0.020897
13   0.024402
14   0.025256
15   -0.143316
16   -0.20233
17   0.180426
18   0.160277
19   0.161114
20   0.147924
21   0.141614
22   0.146858
23   0.144237
24   0.147746
25   0.153463
26   0.153894
27   0.154237
28   0.169059
29   0.159816
30   0.290856

$$$$

