PCCDB-ID:  1366
public computational chemistry database (PCCDB) project, http://pccdb.org

 23 23  0  0  0  0  0  0  0  0999 V2000
    0.6828    1.4049   -0.2507 C   0  0  0  0  0  0  0  0  0  0  0  0
    1.4891    0.1501    0.1144 C   0  0  0  0  0  0  0  0  0  0  0  0
   -0.7321    1.3494    0.3437 C   0  0  0  0  0  0  0  0  0  0  0  0
    0.7575   -1.1303   -0.3145 C   0  0  0  0  0  0  0  0  0  0  0  0
   -1.4699    0.0725   -0.0842 C   0  0  0  0  0  0  0  0  0  0  0  0
   -1.4099   -2.4573   -0.2889 C   0  0  0  0  0  0  0  0  0  0  0  0
   -0.6763   -1.2129    0.2773 C   0  0  0  0  0  0  0  0  0  0  0  0
   -0.5727   -1.2999    1.7339 N   0  0  0  0  0  0  0  0  0  0  0  0
   -1.8272   -3.3525    0.4051 O   0  0  0  0  0  0  0  0  0  0  0  0
   -1.5814   -2.5201   -1.6378 O   0  0  0  0  0  0  0  0  0  0  0  0
    0.6157    1.4907   -1.3466 H   0  0  0  0  0  0  0  0  0  0  0  0
    1.2045    2.3042    0.0991 H   0  0  0  0  0  0  0  0  0  0  0  0
    1.6489    0.1213    1.1977 H   0  0  0  0  0  0  0  0  0  0  0  0
    2.4778    0.1783   -0.3606 H   0  0  0  0  0  0  0  0  0  0  0  0
   -1.3136    2.2257    0.0309 H   0  0  0  0  0  0  0  0  0  0  0  0
   -0.6700    1.3734    1.4371 H   0  0  0  0  0  0  0  0  0  0  0  0
    1.3233   -2.0202   -0.0080 H   0  0  0  0  0  0  0  0  0  0  0  0
    0.7087   -1.1642   -1.4126 H   0  0  0  0  0  0  0  0  0  0  0  0
   -1.6470    0.1068   -1.1691 H   0  0  0  0  0  0  0  0  0  0  0  0
   -2.4622    0.0244    0.3837 H   0  0  0  0  0  0  0  0  0  0  0  0
   -0.1006   -2.1725    1.9725 H   0  0  0  0  0  0  0  0  0  0  0  0
   -1.5115   -1.4116    2.1178 H   0  0  0  0  0  0  0  0  0  0  0  0
   -1.1961   -1.7347   -2.0594 H   0  0  0  0  0  0  0  0  0  0  0  0
  1 12  1  0  0  0  0
  1  2  1  0  0  0  0
  1  3  1  0  0  0  0
  2 13  1  0  0  0  0
  3 16  1  0  0  0  0
  4 17  1  0  0  0  0
  4  2  1  0  0  0  0
  4  7  1  0  0  0  0
  5  7  1  0  0  0  0
  5  3  1  0  0  0  0
  5 20  1  0  0  0  0
  6  7  1  0  0  0  0
  6  9  2  0  0  0  0
  7  8  1  0  0  0  0
  8 21  1  0  0  0  0
  8 22  1  0  0  0  0
 10  6  1  0  0  0  0
 11  1  1  0  0  0  0
 14  2  1  0  0  0  0
 15  3  1  0  0  0  0
 18  4  1  0  0  0  0
 19  5  1  0  0  0  0
 23 10  1  0  0  0  0
M  END
>  <HBA>
3

>  <HBD>
2

>  <TPSA>
63.32

>  <cid>
1366

>  <dipole>
3.33

>  <excitation_energy_1>
5.552

>  <excitation_energy_2>
5.842

>  <excitation_energy_3>
5.923

>  <excitation_energy_4>
6.388

>  <homo_energy>
-6.754

>  <homo_lumo_gap>
7.004

>  <logP>
1.433

>  <lumo_energy>
0.25

>  <melting_point>
137.78

>  <molecular_refractivity>
38.17

>  <oscillator_strength_1>
0.0014

>  <oscillator_strength_2>
0.0019

>  <oscillator_strength_3>
0.0

>  <oscillator_strength_4>
0.0193

>  <open_babel_can_smiles>
OC(=O)C1(N)CCCCC1

>  <mulliken_charges>
23
1   -0.264571
2   -0.250653
3   -0.250838
4   -0.272854
5   -0.272638
6   0.586233
7   0.055668
8   -0.702027
9   -0.45245
10   -0.573254
11   0.120381
12   0.138098
13   0.162005
14   0.132637
15   0.132663
16   0.162017
17   0.146864
18   0.114458
19   0.114595
20   0.146896
21   0.306838
22   0.306998
23   0.412935

>  <lowdin_charges>
23
1   -0.275018
2   -0.274683
3   -0.276064
4   -0.277474
5   -0.276352
6   0.179297
7   0.011597
8   -0.526033
9   -0.247108
10   -0.358151
11   0.13065
12   0.148551
13   0.154341
14   0.144905
15   0.14611
16   0.154096
17   0.152218
18   0.13093
19   0.131229
20   0.151107
21   0.260996
22   0.26058
23   0.354277

$$$$

