PCCDB-ID:  73511
public computational chemistry database (PCCDB) project, http://pccdb.org

 24 26  0  0  1  0  0  0  0  0999 V2000
    0.9834    0.0331   -0.1175 C   0  0  0  0  0  0  0  0  0  0  0  0
    2.6089   -1.2074    2.3703 C   0  0  0  0  0  0  0  0  0  0  0  0
    2.5282   -2.5715    0.2358 C   0  0  0  0  0  0  0  0  0  0  0  0
    3.1443   -2.4595    1.6355 C   0  0  1  0  0  0  0  0  0  0  0  0
    2.9047    0.0545    1.5119 C   0  0  1  0  0  0  0  0  0  0  0  0
    3.1149   -1.2808   -0.3727 C   0  0  2  0  0  0  0  0  0  0  0  0
    4.4087    0.1300    1.1750 C   0  0  1  0  0  0  0  0  0  0  0  0
    4.5114   -1.1805    0.3632 C   0  0  1  0  0  0  0  0  0  0  0  0
    2.4108   -0.0755    0.1221 N   0  0  0  0  0  0  0  0  0  0  0  0
    4.7191    1.2880    0.4290 O   0  0  0  0  0  0  0  0  0  0  0  0
    4.5312   -2.2603    1.3107 O   0  0  0  0  0  0  0  0  0  0  0  0
    0.3625   -0.7220    0.3941 H   0  0  0  0  0  0  0  0  0  0  0  0
    0.6410    1.0216    0.2083 H   0  0  0  0  0  0  0  0  0  0  0  0
    0.7910   -0.0508   -1.1933 H   0  0  0  0  0  0  0  0  0  0  0  0
    1.5312   -1.3069    2.5558 H   0  0  0  0  0  0  0  0  0  0  0  0
    3.1007   -1.1159    3.3463 H   0  0  0  0  0  0  0  0  0  0  0  0
    1.4352   -2.6026    0.2131 H   0  0  0  0  0  0  0  0  0  0  0  0
    2.9147   -3.4639   -0.2677 H   0  0  0  0  0  0  0  0  0  0  0  0
    3.0763   -3.3623    2.2479 H   0  0  0  0  0  0  0  0  0  0  0  0
    2.5180    0.9708    1.9704 H   0  0  0  0  0  0  0  0  0  0  0  0
    3.1673   -1.2786   -1.4652 H   0  0  0  0  0  0  0  0  0  0  0  0
    5.0711    0.1009    2.0426 H   0  0  0  0  0  0  0  0  0  0  0  0
    5.3929   -1.2457   -0.2768 H   0  0  0  0  0  0  0  0  0  0  0  0
    3.9660    1.3739   -0.1875 H   0  0  0  0  0  0  0  0  0  0  0  0
  1  9  1  0  0  0  0
  1 13  1  0  0  0  0
  1 12  1  0  0  0  0
  2 15  1  0  0  0  0
  2 16  1  0  0  0  0
  3  4  1  0  0  0  0
  4 19  1  1  0  0  0
  4  2  1  0  0  0  0
  5 20  1  1  0  0  0
  5  2  1  0  0  0  0
  6 21  1  6  0  0  0
  6  9  1  0  0  0  0
  6  3  1  0  0  0  0
  6  8  1  0  0  0  0
  7  5  1  0  0  0  0
  7 22  1  1  0  0  0
  8 23  1  6  0  0  0
  8  7  1  0  0  0  0
  8 11  1  0  0  0  0
  9  5  1  0  0  0  0
 10  7  1  0  0  0  0
 11  4  1  0  0  0  0
 14  1  1  0  0  0  0
 17  3  1  0  0  0  0
 18  3  1  0  0  0  0
 24 10  1  0  0  0  0
M  END
>  <HBA>
3

>  <HBD>
1

>  <TPSA>
32.7

>  <cid>
73511

>  <dipole>
3.35

>  <excitation_energy_1>
5.211

>  <excitation_energy_2>
5.715

>  <excitation_energy_3>
5.82

>  <excitation_energy_4>
5.902

>  <homo_energy>
-5.935

>  <homo_lumo_gap>
7.84

>  <logP>
-0.471

>  <lumo_energy>
1.905

>  <melting_point>
52.15

>  <molecular_refractivity>
43.29

>  <oscillator_strength_1>
0.0023

>  <oscillator_strength_2>
0.011

>  <oscillator_strength_3>
0.0041

>  <oscillator_strength_4>
0.0098

>  <open_babel_can_smiles>
CN1[C@H]2C[C@H]3C[C@@H]1[C@@H]([C@H]2O)O3

>  <mulliken_charges>
24
1   -0.306417
2   -0.272317
3   -0.265445
4   0.095928
5   -0.036298
6   -0.019918
7   0.17108
8   0.081931
9   -0.419342
10   -0.644124
11   -0.492876
12   0.129231
13   0.155256
14   0.154241
15   0.136626
16   0.150397
17   0.140092
18   0.150882
19   0.136326
20   0.135418
21   0.136687
22   0.142808
23   0.14393
24   0.395905

>  <lowdin_charges>
24
1   -0.358968
2   -0.305041
3   -0.303904
4   -0.003864
5   -0.087855
6   -0.08454
7   -0.024984
8   -0.028721
9   -0.192395
10   -0.460801
11   -0.274834
12   0.127109
13   0.153834
14   0.152083
15   0.146176
16   0.155284
17   0.147591
18   0.156559
19   0.149482
20   0.14862
21   0.14558
22   0.151389
23   0.154788
24   0.337413

$$$$

