PCCDB-ID:  23223
public computational chemistry database (PCCDB) project, http://pccdb.org

 32 32  0  0  0  0  0  0  0  0999 V2000
    2.1629    0.9720    0.3876 C   0  0  0  0  0  0  0  0  0  0  0  0
    4.7457   -2.5138   -1.6799 C   0  0  0  0  0  0  0  0  0  0  0  0
    2.6633   -1.8907   -2.6891 C   0  0  0  0  0  0  0  0  0  0  0  0
    4.5559   -1.5663   -0.6815 C   0  0  0  0  0  0  0  0  0  0  0  0
    2.4528   -0.9307   -1.6950 C   0  0  0  0  0  0  0  0  0  0  0  0
    4.0411   -3.7052   -3.8088 C   0  0  0  0  0  0  0  0  0  0  0  0
    4.6534   -3.0765   -5.0727 C   0  0  0  0  0  0  0  0  0  0  0  0
    3.8056   -2.6966   -2.7067 C   0  0  0  0  0  0  0  0  0  0  0  0
    3.4056   -0.7653   -0.6835 C   0  0  0  0  0  0  0  0  0  0  0  0
    6.2916   -2.1072   -8.8564 C   0  0  0  0  0  0  0  0  0  0  0  0
    5.3413   -3.7773   -7.2228 C   0  0  0  0  0  0  0  0  0  0  0  0
    6.6229   -2.7503   -9.8968 N   0  0  0  0  0  0  0  0  0  0  0  0
    4.8589   -4.0956   -6.0899 N   0  0  0  0  0  0  0  0  0  0  0  0
    5.7138   -2.5139   -7.6468 N   0  0  0  0  0  0  0  0  0  0  0  0
    6.4809   -0.7616   -8.7770 O   0  0  0  0  0  0  0  0  0  0  0  0
    5.5333   -4.7333   -8.1677 O   0  0  0  0  0  0  0  0  0  0  0  0
    3.3067    0.1359    0.3399 O   0  0  0  0  0  0  0  0  0  0  0  0
    2.2893    1.6034    1.2691 H   0  0  0  0  0  0  0  0  0  0  0  0
    1.2382    0.3883    0.4909 H   0  0  0  0  0  0  0  0  0  0  0  0
    2.0895    1.6068   -0.5056 H   0  0  0  0  0  0  0  0  0  0  0  0
    5.6415   -3.1307   -1.6630 H   0  0  0  0  0  0  0  0  0  0  0  0
    1.9102   -2.0136   -3.4647 H   0  0  0  0  0  0  0  0  0  0  0  0
    5.2830   -1.4311    0.1132 H   0  0  0  0  0  0  0  0  0  0  0  0
    1.5507   -0.3299   -1.7158 H   0  0  0  0  0  0  0  0  0  0  0  0
    4.7154   -4.4982   -3.4646 H   0  0  0  0  0  0  0  0  0  0  0  0
    3.1027   -4.1956   -4.0950 H   0  0  0  0  0  0  0  0  0  0  0  0
    5.6033   -2.5861   -4.7983 H   0  0  0  0  0  0  0  0  0  0  0  0
    3.9796   -2.2787   -5.4298 H   0  0  0  0  0  0  0  0  0  0  0  0
    6.4208   -3.7427   -9.8102 H   0  0  0  0  0  0  0  0  0  0  0  0
    5.5779   -1.7688   -6.9774 H   0  0  0  0  0  0  0  0  0  0  0  0
    6.8924   -0.5171   -9.6244 H   0  0  0  0  0  0  0  0  0  0  0  0
    5.2461   -5.5590   -7.7368 H   0  0  0  0  0  0  0  0  0  0  0  0
  1 19  1  0  0  0  0
  1 18  1  0  0  0  0
  2 21  1  0  0  0  0
  2  4  2  0  0  0  0
  3  5  1  0  0  0  0
  4 23  1  0  0  0  0
  5  9  2  0  0  0  0
  6 25  1  0  0  0  0
  6  8  1  0  0  0  0
  7 27  1  0  0  0  0
  7  6  1  0  0  0  0
  8  3  2  0  0  0  0
  8  2  1  0  0  0  0
  9  4  1  0  0  0  0
  9 17  1  0  0  0  0
 10 15  1  0  0  0  0
 10 14  1  0  0  0  0
 11 13  2  0  0  0  0
 12 29  1  0  0  0  0
 12 10  2  0  0  0  0
 13  7  1  0  0  0  0
 14 11  1  0  0  0  0
 14 30  1  0  0  0  0
 16 32  1  0  0  0  0
 16 11  1  0  0  0  0
 17  1  1  0  0  0  0
 20  1  1  0  0  0  0
 22  3  1  0  0  0  0
 24  5  1  0  0  0  0
 26  6  1  0  0  0  0
 28  7  1  0  0  0  0
 31 15  1  0  0  0  0
M  END
>  <HBA>
6

>  <HBD>
3

>  <TPSA>
93.45

>  <cid>
23223

>  <dipole>
2.21

>  <excitation_energy_1>
4.927

>  <excitation_energy_2>
5.278

>  <excitation_energy_3>
5.471

>  <excitation_energy_4>
5.485

>  <homo_energy>
-5.799

>  <homo_lumo_gap>
5.791

>  <logP>
2.098

>  <lumo_energy>
-0.008

>  <melting_point>
183.32

>  <molecular_refractivity>
61.81

>  <oscillator_strength_1>
0.0324

>  <oscillator_strength_2>
0.0103

>  <oscillator_strength_3>
0.0043

>  <oscillator_strength_4>
0.0068

>  <open_babel_can_smiles>
COc1ccc(cc1)CC/N=C(\NC(=N)O)/O

>  <mulliken_charges>
32
1   -0.21388
2   -0.187731
3   -0.193081
4   -0.170685
5   -0.193881
6   -0.349376
7   -0.155902
8   0.164687
9   0.372373
10   0.658428
11   0.733562
12   -0.643397
13   -0.495926
14   -0.695871
15   -0.60937
16   -0.613139
17   -0.507663
18   0.169228
19   0.151213
20   0.150538
21   0.125418
22   0.123899
23   0.136846
24   0.129941
25   0.15036
26   0.151264
27   0.137826
28   0.133993
29   0.32595
30   0.364457
31   0.426032
32   0.423888

>  <lowdin_charges>
32
1   -0.278384
2   -0.157383
3   -0.158569
4   -0.182656
5   -0.21397
6   -0.272924
7   -0.204451
8   -0.02407
9   0.09988
10   0.171147
11   0.169971
12   -0.453667
13   -0.278558
14   -0.262055
15   -0.382705
16   -0.366069
17   -0.200549
18   0.162865
19   0.144623
20   0.144572
21   0.156136
22   0.155192
23   0.166759
24   0.161635
25   0.154869
26   0.154387
27   0.135179
28   0.133629
29   0.274528
30   0.307796
31   0.371157
32   0.371682

$$$$

