PCCDB-ID:  7294
public computational chemistry database (PCCDB) project, http://pccdb.org

 12 11  0  0  0  0  0  0  0  0999 V2000
    1.0296    0.1062   -0.1699 C   0  0  0  0  0  0  0  0  0  0  0  0
    5.5840   -0.9224    0.9238 C   0  0  0  0  0  0  0  0  0  0  0  0
    2.3446    0.3179   -0.2533 C   0  0  0  0  0  0  0  0  0  0  0  0
    3.3000   -0.5457    0.4860 C   0  0  0  0  0  0  0  0  0  0  0  0
    3.0063   -1.4818    1.2022 O   0  0  0  0  0  0  0  0  0  0  0  0
    4.5751   -0.1501    0.2561 O   0  0  0  0  0  0  0  0  0  0  0  0
    0.3162    0.7262   -0.7042 H   0  0  0  0  0  0  0  0  0  0  0  0
    0.6415   -0.7028    0.4425 H   0  0  0  0  0  0  0  0  0  0  0  0
    6.5359   -0.4805    0.6277 H   0  0  0  0  0  0  0  0  0  0  0  0
    5.5335   -1.9702    0.6151 H   0  0  0  0  0  0  0  0  0  0  0  0
    5.4553   -0.8675    2.0083 H   0  0  0  0  0  0  0  0  0  0  0  0
    2.7687    1.1165   -0.8546 H   0  0  0  0  0  0  0  0  0  0  0  0
  1  8  1  0  0  0  0
  2 11  1  0  0  0  0
  3  1  2  0  0  0  0
  3  4  1  0  0  0  0
  4  5  2  0  0  0  0
  6  4  1  0  0  0  0
  6  2  1  0  0  0  0
  7  1  1  0  0  0  0
  9  2  1  0  0  0  0
 10  2  1  0  0  0  0
 12  3  1  0  0  0  0
M  END
>  <HBA>
2

>  <HBD>
0

>  <TPSA>
26.3

>  <cid>
7294

>  <dipole>
1.5

>  <excitation_energy_1>
4.76

>  <excitation_energy_2>
6.212

>  <excitation_energy_3>
6.367

>  <excitation_energy_4>
7.182

>  <homo_energy>
-7.423

>  <homo_lumo_gap>
6.223

>  <logP>
0.345

>  <lumo_energy>
-1.2

>  <melting_point>
-33.39

>  <molecular_refractivity>
22.15

>  <oscillator_strength_1>
0.0001

>  <oscillator_strength_2>
0.1732

>  <oscillator_strength_3>
0.2597

>  <oscillator_strength_4>
0.0012

>  <open_babel_can_smiles>
COC(=O)C=C

>  <mulliken_charges>
12
1   -0.302362
2   -0.21745
3   -0.131325
4   0.602942
5   -0.489986
6   -0.460105
7   0.157396
8   0.180714
9   0.164
10   0.171215
11   0.170941
12   0.154018

>  <lowdin_charges>
12
1   -0.267719
2   -0.275503
3   -0.186176
4   0.192971
5   -0.269735
6   -0.192052
7   0.170289
8   0.180457
9   0.160117
10   0.158467
11   0.157621
12   0.171263

$$$$

