PCCDB-ID:  12581
public computational chemistry database (PCCDB) project, http://pccdb.org

 19 19  0  0  0  0  0  0  0  0999 V2000
   -2.0354    0.2264    0.0607 C   0  0  0  0  0  0  0  0  0  0  0  0
   -1.2603    1.3876    0.0583 C   0  0  0  0  0  0  0  0  0  0  0  0
   -1.4123   -1.0197   -0.0264 C   0  0  0  0  0  0  0  0  0  0  0  0
    2.8966   -0.1089    1.2507 C   0  0  0  0  0  0  0  0  0  0  0  0
    0.1296    1.3007   -0.0288 C   0  0  0  0  0  0  0  0  0  0  0  0
   -0.0220   -1.1019   -0.1137 C   0  0  0  0  0  0  0  0  0  0  0  0
    2.2770   -0.0374   -0.1699 C   0  0  0  0  0  0  0  0  0  0  0  0
    4.3594   -0.2003    1.2216 C   0  0  0  0  0  0  0  0  0  0  0  0
    0.7671    0.0559   -0.1142 C   0  0  0  0  0  0  0  0  0  0  0  0
    5.5171   -0.2720    1.1739 N   0  0  0  0  0  0  0  0  0  0  0  0
   -3.1181    0.2926    0.1239 H   0  0  0  0  0  0  0  0  0  0  0  0
   -1.7378    2.3620    0.1185 H   0  0  0  0  0  0  0  0  0  0  0  0
   -2.0084   -1.9283   -0.0326 H   0  0  0  0  0  0  0  0  0  0  0  0
    2.4986   -0.9777    1.7886 H   0  0  0  0  0  0  0  0  0  0  0  0
    2.6095    0.7773    1.8292 H   0  0  0  0  0  0  0  0  0  0  0  0
    0.7270    2.2102   -0.0374 H   0  0  0  0  0  0  0  0  0  0  0  0
    0.4568   -2.0762   -0.1889 H   0  0  0  0  0  0  0  0  0  0  0  0
    2.5839   -0.9257   -0.7327 H   0  0  0  0  0  0  0  0  0  0  0  0
    2.6946    0.8303   -0.6925 H   0  0  0  0  0  0  0  0  0  0  0  0
  1 11  1  0  0  0  0
  2  1  1  0  0  0  0
  2 12  1  0  0  0  0
  3  1  2  0  0  0  0
  4 14  1  0  0  0  0
  4 15  1  0  0  0  0
  5  2  2  0  0  0  0
  6  3  1  0  0  0  0
  7  9  1  0  0  0  0
  7  4  1  0  0  0  0
  8  4  1  0  0  0  0
  9  6  2  0  0  0  0
  9  5  1  0  0  0  0
 10  8  3  0  0  0  0
 13  3  1  0  0  0  0
 16  5  1  0  0  0  0
 17  6  1  0  0  0  0
 18  7  1  0  0  0  0
 19  7  1  0  0  0  0
M  END
>  <HBA>
1

>  <HBD>
0

>  <TPSA>
23.79

>  <cid>
12581

>  <dipole>
4.18

>  <excitation_energy_1>
5.306

>  <excitation_energy_2>
5.904

>  <excitation_energy_3>
6.139

>  <excitation_energy_4>
6.28

>  <homo_energy>
-6.906

>  <homo_lumo_gap>
6.536

>  <logP>
2.143

>  <lumo_energy>
-0.37

>  <melting_point>
39.72

>  <molecular_refractivity>
40.77

>  <oscillator_strength_1>
0.0001

>  <oscillator_strength_2>
0.0472

>  <oscillator_strength_3>
0.0038

>  <oscillator_strength_4>
0.0001

>  <open_babel_can_smiles>
N#CCCc1ccccc1

>  <mulliken_charges>
19
1   -0.128823
2   -0.127109
3   -0.127213
4   -0.337808
5   -0.180496
6   -0.180715
7   -0.356906
8   0.350573
9   0.166737
10   -0.471303
11   0.134198
12   0.134746
13   0.134797
14   0.197531
15   0.197383
16   0.128146
17   0.128222
18   0.168942
19   0.169099

>  <lowdin_charges>
19
1   -0.153049
2   -0.151946
3   -0.152841
4   -0.271846
5   -0.167107
6   -0.166218
7   -0.264146
8   -0.020595
9   -0.007497
10   -0.12811
11   0.15804
12   0.159948
13   0.160627
14   0.183188
15   0.18289
16   0.15678
17   0.156189
18   0.162687
19   0.163004

$$$$

