PCCDB-ID:  45097
public computational chemistry database (PCCDB) project, http://pccdb.org

 20 20  0  0  0  0  0  0  0  0999 V2000
    0.8986   -0.2114    0.0320 C   0  0  0  0  0  0  0  0  0  0  0  0
    3.2060   -1.1646    0.4240 C   0  0  0  0  0  0  0  0  0  0  0  0
    3.7762    1.7166   -3.0046 C   0  0  0  0  0  0  0  0  0  0  0  0
    3.6964    1.7094   -1.5711 C   0  0  0  0  0  0  0  0  0  0  0  0
    3.0005    0.6856   -3.4322 C   0  0  0  0  0  0  0  0  0  0  0  0
    2.8744    0.6753   -1.2320 C   0  0  0  0  0  0  0  0  0  0  0  0
    2.4091    0.1134    0.0891 C   0  0  0  0  0  0  0  0  0  0  0  0
    2.7385    1.1250    1.1119 N   0  0  0  0  0  0  0  0  0  0  0  0
    2.4406    0.0385   -2.3663 O   0  0  0  0  0  0  0  0  0  0  0  0
    0.6689   -0.9426   -0.7499 H   0  0  0  0  0  0  0  0  0  0  0  0
    0.3152    0.6939   -0.1732 H   0  0  0  0  0  0  0  0  0  0  0  0
    0.5697   -0.6219    0.9945 H   0  0  0  0  0  0  0  0  0  0  0  0
    3.0705   -1.9203   -0.3557 H   0  0  0  0  0  0  0  0  0  0  0  0
    2.8624   -1.5922    1.3750 H   0  0  0  0  0  0  0  0  0  0  0  0
    4.2710   -0.9315    0.5104 H   0  0  0  0  0  0  0  0  0  0  0  0
    4.3365    2.4016   -3.6262 H   0  0  0  0  0  0  0  0  0  0  0  0
    4.1908    2.3722   -0.8769 H   0  0  0  0  0  0  0  0  0  0  0  0
    2.7437    0.2922   -4.4040 H   0  0  0  0  0  0  0  0  0  0  0  0
    2.5105    0.7475    2.0314 H   0  0  0  0  0  0  0  0  0  0  0  0
    2.1396    1.9408    0.9818 H   0  0  0  0  0  0  0  0  0  0  0  0
  1  7  1  0  0  0  0
  1 12  1  0  0  0  0
  2 15  1  0  0  0  0
  2 14  1  0  0  0  0
  3  4  1  0  0  0  0
  4  6  2  0  0  0  0
  4 17  1  0  0  0  0
  5  3  2  0  0  0  0
  5  9  1  0  0  0  0
  6  7  1  0  0  0  0
  7  2  1  0  0  0  0
  7  8  1  0  0  0  0
  8 19  1  0  0  0  0
  9  6  1  0  0  0  0
 10  1  1  0  0  0  0
 11  1  1  0  0  0  0
 13  2  1  0  0  0  0
 16  3  1  0  0  0  0
 18  5  1  0  0  0  0
 20  8  1  0  0  0  0
M  END
>  <HBA>
2

>  <HBD>
1

>  <TPSA>
39.16

>  <cid>
45097

>  <dipole>
1.09

>  <excitation_energy_1>
5.33

>  <excitation_energy_2>
5.738

>  <excitation_energy_3>
5.785

>  <excitation_energy_4>
5.902

>  <homo_energy>
-5.739

>  <homo_lumo_gap>
6.395

>  <logP>
2.174

>  <lumo_energy>
0.656

>  <melting_point>
66.25

>  <molecular_refractivity>
35.88

>  <oscillator_strength_1>
0.0132

>  <oscillator_strength_2>
0.0615

>  <oscillator_strength_3>
0.174

>  <oscillator_strength_4>
0.022

>  <open_babel_can_smiles>
CC(c1ccco1)(N)C

>  <mulliken_charges>
20
1   -0.45035
2   -0.438389
3   -0.18807
4   -0.20498
5   0.080782
6   0.357672
7   0.104939
8   -0.715333
9   -0.455625
10   0.160112
11   0.140886
12   0.132899
13   0.155719
14   0.132553
15   0.164397
16   0.136261
17   0.147151
18   0.148469
19   0.29522
20   0.295686

>  <lowdin_charges>
20
1   -0.458034
2   -0.441036
3   -0.208276
4   -0.22007
5   -0.087429
6   0.061013
7   0.063407
8   -0.53919
9   -0.107063
10   0.159707
11   0.149177
12   0.144994
13   0.158351
14   0.144094
15   0.160244
16   0.167981
17   0.175843
18   0.167496
19   0.254378
20   0.254414

$$$$

