PCCDB-ID:  62072
public computational chemistry database (PCCDB) project, http://pccdb.org

 41 40  0  0  0  0  0  0  0  0999 V2000
    8.1907   -3.1218    4.5356 C   0  0  0  0  0  0  0  0  0  0  0  0
    7.1076   -2.0742    4.8205 C   0  0  0  0  0  0  0  0  0  0  0  0
    7.4840   -0.6398    4.4133 C   0  0  0  0  0  0  0  0  0  0  0  0
    7.6367   -0.4287    2.8936 C   0  0  0  0  0  0  0  0  0  0  0  0
    7.9946    0.9881    2.5305 C   0  0  0  0  0  0  0  0  0  0  0  0
    7.2500    1.7921    1.7656 C   0  0  0  0  0  0  0  0  0  0  0  0
    7.5582    3.2073    1.3335 C   0  0  0  0  0  0  0  0  0  0  0  0
    8.7116    3.9249    2.0547 C   0  0  0  0  0  0  0  0  0  0  0  0
    8.4372    4.3105    3.5201 C   0  0  0  0  0  0  0  0  0  0  0  0
    7.3962    5.4255    3.6965 C   0  0  0  0  0  0  0  0  0  0  0  0
    7.1685    5.8075    5.1651 C   0  0  0  0  0  0  0  0  0  0  0  0
    6.1269    6.9190    5.3476 C   0  0  0  0  0  0  0  0  0  0  0  0
    5.9148    7.3059    6.8242 C   0  0  0  0  0  0  0  0  0  0  0  0
    4.8181    8.3328    6.9877 C   0  0  0  0  0  0  0  0  0  0  0  0
    4.9510    9.4158    7.5131 O   0  0  0  0  0  0  0  0  0  0  0  0
    7.8858   -4.1108    4.8963 H   0  0  0  0  0  0  0  0  0  0  0  0
    9.1319   -2.8614    5.0362 H   0  0  0  0  0  0  0  0  0  0  0  0
    8.4008   -3.2150    3.4641 H   0  0  0  0  0  0  0  0  0  0  0  0
    6.8796   -2.0823    5.8948 H   0  0  0  0  0  0  0  0  0  0  0  0
    6.1765   -2.3612    4.3109 H   0  0  0  0  0  0  0  0  0  0  0  0
    8.4211   -0.3550    4.9146 H   0  0  0  0  0  0  0  0  0  0  0  0
    6.7166    0.0529    4.7839 H   0  0  0  0  0  0  0  0  0  0  0  0
    6.7031   -0.7162    2.3906 H   0  0  0  0  0  0  0  0  0  0  0  0
    8.4159   -1.1057    2.5137 H   0  0  0  0  0  0  0  0  0  0  0  0
    8.9358    1.3539    2.9439 H   0  0  0  0  0  0  0  0  0  0  0  0
    6.3144    1.3920    1.3675 H   0  0  0  0  0  0  0  0  0  0  0  0
    6.6392    3.8050    1.4206 H   0  0  0  0  0  0  0  0  0  0  0  0
    7.7744    3.1922    0.2534 H   0  0  0  0  0  0  0  0  0  0  0  0
    8.9562    4.8357    1.4905 H   0  0  0  0  0  0  0  0  0  0  0  0
    9.6108    3.2968    2.0073 H   0  0  0  0  0  0  0  0  0  0  0  0
    9.3817    4.6384    3.9771 H   0  0  0  0  0  0  0  0  0  0  0  0
    8.1164    3.4236    4.0814 H   0  0  0  0  0  0  0  0  0  0  0  0
    6.4376    5.1185    3.2556 H   0  0  0  0  0  0  0  0  0  0  0  0
    7.7197    6.3155    3.1363 H   0  0  0  0  0  0  0  0  0  0  0  0
    8.1215    6.1271    5.6110 H   0  0  0  0  0  0  0  0  0  0  0  0
    6.8515    4.9174    5.7282 H   0  0  0  0  0  0  0  0  0  0  0  0
    5.1695    6.5960    4.9137 H   0  0  0  0  0  0  0  0  0  0  0  0
    6.4365    7.8088    4.7828 H   0  0  0  0  0  0  0  0  0  0  0  0
    6.8325    7.7017    7.2720 H   0  0  0  0  0  0  0  0  0  0  0  0
    5.6192    6.4082    7.3899 H   0  0  0  0  0  0  0  0  0  0  0  0
    3.8310    8.0257    6.5673 H   0  0  0  0  0  0  0  0  0  0  0  0
  1  2  1  0  0  0  0
  1 16  1  0  0  0  0
  1 17  1  0  0  0  0
  2 19  1  0  0  0  0
  3 22  1  0  0  0  0
  3  2  1  0  0  0  0
  3 21  1  0  0  0  0
  4  3  1  0  0  0  0
  5  4  1  0  0  0  0
  5 25  1  0  0  0  0
  6  5  2  0  0  0  0
  7 27  1  0  0  0  0
  7  6  1  0  0  0  0
  7  8  1  0  0  0  0
  8  9  1  0  0  0  0
  9 10  1  0  0  0  0
  9 31  1  0  0  0  0
  9 32  1  0  0  0  0
 10 11  1  0  0  0  0
 11 12  1  0  0  0  0
 11 35  1  0  0  0  0
 11 36  1  0  0  0  0
 12 13  1  0  0  0  0
 13 14  1  0  0  0  0
 13 39  1  0  0  0  0
 13 40  1  0  0  0  0
 14 15  2  0  0  0  0
 18  1  1  0  0  0  0
 20  2  1  0  0  0  0
 23  4  1  0  0  0  0
 24  4  1  0  0  0  0
 26  6  1  0  0  0  0
 28  7  1  0  0  0  0
 29  8  1  0  0  0  0
 30  8  1  0  0  0  0
 33 10  1  0  0  0  0
 34 10  1  0  0  0  0
 37 12  1  0  0  0  0
 38 12  1  0  0  0  0
 41 14  1  0  0  0  0
M  END
>  <HBA>
1

>  <HBD>
0

>  <TPSA>
17.07

>  <cid>
62072

>  <dipole>
3.06

>  <excitation_energy_1>
4.221

>  <excitation_energy_2>
5.31

>  <excitation_energy_3>
5.925

>  <excitation_energy_4>
6.084

>  <homo_energy>
-6.433

>  <homo_lumo_gap>
5.889

>  <logP>
4.662

>  <lumo_energy>
-0.544

>  <melting_point>
9.64

>  <molecular_refractivity>
69.14

>  <oscillator_strength_1>
0.0005

>  <oscillator_strength_2>
0.0

>  <oscillator_strength_3>
0.0069

>  <oscillator_strength_4>
0.0044

>  <open_babel_can_smiles>
CCCC/C=C/CCCCCCCC=O

>  <mulliken_charges>
41
1   -0.444315
2   -0.248591
3   -0.248493
4   -0.304923
5   -0.084269
6   -0.115321
7   -0.30017
8   -0.264826
9   -0.255561
10   -0.256341
11   -0.251691
12   -0.273414
13   -0.329932
14   0.2573
15   -0.383293
16   0.143111
17   0.140927
18   0.146525
19   0.131865
20   0.130312
21   0.126583
22   0.13287
23   0.132972
24   0.141452
25   0.118172
26   0.113082
27   0.14019
28   0.145964
29   0.1284
30   0.135759
31   0.127073
32   0.139561
33   0.133317
34   0.128862
35   0.134624
36   0.132241
37   0.137368
38   0.148511
39   0.163375
40   0.154548
41   0.096178

>  <lowdin_charges>
41
1   -0.445471
2   -0.271726
3   -0.276482
4   -0.273214
5   -0.173911
6   -0.173285
7   -0.275082
8   -0.277123
9   -0.27989
10   -0.276552
11   -0.273157
12   -0.272192
13   -0.308273
14   0.054532
15   -0.216601
16   0.149876
17   0.14596
18   0.145546
19   0.140762
20   0.139071
21   0.13741
22   0.143803
23   0.143088
24   0.148036
25   0.146314
26   0.145084
27   0.146712
28   0.150992
29   0.14293
30   0.143932
31   0.140582
32   0.144947
33   0.139094
34   0.138657
35   0.141337
36   0.140642
37   0.142058
38   0.147767
39   0.161441
40   0.161454
41   0.110929

$$$$

