PCCDB-ID:  68990
public computational chemistry database (PCCDB) project, http://pccdb.org

 15 14  0  0  0  0  0  0  0  0999 V2000
    1.5513   -1.1175    0.0782 C   0  0  0  0  0  0  0  0  0  0  0  0
    2.4179    0.0980   -0.0885 C   0  0  0  0  0  0  0  0  0  0  0  0
    4.0298   -0.2257    1.9016 C   0  0  0  0  0  0  0  0  0  0  0  0
    3.0458    0.7388    1.1945 C   0  0  0  0  0  0  0  0  0  0  0  0
    2.5974    0.6715   -1.1472 O   0  0  0  0  0  0  0  0  0  0  0  0
    3.6456   -1.0148    2.7367 O   0  0  0  0  0  0  0  0  0  0  0  0
    5.2939   -0.1118    1.5013 O   0  0  0  0  0  0  0  0  0  0  0  0
    3.7726    1.8660    0.7991 O   0  0  0  0  0  0  0  0  0  0  0  0
    1.9849    1.0327    2.0604 O   0  0  0  0  0  0  0  0  0  0  0  0
    0.5879   -0.7979    0.4931 H   0  0  0  0  0  0  0  0  0  0  0  0
    1.9874   -1.8240    0.7907 H   0  0  0  0  0  0  0  0  0  0  0  0
    1.3848   -1.5925   -0.8903 H   0  0  0  0  0  0  0  0  0  0  0  0
    5.3278    0.7065    0.9571 H   0  0  0  0  0  0  0  0  0  0  0  0
    3.4929    2.0412   -0.1274 H   0  0  0  0  0  0  0  0  0  0  0  0
    2.0929    0.4503    2.8367 H   0  0  0  0  0  0  0  0  0  0  0  0
  1 10  1  0  0  0  0
  1 11  1  0  0  0  0
  2  1  1  0  0  0  0
  2  4  1  0  0  0  0
  3  6  2  0  0  0  0
  4  3  1  0  0  0  0
  4  9  1  0  0  0  0
  5  2  2  0  0  0  0
  7  3  1  0  0  0  0
  8  4  1  0  0  0  0
  9 15  1  0  0  0  0
 12  1  1  0  0  0  0
 13  7  1  0  0  0  0
 14  8  1  0  0  0  0
M  END
>  <HBA>
5

>  <HBD>
3

>  <TPSA>
94.83

>  <cid>
68990

>  <dipole>
1.51

>  <excitation_energy_1>
4.278

>  <excitation_energy_2>
5.131

>  <excitation_energy_3>
6.023

>  <excitation_energy_4>
6.165

>  <homo_energy>
-7.532

>  <homo_lumo_gap>
5.766

>  <logP>
-1.659

>  <lumo_energy>
-1.766

>  <melting_point>
121.57

>  <molecular_refractivity>
25.68

>  <oscillator_strength_1>
0.0025

>  <oscillator_strength_2>
0.0065

>  <oscillator_strength_3>
0.0044

>  <oscillator_strength_4>
0.0025

>  <open_babel_can_smiles>
CC(=O)C(C(=O)O)(O)O

>  <mulliken_charges>
15
1   -0.539747
2   0.445794
3   0.57537
4   0.375559
5   -0.444815
6   -0.46364
7   -0.558496
8   -0.655467
9   -0.621256
10   0.209623
11   0.197879
12   0.190401
13   0.439883
14   0.427118
15   0.421794

>  <lowdin_charges>
15
1   -0.472173
2   0.156644
3   0.163153
4   0.12527
5   -0.220322
6   -0.247104
7   -0.316856
8   -0.425111
9   -0.421261
10   0.196168
11   0.186521
12   0.180836
13   0.373216
14   0.359034
15   0.361984

$$$$

