PCCDB-ID:  56533
public computational chemistry database (PCCDB) project, http://pccdb.org

 30 30  0  0  0  0  0  0  0  0999 V2000
    2.9171   -0.6390    0.6629 C   0  0  0  0  0  0  0  0  0  0  0  0
    1.8242    1.3412   -0.4097 C   0  0  0  0  0  0  0  0  0  0  0  0
    3.9375    4.9262   -0.0991 C   0  0  0  0  0  0  0  0  0  0  0  0
    7.6341    4.9404    0.8686 C   0  0  0  0  0  0  0  0  0  0  0  0
    6.3414    5.3716    0.5717 C   0  0  0  0  0  0  0  0  0  0  0  0
    7.9419    3.5857    0.8170 C   0  0  0  0  0  0  0  0  0  0  0  0
    3.9838    1.5640    0.9521 C   0  0  0  0  0  0  0  0  0  0  0  0
    2.9001    0.6722    0.4062 C   0  0  0  0  0  0  0  0  0  0  0  0
    5.3340    4.4613    0.2375 C   0  0  0  0  0  0  0  0  0  0  0  0
    6.9632    2.6386    0.4727 C   0  0  0  0  0  0  0  0  0  0  0  0
    5.6566    3.0945    0.2005 C   0  0  0  0  0  0  0  0  0  0  0  0
    7.3477    1.2019    0.3664 C   0  0  0  0  0  0  0  0  0  0  0  0
    6.7588    0.2398   -0.2282 N   0  0  0  0  0  0  0  0  0  0  0  0
    8.5254    0.9441    1.0029 O   0  0  0  0  0  0  0  0  0  0  0  0
    4.6550    2.2079   -0.1603 O   0  0  0  0  0  0  0  0  0  0  0  0
    2.1301   -1.2992    0.3070 H   0  0  0  0  0  0  0  0  0  0  0  0
    3.7190   -1.1002    1.2333 H   0  0  0  0  0  0  0  0  0  0  0  0
    1.0659    0.6241   -0.7375 H   0  0  0  0  0  0  0  0  0  0  0  0
    2.2540    1.8208   -1.2968 H   0  0  0  0  0  0  0  0  0  0  0  0
    1.3234    2.1315    0.1666 H   0  0  0  0  0  0  0  0  0  0  0  0
    3.8877    6.0191   -0.1116 H   0  0  0  0  0  0  0  0  0  0  0  0
    3.1992    4.5685    0.6289 H   0  0  0  0  0  0  0  0  0  0  0  0
    3.6206    4.5547   -1.0793 H   0  0  0  0  0  0  0  0  0  0  0  0
    8.4026    5.6622    1.1299 H   0  0  0  0  0  0  0  0  0  0  0  0
    6.1043    6.4326    0.5985 H   0  0  0  0  0  0  0  0  0  0  0  0
    8.9457    3.2405    1.0338 H   0  0  0  0  0  0  0  0  0  0  0  0
    4.7101    0.9882    1.5350 H   0  0  0  0  0  0  0  0  0  0  0  0
    3.5580    2.3452    1.5994 H   0  0  0  0  0  0  0  0  0  0  0  0
    5.9014    0.5646   -0.6742 H   0  0  0  0  0  0  0  0  0  0  0  0
    8.6984    0.0009    0.8255 H   0  0  0  0  0  0  0  0  0  0  0  0
  1 17  1  0  0  0  0
  2 20  1  0  0  0  0
  2  8  1  0  0  0  0
  3  9  1  0  0  0  0
  3 22  1  0  0  0  0
  4 24  1  0  0  0  0
  5 25  1  0  0  0  0
  5  4  2  0  0  0  0
  6  4  1  0  0  0  0
  6 26  1  0  0  0  0
  7 27  1  0  0  0  0
  7 28  1  0  0  0  0
  8  1  2  0  0  0  0
  8  7  1  0  0  0  0
  9  5  1  0  0  0  0
 10  6  2  0  0  0  0
 11  9  2  0  0  0  0
 11 10  1  0  0  0  0
 12 10  1  0  0  0  0
 12 14  1  0  0  0  0
 13 12  2  0  0  0  0
 15 11  1  0  0  0  0
 15  7  1  0  0  0  0
 16  1  1  0  0  0  0
 18  2  1  0  0  0  0
 19  2  1  0  0  0  0
 21  3  1  0  0  0  0
 23  3  1  0  0  0  0
 29 13  1  0  0  0  0
 30 14  1  0  0  0  0
M  END
>  <HBA>
3

>  <HBD>
1

>  <TPSA>
52.32

>  <cid>
56533

>  <dipole>
2.45

>  <excitation_energy_1>
4.721

>  <excitation_energy_2>
4.994

>  <excitation_energy_3>
5.184

>  <excitation_energy_4>
5.396

>  <homo_energy>
-6.49

>  <homo_lumo_gap>
5.576

>  <logP>
2.749

>  <lumo_energy>
-0.914

>  <melting_point>
84.9

>  <molecular_refractivity>
59.94

>  <oscillator_strength_1>
0.03

>  <oscillator_strength_2>
0.0015

>  <oscillator_strength_3>
0.1038

>  <oscillator_strength_4>
0.0389

>  <open_babel_can_smiles>
CC(=C)COc1c(C)cccc1C(=N)O

>  <mulliken_charges>
30
1   -0.386039
2   -0.508112
3   -0.522081
4   -0.118511
5   -0.194725
6   -0.193138
7   -0.108222
8   0.204792
9   0.153835
10   0.101863
11   0.224941
12   0.428387
13   -0.649181
14   -0.603129
15   -0.552834
16   0.140802
17   0.152006
18   0.154562
19   0.176478
20   0.149329
21   0.152868
22   0.159963
23   0.175631
24   0.134021
25   0.12949
26   0.16445
27   0.157994
28   0.143466
29   0.32009
30   0.411005

>  <lowdin_charges>
30
1   -0.33979
2   -0.443895
3   -0.437532
4   -0.162739
5   -0.151794
6   -0.142525
7   -0.125516
8   -0.004396
9   -0.01741
10   -0.05492
11   0.08953
12   0.131911
13   -0.433849
14   -0.375052
15   -0.241065
16   0.159703
17   0.164496
18   0.159201
19   0.167638
20   0.155697
21   0.15494
22   0.159554
23   0.167653
24   0.162309
25   0.156731
26   0.175376
27   0.152717
28   0.143518
29   0.271065
30   0.358445

$$$$

