PCCDB-ID:  16215
public computational chemistry database (PCCDB) project, http://pccdb.org

 31 30  0  0  0  0  0  0  0  0999 V2000
    2.6001    2.5674   -3.8754 C   0  0  0  0  0  0  0  0  0  0  0  0
    3.3988    2.5487   -2.5679 C   0  0  0  0  0  0  0  0  0  0  0  0
    4.6135    1.6106   -2.6236 C   0  0  0  0  0  0  0  0  0  0  0  0
    5.3983    1.4866   -1.3062 C   0  0  0  0  0  0  0  0  0  0  0  0
    6.1214    2.7697   -0.8699 C   0  0  0  0  0  0  0  0  0  0  0  0
    6.8945    2.6429    0.4558 C   0  0  0  0  0  0  0  0  0  0  0  0
    8.0907    1.6736    0.4535 C   0  0  0  0  0  0  0  0  0  0  0  0
    9.2386    2.0745   -0.4840 C   0  0  0  0  0  0  0  0  0  0  0  0
   10.4550    1.1389   -0.3864 C   0  0  0  0  0  0  0  0  0  0  0  0
   11.5930    1.4607   -1.2544 N   0  0  0  0  0  0  0  0  0  0  0  0
    1.7360    3.2383   -3.8082 H   0  0  0  0  0  0  0  0  0  0  0  0
    2.2268    1.5667   -4.1260 H   0  0  0  0  0  0  0  0  0  0  0  0
    3.2205    2.9071   -4.7141 H   0  0  0  0  0  0  0  0  0  0  0  0
    2.7430    2.2374   -1.7418 H   0  0  0  0  0  0  0  0  0  0  0  0
    3.7236    3.5701   -2.3298 H   0  0  0  0  0  0  0  0  0  0  0  0
    5.2931    1.9457   -3.4219 H   0  0  0  0  0  0  0  0  0  0  0  0
    4.2685    0.6103   -2.9226 H   0  0  0  0  0  0  0  0  0  0  0  0
    6.1303    0.6754   -1.4150 H   0  0  0  0  0  0  0  0  0  0  0  0
    4.7122    1.1694   -0.5060 H   0  0  0  0  0  0  0  0  0  0  0  0
    5.3895    3.5800   -0.7579 H   0  0  0  0  0  0  0  0  0  0  0  0
    6.8015    3.0905   -1.6721 H   0  0  0  0  0  0  0  0  0  0  0  0
    6.1920    2.3305    1.2418 H   0  0  0  0  0  0  0  0  0  0  0  0
    7.2536    3.6395    0.7499 H   0  0  0  0  0  0  0  0  0  0  0  0
    7.7526    0.6594    0.1988 H   0  0  0  0  0  0  0  0  0  0  0  0
    8.4813    1.6073    1.4791 H   0  0  0  0  0  0  0  0  0  0  0  0
    9.5579    3.1028   -0.2529 H   0  0  0  0  0  0  0  0  0  0  0  0
    8.8891    2.0899   -1.5266 H   0  0  0  0  0  0  0  0  0  0  0  0
   10.1443    0.1106   -0.6151 H   0  0  0  0  0  0  0  0  0  0  0  0
   10.8221    1.1233    0.6486 H   0  0  0  0  0  0  0  0  0  0  0  0
   11.2850    1.4716   -2.2268 H   0  0  0  0  0  0  0  0  0  0  0  0
   11.9114    2.4096   -1.0577 H   0  0  0  0  0  0  0  0  0  0  0  0
  1 11  1  0  0  0  0
  1  2  1  0  0  0  0
  2 15  1  0  0  0  0
  2 14  1  0  0  0  0
  3  2  1  0  0  0  0
  3  4  1  0  0  0  0
  4  5  1  0  0  0  0
  4 19  1  0  0  0  0
  5 20  1  0  0  0  0
  5  6  1  0  0  0  0
  6 23  1  0  0  0  0
  6 22  1  0  0  0  0
  7  6  1  0  0  0  0
  7 25  1  0  0  0  0
  8  9  1  0  0  0  0
  8 26  1  0  0  0  0
  8  7  1  0  0  0  0
  9 29  1  0  0  0  0
 10 31  1  0  0  0  0
 10  9  1  0  0  0  0
 12  1  1  0  0  0  0
 13  1  1  0  0  0  0
 16  3  1  0  0  0  0
 17  3  1  0  0  0  0
 18  4  1  0  0  0  0
 21  5  1  0  0  0  0
 24  7  1  0  0  0  0
 27  8  1  0  0  0  0
 28  9  1  0  0  0  0
 30 10  1  0  0  0  0
M  END
>  <HBA>
1

>  <HBD>
1

>  <TPSA>
26.02

>  <cid>
16215

>  <dipole>
1.52

>  <excitation_energy_1>
5.53

>  <excitation_energy_2>
6.165

>  <excitation_energy_3>
6.278

>  <excitation_energy_4>
6.37

>  <homo_energy>
-6.174

>  <homo_lumo_gap>
8.305

>  <logP>
3.396

>  <lumo_energy>
2.131

>  <melting_point>
25.69

>  <molecular_refractivity>
48.08

>  <oscillator_strength_1>
0.0336

>  <oscillator_strength_2>
0.0088

>  <oscillator_strength_3>
0.0049

>  <oscillator_strength_4>
0.0019

>  <open_babel_can_smiles>
CCCCCCCCCN

>  <mulliken_charges>
31
1   -0.441508
2   -0.248252
3   -0.247708
4   -0.256308
5   -0.257983
6   -0.257211
7   -0.259131
8   -0.261321
9   -0.141987
10   -0.70449
11   0.14121
12   0.141073
13   0.140969
14   0.129117
15   0.135201
16   0.124379
17   0.126324
18   0.130571
19   0.125764
20   0.133068
21   0.12904
22   0.127308
23   0.125937
24   0.13395
25   0.129098
26   0.120111
27   0.12544
28   0.138935
29   0.13903
30   0.289584
31   0.289789

>  <lowdin_charges>
31
1   -0.444744
2   -0.274764
3   -0.27575
4   -0.279264
5   -0.282037
6   -0.275733
7   -0.277131
8   -0.294189
9   -0.207177
10   -0.549174
11   0.149257
12   0.145409
13   0.146811
14   0.13896
15   0.139055
16   0.137302
17   0.1392
18   0.141207
19   0.138011
20   0.142908
21   0.138181
22   0.141331
23   0.139141
24   0.138729
25   0.140578
26   0.132747
27   0.134028
28   0.139951
29   0.139699
30   0.248752
31   0.248706

$$$$

