PCCDB-ID:  39737
public computational chemistry database (PCCDB) project, http://pccdb.org

 21 21  0  0  1  0  0  0  0  0999 V2000
    2.3702    0.1904    1.3590 C   0  0  0  0  0  0  0  0  0  0  0  0
    2.8142   -0.8101   -2.4265 C   0  0  0  0  0  0  0  0  0  0  0  0
    2.3707    0.2169   -0.1748 C   0  0  0  0  0  0  0  0  0  0  0  0
    2.6307   -2.3686   -0.4557 C   0  0  0  0  0  0  0  0  0  0  0  0
    4.5779   -1.0316   -0.6432 C   0  0  0  0  0  0  0  0  0  0  0  0
    3.8670   -3.2261   -0.7029 C   0  0  0  0  0  0  0  0  0  0  0  0
    3.0537   -0.9577   -0.9105 C   0  0  1  0  0  0  0  0  0  0  0  0
    3.9487   -4.4233   -0.7813 O   0  0  0  0  0  0  0  0  0  0  0  0
    4.9564   -2.4100   -0.8235 O   0  0  0  0  0  0  0  0  0  0  0  0
    1.9071    1.1041    1.7471 H   0  0  0  0  0  0  0  0  0  0  0  0
    3.3808    0.1358    1.7789 H   0  0  0  0  0  0  0  0  0  0  0  0
    1.7984   -0.6551    1.7571 H   0  0  0  0  0  0  0  0  0  0  0  0
    1.7465   -0.8878   -2.6614 H   0  0  0  0  0  0  0  0  0  0  0  0
    3.3409   -1.5866   -2.9932 H   0  0  0  0  0  0  0  0  0  0  0  0
    3.1679    0.1641   -2.7847 H   0  0  0  0  0  0  0  0  0  0  0  0
    2.8502    1.1463   -0.5150 H   0  0  0  0  0  0  0  0  0  0  0  0
    1.3315    0.2770   -0.5251 H   0  0  0  0  0  0  0  0  0  0  0  0
    2.4062   -2.4131    0.6169 H   0  0  0  0  0  0  0  0  0  0  0  0
    1.7710   -2.7806   -0.9903 H   0  0  0  0  0  0  0  0  0  0  0  0
    4.8414   -0.7350    0.3785 H   0  0  0  0  0  0  0  0  0  0  0  0
    5.1655   -0.4328   -1.3448 H   0  0  0  0  0  0  0  0  0  0  0  0
  1 10  1  0  0  0  0
  1 12  1  0  0  0  0
  1 11  1  0  0  0  0
  3  1  1  0  0  0  0
  4 18  1  0  0  0  0
  5 20  1  0  0  0  0
  6  4  1  0  0  0  0
  7  2  1  6  0  0  0
  7  5  1  0  0  0  0
  7  4  1  0  0  0  0
  7  3  1  0  0  0  0
  8  6  2  0  0  0  0
  9  6  1  0  0  0  0
  9  5  1  0  0  0  0
 13  2  1  0  0  0  0
 14  2  1  0  0  0  0
 15  2  1  0  0  0  0
 16  3  1  0  0  0  0
 17  3  1  0  0  0  0
 19  4  1  0  0  0  0
 21  5  1  0  0  0  0
M  END
>  <HBA>
2

>  <HBD>
0

>  <TPSA>
26.3

>  <cid>
39737

>  <dipole>
4.75

>  <excitation_energy_1>
5.678

>  <excitation_energy_2>
6.663

>  <excitation_energy_3>
7.135

>  <excitation_energy_4>
7.181

>  <homo_energy>
-7.124

>  <homo_lumo_gap>
7.54

>  <logP>
1.35

>  <lumo_energy>
0.416

>  <melting_point>
26.48

>  <molecular_refractivity>
34.67

>  <oscillator_strength_1>
0.0005

>  <oscillator_strength_2>
0.0101

>  <oscillator_strength_3>
0.0142

>  <oscillator_strength_4>
0.0032

>  <open_babel_can_smiles>
CC[C@@]1(C)COC(=O)C1

>  <mulliken_charges>
21
1   -0.461941
2   -0.463733
3   -0.267982
4   -0.392741
5   -0.045222
6   0.610383
7   0.060153
8   -0.457418
9   -0.447434
10   0.154621
11   0.1499
12   0.152295
13   0.150754
14   0.162572
15   0.147664
16   0.136989
17   0.142418
18   0.180069
19   0.178847
20   0.152242
21   0.157564

>  <lowdin_charges>
21
1   -0.45196
2   -0.444051
3   -0.273074
4   -0.315236
5   -0.133504
6   0.18678
7   -0.005299
8   -0.234824
9   -0.191701
10   0.158566
11   0.14793
12   0.15121
13   0.151631
14   0.15965
15   0.151348
16   0.145687
17   0.14772
18   0.172477
19   0.174484
20   0.145307
21   0.15686

$$$$

