PCCDB-ID:  5934
public computational chemistry database (PCCDB) project, http://pccdb.org

 35 36  0  0  0  0  0  0  0  0999 V2000
    1.5668   -1.4020    4.3987 C   0  0  0  0  0  0  0  0  0  0  0  0
    7.0207   -9.9877   -0.8858 C   0  0  0  0  0  0  0  0  0  0  0  0
    7.8774   -8.8075   -2.9274 C   0  0  0  0  0  0  0  0  0  0  0  0
    3.0956   -0.3351    1.0556 C   0  0  0  0  0  0  0  0  0  0  0  0
    2.4066   -0.2951    2.2748 C   0  0  0  0  0  0  0  0  0  0  0  0
    3.6816   -1.5128    0.6117 C   0  0  0  0  0  0  0  0  0  0  0  0
    5.1953   -6.3869    0.3762 C   0  0  0  0  0  0  0  0  0  0  0  0
    6.0171   -5.2527   -1.5874 C   0  0  0  0  0  0  0  0  0  0  0  0
    5.7759   -7.5636   -0.0595 C   0  0  0  0  0  0  0  0  0  0  0  0
    6.6051   -6.4257   -2.0357 C   0  0  0  0  0  0  0  0  0  0  0  0
    2.8845   -2.6224    2.6174 C   0  0  0  0  0  0  0  0  0  0  0  0
    2.2932   -1.4384    3.0734 C   0  0  0  0  0  0  0  0  0  0  0  0
    5.3042   -5.2048   -0.3806 C   0  0  0  0  0  0  0  0  0  0  0  0
    3.5758   -2.6720    1.4012 C   0  0  0  0  0  0  0  0  0  0  0  0
    6.4974   -7.6208   -1.2831 C   0  0  0  0  0  0  0  0  0  0  0  0
    4.7573   -3.9592   -0.0302 N   0  0  0  0  0  0  0  0  0  0  0  0
    4.1218   -3.9362    1.0640 N   0  0  0  0  0  0  0  0  0  0  0  0
    7.0684   -8.7988   -1.7204 N   0  0  0  0  0  0  0  0  0  0  0  0
    1.0080   -0.4689    4.5231 H   0  0  0  0  0  0  0  0  0  0  0  0
    2.2672   -1.4826    5.2401 H   0  0  0  0  0  0  0  0  0  0  0  0
    0.8583   -2.2336    4.4902 H   0  0  0  0  0  0  0  0  0  0  0  0
    7.5126  -10.8105   -1.4071 H   0  0  0  0  0  0  0  0  0  0  0  0
    5.9863  -10.2925   -0.6805 H   0  0  0  0  0  0  0  0  0  0  0  0
    7.5296   -9.8411    0.0784 H   0  0  0  0  0  0  0  0  0  0  0  0
    8.2390   -9.8207   -3.1100 H   0  0  0  0  0  0  0  0  0  0  0  0
    8.7498   -8.1421   -2.8472 H   0  0  0  0  0  0  0  0  0  0  0  0
    7.2936   -8.4963   -3.8036 H   0  0  0  0  0  0  0  0  0  0  0  0
    3.1683    0.5658    0.4513 H   0  0  0  0  0  0  0  0  0  0  0  0
    1.9525    0.6361    2.6060 H   0  0  0  0  0  0  0  0  0  0  0  0
    4.2176   -1.5650   -0.3291 H   0  0  0  0  0  0  0  0  0  0  0  0
    4.6480   -6.3557    1.3121 H   0  0  0  0  0  0  0  0  0  0  0  0
    6.1020   -4.3384   -2.1678 H   0  0  0  0  0  0  0  0  0  0  0  0
    5.6731   -8.4521    0.5525 H   0  0  0  0  0  0  0  0  0  0  0  0
    7.1506   -6.4132   -2.9714 H   0  0  0  0  0  0  0  0  0  0  0  0
    2.8200   -3.5378    3.2003 H   0  0  0  0  0  0  0  0  0  0  0  0
  1 21  1  0  0  0  0
  1 19  1  0  0  0  0
  1 20  1  0  0  0  0
  2 23  1  0  0  0  0
  2 24  1  0  0  0  0
  3 26  1  0  0  0  0
  3 18  1  0  0  0  0
  4  5  1  0  0  0  0
  5 29  1  0  0  0  0
  5 12  2  0  0  0  0
  6  4  2  0  0  0  0
  6 14  1  0  0  0  0
  7 31  1  0  0  0  0
  8 13  1  0  0  0  0
  9  7  1  0  0  0  0
  9 33  1  0  0  0  0
 10  8  2  0  0  0  0
 10 15  1  0  0  0  0
 11 12  1  0  0  0  0
 11 35  1  0  0  0  0
 12  1  1  0  0  0  0
 13 16  1  0  0  0  0
 13  7  2  0  0  0  0
 14 11  2  0  0  0  0
 15  9  2  0  0  0  0
 16 17  1  0  0  0  0
 17 14  1  0  0  0  0
 18 15  1  0  0  0  0
 18  2  1  0  0  0  0
 22  2  1  0  0  0  0
 25  3  1  0  0  0  0
 27  3  1  0  0  0  0
 28  4  1  0  0  0  0
 30  6  1  0  0  0  0
 32  8  1  0  0  0  0
 34 10  1  0  0  0  0
M  RAD  2  16   2  17   2
M  END
>  <HBA>
3

>  <HBD>
0

>  <TPSA>
27.96

>  <cid>
5934

>  <dipole>
3.84

>  <excitation_energy_1>
2.689

>  <excitation_energy_2>
3.12

>  <excitation_energy_3>
3.926

>  <excitation_energy_4>
4.185

>  <homo_energy>
-5.061

>  <homo_lumo_gap>
3.382

>  <logP>
4.476

>  <lumo_energy>
-1.679

>  <melting_point>
76.0

>  <molecular_refractivity>
76.23

>  <oscillator_strength_1>
0.0001

>  <oscillator_strength_2>
0.931

>  <oscillator_strength_3>
0.0079

>  <oscillator_strength_4>
0.0021

>  <open_babel_can_smiles>
Cc1cccc(c1)[N][N]c1ccc(cc1)N(C)C

>  <mulliken_charges>
35
1   -0.528227
2   -0.313458
3   -0.313444
4   -0.143496
5   -0.173747
6   -0.131158
7   -0.135022
8   -0.148865
9   -0.206733
10   -0.204152
11   -0.199771
12   0.170764
13   0.271719
14   0.27764
15   0.380234
16   -0.317728
17   -0.327846
18   -0.472549
19   0.152761
20   0.164087
21   0.160644
22   0.158073
23   0.166385
24   0.161437
25   0.157941
26   0.161307
27   0.165902
28   0.128185
29   0.119977
30   0.147521
31   0.15236
32   0.136574
33   0.12877
34   0.12709
35   0.126822

>  <lowdin_charges>
35
1   -0.443089
2   -0.349671
3   -0.349287
4   -0.154318
5   -0.166764
6   -0.161206
7   -0.137553
8   -0.135088
9   -0.205208
10   -0.213442
11   -0.162661
12   0.000131
13   -0.018511
14   0.015857
15   0.067288
16   -0.082284
17   -0.104052
18   -0.103084
19   0.155786
20   0.161703
21   0.160437
22   0.160542
23   0.152784
24   0.148513
25   0.158729
26   0.149033
27   0.153964
28   0.156849
29   0.153824
30   0.169875
31   0.172125
32   0.165688
33   0.16115
34   0.160649
35   0.161293

$$$$

