PCCDB-ID:  16085
public computational chemistry database (PCCDB) project, http://pccdb.org

 22 22  0  0  1  0  0  0  0  0999 V2000
    0.9656    0.0173    0.1685 C   0  0  0  0  0  0  0  0  0  0  0  0
    4.4663   -3.6290    0.1655 C   0  0  0  0  0  0  0  0  0  0  0  0
    6.5417    2.4074    0.1495 C   0  0  0  0  0  0  0  0  0  0  0  0
    2.4662   -0.0793    0.1650 C   0  0  1  0  0  0  0  0  0  0  0  0
    4.4397   -1.2874    0.1641 C   0  0  0  0  0  0  0  0  0  0  0  0
    4.5455    1.1907    0.1577 C   0  0  0  0  0  0  0  0  0  0  0  0
    5.1517   -2.3448    0.1646 N   0  0  0  0  0  0  0  0  0  0  0  0
    5.0904    2.3453    0.1524 N   0  0  0  0  0  0  0  0  0  0  0  0
    3.0439   -1.2388    0.1652 N   0  0  0  0  0  0  0  0  0  0  0  0
    3.1452    1.1098    0.1601 N   0  0  0  0  0  0  0  0  0  0  0  0
    5.1319   -0.0533    0.1634 N   0  0  0  0  0  0  0  0  0  0  0  0
    0.5451   -0.9883    0.1779 H   0  0  0  0  0  0  0  0  0  0  0  0
    0.6068    0.5502   -0.7204 H   0  0  0  0  0  0  0  0  0  0  0  0
    0.6120    0.5642    1.0510 H   0  0  0  0  0  0  0  0  0  0  0  0
    5.2169   -4.4250    0.1806 H   0  0  0  0  0  0  0  0  0  0  0  0
    3.8383   -3.7644   -0.7255 H   0  0  0  0  0  0  0  0  0  0  0  0
    3.8137   -3.7523    1.0403 H   0  0  0  0  0  0  0  0  0  0  0  0
    6.8527    3.4557    0.1369 H   0  0  0  0  0  0  0  0  0  0  0  0
    6.9875    1.9225   -0.7350 H   0  0  0  0  0  0  0  0  0  0  0  0
    6.9894    1.9433    1.0441 H   0  0  0  0  0  0  0  0  0  0  0  0
    2.6670    2.0009    0.1617 H   0  0  0  0  0  0  0  0  0  0  0  0
    6.1399   -0.1273    0.1616 H   0  0  0  0  0  0  0  0  0  0  0  0
  1 12  1  0  0  0  0
  1 14  1  0  0  0  0
  2 15  1  0  0  0  0
  2 17  1  0  0  0  0
  3  8  1  0  0  0  0
  3 20  1  0  0  0  0
  4  9  1  0  0  0  0
  4  1  1  6  0  0  0
  5  7  1  0  0  0  0
  5  9  2  0  0  0  0
  6 10  1  0  0  0  0
  6 11  1  0  0  0  0
  7  2  1  0  0  0  0
  8  6  2  0  0  0  0
 10 21  1  0  0  0  0
 10  4  1  0  0  0  0
 11  5  1  0  0  0  0
 13  1  1  0  0  0  0
 16  2  1  0  0  0  0
 18  3  1  0  0  0  0
 19  3  1  0  0  0  0
 22 11  1  0  0  0  0
M  RAD  2   4   2   7   2
M  END
>  <HBA>
5

>  <HBD>
2

>  <TPSA>
62.73

>  <cid>
16085

>  <dipole>
2.72

>  <excitation_energy_1>
4.636

>  <excitation_energy_2>
4.793

>  <excitation_energy_3>
4.843

>  <excitation_energy_4>
5.404

>  <homo_energy>
-6.019

>  <homo_lumo_gap>
5.276

>  <logP>
0.409

>  <lumo_energy>
-0.743

>  <melting_point>
124.78

>  <molecular_refractivity>
43.4

>  <oscillator_strength_1>
0.0268

>  <oscillator_strength_2>
0.0011

>  <oscillator_strength_3>
0.1343

>  <oscillator_strength_4>
0.0

>  <open_babel_can_smiles>
C[N]C1=N[C](N/C(=N/C)/N1)C

>  <mulliken_charges>
22
1   -0.535752
2   -0.304922
3   -0.341456
4   0.523225
5   0.653222
6   0.751844
7   -0.494199
8   -0.493137
9   -0.519382
10   -0.669124
11   -0.710757
12   0.201713
13   0.177186
14   0.176671
15   0.144348
16   0.14709
17   0.147334
18   0.164848
19   0.141535
20   0.142031
21   0.348635
22   0.349048

>  <lowdin_charges>
22
1   -0.451158
2   -0.356084
3   -0.362764
4   0.127056
5   0.116953
6   0.131699
7   -0.242085
8   -0.273225
9   -0.227611
10   -0.226941
11   -0.248407
12   0.18595
13   0.172177
14   0.171919
15   0.147102
16   0.146674
17   0.146672
18   0.157465
19   0.138819
20   0.139094
21   0.304926
22   0.301767

$$$$

