PCCDB-ID:  68210
public computational chemistry database (PCCDB) project, http://pccdb.org

 25 25  0  0  0  0  0  0  0  0999 V2000
    2.6252   -0.0934   -0.6084 C   0  0  0  0  0  0  0  0  0  0  0  0
    6.6710   -0.2053   -2.3888 C   0  0  0  0  0  0  0  0  0  0  0  0
    3.1891   -3.7945   -2.5693 C   0  0  0  0  0  0  0  0  0  0  0  0
    2.9784   -2.6029   -1.8846 C   0  0  0  0  0  0  0  0  0  0  0  0
    4.4133   -5.2435   -4.1550 C   0  0  0  0  0  0  0  0  0  0  0  0
    4.2277   -3.9286   -3.4956 C   0  0  0  0  0  0  0  0  0  0  0  0
    3.8195   -1.5078   -2.1166 C   0  0  0  0  0  0  0  0  0  0  0  0
    5.0869   -2.8274   -3.7219 C   0  0  0  0  0  0  0  0  0  0  0  0
    4.8857   -1.6259   -3.0416 C   0  0  0  0  0  0  0  0  0  0  0  0
    6.2597   -2.8882   -4.6579 C   0  0  0  0  0  0  0  0  0  0  0  0
    3.6851   -6.2014   -3.9629 O   0  0  0  0  0  0  0  0  0  0  0  0
    5.8912   -3.1811   -5.9281 O   0  0  0  0  0  0  0  0  0  0  0  0
    7.4124   -2.6990   -4.3390 O   0  0  0  0  0  0  0  0  0  0  0  0
    3.6986   -0.2970   -1.5202 O   0  0  0  0  0  0  0  0  0  0  0  0
    5.6500   -0.5329   -3.3439 O   0  0  0  0  0  0  0  0  0  0  0  0
    2.7028   -0.7619    0.2582 H   0  0  0  0  0  0  0  0  0  0  0  0
    1.6542   -0.2402   -1.0971 H   0  0  0  0  0  0  0  0  0  0  0  0
    2.7124    0.9422   -0.2773 H   0  0  0  0  0  0  0  0  0  0  0  0
    7.1554    0.6954   -2.7711 H   0  0  0  0  0  0  0  0  0  0  0  0
    7.4014   -1.0178   -2.3251 H   0  0  0  0  0  0  0  0  0  0  0  0
    6.2366    0.0028   -1.4055 H   0  0  0  0  0  0  0  0  0  0  0  0
    2.5500   -4.6542   -2.3959 H   0  0  0  0  0  0  0  0  0  0  0  0
    2.1595   -2.5281   -1.1784 H   0  0  0  0  0  0  0  0  0  0  0  0
    5.2720   -5.3244   -4.8477 H   0  0  0  0  0  0  0  0  0  0  0  0
    6.7168   -3.2003   -6.4503 H   0  0  0  0  0  0  0  0  0  0  0  0
  1 18  1  0  0  0  0
  1 16  1  0  0  0  0
  2 20  1  0  0  0  0
  2 21  1  0  0  0  0
  3 22  1  0  0  0  0
  3  4  2  0  0  0  0
  4 23  1  0  0  0  0
  5 11  2  0  0  0  0
  5  6  1  0  0  0  0
  6  3  1  0  0  0  0
  7  4  1  0  0  0  0
  7 14  1  0  0  0  0
  8  6  2  0  0  0  0
  8  9  1  0  0  0  0
  9  7  2  0  0  0  0
 10 13  2  0  0  0  0
 10  8  1  0  0  0  0
 12 10  1  0  0  0  0
 14  1  1  0  0  0  0
 15  9  1  0  0  0  0
 15  2  1  0  0  0  0
 17  1  1  0  0  0  0
 19  2  1  0  0  0  0
 24  5  1  0  0  0  0
 25 12  1  0  0  0  0
M  END
>  <HBA>
5

>  <HBD>
1

>  <TPSA>
72.83

>  <cid>
68210

>  <dipole>
3.98

>  <excitation_energy_1>
3.667

>  <excitation_energy_2>
4.261

>  <excitation_energy_3>
4.59

>  <excitation_energy_4>
4.998

>  <homo_energy>
-6.392

>  <homo_lumo_gap>
4.727

>  <logP>
1.214

>  <lumo_energy>
-1.665

>  <melting_point>
141.63

>  <molecular_refractivity>
51.77

>  <oscillator_strength_1>
0.0001

>  <oscillator_strength_2>
0.142

>  <oscillator_strength_3>
0.1032

>  <oscillator_strength_4>
0.0139

>  <open_babel_can_smiles>
COc1ccc(c(c1OC)C(=O)O)C=O

>  <mulliken_charges>
25
1   -0.223326
2   -0.217476
3   -0.176656
4   -0.194709
5   0.200105
6   0.052623
7   0.369318
8   0.022899
9   0.273119
10   0.482489
11   -0.415066
12   -0.548164
13   -0.443776
14   -0.496251
15   -0.521722
16   0.160366
17   0.16323
18   0.180402
19   0.163298
20   0.171208
21   0.152062
22   0.169726
23   0.147652
24   0.115254
25   0.413396

>  <lowdin_charges>
25
1   -0.275175
2   -0.274515
3   -0.120597
4   -0.200167
5   0.0443
6   -0.063408
7   0.096411
8   -0.035941
9   0.079586
10   0.200658
11   -0.235017
12   -0.346785
13   -0.248374
14   -0.1768
15   -0.217927
16   0.150402
17   0.151809
18   0.167664
19   0.16029
20   0.155871
21   0.145108
22   0.181129
23   0.169775
24   0.128408
25   0.363294

$$$$

