PCCDB-ID:  11972
public computational chemistry database (PCCDB) project, http://pccdb.org

 20 20  0  0  0  0  0  0  0  0999 V2000
    4.4965   -1.4652   -1.3836 C   0  0  0  0  0  0  0  0  0  0  0  0
    0.4297   -3.7305    0.5003 C   0  0  0  0  0  0  0  0  0  0  0  0
    1.0750   -4.9610    0.3765 C   0  0  0  0  0  0  0  0  0  0  0  0
    1.1824   -2.5636    0.6249 C   0  0  0  0  0  0  0  0  0  0  0  0
    2.4694   -5.0115    0.3733 C   0  0  0  0  0  0  0  0  0  0  0  0
    4.1389   -0.9399   -0.0124 C   0  0  0  0  0  0  0  0  0  0  0  0
    2.5842   -2.5862    0.5988 C   0  0  0  0  0  0  0  0  0  0  0  0
    3.2230   -3.8412    0.4834 C   0  0  0  0  0  0  0  0  0  0  0  0
    3.2950   -1.3984    0.8167 N   0  0  0  0  0  0  0  0  0  0  0  0
    4.8104    0.1824    0.3745 O   0  0  0  0  0  0  0  0  0  0  0  0
    4.5978   -3.8548    0.4871 O   0  0  0  0  0  0  0  0  0  0  0  0
    5.4682   -1.9704   -1.3513 H   0  0  0  0  0  0  0  0  0  0  0  0
    4.5525   -0.6447   -2.1100 H   0  0  0  0  0  0  0  0  0  0  0  0
    3.7526   -2.1854   -1.7281 H   0  0  0  0  0  0  0  0  0  0  0  0
   -0.6552   -3.6779    0.5113 H   0  0  0  0  0  0  0  0  0  0  0  0
    0.5027   -5.8801    0.2884 H   0  0  0  0  0  0  0  0  0  0  0  0
    0.6985   -1.5993    0.7489 H   0  0  0  0  0  0  0  0  0  0  0  0
    2.9836   -5.9677    0.2817 H   0  0  0  0  0  0  0  0  0  0  0  0
    5.3973    0.4646   -0.3433 H   0  0  0  0  0  0  0  0  0  0  0  0
    4.8935   -4.7781    0.4831 H   0  0  0  0  0  0  0  0  0  0  0  0
  1 12  1  0  0  0  0
  1  6  1  0  0  0  0
  2 15  1  0  0  0  0
  2  4  2  0  0  0  0
  3  2  1  0  0  0  0
  4 17  1  0  0  0  0
  5  3  2  0  0  0  0
  5  8  1  0  0  0  0
  6 10  1  0  0  0  0
  6  9  2  0  0  0  0
  7  4  1  0  0  0  0
  7  9  1  0  0  0  0
  8 11  1  0  0  0  0
  8  7  2  0  0  0  0
 13  1  1  0  0  0  0
 14  1  1  0  0  0  0
 16  3  1  0  0  0  0
 18  5  1  0  0  0  0
 19 10  1  0  0  0  0
 20 11  1  0  0  0  0
M  END
>  <HBA>
3

>  <HBD>
2

>  <TPSA>
49.33

>  <cid>
11972

>  <dipole>
4.02

>  <excitation_energy_1>
4.517

>  <excitation_energy_2>
4.721

>  <excitation_energy_3>
4.968

>  <excitation_energy_4>
5.015

>  <homo_energy>
-5.431

>  <homo_lumo_gap>
5.35

>  <logP>
1.424

>  <lumo_energy>
-0.082

>  <melting_point>
99.57

>  <molecular_refractivity>
42.78

>  <oscillator_strength_1>
0.1277

>  <oscillator_strength_2>
0.0025

>  <oscillator_strength_3>
0.0219

>  <oscillator_strength_4>
0.0031

>  <open_babel_can_smiles>
C/C(=N\c1ccccc1O)/O

>  <mulliken_charges>
20
1   -0.540446
2   -0.140236
3   -0.137735
4   -0.164219
5   -0.19906
6   0.496994
7   0.203179
8   0.325203
9   -0.461569
10   -0.571566
11   -0.654593
12   0.190355
13   0.153076
14   0.190011
15   0.12456
16   0.125091
17   0.13395
18   0.113466
19   0.406512
20   0.407027

>  <lowdin_charges>
20
1   -0.479987
2   -0.171061
3   -0.163195
4   -0.163516
5   -0.212156
6   0.155097
7   0.017737
8   0.077632
9   -0.171533
10   -0.35979
11   -0.387043
12   0.178068
13   0.159141
14   0.181672
15   0.154786
16   0.157142
17   0.164078
18   0.150734
19   0.356441
20   0.355755

$$$$

