PCCDB-ID:  36656
public computational chemistry database (PCCDB) project, http://pccdb.org

 27 27  0  0  0  0  0  0  0  0999 V2000
    3.5074   -3.4156    1.7486 C   0  0  0  0  0  0  0  0  0  0  0  0
    6.9582   -3.8502   -2.2925 C   0  0  0  0  0  0  0  0  0  0  0  0
    4.4902   -2.4990    2.4614 C   0  0  0  0  0  0  0  0  0  0  0  0
    7.2497    1.6565   -1.5525 C   0  0  0  0  0  0  0  0  0  0  0  0
    6.5092    2.2775   -0.5470 C   0  0  0  0  0  0  0  0  0  0  0  0
    7.1235    0.2836   -1.7601 C   0  0  0  0  0  0  0  0  0  0  0  0
    5.6604    1.5190    0.2581 C   0  0  0  0  0  0  0  0  0  0  0  0
    6.2666   -0.4858   -0.9628 C   0  0  0  0  0  0  0  0  0  0  0  0
    5.5441    0.1379    0.0748 C   0  0  0  0  0  0  0  0  0  0  0  0
    6.0279   -1.9188   -1.3188 C   0  0  0  0  0  0  0  0  0  0  0  0
    4.6694   -0.5876    1.0566 C   0  0  0  0  0  0  0  0  0  0  0  0
    4.9668   -2.4956   -1.2006 O   0  0  0  0  0  0  0  0  0  0  0  0
    3.6063   -0.1530    1.4499 O   0  0  0  0  0  0  0  0  0  0  0  0
    7.1309   -2.4950   -1.8488 O   0  0  0  0  0  0  0  0  0  0  0  0
    5.2567   -1.7067    1.5202 O   0  0  0  0  0  0  0  0  0  0  0  0
    3.0232   -4.0742    2.4793 H   0  0  0  0  0  0  0  0  0  0  0  0
    4.0203   -4.0299    1.0035 H   0  0  0  0  0  0  0  0  0  0  0  0
    2.7346   -2.8322    1.2415 H   0  0  0  0  0  0  0  0  0  0  0  0
    6.6885   -4.4956   -1.4524 H   0  0  0  0  0  0  0  0  0  0  0  0
    7.9214   -4.1460   -2.7092 H   0  0  0  0  0  0  0  0  0  0  0  0
    6.1733   -3.9106   -3.0511 H   0  0  0  0  0  0  0  0  0  0  0  0
    5.2488   -3.0667    3.0058 H   0  0  0  0  0  0  0  0  0  0  0  0
    3.9784   -1.8230    3.1510 H   0  0  0  0  0  0  0  0  0  0  0  0
    7.9145    2.2392   -2.1839 H   0  0  0  0  0  0  0  0  0  0  0  0
    6.5931    3.3485   -0.3860 H   0  0  0  0  0  0  0  0  0  0  0  0
    7.6752   -0.2019   -2.5575 H   0  0  0  0  0  0  0  0  0  0  0  0
    5.0817    1.9859    1.0485 H   0  0  0  0  0  0  0  0  0  0  0  0
  1  3  1  0  0  0  0
  1 16  1  0  0  0  0
  2 14  1  0  0  0  0
  2 19  1  0  0  0  0
  3 22  1  0  0  0  0
  3 23  1  0  0  0  0
  4  5  1  0  0  0  0
  5 25  1  0  0  0  0
  5  7  2  0  0  0  0
  6  4  2  0  0  0  0
  6  8  1  0  0  0  0
  7 27  1  0  0  0  0
  8  9  2  0  0  0  0
  9  7  1  0  0  0  0
  9 11  1  0  0  0  0
 10 12  2  0  0  0  0
 10  8  1  0  0  0  0
 11 13  2  0  0  0  0
 11 15  1  0  0  0  0
 14 10  1  0  0  0  0
 15  3  1  0  0  0  0
 17  1  1  0  0  0  0
 18  1  1  0  0  0  0
 20  2  1  0  0  0  0
 21  2  1  0  0  0  0
 24  4  1  0  0  0  0
 26  6  1  0  0  0  0
M  END
>  <HBA>
4

>  <HBD>
0

>  <TPSA>
52.6

>  <cid>
36656

>  <dipole>
3.16

>  <excitation_energy_1>
4.661

>  <excitation_energy_2>
4.813

>  <excitation_energy_3>
4.953

>  <excitation_energy_4>
5.373

>  <homo_energy>
-6.977

>  <homo_lumo_gap>
5.54

>  <logP>
1.65

>  <lumo_energy>
-1.437

>  <melting_point>
55.55

>  <molecular_refractivity>
53.81

>  <oscillator_strength_1>
0.0366

>  <oscillator_strength_2>
0.0218

>  <oscillator_strength_3>
0.0087

>  <oscillator_strength_4>
0.0766

>  <open_babel_can_smiles>
CCOC(=O)c1ccccc1C(=O)OC

>  <mulliken_charges>
27
1   -0.456611
2   -0.217812
3   -0.047318
4   -0.123845
5   -0.123254
6   -0.168006
7   -0.165715
8   0.05771
9   0.066545
10   0.567851
11   0.562265
12   -0.483961
13   -0.484235
14   -0.45433
15   -0.455088
16   0.141259
17   0.168919
18   0.180923
19   0.171914
20   0.166092
21   0.17245
22   0.149098
23   0.168149
24   0.141894
25   0.143727
26   0.158008
27   0.163372

>  <lowdin_charges>
27
1   -0.457138
2   -0.278039
3   -0.130357
4   -0.148042
5   -0.140001
6   -0.14128
7   -0.136079
8   -0.027027
9   -0.012162
10   0.197913
11   0.200749
12   -0.257884
13   -0.26396
14   -0.187609
15   -0.182331
16   0.155563
17   0.163552
18   0.169852
19   0.161246
20   0.16129
21   0.161055
22   0.152581
23   0.158754
24   0.165518
25   0.163221
26   0.173502
27   0.177113

$$$$

