PCCDB-ID:  6917
public computational chemistry database (PCCDB) project, http://pccdb.org

 17 17  0  0  0  0  0  0  0  0999 V2000
    0.9123    0.0094   -0.0639 C   0  0  0  0  0  0  0  0  0  0  0  0
    2.2281    0.0724    0.1707 C   0  0  0  0  0  0  0  0  0  0  0  0
    4.9336    2.5452    0.6894 C   0  0  0  0  0  0  0  0  0  0  0  0
    3.6925    3.3917    1.0039 C   0  0  0  0  0  0  0  0  0  0  0  0
    4.4164    1.0983    0.7921 C   0  0  0  0  0  0  0  0  0  0  0  0
    2.5166    2.5094    0.5829 C   0  0  0  0  0  0  0  0  0  0  0  0
    2.9944    1.2143    0.4527 N   0  0  0  0  0  0  0  0  0  0  0  0
    1.3641    2.8684    0.4122 O   0  0  0  0  0  0  0  0  0  0  0  0
    0.4695   -0.9574   -0.2790 H   0  0  0  0  0  0  0  0  0  0  0  0
    0.2774    0.8838   -0.0505 H   0  0  0  0  0  0  0  0  0  0  0  0
    2.8358   -0.8292    0.1460 H   0  0  0  0  0  0  0  0  0  0  0  0
    5.7751    2.7290    1.3627 H   0  0  0  0  0  0  0  0  0  0  0  0
    5.2727    2.7428   -0.3332 H   0  0  0  0  0  0  0  0  0  0  0  0
    3.6526    4.3512    0.4825 H   0  0  0  0  0  0  0  0  0  0  0  0
    3.5952    3.5988    2.0780 H   0  0  0  0  0  0  0  0  0  0  0  0
    4.5364    0.6956    1.8086 H   0  0  0  0  0  0  0  0  0  0  0  0
    4.9210    0.4172    0.0987 H   0  0  0  0  0  0  0  0  0  0  0  0
  1 10  1  0  0  0  0
  1  2  2  0  0  0  0
  2  7  1  0  0  0  0
  3  5  1  0  0  0  0
  3  4  1  0  0  0  0
  3 12  1  0  0  0  0
  4 15  1  0  0  0  0
  5 16  1  0  0  0  0
  6  4  1  0  0  0  0
  7  6  1  0  0  0  0
  7  5  1  0  0  0  0
  8  6  2  0  0  0  0
  9  1  1  0  0  0  0
 11  2  1  0  0  0  0
 13  3  1  0  0  0  0
 14  4  1  0  0  0  0
 17  5  1  0  0  0  0
M  END
>  <HBA>
2

>  <HBD>
0

>  <TPSA>
20.31

>  <cid>
6917

>  <dipole>
3.99

>  <excitation_energy_1>
5.039

>  <excitation_energy_2>
5.383

>  <excitation_energy_3>
5.392

>  <excitation_energy_4>
5.811

>  <homo_energy>
-5.872

>  <homo_lumo_gap>
5.845

>  <logP>
0.69

>  <lumo_energy>
-0.027

>  <melting_point>
-0.56

>  <molecular_refractivity>
35.38

>  <oscillator_strength_1>
0.0084

>  <oscillator_strength_2>
0.0968

>  <oscillator_strength_3>
0.1885

>  <oscillator_strength_4>
0.0044

>  <open_babel_can_smiles>
C=CN1CCCC1=O

>  <mulliken_charges>
17
1   -0.362573
2   0.07534
3   -0.300702
4   -0.371758
5   -0.130868
6   0.595554
7   -0.442004
8   -0.500138
9   0.13395
10   0.188941
11   0.134306
12   0.153139
13   0.161901
14   0.176959
15   0.173463
16   0.155859
17   0.15863

>  <lowdin_charges>
17
1   -0.367731
2   -0.103223
3   -0.281269
4   -0.301933
5   -0.192033
6   0.157517
7   -0.078943
8   -0.28153
9   0.161439
10   0.186764
11   0.156533
12   0.156282
13   0.154487
14   0.17074
15   0.166369
16   0.142777
17   0.153757

$$$$

