PCCDB-ID:  70310
public computational chemistry database (PCCDB) project, http://pccdb.org

 21 22  0  0  0  0  0  0  0  0999 V2000
    2.3361    0.4486   -1.3885 C   0  0  0  0  0  0  0  0  0  0  0  0
    4.3416    0.7508    2.9611 C   0  0  0  0  0  0  0  0  0  0  0  0
    2.4979    4.9094    1.3297 C   0  0  0  0  0  0  0  0  0  0  0  0
    4.2227    2.1160    3.0967 C   0  0  0  0  0  0  0  0  0  0  0  0
    3.2766    4.2543    2.2524 C   0  0  0  0  0  0  0  0  0  0  0  0
    3.7325    0.0792    1.8816 C   0  0  0  0  0  0  0  0  0  0  0  0
    1.8989    4.1511    0.2947 C   0  0  0  0  0  0  0  0  0  0  0  0
    3.4629    2.8508    2.1533 C   0  0  0  0  0  0  0  0  0  0  0  0
    2.9907    0.7616    0.9312 C   0  0  0  0  0  0  0  0  0  0  0  0
    2.8215    2.1820    1.0555 C   0  0  0  0  0  0  0  0  0  0  0  0
    2.0474    2.8500    0.1533 N   0  0  0  0  0  0  0  0  0  0  0  0
    2.4058   -0.0023   -0.0309 O   0  0  0  0  0  0  0  0  0  0  0  0
    2.2080   -0.4589   -1.9849 H   0  0  0  0  0  0  0  0  0  0  0  0
    3.2641    0.9506   -1.6850 H   0  0  0  0  0  0  0  0  0  0  0  0
    1.4992    1.1303   -1.5413 H   0  0  0  0  0  0  0  0  0  0  0  0
    4.9183    0.1776    3.6819 H   0  0  0  0  0  0  0  0  0  0  0  0
    2.3336    5.9814    1.3834 H   0  0  0  0  0  0  0  0  0  0  0  0
    4.6960    2.6417    3.9218 H   0  0  0  0  0  0  0  0  0  0  0  0
    3.7530    4.7929    3.0685 H   0  0  0  0  0  0  0  0  0  0  0  0
    3.8341   -0.9955    1.7686 H   0  0  0  0  0  0  0  0  0  0  0  0
    1.2700    4.6478   -0.4439 H   0  0  0  0  0  0  0  0  0  0  0  0
  1 12  1  0  0  0  0
  2  4  1  0  0  0  0
  2 16  1  0  0  0  0
  3 17  1  0  0  0  0
  3  5  2  0  0  0  0
  4 18  1  0  0  0  0
  5 19  1  0  0  0  0
  6  2  2  0  0  0  0
  7  3  1  0  0  0  0
  8  5  1  0  0  0  0
  8  4  2  0  0  0  0
  9 10  2  0  0  0  0
  9  6  1  0  0  0  0
 10  8  1  0  0  0  0
 11  7  2  0  0  0  0
 11 10  1  0  0  0  0
 12  9  1  0  0  0  0
 13  1  1  0  0  0  0
 14  1  1  0  0  0  0
 15  1  1  0  0  0  0
 20  6  1  0  0  0  0
 21  7  1  0  0  0  0
M  END
>  <HBA>
2

>  <HBD>
0

>  <TPSA>
22.12

>  <cid>
70310

>  <dipole>
1.91

>  <excitation_energy_1>
3.769

>  <excitation_energy_2>
4.3

>  <excitation_energy_3>
4.32

>  <excitation_energy_4>
5.168

>  <homo_energy>
-5.687

>  <homo_lumo_gap>
4.376

>  <logP>
2.243

>  <lumo_energy>
-1.312

>  <melting_point>
69.26

>  <molecular_refractivity>
48.23

>  <oscillator_strength_1>
0.0544

>  <oscillator_strength_2>
0.003

>  <oscillator_strength_3>
0.0022

>  <oscillator_strength_4>
0.0601

>  <open_babel_can_smiles>
COc1cccc2c1nccc2

>  <mulliken_charges>
21
1   -0.199288
2   -0.131895
3   -0.155682
4   -0.202638
5   -0.151209
6   -0.189177
7   0.045034
8   0.155668
9   0.357763
10   0.200534
11   -0.5034
12   -0.51982
13   0.150423
14   0.144636
15   0.178171
16   0.133963
17   0.13799
18   0.128167
19   0.142232
20   0.139743
21   0.138786

>  <lowdin_charges>
21
1   -0.273344
2   -0.147489
3   -0.179759
4   -0.179877
5   -0.126736
6   -0.182002
7   -0.090318
8   -0.008775
9   0.099682
10   0.011309
11   -0.14595
12   -0.205378
13   0.150993
14   0.14584
15   0.160734
16   0.162453
17   0.162924
18   0.158735
19   0.163995
20   0.166562
21   0.1564

$$$$

