PCCDB-ID:  58946
public computational chemistry database (PCCDB) project, http://pccdb.org

 37 38  0  0  1  0  0  0  0  0999 V2000
    5.3018    0.1768   -1.2485 C   0  0  0  0  0  0  0  0  0  0  0  0
    4.6720    0.1312    1.7461 C   0  0  0  0  0  0  0  0  0  0  0  0
    6.2304    1.8829    1.2252 C   0  0  0  0  0  0  0  0  0  0  0  0
    3.3419    6.7608   -1.2521 C   0  0  0  0  0  0  0  0  0  0  0  0
    2.0676    5.0658   -4.2210 C   0  0  0  0  0  0  0  0  0  0  0  0
    1.7527    3.8148   -4.7249 C   0  0  0  0  0  0  0  0  0  0  0  0
    3.0214    1.1530   -0.6337 C   0  0  0  0  0  0  0  0  0  0  0  0
    2.7773    4.1200   -2.0825 C   0  0  0  0  0  0  0  0  0  0  0  0
    2.0747    0.6545   -2.9788 C   0  0  0  0  0  0  0  0  0  0  0  0
    4.5579    1.2669   -0.4550 C   0  0  1  0  0  0  0  0  0  0  0  0
    2.5368    1.5134   -2.0095 C   0  0  0  0  0  0  0  0  0  0  0  0
    2.5755    5.2209   -2.9083 C   0  0  0  0  0  0  0  0  0  0  0  0
    2.4634    2.8377   -2.5798 C   0  0  0  0  0  0  0  0  0  0  0  0
    1.9524    2.7048   -3.8957 C   0  0  0  0  0  0  0  0  0  0  0  0
    1.7278    1.3587   -4.1152 N   0  0  0  0  0  0  0  0  0  0  0  0
    4.9003    1.3479    0.9787 N   0  0  0  0  0  0  0  0  0  0  0  0
    2.8366    6.5208   -2.5516 O   0  0  0  0  0  0  0  0  0  0  0  0
    5.0623    0.2558   -2.3136 H   0  0  0  0  0  0  0  0  0  0  0  0
    5.0145   -0.8284   -0.9167 H   0  0  0  0  0  0  0  0  0  0  0  0
    6.3883    0.2699   -1.1413 H   0  0  0  0  0  0  0  0  0  0  0  0
    4.7946    0.3542    2.8126 H   0  0  0  0  0  0  0  0  0  0  0  0
    5.3636   -0.6970    1.4996 H   0  0  0  0  0  0  0  0  0  0  0  0
    3.6486   -0.2265    1.6003 H   0  0  0  0  0  0  0  0  0  0  0  0
    6.3461    2.0872    2.2966 H   0  0  0  0  0  0  0  0  0  0  0  0
    6.3555    2.8287    0.6860 H   0  0  0  0  0  0  0  0  0  0  0  0
    7.0571    1.2091    0.9268 H   0  0  0  0  0  0  0  0  0  0  0  0
    3.4781    7.8417   -1.1754 H   0  0  0  0  0  0  0  0  0  0  0  0
    4.3084    6.2624   -1.0932 H   0  0  0  0  0  0  0  0  0  0  0  0
    2.6393    6.4287   -0.4751 H   0  0  0  0  0  0  0  0  0  0  0  0
    1.9318    5.9599   -4.8208 H   0  0  0  0  0  0  0  0  0  0  0  0
    1.3617    3.7073   -5.7335 H   0  0  0  0  0  0  0  0  0  0  0  0
    2.5590    1.8129    0.1120 H   0  0  0  0  0  0  0  0  0  0  0  0
    2.6945    0.1322   -0.3963 H   0  0  0  0  0  0  0  0  0  0  0  0
    3.1609    4.2316   -1.0749 H   0  0  0  0  0  0  0  0  0  0  0  0
    1.9631   -0.4212   -2.9448 H   0  0  0  0  0  0  0  0  0  0  0  0
    4.8522    2.2389   -0.8718 H   0  0  0  0  0  0  0  0  0  0  0  0
    1.3377    0.9585   -4.9534 H   0  0  0  0  0  0  0  0  0  0  0  0
  1 20  1  0  0  0  0
  1 19  1  0  0  0  0
  1 10  1  0  0  0  0
  2 21  1  0  0  0  0
  3 24  1  0  0  0  0
  4 27  1  0  0  0  0
  4 28  1  0  0  0  0
  4 29  1  0  0  0  0
  5 12  1  0  0  0  0
  6  5  2  0  0  0  0
  6 14  1  0  0  0  0
  7 10  1  0  0  0  0
  7 33  1  0  0  0  0
  7 32  1  0  0  0  0
  8 34  1  0  0  0  0
  9 35  1  0  0  0  0
  9 11  2  0  0  0  0
 10 36  1  6  0  0  0
 10 16  1  0  0  0  0
 11  7  1  0  0  0  0
 12 17  1  0  0  0  0
 12  8  2  0  0  0  0
 13  8  1  0  0  0  0
 13 11  1  0  0  0  0
 14 13  2  0  0  0  0
 15 14  1  0  0  0  0
 15  9  1  0  0  0  0
 16  3  1  0  0  0  0
 16  2  1  0  0  0  0
 17  4  1  0  0  0  0
 18  1  1  0  0  0  0
 22  2  1  0  0  0  0
 23  2  1  0  0  0  0
 25  3  1  0  0  0  0
 26  3  1  0  0  0  0
 30  5  1  0  0  0  0
 31  6  1  0  0  0  0
 37 15  1  0  0  0  0
M  END
>  <HBA>
2

>  <HBD>
1

>  <TPSA>
28.26

>  <cid>
58946

>  <dipole>
1.94

>  <excitation_energy_1>
4.386

>  <excitation_energy_2>
4.62

>  <excitation_energy_3>
4.634

>  <excitation_energy_4>
4.753

>  <homo_energy>
-5.138

>  <homo_lumo_gap>
5.099

>  <logP>
2.669

>  <lumo_energy>
-0.038

>  <melting_point>
105.85

>  <molecular_refractivity>
71.88

>  <oscillator_strength_1>
0.0506

>  <oscillator_strength_2>
0.066

>  <oscillator_strength_3>
0.0065

>  <oscillator_strength_4>
0.0372

>  <open_babel_can_smiles>
COc1ccc2c(c1)c(c[nH]2)C[C@@H](N(C)C)C

>  <mulliken_charges>
37
1   -0.462514
2   -0.303449
3   -0.294154
4   -0.207358
5   -0.193244
6   -0.162857
7   -0.351221
8   -0.293484
9   -0.006634
10   0.049544
11   0.071092
12   0.371523
13   0.074322
14   0.308558
15   -0.695189
16   -0.371967
17   -0.516096
18   0.154334
19   0.136578
20   0.143602
21   0.145166
22   0.119672
23   0.151272
24   0.144187
25   0.143577
26   0.118198
27   0.163318
28   0.145847
29   0.148385
30   0.131859
31   0.121818
32   0.151201
33   0.130751
34   0.133732
35   0.142942
36   0.132646
37   0.324043

>  <lowdin_charges>
37
1   -0.460952
2   -0.357693
3   -0.355133
4   -0.276287
5   -0.186628
6   -0.17498
7   -0.275507
8   -0.225405
9   -0.137602
10   -0.059943
11   -0.063846
12   0.08942
13   -0.028472
14   0.016277
15   -0.203971
16   -0.187962
17   -0.208132
18   0.157094
19   0.143979
20   0.147455
21   0.146774
22   0.121167
23   0.149274
24   0.14557
25   0.146994
26   0.119733
27   0.157248
28   0.141085
29   0.143792
30   0.165281
31   0.155248
32   0.157171
33   0.143797
34   0.162221
35   0.159976
36   0.142528
37   0.290427

$$$$

