PCCDB-ID:  41468
public computational chemistry database (PCCDB) project, http://pccdb.org

 24 24  0  0  1  0  0  0  0  0999 V2000
    1.3009    0.7336   -0.3982 C   0  0  0  0  0  0  0  0  0  0  0  0
    2.2462    0.2340    4.4340 C   0  0  0  0  0  0  0  0  0  0  0  0
    2.4201   -1.2002    0.8661 C   0  0  0  0  0  0  0  0  0  0  0  0
    3.0133    1.2917    2.2531 C   0  0  0  0  0  0  0  0  0  0  0  0
    2.6195    0.0974    0.0582 C   0  0  2  0  0  0  0  0  0  0  0  0
    2.8053   -0.0216    3.0374 C   0  0  2  0  0  0  0  0  0  0  0  0
    4.5773    1.5701    0.4773 N   0  0  0  0  0  0  0  0  0  0  0  0
    0.7671   -1.2914    2.7013 N   0  0  0  0  0  0  0  0  0  0  0  0
    3.4138    1.0222    0.8818 N   0  0  0  0  0  0  0  0  0  0  0  0
    1.9595   -0.9004    2.2210 N   0  0  0  0  0  0  0  0  0  0  0  0
    4.9180    1.3062   -0.6695 O   0  0  0  0  0  0  0  0  0  0  0  0
    0.0827   -1.9657    1.9381 O   0  0  0  0  0  0  0  0  0  0  0  0
    0.7900    0.0654   -1.0994 H   0  0  0  0  0  0  0  0  0  0  0  0
    1.4921    1.6842   -0.9049 H   0  0  0  0  0  0  0  0  0  0  0  0
    0.6220    0.9143    0.4420 H   0  0  0  0  0  0  0  0  0  0  0  0
    2.9547    0.8602    4.9868 H   0  0  0  0  0  0  0  0  0  0  0  0
    2.1073   -0.7011    4.9812 H   0  0  0  0  0  0  0  0  0  0  0  0
    1.2810    0.7459    4.3955 H   0  0  0  0  0  0  0  0  0  0  0  0
    3.3688   -1.7466    0.9346 H   0  0  0  0  0  0  0  0  0  0  0  0
    1.6666   -1.8446    0.4101 H   0  0  0  0  0  0  0  0  0  0  0  0
    3.8041    1.8972    2.7033 H   0  0  0  0  0  0  0  0  0  0  0  0
    2.0782    1.8677    2.2666 H   0  0  0  0  0  0  0  0  0  0  0  0
    3.2459   -0.1129   -0.8123 H   0  0  0  0  0  0  0  0  0  0  0  0
    3.7839   -0.5169    3.1228 H   0  0  0  0  0  0  0  0  0  0  0  0
  1  5  1  0  0  0  0
  1 15  1  0  0  0  0
  2 17  1  0  0  0  0
  2 16  1  0  0  0  0
  3 19  1  0  0  0  0
  3 10  1  0  0  0  0
  4 22  1  0  0  0  0
  4 21  1  0  0  0  0
  4  6  1  0  0  0  0
  5 23  1  6  0  0  0
  5  3  1  0  0  0  0
  5  9  1  0  0  0  0
  6 24  1  1  0  0  0
  6  2  1  0  0  0  0
  7  9  1  0  0  0  0
  9  4  1  0  0  0  0
 10  8  1  0  0  0  0
 10  6  1  0  0  0  0
 11  7  2  0  0  0  0
 12  8  2  0  0  0  0
 13  1  1  0  0  0  0
 14  1  1  0  0  0  0
 18  2  1  0  0  0  0
 20  3  1  0  0  0  0
M  END
>  <HBA>
6

>  <HBD>
0

>  <TPSA>
65.34

>  <cid>
41468

>  <dipole>
1.81

>  <excitation_energy_1>
3.328

>  <excitation_energy_2>
3.378

>  <excitation_energy_3>
4.58

>  <excitation_energy_4>
4.643

>  <homo_energy>
-6.28

>  <homo_lumo_gap>
5.007

>  <logP>
0.62

>  <lumo_energy>
-1.274

>  <melting_point>
39.39

>  <molecular_refractivity>
51.94

>  <oscillator_strength_1>
0.0001

>  <oscillator_strength_2>
0.0012

>  <oscillator_strength_3>
0.0003

>  <oscillator_strength_4>
0.0001

>  <open_babel_can_smiles>
C[C@@H]1CN(N=O)[C@@H](CN1N=O)C

>  <mulliken_charges>
24
1   -0.449859
2   -0.454439
3   -0.167692
4   -0.127788
5   0.007257
6   0.032295
7   0.157037
8   0.162412
9   -0.248093
10   -0.241737
11   -0.370488
12   -0.381276
13   0.16687
14   0.169992
15   0.16045
16   0.15523
17   0.179299
18   0.171957
19   0.171602
20   0.205814
21   0.183852
22   0.165674
23   0.193333
24   0.158296

>  <lowdin_charges>
24
1   -0.449441
2   -0.446146
3   -0.224531
4   -0.209098
5   -0.080119
6   -0.061679
7   0.054763
8   0.058273
9   -0.051183
10   -0.054029
11   -0.26211
12   -0.268027
13   0.166299
14   0.164995
15   0.157193
16   0.161211
17   0.171717
18   0.164987
19   0.161567
20   0.185647
21   0.175598
22   0.154795
23   0.178065
24   0.151253

$$$$

