PCCDB-ID:  68493
public computational chemistry database (PCCDB) project, http://pccdb.org

 26 26  0  0  0  0  0  0  0  0999 V2000
    2.0657   -0.4444   -1.3902 C   0  0  0  0  0  0  0  0  0  0  0  0
    0.7793    0.3174    0.6519 C   0  0  0  0  0  0  0  0  0  0  0  0
    7.4936   -2.9075    2.6754 C   0  0  0  0  0  0  0  0  0  0  0  0
    7.8808   -2.0341    1.6545 C   0  0  0  0  0  0  0  0  0  0  0  0
    6.1464   -3.0184    3.0239 C   0  0  0  0  0  0  0  0  0  0  0  0
    6.9236   -1.2759    0.9878 C   0  0  0  0  0  0  0  0  0  0  0  0
    5.1865   -2.2599    2.3539 C   0  0  0  0  0  0  0  0  0  0  0  0
    3.1004   -0.6333    0.9244 C   0  0  0  0  0  0  0  0  0  0  0  0
    2.1673    0.1775    0.0103 C   0  0  0  0  0  0  0  0  0  0  0  0
    5.5653   -1.3801    1.3283 C   0  0  0  0  0  0  0  0  0  0  0  0
    4.5828   -0.5305    0.5727 C   0  0  0  0  0  0  0  0  0  0  0  0
    4.9758    0.2420   -0.2901 O   0  0  0  0  0  0  0  0  0  0  0  0
    1.4123    0.1550   -2.0349 H   0  0  0  0  0  0  0  0  0  0  0  0
    1.6412   -1.4565   -1.3397 H   0  0  0  0  0  0  0  0  0  0  0  0
    3.0472   -0.5042   -1.8683 H   0  0  0  0  0  0  0  0  0  0  0  0
    0.1138    0.9145    0.0176 H   0  0  0  0  0  0  0  0  0  0  0  0
    0.8346    0.8066    1.6322 H   0  0  0  0  0  0  0  0  0  0  0  0
    0.3062   -0.6633    0.7949 H   0  0  0  0  0  0  0  0  0  0  0  0
    8.2404   -3.4997    3.1978 H   0  0  0  0  0  0  0  0  0  0  0  0
    8.9290   -1.9462    1.3819 H   0  0  0  0  0  0  0  0  0  0  0  0
    5.8425   -3.6955    3.8176 H   0  0  0  0  0  0  0  0  0  0  0  0
    7.2006   -0.5906    0.1934 H   0  0  0  0  0  0  0  0  0  0  0  0
    4.1433   -2.3573    2.6372 H   0  0  0  0  0  0  0  0  0  0  0  0
    2.8018   -1.6917    0.9263 H   0  0  0  0  0  0  0  0  0  0  0  0
    2.9926   -0.2985    1.9678 H   0  0  0  0  0  0  0  0  0  0  0  0
    2.6044    1.1781   -0.0971 H   0  0  0  0  0  0  0  0  0  0  0  0
  1 14  1  0  0  0  0
  1  9  1  0  0  0  0
  2 18  1  0  0  0  0
  2 17  1  0  0  0  0
  3  5  1  0  0  0  0
  3 19  1  0  0  0  0
  4  3  2  0  0  0  0
  5 21  1  0  0  0  0
  6 10  2  0  0  0  0
  6  4  1  0  0  0  0
  7 23  1  0  0  0  0
  7  5  2  0  0  0  0
  8 24  1  0  0  0  0
  8 25  1  0  0  0  0
  9  2  1  0  0  0  0
  9  8  1  0  0  0  0
 10  7  1  0  0  0  0
 11  8  1  0  0  0  0
 11 10  1  0  0  0  0
 12 11  2  0  0  0  0
 13  1  1  0  0  0  0
 15  1  1  0  0  0  0
 16  2  1  0  0  0  0
 20  4  1  0  0  0  0
 22  6  1  0  0  0  0
 26  9  1  0  0  0  0
M  END
>  <HBA>
1

>  <HBD>
0

>  <TPSA>
17.07

>  <cid>
68493

>  <dipole>
2.72

>  <excitation_energy_1>
3.731

>  <excitation_energy_2>
4.727

>  <excitation_energy_3>
5.136

>  <excitation_energy_4>
5.517

>  <homo_energy>
-6.705

>  <homo_lumo_gap>
5.236

>  <logP>
2.915

>  <lumo_energy>
-1.469

>  <melting_point>
36.22

>  <molecular_refractivity>
51.06

>  <oscillator_strength_1>
0.0

>  <oscillator_strength_2>
0.0219

>  <oscillator_strength_3>
0.2694

>  <oscillator_strength_4>
0.0004

>  <open_babel_can_smiles>
CC(CC(=O)c1ccccc1)C

>  <mulliken_charges>
26
1   -0.450873
2   -0.447112
3   -0.118694
4   -0.133614
5   -0.13412
6   -0.155295
7   -0.182781
8   -0.366887
9   -0.05649
10   0.079285
11   0.40637
12   -0.469111
13   0.140156
14   0.129366
15   0.167191
16   0.144332
17   0.137629
18   0.135712
19   0.137359
20   0.1382
21   0.135691
22   0.163692
23   0.137092
24   0.15483
25   0.1606
26   0.147471

>  <lowdin_charges>
26
1   -0.447921
2   -0.445244
3   -0.141485
4   -0.153933
5   -0.157557
6   -0.127834
7   -0.149099
8   -0.307632
9   -0.116268
10   -0.050724
11   0.161359
12   -0.244136
13   0.15019
14   0.139334
15   0.160158
16   0.151735
17   0.145312
18   0.143303
19   0.162712
20   0.16019
21   0.161104
22   0.177226
23   0.160834
24   0.156445
25   0.162138
26   0.149796

$$$$

