PCCDB-ID:  10884
public computational chemistry database (PCCDB) project, http://pccdb.org

 25 24  0  0  0  0  0  0  0  0999 V2000
    7.2899    3.0032   -2.3399 C   0  0  0  0  0  0  0  0  0  0  0  0
    6.2094   -3.1437    0.2014 C   0  0  0  0  0  0  0  0  0  0  0  0
    5.4734   -2.1344    2.4088 C   0  0  0  0  0  0  0  0  0  0  0  0
    6.5798    3.0821   -0.9968 C   0  0  0  0  0  0  0  0  0  0  0  0
    5.4023   -0.7373    0.2895 C   0  0  0  0  0  0  0  0  0  0  0  0
    5.2646   -2.1481    0.8883 C   0  0  0  0  0  0  0  0  0  0  0  0
    7.0161    0.9603    0.0912 C   0  0  0  0  0  0  0  0  0  0  0  0
    6.7450   -0.2057    0.5010 N   0  0  0  0  0  0  0  0  0  0  0  0
    8.2517    1.4991    0.2701 O   0  0  0  0  0  0  0  0  0  0  0  0
    6.1521    1.7788   -0.5367 O   0  0  0  0  0  0  0  0  0  0  0  0
    7.5198    4.0134   -2.6984 H   0  0  0  0  0  0  0  0  0  0  0  0
    6.6556    2.5103   -3.0838 H   0  0  0  0  0  0  0  0  0  0  0  0
    8.2286    2.4487   -2.2529 H   0  0  0  0  0  0  0  0  0  0  0  0
    6.0847   -4.1536    0.6100 H   0  0  0  0  0  0  0  0  0  0  0  0
    7.2528   -2.8427    0.3440 H   0  0  0  0  0  0  0  0  0  0  0  0
    6.0194   -3.1924   -0.8782 H   0  0  0  0  0  0  0  0  0  0  0  0
    5.3459   -3.1368    2.8348 H   0  0  0  0  0  0  0  0  0  0  0  0
    4.7569   -1.4660    2.9027 H   0  0  0  0  0  0  0  0  0  0  0  0
    6.4816   -1.7835    2.6537 H   0  0  0  0  0  0  0  0  0  0  0  0
    5.6470    3.6464   -1.0781 H   0  0  0  0  0  0  0  0  0  0  0  0
    7.2086    3.5505   -0.2360 H   0  0  0  0  0  0  0  0  0  0  0  0
    4.6486   -0.0745    0.7423 H   0  0  0  0  0  0  0  0  0  0  0  0
    5.1706   -0.7756   -0.7864 H   0  0  0  0  0  0  0  0  0  0  0  0
    4.2297   -2.4656    0.6887 H   0  0  0  0  0  0  0  0  0  0  0  0
    8.7500    0.8112    0.7454 H   0  0  0  0  0  0  0  0  0  0  0  0
  1 13  1  0  0  0  0
  1  4  1  0  0  0  0
  2 15  1  0  0  0  0
  2 14  1  0  0  0  0
  2  6  1  0  0  0  0
  3 19  1  0  0  0  0
  3 17  1  0  0  0  0
  3 18  1  0  0  0  0
  4 10  1  0  0  0  0
  4 21  1  0  0  0  0
  5  8  1  0  0  0  0
  5 22  1  0  0  0  0
  5  6  1  0  0  0  0
  6  3  1  0  0  0  0
  7  9  1  0  0  0  0
  7  8  2  0  0  0  0
  9 25  1  0  0  0  0
 10  7  1  0  0  0  0
 11  1  1  0  0  0  0
 12  1  1  0  0  0  0
 16  2  1  0  0  0  0
 20  4  1  0  0  0  0
 23  5  1  0  0  0  0
 24  6  1  0  0  0  0
M  END
>  <HBA>
3

>  <HBD>
1

>  <TPSA>
38.33

>  <cid>
10884

>  <dipole>
2.09

>  <excitation_energy_1>
5.804

>  <excitation_energy_2>
6.355

>  <excitation_energy_3>
6.383

>  <excitation_energy_4>
6.497

>  <homo_energy>
-6.378

>  <homo_lumo_gap>
7.826

>  <logP>
1.779

>  <lumo_energy>
1.448

>  <melting_point>
22.73

>  <molecular_refractivity>
40.24

>  <oscillator_strength_1>
0.0021

>  <oscillator_strength_2>
0.007

>  <oscillator_strength_3>
0.0168

>  <oscillator_strength_4>
0.022

>  <open_babel_can_smiles>
CCO/C(=N\CC(C)C)/O

>  <mulliken_charges>
25
1   -0.462299
2   -0.439722
3   -0.439654
4   -0.035714
5   -0.127301
6   -0.071839
7   0.733926
8   -0.507683
9   -0.612817
10   -0.477985
11   0.149456
12   0.161411
13   0.172192
14   0.132335
15   0.155065
16   0.13052
17   0.132268
18   0.13076
19   0.154905
20   0.156823
21   0.168695
22   0.131612
23   0.130612
24   0.113306
25   0.421129

>  <lowdin_charges>
25
1   -0.457534
2   -0.442781
3   -0.447139
4   -0.123261
5   -0.194203
6   -0.122016
7   0.186863
8   -0.275019
9   -0.377265
10   -0.194969
11   0.15796
12   0.159582
13   0.162811
14   0.143287
15   0.152131
16   0.141481
17   0.143528
18   0.144687
19   0.152658
20   0.154853
21   0.157068
22   0.137896
23   0.134623
24   0.13266
25   0.372098

$$$$

