PCCDB-ID:  7123
public computational chemistry database (PCCDB) project, http://pccdb.org

 21 22  0  0  0  0  0  0  0  0999 V2000
    2.4567    0.7305   -0.0024 C   0  0  0  0  0  0  0  0  0  0  0  0
    2.4567   -0.6859    0.0506 C   0  0  0  0  0  0  0  0  0  0  0  0
    1.2700    1.4280   -0.0340 C   0  0  0  0  0  0  0  0  0  0  0  0
    1.2689   -1.3800    0.0703 C   0  0  0  0  0  0  0  0  0  0  0  0
   -1.2192    1.4248   -0.0375 C   0  0  0  0  0  0  0  0  0  0  0  0
   -2.4063    0.7317   -0.0267 C   0  0  0  0  0  0  0  0  0  0  0  0
   -1.2134   -1.3756    0.0582 C   0  0  0  0  0  0  0  0  0  0  0  0
    0.0267    0.7424   -0.0151 C   0  0  0  0  0  0  0  0  0  0  0  0
    0.0257   -0.6907    0.0381 C   0  0  0  0  0  0  0  0  0  0  0  0
   -2.4132   -0.6911    0.0112 C   0  0  0  0  0  0  0  0  0  0  0  0
   -3.6756   -1.4990    0.0246 C   0  0  0  0  0  0  0  0  0  0  0  0
   -3.7357   -2.6409    0.4154 O   0  0  0  0  0  0  0  0  0  0  0  0
   -4.7989   -0.8843   -0.4418 O   0  0  0  0  0  0  0  0  0  0  0  0
    3.4020    1.2659   -0.0163 H   0  0  0  0  0  0  0  0  0  0  0  0
    3.4015   -1.2216    0.0761 H   0  0  0  0  0  0  0  0  0  0  0  0
    1.2697    2.5145   -0.0737 H   0  0  0  0  0  0  0  0  0  0  0  0
    1.2630   -2.4662    0.1120 H   0  0  0  0  0  0  0  0  0  0  0  0
   -1.2215    2.5119   -0.0520 H   0  0  0  0  0  0  0  0  0  0  0  0
   -3.3406    1.2883   -0.0003 H   0  0  0  0  0  0  0  0  0  0  0  0
   -1.2336   -2.4602    0.1086 H   0  0  0  0  0  0  0  0  0  0  0  0
   -4.5669   -0.0416   -0.8641 H   0  0  0  0  0  0  0  0  0  0  0  0
  1  2  2  0  0  0  0
  2  4  1  0  0  0  0
  2 15  1  0  0  0  0
  3  8  2  0  0  0  0
  3  1  1  0  0  0  0
  4 17  1  0  0  0  0
  5  6  2  0  0  0  0
  5  8  1  0  0  0  0
  6 19  1  0  0  0  0
  6 10  1  0  0  0  0
  7 20  1  0  0  0  0
  8  9  1  0  0  0  0
  9  7  1  0  0  0  0
  9  4  2  0  0  0  0
 10 11  1  0  0  0  0
 10  7  2  0  0  0  0
 11 12  2  0  0  0  0
 13 11  1  0  0  0  0
 14  1  1  0  0  0  0
 16  3  1  0  0  0  0
 18  5  1  0  0  0  0
 21 13  1  0  0  0  0
M  END
>  <HBA>
2

>  <HBD>
1

>  <TPSA>
37.3

>  <cid>
7123

>  <dipole>
5.11

>  <excitation_energy_1>
4.042

>  <excitation_energy_2>
4.304

>  <excitation_energy_3>
4.628

>  <excitation_energy_4>
5.34

>  <homo_energy>
-6.294

>  <homo_lumo_gap>
4.574

>  <logP>
2.538

>  <lumo_energy>
-1.72

>  <melting_point>
139.98

>  <molecular_refractivity>
50.91

>  <oscillator_strength_1>
0.0521

>  <oscillator_strength_2>
0.0097

>  <oscillator_strength_3>
0.0108

>  <oscillator_strength_4>
0.7714

>  <open_babel_can_smiles>
OC(=O)c1ccc2c(c1)cccc2

>  <mulliken_charges>
21
1   -0.129346
2   -0.13751
3   -0.191883
4   -0.179089
5   -0.194638
6   -0.203066
7   -0.231274
8   0.145623
9   0.130707
10   0.050011
11   0.552543
12   -0.447615
13   -0.577262
14   0.138904
15   0.139589
16   0.136735
17   0.143796
18   0.139915
19   0.132753
20   0.170131
21   0.410975

>  <lowdin_charges>
21
1   -0.147955
2   -0.153305
3   -0.152755
4   -0.144503
5   -0.14774
6   -0.173357
7   -0.118092
8   0.006914
9   -0.000766
10   -0.062547
11   0.190593
12   -0.240581
13   -0.356473
14   0.163066
15   0.163436
16   0.158893
17   0.162522
18   0.160692
19   0.157281
20   0.177868
21   0.356809

$$$$

