PCCDB-ID:  66512
public computational chemistry database (PCCDB) project, http://pccdb.org

 35 35  0  0  0  0  0  0  0  0999 V2000
    1.5259   -1.1959    0.7497 C   0  0  0  0  0  0  0  0  0  0  0  0
    3.3395    2.8782   -1.5796 C   0  0  0  0  0  0  0  0  0  0  0  0
    6.4162    3.0755   -0.8297 C   0  0  0  0  0  0  0  0  0  0  0  0
    6.8056   -1.5740   -1.7304 C   0  0  0  0  0  0  0  0  0  0  0  0
    7.6140   -0.1132    0.1780 C   0  0  0  0  0  0  0  0  0  0  0  0
    6.4777   -2.2609    0.6465 C   0  0  0  0  0  0  0  0  0  0  0  0
    2.5243    0.8222   -0.4042 C   0  0  0  0  0  0  0  0  0  0  0  0
    3.9849   -0.9719    0.2050 C   0  0  0  0  0  0  0  0  0  0  0  0
    2.6979   -0.4291    0.1827 C   0  0  0  0  0  0  0  0  0  0  0  0
    3.6021    1.5263   -0.9439 C   0  0  0  0  0  0  0  0  0  0  0  0
    5.9871    1.7941   -1.5449 C   0  0  0  0  0  0  0  0  0  0  0  0
    5.1053   -0.3260   -0.3390 C   0  0  0  0  0  0  0  0  0  0  0  0
    4.8948    0.9568   -0.9096 C   0  0  0  0  0  0  0  0  0  0  0  0
    6.4796   -1.0461   -0.3101 C   0  0  0  0  0  0  0  0  0  0  0  0
    6.4967    1.5002   -2.6126 O   0  0  0  0  0  0  0  0  0  0  0  0
    0.7348   -0.5221    1.0956 H   0  0  0  0  0  0  0  0  0  0  0  0
    1.8285   -1.8253    1.5936 H   0  0  0  0  0  0  0  0  0  0  0  0
    1.0814   -1.8580   -0.0056 H   0  0  0  0  0  0  0  0  0  0  0  0
    2.2671    3.0186   -1.7450 H   0  0  0  0  0  0  0  0  0  0  0  0
    3.8389    2.9824   -2.5492 H   0  0  0  0  0  0  0  0  0  0  0  0
    3.6793    3.7064   -0.9451 H   0  0  0  0  0  0  0  0  0  0  0  0
    5.9067    3.2250    0.1252 H   0  0  0  0  0  0  0  0  0  0  0  0
    6.2318    3.9354   -1.4824 H   0  0  0  0  0  0  0  0  0  0  0  0
    7.4964    3.0329   -0.6554 H   0  0  0  0  0  0  0  0  0  0  0  0
    7.7754   -2.0881   -1.7273 H   0  0  0  0  0  0  0  0  0  0  0  0
    6.8399   -0.7644   -2.4617 H   0  0  0  0  0  0  0  0  0  0  0  0
    6.0446   -2.2939   -2.0541 H   0  0  0  0  0  0  0  0  0  0  0  0
    8.5354   -0.6930    0.3072 H   0  0  0  0  0  0  0  0  0  0  0  0
    7.3670    0.3410    1.1449 H   0  0  0  0  0  0  0  0  0  0  0  0
    7.8450    0.6811   -0.5329 H   0  0  0  0  0  0  0  0  0  0  0  0
    7.4811   -2.6999    0.6654 H   0  0  0  0  0  0  0  0  0  0  0  0
    5.7918   -3.0494    0.3204 H   0  0  0  0  0  0  0  0  0  0  0  0
    6.2173   -1.9783    1.6733 H   0  0  0  0  0  0  0  0  0  0  0  0
    1.5307    1.2644   -0.4470 H   0  0  0  0  0  0  0  0  0  0  0  0
    4.1045   -1.9444    0.6667 H   0  0  0  0  0  0  0  0  0  0  0  0
  1 16  1  0  0  0  0
  1 17  1  0  0  0  0
  2 21  1  0  0  0  0
  2 10  1  0  0  0  0
  3 24  1  0  0  0  0
  3 22  1  0  0  0  0
  4 25  1  0  0  0  0
  4 14  1  0  0  0  0
  5 28  1  0  0  0  0
  5 29  1  0  0  0  0
  6 31  1  0  0  0  0
  6 33  1  0  0  0  0
  7  9  2  0  0  0  0
  8 35  1  0  0  0  0
  9  8  1  0  0  0  0
  9  1  1  0  0  0  0
 10 13  2  0  0  0  0
 10  7  1  0  0  0  0
 11 13  1  0  0  0  0
 11  3  1  0  0  0  0
 12 14  1  0  0  0  0
 12  8  2  0  0  0  0
 13 12  1  0  0  0  0
 14  5  1  0  0  0  0
 14  6  1  0  0  0  0
 15 11  2  0  0  0  0
 18  1  1  0  0  0  0
 19  2  1  0  0  0  0
 20  2  1  0  0  0  0
 23  3  1  0  0  0  0
 26  4  1  0  0  0  0
 27  4  1  0  0  0  0
 30  5  1  0  0  0  0
 32  6  1  0  0  0  0
 34  7  1  0  0  0  0
M  END
>  <HBA>
1

>  <HBD>
0

>  <TPSA>
17.07

>  <cid>
66512

>  <dipole>
2.55

>  <excitation_energy_1>
4.05

>  <excitation_energy_2>
4.603

>  <excitation_energy_3>
4.681

>  <excitation_energy_4>
5.291

>  <homo_energy>
-6.324

>  <homo_lumo_gap>
5.494

>  <logP>
3.804

>  <lumo_energy>
-0.83

>  <melting_point>
57.68

>  <molecular_refractivity>
65.84

>  <oscillator_strength_1>
0.0029

>  <oscillator_strength_2>
0.0396

>  <oscillator_strength_3>
0.0108

>  <oscillator_strength_4>
0.0094

>  <open_babel_can_smiles>
Cc1cc(C)c(c(c1)C(C)(C)C)C(=O)C

>  <mulliken_charges>
35
1   -0.532496
2   -0.549601
3   -0.518433
4   -0.455254
5   -0.472622
6   -0.455555
7   -0.252808
8   -0.269236
9   0.210706
10   0.160137
11   0.346741
12   0.153728
13   -0.036311
14   0.023722
15   -0.431301
16   0.156188
17   0.157422
18   0.167393
19   0.161229
20   0.174378
21   0.163868
22   0.16266
23   0.18057
24   0.183192
25   0.130922
26   0.189779
27   0.137711
28   0.142717
29   0.142658
30   0.161495
31   0.141436
32   0.146131
33   0.143414
34   0.115358
35   0.120061

>  <lowdin_charges>
35
1   -0.444307
2   -0.447769
3   -0.475747
4   -0.450408
5   -0.44963
6   -0.443774
7   -0.179575
8   -0.182718
9   0.005001
10   0.004419
11   0.171444
12   0.00985
13   -0.061019
14   0.01809
15   -0.232639
16   0.15859
17   0.159025
18   0.164116
19   0.159315
20   0.164816
21   0.160978
22   0.161745
23   0.177155
24   0.176387
25   0.143327
26   0.170631
27   0.148327
28   0.151082
29   0.148375
30   0.158591
31   0.149874
32   0.148991
33   0.147349
34   0.151394
35   0.158713

$$$$

