PCCDB-ID:  18061
public computational chemistry database (PCCDB) project, http://pccdb.org

 29 29  0  0  1  0  0  0  0  0999 V2000
    5.1959    0.4670    2.8785 C   0  0  0  0  0  0  0  0  0  0  0  0
    4.5754    0.2736    1.4971 C   0  0  0  0  0  0  0  0  0  0  0  0
    2.6866   -3.5599   -2.3630 C   0  0  0  0  0  0  0  0  0  0  0  0
    2.3145   -3.7662   -3.6945 C   0  0  0  0  0  0  0  0  0  0  0  0
    4.9009   -2.9643   -3.0911 C   0  0  0  0  0  0  0  0  0  0  0  0
    4.0029   -1.4213   -0.2048 C   0  0  0  0  0  0  0  0  0  0  0  0
    3.9829   -3.1513   -2.0498 C   0  0  0  0  0  0  0  0  0  0  0  0
    3.2278   -3.5794   -4.7300 C   0  0  0  0  0  0  0  0  0  0  0  0
    4.5417   -3.1775   -4.4189 C   0  0  0  0  0  0  0  0  0  0  0  0
    4.3817   -2.8601   -0.6181 C   0  0  1  0  0  0  0  0  0  0  0  0
    4.5799   -1.1407    1.1127 N   0  0  0  0  0  0  0  0  0  0  0  0
    2.9258   -3.7718   -6.0507 O   0  0  0  0  0  0  0  0  0  0  0  0
    5.4091   -3.0163   -5.4640 O   0  0  0  0  0  0  0  0  0  0  0  0
    5.7793   -3.0247   -0.4484 O   0  0  0  0  0  0  0  0  0  0  0  0
    5.2227    1.5287    3.1462 H   0  0  0  0  0  0  0  0  0  0  0  0
    6.2180    0.0750    2.9009 H   0  0  0  0  0  0  0  0  0  0  0  0
    4.6160   -0.0542    3.6507 H   0  0  0  0  0  0  0  0  0  0  0  0
    5.1599    0.8201    0.7465 H   0  0  0  0  0  0  0  0  0  0  0  0
    3.5592    0.7089    1.4793 H   0  0  0  0  0  0  0  0  0  0  0  0
    1.9589   -3.7262   -1.5723 H   0  0  0  0  0  0  0  0  0  0  0  0
    1.3021   -4.0885   -3.9336 H   0  0  0  0  0  0  0  0  0  0  0  0
    5.9180   -2.6702   -2.8441 H   0  0  0  0  0  0  0  0  0  0  0  0
    2.9097   -1.2819   -0.2531 H   0  0  0  0  0  0  0  0  0  0  0  0
    4.4542   -0.7270   -0.9235 H   0  0  0  0  0  0  0  0  0  0  0  0
    3.8347   -3.5576    0.0442 H   0  0  0  0  0  0  0  0  0  0  0  0
    4.0749   -1.6768    1.8197 H   0  0  0  0  0  0  0  0  0  0  0  0
    2.0011   -4.0569   -6.1126 H   0  0  0  0  0  0  0  0  0  0  0  0
    6.2756   -2.7759   -5.1006 H   0  0  0  0  0  0  0  0  0  0  0  0
    5.9875   -2.4506    0.3173 H   0  0  0  0  0  0  0  0  0  0  0  0
  1 16  1  0  0  0  0
  1 15  1  0  0  0  0
  1 17  1  0  0  0  0
  2  1  1  0  0  0  0
  3  7  1  0  0  0  0
  3 20  1  0  0  0  0
  4  3  2  0  0  0  0
  5 22  1  0  0  0  0
  5  7  2  0  0  0  0
  6 11  1  0  0  0  0
  7 10  1  0  0  0  0
  8  9  2  0  0  0  0
  8  4  1  0  0  0  0
  9  5  1  0  0  0  0
 10 14  1  0  0  0  0
 10  6  1  0  0  0  0
 10 25  1  1  0  0  0
 11  2  1  0  0  0  0
 11 26  1  0  0  0  0
 12  8  1  0  0  0  0
 13 28  1  0  0  0  0
 13  9  1  0  0  0  0
 14 29  1  0  0  0  0
 18  2  1  0  0  0  0
 19  2  1  0  0  0  0
 21  4  1  0  0  0  0
 23  6  1  0  0  0  0
 24  6  1  0  0  0  0
 27 12  1  0  0  0  0
M  END
>  <HBA>
4

>  <HBD>
4

>  <TPSA>
72.72

>  <cid>
18061

>  <dipole>
3.83

>  <excitation_energy_1>
4.781

>  <excitation_energy_2>
4.832

>  <excitation_energy_3>
5.096

>  <excitation_energy_4>
5.12

>  <homo_energy>
-5.361

>  <homo_lumo_gap>
5.706

>  <logP>
1.132

>  <lumo_energy>
0.346

>  <melting_point>
132.91

>  <molecular_refractivity>
53.84

>  <oscillator_strength_1>
0.0034

>  <oscillator_strength_2>
0.0551

>  <oscillator_strength_3>
0.0004

>  <oscillator_strength_4>
0.0031

>  <open_babel_can_smiles>
CCNC[C@@H](c1ccc(c(c1)O)O)O

>  <mulliken_charges>
29
1   -0.452296
2   -0.106911
3   -0.194813
4   -0.201154
5   -0.252806
6   -0.143246
7   0.135893
8   0.319742
9   0.326937
10   0.079722
11   -0.582202
12   -0.634143
13   -0.636508
14   -0.651193
15   0.150492
16   0.15946
17   0.141849
18   0.148176
19   0.121082
20   0.115042
21   0.114981
22   0.139372
23   0.126233
24   0.151699
25   0.109241
26   0.298972
27   0.405175
28   0.407622
29   0.403584

>  <lowdin_charges>
29
1   -0.447561
2   -0.196524
3   -0.183539
4   -0.205985
5   -0.205402
6   -0.22238
7   -0.020323
8   0.075322
9   0.076895
10   -0.00214
11   -0.366717
12   -0.371125
13   -0.370901
14   -0.47213
15   0.154811
16   0.155527
17   0.148045
18   0.147006
19   0.121688
20   0.153643
21   0.151381
22   0.165002
23   0.128695
24   0.152152
25   0.125275
26   0.255784
27   0.355408
28   0.358344
29   0.33975

$$$$

