PCCDB-ID:  20850
public computational chemistry database (PCCDB) project, http://pccdb.org

 33 32  0  0  1  0  0  0  0  0999 V2000
    0.5591   -3.3005   -0.4632 C   0  0  0  0  0  0  0  0  0  0  0  0
    6.8194    0.4126   -1.9530 C   0  0  0  0  0  0  0  0  0  0  0  0
    8.8291    1.1909   -0.6124 C   0  0  0  0  0  0  0  0  0  0  0  0
    5.7329   -4.9233    0.8707 C   0  0  0  0  0  0  0  0  0  0  0  0
    1.8075   -3.6616   -0.7609 C   0  0  0  0  0  0  0  0  0  0  0  0
    6.8624   -2.1873   -0.1841 C   0  0  0  0  0  0  0  0  0  0  0  0
    7.7999   -1.0116   -0.1078 C   0  0  0  0  0  0  0  0  0  0  0  0
    6.1058   -2.4081    1.1426 C   0  0  0  0  0  0  0  0  0  0  0  0
    2.8348   -4.1044    0.2443 C   0  0  0  0  0  0  0  0  0  0  0  0
    7.7993    0.1102   -0.8450 C   0  0  0  0  0  0  0  0  0  0  0  0
    5.0815   -3.5601    1.1396 C   0  0  1  0  0  0  0  0  0  0  0  0
    4.0367   -3.2712    0.1441 N   0  0  0  0  0  0  0  0  0  0  0  0
   -0.1476   -2.9943   -1.2300 H   0  0  0  0  0  0  0  0  0  0  0  0
    0.1919   -3.3052    0.5615 H   0  0  0  0  0  0  0  0  0  0  0  0
    7.3455    0.5589   -2.9070 H   0  0  0  0  0  0  0  0  0  0  0  0
    6.2827    1.3501   -1.7502 H   0  0  0  0  0  0  0  0  0  0  0  0
    6.0771   -0.3749   -2.0987 H   0  0  0  0  0  0  0  0  0  0  0  0
    8.3506    2.1467   -0.3551 H   0  0  0  0  0  0  0  0  0  0  0  0
    9.4219    1.3765   -1.5195 H   0  0  0  0  0  0  0  0  0  0  0  0
    9.5209    0.9309    0.1954 H   0  0  0  0  0  0  0  0  0  0  0  0
    6.5768   -5.0829    1.5522 H   0  0  0  0  0  0  0  0  0  0  0  0
    6.0988   -4.9863   -0.1591 H   0  0  0  0  0  0  0  0  0  0  0  0
    5.0287   -5.7470    1.0278 H   0  0  0  0  0  0  0  0  0  0  0  0
    2.1519   -3.6365   -1.7948 H   0  0  0  0  0  0  0  0  0  0  0  0
    7.4464   -3.0905   -0.4144 H   0  0  0  0  0  0  0  0  0  0  0  0
    6.1368   -2.0799   -0.9946 H   0  0  0  0  0  0  0  0  0  0  0  0
    8.5686   -1.0982    0.6637 H   0  0  0  0  0  0  0  0  0  0  0  0
    5.5832   -1.4773    1.4080 H   0  0  0  0  0  0  0  0  0  0  0  0
    6.8264   -2.5889    1.9518 H   0  0  0  0  0  0  0  0  0  0  0  0
    3.1221   -5.1419    0.0268 H   0  0  0  0  0  0  0  0  0  0  0  0
    2.3909   -4.1069    1.2590 H   0  0  0  0  0  0  0  0  0  0  0  0
    4.6482   -3.5996    2.1599 H   0  0  0  0  0  0  0  0  0  0  0  0
    3.7470   -2.3002    0.2603 H   0  0  0  0  0  0  0  0  0  0  0  0
  1 14  1  0  0  0  0
  2 16  1  0  0  0  0
  2 10  1  0  0  0  0
  3 18  1  0  0  0  0
  3 20  1  0  0  0  0
  4 23  1  0  0  0  0
  4 11  1  0  0  0  0
  4 21  1  0  0  0  0
  5  1  2  0  0  0  0
  5  9  1  0  0  0  0
  6  7  1  0  0  0  0
  6  8  1  0  0  0  0
  7 27  1  0  0  0  0
  8 28  1  0  0  0  0
  8 29  1  0  0  0  0
  9 31  1  0  0  0  0
 10  3  1  0  0  0  0
 10  7  2  0  0  0  0
 11  8  1  0  0  0  0
 11 32  1  1  0  0  0
 12  9  1  0  0  0  0
 12 33  1  0  0  0  0
 12 11  1  0  0  0  0
 13  1  1  0  0  0  0
 15  2  1  0  0  0  0
 17  2  1  0  0  0  0
 19  3  1  0  0  0  0
 22  4  1  0  0  0  0
 24  5  1  0  0  0  0
 25  6  1  0  0  0  0
 26  6  1  0  0  0  0
 30  9  1  0  0  0  0
M  END
>  <HBA>
1

>  <HBD>
1

>  <TPSA>
12.03

>  <cid>
20850

>  <dipole>
0.71

>  <excitation_energy_1>
5.29

>  <excitation_energy_2>
5.553

>  <excitation_energy_3>
5.645

>  <excitation_energy_4>
5.87

>  <homo_energy>
-5.951

>  <homo_lumo_gap>
6.471

>  <logP>
3.288

>  <lumo_energy>
0.52

>  <melting_point>
-10.09

>  <molecular_refractivity>
56.84

>  <oscillator_strength_1>
0.0034

>  <oscillator_strength_2>
0.0081

>  <oscillator_strength_3>
0.0123

>  <oscillator_strength_4>
0.0023

>  <open_babel_can_smiles>
C=CCN[C@H](CCC=C(C)C)C

>  <mulliken_charges>
33
1   -0.33885
2   -0.5138
3   -0.505338
4   -0.451826
5   -0.059384
6   -0.30478
7   -0.160727
8   -0.279826
9   -0.15921
10   0.185703
11   0.070617
12   -0.563267
13   0.141184
14   0.1367
15   0.150677
16   0.148401
17   0.157012
18   0.146821
19   0.147686
20   0.149392
21   0.139857
22   0.157857
23   0.143774
24   0.137162
25   0.140646
26   0.158382
27   0.105919
28   0.129162
29   0.130868
30   0.152608
31   0.114174
32   0.09977
33   0.29264

>  <lowdin_charges>
33
1   -0.340104
2   -0.445732
3   -0.44009
4   -0.453476
5   -0.149317
6   -0.278991
7   -0.190686
8   -0.279437
9   -0.196949
10   -0.012714
11   -0.057034
12   -0.364809
13   0.160348
14   0.153442
15   0.154267
16   0.15321
17   0.15761
18   0.150914
19   0.151805
20   0.153946
21   0.151262
22   0.154155
23   0.149998
24   0.155363
25   0.148631
26   0.1547
27   0.142482
28   0.139725
29   0.143793
30   0.1493
31   0.11987
32   0.113768
33   0.250753

$$$$

