PCCDB-ID:  6276
public computational chemistry database (PCCDB) project, http://pccdb.org

 18 17  0  0  0  0  0  0  0  0999 V2000
    0.9764   -0.2434   -0.3652 C   0  0  0  0  0  0  0  0  0  0  0  0
    2.5076   -0.2899   -0.3869 C   0  0  0  0  0  0  0  0  0  0  0  0
    3.1586    0.9742    0.1899 C   0  0  0  0  0  0  0  0  0  0  0  0
    4.6908    0.9254    0.1780 C   0  0  0  0  0  0  0  0  0  0  0  0
    5.3336    2.1878    0.7379 C   0  0  0  0  0  0  0  0  0  0  0  0
    6.7479    2.0240    0.6835 O   0  0  0  0  0  0  0  0  0  0  0  0
    0.5421   -1.1525   -0.7965 H   0  0  0  0  0  0  0  0  0  0  0  0
    0.5975    0.6114   -0.9392 H   0  0  0  0  0  0  0  0  0  0  0  0
    0.5973   -0.1467    0.6597 H   0  0  0  0  0  0  0  0  0  0  0  0
    2.8562   -0.4368   -1.4188 H   0  0  0  0  0  0  0  0  0  0  0  0
    2.8560   -1.1654    0.1789 H   0  0  0  0  0  0  0  0  0  0  0  0
    2.8028    1.1240    1.2203 H   0  0  0  0  0  0  0  0  0  0  0  0
    2.8133    1.8493   -0.3810 H   0  0  0  0  0  0  0  0  0  0  0  0
    5.0569    0.7763   -0.8465 H   0  0  0  0  0  0  0  0  0  0  0  0
    5.0467    0.0681    0.7647 H   0  0  0  0  0  0  0  0  0  0  0  0
    4.9926    2.3520    1.7742 H   0  0  0  0  0  0  0  0  0  0  0  0
    5.0127    3.0631    0.1478 H   0  0  0  0  0  0  0  0  0  0  0  0
    7.1543    2.8255    1.0461 H   0  0  0  0  0  0  0  0  0  0  0  0
  1  9  1  0  0  0  0
  2  1  1  0  0  0  0
  2 11  1  0  0  0  0
  2  3  1  0  0  0  0
  3 12  1  0  0  0  0
  4  3  1  0  0  0  0
  4  5  1  0  0  0  0
  4 15  1  0  0  0  0
  5 16  1  0  0  0  0
  6  5  1  0  0  0  0
  6 18  1  0  0  0  0
  7  1  1  0  0  0  0
  8  1  1  0  0  0  0
 10  2  1  0  0  0  0
 13  3  1  0  0  0  0
 14  4  1  0  0  0  0
 17  5  1  0  0  0  0
M  END
>  <HBA>
1

>  <HBD>
1

>  <TPSA>
20.23

>  <cid>
6276

>  <dipole>
1.46

>  <excitation_energy_1>
6.327

>  <excitation_energy_2>
7.379

>  <excitation_energy_3>
7.539

>  <excitation_energy_4>
7.666

>  <homo_energy>
-7.102

>  <homo_lumo_gap>
9.225

>  <logP>
1.169

>  <lumo_energy>
2.123

>  <melting_point>
-7.28

>  <molecular_refractivity>
27.31

>  <oscillator_strength_1>
0.0006

>  <oscillator_strength_2>
0.0144

>  <oscillator_strength_3>
0.0081

>  <oscillator_strength_4>
0.017

>  <open_babel_can_smiles>
CCCCCO

>  <mulliken_charges>
18
1   -0.442046
2   -0.245131
3   -0.254545
4   -0.25959
5   -0.027703
6   -0.620244
7   0.142557
8   0.140947
9   0.141088
10   0.132568
11   0.132604
12   0.127279
13   0.127135
14   0.143341
15   0.143533
16   0.114292
17   0.11442
18   0.389496

>  <lowdin_charges>
18
1   -0.445187
2   -0.270186
3   -0.274383
4   -0.280039
5   -0.13179
6   -0.476356
7   0.150188
8   0.146765
9   0.145256
10   0.139076
11   0.14073
12   0.136271
13   0.137733
14   0.146469
15   0.148221
16   0.12112
17   0.122739
18   0.343372

$$$$

