PCCDB-ID:  58238
public computational chemistry database (PCCDB) project, http://pccdb.org

 43 43  0  0  0  0  0  0  0  0999 V2000
    3.6795   -0.8791    0.4696 C   0  0  0  0  0  0  0  0  0  0  0  0
    5.2892    1.0291   -3.1049 C   0  0  0  0  0  0  0  0  0  0  0  0
    5.8688    6.7509    6.1715 C   0  0  0  0  0  0  0  0  0  0  0  0
    4.4633    2.2555    4.3598 C   0  0  0  0  0  0  0  0  0  0  0  0
    8.5193    4.6480    2.4231 C   0  0  0  0  0  0  0  0  0  0  0  0
    3.8834    0.3940   -0.3544 C   0  0  0  0  0  0  0  0  0  0  0  0
    5.4678    1.6589   -1.7200 C   0  0  0  0  0  0  0  0  0  0  0  0
    5.7538    2.2587    1.3460 C   0  0  0  0  0  0  0  0  0  0  0  0
    6.0998    0.9832    0.5529 C   0  0  0  0  0  0  0  0  0  0  0  0
    5.2066    4.5210    5.1636 C   0  0  0  0  0  0  0  0  0  0  0  0
    7.1369    5.6267    4.2879 C   0  0  0  0  0  0  0  0  0  0  0  0
    6.0657    5.6214    5.1866 C   0  0  0  0  0  0  0  0  0  0  0  0
    5.3886    3.4467    4.2869 C   0  0  0  0  0  0  0  0  0  0  0  0
    7.3487    4.5858    3.3803 C   0  0  0  0  0  0  0  0  0  0  0  0
    6.4634    3.4842    3.3737 C   0  0  0  0  0  0  0  0  0  0  0  0
    6.6680    2.3844    2.4910 N   0  0  0  0  0  0  0  0  0  0  0  0
    5.2913    0.6936   -0.6292 N   0  0  0  0  0  0  0  0  0  0  0  0
    2.6111   -1.1140    0.5362 H   0  0  0  0  0  0  0  0  0  0  0  0
    4.0554   -0.7789    1.4933 H   0  0  0  0  0  0  0  0  0  0  0  0
    4.1926   -1.7242   -0.0013 H   0  0  0  0  0  0  0  0  0  0  0  0
    5.4818    1.7720   -3.8880 H   0  0  0  0  0  0  0  0  0  0  0  0
    4.2740    0.6476   -3.2588 H   0  0  0  0  0  0  0  0  0  0  0  0
    5.9859    0.1945   -3.2344 H   0  0  0  0  0  0  0  0  0  0  0  0
    4.8276    6.8142    6.5053 H   0  0  0  0  0  0  0  0  0  0  0  0
    6.1406    7.7179    5.7332 H   0  0  0  0  0  0  0  0  0  0  0  0
    6.4899    6.6181    7.0680 H   0  0  0  0  0  0  0  0  0  0  0  0
    5.0055    1.3322    4.1311 H   0  0  0  0  0  0  0  0  0  0  0  0
    3.6285    2.3283    3.6489 H   0  0  0  0  0  0  0  0  0  0  0  0
    4.0239    2.1672    5.3589 H   0  0  0  0  0  0  0  0  0  0  0  0
    9.0251    5.6157    2.4933 H   0  0  0  0  0  0  0  0  0  0  0  0
    8.2075    4.5155    1.3791 H   0  0  0  0  0  0  0  0  0  0  0  0
    9.2749    3.8780    2.6357 H   0  0  0  0  0  0  0  0  0  0  0  0
    3.3602    1.2395    0.1338 H   0  0  0  0  0  0  0  0  0  0  0  0
    3.3895    0.2569   -1.3220 H   0  0  0  0  0  0  0  0  0  0  0  0
    4.7934    2.5307   -1.6207 H   0  0  0  0  0  0  0  0  0  0  0  0
    6.4888    2.0529   -1.6493 H   0  0  0  0  0  0  0  0  0  0  0  0
    4.7312    2.1932    1.7268 H   0  0  0  0  0  0  0  0  0  0  0  0
    5.7892    3.1433    0.6865 H   0  0  0  0  0  0  0  0  0  0  0  0
    6.0504    0.1314    1.2391 H   0  0  0  0  0  0  0  0  0  0  0  0
    7.1473    1.0459    0.2236 H   0  0  0  0  0  0  0  0  0  0  0  0
    4.3751    4.4827    5.8654 H   0  0  0  0  0  0  0  0  0  0  0  0
    7.8240    6.4714    4.2846 H   0  0  0  0  0  0  0  0  0  0  0  0
    7.6248    2.3805    2.1497 H   0  0  0  0  0  0  0  0  0  0  0  0
  1 18  1  0  0  0  0
  1 19  1  0  0  0  0
  2  7  1  0  0  0  0
  3 24  1  0  0  0  0
  3 26  1  0  0  0  0
  4 29  1  0  0  0  0
  5 30  1  0  0  0  0
  5 32  1  0  0  0  0
  5 14  1  0  0  0  0
  6 33  1  0  0  0  0
  6  1  1  0  0  0  0
  7 36  1  0  0  0  0
  7 35  1  0  0  0  0
  7 17  1  0  0  0  0
  8 37  1  0  0  0  0
  8 16  1  0  0  0  0
  9 39  1  0  0  0  0
  9  8  1  0  0  0  0
 10 12  1  0  0  0  0
 10 41  1  0  0  0  0
 11 12  2  0  0  0  0
 12  3  1  0  0  0  0
 13  4  1  0  0  0  0
 13 10  2  0  0  0  0
 14 11  1  0  0  0  0
 15 14  2  0  0  0  0
 15 13  1  0  0  0  0
 16 15  1  0  0  0  0
 17  6  1  0  0  0  0
 17  9  1  0  0  0  0
 20  1  1  0  0  0  0
 21  2  1  0  0  0  0
 22  2  1  0  0  0  0
 23  2  1  0  0  0  0
 25  3  1  0  0  0  0
 27  4  1  0  0  0  0
 28  4  1  0  0  0  0
 31  5  1  0  0  0  0
 34  6  1  0  0  0  0
 38  8  1  0  0  0  0
 40  9  1  0  0  0  0
 42 11  1  0  0  0  0
 43 16  1  0  0  0  0
M  END
>  <HBA>
2

>  <HBD>
1

>  <TPSA>
15.27

>  <cid>
58238

>  <dipole>
1.04

>  <excitation_energy_1>
4.706

>  <excitation_energy_2>
4.81

>  <excitation_energy_3>
4.915

>  <excitation_energy_4>
5.124

>  <homo_energy>
-5.353

>  <homo_lumo_gap>
5.706

>  <logP>
3.438

>  <lumo_energy>
0.354

>  <melting_point>
51.7

>  <molecular_refractivity>
77.58

>  <oscillator_strength_1>
0.0231

>  <oscillator_strength_2>
0.0348

>  <oscillator_strength_3>
0.0132

>  <oscillator_strength_4>
0.0021

>  <open_babel_can_smiles>
CCN(CCNc1c(C)cc(cc1C)C)CC

>  <mulliken_charges>
43
1   -0.453658
2   -0.439357
3   -0.531716
4   -0.539733
5   -0.558189
6   -0.116628
7   -0.117927
8   -0.141769
9   -0.154256
10   -0.269502
11   -0.270128
12   0.206749
13   0.188019
14   0.183834
15   0.148304
16   -0.653275
17   -0.375466
18   0.141734
19   0.1506
20   0.155911
21   0.137851
22   0.146172
23   0.153351
24   0.152599
25   0.152966
26   0.160579
27   0.17397
28   0.154537
29   0.149764
30   0.159911
31   0.156688
32   0.157431
33   0.113345
34   0.139526
35   0.116839
36   0.131771
37   0.155722
38   0.128871
39   0.155476
40   0.128562
41   0.108492
42   0.107668
43   0.304361

>  <lowdin_charges>
43
1   -0.449084
2   -0.450736
3   -0.440413
4   -0.445491
5   -0.447486
6   -0.199069
7   -0.195708
8   -0.216162
9   -0.21191
10   -0.178883
11   -0.18144
12   -0.010152
13   -0.013866
14   -0.027518
15   0.021578
16   -0.32595
17   -0.188641
18   0.150877
19   0.148491
20   0.155834
21   0.150032
22   0.146986
23   0.15422
24   0.154332
25   0.15547
26   0.158546
27   0.165973
28   0.153576
29   0.154498
30   0.160004
31   0.153554
32   0.154854
33   0.117187
34   0.145603
35   0.120491
36   0.141454
37   0.148584
38   0.125932
39   0.151513
40   0.135843
41   0.149132
42   0.148724
43   0.25922

$$$$

