PCCDB-ID:  7934
public computational chemistry database (PCCDB) project, http://pccdb.org

 17 17  0  0  0  0  0  0  0  0999 V2000
    0.9117   -0.0711    0.0137 C   0  0  0  0  0  0  0  0  0  0  0  0
    4.5406    1.0801   -0.2306 C   0  0  0  0  0  0  0  0  0  0  0  0
    3.1473    1.1140   -0.1399 C   0  0  0  0  0  0  0  0  0  0  0  0
    5.2240   -0.1307   -0.2753 C   0  0  0  0  0  0  0  0  0  0  0  0
    3.1112   -1.2968   -0.1395 C   0  0  0  0  0  0  0  0  0  0  0  0
    2.4204   -0.0811   -0.0924 C   0  0  0  0  0  0  0  0  0  0  0  0
    4.5103   -1.3411   -0.2296 C   0  0  0  0  0  0  0  0  0  0  0  0
    5.1876   -2.5671   -0.2137 N   0  0  0  0  0  0  0  0  0  0  0  0
    0.5157    0.9476   -0.0410 H   0  0  0  0  0  0  0  0  0  0  0  0
    0.5750   -0.5088    0.9622 H   0  0  0  0  0  0  0  0  0  0  0  0
    0.4482   -0.6547   -0.7913 H   0  0  0  0  0  0  0  0  0  0  0  0
    5.1019    2.0104   -0.2701 H   0  0  0  0  0  0  0  0  0  0  0  0
    2.6249    2.0665   -0.1069 H   0  0  0  0  0  0  0  0  0  0  0  0
    6.3096   -0.1482   -0.3431 H   0  0  0  0  0  0  0  0  0  0  0  0
    2.5536   -2.2319   -0.1019 H   0  0  0  0  0  0  0  0  0  0  0  0
    6.1036   -2.5472   -0.6455 H   0  0  0  0  0  0  0  0  0  0  0  0
    4.6444   -3.3528   -0.5506 H   0  0  0  0  0  0  0  0  0  0  0  0
  1 10  1  0  0  0  0
  2  3  1  0  0  0  0
  3 13  1  0  0  0  0
  3  6  2  0  0  0  0
  4  2  2  0  0  0  0
  4  7  1  0  0  0  0
  5 15  1  0  0  0  0
  5  6  1  0  0  0  0
  6  1  1  0  0  0  0
  7  8  1  0  0  0  0
  7  5  2  0  0  0  0
  9  1  1  0  0  0  0
 11  1  1  0  0  0  0
 12  2  1  0  0  0  0
 14  4  1  0  0  0  0
 16  8  1  0  0  0  0
 17  8  1  0  0  0  0
M  END
>  <HBA>
1

>  <HBD>
1

>  <TPSA>
26.02

>  <cid>
7934

>  <dipole>
1.62

>  <excitation_energy_1>
4.655

>  <excitation_energy_2>
4.736

>  <excitation_energy_3>
5.373

>  <excitation_energy_4>
5.474

>  <homo_energy>
-5.331

>  <homo_lumo_gap>
5.587

>  <logP>
2.158

>  <lumo_energy>
0.256

>  <melting_point>
57.31

>  <molecular_refractivity>
35.81

>  <oscillator_strength_1>
0.041

>  <oscillator_strength_2>
0.0045

>  <oscillator_strength_3>
0.0197

>  <oscillator_strength_4>
0.0143

>  <open_babel_can_smiles>
Cc1cccc(c1)N

>  <mulliken_charges>
17
1   -0.529988
2   -0.132163
3   -0.192757
4   -0.176036
5   -0.225563
6   0.17496
7   0.311562
8   -0.787764
9   0.153205
10   0.161291
11   0.156626
12   0.122673
13   0.112401
14   0.112305
15   0.105133
16   0.31714
17   0.316975

>  <lowdin_charges>
17
1   -0.442597
2   -0.146012
3   -0.200233
4   -0.203661
5   -0.212853
6   0.012209
7   0.061014
8   -0.491752
9   0.155073
10   0.159866
11   0.15861
12   0.155252
13   0.151272
14   0.148618
15   0.147801
16   0.273068
17   0.274327

$$$$

