PCCDB-ID:  67061
public computational chemistry database (PCCDB) project, http://pccdb.org

 23 24  0  0  0  0  0  0  0  0999 V2000
   -1.3414   -0.0077   -0.1682 C   0  0  0  0  0  0  0  0  0  0  0  0
   -0.7360    1.2481   -0.1407 C   0  0  0  0  0  0  0  0  0  0  0  0
   -0.5403   -1.1511   -0.1585 C   0  0  0  0  0  0  0  0  0  0  0  0
    0.6526    1.3767   -0.1042 C   0  0  0  0  0  0  0  0  0  0  0  0
    0.8479   -1.0469   -0.1213 C   0  0  0  0  0  0  0  0  0  0  0  0
    5.1072    0.9377   -0.0172 C   0  0  0  0  0  0  0  0  0  0  0  0
    1.4464    0.2209   -0.0948 C   0  0  0  0  0  0  0  0  0  0  0  0
    4.8651   -0.5361   -0.0055 C   0  0  0  0  0  0  0  0  0  0  0  0
    3.6801    1.4718   -0.0538 C   0  0  0  0  0  0  0  0  0  0  0  0
    5.9395   -1.5468    0.0310 C   0  0  0  0  0  0  0  0  0  0  0  0
    3.6090   -0.8429   -0.0292 N   0  0  0  0  0  0  0  0  0  0  0  0
    2.8685    0.3152   -0.0576 N   0  0  0  0  0  0  0  0  0  0  0  0
    3.3049    2.6247   -0.0745 O   0  0  0  0  0  0  0  0  0  0  0  0
    5.4937   -2.8196    0.0290 O   0  0  0  0  0  0  0  0  0  0  0  0
    7.1162   -1.2420    0.0598 O   0  0  0  0  0  0  0  0  0  0  0  0
   -2.4236   -0.0959   -0.1968 H   0  0  0  0  0  0  0  0  0  0  0  0
   -1.3455    2.1476   -0.1477 H   0  0  0  0  0  0  0  0  0  0  0  0
   -0.9954   -2.1375   -0.1797 H   0  0  0  0  0  0  0  0  0  0  0  0
    1.1166    2.3525   -0.0837 H   0  0  0  0  0  0  0  0  0  0  0  0
    1.4699   -1.9330   -0.1132 H   0  0  0  0  0  0  0  0  0  0  0  0
    5.6774    1.2778   -0.8891 H   0  0  0  0  0  0  0  0  0  0  0  0
    5.6404    1.2985    0.8696 H   0  0  0  0  0  0  0  0  0  0  0  0
    6.2914   -3.3806    0.0563 H   0  0  0  0  0  0  0  0  0  0  0  0
  1  3  2  0  0  0  0
  1  2  1  0  0  0  0
  2  4  2  0  0  0  0
  3  5  1  0  0  0  0
  4  7  1  0  0  0  0
  4 19  1  0  0  0  0
  5 20  1  0  0  0  0
  5  7  2  0  0  0  0
  6  8  1  0  0  0  0
  6 22  1  0  0  0  0
  7 12  1  0  0  0  0
  8 10  1  0  0  0  0
  9  6  1  0  0  0  0
 10 15  2  0  0  0  0
 11  8  2  0  0  0  0
 12  9  1  0  0  0  0
 12 11  1  0  0  0  0
 13  9  2  0  0  0  0
 14 10  1  0  0  0  0
 14 23  1  0  0  0  0
 16  1  1  0  0  0  0
 17  2  1  0  0  0  0
 18  3  1  0  0  0  0
 21  6  1  0  0  0  0
M  END
>  <HBA>
5

>  <HBD>
1

>  <TPSA>
69.97

>  <cid>
67061

>  <dipole>
1.76

>  <excitation_energy_1>
3.388

>  <excitation_energy_2>
4.023

>  <excitation_energy_3>
4.083

>  <excitation_energy_4>
4.578

>  <homo_energy>
-6.174

>  <homo_lumo_gap>
3.97

>  <logP>
0.364

>  <lumo_energy>
-2.204

>  <melting_point>
150.32

>  <molecular_refractivity>
60.07

>  <oscillator_strength_1>
0.1484

>  <oscillator_strength_2>
0.0083

>  <oscillator_strength_3>
0.0006

>  <oscillator_strength_4>
0.0

>  <open_babel_can_smiles>
OC(=O)C1=NN(C(=O)C1)c1ccccc1

>  <mulliken_charges>
23
1   -0.118875
2   -0.145505
3   -0.141281
4   -0.171576
5   -0.160537
6   -0.461665
7   0.317852
8   0.291256
9   0.620478
10   0.558816
11   -0.275913
12   -0.435974
13   -0.478101
14   -0.560793
15   -0.46771
16   0.131778
17   0.136959
18   0.135541
19   0.188252
20   0.170494
21   0.224176
22   0.224319
23   0.41801

>  <lowdin_charges>
23
1   -0.158858
2   -0.148475
3   -0.147808
4   -0.178172
5   -0.174303
6   -0.306441
7   0.048505
8   -0.011494
9   0.164822
10   0.182642
11   -0.045413
12   -0.003767
13   -0.245522
14   -0.336916
15   -0.262451
16   0.157599
17   0.162116
18   0.160659
19   0.187239
20   0.179528
21   0.204238
22   0.20424
23   0.368032

$$$$

