PCCDB-ID:  50973
public computational chemistry database (PCCDB) project, http://pccdb.org

 26 25  0  0  0  0  0  0  0  0999 V2000
    0.9541   -0.5345    1.8516 C   0  0  0  0  0  0  0  0  0  0  0  0
    8.7827   -0.3556    5.9120 C   0  0  0  0  0  0  0  0  0  0  0  0
    5.3812   -0.3828    1.9573 C   0  0  0  0  0  0  0  0  0  0  0  0
    4.4165    0.7424    1.5626 C   0  0  0  0  0  0  0  0  0  0  0  0
    7.5224    0.7799    2.6241 C   0  0  0  0  0  0  0  0  0  0  0  0
    2.3335   -0.3674    1.2624 C   0  0  0  0  0  0  0  0  0  0  0  0
    8.4028    0.6082    4.8145 C   0  0  0  0  0  0  0  0  0  0  0  0
    7.3565   -0.6434    0.6388 N   0  0  0  0  0  0  0  0  0  0  0  0
    6.7698   -0.0229    1.7037 N   0  0  0  0  0  0  0  0  0  0  0  0
    2.7358   -0.8784    0.2421 O   0  0  0  0  0  0  0  0  0  0  0  0
    8.5251    1.8122    4.8496 O   0  0  0  0  0  0  0  0  0  0  0  0
    8.5408   -0.4082    0.4849 O   0  0  0  0  0  0  0  0  0  0  0  0
    3.0878    0.4599    2.0371 O   0  0  0  0  0  0  0  0  0  0  0  0
    7.8937   -0.0557    3.7432 O   0  0  0  0  0  0  0  0  0  0  0  0
    0.3864   -1.2438    1.2488 H   0  0  0  0  0  0  0  0  0  0  0  0
    0.4380    0.4312    1.8722 H   0  0  0  0  0  0  0  0  0  0  0  0
    1.0231   -0.8898    2.8846 H   0  0  0  0  0  0  0  0  0  0  0  0
    9.1420    0.2043    6.7759 H   0  0  0  0  0  0  0  0  0  0  0  0
    9.5665   -1.0329    5.5571 H   0  0  0  0  0  0  0  0  0  0  0  0
    7.9221   -0.9704    6.1940 H   0  0  0  0  0  0  0  0  0  0  0  0
    5.1659   -1.2749    1.3661 H   0  0  0  0  0  0  0  0  0  0  0  0
    5.2628   -0.6264    3.0187 H   0  0  0  0  0  0  0  0  0  0  0  0
    4.4076    0.8681    0.4772 H   0  0  0  0  0  0  0  0  0  0  0  0
    4.6892    1.6869    2.0402 H   0  0  0  0  0  0  0  0  0  0  0  0
    6.9277    1.6211    2.9838 H   0  0  0  0  0  0  0  0  0  0  0  0
    8.4189    1.1385    2.1188 H   0  0  0  0  0  0  0  0  0  0  0  0
  1 16  1  0  0  0  0
  1 17  1  0  0  0  0
  2 20  1  0  0  0  0
  2 18  1  0  0  0  0
  3 22  1  0  0  0  0
  4  3  1  0  0  0  0
  4 13  1  0  0  0  0
  4 24  1  0  0  0  0
  5 25  1  0  0  0  0
  5 14  1  0  0  0  0
  6  1  1  0  0  0  0
  6 13  1  0  0  0  0
  7 11  2  0  0  0  0
  7  2  1  0  0  0  0
  8  9  1  0  0  0  0
  9  3  1  0  0  0  0
  9  5  1  0  0  0  0
 10  6  2  0  0  0  0
 12  8  2  0  0  0  0
 14  7  1  0  0  0  0
 15  1  1  0  0  0  0
 19  2  1  0  0  0  0
 21  3  1  0  0  0  0
 23  4  1  0  0  0  0
 26  5  1  0  0  0  0
M  END
>  <HBA>
7

>  <HBD>
0

>  <TPSA>
85.27

>  <cid>
50973

>  <dipole>
4.43

>  <excitation_energy_1>
3.242

>  <excitation_energy_2>
5.422

>  <excitation_energy_3>
5.617

>  <excitation_energy_4>
5.751

>  <homo_energy>
-6.602

>  <homo_lumo_gap>
5.119

>  <logP>
0.053

>  <lumo_energy>
-1.483

>  <melting_point>
19.34

>  <molecular_refractivity>
45.97

>  <oscillator_strength_1>
0.0011

>  <oscillator_strength_2>
0.0995

>  <oscillator_strength_3>
0.0005

>  <oscillator_strength_4>
0.0004

>  <open_babel_can_smiles>
O=NN(COC(=O)C)CCOC(=O)C

>  <mulliken_charges>
26
1   -0.523392
2   -0.523892
3   -0.167142
4   -0.049805
5   0.078099
6   0.59813
7   0.606466
8   0.182554
9   -0.263417
10   -0.457456
11   -0.462426
12   -0.346351
13   -0.453895
14   -0.4536
15   0.188023
16   0.187488
17   0.183575
18   0.187589
19   0.191993
20   0.182733
21   0.208506
22   0.174681
23   0.185448
24   0.159828
25   0.180332
26   0.205932

>  <lowdin_charges>
26
1   -0.463405
2   -0.464531
3   -0.212211
4   -0.139319
5   -0.084545
6   0.201601
7   0.200563
8   0.072966
9   -0.054641
10   -0.255998
11   -0.256304
12   -0.231351
13   -0.199298
14   -0.205426
15   0.180135
16   0.181119
17   0.17802
18   0.179517
19   0.184384
20   0.179122
21   0.183483
22   0.159539
23   0.164543
24   0.155219
25   0.165856
26   0.180962

$$$$

