PCCDB-ID:  67536
public computational chemistry database (PCCDB) project, http://pccdb.org

 27 28  0  0  0  0  0  0  0  0999 V2000
   -0.6021    1.7557   -1.1830 C   0  0  0  0  0  0  0  0  0  0  0  0
    8.5998   -0.0327   -0.3975 C   0  0  0  0  0  0  0  0  0  0  0  0
   -0.3454    0.3942   -1.0087 C   0  0  0  0  0  0  0  0  0  0  0  0
    0.4508    2.6715   -1.1376 C   0  0  0  0  0  0  0  0  0  0  0  0
    7.6223   -0.8648    0.1478 C   0  0  0  0  0  0  0  0  0  0  0  0
    8.2023    1.0677   -1.1564 C   0  0  0  0  0  0  0  0  0  0  0  0
    0.9579   -0.0456   -0.7892 C   0  0  0  0  0  0  0  0  0  0  0  0
    1.7601    2.2326   -0.9430 C   0  0  0  0  0  0  0  0  0  0  0  0
    6.2646   -0.6196   -0.0553 C   0  0  0  0  0  0  0  0  0  0  0  0
    6.8517    1.3355   -1.3689 C   0  0  0  0  0  0  0  0  0  0  0  0
    2.0256    0.8650   -0.7753 C   0  0  0  0  0  0  0  0  0  0  0  0
    5.8709    0.4932   -0.8193 C   0  0  0  0  0  0  0  0  0  0  0  0
    3.3726    0.2835   -0.4406 C   0  0  0  0  0  0  0  0  0  0  0  0
    4.5003    0.7945   -1.0750 N   0  0  0  0  0  0  0  0  0  0  0  0
    3.4650   -0.6418    0.3582 O   0  0  0  0  0  0  0  0  0  0  0  0
    4.2918    1.7802   -2.0512 O   0  0  0  0  0  0  0  0  0  0  0  0
   -1.6190    2.1025   -1.3462 H   0  0  0  0  0  0  0  0  0  0  0  0
    9.6537   -0.2383   -0.2336 H   0  0  0  0  0  0  0  0  0  0  0  0
   -1.1607   -0.3236   -1.0340 H   0  0  0  0  0  0  0  0  0  0  0  0
    0.2540    3.7337   -1.2550 H   0  0  0  0  0  0  0  0  0  0  0  0
    7.9116   -1.7285    0.7407 H   0  0  0  0  0  0  0  0  0  0  0  0
    8.9454    1.7343   -1.5861 H   0  0  0  0  0  0  0  0  0  0  0  0
    1.1667   -1.0964   -0.6174 H   0  0  0  0  0  0  0  0  0  0  0  0
    2.5693    2.9517   -0.9128 H   0  0  0  0  0  0  0  0  0  0  0  0
    5.5164   -1.2683    0.3729 H   0  0  0  0  0  0  0  0  0  0  0  0
    6.5526    2.1993   -1.9480 H   0  0  0  0  0  0  0  0  0  0  0  0
    4.2861    1.2975   -2.8996 H   0  0  0  0  0  0  0  0  0  0  0  0
  1  4  2  0  0  0  0
  1  3  1  0  0  0  0
  2 18  1  0  0  0  0
  2  5  2  0  0  0  0
  3  7  2  0  0  0  0
  4  8  1  0  0  0  0
  5 21  1  0  0  0  0
  6  2  1  0  0  0  0
  7 11  1  0  0  0  0
  7 23  1  0  0  0  0
  8 24  1  0  0  0  0
  8 11  2  0  0  0  0
  9  5  1  0  0  0  0
  9 25  1  0  0  0  0
 10  6  2  0  0  0  0
 10 12  1  0  0  0  0
 11 13  1  0  0  0  0
 12  9  2  0  0  0  0
 13 15  2  0  0  0  0
 14 12  1  0  0  0  0
 14 13  1  0  0  0  0
 16 14  1  0  0  0  0
 17  1  1  0  0  0  0
 19  3  1  0  0  0  0
 20  4  1  0  0  0  0
 22  6  1  0  0  0  0
 26 10  1  0  0  0  0
 27 16  1  0  0  0  0
M  END
>  <HBA>
3

>  <HBD>
1

>  <TPSA>
40.54

>  <cid>
67536

>  <dipole>
3.04

>  <excitation_energy_1>
4.344

>  <excitation_energy_2>
4.553

>  <excitation_energy_3>
4.868

>  <excitation_energy_4>
4.945

>  <homo_energy>
-5.984

>  <homo_lumo_gap>
4.906

>  <logP>
2.723

>  <lumo_energy>
-1.078

>  <melting_point>
129.35

>  <molecular_refractivity>
61.48

>  <oscillator_strength_1>
0.2679

>  <oscillator_strength_2>
0.0448

>  <oscillator_strength_3>
0.0006

>  <oscillator_strength_4>
0.0122

>  <open_babel_can_smiles>
ON(C(=O)c1ccccc1)c1ccccc1

>  <mulliken_charges>
27
1   -0.119163
2   -0.122613
3   -0.139001
4   -0.140784
5   -0.144569
6   -0.134791
7   -0.146548
8   -0.139804
9   -0.165497
10   -0.173899
11   0.061921
12   0.296983
13   0.51601
14   -0.31931
15   -0.495337
16   -0.503272
17   0.13496
18   0.128282
19   0.136017
20   0.134729
21   0.133943
22   0.130352
23   0.156042
24   0.156106
25   0.189249
26   0.148369
27   0.421624

>  <lowdin_charges>
27
1   -0.143671
2   -0.165379
3   -0.159629
4   -0.158145
5   -0.149053
6   -0.152839
7   -0.133243
8   -0.144491
9   -0.180383
10   -0.187655
11   -0.039384
12   0.045565
13   0.161134
14   0.020571
15   -0.282072
16   -0.349882
17   0.159373
18   0.156404
19   0.161808
20   0.158557
21   0.160441
22   0.159739
23   0.17142
24   0.171473
25   0.190774
26   0.169172
27   0.359393

$$$$

