PCCDB-ID:  13376
public computational chemistry database (PCCDB) project, http://pccdb.org

 18 17  0  0  0  0  0  0  0  0999 V2000
    1.7252    1.1412    0.0617 C   0  0  0  0  0  0  0  0  0  0  0  0
    3.0672    0.4102   -0.0459 C   0  0  0  0  0  0  0  0  0  0  0  0
    2.9634   -0.9252   -0.7908 C   0  0  0  0  0  0  0  0  0  0  0  0
    4.2963   -1.6782   -0.9088 C   0  0  0  0  0  0  0  0  0  0  0  0
    6.3737   -0.6624   -1.2623 C   0  0  0  0  0  0  0  0  0  0  0  0
    5.2443   -0.9566   -1.7471 N   0  0  0  0  0  0  0  0  0  0  0  0
    7.3193    0.0006   -1.9633 O   0  0  0  0  0  0  0  0  0  0  0  0
    1.8294    2.0920    0.5969 H   0  0  0  0  0  0  0  0  0  0  0  0
    0.9838    0.5364    0.5987 H   0  0  0  0  0  0  0  0  0  0  0  0
    1.3144    1.3613   -0.9314 H   0  0  0  0  0  0  0  0  0  0  0  0
    3.4693    0.2322    0.9625 H   0  0  0  0  0  0  0  0  0  0  0  0
    3.7955    1.0514   -0.5583 H   0  0  0  0  0  0  0  0  0  0  0  0
    2.5697   -0.7536   -1.8016 H   0  0  0  0  0  0  0  0  0  0  0  0
    2.2438   -1.5786   -0.2773 H   0  0  0  0  0  0  0  0  0  0  0  0
    4.1098   -2.6538   -1.3770 H   0  0  0  0  0  0  0  0  0  0  0  0
    4.7004   -1.8765    0.1007 H   0  0  0  0  0  0  0  0  0  0  0  0
    6.7330   -0.8936   -0.2535 H   0  0  0  0  0  0  0  0  0  0  0  0
    6.9323    0.1702   -2.8431 H   0  0  0  0  0  0  0  0  0  0  0  0
  1  8  1  0  0  0  0
  1  9  1  0  0  0  0
  2  1  1  0  0  0  0
  2 11  1  0  0  0  0
  3 14  1  0  0  0  0
  3  2  1  0  0  0  0
  4  3  1  0  0  0  0
  4 16  1  0  0  0  0
  5 17  1  0  0  0  0
  6  5  2  0  0  0  0
  6  4  1  0  0  0  0
  7  5  1  0  0  0  0
 10  1  1  0  0  0  0
 12  2  1  0  0  0  0
 13  3  1  0  0  0  0
 15  4  1  0  0  0  0
 18  7  1  0  0  0  0
M  END
>  <HBA>
2

>  <HBD>
1

>  <TPSA>
29.1

>  <cid>
13376

>  <dipole>
0.57

>  <excitation_energy_1>
6.048

>  <excitation_energy_2>
6.601

>  <excitation_energy_3>
6.726

>  <excitation_energy_4>
6.89

>  <homo_energy>
-7.002

>  <homo_lumo_gap>
7.701

>  <logP>
1.559

>  <lumo_energy>
0.699

>  <melting_point>
22.67

>  <molecular_refractivity>
29.54

>  <oscillator_strength_1>
0.0013

>  <oscillator_strength_2>
0.0013

>  <oscillator_strength_3>
0.0623

>  <oscillator_strength_4>
0.0186

>  <open_babel_can_smiles>
CCCC/N=C/O

>  <mulliken_charges>
18
1   -0.441329
2   -0.249182
3   -0.244776
4   -0.149193
5   0.281258
6   -0.400312
7   -0.560268
8   0.14182
9   0.14001
10   0.143113
11   0.124161
12   0.142961
13   0.141645
14   0.126708
15   0.144911
16   0.114903
17   0.13755
18   0.406019

>  <lowdin_charges>
18
1   -0.444266
2   -0.276523
3   -0.280145
4   -0.193184
5   0.008595
6   -0.229722
7   -0.360432
8   0.149102
9   0.146509
10   0.146828
11   0.135222
12   0.146213
13   0.145893
14   0.142497
15   0.147294
16   0.121952
17   0.137221
18   0.356947

$$$$

