PCCDB-ID:  47783
public computational chemistry database (PCCDB) project, http://pccdb.org

 25 27  0  0  1  0  0  0  0  0999 V2000
    2.7478    1.4204    0.0512 C   0  0  0  0  0  0  0  0  0  0  0  0
    3.2734    0.1087    0.0890 C   0  0  0  0  0  0  0  0  0  0  0  0
    1.3821    1.6017   -0.0223 C   0  0  0  0  0  0  0  0  0  0  0  0
    2.4453   -0.9938    0.0537 C   0  0  0  0  0  0  0  0  0  0  0  0
   -1.8806    1.6255   -0.1979 C   0  0  0  0  0  0  0  0  0  0  0  0
   -4.4938    1.6017   -0.3176 C   0  0  0  0  0  0  0  0  0  0  0  0
   -3.1158    0.9978   -0.2520 C   0  0  2  0  0  0  0  0  0  0  0  0
    0.5168    0.4873   -0.0587 C   0  0  0  0  0  0  0  0  0  0  0  0
    1.0325   -0.8543   -0.0221 C   0  0  0  0  0  0  0  0  0  0  0  0
   -0.9037    0.5978   -0.1322 C   0  0  0  0  0  0  0  0  0  0  0  0
   -1.0419   -1.9461   -0.1211 C   0  0  0  0  0  0  0  0  0  0  0  0
    0.2816   -1.9942   -0.0549 N   0  0  0  0  0  0  0  0  0  0  0  0
   -2.9053   -0.3420   -0.2244 N   0  0  0  0  0  0  0  0  0  0  0  0
   -1.5780   -0.5747   -0.1481 N   0  0  0  0  0  0  0  0  0  0  0  0
   -4.4727    2.9126   -0.8441 O   0  0  0  0  0  0  0  0  0  0  0  0
   -1.9052   -2.8221   -0.1649 O   0  0  0  0  0  0  0  0  0  0  0  0
    3.4142    2.2772    0.0805 H   0  0  0  0  0  0  0  0  0  0  0  0
    4.3497   -0.0322    0.1470 H   0  0  0  0  0  0  0  0  0  0  0  0
    0.9610    2.6040   -0.0504 H   0  0  0  0  0  0  0  0  0  0  0  0
    2.8415   -2.0036    0.0824 H   0  0  0  0  0  0  0  0  0  0  0  0
   -1.7174    2.6919   -0.1977 H   0  0  0  0  0  0  0  0  0  0  0  0
   -4.9067    1.6949    0.6931 H   0  0  0  0  0  0  0  0  0  0  0  0
   -5.1671    0.9344   -0.8796 H   0  0  0  0  0  0  0  0  0  0  0  0
   -3.4939   -1.1688   -0.2581 H   0  0  0  0  0  0  0  0  0  0  0  0
   -4.1672    2.8615   -1.7640 H   0  0  0  0  0  0  0  0  0  0  0  0
  1 17  1  0  0  0  0
  1  2  2  0  0  0  0
  2 18  1  0  0  0  0
  3  1  1  0  0  0  0
  4 20  1  0  0  0  0
  4  2  1  0  0  0  0
  5 21  1  0  0  0  0
  5 10  2  0  0  0  0
  6 22  1  0  0  0  0
  7  6  1  1  0  0  0
  7 13  1  0  0  0  0
  7  5  1  0  0  0  0
  8  3  2  0  0  0  0
  8  9  1  0  0  0  0
  9  4  2  0  0  0  0
 10  8  1  0  0  0  0
 11 12  1  0  0  0  0
 12  9  1  0  0  0  0
 13 14  1  0  0  0  0
 14 10  1  0  0  0  0
 14 11  1  0  0  0  0
 15  6  1  0  0  0  0
 16 11  2  0  0  0  0
 19  3  1  0  0  0  0
 23  6  1  0  0  0  0
 24 13  1  0  0  0  0
 25 15  1  0  0  0  0
M  RAD  1  12   2
M  END
>  <HBA>
4

>  <HBD>
2

>  <TPSA>
70.39

>  <cid>
47783

>  <dipole>
6.37

>  <excitation_energy_1>
3.379

>  <excitation_energy_2>
4.135

>  <excitation_energy_3>
4.288

>  <excitation_energy_4>
4.525

>  <homo_energy>
-5.35

>  <homo_lumo_gap>
3.861

>  <logP>
0.668

>  <lumo_energy>
-1.488

>  <melting_point>
207.89

>  <molecular_refractivity>
59.45

>  <oscillator_strength_1>
0.1205

>  <oscillator_strength_2>
0.0219

>  <oscillator_strength_3>
0.0004

>  <oscillator_strength_4>
0.0102

>  <open_babel_can_smiles>
OC[C@@H]1Nn2c(=C1)c1ccccc1[n]c2=O

>  <mulliken_charges>
25
1   -0.153686
2   -0.123619
3   -0.175744
4   -0.159341
5   -0.341265
6   -0.092271
7   0.382248
8   0.042134
9   0.276061
10   0.419375
11   0.712401
12   -0.60926
13   -0.45282
14   -0.401626
15   -0.591766
16   -0.563801
17   0.129117
18   0.133046
19   0.127254
20   0.145993
21   0.173431
22   0.194949
23   0.15326
24   0.37405
25   0.401883

>  <lowdin_charges>
25
1   -0.178285
2   -0.139263
3   -0.149062
4   -0.163359
5   -0.229225
6   -0.131166
7   0.036801
8   -0.066957
9   0.064558
10   0.071
11   0.15444
12   -0.231315
13   -0.117266
14   0.037824
15   -0.440298
16   -0.345702
17   0.15949
18   0.158564
19   0.1557
20   0.170543
21   0.185432
22   0.174682
23   0.148707
24   0.323864
25   0.350295

$$$$

