PCCDB-ID:  60989
public computational chemistry database (PCCDB) project, http://pccdb.org

 32 32  0  0  0  0  0  0  0  0999 V2000
    2.8870   -0.4922   -1.4346 C   0  0  0  0  0  0  0  0  0  0  0  0
    1.0865    0.4677    0.0773 C   0  0  0  0  0  0  0  0  0  0  0  0
    5.7736   -2.8480    5.0188 C   0  0  0  0  0  0  0  0  0  0  0  0
    3.3349   -3.3681    5.4402 C   0  0  0  0  0  0  0  0  0  0  0  0
    2.5458   -2.0348    1.2988 C   0  0  0  0  0  0  0  0  0  0  0  0
    4.0724   -0.3112    1.9536 C   0  0  0  0  0  0  0  0  0  0  0  0
    2.9966   -2.8332    2.3458 C   0  0  0  0  0  0  0  0  0  0  0  0
    4.5356   -1.1128    2.9993 C   0  0  0  0  0  0  0  0  0  0  0  0
    2.5833    0.1299   -0.0582 C   0  0  0  0  0  0  0  0  0  0  0  0
    3.0723   -0.7525    1.0819 C   0  0  0  0  0  0  0  0  0  0  0  0
    4.0026   -2.3868    3.2176 C   0  0  0  0  0  0  0  0  0  0  0  0
    4.4475   -3.2752    4.3824 C   0  0  0  0  0  0  0  0  0  0  0  0
    4.9796   -5.5654    4.7290 O   0  0  0  0  0  0  0  0  0  0  0  0
    4.6318   -4.5643    3.7275 O   0  0  0  0  0  0  0  0  0  0  0  0
    2.5791    0.1844   -2.2407 H   0  0  0  0  0  0  0  0  0  0  0  0
    2.3505   -1.4387   -1.5709 H   0  0  0  0  0  0  0  0  0  0  0  0
    3.9570   -0.6964   -1.5495 H   0  0  0  0  0  0  0  0  0  0  0  0
    0.7713    1.1519   -0.7195 H   0  0  0  0  0  0  0  0  0  0  0  0
    0.8730    0.9437    1.0406 H   0  0  0  0  0  0  0  0  0  0  0  0
    0.4664   -0.4339    0.0056 H   0  0  0  0  0  0  0  0  0  0  0  0
    5.6732   -1.8960    5.5503 H   0  0  0  0  0  0  0  0  0  0  0  0
    6.5539   -2.7495    4.2586 H   0  0  0  0  0  0  0  0  0  0  0  0
    6.0853   -3.6080    5.7392 H   0  0  0  0  0  0  0  0  0  0  0  0
    3.1298   -2.3775    5.8587 H   0  0  0  0  0  0  0  0  0  0  0  0
    3.6343   -4.0329    6.2559 H   0  0  0  0  0  0  0  0  0  0  0  0
    2.4069   -3.7432    4.9958 H   0  0  0  0  0  0  0  0  0  0  0  0
    1.7712   -2.4206    0.6401 H   0  0  0  0  0  0  0  0  0  0  0  0
    4.5045    0.6774    1.8127 H   0  0  0  0  0  0  0  0  0  0  0  0
    2.5768   -3.8251    2.4788 H   0  0  0  0  0  0  0  0  0  0  0  0
    5.3183   -0.7278    3.6445 H   0  0  0  0  0  0  0  0  0  0  0  0
    3.1398    1.0751    0.0043 H   0  0  0  0  0  0  0  0  0  0  0  0
    4.1546   -6.0824    4.7421 H   0  0  0  0  0  0  0  0  0  0  0  0
  1  9  1  0  0  0  0
  2 19  1  0  0  0  0
  3 21  1  0  0  0  0
  3 23  1  0  0  0  0
  4 24  1  0  0  0  0
  4 25  1  0  0  0  0
  5  7  1  0  0  0  0
  6  8  2  0  0  0  0
  7 29  1  0  0  0  0
  7 11  2  0  0  0  0
  8 11  1  0  0  0  0
  8 30  1  0  0  0  0
  9 31  1  0  0  0  0
  9  2  1  0  0  0  0
  9 10  1  0  0  0  0
 10  5  2  0  0  0  0
 10  6  1  0  0  0  0
 11 12  1  0  0  0  0
 12  3  1  0  0  0  0
 12  4  1  0  0  0  0
 13 32  1  0  0  0  0
 14 12  1  0  0  0  0
 14 13  1  0  0  0  0
 15  1  1  0  0  0  0
 16  1  1  0  0  0  0
 17  1  1  0  0  0  0
 18  2  1  0  0  0  0
 20  2  1  0  0  0  0
 22  3  1  0  0  0  0
 26  4  1  0  0  0  0
 27  5  1  0  0  0  0
 28  6  1  0  0  0  0
M  END
>  <HBA>
2

>  <HBD>
1

>  <TPSA>
29.46

>  <cid>
60989

>  <dipole>
1.92

>  <excitation_energy_1>
5.179

>  <excitation_energy_2>
5.39

>  <excitation_energy_3>
5.674

>  <excitation_energy_4>
5.887

>  <homo_energy>
-6.368

>  <homo_lumo_gap>
6.199

>  <logP>
3.535

>  <lumo_energy>
-0.169

>  <melting_point>
45.8

>  <molecular_refractivity>
58.14

>  <oscillator_strength_1>
0.0167

>  <oscillator_strength_2>
0.0662

>  <oscillator_strength_3>
0.1101

>  <oscillator_strength_4>
0.0029

>  <open_babel_can_smiles>
OOC(c1ccc(cc1)C(C)C)(C)C

>  <mulliken_charges>
32
1   -0.438228
2   -0.439041
3   -0.470756
4   -0.467319
5   -0.190004
6   -0.204647
7   -0.163166
8   -0.180824
9   -0.161402
10   0.194668
11   0.12713
12   0.282145
13   -0.407583
14   -0.32547
15   0.141007
16   0.144011
17   0.151168
18   0.141562
19   0.149067
20   0.143372
21   0.141167
22   0.159488
23   0.172551
24   0.153523
25   0.154338
26   0.145983
27   0.124406
28   0.122551
29   0.133145
30   0.128127
31   0.128646
32   0.410385

>  <lowdin_charges>
32
1   -0.440779
2   -0.443
3   -0.456801
4   -0.45716
5   -0.165539
6   -0.169285
7   -0.152025
8   -0.164183
9   -0.118205
10   0.002411
11   -0.013878
12   0.12637
13   -0.346623
14   -0.167031
15   0.149128
16   0.147814
17   0.152069
18   0.14951
19   0.152359
20   0.147716
21   0.151366
22   0.160702
23   0.168206
24   0.159423
25   0.155876
26   0.152512
27   0.15517
28   0.153231
29   0.159544
30   0.160986
31   0.141676
32   0.348441

$$$$

