PCCDB-ID:  11926
public computational chemistry database (PCCDB) project, http://pccdb.org

 20 21  0  0  0  0  0  0  0  0999 V2000
    0.7836    0.0213    0.1245 C   0  0  0  0  0  0  0  0  0  0  0  0
    6.5367   -2.3983   -0.0929 C   0  0  0  0  0  0  0  0  0  0  0  0
    7.2012   -1.1469   -0.0938 C   0  0  0  0  0  0  0  0  0  0  0  0
    5.1611   -2.4570   -0.0503 C   0  0  0  0  0  0  0  0  0  0  0  0
    6.4808    0.0264   -0.0515 C   0  0  0  0  0  0  0  0  0  0  0  0
    2.9733   -1.2534    0.0403 C   0  0  0  0  0  0  0  0  0  0  0  0
    3.0698    1.1339    0.0797 C   0  0  0  0  0  0  0  0  0  0  0  0
    2.2886   -0.0597    0.0823 C   0  0  0  0  0  0  0  0  0  0  0  0
    4.3914   -1.2655   -0.0053 C   0  0  0  0  0  0  0  0  0  0  0  0
    5.0629   -0.0028   -0.0061 C   0  0  0  0  0  0  0  0  0  0  0  0
    4.3830    1.1823    0.0377 N   0  0  0  0  0  0  0  0  0  0  0  0
    0.3334   -0.9730    0.2041 H   0  0  0  0  0  0  0  0  0  0  0  0
    0.3837    0.4981   -0.7796 H   0  0  0  0  0  0  0  0  0  0  0  0
    0.4388    0.6164    0.9791 H   0  0  0  0  0  0  0  0  0  0  0  0
    7.1192   -3.3150   -0.1259 H   0  0  0  0  0  0  0  0  0  0  0  0
    8.2869   -1.1181   -0.1280 H   0  0  0  0  0  0  0  0  0  0  0  0
    4.6476   -3.4159   -0.0481 H   0  0  0  0  0  0  0  0  0  0  0  0
    6.9654    0.9978   -0.0499 H   0  0  0  0  0  0  0  0  0  0  0  0
    2.4343   -2.1995    0.0434 H   0  0  0  0  0  0  0  0  0  0  0  0
    2.5556    2.0961    0.1172 H   0  0  0  0  0  0  0  0  0  0  0  0
  1 12  1  0  0  0  0
  1 14  1  0  0  0  0
  2  4  1  0  0  0  0
  3  2  2  0  0  0  0
  3  5  1  0  0  0  0
  4 17  1  0  0  0  0
  4  9  2  0  0  0  0
  5 18  1  0  0  0  0
  5 10  2  0  0  0  0
  6 19  1  0  0  0  0
  6  8  2  0  0  0  0
  7  8  1  0  0  0  0
  7 20  1  0  0  0  0
  8  1  1  0  0  0  0
  9  6  1  0  0  0  0
 10  9  1  0  0  0  0
 10 11  1  0  0  0  0
 11  7  2  0  0  0  0
 13  1  1  0  0  0  0
 15  2  1  0  0  0  0
 16  3  1  0  0  0  0
M  END
>  <HBA>
1

>  <HBD>
0

>  <TPSA>
12.89

>  <cid>
11926

>  <dipole>
2.1

>  <excitation_energy_1>
4.324

>  <excitation_energy_2>
4.363

>  <excitation_energy_3>
4.495

>  <excitation_energy_4>
5.235

>  <homo_energy>
-6.174

>  <homo_lumo_gap>
4.909

>  <logP>
2.543

>  <lumo_energy>
-1.265

>  <melting_point>
67.99

>  <molecular_refractivity>
46.71

>  <oscillator_strength_1>
0.0017

>  <oscillator_strength_2>
0.0386

>  <oscillator_strength_3>
0.0229

>  <oscillator_strength_4>
0.0

>  <open_babel_can_smiles>
Cc1cnc2c(c1)cccc2

>  <mulliken_charges>
20
1   -0.535437
2   -0.132505
3   -0.139519
4   -0.198988
5   -0.139068
6   -0.210486
7   0.00422
8   0.150775
9   0.166876
10   0.229628
11   -0.495664
12   0.159145
13   0.168649
14   0.166791
15   0.132468
16   0.133455
17   0.130568
18   0.143074
19   0.131916
20   0.134101

>  <lowdin_charges>
20
1   -0.441504
2   -0.156069
3   -0.152766
4   -0.159368
5   -0.15073
6   -0.144527
7   -0.0946
8   -0.022125
9   -0.013494
10   0.037178
11   -0.145782
12   0.159031
13   0.164613
14   0.164126
15   0.16007
16   0.15825
17   0.157684
18   0.168991
19   0.158104
20   0.152917

$$$$

