PCCDB-ID:  15008
public computational chemistry database (PCCDB) project, http://pccdb.org

 26 26  0  0  0  0  0  0  0  0999 V2000
    3.5665   -3.4768   -3.2484 C   0  0  0  0  0  0  0  0  0  0  0  0
    3.8162   -2.0475   -2.7574 C   0  0  0  0  0  0  0  0  0  0  0  0
    4.6622   -2.0105   -1.4831 C   0  0  0  0  0  0  0  0  0  0  0  0
    5.9135    0.9852    0.6354 C   0  0  0  0  0  0  0  0  0  0  0  0
    7.0574   -0.9626    2.2142 C   0  0  0  0  0  0  0  0  0  0  0  0
    5.7356   -0.3639    0.2615 C   0  0  0  0  0  0  0  0  0  0  0  0
    4.9283   -0.5986   -0.9805 C   0  0  0  0  0  0  0  0  0  0  0  0
    6.3263   -1.3429    1.0802 C   0  0  0  0  0  0  0  0  0  0  0  0
    6.6308    1.3746    1.7499 C   0  0  0  0  0  0  0  0  0  0  0  0
    7.2176    0.3772    2.5582 C   0  0  0  0  0  0  0  0  0  0  0  0
    4.4803    0.3655   -1.5922 O   0  0  0  0  0  0  0  0  0  0  0  0
    6.1875   -2.6701    0.7696 O   0  0  0  0  0  0  0  0  0  0  0  0
    6.8160    2.6757    2.1318 O   0  0  0  0  0  0  0  0  0  0  0  0
    7.9179    0.7893    3.6477 O   0  0  0  0  0  0  0  0  0  0  0  0
    2.9515   -3.4818   -4.1556 H   0  0  0  0  0  0  0  0  0  0  0  0
    3.0452   -4.0756   -2.4908 H   0  0  0  0  0  0  0  0  0  0  0  0
    4.5077   -3.9903   -3.4825 H   0  0  0  0  0  0  0  0  0  0  0  0
    2.8620   -1.5406   -2.5723 H   0  0  0  0  0  0  0  0  0  0  0  0
    4.3145   -1.4621   -3.5388 H   0  0  0  0  0  0  0  0  0  0  0  0
    5.6267   -2.5137   -1.6363 H   0  0  0  0  0  0  0  0  0  0  0  0
    4.1844   -2.5838   -0.6769 H   0  0  0  0  0  0  0  0  0  0  0  0
    5.4499    1.7286   -0.0081 H   0  0  0  0  0  0  0  0  0  0  0  0
    7.5105   -1.7294    2.8427 H   0  0  0  0  0  0  0  0  0  0  0  0
    6.6557   -3.1977    1.4350 H   0  0  0  0  0  0  0  0  0  0  0  0
    6.3637    3.2455    1.4903 H   0  0  0  0  0  0  0  0  0  0  0  0
    8.2728    0.0134    4.1090 H   0  0  0  0  0  0  0  0  0  0  0  0
  1  2  1  0  0  0  0
  1 16  1  0  0  0  0
  2 18  1  0  0  0  0
  2  3  1  0  0  0  0
  3  7  1  0  0  0  0
  3 21  1  0  0  0  0
  4  9  1  0  0  0  0
  5 10  1  0  0  0  0
  5 23  1  0  0  0  0
  6  4  2  0  0  0  0
  6  8  1  0  0  0  0
  7  6  1  0  0  0  0
  8  5  2  0  0  0  0
  9 13  1  0  0  0  0
  9 10  2  0  0  0  0
 10 14  1  0  0  0  0
 11  7  2  0  0  0  0
 12  8  1  0  0  0  0
 12 24  1  0  0  0  0
 14 26  1  0  0  0  0
 15  1  1  0  0  0  0
 17  1  1  0  0  0  0
 19  2  1  0  0  0  0
 20  3  1  0  0  0  0
 22  4  1  0  0  0  0
 25 13  1  0  0  0  0
M  END
>  <HBA>
4

>  <HBD>
3

>  <TPSA>
77.76

>  <cid>
15008

>  <dipole>
4.46

>  <excitation_energy_1>
3.919

>  <excitation_energy_2>
4.035

>  <excitation_energy_3>
4.633

>  <excitation_energy_4>
4.881

>  <homo_energy>
-5.619

>  <homo_lumo_gap>
4.55

>  <logP>
1.786

>  <lumo_energy>
-1.069

>  <melting_point>
159.81

>  <molecular_refractivity>
52.32

>  <oscillator_strength_1>
0.0

>  <oscillator_strength_2>
0.1365

>  <oscillator_strength_3>
0.0001

>  <oscillator_strength_4>
0.0001

>  <open_babel_can_smiles>
CCCC(=O)c1cc(O)c(cc1O)O

>  <mulliken_charges>
26
1   -0.445517
2   -0.239625
3   -0.341539
4   -0.266251
5   -0.278565
6   0.059239
7   0.401605
8   0.286793
9   0.337123
10   0.342302
11   -0.483015
12   -0.649819
13   -0.641967
14   -0.622216
15   0.142796
16   0.13748
17   0.137612
18   0.145979
19   0.146447
20   0.163146
21   0.163082
22   0.159203
23   0.110484
24   0.411984
25   0.411799
26   0.411439

>  <lowdin_charges>
26
1   -0.446777
2   -0.270735
3   -0.307974
4   -0.173483
5   -0.267275
6   -0.093641
7   0.166357
8   0.108978
9   0.06175
10   0.104556
11   -0.264768
12   -0.372964
13   -0.376734
14   -0.351858
15   0.149868
16   0.145342
17   0.144313
18   0.149099
19   0.150643
20   0.1636
21   0.164832
22   0.179296
23   0.152026
24   0.360665
25   0.363207
26   0.361678

$$$$

