PCCDB-ID:  61969
public computational chemistry database (PCCDB) project, http://pccdb.org

 18 17  0  0  1  0  0  0  0  0999 V2000
    0.6773   -0.9695   -0.0562 C   0  0  0  0  0  0  0  0  0  0  0  0
    5.4079   -0.2785    1.0970 C   0  0  0  0  0  0  0  0  0  0  0  0
    2.1489   -1.0619   -0.3399 C   0  0  0  0  0  0  0  0  0  0  0  0
    3.1084   -1.2118    0.5826 C   0  0  0  0  0  0  0  0  0  0  0  0
    4.5883   -1.2966    0.2920 C   0  0  2  0  0  0  0  0  0  0  0  0
    5.1378   -2.7246    0.5148 C   0  0  0  0  0  0  0  0  0  0  0  0
    6.2532   -2.9647    0.9053 O   0  0  0  0  0  0  0  0  0  0  0  0
    4.2857   -3.7270    0.1904 O   0  0  0  0  0  0  0  0  0  0  0  0
    0.2742   -0.0053   -0.3933 H   0  0  0  0  0  0  0  0  0  0  0  0
    0.4640   -1.0721    1.0127 H   0  0  0  0  0  0  0  0  0  0  0  0
    0.1184   -1.7472   -0.5931 H   0  0  0  0  0  0  0  0  0  0  0  0
    5.1030    0.7418    0.8449 H   0  0  0  0  0  0  0  0  0  0  0  0
    6.4733   -0.3999    0.8886 H   0  0  0  0  0  0  0  0  0  0  0  0
    5.2624   -0.4261    2.1729 H   0  0  0  0  0  0  0  0  0  0  0  0
    2.4410   -0.9761   -1.3890 H   0  0  0  0  0  0  0  0  0  0  0  0
    2.8268   -1.2818    1.6356 H   0  0  0  0  0  0  0  0  0  0  0  0
    4.7368   -1.1024   -0.7818 H   0  0  0  0  0  0  0  0  0  0  0  0
    3.4241   -3.3332   -0.0456 H   0  0  0  0  0  0  0  0  0  0  0  0
  1 10  1  0  0  0  0
  2 14  1  0  0  0  0
  3  1  1  0  0  0  0
  3  4  2  0  0  0  0
  4 16  1  0  0  0  0
  5 17  1  6  0  0  0
  5  6  1  0  0  0  0
  5  4  1  0  0  0  0
  5  2  1  0  0  0  0
  6  7  2  0  0  0  0
  8  6  1  0  0  0  0
  9  1  1  0  0  0  0
 11  1  1  0  0  0  0
 12  2  1  0  0  0  0
 13  2  1  0  0  0  0
 15  3  1  0  0  0  0
 18  8  1  0  0  0  0
M  END
>  <HBA>
2

>  <HBD>
1

>  <TPSA>
37.3

>  <cid>
61969

>  <dipole>
4.86

>  <excitation_energy_1>
5.45

>  <excitation_energy_2>
6.176

>  <excitation_energy_3>
6.4

>  <excitation_energy_4>
6.702

>  <homo_energy>
-6.879

>  <homo_lumo_gap>
6.71

>  <logP>
1.283

>  <lumo_energy>
-0.169

>  <melting_point>
60.39

>  <molecular_refractivity>
32.25

>  <oscillator_strength_1>
0.0104

>  <oscillator_strength_2>
0.0487

>  <oscillator_strength_3>
0.0804

>  <oscillator_strength_4>
0.008

>  <open_babel_can_smiles>
C[C@@H](C(=O)O)/C=C/C

>  <mulliken_charges>
18
1   -0.489442
2   -0.441716
3   -0.099194
4   -0.134475
5   -0.240208
6   0.602865
7   -0.447714
8   -0.571478
9   0.167178
10   0.16136
11   0.163159
12   0.147135
13   0.178547
14   0.154851
15   0.135746
16   0.13914
17   0.16883
18   0.405418

>  <lowdin_charges>
18
1   -0.439921
2   -0.432969
3   -0.159377
4   -0.183038
5   -0.160147
6   0.184987
7   -0.24052
8   -0.354946
9   0.164094
10   0.157961
11   0.16298
12   0.152514
13   0.168949
14   0.154133
15   0.150873
16   0.154828
17   0.164103
18   0.355496

$$$$

