PCCDB-ID:  49146
public computational chemistry database (PCCDB) project, http://pccdb.org

 35 35  0  0  1  0  0  0  0  0999 V2000
    1.1918   -0.3852   -0.7027 C   0  0  0  0  0  0  0  0  0  0  0  0
    3.2725   -2.3541    3.9324 C   0  0  0  0  0  0  0  0  0  0  0  0
    5.4341   -3.6433    4.1386 C   0  0  0  0  0  0  0  0  0  0  0  0
    8.2702   -3.6943    0.5620 C   0  0  0  0  0  0  0  0  0  0  0  0
    2.7284   -0.3509   -0.6420 C   0  0  0  0  0  0  0  0  0  0  0  0
    3.3150   -1.5693    0.0185 C   0  0  0  0  0  0  0  0  0  0  0  0
    4.0881   -1.5378    1.1103 C   0  0  0  0  0  0  0  0  0  0  0  0
    4.6952   -2.5308    3.3806 C   0  0  0  0  0  0  0  0  0  0  0  0
    4.1717   -4.0519    1.3886 C   0  0  0  0  0  0  0  0  0  0  0  0
    6.2570   -2.6390    1.4322 C   0  0  0  0  0  0  0  0  0  0  0  0
    6.1878   -5.0235    0.7739 C   0  0  0  0  0  0  0  0  0  0  0  0
    4.7630   -2.7191    1.8037 C   0  0  1  0  0  0  0  0  0  0  0  0
    4.8090   -5.0813    0.9787 N   0  0  0  0  0  0  0  0  0  0  0  0
    6.8423   -3.7654    0.8949 N   0  0  0  0  0  0  0  0  0  0  0  0
    2.8378   -4.1895    1.5047 O   0  0  0  0  0  0  0  0  0  0  0  0
    6.8872   -1.6116    1.6315 O   0  0  0  0  0  0  0  0  0  0  0  0
    6.8272   -6.0071    0.4638 O   0  0  0  0  0  0  0  0  0  0  0  0
    0.8032    0.4946   -1.2267 H   0  0  0  0  0  0  0  0  0  0  0  0
    0.7579   -0.3985    0.3036 H   0  0  0  0  0  0  0  0  0  0  0  0
    0.8345   -1.2753   -1.2340 H   0  0  0  0  0  0  0  0  0  0  0  0
    3.3271   -2.0288    4.9769 H   0  0  0  0  0  0  0  0  0  0  0  0
    2.7067   -3.2924    3.9180 H   0  0  0  0  0  0  0  0  0  0  0  0
    2.7067   -1.5912    3.3849 H   0  0  0  0  0  0  0  0  0  0  0  0
    5.4132   -3.4346    5.2136 H   0  0  0  0  0  0  0  0  0  0  0  0
    6.4854   -3.7160    3.8414 H   0  0  0  0  0  0  0  0  0  0  0  0
    4.9662   -4.6224    3.9834 H   0  0  0  0  0  0  0  0  0  0  0  0
    8.4759   -2.7245    0.1090 H   0  0  0  0  0  0  0  0  0  0  0  0
    8.4976   -4.5092   -0.1216 H   0  0  0  0  0  0  0  0  0  0  0  0
    8.8822   -3.7977    1.4640 H   0  0  0  0  0  0  0  0  0  0  0  0
    3.0641    0.5528   -0.1190 H   0  0  0  0  0  0  0  0  0  0  0  0
    3.1216   -0.2836   -1.6668 H   0  0  0  0  0  0  0  0  0  0  0  0
    3.0711   -2.5214   -0.4554 H   0  0  0  0  0  0  0  0  0  0  0  0
    4.3487   -0.5763    1.5492 H   0  0  0  0  0  0  0  0  0  0  0  0
    5.2396   -1.5924    3.5382 H   0  0  0  0  0  0  0  0  0  0  0  0
    2.4494   -3.3216    1.7109 H   0  0  0  0  0  0  0  0  0  0  0  0
  1  5  1  0  0  0  0
  1 19  1  0  0  0  0
  2 21  1  0  0  0  0
  3 24  1  0  0  0  0
  4 14  1  0  0  0  0
  4 29  1  0  0  0  0
  5 30  1  0  0  0  0
  5  6  1  0  0  0  0
  6  7  2  0  0  0  0
  7 33  1  0  0  0  0
  8 34  1  0  0  0  0
  8  2  1  0  0  0  0
  8  3  1  0  0  0  0
  9 15  1  0  0  0  0
  9 12  1  0  0  0  0
 10 16  2  0  0  0  0
 10 12  1  0  0  0  0
 11 14  1  0  0  0  0
 11 13  1  0  0  0  0
 12  7  1  6  0  0  0
 12  8  1  0  0  0  0
 13  9  2  0  0  0  0
 14 10  1  0  0  0  0
 15 35  1  0  0  0  0
 17 11  2  0  0  0  0
 18  1  1  0  0  0  0
 20  1  1  0  0  0  0
 22  2  1  0  0  0  0
 23  2  1  0  0  0  0
 25  3  1  0  0  0  0
 26  3  1  0  0  0  0
 27  4  1  0  0  0  0
 28  4  1  0  0  0  0
 31  5  1  0  0  0  0
 32  6  1  0  0  0  0
M  END
>  <HBA>
5

>  <HBD>
1

>  <TPSA>
66.48

>  <cid>
49146

>  <dipole>
5.35

>  <excitation_energy_1>
4.499

>  <excitation_energy_2>
4.813

>  <excitation_energy_3>
4.934

>  <excitation_energy_4>
5.177

>  <homo_energy>
-7.11

>  <homo_lumo_gap>
5.704

>  <logP>
1.57

>  <lumo_energy>
-1.407

>  <melting_point>
124.83

>  <molecular_refractivity>
71.47

>  <oscillator_strength_1>
0.0019

>  <oscillator_strength_2>
0.0008

>  <oscillator_strength_3>
0.0084

>  <oscillator_strength_4>
0.0229

>  <open_babel_can_smiles>
CC/C=C/[C@@]1(C(C)C)C(=NC(=O)N(C1=O)C)O

>  <mulliken_charges>
35
1   -0.446532
2   -0.491809
3   -0.478726
4   -0.317799
5   -0.301857
6   -0.101696
7   -0.153162
8   -0.080193
9   0.524947
10   0.649672
11   0.700024
12   -0.14312
13   -0.491188
14   -0.511557
15   -0.572995
16   -0.514285
17   -0.464888
18   0.1554
19   0.146849
20   0.152446
21   0.164215
22   0.162013
23   0.149793
24   0.157833
25   0.165323
26   0.168336
27   0.184108
28   0.19708
29   0.173548
30   0.150381
31   0.158277
32   0.153609
33   0.158362
34   0.172429
35   0.425163

>  <lowdin_charges>
35
1   -0.444011
2   -0.463184
3   -0.45018
4   -0.349151
5   -0.266833
6   -0.162671
7   -0.17346
8   -0.112141
9   0.163082
10   0.16832
11   0.186986
12   -0.056
13   -0.184932
14   -0.091345
15   -0.320217
16   -0.281531
17   -0.246935
18   0.157132
19   0.148264
20   0.152459
21   0.162426
22   0.154647
23   0.152569
24   0.15852
25   0.158343
26   0.158823
27   0.172324
28   0.18213
29   0.162815
30   0.151892
31   0.15682
32   0.159452
33   0.169962
34   0.163257
35   0.362366

$$$$

