PCCDB-ID:  42953
public computational chemistry database (PCCDB) project, http://pccdb.org

 25 24  0  0  1  0  0  0  0  0999 V2000
    1.0113   -0.0548   -0.6318 C   0  0  0  0  0  0  0  0  0  0  0  0
    5.0543   -5.1836   -0.8827 C   0  0  0  0  0  0  0  0  0  0  0  0
    0.8983   -2.5617   -1.0627 C   0  0  0  0  0  0  0  0  0  0  0  0
    2.8539   -3.8927   -0.7917 C   0  0  0  0  0  0  0  0  0  0  0  0
    0.4420   -1.1681   -1.5092 C   0  0  1  0  0  0  0  0  0  0  0  0
    4.3276   -3.8742   -1.1734 C   0  0  2  0  0  0  0  0  0  0  0  0
    0.3818   -0.1951    0.6467 O   0  0  0  0  0  0  0  0  0  0  0  0
    6.4028   -5.1146   -1.3084 O   0  0  0  0  0  0  0  0  0  0  0  0
   -0.9759   -1.1093   -1.5152 O   0  0  0  0  0  0  0  0  0  0  0  0
    4.4625   -3.6604   -2.5783 O   0  0  0  0  0  0  0  0  0  0  0  0
    2.3081   -2.6517   -1.2198 O   0  0  0  0  0  0  0  0  0  0  0  0
    0.7661    0.9176   -1.0817 H   0  0  0  0  0  0  0  0  0  0  0  0
    2.1022   -0.1518   -0.5553 H   0  0  0  0  0  0  0  0  0  0  0  0
    4.5178   -6.0096   -1.3793 H   0  0  0  0  0  0  0  0  0  0  0  0
    5.0672   -5.3833    0.1941 H   0  0  0  0  0  0  0  0  0  0  0  0
    0.3880   -3.3173   -1.6779 H   0  0  0  0  0  0  0  0  0  0  0  0
    0.6190   -2.7269   -0.0113 H   0  0  0  0  0  0  0  0  0  0  0  0
    2.7274   -4.0175    0.2958 H   0  0  0  0  0  0  0  0  0  0  0  0
    2.3427   -4.7264   -1.2992 H   0  0  0  0  0  0  0  0  0  0  0  0
    0.7779   -1.0082   -2.5407 H   0  0  0  0  0  0  0  0  0  0  0  0
    4.8264   -3.0619   -0.6205 H   0  0  0  0  0  0  0  0  0  0  0  0
    0.5713    0.5951    1.1725 H   0  0  0  0  0  0  0  0  0  0  0  0
    6.3692   -4.7644   -2.2148 H   0  0  0  0  0  0  0  0  0  0  0  0
   -1.2245   -0.9112   -0.5949 H   0  0  0  0  0  0  0  0  0  0  0  0
    3.8863   -2.9076   -2.7914 H   0  0  0  0  0  0  0  0  0  0  0  0
  1 13  1  0  0  0  0
  1  7  1  0  0  0  0
  2 15  1  0  0  0  0
  3 17  1  0  0  0  0
  4 18  1  0  0  0  0
  5 20  1  6  0  0  0
  5  3  1  0  0  0  0
  5  1  1  0  0  0  0
  6  2  1  0  0  0  0
  6  4  1  0  0  0  0
  6 21  1  1  0  0  0
  7 22  1  0  0  0  0
  8  2  1  0  0  0  0
  9  5  1  0  0  0  0
  9 24  1  0  0  0  0
 10  6  1  0  0  0  0
 11  3  1  0  0  0  0
 11  4  1  0  0  0  0
 12  1  1  0  0  0  0
 14  2  1  0  0  0  0
 16  3  1  0  0  0  0
 19  4  1  0  0  0  0
 23  8  1  0  0  0  0
 25 10  1  0  0  0  0
M  END
>  <HBA>
5

>  <HBD>
4

>  <TPSA>
90.15

>  <cid>
42953

>  <dipole>
3.36

>  <excitation_energy_1>
6.479

>  <excitation_energy_2>
6.501

>  <excitation_energy_3>
6.647

>  <excitation_energy_4>
6.753

>  <homo_energy>
-7.012

>  <homo_lumo_gap>
8.384

>  <logP>
-2.291

>  <lumo_energy>
1.371

>  <melting_point>
38.96

>  <molecular_refractivity>
36.69

>  <oscillator_strength_1>
0.0014

>  <oscillator_strength_2>
0.0171

>  <oscillator_strength_3>
0.0088

>  <oscillator_strength_4>
0.0027

>  <open_babel_can_smiles>
OC[C@H](COC[C@H](CO)O)O

>  <mulliken_charges>
25
1   -0.063081
2   -0.018452
3   -0.025545
4   -0.023488
5   0.112413
6   0.094727
7   -0.638003
8   -0.626727
9   -0.63857
10   -0.65405
11   -0.509809
12   0.136841
13   0.148293
14   0.123411
15   0.139671
16   0.141114
17   0.138668
18   0.128721
19   0.131656
20   0.141971
21   0.132163
22   0.405562
23   0.408199
24   0.406785
25   0.407529

>  <lowdin_charges>
25
1   -0.150761
2   -0.138381
3   -0.146578
4   -0.144871
5   -0.014659
6   -0.026954
7   -0.480577
8   -0.46391
9   -0.458056
10   -0.477554
11   -0.286515
12   0.13805
13   0.142431
14   0.130928
15   0.14555
16   0.14205
17   0.137487
18   0.134273
19   0.136533
20   0.147559
21   0.137008
22   0.354093
23   0.348012
24   0.345067
25   0.349775

$$$$

