PCCDB-ID:  42631
public computational chemistry database (PCCDB) project, http://pccdb.org

 17 16  0  0  1  0  0  0  0  0999 V2000
    0.8769    0.4397   -0.5330 C   0  0  0  0  0  0  0  0  0  0  0  0
    0.0334    1.2731    0.4559 C   0  0  2  0  0  0  0  0  0  0  0  0
    0.8500    2.4412    1.0541 C   0  0  0  0  0  0  0  0  0  0  0  0
   -0.5341    0.4884    1.5639 N   0  0  0  0  0  0  0  0  0  0  0  0
    1.2702    3.3832   -0.9981 N   0  0  0  0  0  0  0  0  0  0  0  0
    1.4176    3.3984    0.4247 N   0  0  0  0  0  0  0  0  0  0  0  0
    0.9606    2.4113    2.3962 O   0  0  0  0  0  0  0  0  0  0  0  0
    2.2365   -0.5211    0.2566 S   0  0  0  0  0  0  0  0  0  0  0  0
    1.2920    1.0918   -1.3025 H   0  0  0  0  0  0  0  0  0  0  0  0
    0.2446   -0.3180   -1.0071 H   0  0  0  0  0  0  0  0  0  0  0  0
   -0.8000    1.7063   -0.1151 H   0  0  0  0  0  0  0  0  0  0  0  0
    0.0337   -0.3452    1.7209 H   0  0  0  0  0  0  0  0  0  0  0  0
   -1.4862    0.1928    1.3696 H   0  0  0  0  0  0  0  0  0  0  0  0
    1.7242    4.2385   -1.3097 H   0  0  0  0  0  0  0  0  0  0  0  0
    0.2821    3.4955   -1.2455 H   0  0  0  0  0  0  0  0  0  0  0  0
    0.3256    1.7050    2.6713 H   0  0  0  0  0  0  0  0  0  0  0  0
    2.9970    0.5379    0.6083 H   0  0  0  0  0  0  0  0  0  0  0  0
  1  8  1  0  0  0  0
  1  2  1  0  0  0  0
  2 11  1  6  0  0  0
  2  3  1  0  0  0  0
  2  4  1  0  0  0  0
  3  7  1  0  0  0  0
  4 12  1  0  0  0  0
  5  6  1  0  0  0  0
  6  3  2  0  0  0  0
  7 16  1  0  0  0  0
  8 17  1  0  0  0  0
  9  1  1  0  0  0  0
 10  1  1  0  0  0  0
 13  4  1  0  0  0  0
 14  5  1  0  0  0  0
 15  5  1  0  0  0  0
M  END
>  <HBA>
5

>  <HBD>
4

>  <TPSA>
119.94

>  <cid>
42631

>  <dipole>
4.43

>  <excitation_energy_1>
4.651

>  <excitation_energy_2>
5.066

>  <excitation_energy_3>
5.215

>  <excitation_energy_4>
5.424

>  <homo_energy>
-5.551

>  <homo_lumo_gap>
6.046

>  <logP>
0.025

>  <lumo_energy>
0.495

>  <melting_point>
152.76

>  <molecular_refractivity>
32.88

>  <oscillator_strength_1>
0.0075

>  <oscillator_strength_2>
0.0126

>  <oscillator_strength_3>
0.0127

>  <oscillator_strength_4>
0.0035

>  <open_babel_can_smiles>
N[C@@H](/C(=N\N)/O)CS

>  <mulliken_charges>
17
1   -0.432984
2   -0.054686
3   0.513647
4   -0.777244
5   -0.599344
6   -0.354961
7   -0.601278
8   -0.108191
9   0.235451
10   0.170538
11   0.153959
12   0.344525
13   0.321915
14   0.328572
15   0.296684
16   0.43273
17   0.130665

>  <lowdin_charges>
17
1   -0.392242
2   -0.103134
3   0.081778
4   -0.545587
5   -0.466276
6   -0.17988
7   -0.370795
8   -0.091898
9   0.191999
10   0.166056
11   0.1569
12   0.276093
13   0.27192
14   0.268276
15   0.24436
16   0.358418
17   0.134011

$$$$

