PCCDB-ID:  40925
public computational chemistry database (PCCDB) project, http://pccdb.org

 25 24  0  0  1  0  0  0  0  0999 V2000
    2.4610   -1.5932   -1.3600 C   0  0  0  0  0  0  0  0  0  0  0  0
    7.2553   -0.4779    1.0369 C   0  0  0  0  0  0  0  0  0  0  0  0
    2.4499   -1.5964    1.8566 C   0  0  0  0  0  0  0  0  0  0  0  0
    2.1456   -0.4324   -0.4098 C   0  0  0  0  0  0  0  0  0  0  0  0
    5.0273    0.4479    0.2028 C   0  0  0  0  0  0  0  0  0  0  0  0
    6.4132   -0.0819   -0.1785 C   0  0  2  0  0  0  0  0  0  0  0  0
    2.9042   -0.4683    0.9338 C   0  0  2  0  0  0  0  0  0  0  0  0
    6.2581   -1.1767   -1.0809 O   0  0  0  0  0  0  0  0  0  0  0  0
    4.3156   -0.6472    0.7648 O   0  0  0  0  0  0  0  0  0  0  0  0
    1.8802   -1.4990   -2.2842 H   0  0  0  0  0  0  0  0  0  0  0  0
    2.2179   -2.5654   -0.9169 H   0  0  0  0  0  0  0  0  0  0  0  0
    3.5208   -1.5991   -1.6331 H   0  0  0  0  0  0  0  0  0  0  0  0
    7.4755    0.3917    1.6683 H   0  0  0  0  0  0  0  0  0  0  0  0
    8.2014   -0.9161    0.7052 H   0  0  0  0  0  0  0  0  0  0  0  0
    6.7227   -1.2151    1.6469 H   0  0  0  0  0  0  0  0  0  0  0  0
    1.3770   -1.5187    2.0628 H   0  0  0  0  0  0  0  0  0  0  0  0
    2.9915   -1.5465    2.8063 H   0  0  0  0  0  0  0  0  0  0  0  0
    2.6471   -2.5749    1.4069 H   0  0  0  0  0  0  0  0  0  0  0  0
    1.0719   -0.4107   -0.1793 H   0  0  0  0  0  0  0  0  0  0  0  0
    2.3567    0.5149   -0.9216 H   0  0  0  0  0  0  0  0  0  0  0  0
    4.5278    0.8217   -0.7006 H   0  0  0  0  0  0  0  0  0  0  0  0
    5.0997    1.2766    0.9266 H   0  0  0  0  0  0  0  0  0  0  0  0
    6.9333    0.6977   -0.7480 H   0  0  0  0  0  0  0  0  0  0  0  0
    2.7339    0.4933    1.4466 H   0  0  0  0  0  0  0  0  0  0  0  0
    5.6248   -1.7714   -0.6429 H   0  0  0  0  0  0  0  0  0  0  0  0
  1 11  1  0  0  0  0
  1  4  1  0  0  0  0
  2 15  1  0  0  0  0
  2 13  1  0  0  0  0
  3 16  1  0  0  0  0
  3 17  1  0  0  0  0
  4 19  1  0  0  0  0
  4  7  1  0  0  0  0
  5  9  1  0  0  0  0
  5 22  1  0  0  0  0
  6 23  1  6  0  0  0
  6  5  1  0  0  0  0
  6  2  1  0  0  0  0
  7 24  1  1  0  0  0
  7  3  1  0  0  0  0
  8 25  1  0  0  0  0
  8  6  1  0  0  0  0
  9  7  1  0  0  0  0
 10  1  1  0  0  0  0
 12  1  1  0  0  0  0
 14  2  1  0  0  0  0
 18  3  1  0  0  0  0
 20  4  1  0  0  0  0
 21  5  1  0  0  0  0
M  END
>  <HBA>
2

>  <HBD>
1

>  <TPSA>
29.46

>  <cid>
40925

>  <dipole>
2.25

>  <excitation_energy_1>
6.474

>  <excitation_energy_2>
6.673

>  <excitation_energy_3>
6.857

>  <excitation_energy_4>
6.931

>  <homo_energy>
-7.007

>  <homo_lumo_gap>
8.991

>  <logP>
1.182

>  <lumo_energy>
1.984

>  <melting_point>
-17.56

>  <molecular_refractivity>
38.01

>  <oscillator_strength_1>
0.0163

>  <oscillator_strength_2>
0.0245

>  <oscillator_strength_3>
0.0113

>  <oscillator_strength_4>
0.0044

>  <open_babel_can_smiles>
CC[C@H](OC[C@H](O)C)C

>  <mulliken_charges>
25
1   -0.455884
2   -0.455219
3   -0.456714
4   -0.276635
5   -0.026785
6   0.119914
7   0.166262
8   -0.632476
9   -0.508165
10   0.144847
11   0.144453
12   0.160716
13   0.133766
14   0.156398
15   0.156044
16   0.142742
17   0.155536
18   0.154848
19   0.134831
20   0.137978
21   0.135525
22   0.119683
23   0.133814
24   0.11254
25   0.40198

>  <lowdin_charges>
25
1   -0.44983
2   -0.463691
3   -0.44756
4   -0.290344
5   -0.150234
6   -0.0072
7   0.008969
8   -0.46941
9   -0.284983
10   0.152547
11   0.147406
12   0.153385
13   0.148805
14   0.158119
15   0.156808
16   0.151409
17   0.157852
18   0.154599
19   0.145739
20   0.143552
21   0.138189
22   0.131545
23   0.145494
24   0.126652
25   0.342182

$$$$

