PCCDB-ID:  32502
public computational chemistry database (PCCDB) project, http://pccdb.org

 26 26  0  0  1  0  0  0  0  0999 V2000
    0.6770   -0.0838    0.6087 C   0  0  0  0  0  0  0  0  0  0  0  0
    2.4146   -2.4930   -0.3320 C   0  0  0  0  0  0  0  0  0  0  0  0
    3.5610    3.2470   -2.8618 C   0  0  0  0  0  0  0  0  0  0  0  0
    2.8424    1.2260    0.8249 C   0  0  0  0  0  0  0  0  0  0  0  0
    4.4371   -1.0407    0.0189 C   0  0  0  0  0  0  0  0  0  0  0  0
    2.1783   -0.0898    0.4681 C   0  0  0  0  0  0  0  0  0  0  0  0
    2.9279   -1.1374    0.0847 C   0  0  0  0  0  0  0  0  0  0  0  0
    4.2576    1.3288    0.2390 C   0  0  2  0  0  0  0  0  0  0  0  0
    4.2588    1.6596   -1.2617 C   0  0  0  0  0  0  0  0  0  0  0  0
    4.7997    1.0162   -2.1319 O   0  0  0  0  0  0  0  0  0  0  0  0
    3.5915    2.8150   -1.4907 O   0  0  0  0  0  0  0  0  0  0  0  0
    5.0021    0.1674    0.5231 O   0  0  0  0  0  0  0  0  0  0  0  0
    0.2212    0.6319   -0.0901 H   0  0  0  0  0  0  0  0  0  0  0  0
    0.3898    0.2444    1.6177 H   0  0  0  0  0  0  0  0  0  0  0  0
    0.2168   -1.0591    0.4373 H   0  0  0  0  0  0  0  0  0  0  0  0
    2.7598   -3.2749    0.3592 H   0  0  0  0  0  0  0  0  0  0  0  0
    2.8015   -2.7618   -1.3246 H   0  0  0  0  0  0  0  0  0  0  0  0
    1.3254   -2.5468   -0.3785 H   0  0  0  0  0  0  0  0  0  0  0  0
    2.9972    4.1803   -2.8624 H   0  0  0  0  0  0  0  0  0  0  0  0
    3.0683    2.4991   -3.4886 H   0  0  0  0  0  0  0  0  0  0  0  0
    4.5756    3.4100   -3.2347 H   0  0  0  0  0  0  0  0  0  0  0  0
    2.9106    1.3271    1.9178 H   0  0  0  0  0  0  0  0  0  0  0  0
    2.2343    2.0680    0.4743 H   0  0  0  0  0  0  0  0  0  0  0  0
    4.7696   -1.2004   -1.0170 H   0  0  0  0  0  0  0  0  0  0  0  0
    4.8819   -1.8374    0.6302 H   0  0  0  0  0  0  0  0  0  0  0  0
    4.7949    2.1495    0.7296 H   0  0  0  0  0  0  0  0  0  0  0  0
  1 14  1  0  0  0  0
  2  7  1  0  0  0  0
  2 16  1  0  0  0  0
  3 11  1  0  0  0  0
  4 22  1  0  0  0  0
  5  7  1  0  0  0  0
  5 12  1  0  0  0  0
  5 25  1  0  0  0  0
  6  1  1  0  0  0  0
  6  4  1  0  0  0  0
  7  6  2  0  0  0  0
  8 12  1  0  0  0  0
  8 26  1  1  0  0  0
  8  4  1  0  0  0  0
  9  8  1  0  0  0  0
 10  9  2  0  0  0  0
 11  9  1  0  0  0  0
 13  1  1  0  0  0  0
 15  1  1  0  0  0  0
 17  2  1  0  0  0  0
 18  2  1  0  0  0  0
 19  3  1  0  0  0  0
 20  3  1  0  0  0  0
 21  3  1  0  0  0  0
 23  4  1  0  0  0  0
 24  5  1  0  0  0  0
M  END
>  <HBA>
3

>  <HBD>
0

>  <TPSA>
35.53

>  <cid>
32502

>  <dipole>
2.51

>  <excitation_energy_1>
5.32

>  <excitation_energy_2>
5.534

>  <excitation_energy_3>
5.739

>  <excitation_energy_4>
6.052

>  <homo_energy>
-6.18

>  <homo_lumo_gap>
6.46

>  <logP>
1.285

>  <lumo_energy>
0.28

>  <melting_point>
14.14

>  <molecular_refractivity>
45.16

>  <oscillator_strength_1>
0.0112

>  <oscillator_strength_2>
0.0021

>  <oscillator_strength_3>
0.0033

>  <oscillator_strength_4>
0.0037

>  <open_babel_can_smiles>
COC(=O)[C@@H]1OCC(=C(C1)C)C

>  <mulliken_charges>
26
1   -0.518881
2   -0.522236
3   -0.21886
4   -0.335205
5   -0.077796
6   0.108388
7   0.083709
8   0.039007
9   0.615059
10   -0.47457
11   -0.455219
12   -0.479138
13   0.153523
14   0.153901
15   0.154854
16   0.155411
17   0.159566
18   0.15761
19   0.164656
20   0.171331
21   0.172533
22   0.156762
23   0.15919
24   0.165462
25   0.146168
26   0.164776

>  <lowdin_charges>
26
1   -0.442045
2   -0.440879
3   -0.278051
4   -0.284972
5   -0.136199
6   -0.036978
7   -0.045537
8   -0.024997
9   0.184042
10   -0.251657
11   -0.198223
12   -0.252708
13   0.156229
14   0.155243
15   0.155836
16   0.157172
17   0.158306
18   0.15637
19   0.160536
20   0.161358
21   0.159932
22   0.15513
23   0.160405
24   0.150809
25   0.152644
26   0.168232

$$$$

