PCCDB-ID:  22310
public computational chemistry database (PCCDB) project, http://pccdb.org

 30 30  0  0  1  0  0  0  0  0999 V2000
    2.5539   -2.0832   -0.6620 C   0  0  0  0  0  0  0  0  0  0  0  0
    4.9399   -0.6545    4.3182 C   0  0  0  0  0  0  0  0  0  0  0  0
    4.5239   -3.1142    3.9424 C   0  0  0  0  0  0  0  0  0  0  0  0
    1.6273    0.3308    1.6997 C   0  0  0  0  0  0  0  0  0  0  0  0
    2.6101   -0.8033   -0.2983 C   0  0  0  0  0  0  0  0  0  0  0  0
    5.2958   -0.3617    1.2254 C   0  0  0  0  0  0  0  0  0  0  0  0
    4.1221    0.6254    1.1379 C   0  0  0  0  0  0  0  0  0  0  0  0
    4.6904   -1.5920    1.9429 C   0  0  1  0  0  0  0  0  0  0  0  0
    5.1862   -1.8467    3.3854 C   0  0  0  0  0  0  0  0  0  0  0  0
    2.8897   -0.3067    1.1107 C   0  0  1  0  0  0  0  0  0  0  0  0
    6.5981   -2.0637    3.2187 O   0  0  0  0  0  0  0  0  0  0  0  0
    3.2670   -1.3902    1.9766 O   0  0  0  0  0  0  0  0  0  0  0  0
    2.3366   -2.3752   -1.6858 H   0  0  0  0  0  0  0  0  0  0  0  0
    2.7144   -2.8774    0.0612 H   0  0  0  0  0  0  0  0  0  0  0  0
    3.8711   -0.4354    4.3967 H   0  0  0  0  0  0  0  0  0  0  0  0
    5.4600    0.2402    3.9618 H   0  0  0  0  0  0  0  0  0  0  0  0
    5.3136   -0.8788    5.3257 H   0  0  0  0  0  0  0  0  0  0  0  0
    3.4364   -3.0027    3.9807 H   0  0  0  0  0  0  0  0  0  0  0  0
    4.8834   -3.3233    4.9588 H   0  0  0  0  0  0  0  0  0  0  0  0
    4.7651   -3.9756    3.3103 H   0  0  0  0  0  0  0  0  0  0  0  0
    1.2883    1.1671    1.0781 H   0  0  0  0  0  0  0  0  0  0  0  0
    1.8271    0.7053    2.7093 H   0  0  0  0  0  0  0  0  0  0  0  0
    0.8204   -0.4065    1.7516 H   0  0  0  0  0  0  0  0  0  0  0  0
    2.4332   -0.0187   -1.0359 H   0  0  0  0  0  0  0  0  0  0  0  0
    6.1611    0.0376    1.7590 H   0  0  0  0  0  0  0  0  0  0  0  0
    5.6319   -0.6476    0.2243 H   0  0  0  0  0  0  0  0  0  0  0  0
    4.1761    1.2825    0.2639 H   0  0  0  0  0  0  0  0  0  0  0  0
    4.0738    1.2589    2.0313 H   0  0  0  0  0  0  0  0  0  0  0  0
    4.9116   -2.5035    1.3722 H   0  0  0  0  0  0  0  0  0  0  0  0
    6.9583   -2.2944    4.0895 H   0  0  0  0  0  0  0  0  0  0  0  0
  1  5  2  0  0  0  0
  1 14  1  0  0  0  0
  2 15  1  0  0  0  0
  2 17  1  0  0  0  0
  3 18  1  0  0  0  0
  3 19  1  0  0  0  0
  4 23  1  0  0  0  0
  4 22  1  0  0  0  0
  6 25  1  0  0  0  0
  6  8  1  0  0  0  0
  7  6  1  0  0  0  0
  7 28  1  0  0  0  0
  8 29  1  6  0  0  0
  8 12  1  0  0  0  0
  8  9  1  0  0  0  0
  9  3  1  0  0  0  0
  9  2  1  0  0  0  0
 10  5  1  6  0  0  0
 10  7  1  0  0  0  0
 10  4  1  0  0  0  0
 10 12  1  0  0  0  0
 11  9  1  0  0  0  0
 11 30  1  0  0  0  0
 13  1  1  0  0  0  0
 16  2  1  0  0  0  0
 20  3  1  0  0  0  0
 21  4  1  0  0  0  0
 24  5  1  0  0  0  0
 26  6  1  0  0  0  0
 27  7  1  0  0  0  0
M  END
>  <HBA>
2

>  <HBD>
1

>  <TPSA>
29.46

>  <cid>
22310

>  <dipole>
1.1

>  <excitation_energy_1>
6.029

>  <excitation_energy_2>
6.265

>  <excitation_energy_3>
6.394

>  <excitation_energy_4>
6.504

>  <homo_energy>
-6.708

>  <homo_lumo_gap>
7.339

>  <logP>
1.881

>  <lumo_energy>
0.631

>  <melting_point>
4.47

>  <molecular_refractivity>
49.92

>  <oscillator_strength_1>
0.0022

>  <oscillator_strength_2>
0.0003

>  <oscillator_strength_3>
0.0283

>  <oscillator_strength_4>
0.0146

>  <open_babel_can_smiles>
C=C[C@]1(C)CC[C@H](O1)C(O)(C)C

>  <mulliken_charges>
30
1   -0.340603
2   -0.469805
3   -0.464962
4   -0.458198
5   -0.080119
6   -0.318341
7   -0.304092
8   0.176316
9   0.28798
10   0.31072
11   -0.6473
12   -0.543484
13   0.136542
14   0.155028
15   0.159668
16   0.150929
17   0.128364
18   0.167613
19   0.124604
20   0.149552
21   0.141106
22   0.148091
23   0.160857
24   0.121422
25   0.164526
26   0.149617
27   0.139463
28   0.141094
29   0.127201
30   0.386211

>  <lowdin_charges>
30
1   -0.337382
2   -0.459729
3   -0.456046
4   -0.443224
5   -0.168265
6   -0.294037
7   -0.28923
8   -0.000309
9   0.114272
10   0.126474
11   -0.464986
12   -0.274961
13   0.157229
14   0.166432
15   0.158229
16   0.153598
17   0.143743
18   0.162882
19   0.140559
20   0.15456
21   0.153342
22   0.151891
23   0.161338
24   0.151514
25   0.16201
26   0.153645
27   0.150819
28   0.146875
29   0.138566
30   0.34019

$$$$

