PCCDB-ID:  22751
public computational chemistry database (PCCDB) project, http://pccdb.org

 28 29  0  0  0  0  0  0  0  0999 V2000
    1.6483   -1.5644   -0.0517 C   0  0  0  0  0  0  0  0  0  0  0  0
    7.3194    0.1141   -0.0404 C   0  0  0  0  0  0  0  0  0  0  0  0
    4.1234   -2.0280   -0.0183 C   0  0  0  0  0  0  0  0  0  0  0  0
    5.4820   -1.6521   -0.0172 C   0  0  0  0  0  0  0  0  0  0  0  0
    1.2204    1.7475   -0.0486 C   0  0  0  0  0  0  0  0  0  0  0  0
    3.6440    2.5280   -0.0852 C   0  0  0  0  0  0  0  0  0  0  0  0
    3.0860   -1.1024   -0.0388 C   0  0  0  0  0  0  0  0  0  0  0  0
    5.8762   -0.3212   -0.0389 C   0  0  0  0  0  0  0  0  0  0  0  0
    2.7067    1.5189   -0.0684 C   0  0  0  0  0  0  0  0  0  0  0  0
    0.4626    1.4938   -1.3633 C   0  0  0  0  0  0  0  0  0  0  0  0
    3.4495    0.2695   -0.0533 C   0  0  0  0  0  0  0  0  0  0  0  0
    4.8278    0.6154   -0.0548 C   0  0  0  0  0  0  0  0  0  0  0  0
    4.9109    1.9942   -0.0806 N   0  0  0  0  0  0  0  0  0  0  0  0
   -0.7413    1.5070   -1.4328 O   0  0  0  0  0  0  0  0  0  0  0  0
    1.2250    1.2666   -2.4585 O   0  0  0  0  0  0  0  0  0  0  0  0
    1.5982   -2.6566   -0.0923 H   0  0  0  0  0  0  0  0  0  0  0  0
    1.1013   -1.1785   -0.9199 H   0  0  0  0  0  0  0  0  0  0  0  0
    1.1039   -1.2450    0.8457 H   0  0  0  0  0  0  0  0  0  0  0  0
    7.9901   -0.7498   -0.0503 H   0  0  0  0  0  0  0  0  0  0  0  0
    7.5668    0.7116    0.8484 H   0  0  0  0  0  0  0  0  0  0  0  0
    7.5601    0.7271   -0.9203 H   0  0  0  0  0  0  0  0  0  0  0  0
    3.8790   -3.0873   -0.0069 H   0  0  0  0  0  0  0  0  0  0  0  0
    6.2432   -2.4286   -0.0036 H   0  0  0  0  0  0  0  0  0  0  0  0
    1.0093    2.7901    0.2205 H   0  0  0  0  0  0  0  0  0  0  0  0
    0.7183    1.1410    0.7115 H   0  0  0  0  0  0  0  0  0  0  0  0
    3.4961    3.5998   -0.0817 H   0  0  0  0  0  0  0  0  0  0  0  0
    5.7670    2.5257   -0.0560 H   0  0  0  0  0  0  0  0  0  0  0  0
    2.1637    1.2940   -2.1903 H   0  0  0  0  0  0  0  0  0  0  0  0
  1  7  1  0  0  0  0
  1 18  1  0  0  0  0
  2  8  1  0  0  0  0
  2 20  1  0  0  0  0
  3  4  1  0  0  0  0
  3 22  1  0  0  0  0
  4 23  1  0  0  0  0
  5 24  1  0  0  0  0
  5 25  1  0  0  0  0
  6 26  1  0  0  0  0
  6 13  1  0  0  0  0
  6  9  2  0  0  0  0
  7  3  2  0  0  0  0
  8  4  2  0  0  0  0
  9 11  1  0  0  0  0
  9  5  1  0  0  0  0
 10  5  1  0  0  0  0
 11  7  1  0  0  0  0
 12 11  2  0  0  0  0
 12  8  1  0  0  0  0
 13 27  1  0  0  0  0
 13 12  1  0  0  0  0
 14 10  2  0  0  0  0
 15 28  1  0  0  0  0
 15 10  1  0  0  0  0
 16  1  1  0  0  0  0
 17  1  1  0  0  0  0
 19  2  1  0  0  0  0
 21  2  1  0  0  0  0
M  END
>  <HBA>
2

>  <HBD>
2

>  <TPSA>
53.09

>  <cid>
22751

>  <dipole>
6.41

>  <excitation_energy_1>
4.614

>  <excitation_energy_2>
4.681

>  <excitation_energy_3>
4.86

>  <excitation_energy_4>
5.181

>  <homo_energy>
-5.655

>  <homo_lumo_gap>
5.159

>  <logP>
2.412

>  <lumo_energy>
-0.495

>  <melting_point>
185.94

>  <molecular_refractivity>
59.78

>  <oscillator_strength_1>
0.1146

>  <oscillator_strength_2>
0.0006

>  <oscillator_strength_3>
0.0369

>  <oscillator_strength_4>
0.0107

>  <open_babel_can_smiles>
Cc1ccc(c2c1c(CC(=O)O)c[nH]2)C

>  <mulliken_charges>
28
1   -0.548017
2   -0.548672
3   -0.193355
4   -0.215469
5   -0.452266
6   0.015704
7   0.120888
8   0.194254
9   -0.031672
10   0.592479
11   0.039727
12   0.235581
13   -0.689008
14   -0.45084
15   -0.571853
16   0.158342
17   0.177757
18   0.162896
19   0.167725
20   0.156751
21   0.155403
22   0.118335
23   0.120012
24   0.184611
25   0.192948
26   0.157366
27   0.333189
28   0.417185

>  <lowdin_charges>
28
1   -0.444411
2   -0.445527
3   -0.181252
4   -0.171469
5   -0.310351
6   -0.132392
7   -0.002543
8   -0.028705
9   -0.093154
10   0.181586
11   -0.052031
12   0.024239
13   -0.194325
14   -0.24998
15   -0.35339
16   0.158048
17   0.167549
18   0.160091
19   0.165843
20   0.1557
21   0.155154
22   0.153218
23   0.156187
24   0.178558
25   0.182682
26   0.166711
27   0.295164
28   0.358801

$$$$

