PCCDB-ID:  28592
public computational chemistry database (PCCDB) project, http://pccdb.org

 32 33  0  0  0  0  0  0  0  0999 V2000
    1.0995    0.5154    0.0885 C   0  0  0  0  0  0  0  0  0  0  0  0
    3.4579    5.1192   -0.7388 C   0  0  0  0  0  0  0  0  0  0  0  0
    5.3412    4.2393   -1.9418 C   0  0  0  0  0  0  0  0  0  0  0  0
    6.6722   -0.4575    0.0117 C   0  0  0  0  0  0  0  0  0  0  0  0
    7.4801    0.6589    0.1119 C   0  0  0  0  0  0  0  0  0  0  0  0
    2.9730   -1.1941   -0.0589 C   0  0  0  0  0  0  0  0  0  0  0  0
    4.8714    3.4860    0.3250 C   0  0  0  0  0  0  0  0  0  0  0  0
    2.5290    0.0771    0.0547 C   0  0  0  0  0  0  0  0  0  0  0  0
    5.2754   -0.3296    0.0165 C   0  0  0  0  0  0  0  0  0  0  0  0
    5.5122    2.1192    0.2179 C   0  0  0  0  0  0  0  0  0  0  0  0
    6.9008    1.9391    0.2112 C   0  0  0  0  0  0  0  0  0  0  0  0
    4.3976   -1.5150   -0.0836 C   0  0  0  0  0  0  0  0  0  0  0  0
    4.7282    0.9575    0.1197 C   0  0  0  0  0  0  0  0  0  0  0  0
    4.3114    3.9585   -0.9493 N   0  0  0  0  0  0  0  0  0  0  0  0
    7.6802    3.0573    0.3063 O   0  0  0  0  0  0  0  0  0  0  0  0
    4.8341   -2.6626   -0.1782 O   0  0  0  0  0  0  0  0  0  0  0  0
    3.3697    1.1457    0.1489 O   0  0  0  0  0  0  0  0  0  0  0  0
    0.4308   -0.3454    0.0234 H   0  0  0  0  0  0  0  0  0  0  0  0
    0.8897    1.1948   -0.7460 H   0  0  0  0  0  0  0  0  0  0  0  0
    0.8869    1.0617    1.0151 H   0  0  0  0  0  0  0  0  0  0  0  0
    3.0069    5.4188   -1.6913 H   0  0  0  0  0  0  0  0  0  0  0  0
    3.9987    5.9965   -0.3296 H   0  0  0  0  0  0  0  0  0  0  0  0
    2.6493    4.8653   -0.0443 H   0  0  0  0  0  0  0  0  0  0  0  0
    4.8647    4.5303   -2.8843 H   0  0  0  0  0  0  0  0  0  0  0  0
    5.9371    3.3412   -2.1271 H   0  0  0  0  0  0  0  0  0  0  0  0
    6.0301    5.0515   -1.6373 H   0  0  0  0  0  0  0  0  0  0  0  0
    7.0869   -1.4571   -0.0690 H   0  0  0  0  0  0  0  0  0  0  0  0
    8.5640    0.5598    0.1110 H   0  0  0  0  0  0  0  0  0  0  0  0
    2.2636   -2.0106   -0.1317 H   0  0  0  0  0  0  0  0  0  0  0  0
    5.6039    4.1988    0.7407 H   0  0  0  0  0  0  0  0  0  0  0  0
    4.0395    3.4236    1.0346 H   0  0  0  0  0  0  0  0  0  0  0  0
    8.6128    2.7915    0.2934 H   0  0  0  0  0  0  0  0  0  0  0  0
  1 20  1  0  0  0  0
  2 22  1  0  0  0  0
  2 23  1  0  0  0  0
  3 26  1  0  0  0  0
  3 14  1  0  0  0  0
  4  9  2  0  0  0  0
  4  5  1  0  0  0  0
  5 11  2  0  0  0  0
  6  8  2  0  0  0  0
  7 30  1  0  0  0  0
  7 31  1  0  0  0  0
  8  1  1  0  0  0  0
  8 17  1  0  0  0  0
  9 13  1  0  0  0  0
 10  7  1  0  0  0  0
 11 10  1  0  0  0  0
 11 15  1  0  0  0  0
 12  6  1  0  0  0  0
 12  9  1  0  0  0  0
 13 17  1  0  0  0  0
 13 10  2  0  0  0  0
 14  2  1  0  0  0  0
 14  7  1  0  0  0  0
 16 12  2  0  0  0  0
 18  1  1  0  0  0  0
 19  1  1  0  0  0  0
 21  2  1  0  0  0  0
 24  3  1  0  0  0  0
 25  3  1  0  0  0  0
 27  4  1  0  0  0  0
 28  5  1  0  0  0  0
 29  6  1  0  0  0  0
 32 15  1  0  0  0  0
M  END
>  <HBA>
4

>  <HBD>
1

>  <TPSA>
53.68

>  <cid>
28592

>  <dipole>
3.71

>  <excitation_energy_1>
3.77

>  <excitation_energy_2>
3.841

>  <excitation_energy_3>
4.534

>  <excitation_energy_4>
4.584

>  <homo_energy>
-5.706

>  <homo_lumo_gap>
4.528

>  <logP>
1.869

>  <lumo_energy>
-1.178

>  <melting_point>
134.28

>  <molecular_refractivity>
66.95

>  <oscillator_strength_1>
0.0001

>  <oscillator_strength_2>
0.0002

>  <oscillator_strength_3>
0.077

>  <oscillator_strength_4>
0.0262

>  <open_babel_can_smiles>
CN(Cc1c(O)ccc2c1oc(C)cc2=O)C

>  <mulliken_charges>
32
1   -0.522345
2   -0.292479
3   -0.295995
4   -0.186688
5   -0.187531
6   -0.266453
7   -0.185985
8   0.379791
9   0.062987
10   0.055352
11   0.300261
12   0.425063
13   0.245468
14   -0.362049
15   -0.642545
16   -0.526162
17   -0.521369
18   0.174276
19   0.186273
20   0.17807
21   0.148092
22   0.116934
23   0.14621
24   0.144614
25   0.156403
26   0.119785
27   0.169153
28   0.12651
29   0.148224
30   0.142973
31   0.148963
32   0.414197

>  <lowdin_charges>
32
1   -0.442195
2   -0.357574
3   -0.360134
4   -0.113633
5   -0.212814
6   -0.247028
7   -0.197342
8   0.126833
9   -0.082607
10   -0.062725
11   0.107285
12   0.137112
13   0.117736
14   -0.181448
15   -0.367966
16   -0.291982
17   -0.108748
18   0.171396
19   0.177039
20   0.172629
21   0.14994
22   0.120115
23   0.148691
24   0.148198
25   0.15513
26   0.122796
27   0.181025
28   0.155335
29   0.178375
30   0.139827
31   0.156003
32   0.36073

$$$$

