PCCDB-ID:  62132
public computational chemistry database (PCCDB) project, http://pccdb.org

 25 26  0  0  0  0  0  0  0  0999 V2000
   -1.5797   -1.2231    0.8867 C   0  0  0  0  0  0  0  0  0  0  0  0
   -1.1721   -1.1882   -0.4479 C   0  0  0  0  0  0  0  0  0  0  0  0
   -0.7206   -0.7588    1.8842 C   0  0  0  0  0  0  0  0  0  0  0  0
    1.0520    4.8102   -0.7373 C   0  0  0  0  0  0  0  0  0  0  0  0
    0.0877   -0.6908   -0.7832 C   0  0  0  0  0  0  0  0  0  0  0  0
    0.5392   -0.2619    1.5484 C   0  0  0  0  0  0  0  0  0  0  0  0
    2.2334    4.0228   -0.8206 C   0  0  0  0  0  0  0  0  0  0  0  0
    0.0533    3.9468   -0.3839 C   0  0  0  0  0  0  0  0  0  0  0  0
    2.6737    1.5415   -0.4474 C   0  0  0  0  0  0  0  0  0  0  0  0
    3.4127   -0.7482   -0.1654 C   0  0  0  0  0  0  0  0  0  0  0  0
    0.9566   -0.2163    0.2102 C   0  0  0  0  0  0  0  0  0  0  0  0
    2.3246    0.2643   -0.1429 C   0  0  0  0  0  0  0  0  0  0  0  0
    1.8763    2.7265   -0.5118 C   0  0  0  0  0  0  0  0  0  0  0  0
    4.5822   -0.5168   -0.4246 O   0  0  0  0  0  0  0  0  0  0  0  0
    0.5291    2.6864   -0.2436 O   0  0  0  0  0  0  0  0  0  0  0  0
   -2.5603   -1.6119    1.1481 H   0  0  0  0  0  0  0  0  0  0  0  0
   -1.8345   -1.5498   -1.2301 H   0  0  0  0  0  0  0  0  0  0  0  0
   -1.0299   -0.7843    2.9259 H   0  0  0  0  0  0  0  0  0  0  0  0
    0.9524    5.8717   -0.9147 H   0  0  0  0  0  0  0  0  0  0  0  0
    0.4020   -0.6632   -1.8233 H   0  0  0  0  0  0  0  0  0  0  0  0
    1.2059    0.1001    2.3267 H   0  0  0  0  0  0  0  0  0  0  0  0
    3.2302    4.3571   -1.0733 H   0  0  0  0  0  0  0  0  0  0  0  0
   -1.0036    4.0707   -0.2013 H   0  0  0  0  0  0  0  0  0  0  0  0
    3.7265    1.6976   -0.6787 H   0  0  0  0  0  0  0  0  0  0  0  0
    3.0818   -1.7795    0.0792 H   0  0  0  0  0  0  0  0  0  0  0  0
  1 16  1  0  0  0  0
  1  3  2  0  0  0  0
  2  1  1  0  0  0  0
  3 18  1  0  0  0  0
  4  8  2  0  0  0  0
  5  2  2  0  0  0  0
  5 11  1  0  0  0  0
  6  3  1  0  0  0  0
  6 21  1  0  0  0  0
  7  4  1  0  0  0  0
  7 13  2  0  0  0  0
  8 15  1  0  0  0  0
  8 23  1  0  0  0  0
  9 12  2  0  0  0  0
 10 12  1  0  0  0  0
 10 25  1  0  0  0  0
 11  6  2  0  0  0  0
 12 11  1  0  0  0  0
 13  9  1  0  0  0  0
 13 15  1  0  0  0  0
 14 10  2  0  0  0  0
 17  2  1  0  0  0  0
 19  4  1  0  0  0  0
 20  5  1  0  0  0  0
 22  7  1  0  0  0  0
 24  9  1  0  0  0  0
M  END
>  <HBA>
2

>  <HBD>
0

>  <TPSA>
30.21

>  <cid>
62132

>  <dipole>
4.09

>  <excitation_energy_1>
3.272

>  <excitation_energy_2>
3.855

>  <excitation_energy_3>
3.948

>  <excitation_energy_4>
4.049

>  <homo_energy>
-5.992

>  <homo_lumo_gap>
3.984

>  <logP>
3.019

>  <lumo_energy>
-2.008

>  <melting_point>
90.6

>  <molecular_refractivity>
59.09

>  <oscillator_strength_1>
0.0003

>  <oscillator_strength_2>
0.542

>  <oscillator_strength_3>
0.0005

>  <oscillator_strength_4>
0.0447

>  <open_babel_can_smiles>
O=C/C(=C/c1ccco1)/c1ccccc1

>  <mulliken_charges>
25
1   -0.12523
2   -0.13263
3   -0.132766
4   -0.188227
5   -0.150608
6   -0.15051
7   -0.181531
8   0.106112
9   -0.187451
10   0.208027
11   0.061584
12   -0.043047
13   0.348986
14   -0.416182
15   -0.437476
16   0.129923
17   0.131241
18   0.131306
19   0.152295
20   0.133421
21   0.133454
22   0.157424
23   0.166904
24   0.17584
25   0.109143

>  <lowdin_charges>
25
1   -0.15536
2   -0.156197
3   -0.153447
4   -0.200423
5   -0.155375
6   -0.158021
7   -0.179811
8   -0.05278
9   -0.114384
10   0.037494
11   -0.00415
12   -0.069272
13   0.063974
14   -0.243808
15   -0.0829
16   0.157437
17   0.159706
18   0.157276
19   0.173043
20   0.15871
21   0.16118
22   0.175985
23   0.175233
24   0.184629
25   0.121263

$$$$

