PCCDB-ID:  69550
public computational chemistry database (PCCDB) project, http://pccdb.org

 27 28  0  0  0  0  0  0  0  0999 V2000
    0.7173    0.5726    0.1058 C   0  0  0  0  0  0  0  0  0  0  0  0
    3.7568   -3.2342   -0.1786 C   0  0  0  0  0  0  0  0  0  0  0  0
    6.7315    1.5722   -0.3887 C   0  0  0  0  0  0  0  0  0  0  0  0
    4.4387    2.6002   -0.1466 C   0  0  0  0  0  0  0  0  0  0  0  0
    7.4891    1.3048    0.9321 C   0  0  0  0  0  0  0  0  0  0  0  0
    4.4590    0.4122   -0.1711 C   0  0  0  0  0  0  0  0  0  0  0  0
    3.1718    0.9097   -0.0685 C   0  0  0  0  0  0  0  0  0  0  0  0
    4.7615   -0.9789   -0.1883 C   0  0  0  0  0  0  0  0  0  0  0  0
    2.2761   -1.3083   -0.0645 C   0  0  0  0  0  0  0  0  0  0  0  0
    3.1554    2.2676   -0.0501 N   0  0  0  0  0  0  0  0  0  0  0  0
    2.0879    0.0695   -0.0110 N   0  0  0  0  0  0  0  0  0  0  0  0
    3.6094   -1.7727   -0.1560 N   0  0  0  0  0  0  0  0  0  0  0  0
    5.2775    1.5353   -0.2289 N   0  0  0  0  0  0  0  0  0  0  0  0
    8.0488    2.2001    1.5187 O   0  0  0  0  0  0  0  0  0  0  0  0
    7.4816    0.0447    1.3687 O   0  0  0  0  0  0  0  0  0  0  0  0
    5.9037   -1.4731   -0.2262 O   0  0  0  0  0  0  0  0  0  0  0  0
    1.3385   -2.0877   -0.0280 O   0  0  0  0  0  0  0  0  0  0  0  0
    0.7605    1.6607    0.0830 H   0  0  0  0  0  0  0  0  0  0  0  0
    0.2725    0.2308    1.0437 H   0  0  0  0  0  0  0  0  0  0  0  0
    0.1143    0.1965   -0.7235 H   0  0  0  0  0  0  0  0  0  0  0  0
    4.8194   -3.4563   -0.2475 H   0  0  0  0  0  0  0  0  0  0  0  0
    3.2197   -3.6442   -1.0364 H   0  0  0  0  0  0  0  0  0  0  0  0
    3.3330   -3.6623    0.7324 H   0  0  0  0  0  0  0  0  0  0  0  0
    7.0117    0.8414   -1.1528 H   0  0  0  0  0  0  0  0  0  0  0  0
    7.0058    2.5719   -0.7257 H   0  0  0  0  0  0  0  0  0  0  0  0
    4.8107    3.6158   -0.1705 H   0  0  0  0  0  0  0  0  0  0  0  0
    6.9924   -0.5637    0.7520 H   0  0  0  0  0  0  0  0  0  0  0  0
  1 19  1  0  0  0  0
  2 12  1  0  0  0  0
  2 23  1  0  0  0  0
  3 13  1  0  0  0  0
  3  5  1  0  0  0  0
  4 10  2  0  0  0  0
  5 15  1  0  0  0  0
  5 14  2  0  0  0  0
  6  7  2  0  0  0  0
  7 10  1  0  0  0  0
  7 11  1  0  0  0  0
  8  6  1  0  0  0  0
  8 12  1  0  0  0  0
  9 17  2  0  0  0  0
  9 11  1  0  0  0  0
 11  1  1  0  0  0  0
 12  9  1  0  0  0  0
 13  6  1  0  0  0  0
 13  4  1  0  0  0  0
 16  8  2  0  0  0  0
 18  1  1  0  0  0  0
 20  1  1  0  0  0  0
 21  2  1  0  0  0  0
 22  2  1  0  0  0  0
 24  3  1  0  0  0  0
 25  3  1  0  0  0  0
 26  4  1  0  0  0  0
 27 15  1  0  0  0  0
M  END
>  <HBA>
8

>  <HBD>
1

>  <TPSA>
99.12

>  <cid>
69550

>  <dipole>
3.94

>  <excitation_energy_1>
4.465

>  <excitation_energy_2>
5.108

>  <excitation_energy_3>
5.143

>  <excitation_energy_4>
5.3

>  <homo_energy>
-6.528

>  <homo_lumo_gap>
4.961

>  <logP>
-1.482

>  <lumo_energy>
-1.567

>  <melting_point>
220.04

>  <molecular_refractivity>
58.62

>  <oscillator_strength_1>
0.1355

>  <oscillator_strength_2>
0.0049

>  <oscillator_strength_3>
0.0509

>  <oscillator_strength_4>
0.0153

>  <open_babel_can_smiles>
OC(=O)Cn1cnc2c1c(=O)n(C)c(=O)n2C

>  <mulliken_charges>
27
1   -0.325577
2   -0.319275
3   -0.275467
4   0.236224
5   0.595473
6   0.214267
7   0.493687
8   0.672863
9   0.790428
10   -0.507555
11   -0.590871
12   -0.57296
13   -0.493724
14   -0.438481
15   -0.584277
16   -0.592006
17   -0.513287
18   0.203825
19   0.188083
20   0.189006
21   0.204307
22   0.186303
23   0.187565
24   0.205506
25   0.198522
26   0.190073
27   0.45735

>  <lowdin_charges>
27
1   -0.340083
2   -0.346231
3   -0.22906
4   -0.04417
5   0.181613
6   -0.084856
7   0.073092
8   0.169126
9   0.195641
10   -0.195032
11   -0.049564
12   -0.076889
13   0.011601
14   -0.243898
15   -0.354293
16   -0.344572
17   -0.29564
18   0.181838
19   0.171893
20   0.174007
21   0.182988
22   0.172429
23   0.172395
24   0.182976
25   0.183382
26   0.184062
27   0.367244

$$$$

