PCCDB-ID:  57144
public computational chemistry database (PCCDB) project, http://pccdb.org

 39 41  0  0  1  0  0  0  0  0999 V2000
    0.8494   -0.1855   -0.1170 C   0  0  0  0  0  0  0  0  0  0  0  0
    2.7379    0.8538    1.1670 C   0  0  0  0  0  0  0  0  0  0  0  0
    4.6010   -3.8559   -1.0933 C   0  0  0  0  0  0  0  0  0  0  0  0
    5.3814    0.4597   -1.3026 C   0  0  0  0  0  0  0  0  0  0  0  0
    2.8479    0.7559   -1.3889 C   0  0  0  0  0  0  0  0  0  0  0  0
    3.1385   -1.3264   -0.0969 C   0  0  0  0  0  0  0  0  0  0  0  0
    7.6464    0.2515   -0.3486 C   0  0  0  0  0  0  0  0  0  0  0  0
    5.9795   -2.2991   -2.6198 C   0  0  0  0  0  0  0  0  0  0  0  0
    7.3135   -2.6913   -0.4575 C   0  0  0  0  0  0  0  0  0  0  0  0
    4.0835   -0.0132   -1.9050 C   0  0  2  0  0  0  0  0  0  0  0  0
    6.3973   -0.3488   -0.9578 C   0  0  0  0  0  0  0  0  0  0  0  0
    3.7727   -1.4747   -1.5014 C   0  0  1  0  0  0  0  0  0  0  0  0
    2.3720    0.0359   -0.0844 C   0  0  0  0  0  0  0  0  0  0  0  0
    4.9463   -2.4496   -1.5597 C   0  0  1  0  0  0  0  0  0  0  0  0
    6.3432   -1.8310   -1.2018 C   0  0  1  0  0  0  0  0  0  0  0  0
    7.7592    0.0007    1.0577 O   0  0  0  0  0  0  0  0  0  0  0  0
    7.6321   -3.8203   -0.7918 O   0  0  0  0  0  0  0  0  0  0  0  0
    0.5573   -0.8146   -0.9671 H   0  0  0  0  0  0  0  0  0  0  0  0
    0.4998   -0.6775    0.7991 H   0  0  0  0  0  0  0  0  0  0  0  0
    0.3128    0.7672   -0.2092 H   0  0  0  0  0  0  0  0  0  0  0  0
    2.2041    1.8124    1.1857 H   0  0  0  0  0  0  0  0  0  0  0  0
    3.8130    1.0680    1.1990 H   0  0  0  0  0  0  0  0  0  0  0  0
    2.4780    0.3094    2.0834 H   0  0  0  0  0  0  0  0  0  0  0  0
    3.7894   -4.2521   -1.7173 H   0  0  0  0  0  0  0  0  0  0  0  0
    4.2559   -3.8660   -0.0535 H   0  0  0  0  0  0  0  0  0  0  0  0
    5.4553   -4.5291   -1.1751 H   0  0  0  0  0  0  0  0  0  0  0  0
    5.4983    1.5361   -1.1708 H   0  0  0  0  0  0  0  0  0  0  0  0
    2.0579    0.7077   -2.1485 H   0  0  0  0  0  0  0  0  0  0  0  0
    3.0599    1.8191   -1.2223 H   0  0  0  0  0  0  0  0  0  0  0  0
    3.9336   -1.3207    0.6587 H   0  0  0  0  0  0  0  0  0  0  0  0
    2.4772   -2.1649    0.1465 H   0  0  0  0  0  0  0  0  0  0  0  0
    7.6658    1.3328   -0.5488 H   0  0  0  0  0  0  0  0  0  0  0  0
    8.5523   -0.1811   -0.7875 H   0  0  0  0  0  0  0  0  0  0  0  0
    5.8834   -1.5193   -3.3694 H   0  0  0  0  0  0  0  0  0  0  0  0
    6.4970   -3.1977   -2.9458 H   0  0  0  0  0  0  0  0  0  0  0  0
    7.7372   -2.2366    0.4567 H   0  0  0  0  0  0  0  0  0  0  0  0
    4.1489    0.0899   -2.9982 H   0  0  0  0  0  0  0  0  0  0  0  0
    3.0048   -1.8546   -2.1919 H   0  0  0  0  0  0  0  0  0  0  0  0
    6.9298    0.3034    1.4612 H   0  0  0  0  0  0  0  0  0  0  0  0
  1 13  1  0  0  0  0
  1 19  1  0  0  0  0
  2 21  1  0  0  0  0
  2 22  1  0  0  0  0
  2 23  1  0  0  0  0
  3 25  1  0  0  0  0
  4 27  1  0  0  0  0
  4 11  2  0  0  0  0
  5 29  1  0  0  0  0
  5 13  1  0  0  0  0
  6 13  1  0  0  0  0
  6 31  1  0  0  0  0
  6 30  1  0  0  0  0
  7 16  1  0  0  0  0
  8 14  1  0  0  0  0
  8 15  1  0  0  0  0
  9 36  1  0  0  0  0
 10 37  1  6  0  0  0
 10 12  1  0  0  0  0
 10  5  1  0  0  0  0
 10  4  1  0  0  0  0
 11  7  1  0  0  0  0
 12 38  1  6  0  0  0
 12  6  1  0  0  0  0
 13  2  1  0  0  0  0
 14 12  1  0  0  0  0
 14 15  1  0  0  0  0
 14  3  1  1  0  0  0
 15 11  1  0  0  0  0
 15  9  1  1  0  0  0
 16 39  1  0  0  0  0
 17  9  2  0  0  0  0
 18  1  1  0  0  0  0
 20  1  1  0  0  0  0
 24  3  1  0  0  0  0
 26  3  1  0  0  0  0
 28  5  1  0  0  0  0
 32  7  1  0  0  0  0
 33  7  1  0  0  0  0
 34  8  1  0  0  0  0
 35  8  1  0  0  0  0
M  END
>  <HBA>
2

>  <HBD>
1

>  <TPSA>
37.3

>  <cid>
57144

>  <dipole>
4.32

>  <excitation_energy_1>
4.106

>  <excitation_energy_2>
4.965

>  <excitation_energy_3>
5.362

>  <excitation_energy_4>
5.542

>  <homo_energy>
-6.406

>  <homo_lumo_gap>
5.85

>  <logP>
2.566

>  <lumo_energy>
-0.555

>  <melting_point>
154.81

>  <molecular_refractivity>
67.98

>  <oscillator_strength_1>
0.0004

>  <oscillator_strength_2>
0.026

>  <oscillator_strength_3>
0.007

>  <oscillator_strength_4>
0.128

>  <open_babel_can_smiles>
OCC1=C[C@@H]2CC(C[C@@H]2[C@@]2([C@@]1(C=O)C2)C)(C)C

>  <mulliken_charges>
39
1   -0.461694
2   -0.460625
3   -0.489715
4   -0.217871
5   -0.298165
6   -0.293895
7   -0.122581
8   -0.329087
9   0.205941
10   -0.149733
11   0.164518
12   -0.110395
13   0.143379
14   0.101778
15   -0.083629
16   -0.603248
17   -0.429956
18   0.138937
19   0.141364
20   0.140856
21   0.13991
22   0.132657
23   0.141913
24   0.144329
25   0.151408
26   0.188667
27   0.122486
28   0.135336
29   0.134609
30   0.137006
31   0.140031
32   0.136727
33   0.158071
34   0.15852
35   0.180993
36   0.151892
37   0.142962
38   0.129509
39   0.386796

>  <lowdin_charges>
39
1   -0.444614
2   -0.441976
3   -0.44521
4   -0.18562
5   -0.277888
6   -0.285709
7   -0.133098
8   -0.291163
9   0.038684
10   -0.132985
11   -0.035802
12   -0.122859
13   0.013311
14   0.020223
15   -0.06527
16   -0.467981
17   -0.246281
18   0.14622
19   0.147576
20   0.147166
21   0.14616
22   0.140875
23   0.147864
24   0.153933
25   0.151866
26   0.174883
27   0.148832
28   0.146669
29   0.143663
30   0.146404
31   0.149064
32   0.136903
33   0.153823
34   0.164586
35   0.176308
36   0.146633
37   0.148038
38   0.146861
39   0.339908

$$$$

