PCCDB-ID:  17738
public computational chemistry database (PCCDB) project, http://pccdb.org

 20 20  0  0  0  0  0  0  0  0999 V2000
    0.8738    0.1218   -0.0507 C   0  0  0  0  0  0  0  0  0  0  0  0
    2.3858   -2.4855    0.1157 C   0  0  0  0  0  0  0  0  0  0  0  0
    3.1085    1.2716    0.0276 C   0  0  0  0  0  0  0  0  0  0  0  0
    4.5030    1.2752    0.0991 C   0  0  0  0  0  0  0  0  0  0  0  0
    2.3845    0.0784    0.0293 C   0  0  0  0  0  0  0  0  0  0  0  0
    3.0887   -1.1444    0.1058 C   0  0  0  0  0  0  0  0  0  0  0  0
    5.2045    0.0772    0.1729 C   0  0  0  0  0  0  0  0  0  0  0  0
    4.4890   -1.1339    0.1742 C   0  0  0  0  0  0  0  0  0  0  0  0
    6.5693   -0.0018    0.2446 O   0  0  0  0  0  0  0  0  0  0  0  0
    5.2382   -2.2782    0.2465 O   0  0  0  0  0  0  0  0  0  0  0  0
    0.5246    1.1568   -0.1178 H   0  0  0  0  0  0  0  0  0  0  0  0
    0.3967   -0.3260    0.8308 H   0  0  0  0  0  0  0  0  0  0  0  0
    0.4880   -0.4101   -0.9299 H   0  0  0  0  0  0  0  0  0  0  0  0
    1.3004   -2.3769    0.1144 H   0  0  0  0  0  0  0  0  0  0  0  0
    2.6416   -3.0757    1.0082 H   0  0  0  0  0  0  0  0  0  0  0  0
    2.6446   -3.0926   -0.7647 H   0  0  0  0  0  0  0  0  0  0  0  0
    2.5779    2.2182   -0.0309 H   0  0  0  0  0  0  0  0  0  0  0  0
    5.0500    2.2167    0.0967 H   0  0  0  0  0  0  0  0  0  0  0  0
    6.9240    0.9006    0.2404 H   0  0  0  0  0  0  0  0  0  0  0  0
    4.6440   -3.0425    0.2261 H   0  0  0  0  0  0  0  0  0  0  0  0
  1  5  1  0  0  0  0
  1 12  1  0  0  0  0
  2 15  1  0  0  0  0
  3  5  2  0  0  0  0
  3  4  1  0  0  0  0
  4  7  2  0  0  0  0
  5  6  1  0  0  0  0
  6  2  1  0  0  0  0
  6  8  2  0  0  0  0
  7  8  1  0  0  0  0
  7  9  1  0  0  0  0
  8 10  1  0  0  0  0
 11  1  1  0  0  0  0
 13  1  1  0  0  0  0
 14  2  1  0  0  0  0
 16  2  1  0  0  0  0
 17  3  1  0  0  0  0
 18  4  1  0  0  0  0
 19  9  1  0  0  0  0
 20 10  1  0  0  0  0
M  END
>  <HBA>
2

>  <HBD>
2

>  <TPSA>
40.46

>  <cid>
17738

>  <dipole>
1.54

>  <excitation_energy_1>
4.714

>  <excitation_energy_2>
4.826

>  <excitation_energy_3>
4.939

>  <excitation_energy_4>
5.359

>  <homo_energy>
-5.344

>  <homo_lumo_gap>
5.627

>  <logP>
1.715

>  <lumo_energy>
0.283

>  <melting_point>
93.94

>  <molecular_refractivity>
40.42

>  <oscillator_strength_1>
0.0003

>  <oscillator_strength_2>
0.0493

>  <oscillator_strength_3>
0.0001

>  <oscillator_strength_4>
0.0

>  <open_babel_can_smiles>
Cc1ccc(c(c1C)O)O

>  <mulliken_charges>
20
1   -0.541272
2   -0.586851
3   -0.198466
4   -0.197367
5   0.12915
6   0.095626
7   0.322991
8   0.238801
9   -0.635844
10   -0.638612
11   0.154779
12   0.15659
13   0.156301
14   0.172262
15   0.160746
16   0.163225
17   0.116221
18   0.113738
19   0.404812
20   0.413169

>  <lowdin_charges>
20
1   -0.443422
2   -0.456014
3   -0.180972
4   -0.211462
5   -0.019714
6   -0.055068
7   0.076095
8   0.070382
9   -0.373538
10   -0.374995
11   0.156313
12   0.155822
13   0.155825
14   0.168365
15   0.155876
16   0.157078
17   0.15351
18   0.152424
19   0.355446
20   0.35805

$$$$

