PCCDB-ID:  68382
public computational chemistry database (PCCDB) project, http://pccdb.org

 16 17  0  0  0  0  0  0  0  0999 V2000
    1.9765    1.0488   -0.0024 C   0  0  0  0  0  0  0  0  0  0  0  0
    2.1882   -0.3332    0.0052 C   0  0  0  0  0  0  0  0  0  0  0  0
    0.6772    1.5728   -0.0092 C   0  0  0  0  0  0  0  0  0  0  0  0
    1.1134   -1.2306    0.0063 C   0  0  0  0  0  0  0  0  0  0  0  0
   -1.8887    0.8841   -0.0145 C   0  0  0  0  0  0  0  0  0  0  0  0
   -0.3988    0.6934   -0.0082 C   0  0  0  0  0  0  0  0  0  0  0  0
   -0.1582   -0.6816   -0.0013 C   0  0  0  0  0  0  0  0  0  0  0  0
   -2.4116   -0.5573   -0.0097 C   0  0  0  0  0  0  0  0  0  0  0  0
   -3.5412   -0.9551   -0.0120 O   0  0  0  0  0  0  0  0  0  0  0  0
   -1.3274   -1.4260   -0.0021 O   0  0  0  0  0  0  0  0  0  0  0  0
    2.8275    1.7234   -0.0036 H   0  0  0  0  0  0  0  0  0  0  0  0
    3.2026   -0.7216    0.0107 H   0  0  0  0  0  0  0  0  0  0  0  0
    0.5174    2.6477   -0.0144 H   0  0  0  0  0  0  0  0  0  0  0  0
    1.2593   -2.3053    0.0121 H   0  0  0  0  0  0  0  0  0  0  0  0
   -2.2762    1.4021   -0.9001 H   0  0  0  0  0  0  0  0  0  0  0  0
   -2.2827    1.4106    0.8630 H   0  0  0  0  0  0  0  0  0  0  0  0
  1  2  2  0  0  0  0
  2  4  1  0  0  0  0
  2 12  1  0  0  0  0
  3  6  2  0  0  0  0
  3  1  1  0  0  0  0
  4 14  1  0  0  0  0
  5  8  1  0  0  0  0
  5  6  1  0  0  0  0
  5 16  1  0  0  0  0
  6  7  1  0  0  0  0
  7  4  2  0  0  0  0
  8 10  1  0  0  0  0
  9  8  2  0  0  0  0
 10  7  1  0  0  0  0
 11  1  1  0  0  0  0
 13  3  1  0  0  0  0
 15  5  1  0  0  0  0
M  END
>  <HBA>
2

>  <HBD>
0

>  <TPSA>
26.3

>  <cid>
68382

>  <dipole>
3.82

>  <excitation_energy_1>
4.964

>  <excitation_energy_2>
5.425

>  <excitation_energy_3>
5.531

>  <excitation_energy_4>
5.97

>  <homo_energy>
-6.547

>  <homo_lumo_gap>
5.861

>  <logP>
1.148

>  <lumo_energy>
-0.686

>  <melting_point>
57.23

>  <molecular_refractivity>
35.99

>  <oscillator_strength_1>
0.0203

>  <oscillator_strength_2>
0.0514

>  <oscillator_strength_3>
0.0003

>  <oscillator_strength_4>
0.1142

>  <open_babel_can_smiles>
O=C1Cc2c(O1)cccc2

>  <mulliken_charges>
16
1   -0.132176
2   -0.13916
3   -0.203195
4   -0.184193
5   -0.457312
6   0.121727
7   0.337813
8   0.61405
9   -0.438585
10   -0.497812
11   0.13539
12   0.139918
13   0.138043
14   0.153811
15   0.205862
16   0.205819

>  <lowdin_charges>
16
1   -0.166634
2   -0.143223
3   -0.149446
4   -0.173565
5   -0.306358
6   -0.042108
7   0.0909
8   0.20964
9   -0.209685
10   -0.148073
11   0.162497
12   0.162875
13   0.160741
14   0.172424
15   0.189992
16   0.190024

$$$$

