PCCDB-ID:  70944
public computational chemistry database (PCCDB) project, http://pccdb.org

 13 13  0  0  0  0  0  0  0  0999 V2000
   -0.7640    1.2093   -0.0143 C   0  0  0  0  0  0  0  0  0  0  0  0
    0.6562   -1.0419    0.0430 C   0  0  0  0  0  0  0  0  0  0  0  0
   -1.3846   -0.0501    0.0060 C   0  0  0  0  0  0  0  0  0  0  0  0
    0.6306    1.2082   -0.0035 C   0  0  0  0  0  0  0  0  0  0  0  0
   -2.7474   -0.1914    0.0400 N   0  0  0  0  0  0  0  0  0  0  0  0
   -0.6675   -1.1920    0.0317 N   0  0  0  0  0  0  0  0  0  0  0  0
    1.3609    0.0900    0.0246 N   0  0  0  0  0  0  0  0  0  0  0  0
    1.3570    2.3503   -0.0222 O   0  0  0  0  0  0  0  0  0  0  0  0
   -1.3423    2.1297   -0.0273 H   0  0  0  0  0  0  0  0  0  0  0  0
    1.2373   -1.9626    0.0655 H   0  0  0  0  0  0  0  0  0  0  0  0
   -3.3239    0.5694   -0.2888 H   0  0  0  0  0  0  0  0  0  0  0  0
   -3.0869   -1.1232   -0.1572 H   0  0  0  0  0  0  0  0  0  0  0  0
    0.7521    3.1091   -0.0369 H   0  0  0  0  0  0  0  0  0  0  0  0
  1  4  1  0  0  0  0
  1  3  2  0  0  0  0
  2 10  1  0  0  0  0
  3  6  1  0  0  0  0
  3  5  1  0  0  0  0
  4  7  2  0  0  0  0
  6  2  2  0  0  0  0
  7  2  1  0  0  0  0
  8  4  1  0  0  0  0
  9  1  1  0  0  0  0
 11  5  1  0  0  0  0
 12  5  1  0  0  0  0
 13  8  1  0  0  0  0
M  END
>  <HBA>
3

>  <HBD>
2

>  <TPSA>
71.77

>  <cid>
70944

>  <dipole>
4.83

>  <excitation_energy_1>
5.099

>  <excitation_energy_2>
5.245

>  <excitation_energy_3>
5.481

>  <excitation_energy_4>
5.563

>  <homo_energy>
-6.476

>  <homo_lumo_gap>
6.202

>  <logP>
-0.067

>  <lumo_energy>
-0.275

>  <melting_point>
150.69

>  <molecular_refractivity>
29.26

>  <oscillator_strength_1>
0.0006

>  <oscillator_strength_2>
0.013

>  <oscillator_strength_3>
0.0024

>  <oscillator_strength_4>
0.0048

>  <open_babel_can_smiles>
Nc1ncnc(c1)O

>  <mulliken_charges>
13
1   -0.250232
2   0.176632
3   0.502387
4   0.512951
5   -0.773373
6   -0.482253
7   -0.445543
8   -0.595542
9   0.119428
10   0.151368
11   0.330658
12   0.343937
13   0.40958

>  <lowdin_charges>
13
1   -0.298852
2   -0.023044
3   0.129525
4   0.15665
5   -0.4614
6   -0.218712
7   -0.195793
8   -0.344239
9   0.157604
10   0.160302
11   0.285518
12   0.292739
13   0.359702

$$$$

