PCCDB-ID:  8438
public computational chemistry database (PCCDB) project, http://pccdb.org

 17 18  0  0  0  0  0  0  0  0999 V2000
    1.9190    1.0045    0.0428 C   0  0  0  0  0  0  0  0  0  0  0  0
    0.6061    1.4992    0.0509 C   0  0  0  0  0  0  0  0  0  0  0  0
    1.1324   -1.3162   -0.0501 C   0  0  0  0  0  0  0  0  0  0  0  0
    3.5824   -0.8382   -0.0134 C   0  0  0  0  0  0  0  0  0  0  0  0
   -2.3718   -0.5218   -0.0284 C   0  0  0  0  0  0  0  0  0  0  0  0
    2.1842   -0.3693   -0.0063 C   0  0  0  0  0  0  0  0  0  0  0  0
   -0.4061    0.5581    0.0087 C   0  0  0  0  0  0  0  0  0  0  0  0
   -0.1468   -0.8166   -0.0408 C   0  0  0  0  0  0  0  0  0  0  0  0
    3.9247   -2.0060   -0.0552 O   0  0  0  0  0  0  0  0  0  0  0  0
   -1.7537    0.7753    0.0047 O   0  0  0  0  0  0  0  0  0  0  0  0
   -1.3348   -1.5045   -0.0792 O   0  0  0  0  0  0  0  0  0  0  0  0
    2.7516    1.7028    0.0753 H   0  0  0  0  0  0  0  0  0  0  0  0
    0.3881    2.5606    0.0891 H   0  0  0  0  0  0  0  0  0  0  0  0
    1.3544   -2.3765   -0.0879 H   0  0  0  0  0  0  0  0  0  0  0  0
    4.3413   -0.0247    0.0234 H   0  0  0  0  0  0  0  0  0  0  0  0
   -2.9980   -0.5995   -0.9240 H   0  0  0  0  0  0  0  0  0  0  0  0
   -2.9681   -0.6600    0.8811 H   0  0  0  0  0  0  0  0  0  0  0  0
  1  2  1  0  0  0  0
  1 12  1  0  0  0  0
  2 13  1  0  0  0  0
  3  8  2  0  0  0  0
  3  6  1  0  0  0  0
  4  6  1  0  0  0  0
  4 15  1  0  0  0  0
  5 10  1  0  0  0  0
  5 17  1  0  0  0  0
  6  1  2  0  0  0  0
  7  2  2  0  0  0  0
  8  7  1  0  0  0  0
  9  4  2  0  0  0  0
 10  7  1  0  0  0  0
 11  8  1  0  0  0  0
 11  5  1  0  0  0  0
 14  3  1  0  0  0  0
 16  5  1  0  0  0  0
M  END
>  <HBA>
3

>  <HBD>
0

>  <TPSA>
35.53

>  <cid>
8438

>  <dipole>
3.93

>  <excitation_energy_1>
3.779

>  <excitation_energy_2>
4.12

>  <excitation_energy_3>
4.777

>  <excitation_energy_4>
5.404

>  <homo_energy>
-6.087

>  <homo_lumo_gap>
4.558

>  <logP>
1.228

>  <lumo_energy>
-1.529

>  <melting_point>
72.55

>  <molecular_refractivity>
37.89

>  <oscillator_strength_1>
0.0001

>  <oscillator_strength_2>
0.1624

>  <oscillator_strength_3>
0.0736

>  <oscillator_strength_4>
0.2478

>  <open_babel_can_smiles>
O=Cc1ccc2c(c1)OCO2

>  <mulliken_charges>
17
1   -0.196075
2   -0.183078
3   -0.216498
4   0.189398
5   0.190808
6   0.086135
7   0.346711
8   0.338322
9   -0.414861
10   -0.522944
11   -0.528235
12   0.144018
13   0.154216
14   0.176416
15   0.099532
16   0.168761
17   0.167372

>  <lowdin_charges>
17
1   -0.145743
2   -0.183319
3   -0.154294
4   0.040365
5   0.019346
6   -0.059422
7   0.090764
8   0.072469
9   -0.236801
10   -0.194793
11   -0.199381
12   0.166334
13   0.173286
14   0.186416
15   0.11815
16   0.154165
17   0.152459

$$$$

