PCCDB-ID:  71014
public computational chemistry database (PCCDB) project, http://pccdb.org

 24 26  0  0  0  0  0  0  0  0999 V2000
    3.5437    0.8618    0.2971 C   0  0  0  0  0  0  0  0  0  0  0  0
   -3.5430    0.8640    0.2969 C   0  0  0  0  0  0  0  0  0  0  0  0
    3.6419   -0.5176    0.4995 C   0  0  0  0  0  0  0  0  0  0  0  0
   -3.6421   -0.5153    0.4993 C   0  0  0  0  0  0  0  0  0  0  0  0
    2.3449    1.4363   -0.1184 C   0  0  0  0  0  0  0  0  0  0  0  0
   -2.3438    1.4378   -0.1185 C   0  0  0  0  0  0  0  0  0  0  0  0
    2.5331   -1.3256    0.2506 C   0  0  0  0  0  0  0  0  0  0  0  0
   -2.5338   -1.3240    0.2504 C   0  0  0  0  0  0  0  0  0  0  0  0
    1.2221    0.6322   -0.3637 C   0  0  0  0  0  0  0  0  0  0  0  0
   -1.2215    0.6329   -0.3637 C   0  0  0  0  0  0  0  0  0  0  0  0
    1.3421   -0.7559   -0.1938 C   0  0  0  0  0  0  0  0  0  0  0  0
   -1.3424   -0.7550   -0.1940 C   0  0  0  0  0  0  0  0  0  0  0  0
    0.0005    1.2027   -0.7477 N   0  0  0  0  0  0  0  0  0  0  0  0
   -0.0009   -3.0970    0.1595 O   0  0  0  0  0  0  0  0  0  0  0  0
   -0.0005   -1.8619   -0.7126 S   0  0  0  0  0  0  0  0  0  0  0  0
    4.4027    1.5016    0.4795 H   0  0  0  0  0  0  0  0  0  0  0  0
   -4.4016    1.5043    0.4793 H   0  0  0  0  0  0  0  0  0  0  0  0
    4.5738   -0.9588    0.8393 H   0  0  0  0  0  0  0  0  0  0  0  0
   -4.5743   -0.9560    0.8391 H   0  0  0  0  0  0  0  0  0  0  0  0
    2.2664    2.5152   -0.2359 H   0  0  0  0  0  0  0  0  0  0  0  0
   -2.2647    2.5166   -0.2361 H   0  0  0  0  0  0  0  0  0  0  0  0
    2.5734   -2.4016    0.3951 H   0  0  0  0  0  0  0  0  0  0  0  0
   -2.5748   -2.4000    0.3949 H   0  0  0  0  0  0  0  0  0  0  0  0
    0.0008    2.2142   -0.7828 H   0  0  0  0  0  0  0  0  0  0  0  0
  1 16  1  0  0  0  0
  1  3  1  0  0  0  0
  2 17  1  0  0  0  0
  2  4  1  0  0  0  0
  3 18  1  0  0  0  0
  4 19  1  0  0  0  0
  5  1  2  0  0  0  0
  6  2  2  0  0  0  0
  7 22  1  0  0  0  0
  7  3  2  0  0  0  0
  8 23  1  0  0  0  0
  8  4  2  0  0  0  0
  9 11  2  0  0  0  0
  9  5  1  0  0  0  0
 10 12  2  0  0  0  0
 10  6  1  0  0  0  0
 11  7  1  0  0  0  0
 12  8  1  0  0  0  0
 13 10  1  0  0  0  0
 13  9  1  0  0  0  0
 15 12  1  0  0  0  0
 15 11  1  0  0  0  0
 15 14  2  0  0  0  0
 20  5  1  0  0  0  0
 21  6  1  0  0  0  0
 24 13  1  0  0  0  0
M  END
>  <HBA>
1

>  <HBD>
1

>  <TPSA>
48.31

>  <cid>
71014

>  <dipole>
4.88

>  <excitation_energy_1>
4.031

>  <excitation_energy_2>
4.04

>  <excitation_energy_3>
4.52

>  <excitation_energy_4>
4.589

>  <homo_energy>
-5.6

>  <homo_lumo_gap>
4.871

>  <logP>
3.914

>  <lumo_energy>
-0.729

>  <melting_point>
130.35

>  <molecular_refractivity>
63.73

>  <oscillator_strength_1>
0.0204

>  <oscillator_strength_2>
0.0451

>  <oscillator_strength_3>
0.0299

>  <oscillator_strength_4>
0.0008

>  <open_babel_can_smiles>
O=S1c2ccccc2Nc2c1cccc2

>  <mulliken_charges>
24
1   -0.133724
2   -0.13372
3   -0.122719
4   -0.122706
5   -0.175005
6   -0.17502
7   -0.172798
8   -0.172816
9   0.336748
10   0.336753
11   -0.198101
12   -0.198087
13   -0.750596
14   -0.619222
15   0.823203
16   0.137794
17   0.137792
18   0.13723
19   0.137228
20   0.127366
21   0.127364
22   0.172691
23   0.17269
24   0.327656

>  <lowdin_charges>
24
1   -0.141438
2   -0.141441
3   -0.168635
4   -0.16863
5   -0.186964
6   -0.186967
7   -0.135325
8   -0.135325
9   0.05796
10   0.057963
11   -0.201718
12   -0.201718
13   -0.244167
14   -0.660207
15   0.852776
16   0.163328
17   0.16333
18   0.163466
19   0.163463
20   0.15528
21   0.155282
22   0.178622
23   0.178623
24   0.282442

$$$$

