PCCDB-ID:  17857
public computational chemistry database (PCCDB) project, http://pccdb.org

 34 34  0  0  1  0  0  0  0  0999 V2000
    0.8351   -0.1406   -0.4734 C   0  0  0  0  0  0  0  0  0  0  0  0
    2.2151    0.1936    1.5472 C   0  0  0  0  0  0  0  0  0  0  0  0
    5.0762   -2.4628   -1.2982 C   0  0  0  0  0  0  0  0  0  0  0  0
    2.9119    1.2429   -0.6909 C   0  0  0  0  0  0  0  0  0  0  0  0
    5.0936    0.0380   -1.1405 C   0  0  0  0  0  0  0  0  0  0  0  0
    3.0593   -1.2805   -0.4100 C   0  0  0  0  0  0  0  0  0  0  0  0
    5.2054   -1.4558    0.9887 C   0  0  0  0  0  0  0  0  0  0  0  0
    4.4484    1.3633   -0.6683 C   0  0  2  0  0  0  0  0  0  0  0  0
    2.2939    0.0073    0.0147 C   0  0  0  0  0  0  0  0  0  0  0  0
    4.6141   -1.2607   -0.4450 C   0  0  1  0  0  0  0  0  0  0  0  0
    6.6593   -1.4319    1.1573 N   0  0  0  0  0  0  0  0  0  0  0  0
    4.9405    1.9357    0.5975 N   0  0  0  0  0  0  0  0  0  0  0  0
    0.2430    0.7461   -0.2152 H   0  0  0  0  0  0  0  0  0  0  0  0
    0.3510   -1.0105   -0.0118 H   0  0  0  0  0  0  0  0  0  0  0  0
    0.7887   -0.2693   -1.5614 H   0  0  0  0  0  0  0  0  0  0  0  0
    1.5908    1.0621    1.7891 H   0  0  0  0  0  0  0  0  0  0  0  0
    3.1796    0.3547    2.0318 H   0  0  0  0  0  0  0  0  0  0  0  0
    1.7593   -0.6861    2.0184 H   0  0  0  0  0  0  0  0  0  0  0  0
    4.6643   -2.4102   -2.3125 H   0  0  0  0  0  0  0  0  0  0  0  0
    4.7495   -3.4117   -0.8535 H   0  0  0  0  0  0  0  0  0  0  0  0
    6.1685   -2.4956   -1.3938 H   0  0  0  0  0  0  0  0  0  0  0  0
    2.6167    1.1978   -1.7491 H   0  0  0  0  0  0  0  0  0  0  0  0
    2.4786    2.1641   -0.2829 H   0  0  0  0  0  0  0  0  0  0  0  0
    6.1886    0.1173   -1.0753 H   0  0  0  0  0  0  0  0  0  0  0  0
    4.8724   -0.0634   -2.2137 H   0  0  0  0  0  0  0  0  0  0  0  0
    2.7284   -1.5184   -1.4314 H   0  0  0  0  0  0  0  0  0  0  0  0
    2.7208   -2.1231    0.2115 H   0  0  0  0  0  0  0  0  0  0  0  0
    4.8512   -2.4263    1.3622 H   0  0  0  0  0  0  0  0  0  0  0  0
    4.8001   -0.7140    1.6793 H   0  0  0  0  0  0  0  0  0  0  0  0
    4.7066    2.1188   -1.4231 H   0  0  0  0  0  0  0  0  0  0  0  0
    7.0356   -0.5289    0.8750 H   0  0  0  0  0  0  0  0  0  0  0  0
    7.1047   -2.1293    0.5646 H   0  0  0  0  0  0  0  0  0  0  0  0
    5.9421    2.1107    0.5238 H   0  0  0  0  0  0  0  0  0  0  0  0
    4.8231    1.2892    1.3720 H   0  0  0  0  0  0  0  0  0  0  0  0
  1 13  1  0  0  0  0
  1 14  1  0  0  0  0
  1  9  1  0  0  0  0
  2 16  1  0  0  0  0
  2 18  1  0  0  0  0
  2 17  1  0  0  0  0
  3 20  1  0  0  0  0
  4  8  1  0  0  0  0
  4 23  1  0  0  0  0
  4  9  1  0  0  0  0
  5 24  1  0  0  0  0
  5  8  1  0  0  0  0
  5 10  1  0  0  0  0
  6  9  1  0  0  0  0
  6 27  1  0  0  0  0
  7 11  1  0  0  0  0
  7 28  1  0  0  0  0
  7 29  1  0  0  0  0
  8 30  1  6  0  0  0
  8 12  1  0  0  0  0
  9  2  1  0  0  0  0
 10  3  1  6  0  0  0
 10  6  1  0  0  0  0
 10  7  1  0  0  0  0
 12 34  1  0  0  0  0
 15  1  1  0  0  0  0
 19  3  1  0  0  0  0
 21  3  1  0  0  0  0
 22  4  1  0  0  0  0
 25  5  1  0  0  0  0
 26  6  1  0  0  0  0
 31 11  1  0  0  0  0
 32 11  1  0  0  0  0
 33 12  1  0  0  0  0
M  END
>  <HBA>
2

>  <HBD>
2

>  <TPSA>
52.04

>  <cid>
17857

>  <dipole>
1.76

>  <excitation_energy_1>
5.353

>  <excitation_energy_2>
5.524

>  <excitation_energy_3>
6.043

>  <excitation_energy_4>
6.101

>  <homo_energy>
-6.128

>  <homo_lumo_gap>
7.519

>  <logP>
2.889

>  <lumo_energy>
1.391

>  <melting_point>
139.23

>  <molecular_refractivity>
52.96

>  <oscillator_strength_1>
0.0242

>  <oscillator_strength_2>
0.0161

>  <oscillator_strength_3>
0.0157

>  <oscillator_strength_4>
0.0001

>  <open_babel_can_smiles>
NC[C@]1(C)C[C@H](N)CC(C1)(C)C

>  <mulliken_charges>
34
1   -0.446
2   -0.44734
3   -0.458713
4   -0.258491
5   -0.277015
6   -0.273167
7   -0.152369
8   0.010839
9   0.090867
10   0.091442
11   -0.717097
12   -0.724237
13   0.139913
14   0.137663
15   0.136609
16   0.143912
17   0.138897
18   0.137272
19   0.142393
20   0.139928
21   0.128703
22   0.121829
23   0.142577
24   0.105062
25   0.12451
26   0.122182
27   0.122609
28   0.136856
29   0.129664
30   0.127611
31   0.290892
32   0.299099
33   0.289459
34   0.303641

>  <lowdin_charges>
34
1   -0.440043
2   -0.446647
3   -0.44299
4   -0.280735
5   -0.294146
6   -0.277849
7   -0.216913
8   -0.070654
9   0.009066
10   -0.012395
11   -0.555403
12   -0.556873
13   0.147991
14   0.146984
15   0.142365
16   0.15126
17   0.143405
18   0.147419
19   0.14744
20   0.146823
21   0.138863
22   0.140099
23   0.152271
24   0.128765
25   0.141248
26   0.140805
27   0.141459
28   0.142927
29   0.14061
30   0.142952
31   0.248421
32   0.255099
33   0.248673
34   0.249705

$$$$

