PCCDB-ID:  19089
public computational chemistry database (PCCDB) project, http://pccdb.org

 22 22  0  0  0  0  0  0  0  0999 V2000
    1.1141    0.2809   -0.0479 C   0  0  0  0  0  0  0  0  0  0  0  0
    5.6707   -4.1472    3.7261 C   0  0  0  0  0  0  0  0  0  0  0  0
    5.4213   -4.4530    2.3870 C   0  0  0  0  0  0  0  0  0  0  0  0
    5.5172   -2.8334    4.1723 C   0  0  0  0  0  0  0  0  0  0  0  0
    5.0198   -3.4506    1.5031 C   0  0  0  0  0  0  0  0  0  0  0  0
    5.1153   -1.8350    3.2841 C   0  0  0  0  0  0  0  0  0  0  0  0
    4.3862   -1.0502    0.9861 C   0  0  0  0  0  0  0  0  0  0  0  0
    2.8602   -0.9296    0.9628 C   0  0  0  0  0  0  0  0  0  0  0  0
    4.8602   -2.1276    1.9373 C   0  0  0  0  0  0  0  0  0  0  0  0
    2.5081    0.0851    0.0420 O   0  0  0  0  0  0  0  0  0  0  0  0
    0.9451    1.0738   -0.7815 H   0  0  0  0  0  0  0  0  0  0  0  0
    0.6808    0.5897    0.9176 H   0  0  0  0  0  0  0  0  0  0  0  0
    0.5931   -0.6314   -0.3822 H   0  0  0  0  0  0  0  0  0  0  0  0
    5.9878   -4.9255    4.4151 H   0  0  0  0  0  0  0  0  0  0  0  0
    5.5444   -5.4718    2.0283 H   0  0  0  0  0  0  0  0  0  0  0  0
    5.7155   -2.5839    5.2115 H   0  0  0  0  0  0  0  0  0  0  0  0
    4.8325   -3.6949    0.4594 H   0  0  0  0  0  0  0  0  0  0  0  0
    5.0034   -0.8120    3.6375 H   0  0  0  0  0  0  0  0  0  0  0  0
    4.8026   -0.0764    1.2694 H   0  0  0  0  0  0  0  0  0  0  0  0
    4.7280   -1.2594   -0.0343 H   0  0  0  0  0  0  0  0  0  0  0  0
    2.4820   -0.6868    1.9711 H   0  0  0  0  0  0  0  0  0  0  0  0
    2.4071   -1.8931    0.6714 H   0  0  0  0  0  0  0  0  0  0  0  0
  1 10  1  0  0  0  0
  1 12  1  0  0  0  0
  2  4  1  0  0  0  0
  2 14  1  0  0  0  0
  3  2  2  0  0  0  0
  4 16  1  0  0  0  0
  5  9  2  0  0  0  0
  5  3  1  0  0  0  0
  6 18  1  0  0  0  0
  6  4  2  0  0  0  0
  7 19  1  0  0  0  0
  7  9  1  0  0  0  0
  8  7  1  0  0  0  0
  8 21  1  0  0  0  0
  9  6  1  0  0  0  0
 10  8  1  0  0  0  0
 11  1  1  0  0  0  0
 13  1  1  0  0  0  0
 15  3  1  0  0  0  0
 17  5  1  0  0  0  0
 20  7  1  0  0  0  0
 22  8  1  0  0  0  0
M  END
>  <HBA>
1

>  <HBD>
0

>  <TPSA>
9.23

>  <cid>
19089

>  <dipole>
1.1

>  <excitation_energy_1>
5.314

>  <excitation_energy_2>
5.915

>  <excitation_energy_3>
6.085

>  <excitation_energy_4>
6.175

>  <homo_energy>
-6.525

>  <homo_lumo_gap>
6.577

>  <logP>
1.875

>  <lumo_energy>
0.052

>  <melting_point>
-3.13

>  <molecular_refractivity>
42.11

>  <oscillator_strength_1>
0.0004

>  <oscillator_strength_2>
0.0259

>  <oscillator_strength_3>
0.0024

>  <oscillator_strength_4>
0.0026

>  <open_babel_can_smiles>
COCCc1ccccc1

>  <mulliken_charges>
22
1   -0.191464
2   -0.13108
3   -0.127574
4   -0.12753
5   -0.180157
6   -0.18009
7   -0.362768
8   -0.00024
9   0.159402
10   -0.461007
11   0.157571
12   0.129175
13   0.129131
14   0.127977
15   0.128503
16   0.128503
17   0.124639
18   0.124451
19   0.155027
20   0.155357
21   0.120936
22   0.121239

>  <lowdin_charges>
22
1   -0.279631
2   -0.16206
3   -0.154384
4   -0.153753
5   -0.165514
6   -0.166218
7   -0.276555
8   -0.126823
9   -0.001904
10   -0.272888
11   0.155395
12   0.131071
13   0.131623
14   0.158192
15   0.156176
16   0.155771
17   0.153581
18   0.1539
19   0.15624
20   0.155826
21   0.125626
22   0.126331

$$$$

