PCCDB-ID:  43768
public computational chemistry database (PCCDB) project, http://pccdb.org

 28 27  0  0  0  0  0  0  0  0999 V2000
    3.4676   -0.4869   -0.0091 C   0  0  0  0  0  0  0  0  0  0  0  0
    4.6220    3.8262   -4.0640 C   0  0  0  0  0  0  0  0  0  0  0  0
    3.2352    0.8712   -0.6822 C   0  0  0  0  0  0  0  0  0  0  0  0
    3.2547    2.0736    0.2743 C   0  0  0  0  0  0  0  0  0  0  0  0
    6.0966    3.8132   -1.9445 C   0  0  0  0  0  0  0  0  0  0  0  0
    4.5767    2.2808    1.0278 C   0  0  0  0  0  0  0  0  0  0  0  0
    6.1022    3.7884   -0.4101 C   0  0  0  0  0  0  0  0  0  0  0  0
    4.7378    4.0946   -2.5754 C   0  0  0  0  0  0  0  0  0  0  0  0
    6.6402    1.4893    0.1646 N   0  0  0  0  0  0  0  0  0  0  0  0
    5.7492    2.4890    0.1721 N   0  0  0  0  0  0  0  0  0  0  0  0
    3.8014    4.5308   -1.9294 O   0  0  0  0  0  0  0  0  0  0  0  0
    7.6771    1.7233   -0.4579 O   0  0  0  0  0  0  0  0  0  0  0  0
    3.3494   -1.3044   -0.7293 H   0  0  0  0  0  0  0  0  0  0  0  0
    2.7498   -0.6551    0.8040 H   0  0  0  0  0  0  0  0  0  0  0  0
    4.4773   -0.5628    0.4084 H   0  0  0  0  0  0  0  0  0  0  0  0
    5.4681    4.2580   -4.6118 H   0  0  0  0  0  0  0  0  0  0  0  0
    3.6827    4.2312   -4.4455 H   0  0  0  0  0  0  0  0  0  0  0  0
    4.6474    2.7434   -4.2437 H   0  0  0  0  0  0  0  0  0  0  0  0
    2.2649    0.8634   -1.1954 H   0  0  0  0  0  0  0  0  0  0  0  0
    3.9906    1.0183   -1.4662 H   0  0  0  0  0  0  0  0  0  0  0  0
    2.4726    1.9480    1.0370 H   0  0  0  0  0  0  0  0  0  0  0  0
    3.0101    2.9859   -0.2794 H   0  0  0  0  0  0  0  0  0  0  0  0
    6.5263    2.8912   -2.3473 H   0  0  0  0  0  0  0  0  0  0  0  0
    6.7681    4.6156   -2.2871 H   0  0  0  0  0  0  0  0  0  0  0  0
    4.8164    1.4090    1.6418 H   0  0  0  0  0  0  0  0  0  0  0  0
    4.4904    3.1436    1.6999 H   0  0  0  0  0  0  0  0  0  0  0  0
    5.3913    4.5225   -0.0266 H   0  0  0  0  0  0  0  0  0  0  0  0
    7.1090    4.0308   -0.0545 H   0  0  0  0  0  0  0  0  0  0  0  0
  1 15  1  0  0  0  0
  1 14  1  0  0  0  0
  2  8  1  0  0  0  0
  3  1  1  0  0  0  0
  3  4  1  0  0  0  0
  4  6  1  0  0  0  0
  4 21  1  0  0  0  0
  5  7  1  0  0  0  0
  6 25  1  0  0  0  0
  6 26  1  0  0  0  0
  7 28  1  0  0  0  0
  7 27  1  0  0  0  0
  7 10  1  0  0  0  0
  8  5  1  0  0  0  0
  8 11  2  0  0  0  0
  9 10  1  0  0  0  0
 10  6  1  0  0  0  0
 12  9  1  0  0  0  0
 13  1  1  0  0  0  0
 16  2  1  0  0  0  0
 17  2  1  0  0  0  0
 18  2  1  0  0  0  0
 19  3  1  0  0  0  0
 20  3  1  0  0  0  0
 22  4  1  0  0  0  0
 23  5  1  0  0  0  0
 24  5  1  0  0  0  0
M  RAD  2   9   2  12   2
M  END
>  <HBA>
4

>  <HBD>
0

>  <TPSA>
49.74

>  <cid>
43768

>  <dipole>
2.15

>  <excitation_energy_1>
3.353

>  <excitation_energy_2>
4.448

>  <excitation_energy_3>
4.713

>  <excitation_energy_4>
5.385

>  <homo_energy>
-6.041

>  <homo_lumo_gap>
5.195

>  <logP>
1.749

>  <lumo_energy>
-0.846

>  <melting_point>
15.19

>  <molecular_refractivity>
48.4

>  <oscillator_strength_1>
0.0011

>  <oscillator_strength_2>
0.0002

>  <oscillator_strength_3>
0.0022

>  <oscillator_strength_4>
0.0199

>  <open_babel_can_smiles>
CCCCN(CCC(=O)C)[N][O]

>  <mulliken_charges>
28
1   -0.453529
2   -0.53135
3   -0.249824
4   -0.28032
5   -0.363136
6   -0.145719
7   -0.143236
8   0.460591
9   0.149841
10   -0.219553
11   -0.441933
12   -0.392463
13   0.144005
14   0.137771
15   0.16378
16   0.169427
17   0.182504
18   0.18112
19   0.137399
20   0.130703
21   0.133852
22   0.178542
23   0.194804
24   0.173037
25   0.176655
26   0.153237
27   0.179066
28   0.174728

>  <lowdin_charges>
28
1   -0.452625
2   -0.473901
3   -0.275108
4   -0.295368
5   -0.319984
6   -0.203102
7   -0.211269
8   0.171368
9   0.046224
10   -0.03735
11   -0.243516
12   -0.282926
13   0.152207
14   0.145052
15   0.154119
16   0.170537
17   0.174673
18   0.175418
19   0.14545
20   0.138773
21   0.14696
22   0.163309
23   0.179438
24   0.175866
25   0.165516
26   0.15269
27   0.171306
28   0.166241

$$$$

