PCCDB-ID:  52794
public computational chemistry database (PCCDB) project, http://pccdb.org

 21 21  0  0  0  0  0  0  0  0999 V2000
    1.2353    2.3143    0.0304 C   0  0  0  0  0  0  0  0  0  0  0  0
    3.7435    1.9137   -0.0078 C   0  0  0  0  0  0  0  0  0  0  0  0
    2.4507    1.4285    0.0721 C   0  0  0  0  0  0  0  0  0  0  0  0
    2.3636    0.0125    0.1988 C   0  0  0  0  0  0  0  0  0  0  0  0
    4.6351   -0.1544    0.1684 C   0  0  0  0  0  0  0  0  0  0  0  0
    0.9933   -2.0010    0.2083 N   0  0  0  0  0  0  0  0  0  0  0  0
    7.0266   -0.5397   -0.0873 N   0  0  0  0  0  0  0  0  0  0  0  0
    4.8564    1.1595    0.0393 N   0  0  0  0  0  0  0  0  0  0  0  0
    3.4397   -0.7753    0.2351 N   0  0  0  0  0  0  0  0  0  0  0  0
    1.1359   -0.5983    0.3059 N   0  0  0  0  0  0  0  0  0  0  0  0
    5.7315   -0.9780    0.2532 N   0  0  0  0  0  0  0  0  0  0  0  0
    1.5288    3.3667   -0.0377 H   0  0  0  0  0  0  0  0  0  0  0  0
    0.6140    2.2012    0.9291 H   0  0  0  0  0  0  0  0  0  0  0  0
    0.5916    2.1030   -0.8366 H   0  0  0  0  0  0  0  0  0  0  0  0
    3.9067    2.9867   -0.1157 H   0  0  0  0  0  0  0  0  0  0  0  0
    1.2207   -2.3866    1.1255 H   0  0  0  0  0  0  0  0  0  0  0  0
    1.7349   -2.3399   -0.4088 H   0  0  0  0  0  0  0  0  0  0  0  0
    7.3815   -0.0063    0.7068 H   0  0  0  0  0  0  0  0  0  0  0  0
    6.9362    0.1439   -0.8424 H   0  0  0  0  0  0  0  0  0  0  0  0
    0.3351   -0.0996   -0.0546 H   0  0  0  0  0  0  0  0  0  0  0  0
    5.5606   -1.9584    0.0784 H   0  0  0  0  0  0  0  0  0  0  0  0
  1  3  1  0  0  0  0
  1 13  1  0  0  0  0
  2  8  1  0  0  0  0
  2  3  2  0  0  0  0
  3  4  1  0  0  0  0
  4  9  2  0  0  0  0
  4 10  1  0  0  0  0
  5  9  1  0  0  0  0
  5 11  1  0  0  0  0
  6 10  1  0  0  0  0
  6 16  1  0  0  0  0
  7 11  1  0  0  0  0
  7 18  1  0  0  0  0
  8  5  2  0  0  0  0
 12  1  1  0  0  0  0
 14  1  1  0  0  0  0
 15  2  1  0  0  0  0
 17  6  1  0  0  0  0
 19  7  1  0  0  0  0
 20 10  1  0  0  0  0
 21 11  1  0  0  0  0
M  END
>  <HBA>
6

>  <HBD>
4

>  <TPSA>
101.88

>  <cid>
52794

>  <dipole>
1.78

>  <excitation_energy_1>
4.607

>  <excitation_energy_2>
4.991

>  <excitation_energy_3>
5.092

>  <excitation_energy_4>
5.385

>  <homo_energy>
-5.646

>  <homo_lumo_gap>
5.382

>  <logP>
0.903

>  <lumo_energy>
-0.264

>  <melting_point>
219.1

>  <molecular_refractivity>
41.41

>  <oscillator_strength_1>
0.0939

>  <oscillator_strength_2>
0.0028

>  <oscillator_strength_3>
0.0003

>  <oscillator_strength_4>
0.0021

>  <open_babel_can_smiles>
NNc1ncc(c(n1)NN)C

>  <mulliken_charges>
21
1   -0.555867
2   -0.006777
3   0.124295
4   0.492766
5   0.649384
6   -0.562506
7   -0.562021
8   -0.503736
9   -0.593482
10   -0.541906
11   -0.518947
12   0.16542
13   0.165966
14   0.153251
15   0.13208
16   0.325041
17   0.321372
18   0.322909
19   0.317882
20   0.340135
21   0.33474

>  <lowdin_charges>
21
1   -0.442307
2   -0.068887
3   -0.09905
4   0.103752
5   0.117837
6   -0.457221
7   -0.457945
8   -0.238981
9   -0.248331
10   -0.231413
11   -0.226862
12   0.163218
13   0.159162
14   0.152063
15   0.151185
16   0.265661
17   0.262117
18   0.265367
19   0.259925
20   0.287009
21   0.283701

$$$$

