PCCDB-ID:  69700
public computational chemistry database (PCCDB) project, http://pccdb.org

 24 24  0  0  0  0  0  0  0  0999 V2000
    0.8480    0.1545   -0.6120 C   0  0  0  0  0  0  0  0  0  0  0  0
    2.9591    1.3202   -0.7854 C   0  0  0  0  0  0  0  0  0  0  0  0
    4.2936   -4.9203    2.9163 C   0  0  0  0  0  0  0  0  0  0  0  0
    2.3078   -1.9290    0.6648 C   0  0  0  0  0  0  0  0  0  0  0  0
    3.8714   -0.3326    1.5436 C   0  0  0  0  0  0  0  0  0  0  0  0
    2.9309   -2.9470    1.3987 C   0  0  0  0  0  0  0  0  0  0  0  0
    4.5038   -1.3376    2.2568 C   0  0  0  0  0  0  0  0  0  0  0  0
    2.7567   -0.6026    0.7201 C   0  0  0  0  0  0  0  0  0  0  0  0
    4.0388   -2.6602    2.1948 C   0  0  0  0  0  0  0  0  0  0  0  0
    2.1124    0.4575    0.0338 N   0  0  0  0  0  0  0  0  0  0  0  0
    4.7298   -3.5740    2.9474 O   0  0  0  0  0  0  0  0  0  0  0  0
    0.3851    1.0922   -0.9369 H   0  0  0  0  0  0  0  0  0  0  0  0
    0.1708   -0.3299    0.0975 H   0  0  0  0  0  0  0  0  0  0  0  0
    0.9464   -0.4977   -1.5004 H   0  0  0  0  0  0  0  0  0  0  0  0
    2.4039    2.2283   -1.0448 H   0  0  0  0  0  0  0  0  0  0  0  0
    3.2813    0.8330   -1.7237 H   0  0  0  0  0  0  0  0  0  0  0  0
    3.8532    1.6212   -0.2376 H   0  0  0  0  0  0  0  0  0  0  0  0
    4.9688   -5.4721    3.5736 H   0  0  0  0  0  0  0  0  0  0  0  0
    4.3504   -5.3426    1.9034 H   0  0  0  0  0  0  0  0  0  0  0  0
    3.2644   -5.0227    3.2878 H   0  0  0  0  0  0  0  0  0  0  0  0
    1.4623   -2.1961    0.0410 H   0  0  0  0  0  0  0  0  0  0  0  0
    4.2315    0.6866    1.6440 H   0  0  0  0  0  0  0  0  0  0  0  0
    2.5410   -3.9561    1.3245 H   0  0  0  0  0  0  0  0  0  0  0  0
    5.3567   -1.1163    2.8914 H   0  0  0  0  0  0  0  0  0  0  0  0
  1 10  1  0  0  0  0
  1 13  1  0  0  0  0
  2 17  1  0  0  0  0
  2 10  1  0  0  0  0
  3 11  1  0  0  0  0
  3 20  1  0  0  0  0
  3 18  1  0  0  0  0
  4  8  2  0  0  0  0
  4  6  1  0  0  0  0
  5 22  1  0  0  0  0
  5  7  2  0  0  0  0
  6  9  2  0  0  0  0
  7 24  1  0  0  0  0
  8  5  1  0  0  0  0
  9  7  1  0  0  0  0
  9 11  1  0  0  0  0
 10  8  1  0  0  0  0
 12  1  1  0  0  0  0
 14  1  1  0  0  0  0
 15  2  1  0  0  0  0
 16  2  1  0  0  0  0
 19  3  1  0  0  0  0
 21  4  1  0  0  0  0
 23  6  1  0  0  0  0
M  END
>  <HBA>
2

>  <HBD>
0

>  <TPSA>
12.47

>  <cid>
69700

>  <dipole>
1.49

>  <excitation_energy_1>
4.262

>  <excitation_energy_2>
4.486

>  <excitation_energy_3>
4.823

>  <excitation_energy_4>
5.042

>  <homo_energy>
-4.874

>  <homo_lumo_gap>
5.08

>  <logP>
1.761

>  <lumo_energy>
0.207

>  <melting_point>
18.77

>  <molecular_refractivity>
47.14

>  <oscillator_strength_1>
0.0367

>  <oscillator_strength_2>
0.0223

>  <oscillator_strength_3>
0.0388

>  <oscillator_strength_4>
0.0812

>  <open_babel_can_smiles>
COc1ccc(cc1)N(C)C

>  <mulliken_charges>
24
1   -0.303688
2   -0.307024
3   -0.210452
4   -0.201736
5   -0.175577
6   -0.206467
7   -0.178525
8   0.325407
9   0.372907
10   -0.461009
11   -0.513027
12   0.150699
13   0.161829
14   0.129242
15   0.149658
16   0.134682
17   0.160061
18   0.165501
19   0.147224
20   0.147429
21   0.124308
22   0.128366
23   0.126143
24   0.134048

>  <lowdin_charges>
24
1   -0.355935
2   -0.35009
3   -0.276241
4   -0.194195
5   -0.171861
6   -0.208624
7   -0.174789
8   0.035158
9   0.08414
10   -0.142831
11   -0.205834
12   0.152977
13   0.158571
14   0.126649
15   0.14977
16   0.130593
17   0.157166
18   0.161938
19   0.141454
20   0.141088
21   0.159478
22   0.157378
23   0.158957
24   0.165082

$$$$

