PCCDB-ID:  39902
public computational chemistry database (PCCDB) project, http://pccdb.org

 20 20  0  0  0  0  0  0  0  0999 V2000
    0.9188   -0.0844   -0.0529 C   0  0  0  0  0  0  0  0  0  0  0  0
    3.1353    0.0842   -1.2641 C   0  0  0  0  0  0  0  0  0  0  0  0
    3.1872   -0.4398    2.8248 C   0  0  0  0  0  0  0  0  0  0  0  0
    2.6469   -1.5832    1.9670 C   0  0  0  0  0  0  0  0  0  0  0  0
    2.6317    0.8764    2.2819 C   0  0  0  0  0  0  0  0  0  0  0  0
    2.4500   -0.0931    0.0845 C   0  0  0  0  0  0  0  0  0  0  0  0
    2.9183   -1.3440    0.5882 O   0  0  0  0  0  0  0  0  0  0  0  0
    2.9037    0.9961    0.8881 O   0  0  0  0  0  0  0  0  0  0  0  0
    0.6024   -0.9001   -0.7101 H   0  0  0  0  0  0  0  0  0  0  0  0
    0.5932    0.8661   -0.4865 H   0  0  0  0  0  0  0  0  0  0  0  0
    0.4072   -0.2083    0.9056 H   0  0  0  0  0  0  0  0  0  0  0  0
    2.8572   -0.7305   -1.9388 H   0  0  0  0  0  0  0  0  0  0  0  0
    4.2186    0.0737   -1.1196 H   0  0  0  0  0  0  0  0  0  0  0  0
    2.8439    1.0382   -1.7125 H   0  0  0  0  0  0  0  0  0  0  0  0
    4.2813   -0.4246    2.7602 H   0  0  0  0  0  0  0  0  0  0  0  0
    2.9052   -0.5762    3.8766 H   0  0  0  0  0  0  0  0  0  0  0  0
    1.5663   -1.7130    2.1396 H   0  0  0  0  0  0  0  0  0  0  0  0
    3.1355   -2.5337    2.2009 H   0  0  0  0  0  0  0  0  0  0  0  0
    3.1093    1.7429    2.7489 H   0  0  0  0  0  0  0  0  0  0  0  0
    1.5498    0.9453    2.4803 H   0  0  0  0  0  0  0  0  0  0  0  0
  1  6  1  0  0  0  0
  1 11  1  0  0  0  0
  2 13  1  0  0  0  0
  2  6  1  0  0  0  0
  3 16  1  0  0  0  0
  4 17  1  0  0  0  0
  4 18  1  0  0  0  0
  4  3  1  0  0  0  0
  5 20  1  0  0  0  0
  5 19  1  0  0  0  0
  5  3  1  0  0  0  0
  6  7  1  0  0  0  0
  6  8  1  0  0  0  0
  7  4  1  0  0  0  0
  8  5  1  0  0  0  0
  9  1  1  0  0  0  0
 10  1  1  0  0  0  0
 12  2  1  0  0  0  0
 14  2  1  0  0  0  0
 15  3  1  0  0  0  0
M  END
>  <HBA>
2

>  <HBD>
0

>  <TPSA>
18.46

>  <cid>
39902

>  <dipole>
1.66

>  <excitation_energy_1>
6.534

>  <excitation_energy_2>
6.559

>  <excitation_energy_3>
7.006

>  <excitation_energy_4>
7.021

>  <homo_energy>
-6.885

>  <homo_lumo_gap>
9.184

>  <logP>
1.159

>  <lumo_energy>
2.299

>  <melting_point>
-10.86

>  <molecular_refractivity>
31.05

>  <oscillator_strength_1>
0.0116

>  <oscillator_strength_2>
0.002

>  <oscillator_strength_3>
0.0014

>  <oscillator_strength_4>
0.0002

>  <open_babel_can_smiles>
CC1(C)OCCCO1

>  <mulliken_charges>
20
1   -0.469404
2   -0.455331
3   -0.285124
4   -0.037008
5   -0.037059
6   0.523541
7   -0.492898
8   -0.492813
9   0.154405
10   0.154407
11   0.144944
12   0.149696
13   0.162137
14   0.149677
15   0.154592
16   0.133491
17   0.121907
18   0.149504
19   0.149482
20   0.121856

>  <lowdin_charges>
20
1   -0.469595
2   -0.443467
3   -0.30338
4   -0.130914
5   -0.131688
6   0.215937
7   -0.271709
8   -0.271433
9   0.161002
10   0.160247
11   0.151371
12   0.158734
13   0.162346
14   0.157958
15   0.151402
16   0.149574
17   0.124489
18   0.151869
19   0.152856
20   0.124401

$$$$

