PCCDB-ID:  10284
public computational chemistry database (PCCDB) project, http://pccdb.org

 18 19  0  0  0  0  0  0  0  0999 V2000
    2.4338    0.7430   -0.0087 C   0  0  0  0  0  0  0  0  0  0  0  0
    2.4595   -0.6701    0.0370 C   0  0  0  0  0  0  0  0  0  0  0  0
    1.2331    1.4166   -0.0307 C   0  0  0  0  0  0  0  0  0  0  0  0
    1.2800   -1.3830    0.0599 C   0  0  0  0  0  0  0  0  0  0  0  0
   -1.2614    1.3599   -0.0307 C   0  0  0  0  0  0  0  0  0  0  0  0
   -2.3988    0.5920   -0.0058 C   0  0  0  0  0  0  0  0  0  0  0  0
    0.0014    0.7107   -0.0089 C   0  0  0  0  0  0  0  0  0  0  0  0
    0.0274   -0.7180    0.0376 C   0  0  0  0  0  0  0  0  0  0  0  0
   -1.2492   -1.3848    0.0583 C   0  0  0  0  0  0  0  0  0  0  0  0
   -2.4024   -0.7654    0.0383 N   0  0  0  0  0  0  0  0  0  0  0  0
   -1.3398   -2.7399    0.1009 O   0  0  0  0  0  0  0  0  0  0  0  0
    3.3686    1.2965   -0.0263 H   0  0  0  0  0  0  0  0  0  0  0  0
    3.4108   -1.1938    0.0540 H   0  0  0  0  0  0  0  0  0  0  0  0
    1.2106    2.5029   -0.0649 H   0  0  0  0  0  0  0  0  0  0  0  0
    1.3365   -2.4694    0.0960 H   0  0  0  0  0  0  0  0  0  0  0  0
   -1.3183    2.4437   -0.0672 H   0  0  0  0  0  0  0  0  0  0  0  0
   -3.3830    1.0554   -0.0207 H   0  0  0  0  0  0  0  0  0  0  0  0
   -0.4538   -3.1299    0.1159 H   0  0  0  0  0  0  0  0  0  0  0  0
  1  2  2  0  0  0  0
  2 13  1  0  0  0  0
  2  4  1  0  0  0  0
  3  7  2  0  0  0  0
  3  1  1  0  0  0  0
  4 15  1  0  0  0  0
  5  7  1  0  0  0  0
  5  6  2  0  0  0  0
  6 10  1  0  0  0  0
  7  8  1  0  0  0  0
  8  9  1  0  0  0  0
  8  4  2  0  0  0  0
  9 11  1  0  0  0  0
 10  9  2  0  0  0  0
 11 18  1  0  0  0  0
 12  1  1  0  0  0  0
 14  3  1  0  0  0  0
 16  5  1  0  0  0  0
 17  6  1  0  0  0  0
M  END
>  <HBA>
1

>  <HBD>
1

>  <TPSA>
32.86

>  <cid>
10284

>  <dipole>
3.8

>  <excitation_energy_1>
4.103

>  <excitation_energy_2>
4.489

>  <excitation_energy_3>
4.65

>  <excitation_energy_4>
5.169

>  <homo_energy>
-5.929

>  <homo_lumo_gap>
4.64

>  <logP>
1.528

>  <lumo_energy>
-1.29

>  <melting_point>
130.37

>  <molecular_refractivity>
44.57

>  <oscillator_strength_1>
0.0723

>  <oscillator_strength_2>
0.0608

>  <oscillator_strength_3>
0.0006

>  <oscillator_strength_4>
0.0032

>  <open_babel_can_smiles>
Oc1nccc2c1cccc2

>  <mulliken_charges>
18
1   -0.128427
2   -0.133053
3   -0.185828
4   -0.211862
5   -0.206066
6   0.024808
7   0.151142
8   0.091209
9   0.427785
10   -0.462552
11   -0.594178
12   0.139509
13   0.137811
14   0.138747
15   0.119809
16   0.131275
17   0.142803
18   0.417068

>  <lowdin_charges>
18
1   -0.145504
2   -0.157554
3   -0.150881
4   -0.156834
5   -0.198844
6   -0.084488
7   0.019721
8   -0.054831
9   0.139016
10   -0.166368
11   -0.351774
12   0.16345
13   0.162793
14   0.16049
15   0.148167
16   0.160753
17   0.158558
18   0.35413

$$$$

