PCCDB-ID:  33079
public computational chemistry database (PCCDB) project, http://pccdb.org

 34 35  0  0  0  0  0  0  0  0999 V2000
    1.3102    0.0486    1.9383 C   0  0  0  0  0  0  0  0  0  0  0  0
    3.5854    1.6312   -7.7073 C   0  0  0  0  0  0  0  0  0  0  0  0
    4.1343    0.3535   -7.8516 C   0  0  0  0  0  0  0  0  0  0  0  0
    3.2456    2.1010   -6.4379 C   0  0  0  0  0  0  0  0  0  0  0  0
    4.3423   -0.4459   -6.7318 C   0  0  0  0  0  0  0  0  0  0  0  0
    3.4666    1.3038   -5.3141 C   0  0  0  0  0  0  0  0  0  0  0  0
    2.9097    0.8360    0.3068 C   0  0  0  0  0  0  0  0  0  0  0  0
    2.8175   -1.5113    0.8666 C   0  0  0  0  0  0  0  0  0  0  0  0
    4.3508    0.6690   -0.1927 C   0  0  0  0  0  0  0  0  0  0  0  0
    4.2502   -1.7028    0.3550 C   0  0  0  0  0  0  0  0  0  0  0  0
    4.3364   -0.3142   -2.9335 C   0  0  0  0  0  0  0  0  0  0  0  0
    4.0220    0.0219   -5.4476 C   0  0  0  0  0  0  0  0  0  0  0  0
    4.2677   -0.9096   -4.2891 C   0  0  0  0  0  0  0  0  0  0  0  0
    4.4038   -1.1188   -1.9196 N   0  0  0  0  0  0  0  0  0  0  0  0
    2.6310   -0.1438    1.3567 N   0  0  0  0  0  0  0  0  0  0  0  0
    4.5681   -0.7036   -0.6660 N   0  0  0  0  0  0  0  0  0  0  0  0
    4.4212   -2.1095   -4.4903 O   0  0  0  0  0  0  0  0  0  0  0  0
    1.2318    1.0620    2.3470 H   0  0  0  0  0  0  0  0  0  0  0  0
    1.1645   -0.6615    2.7595 H   0  0  0  0  0  0  0  0  0  0  0  0
    0.4869   -0.0939    1.2117 H   0  0  0  0  0  0  0  0  0  0  0  0
    3.4189    2.2555   -8.5813 H   0  0  0  0  0  0  0  0  0  0  0  0
    4.3955   -0.0179   -8.8390 H   0  0  0  0  0  0  0  0  0  0  0  0
    2.8050    3.0878   -6.3216 H   0  0  0  0  0  0  0  0  0  0  0  0
    4.7535   -1.4461   -6.8214 H   0  0  0  0  0  0  0  0  0  0  0  0
    3.1751    1.6778   -4.3375 H   0  0  0  0  0  0  0  0  0  0  0  0
    2.2122    0.7364   -0.5492 H   0  0  0  0  0  0  0  0  0  0  0  0
    2.7802    1.8425    0.7228 H   0  0  0  0  0  0  0  0  0  0  0  0
    2.6270   -2.2069    1.6925 H   0  0  0  0  0  0  0  0  0  0  0  0
    2.1094   -1.7580    0.0504 H   0  0  0  0  0  0  0  0  0  0  0  0
    5.0442    0.8394    0.6385 H   0  0  0  0  0  0  0  0  0  0  0  0
    4.5898    1.3858   -0.9792 H   0  0  0  0  0  0  0  0  0  0  0  0
    4.3820   -2.6869   -0.0972 H   0  0  0  0  0  0  0  0  0  0  0  0
    4.9559   -1.5836    1.1861 H   0  0  0  0  0  0  0  0  0  0  0  0
    4.3662    0.7711   -2.8403 H   0  0  0  0  0  0  0  0  0  0  0  0
  1 18  1  0  0  0  0
  1 19  1  0  0  0  0
  2  4  1  0  0  0  0
  3  2  2  0  0  0  0
  3  5  1  0  0  0  0
  4 23  1  0  0  0  0
  4  6  2  0  0  0  0
  5 12  2  0  0  0  0
  6 25  1  0  0  0  0
  7 27  1  0  0  0  0
  7 15  1  0  0  0  0
  8 15  1  0  0  0  0
  8 28  1  0  0  0  0
  9  7  1  0  0  0  0
  9 30  1  0  0  0  0
 10  8  1  0  0  0  0
 10 33  1  0  0  0  0
 11 34  1  0  0  0  0
 11 14  2  0  0  0  0
 12  6  1  0  0  0  0
 12 13  1  0  0  0  0
 13 11  1  0  0  0  0
 14 16  1  0  0  0  0
 15  1  1  0  0  0  0
 16  9  1  0  0  0  0
 16 10  1  0  0  0  0
 17 13  2  0  0  0  0
 20  1  1  0  0  0  0
 21  2  1  0  0  0  0
 22  3  1  0  0  0  0
 24  5  1  0  0  0  0
 26  7  1  0  0  0  0
 29  8  1  0  0  0  0
 31  9  1  0  0  0  0
 32 10  1  0  0  0  0
M  END
>  <HBA>
4

>  <HBD>
0

>  <TPSA>
35.91

>  <cid>
33079

>  <dipole>
4.88

>  <excitation_energy_1>
3.307

>  <excitation_energy_2>
3.801

>  <excitation_energy_3>
4.192

>  <excitation_energy_4>
4.479

>  <homo_energy>
-5.799

>  <homo_lumo_gap>
4.259

>  <logP>
0.978

>  <lumo_energy>
-1.54

>  <melting_point>
80.6

>  <molecular_refractivity>
75.86

>  <oscillator_strength_1>
0.002

>  <oscillator_strength_2>
0.2742

>  <oscillator_strength_3>
0.2178

>  <oscillator_strength_4>
0.023

>  <open_babel_can_smiles>
CN1CCN(CC1)/N=C/C(=O)c1ccccc1

>  <mulliken_charges>
34
1   -0.293653
2   -0.120782
3   -0.133884
4   -0.136652
5   -0.156018
6   -0.17615
7   -0.121441
8   -0.129411
9   -0.163471
10   -0.135351
11   -0.064215
12   0.069897
13   0.384112
14   -0.189598
15   -0.385736
16   -0.22863
17   -0.480658
18   0.150846
19   0.153424
20   0.125484
21   0.132609
22   0.134444
23   0.129924
24   0.16148
25   0.126578
26   0.127097
27   0.145929
28   0.146474
29   0.13257
30   0.168923
31   0.165226
32   0.183043
33   0.154442
34   0.123145

>  <lowdin_charges>
34
1   -0.355745
2   -0.146857
3   -0.155211
4   -0.158241
5   -0.129696
6   -0.157198
7   -0.207803
8   -0.211817
9   -0.218322
10   -0.202644
11   -0.214726
12   -0.040921
13   0.13895
14   -0.036544
15   -0.191052
16   -0.038759
17   -0.25269
18   0.150544
19   0.153393
20   0.125824
21   0.159736
22   0.159374
23   0.156914
24   0.175186
25   0.155557
26   0.12542
27   0.150889
28   0.153211
29   0.128426
30   0.162461
31   0.162703
32   0.174067
33   0.152093
34   0.133478

$$$$

