PCCDB-ID:  66074
public computational chemistry database (PCCDB) project, http://pccdb.org

 30 29  0  0  0  0  0  0  0  0999 V2000
    3.4483    4.6759    0.4054 C   0  0  0  0  0  0  0  0  0  0  0  0
    1.6684    3.9903    1.8548 C   0  0  0  0  0  0  0  0  0  0  0  0
    7.8260    3.3243    1.5786 C   0  0  0  0  0  0  0  0  0  0  0  0
    8.7218    1.4155    0.4411 C   0  0  0  0  0  0  0  0  0  0  0  0
    4.4637    1.7614    0.6134 C   0  0  0  0  0  0  0  0  0  0  0  0
    5.2487    1.6511    1.9259 C   0  0  0  0  0  0  0  0  0  0  0  0
    3.0432    2.3112    0.7960 C   0  0  0  0  0  0  0  0  0  0  0  0
    6.6953    1.1779    1.7331 C   0  0  0  0  0  0  0  0  0  0  0  0
    2.9970    3.6661    1.3541 N   0  0  0  0  0  0  0  0  0  0  0  0
    7.5075    2.0729    0.9034 N   0  0  0  0  0  0  0  0  0  0  0  0
    3.4341    5.6608    0.8851 H   0  0  0  0  0  0  0  0  0  0  0  0
    2.8144    4.7289   -0.5032 H   0  0  0  0  0  0  0  0  0  0  0  0
    4.4753    4.4738    0.0887 H   0  0  0  0  0  0  0  0  0  0  0  0
    1.6811    4.9829    2.3192 H   0  0  0  0  0  0  0  0  0  0  0  0
    1.3702    3.2624    2.6171 H   0  0  0  0  0  0  0  0  0  0  0  0
    0.8905    3.9964    1.0645 H   0  0  0  0  0  0  0  0  0  0  0  0
    8.3931    3.9717    0.9007 H   0  0  0  0  0  0  0  0  0  0  0  0
    8.4308    3.1776    2.4967 H   0  0  0  0  0  0  0  0  0  0  0  0
    6.9108    3.8534    1.8582 H   0  0  0  0  0  0  0  0  0  0  0  0
    9.2730    2.0865   -0.2275 H   0  0  0  0  0  0  0  0  0  0  0  0
    8.4643    0.5117   -0.1217 H   0  0  0  0  0  0  0  0  0  0  0  0
    9.4045    1.1229    1.2646 H   0  0  0  0  0  0  0  0  0  0  0  0
    4.3801    0.7680    0.1495 H   0  0  0  0  0  0  0  0  0  0  0  0
    5.0335    2.3721   -0.0954 H   0  0  0  0  0  0  0  0  0  0  0  0
    4.7496    0.9352    2.5950 H   0  0  0  0  0  0  0  0  0  0  0  0
    5.2163    2.6147    2.4461 H   0  0  0  0  0  0  0  0  0  0  0  0
    2.5026    1.6562    1.4918 H   0  0  0  0  0  0  0  0  0  0  0  0
    2.4995    2.2587   -0.1702 H   0  0  0  0  0  0  0  0  0  0  0  0
    6.6786    0.2002    1.2334 H   0  0  0  0  0  0  0  0  0  0  0  0
    7.1662    1.0144    2.7248 H   0  0  0  0  0  0  0  0  0  0  0  0
  1 11  1  0  0  0  0
  1  9  1  0  0  0  0
  2 14  1  0  0  0  0
  2 15  1  0  0  0  0
  3 19  1  0  0  0  0
  3 18  1  0  0  0  0
  4 10  1  0  0  0  0
  4 22  1  0  0  0  0
  5  7  1  0  0  0  0
  5  6  1  0  0  0  0
  6 26  1  0  0  0  0
  6 25  1  0  0  0  0
  7  9  1  0  0  0  0
  7 27  1  0  0  0  0
  8  6  1  0  0  0  0
  8 30  1  0  0  0  0
  9  2  1  0  0  0  0
 10  3  1  0  0  0  0
 10  8  1  0  0  0  0
 12  1  1  0  0  0  0
 13  1  1  0  0  0  0
 16  2  1  0  0  0  0
 17  3  1  0  0  0  0
 20  4  1  0  0  0  0
 21  4  1  0  0  0  0
 23  5  1  0  0  0  0
 24  5  1  0  0  0  0
 28  7  1  0  0  0  0
 29  8  1  0  0  0  0
M  END
>  <HBA>
2

>  <HBD>
0

>  <TPSA>
6.48

>  <cid>
66074

>  <dipole>
0.06

>  <excitation_energy_1>
5.23

>  <excitation_energy_2>
5.233

>  <excitation_energy_3>
5.596

>  <excitation_energy_4>
5.6

>  <homo_energy>
-5.595

>  <homo_lumo_gap>
7.769

>  <logP>
0.89

>  <lumo_energy>
2.174

>  <melting_point>
-22.62

>  <molecular_refractivity>
46.36

>  <oscillator_strength_1>
0.0323

>  <oscillator_strength_2>
0.0163

>  <oscillator_strength_3>
0.0397

>  <oscillator_strength_4>
0.004

>  <open_babel_can_smiles>
CN(CCCCN(C)C)C

>  <mulliken_charges>
30
1   -0.303831
2   -0.291684
3   -0.30351
4   -0.291757
5   -0.266676
6   -0.266995
7   -0.114378
8   -0.114325
9   -0.362734
10   -0.362845
11   0.145257
12   0.114769
13   0.158657
14   0.14498
15   0.147188
16   0.114764
17   0.145201
18   0.114741
19   0.158635
20   0.145028
21   0.147172
22   0.11478
23   0.122955
24   0.157067
25   0.122984
26   0.157039
27   0.128115
28   0.105628
29   0.128093
30   0.105681

>  <lowdin_charges>
30
1   -0.358828
2   -0.356682
3   -0.361381
4   -0.358659
5   -0.284849
6   -0.285149
7   -0.20013
8   -0.198641
9   -0.184458
10   -0.184223
11   0.14814
12   0.118988
13   0.152162
14   0.147177
15   0.149366
16   0.119186
17   0.150127
18   0.11887
19   0.15369
20   0.149264
21   0.148752
22   0.119488
23   0.140599
24   0.151972
25   0.142384
26   0.15035
27   0.141605
28   0.115746
29   0.139557
30   0.115577

$$$$

