PCCDB-ID:  41467
public computational chemistry database (PCCDB) project, http://pccdb.org

 21 21  0  0  1  0  0  0  0  0999 V2000
    1.0389   -0.0584   -0.3093 C   0  0  0  0  0  0  0  0  0  0  0  0
    4.4847    1.1943    2.7981 C   0  0  0  0  0  0  0  0  0  0  0  0
    2.9734   -1.1184    1.0304 C   0  0  0  0  0  0  0  0  0  0  0  0
    2.7050   -0.6471    2.4747 C   0  0  0  0  0  0  0  0  0  0  0  0
    2.4967    0.0558    0.1487 C   0  0  2  0  0  0  0  0  0  0  0  0
    3.0285    0.8591    2.4507 C   0  0  2  0  0  0  0  0  0  0  0  0
    2.4735    2.4349    0.6117 N   0  0  0  0  0  0  0  0  0  0  0  0
    2.7015    1.2068    1.0520 N   0  0  0  0  0  0  0  0  0  0  0  0
    2.6068    3.3227    1.4609 O   0  0  0  0  0  0  0  0  0  0  0  0
    0.9308   -0.8879   -1.0175 H   0  0  0  0  0  0  0  0  0  0  0  0
    0.7238    0.8648   -0.8039 H   0  0  0  0  0  0  0  0  0  0  0  0
    0.3688   -0.2395    0.5389 H   0  0  0  0  0  0  0  0  0  0  0  0
    4.6778    0.9625    3.8519 H   0  0  0  0  0  0  0  0  0  0  0  0
    4.6754    2.2575    2.6363 H   0  0  0  0  0  0  0  0  0  0  0  0
    5.1849    0.6148    2.1857 H   0  0  0  0  0  0  0  0  0  0  0  0
    2.4543   -2.0493    0.7833 H   0  0  0  0  0  0  0  0  0  0  0  0
    4.0455   -1.2888    0.8806 H   0  0  0  0  0  0  0  0  0  0  0  0
    3.3087   -1.1846    3.2124 H   0  0  0  0  0  0  0  0  0  0  0  0
    1.6515   -0.8011    2.7351 H   0  0  0  0  0  0  0  0  0  0  0  0
    3.1384    0.1816   -0.7301 H   0  0  0  0  0  0  0  0  0  0  0  0
    2.3675    1.4443    3.0978 H   0  0  0  0  0  0  0  0  0  0  0  0
  1  5  1  0  0  0  0
  1 12  1  0  0  0  0
  2 13  1  0  0  0  0
  3  4  1  0  0  0  0
  4 19  1  0  0  0  0
  4 18  1  0  0  0  0
  5 20  1  6  0  0  0
  5  3  1  0  0  0  0
  5  8  1  0  0  0  0
  6  4  1  0  0  0  0
  6  2  1  0  0  0  0
  6 21  1  1  0  0  0
  7  8  1  0  0  0  0
  7  9  1  0  0  0  0
  8  6  1  0  0  0  0
 10  1  1  0  0  0  0
 11  1  1  0  0  0  0
 14  2  1  0  0  0  0
 15  2  1  0  0  0  0
 16  3  1  0  0  0  0
 17  3  1  0  0  0  0
M  RAD  2   7   2   9   2
M  END
>  <HBA>
3

>  <HBD>
0

>  <TPSA>
32.67

>  <cid>
41467

>  <dipole>
4.45

>  <excitation_energy_1>
3.261

>  <excitation_energy_2>
5.387

>  <excitation_energy_3>
5.774

>  <excitation_energy_4>
5.806

>  <homo_energy>
-5.766

>  <homo_lumo_gap>
5.086

>  <logP>
1.478

>  <lumo_energy>
-0.68

>  <melting_point>
17.7

>  <molecular_refractivity>
40.39

>  <oscillator_strength_1>
0.0014

>  <oscillator_strength_2>
0.0017

>  <oscillator_strength_3>
0.0647

>  <oscillator_strength_4>
0.1218

>  <open_babel_can_smiles>
[O][N]N1[C@H](C)CC[C@H]1C

>  <mulliken_charges>
21
1   -0.449834
2   -0.451473
3   -0.30479
4   -0.302916
5   0.065557
6   0.056854
7   0.135321
8   -0.244706
9   -0.392293
10   0.147658
11   0.177787
12   0.149134
13   0.147683
14   0.185966
15   0.14228
16   0.15314
17   0.15394
18   0.152528
19   0.153091
20   0.158405
21   0.166668

>  <lowdin_charges>
21
1   -0.453212
2   -0.450126
3   -0.282514
4   -0.283051
5   -0.055162
6   -0.067358
7   0.050336
8   -0.048682
9   -0.289547
10   0.154907
11   0.167541
12   0.152665
13   0.153105
14   0.170258
15   0.149655
16   0.156212
17   0.15027
18   0.157189
19   0.150014
20   0.154875
21   0.162624

$$$$

