PCCDB-ID:  1068
public computational chemistry database (PCCDB) project, http://pccdb.org

  9  8  0  0  0  0  0  0  0  0999 V2000
    1.0270   -0.0874   -0.1241 C   0  0  0  0  0  0  0  0  0  0  0  0
    3.3038   -0.4017   -1.7030 C   0  0  0  0  0  0  0  0  0  0  0  0
    2.8463   -0.0566    0.0308 S   0  0  0  0  0  0  0  0  0  0  0  0
    0.6163    0.1103    0.8695 H   0  0  0  0  0  0  0  0  0  0  0  0
    0.6735   -1.0666   -0.4624 H   0  0  0  0  0  0  0  0  0  0  0  0
    0.6735    0.6878   -0.8114 H   0  0  0  0  0  0  0  0  0  0  0  0
    4.3958   -0.4114   -1.7517 H   0  0  0  0  0  0  0  0  0  0  0  0
    2.9285    0.3764   -2.3754 H   0  0  0  0  0  0  0  0  0  0  0  0
    2.9284   -1.3779   -2.0260 H   0  0  0  0  0  0  0  0  0  0  0  0
  1  3  1  0  0  0  0
  1  4  1  0  0  0  0
  2  3  1  0  0  0  0
  5  1  1  0  0  0  0
  6  1  1  0  0  0  0
  7  2  1  0  0  0  0
  8  2  1  0  0  0  0
  9  2  1  0  0  0  0
M  END
>  <HBA>
1

>  <HBD>
0

>  <TPSA>
25.3

>  <cid>
1068

>  <dipole>
1.72

>  <excitation_energy_1>
5.099

>  <excitation_energy_2>
5.383

>  <excitation_energy_3>
5.915

>  <excitation_energy_4>
6.465

>  <homo_energy>
-5.905

>  <homo_lumo_gap>
7.097

>  <logP>
0.979

>  <lumo_energy>
1.192

>  <melting_point>
-14.94

>  <molecular_refractivity>
19.32

>  <oscillator_strength_1>
0.0

>  <oscillator_strength_2>
0.0015

>  <oscillator_strength_3>
0.0342

>  <oscillator_strength_4>
0.0339

>  <open_babel_can_smiles>
CSC

>  <mulliken_charges>
9
1   -0.57768
2   -0.577812
3   0.089409
4   0.183453
5   0.174753
6   0.174767
7   0.183492
8   0.174801
9   0.174818

>  <lowdin_charges>
9
1   -0.547767
2   -0.546188
3   0.102551
4   0.175233
5   0.159964
6   0.161151
7   0.173864
8   0.161225
9   0.159965

$$$$

