PCCDB-ID:  67798
public computational chemistry database (PCCDB) project, http://pccdb.org

 23 22  0  0  0  0  0  0  0  0999 V2000
    0.9559   -0.0882   -0.7374 C   0  0  0  0  0  0  0  0  0  0  0  0
    1.4709   -0.9197    0.4486 C   0  0  0  0  0  0  0  0  0  0  0  0
    1.9654    0.1105   -1.8752 C   0  0  0  0  0  0  0  0  0  0  0  0
    1.8735   -2.3712    0.1014 C   0  0  0  0  0  0  0  0  0  0  0  0
    1.4416    1.0094   -3.0134 C   0  0  0  0  0  0  0  0  0  0  0  0
    0.7758   -3.1535   -0.6011 C   0  0  0  0  0  0  0  0  0  0  0  0
    0.2770    0.5275   -3.7601 N   0  0  0  0  0  0  0  0  0  0  0  0
    0.8090   -3.6882   -1.7526 N   0  0  0  0  0  0  0  0  0  0  0  0
   -0.3922   -3.2676    0.0982 O   0  0  0  0  0  0  0  0  0  0  0  0
    0.6507    0.8975   -0.3580 H   0  0  0  0  0  0  0  0  0  0  0  0
    0.0464   -0.5599   -1.1328 H   0  0  0  0  0  0  0  0  0  0  0  0
    0.6988   -0.9277    1.2324 H   0  0  0  0  0  0  0  0  0  0  0  0
    2.3415   -0.4264    0.9002 H   0  0  0  0  0  0  0  0  0  0  0  0
    2.2469   -0.8621   -2.3037 H   0  0  0  0  0  0  0  0  0  0  0  0
    2.8896    0.5520   -1.4721 H   0  0  0  0  0  0  0  0  0  0  0  0
    2.1502   -2.8975    1.0268 H   0  0  0  0  0  0  0  0  0  0  0  0
    2.7637   -2.3738   -0.5342 H   0  0  0  0  0  0  0  0  0  0  0  0
    2.2515    1.1745   -3.7353 H   0  0  0  0  0  0  0  0  0  0  0  0
    1.1863    1.9976   -2.6069 H   0  0  0  0  0  0  0  0  0  0  0  0
    0.4607   -0.4052   -4.1293 H   0  0  0  0  0  0  0  0  0  0  0  0
   -0.5259    0.4298   -3.1412 H   0  0  0  0  0  0  0  0  0  0  0  0
    1.7255   -3.5365   -2.1757 H   0  0  0  0  0  0  0  0  0  0  0  0
   -0.2889   -2.8528    0.9678 H   0  0  0  0  0  0  0  0  0  0  0  0
  1 10  1  0  0  0  0
  1  2  1  0  0  0  0
  2 13  1  0  0  0  0
  2 12  1  0  0  0  0
  3 15  1  0  0  0  0
  3  1  1  0  0  0  0
  4  2  1  0  0  0  0
  4 16  1  0  0  0  0
  5 19  1  0  0  0  0
  5  3  1  0  0  0  0
  6  9  1  0  0  0  0
  6  4  1  0  0  0  0
  7 21  1  0  0  0  0
  7  5  1  0  0  0  0
  8  6  2  0  0  0  0
  9 23  1  0  0  0  0
 11  1  1  0  0  0  0
 14  3  1  0  0  0  0
 17  4  1  0  0  0  0
 18  5  1  0  0  0  0
 20  7  1  0  0  0  0
 22  8  1  0  0  0  0
M  END
>  <HBA>
3

>  <HBD>
2

>  <TPSA>
69.11

>  <cid>
67798

>  <dipole>
4.58

>  <excitation_energy_1>
5.524

>  <excitation_energy_2>
5.708

>  <excitation_energy_3>
6.032

>  <excitation_energy_4>
6.043

>  <homo_energy>
-6.259

>  <homo_lumo_gap>
6.895

>  <logP>
1.391

>  <lumo_energy>
0.637

>  <melting_point>
103.33

>  <molecular_refractivity>
36.57

>  <oscillator_strength_1>
0.0223

>  <oscillator_strength_2>
0.0158

>  <oscillator_strength_3>
0.0022

>  <oscillator_strength_4>
0.0116

>  <open_babel_can_smiles>
NCCCCCC(=N)O

>  <mulliken_charges>
23
1   -0.261406
2   -0.2749
3   -0.258992
4   -0.363956
5   -0.144856
6   0.485568
7   -0.706025
8   -0.58643
9   -0.575812
10   0.135202
11   0.146787
12   0.124151
13   0.148307
14   0.122887
15   0.125283
16   0.158811
17   0.156685
18   0.141891
19   0.138742
20   0.297892
21   0.30005
22   0.28201
23   0.408112

>  <lowdin_charges>
23
1   -0.28528
2   -0.276987
3   -0.297196
4   -0.316501
5   -0.207372
6   0.123162
7   -0.552055
8   -0.398419
9   -0.366321
10   0.144657
11   0.146669
12   0.136833
13   0.15131
14   0.13445
15   0.140515
16   0.159881
17   0.159427
18   0.145541
19   0.140688
20   0.254065
21   0.254964
22   0.253884
23   0.354086

$$$$

