PCCDB-ID:  17167
public computational chemistry database (PCCDB) project, http://pccdb.org

 20 19  0  0  0  0  0  0  0  0999 V2000
    0.5442    0.0147    0.0648 C   0  0  0  0  0  0  0  0  0  0  0  0
    2.0608   -0.0004   -0.1505 C   0  0  0  0  0  0  0  0  0  0  0  0
    2.8471    0.4372    1.0917 C   0  0  0  0  0  0  0  0  0  0  0  0
    4.3744    0.4190    0.8734 C   0  0  0  0  0  0  0  0  0  0  0  0
    5.1360    0.8950    2.0726 C   0  0  0  0  0  0  0  0  0  0  0  0
    6.0391    0.1863    2.7689 C   0  0  0  0  0  0  0  0  0  0  0  0
    6.7177    0.7569    3.9404 C   0  0  0  0  0  0  0  0  0  0  0  0
    7.5465    0.1711    4.6124 O   0  0  0  0  0  0  0  0  0  0  0  0
    0.0114   -0.3052   -0.8376 H   0  0  0  0  0  0  0  0  0  0  0  0
    0.1895    1.0201    0.3223 H   0  0  0  0  0  0  0  0  0  0  0  0
    0.2523   -0.6584    0.8801 H   0  0  0  0  0  0  0  0  0  0  0  0
    2.3195    0.6570   -0.9926 H   0  0  0  0  0  0  0  0  0  0  0  0
    2.3798   -1.0106   -0.4433 H   0  0  0  0  0  0  0  0  0  0  0  0
    2.5973   -0.2181    1.9371 H   0  0  0  0  0  0  0  0  0  0  0  0
    2.5338    1.4496    1.3849 H   0  0  0  0  0  0  0  0  0  0  0  0
    4.6120    1.0731    0.0201 H   0  0  0  0  0  0  0  0  0  0  0  0
    4.7009   -0.5916    0.5983 H   0  0  0  0  0  0  0  0  0  0  0  0
    4.9149    1.9125    2.4056 H   0  0  0  0  0  0  0  0  0  0  0  0
    6.3071   -0.8329    2.4964 H   0  0  0  0  0  0  0  0  0  0  0  0
    6.4162    1.8014    4.1872 H   0  0  0  0  0  0  0  0  0  0  0  0
  1 10  1  0  0  0  0
  1 11  1  0  0  0  0
  2  1  1  0  0  0  0
  2  3  1  0  0  0  0
  3 15  1  0  0  0  0
  3 14  1  0  0  0  0
  4  3  1  0  0  0  0
  4  5  1  0  0  0  0
  5 18  1  0  0  0  0
  5  6  2  0  0  0  0
  6  7  1  0  0  0  0
  7 20  1  0  0  0  0
  7  8  2  0  0  0  0
  9  1  1  0  0  0  0
 12  2  1  0  0  0  0
 13  2  1  0  0  0  0
 16  4  1  0  0  0  0
 17  4  1  0  0  0  0
 19  6  1  0  0  0  0
M  END
>  <HBA>
1

>  <HBD>
0

>  <TPSA>
17.07

>  <cid>
17167

>  <dipole>
4.15

>  <excitation_energy_1>
3.709

>  <excitation_energy_2>
5.84

>  <excitation_energy_3>
6.556

>  <excitation_energy_4>
6.606

>  <homo_energy>
-6.724

>  <homo_lumo_gap>
5.26

>  <logP>
1.932

>  <lumo_energy>
-1.464

>  <melting_point>
14.29

>  <molecular_refractivity>
35.49

>  <oscillator_strength_1>
0.0003

>  <oscillator_strength_2>
0.59

>  <oscillator_strength_3>
0.0057

>  <oscillator_strength_4>
0.0992

>  <open_babel_can_smiles>
CCCC/C=C/C=O

>  <mulliken_charges>
20
1   -0.443079
2   -0.248736
3   -0.253348
4   -0.312164
5   -0.078191
6   -0.151817
7   0.230347
8   -0.416921
9   0.146959
10   0.14407
11   0.145756
12   0.134036
13   0.136132
14   0.144235
15   0.134772
16   0.154491
17   0.150655
18   0.140824
19   0.146226
20   0.095754

>  <lowdin_charges>
20
1   -0.444711
2   -0.271851
3   -0.271703
4   -0.273207
5   -0.102885
6   -0.20485
7   0.042979
8   -0.231923
9   0.152794
10   0.147259
11   0.149469
12   0.141266
13   0.141124
14   0.14647
15   0.140629
16   0.157668
17   0.151448
18   0.154792
19   0.165241
20   0.109989

$$$$

