PCCDB-ID:  70949
public computational chemistry database (PCCDB) project, http://pccdb.org

 16 16  0  0  0  0  0  0  0  0999 V2000
   -1.4006   -0.0713   -0.0437 C   0  0  0  0  0  0  0  0  0  0  0  0
   -0.7862    1.1802   -0.0244 C   0  0  0  0  0  0  0  0  0  0  0  0
    0.7594   -1.1217   -0.1079 C   0  0  0  0  0  0  0  0  0  0  0  0
    2.8756    0.1274   -0.1170 C   0  0  0  0  0  0  0  0  0  0  0  0
    1.3949    0.1274   -0.0898 C   0  0  0  0  0  0  0  0  0  0  0  0
   -0.6283   -1.2357   -0.0851 C   0  0  0  0  0  0  0  0  0  0  0  0
    0.6066    1.3014   -0.0466 C   0  0  0  0  0  0  0  0  0  0  0  0
    3.6067    1.0963   -0.1025 O   0  0  0  0  0  0  0  0  0  0  0  0
   -1.1675   -2.4955   -0.1052 O   0  0  0  0  0  0  0  0  0  0  0  0
    1.2234    2.5125   -0.0287 O   0  0  0  0  0  0  0  0  0  0  0  0
   -2.4870   -0.1350   -0.0261 H   0  0  0  0  0  0  0  0  0  0  0  0
   -1.4017    2.0774    0.0068 H   0  0  0  0  0  0  0  0  0  0  0  0
    1.3592   -2.0273   -0.1417 H   0  0  0  0  0  0  0  0  0  0  0  0
    3.3029   -0.9018   -0.1549 H   0  0  0  0  0  0  0  0  0  0  0  0
   -2.1344   -2.4276   -0.0860 H   0  0  0  0  0  0  0  0  0  0  0  0
    0.5441    3.2051   -0.0032 H   0  0  0  0  0  0  0  0  0  0  0  0
  1 11  1  0  0  0  0
  1  2  1  0  0  0  0
  2 12  1  0  0  0  0
  3  5  2  0  0  0  0
  3  6  1  0  0  0  0
  4  8  2  0  0  0  0
  4  5  1  0  0  0  0
  5  7  1  0  0  0  0
  6  1  2  0  0  0  0
  7 10  1  0  0  0  0
  7  2  2  0  0  0  0
  9 15  1  0  0  0  0
  9  6  1  0  0  0  0
 10 16  1  0  0  0  0
 13  3  1  0  0  0  0
 14  4  1  0  0  0  0
M  END
>  <HBA>
3

>  <HBD>
2

>  <TPSA>
57.53

>  <cid>
70949

>  <dipole>
5.36

>  <excitation_energy_1>
3.567

>  <excitation_energy_2>
3.811

>  <excitation_energy_3>
4.943

>  <excitation_energy_4>
5.115

>  <homo_energy>
-5.864

>  <homo_lumo_gap>
4.346

>  <logP>
0.91

>  <lumo_energy>
-1.518

>  <melting_point>
119.04

>  <molecular_refractivity>
35.88

>  <oscillator_strength_1>
0.0001

>  <oscillator_strength_2>
0.08

>  <oscillator_strength_3>
0.0

>  <oscillator_strength_4>
0.0003

>  <open_babel_can_smiles>
O=Cc1cc(O)ccc1O

>  <mulliken_charges>
16
1   -0.187183
2   -0.19476
3   -0.240676
4   0.193212
5   0.087252
6   0.355629
7   0.307364
8   -0.394795
9   -0.647008
10   -0.607344
11   0.130699
12   0.128295
13   0.154088
14   0.098812
15   0.408242
16   0.408174

>  <lowdin_charges>
16
1   -0.180483
2   -0.203281
3   -0.161003
4   0.045828
5   -0.070073
6   0.083511
7   0.10917
8   -0.215744
9   -0.379669
10   -0.347575
11   0.157494
12   0.1589
13   0.173643
14   0.113609
15   0.356455
16   0.359215

$$$$

