PCCDB-ID:  66831
public computational chemistry database (PCCDB) project, http://pccdb.org

 26 26  0  0  0  0  0  0  0  0999 V2000
    2.4124   -0.7610   -0.3209 C   0  0  0  0  0  0  0  0  0  0  0  0
   -2.9165    6.0940   -1.2587 C   0  0  0  0  0  0  0  0  0  0  0  0
    0.8086    3.1043   -0.5714 C   0  0  0  0  0  0  0  0  0  0  0  0
    3.0163    4.0163   -0.1389 C   0  0  0  0  0  0  0  0  0  0  0  0
    1.1519    5.5084   -0.4782 C   0  0  0  0  0  0  0  0  0  0  0  0
    2.1694    2.9178   -0.3141 C   0  0  0  0  0  0  0  0  0  0  0  0
    0.3071    4.4075   -0.6522 C   0  0  0  0  0  0  0  0  0  0  0  0
    2.5196    5.3251   -0.2180 C   0  0  0  0  0  0  0  0  0  0  0  0
    2.7854    1.5614   -0.2186 C   0  0  0  0  0  0  0  0  0  0  0  0
   -1.1495    4.5714   -0.9316 C   0  0  0  0  0  0  0  0  0  0  0  0
    3.3525    6.4197    0.0164 N   0  0  0  0  0  0  0  0  0  0  0  0
    3.9640    1.3558   -0.0002 O   0  0  0  0  0  0  0  0  0  0  0  0
   -1.9287    3.6524   -1.0878 O   0  0  0  0  0  0  0  0  0  0  0  0
    1.8849    0.5714   -0.4027 O   0  0  0  0  0  0  0  0  0  0  0  0
   -1.5229    5.8719   -0.9957 O   0  0  0  0  0  0  0  0  0  0  0  0
    1.5606   -1.4218   -0.4837 H   0  0  0  0  0  0  0  0  0  0  0  0
    2.8560   -0.9387    0.6625 H   0  0  0  0  0  0  0  0  0  0  0  0
    3.1754   -0.9198   -1.0878 H   0  0  0  0  0  0  0  0  0  0  0  0
   -3.0447    7.1769   -1.2597 H   0  0  0  0  0  0  0  0  0  0  0  0
   -3.5324    5.6339   -0.4816 H   0  0  0  0  0  0  0  0  0  0  0  0
   -3.1964    5.6724   -2.2279 H   0  0  0  0  0  0  0  0  0  0  0  0
    0.1406    2.2645   -0.7105 H   0  0  0  0  0  0  0  0  0  0  0  0
    4.0673    3.8322    0.0636 H   0  0  0  0  0  0  0  0  0  0  0  0
    0.7420    6.5112   -0.5393 H   0  0  0  0  0  0  0  0  0  0  0  0
    4.3383    6.2521   -0.1409 H   0  0  0  0  0  0  0  0  0  0  0  0
    3.0487    7.2911   -0.3994 H   0  0  0  0  0  0  0  0  0  0  0  0
  1 17  1  0  0  0  0
  2 15  1  0  0  0  0
  2 20  1  0  0  0  0
  3  6  1  0  0  0  0
  4 23  1  0  0  0  0
  5  8  2  0  0  0  0
  6  9  1  0  0  0  0
  6  4  2  0  0  0  0
  7  3  2  0  0  0  0
  7  5  1  0  0  0  0
  8  4  1  0  0  0  0
  8 11  1  0  0  0  0
  9 12  2  0  0  0  0
 10  7  1  0  0  0  0
 13 10  2  0  0  0  0
 14  1  1  0  0  0  0
 14  9  1  0  0  0  0
 15 10  1  0  0  0  0
 16  1  1  0  0  0  0
 18  1  1  0  0  0  0
 19  2  1  0  0  0  0
 21  2  1  0  0  0  0
 22  3  1  0  0  0  0
 24  5  1  0  0  0  0
 25 11  1  0  0  0  0
 26 11  1  0  0  0  0
M  END
>  <HBA>
5

>  <HBD>
1

>  <TPSA>
78.62

>  <cid>
66831

>  <dipole>
2.85

>  <excitation_energy_1>
3.784

>  <excitation_energy_2>
4.57

>  <excitation_energy_3>
4.786

>  <excitation_energy_4>
4.88

>  <homo_energy>
-5.861

>  <homo_lumo_gap>
4.444

>  <logP>
1.423

>  <lumo_energy>
-1.418

>  <melting_point>
106.37

>  <molecular_refractivity>
53.41

>  <oscillator_strength_1>
0.0668

>  <oscillator_strength_2>
0.0272

>  <oscillator_strength_3>
0.0002

>  <oscillator_strength_4>
0.0

>  <open_babel_can_smiles>
COC(=O)c1cc(N)cc(c1)C(=O)OC

>  <mulliken_charges>
26
1   -0.216488
2   -0.216173
3   -0.202852
4   -0.197002
5   -0.201506
6   0.038808
7   0.038134
8   0.318288
9   0.599665
10   0.600636
11   -0.793164
12   -0.495457
13   -0.488912
14   -0.46283
15   -0.472011
16   0.166885
17   0.171394
18   0.170353
19   0.162606
20   0.173008
21   0.171447
22   0.178527
23   0.156388
24   0.149324
25   0.326741
26   0.324191

>  <lowdin_charges>
26
1   -0.276407
2   -0.275041
3   -0.145273
4   -0.160065
5   -0.169963
6   -0.036034
7   -0.037539
8   0.057671
9   0.19375
10   0.20009
11   -0.482562
12   -0.27115
13   -0.266667
14   -0.184533
15   -0.195647
16   0.162451
17   0.15975
18   0.160233
19   0.157401
20   0.162196
21   0.159758
22   0.188176
23   0.173345
24   0.169143
25   0.278313
26   0.278602

$$$$

