PCCDB-ID:  43804
public computational chemistry database (PCCDB) project, http://pccdb.org

 30 29  0  0  0  0  0  0  0  0999 V2000
    0.9807    0.0758   -0.2108 C   0  0  0  0  0  0  0  0  0  0  0  0
    3.8249   -4.2389    2.8657 C   0  0  0  0  0  0  0  0  0  0  0  0
    3.6669   -2.6006   -3.7834 C   0  0  0  0  0  0  0  0  0  0  0  0
    2.1843    0.0086   -0.1239 C   0  0  0  0  0  0  0  0  0  0  0  0
    4.2451   -3.6823    1.5004 C   0  0  0  0  0  0  0  0  0  0  0  0
    4.1381   -1.7139   -2.6245 C   0  0  0  0  0  0  0  0  0  0  0  0
    3.6402   -0.0820   -0.0175 C   0  0  0  0  0  0  0  0  0  0  0  0
    3.7633   -2.2406    1.2891 C   0  0  0  0  0  0  0  0  0  0  0  0
    3.7907   -2.3259   -1.2579 C   0  0  0  0  0  0  0  0  0  0  0  0
    4.2368   -1.5356   -0.0058 C   0  0  0  0  0  0  0  0  0  0  0  0
    5.7084   -1.4795    0.0216 N   0  0  0  0  0  0  0  0  0  0  0  0
   -0.0808    0.1387   -0.2888 H   0  0  0  0  0  0  0  0  0  0  0  0
    4.1733   -5.2697    2.9976 H   0  0  0  0  0  0  0  0  0  0  0  0
    2.7335   -4.2396    2.9777 H   0  0  0  0  0  0  0  0  0  0  0  0
    4.2398   -3.6402    3.6865 H   0  0  0  0  0  0  0  0  0  0  0  0
    3.9161   -2.1565   -4.7539 H   0  0  0  0  0  0  0  0  0  0  0  0
    2.5801   -2.7446   -3.7509 H   0  0  0  0  0  0  0  0  0  0  0  0
    4.1342   -3.5917   -3.7386 H   0  0  0  0  0  0  0  0  0  0  0  0
    3.8423   -4.3312    0.7129 H   0  0  0  0  0  0  0  0  0  0  0  0
    5.3358   -3.7142    1.3993 H   0  0  0  0  0  0  0  0  0  0  0  0
    3.6778   -0.7229   -2.7260 H   0  0  0  0  0  0  0  0  0  0  0  0
    5.2243   -1.5697   -2.7089 H   0  0  0  0  0  0  0  0  0  0  0  0
    3.9662    0.4222    0.9037 H   0  0  0  0  0  0  0  0  0  0  0  0
    4.0962    0.4766   -0.8457 H   0  0  0  0  0  0  0  0  0  0  0  0
    4.1055   -1.6313    2.1417 H   0  0  0  0  0  0  0  0  0  0  0  0
    2.6666   -2.2072    1.3197 H   0  0  0  0  0  0  0  0  0  0  0  0
    4.2458   -3.3207   -1.2022 H   0  0  0  0  0  0  0  0  0  0  0  0
    2.7032   -2.4650   -1.2038 H   0  0  0  0  0  0  0  0  0  0  0  0
    6.0156   -0.9829    0.8583 H   0  0  0  0  0  0  0  0  0  0  0  0
    6.0548   -0.9397   -0.7702 H   0  0  0  0  0  0  0  0  0  0  0  0
  1  4  3  0  0  0  0
  2 14  1  0  0  0  0
  2 13  1  0  0  0  0
  2 15  1  0  0  0  0
  3 17  1  0  0  0  0
  3 18  1  0  0  0  0
  3  6  1  0  0  0  0
  4  7  1  0  0  0  0
  5  2  1  0  0  0  0
  6  9  1  0  0  0  0
  7 10  1  0  0  0  0
  7 23  1  0  0  0  0
  8 26  1  0  0  0  0
  8  5  1  0  0  0  0
  8 25  1  0  0  0  0
  9 28  1  0  0  0  0
  9 27  1  0  0  0  0
  9 10  1  0  0  0  0
 10 11  1  0  0  0  0
 10  8  1  0  0  0  0
 11 29  1  0  0  0  0
 12  1  1  0  0  0  0
 16  3  1  0  0  0  0
 19  5  1  0  0  0  0
 20  5  1  0  0  0  0
 21  6  1  0  0  0  0
 22  6  1  0  0  0  0
 24  7  1  0  0  0  0
 30 11  1  0  0  0  0
M  END
>  <HBA>
1

>  <HBD>
1

>  <TPSA>
26.02

>  <cid>
43804

>  <dipole>
0.98

>  <excitation_energy_1>
5.588

>  <excitation_energy_2>
6.168

>  <excitation_energy_3>
6.26

>  <excitation_energy_4>
6.35

>  <homo_energy>
-6.291

>  <homo_lumo_gap>
7.633

>  <logP>
3.008

>  <lumo_energy>
1.342

>  <melting_point>
53.4

>  <molecular_refractivity>
51.09

>  <oscillator_strength_1>
0.0163

>  <oscillator_strength_2>
0.002

>  <oscillator_strength_3>
0.0465

>  <oscillator_strength_4>
0.0003

>  <open_babel_can_smiles>
CCCC(CC#C)(CCC)N

>  <mulliken_charges>
30
1   -0.524362
2   -0.444241
3   -0.442394
4   0.368697
5   -0.25132
6   -0.27082
7   -0.42526
8   -0.257635
9   -0.25018
10   0.173666
11   -0.715042
12   0.185958
13   0.140959
14   0.139986
15   0.137739
16   0.141005
17   0.145468
18   0.144137
19   0.133698
20   0.154855
21   0.139271
22   0.128657
23   0.155453
24   0.159224
25   0.111934
26   0.145448
27   0.147604
28   0.140632
29   0.290372
30   0.29649

>  <lowdin_charges>
30
1   -0.266243
2   -0.441921
3   -0.439178
4   -0.040712
5   -0.275214
6   -0.27561
7   -0.284925
8   -0.277701
9   -0.280008
10   0.065139
11   -0.544349
12   0.201671
13   0.147795
14   0.143151
15   0.144832
16   0.148636
17   0.146457
18   0.146938
19   0.142228
20   0.149246
21   0.141802
22   0.135006
23   0.161968
24   0.163078
25   0.134092
26   0.149536
27   0.151385
28   0.148472
29   0.251844
30   0.252584

$$$$

