PCCDB-ID:  44788
public computational chemistry database (PCCDB) project, http://pccdb.org

 30 29  0  0  1  0  0  0  0  0999 V2000
    4.4771    1.8661    2.1318 C   0  0  0  0  0  0  0  0  0  0  0  0
    3.1768    1.9394   -3.7324 C   0  0  0  0  0  0  0  0  0  0  0  0
    4.0680    0.9092    1.0078 C   0  0  0  0  0  0  0  0  0  0  0  0
    4.6743    1.7566   -3.4613 C   0  0  0  0  0  0  0  0  0  0  0  0
    4.8091    1.1743   -0.3100 C   0  0  0  0  0  0  0  0  0  0  0  0
    4.3847    0.2013   -1.4194 C   0  0  0  0  0  0  0  0  0  0  0  0
    5.0472    0.4051   -2.8027 C   0  0  2  0  0  0  0  0  0  0  0  0
    6.5901    0.2443   -2.8033 C   0  0  1  0  0  0  0  0  0  0  0  0
    7.1217   -1.0466   -2.1370 C   0  0  0  0  0  0  0  0  0  0  0  0
    7.1243    0.3223   -4.1428 O   0  0  0  0  0  0  0  0  0  0  0  0
    6.8819   -1.3606   -0.9942 O   0  0  0  0  0  0  0  0  0  0  0  0
    7.9182   -1.7809   -2.9316 O   0  0  0  0  0  0  0  0  0  0  0  0
    3.9331    1.6498    3.0583 H   0  0  0  0  0  0  0  0  0  0  0  0
    4.2716    2.9095    1.8612 H   0  0  0  0  0  0  0  0  0  0  0  0
    5.5492    1.7853    2.3488 H   0  0  0  0  0  0  0  0  0  0  0  0
    2.9993    2.8647   -4.2915 H   0  0  0  0  0  0  0  0  0  0  0  0
    2.5929    1.9986   -2.8085 H   0  0  0  0  0  0  0  0  0  0  0  0
    2.7741    1.1101   -4.3279 H   0  0  0  0  0  0  0  0  0  0  0  0
    2.9841    0.9854    0.8380 H   0  0  0  0  0  0  0  0  0  0  0  0
    4.2574   -0.1265    1.3208 H   0  0  0  0  0  0  0  0  0  0  0  0
    5.0371    2.5766   -2.8281 H   0  0  0  0  0  0  0  0  0  0  0  0
    5.2173    1.8584   -4.4083 H   0  0  0  0  0  0  0  0  0  0  0  0
    5.8872    1.0745   -0.1311 H   0  0  0  0  0  0  0  0  0  0  0  0
    4.6307    2.2152   -0.6157 H   0  0  0  0  0  0  0  0  0  0  0  0
    3.2985    0.2701   -1.5617 H   0  0  0  0  0  0  0  0  0  0  0  0
    4.5877   -0.8175   -1.0803 H   0  0  0  0  0  0  0  0  0  0  0  0
    4.6589   -0.3998   -3.4530 H   0  0  0  0  0  0  0  0  0  0  0  0
    7.0440    1.0789   -2.2571 H   0  0  0  0  0  0  0  0  0  0  0  0
    6.4236    0.0486   -4.7575 H   0  0  0  0  0  0  0  0  0  0  0  0
    8.0092   -1.2637   -3.7626 H   0  0  0  0  0  0  0  0  0  0  0  0
  1 15  1  0  0  0  0
  1 13  1  0  0  0  0
  2  4  1  0  0  0  0
  2 17  1  0  0  0  0
  3 20  1  0  0  0  0
  3  1  1  0  0  0  0
  4 21  1  0  0  0  0
  4  7  1  0  0  0  0
  5 23  1  0  0  0  0
  5  3  1  0  0  0  0
  6 26  1  0  0  0  0
  6  5  1  0  0  0  0
  7 27  1  6  0  0  0
  7  6  1  0  0  0  0
  8  7  1  0  0  0  0
  8 28  1  1  0  0  0
  8  9  1  0  0  0  0
  9 11  2  0  0  0  0
 10  8  1  0  0  0  0
 12  9  1  0  0  0  0
 14  1  1  0  0  0  0
 16  2  1  0  0  0  0
 18  2  1  0  0  0  0
 19  3  1  0  0  0  0
 22  4  1  0  0  0  0
 24  5  1  0  0  0  0
 25  6  1  0  0  0  0
 29 10  1  0  0  0  0
 30 12  1  0  0  0  0
M  END
>  <HBA>
3

>  <HBD>
2

>  <TPSA>
57.53

>  <cid>
44788

>  <dipole>
4.15

>  <excitation_energy_1>
5.478

>  <excitation_energy_2>
6.131

>  <excitation_energy_3>
6.912

>  <excitation_energy_4>
7.028

>  <homo_energy>
-7.031

>  <homo_lumo_gap>
7.29

>  <logP>
1.648

>  <lumo_energy>
0.259

>  <melting_point>
67.22

>  <molecular_refractivity>
48.31

>  <oscillator_strength_1>
0.0006

>  <oscillator_strength_2>
0.0028

>  <oscillator_strength_3>
0.0021

>  <oscillator_strength_4>
0.0011

>  <open_babel_can_smiles>
CCCC[C@H]([C@@H](C(=O)O)O)CC

>  <mulliken_charges>
30
1   -0.443379
2   -0.451575
3   -0.250049
4   -0.25624
5   -0.257621
6   -0.272792
7   -0.136404
8   0.041924
9   0.585847
10   -0.651576
11   -0.45489
12   -0.576905
13   0.142187
14   0.137316
15   0.146041
16   0.149785
17   0.156614
18   0.141605
19   0.125426
20   0.14531
21   0.14672
22   0.131971
23   0.146097
24   0.12343
25   0.131813
26   0.171203
27   0.114219
28   0.182137
29   0.406753
30   0.425035

>  <lowdin_charges>
30
1   -0.441559
2   -0.447742
3   -0.266856
4   -0.281971
5   -0.277764
6   -0.280174
7   -0.137555
8   -0.043123
9   0.171027
10   -0.458998
11   -0.249382
12   -0.348363
13   0.149729
14   0.142772
15   0.146941
16   0.154843
17   0.152657
18   0.147732
19   0.134053
20   0.14527
21   0.148512
22   0.141731
23   0.144384
24   0.13277
25   0.141264
26   0.161958
27   0.134921
28   0.171397
29   0.351008
30   0.360517

$$$$

