PCCDB-ID:  27198
public computational chemistry database (PCCDB) project, http://pccdb.org

 34 35  0  0  0  0  0  0  0  0999 V2000
    6.9381   -3.7819    0.8677 C   0  0  0  0  0  0  0  0  0  0  0  0
    6.6764   -6.1229   -0.0693 C   0  0  0  0  0  0  0  0  0  0  0  0
    1.4976   -1.3235   -6.2295 C   0  0  0  0  0  0  0  0  0  0  0  0
    0.2926   -0.6251   -6.0066 C   0  0  0  0  0  0  0  0  0  0  0  0
    2.1577   -1.9660   -5.1905 C   0  0  0  0  0  0  0  0  0  0  0  0
   -0.2770   -0.5545   -4.7410 C   0  0  0  0  0  0  0  0  0  0  0  0
    3.2142   -3.2890   -2.3120 C   0  0  0  0  0  0  0  0  0  0  0  0
    1.0399   -2.0571   -1.7160 C   0  0  0  0  0  0  0  0  0  0  0  0
    6.7357   -4.6280   -0.3895 C   0  0  0  0  0  0  0  0  0  0  0  0
    2.0011   -2.4559   -2.6136 C   0  0  0  0  0  0  0  0  0  0  0  0
    1.6054   -1.9154   -3.8963 C   0  0  0  0  0  0  0  0  0  0  0  0
    0.3898   -1.2034   -3.6965 C   0  0  0  0  0  0  0  0  0  0  0  0
    4.5189   -2.5137   -2.1709 C   0  0  0  0  0  0  0  0  0  0  0  0
    0.0728   -1.3107   -2.3578 N   0  0  0  0  0  0  0  0  0  0  0  0
    5.4675   -4.2481   -1.0398 N   0  0  0  0  0  0  0  0  0  0  0  0
    5.5693   -2.9430   -1.5868 N   0  0  0  0  0  0  0  0  0  0  0  0
    4.5950   -1.2750   -2.7286 O   0  0  0  0  0  0  0  0  0  0  0  0
    7.9002   -4.0149    1.3387 H   0  0  0  0  0  0  0  0  0  0  0  0
    6.1375   -3.9757    1.5918 H   0  0  0  0  0  0  0  0  0  0  0  0
    6.9234   -2.7188    0.6127 H   0  0  0  0  0  0  0  0  0  0  0  0
    7.6006   -6.4472    0.4204 H   0  0  0  0  0  0  0  0  0  0  0  0
    6.5529   -6.7268   -0.9781 H   0  0  0  0  0  0  0  0  0  0  0  0
    5.8364   -6.3407    0.6006 H   0  0  0  0  0  0  0  0  0  0  0  0
    1.9146   -1.3568   -7.2321 H   0  0  0  0  0  0  0  0  0  0  0  0
   -0.1993   -0.1312   -6.8398 H   0  0  0  0  0  0  0  0  0  0  0  0
    3.0909   -2.4929   -5.3722 H   0  0  0  0  0  0  0  0  0  0  0  0
   -1.2040   -0.0135   -4.5704 H   0  0  0  0  0  0  0  0  0  0  0  0
    3.3412   -4.0497   -3.0987 H   0  0  0  0  0  0  0  0  0  0  0  0
    3.0859   -3.8514   -1.3792 H   0  0  0  0  0  0  0  0  0  0  0  0
    0.9671   -2.2584   -0.6558 H   0  0  0  0  0  0  0  0  0  0  0  0
    7.5803   -4.4401   -1.0737 H   0  0  0  0  0  0  0  0  0  0  0  0
   -0.7379   -0.9070   -1.9148 H   0  0  0  0  0  0  0  0  0  0  0  0
    5.2826   -4.9179   -1.7902 H   0  0  0  0  0  0  0  0  0  0  0  0
    3.7031   -1.0172   -3.0177 H   0  0  0  0  0  0  0  0  0  0  0  0
  1 18  1  0  0  0  0
  1 19  1  0  0  0  0
  2 21  1  0  0  0  0
  2 23  1  0  0  0  0
  3  4  2  0  0  0  0
  3  5  1  0  0  0  0
  4  6  1  0  0  0  0
  5 11  2  0  0  0  0
  6 27  1  0  0  0  0
  6 12  2  0  0  0  0
  7 13  1  0  0  0  0
  7 29  1  0  0  0  0
  8 30  1  0  0  0  0
  9  2  1  0  0  0  0
  9  1  1  0  0  0  0
 10  7  1  0  0  0  0
 10  8  2  0  0  0  0
 11 12  1  0  0  0  0
 11 10  1  0  0  0  0
 12 14  1  0  0  0  0
 13 16  2  0  0  0  0
 14 32  1  0  0  0  0
 14  8  1  0  0  0  0
 15  9  1  0  0  0  0
 16 15  1  0  0  0  0
 17 13  1  0  0  0  0
 20  1  1  0  0  0  0
 22  2  1  0  0  0  0
 24  3  1  0  0  0  0
 25  4  1  0  0  0  0
 26  5  1  0  0  0  0
 28  7  1  0  0  0  0
 31  9  1  0  0  0  0
 33 15  1  0  0  0  0
 34 17  1  0  0  0  0
M  END
>  <HBA>
3

>  <HBD>
3

>  <TPSA>
56.92

>  <cid>
27198

>  <dipole>
4.69

>  <excitation_energy_1>
4.034

>  <excitation_energy_2>
4.625

>  <excitation_energy_3>
4.672

>  <excitation_energy_4>
4.728

>  <homo_energy>
-5.138

>  <homo_lumo_gap>
4.615

>  <logP>
2.521

>  <lumo_energy>
-0.522

>  <melting_point>
172.86

>  <molecular_refractivity>
68.3

>  <oscillator_strength_1>
0.0149

>  <oscillator_strength_2>
0.0069

>  <oscillator_strength_3>
0.0632

>  <oscillator_strength_4>
0.003

>  <open_babel_can_smiles>
CC(N/N=C(\Cc1c[nH]c2c1cccc2)/O)C

>  <mulliken_charges>
34
1   -0.436922
2   -0.463024
3   -0.137356
4   -0.150018
5   -0.207754
6   -0.16012
7   -0.443139
8   0.018187
9   0.084656
10   0.004958
11   0.055156
12   0.319472
13   0.501086
14   -0.686849
15   -0.458022
16   -0.324787
17   -0.599123
18   0.130475
19   0.136907
20   0.173337
21   0.148357
22   0.132172
23   0.150876
24   0.128595
25   0.129354
26   0.135994
27   0.126937
28   0.168434
29   0.191093
30   0.161361
31   0.121011
32   0.332386
33   0.295492
34   0.420818

>  <lowdin_charges>
34
1   -0.448996
2   -0.452607
3   -0.170195
4   -0.160869
5   -0.166749
6   -0.183243
7   -0.304874
8   -0.122451
9   -0.057204
10   -0.083515
11   -0.051659
12   0.031354
13   0.099103
14   -0.193818
15   -0.287101
16   -0.163326
17   -0.369026
18   0.145351
19   0.146961
20   0.163584
21   0.155526
22   0.143292
23   0.15246
24   0.158
25   0.15996
26   0.160772
27   0.158008
28   0.165069
29   0.179203
30   0.169123
31   0.127291
32   0.295204
33   0.246656
34   0.358716

$$$$

