PCCDB-ID:  13250
public computational chemistry database (PCCDB) project, http://pccdb.org

 24 24  0  0  0  0  0  0  0  0999 V2000
    2.7596   -3.5286   -0.3098 C   0  0  0  0  0  0  0  0  0  0  0  0
    3.9850   -3.2699   -1.1740 C   0  0  0  0  0  0  0  0  0  0  0  0
    5.2935    1.3239   -0.3553 C   0  0  0  0  0  0  0  0  0  0  0  0
    6.5767   -0.4934    0.6154 C   0  0  0  0  0  0  0  0  0  0  0  0
    5.5032   -0.0483   -0.1676 C   0  0  0  0  0  0  0  0  0  0  0  0
    6.1581    2.2294    0.2427 C   0  0  0  0  0  0  0  0  0  0  0  0
    7.4418    0.4219    1.2135 C   0  0  0  0  0  0  0  0  0  0  0  0
    7.2372    1.7989    1.0300 C   0  0  0  0  0  0  0  0  0  0  0  0
    4.5562   -0.9830   -0.8250 C   0  0  0  0  0  0  0  0  0  0  0  0
    6.0541    3.5982    0.1301 O   0  0  0  0  0  0  0  0  0  0  0  0
    8.5056    0.0576    1.9882 O   0  0  0  0  0  0  0  0  0  0  0  0
    8.0794    2.6893    1.6133 O   0  0  0  0  0  0  0  0  0  0  0  0
    3.6152   -0.6325   -1.5147 O   0  0  0  0  0  0  0  0  0  0  0  0
    4.8553   -2.2821   -0.5766 O   0  0  0  0  0  0  0  0  0  0  0  0
    2.1550   -4.3288   -0.7522 H   0  0  0  0  0  0  0  0  0  0  0  0
    2.1422   -2.6287   -0.2417 H   0  0  0  0  0  0  0  0  0  0  0  0
    3.0515   -3.8357    0.6999 H   0  0  0  0  0  0  0  0  0  0  0  0
    3.6987   -2.9291   -2.1719 H   0  0  0  0  0  0  0  0  0  0  0  0
    4.6095   -4.1629   -1.2612 H   0  0  0  0  0  0  0  0  0  0  0  0
    4.4579    1.6530   -0.9659 H   0  0  0  0  0  0  0  0  0  0  0  0
    6.7332   -1.5581    0.7573 H   0  0  0  0  0  0  0  0  0  0  0  0
    5.2866    3.8199   -0.4181 H   0  0  0  0  0  0  0  0  0  0  0  0
    8.5338   -0.9106    2.0335 H   0  0  0  0  0  0  0  0  0  0  0  0
    7.7705    3.5782    1.3654 H   0  0  0  0  0  0  0  0  0  0  0  0
  1 16  1  0  0  0  0
  1 17  1  0  0  0  0
  2 14  1  0  0  0  0
  2  1  1  0  0  0  0
  3  5  2  0  0  0  0
  3  6  1  0  0  0  0
  4 21  1  0  0  0  0
  4  7  2  0  0  0  0
  5  4  1  0  0  0  0
  6  8  2  0  0  0  0
  7 11  1  0  0  0  0
  8  7  1  0  0  0  0
  8 12  1  0  0  0  0
  9 14  1  0  0  0  0
  9  5  1  0  0  0  0
 10  6  1  0  0  0  0
 11 23  1  0  0  0  0
 13  9  2  0  0  0  0
 15  1  1  0  0  0  0
 18  2  1  0  0  0  0
 19  2  1  0  0  0  0
 20  3  1  0  0  0  0
 22 10  1  0  0  0  0
 24 12  1  0  0  0  0
M  END
>  <HBA>
5

>  <HBD>
3

>  <TPSA>
86.99

>  <cid>
13250

>  <dipole>
1.14

>  <excitation_energy_1>
4.42

>  <excitation_energy_2>
4.554

>  <excitation_energy_3>
4.831

>  <excitation_energy_4>
4.994

>  <homo_energy>
-5.774

>  <homo_lumo_gap>
4.819

>  <logP>
0.98

>  <lumo_energy>
-0.955

>  <melting_point>
151.52

>  <molecular_refractivity>
48.6

>  <oscillator_strength_1>
0.068

>  <oscillator_strength_2>
0.2183

>  <oscillator_strength_3>
0.001

>  <oscillator_strength_4>
0.0001

>  <open_babel_can_smiles>
CCOC(=O)c1cc(O)c(c(c1)O)O

>  <mulliken_charges>
24
1   -0.4613
2   -0.040333
3   -0.236041
4   -0.245949
5   0.039344
6   0.309351
7   0.318411
8   0.295558
9   0.5981
10   -0.683134
11   -0.634177
12   -0.634326
13   -0.504018
14   -0.484159
15   0.149107
16   0.177901
17   0.155203
18   0.170593
19   0.149563
20   0.152326
21   0.143331
22   0.422588
23   0.410982
24   0.431079

>  <lowdin_charges>
24
1   -0.455696
2   -0.127209
3   -0.199068
4   -0.205329
5   -0.046988
6   0.062396
7   0.081312
8   0.066179
9   0.199717
10   -0.400717
11   -0.364244
12   -0.355783
13   -0.284077
14   -0.198616
15   0.159228
16   0.16656
17   0.154398
18   0.158325
19   0.151153
20   0.175386
21   0.167473
22   0.36941
23   0.358327
24   0.367863

$$$$

