PCCDB-ID:  69304
public computational chemistry database (PCCDB) project, http://pccdb.org

 17 17  0  0  0  0  0  0  0  0999 V2000
    0.8100    0.2729    0.4011 C   0  0  0  0  0  0  0  0  0  0  0  0
    4.5267    0.9911   -0.1338 C   0  0  0  0  0  0  0  0  0  0  0  0
    3.1696    1.1678    0.1434 C   0  0  0  0  0  0  0  0  0  0  0  0
    5.0299   -0.2696   -0.4377 C   0  0  0  0  0  0  0  0  0  0  0  0
    2.7861   -1.1854   -0.1832 C   0  0  0  0  0  0  0  0  0  0  0  0
    5.0326   -3.6973   -1.0324 C   0  0  0  0  0  0  0  0  0  0  0  0
    2.2832    0.0828    0.1215 C   0  0  0  0  0  0  0  0  0  0  0  0
    4.1489   -1.3624   -0.4651 C   0  0  0  0  0  0  0  0  0  0  0  0
    4.6248   -2.6165   -0.7637 N   0  0  0  0  0  0  0  0  0  0  0  0
    5.5820   -5.1515   -1.3908 S   0  0  0  0  0  0  0  0  0  0  0  0
    0.6241    1.2101    0.9349 H   0  0  0  0  0  0  0  0  0  0  0  0
    0.4076   -0.5470    1.0056 H   0  0  0  0  0  0  0  0  0  0  0  0
    0.2310    0.3044   -0.5310 H   0  0  0  0  0  0  0  0  0  0  0  0
    5.1991    1.8440   -0.1099 H   0  0  0  0  0  0  0  0  0  0  0  0
    2.7938    2.1594    0.3820 H   0  0  0  0  0  0  0  0  0  0  0  0
    6.0819   -0.4231   -0.6530 H   0  0  0  0  0  0  0  0  0  0  0  0
    2.1286   -2.0495   -0.2065 H   0  0  0  0  0  0  0  0  0  0  0  0
  1 11  1  0  0  0  0
  1 12  1  0  0  0  0
  2 14  1  0  0  0  0
  2  3  2  0  0  0  0
  3 15  1  0  0  0  0
  4  2  1  0  0  0  0
  5  7  2  0  0  0  0
  6  9  2  0  0  0  0
  7  3  1  0  0  0  0
  7  1  1  0  0  0  0
  8  4  2  0  0  0  0
  8  5  1  0  0  0  0
  9  8  1  0  0  0  0
 10  6  2  0  0  0  0
 13  1  1  0  0  0  0
 16  4  1  0  0  0  0
 17  5  1  0  0  0  0
M  END
>  <HBA>
2

>  <HBD>
0

>  <TPSA>
44.45

>  <cid>
69304

>  <dipole>
4.27

>  <excitation_energy_1>
4.402

>  <excitation_energy_2>
4.537

>  <excitation_energy_3>
4.715

>  <excitation_energy_4>
5.067

>  <homo_energy>
-6.212

>  <homo_lumo_gap>
5.004

>  <logP>
2.729

>  <lumo_energy>
-1.208

>  <melting_point>
64.94

>  <molecular_refractivity>
46.09

>  <oscillator_strength_1>
0.0001

>  <oscillator_strength_2>
0.4042

>  <oscillator_strength_3>
0.0128

>  <oscillator_strength_4>
0.0

>  <open_babel_can_smiles>
S=C=Nc1cccc(c1)C

>  <mulliken_charges>
17
1   -0.530489
2   -0.138842
3   -0.170332
4   -0.129745
5   -0.179107
6   0.136495
7   0.164462
8   0.278492
9   -0.378332
10   -0.123941
11   0.16109
12   0.165843
13   0.172888
14   0.142321
15   0.131694
16   0.152006
17   0.145498

>  <lowdin_charges>
17
1   -0.442585
2   -0.145809
3   -0.164551
4   -0.161612
5   -0.169051
6   -0.042142
7   0.011366
8   0.059173
9   -0.052194
10   -0.048705
11   0.160722
12   0.164153
13   0.166498
14   0.165572
15   0.159664
16   0.17017
17   0.169331

$$$$

