PCCDB-ID:  68991
public computational chemistry database (PCCDB) project, http://pccdb.org

 20 19  0  0  0  0  0  0  0  0999 V2000
    2.3581   -2.0769   -1.4478 C   0  0  0  0  0  0  0  0  0  0  0  0
    3.0019   -0.3526    2.0410 C   0  0  0  0  0  0  0  0  0  0  0  0
    2.2807   -1.0735   -0.2928 C   0  0  0  0  0  0  0  0  0  0  0  0
    2.4091   -2.7330    1.5823 C   0  0  0  0  0  0  0  0  0  0  0  0
    4.5771   -1.6686    0.5928 C   0  0  0  0  0  0  0  0  0  0  0  0
    3.1015   -1.4715    0.9701 C   0  0  0  0  0  0  0  0  0  0  0  0
    1.2409   -2.6633    1.8925 O   0  0  0  0  0  0  0  0  0  0  0  0
    3.1182   -3.8477    1.7482 O   0  0  0  0  0  0  0  0  0  0  0  0
    5.2221   -2.6873    0.7657 O   0  0  0  0  0  0  0  0  0  0  0  0
    5.1972   -0.6144    0.0311 O   0  0  0  0  0  0  0  0  0  0  0  0
    1.7381   -1.7395   -2.2846 H   0  0  0  0  0  0  0  0  0  0  0  0
    1.9916   -3.0625   -1.1413 H   0  0  0  0  0  0  0  0  0  0  0  0
    3.3819   -2.1962   -1.8213 H   0  0  0  0  0  0  0  0  0  0  0  0
    1.9578   -0.2546    2.3450 H   0  0  0  0  0  0  0  0  0  0  0  0
    3.3413    0.6157    1.6545 H   0  0  0  0  0  0  0  0  0  0  0  0
    3.5989   -0.5930    2.9269 H   0  0  0  0  0  0  0  0  0  0  0  0
    1.2448   -0.9642    0.0404 H   0  0  0  0  0  0  0  0  0  0  0  0
    2.5996   -0.0792   -0.6394 H   0  0  0  0  0  0  0  0  0  0  0  0
    4.0459   -3.6908    1.4348 H   0  0  0  0  0  0  0  0  0  0  0  0
    4.5841    0.1342   -0.0577 H   0  0  0  0  0  0  0  0  0  0  0  0
  1 12  1  0  0  0  0
  1  3  1  0  0  0  0
  2 14  1  0  0  0  0
  2 16  1  0  0  0  0
  3 17  1  0  0  0  0
  3  6  1  0  0  0  0
  4  8  1  0  0  0  0
  4  7  2  0  0  0  0
  5  9  2  0  0  0  0
  5  6  1  0  0  0  0
  6  4  1  0  0  0  0
  6  2  1  0  0  0  0
 10  5  1  0  0  0  0
 11  1  1  0  0  0  0
 13  1  1  0  0  0  0
 15  2  1  0  0  0  0
 18  3  1  0  0  0  0
 19  8  1  0  0  0  0
 20 10  1  0  0  0  0
M  END
>  <HBA>
4

>  <HBD>
2

>  <TPSA>
74.6

>  <cid>
68991

>  <dipole>
4.67

>  <excitation_energy_1>
5.68

>  <excitation_energy_2>
5.77

>  <excitation_energy_3>
5.787

>  <excitation_energy_4>
6.405

>  <homo_energy>
-7.412

>  <homo_lumo_gap>
6.672

>  <logP>
0.572

>  <lumo_energy>
-0.74

>  <melting_point>
146.44

>  <molecular_refractivity>
34.24

>  <oscillator_strength_1>
0.0006

>  <oscillator_strength_2>
0.0022

>  <oscillator_strength_3>
0.0002

>  <oscillator_strength_4>
0.0003

>  <open_babel_can_smiles>
CCC(C(=O)O)(C(=O)O)C

>  <mulliken_charges>
20
1   -0.470579
2   -0.463979
3   -0.274922
4   0.624352
5   0.653655
6   -0.170587
7   -0.471068
8   -0.585735
9   -0.484107
10   -0.557656
11   0.162239
12   0.178481
13   0.159819
14   0.203587
15   0.135371
16   0.176229
17   0.192692
18   0.118766
19   0.448244
20   0.4252

>  <lowdin_charges>
20
1   -0.452969
2   -0.434827
3   -0.268447
4   0.18541
5   0.210733
6   -0.072562
7   -0.258898
8   -0.342243
9   -0.254011
10   -0.325486
11   0.16331
12   0.164842
13   0.153635
14   0.181284
15   0.144526
16   0.166745
17   0.173283
18   0.132371
19   0.367821
20   0.365484

$$$$

