PCCDB-ID:  72887
public computational chemistry database (PCCDB) project, http://pccdb.org

 21 21  0  0  0  0  0  0  0  0999 V2000
    0.7848    1.2541   -0.3107 C   0  0  0  0  0  0  0  0  0  0  0  0
    1.4870   -0.0515    0.0807 C   0  0  0  0  0  0  0  0  0  0  0  0
   -0.5640    1.3586    0.4109 C   0  0  0  0  0  0  0  0  0  0  0  0
    0.5848   -1.2605   -0.1810 C   0  0  0  0  0  0  0  0  0  0  0  0
   -1.4349    0.1199    0.1637 C   0  0  0  0  0  0  0  0  0  0  0  0
   -1.4344   -2.2248    0.8728 C   0  0  0  0  0  0  0  0  0  0  0  0
   -2.6884   -2.3796    1.0881 N   0  0  0  0  0  0  0  0  0  0  0  0
   -0.7127   -1.1066    0.4954 N   0  0  0  0  0  0  0  0  0  0  0  0
   -0.6221   -3.3010    1.0766 O   0  0  0  0  0  0  0  0  0  0  0  0
    0.6221    1.2699   -1.3986 H   0  0  0  0  0  0  0  0  0  0  0  0
    1.4139    2.1200   -0.0722 H   0  0  0  0  0  0  0  0  0  0  0  0
    1.7487   -0.0260    1.1467 H   0  0  0  0  0  0  0  0  0  0  0  0
    2.4206   -0.1762   -0.4818 H   0  0  0  0  0  0  0  0  0  0  0  0
   -1.1152    2.2494    0.0855 H   0  0  0  0  0  0  0  0  0  0  0  0
   -0.3936    1.4567    1.4910 H   0  0  0  0  0  0  0  0  0  0  0  0
    1.0514   -2.1769    0.1752 H   0  0  0  0  0  0  0  0  0  0  0  0
    0.4252   -1.3686   -1.2690 H   0  0  0  0  0  0  0  0  0  0  0  0
   -1.7689    0.1003   -0.8892 H   0  0  0  0  0  0  0  0  0  0  0  0
   -2.3280    0.1804    0.7904 H   0  0  0  0  0  0  0  0  0  0  0  0
   -3.2402   -1.5567    0.8613 H   0  0  0  0  0  0  0  0  0  0  0  0
   -1.2379   -4.0064    1.3429 H   0  0  0  0  0  0  0  0  0  0  0  0
  1 11  1  0  0  0  0
  1  2  1  0  0  0  0
  1  3  1  0  0  0  0
  2 12  1  0  0  0  0
  3 15  1  0  0  0  0
  4  2  1  0  0  0  0
  4 16  1  0  0  0  0
  4  8  1  0  0  0  0
  5  3  1  0  0  0  0
  5  8  1  0  0  0  0
  5 19  1  0  0  0  0
  6  9  1  0  0  0  0
  6  7  2  0  0  0  0
  8  6  1  0  0  0  0
  9 21  1  0  0  0  0
 10  1  1  0  0  0  0
 13  2  1  0  0  0  0
 14  3  1  0  0  0  0
 17  4  1  0  0  0  0
 18  5  1  0  0  0  0
 20  7  1  0  0  0  0
M  END
>  <HBA>
3

>  <HBD>
1

>  <TPSA>
46.33

>  <cid>
72887

>  <dipole>
2.61

>  <excitation_energy_1>
5.433

>  <excitation_energy_2>
5.939

>  <excitation_energy_3>
6.005

>  <excitation_energy_4>
6.072

>  <homo_energy>
-5.932

>  <homo_lumo_gap>
7.535

>  <logP>
1.189

>  <lumo_energy>
1.603

>  <melting_point>
84.62

>  <molecular_refractivity>
38.95

>  <oscillator_strength_1>
0.0388

>  <oscillator_strength_2>
0.0163

>  <oscillator_strength_3>
0.0161

>  <oscillator_strength_4>
0.0496

>  <open_babel_can_smiles>
OC(=N)N1CCCCC1

>  <mulliken_charges>
21
1   -0.267189
2   -0.263829
3   -0.264256
4   -0.13803
5   -0.137169
6   0.662242
7   -0.681462
8   -0.441944
9   -0.613169
10   0.131335
11   0.140066
12   0.144927
13   0.137684
14   0.138269
15   0.146266
16   0.189123
17   0.130615
18   0.136134
19   0.149371
20   0.281913
21   0.419101

>  <lowdin_charges>
21
1   -0.279103
2   -0.280925
3   -0.279943
4   -0.193555
5   -0.195472
6   0.15899
7   -0.498567
8   -0.136258
9   -0.382384
10   0.13727
11   0.148756
12   0.145697
13   0.149251
14   0.149924
15   0.146146
16   0.173977
17   0.128337
18   0.131001
19   0.154398
20   0.254987
21   0.367474

$$$$

