PCCDB-ID:  23718
public computational chemistry database (PCCDB) project, http://pccdb.org

 27 26  0  0  1  0  0  0  0  0999 V2000
    2.6647   -0.3138   -1.3091 C   0  0  0  0  0  0  0  0  0  0  0  0
    2.2665   -0.3528    3.0566 C   0  0  0  0  0  0  0  0  0  0  0  0
    2.8612    2.0577    3.2683 C   0  0  0  0  0  0  0  0  0  0  0  0
    0.6183    1.4027    2.3553 C   0  0  0  0  0  0  0  0  0  0  0  0
    2.8587    2.4223    0.3300 C   0  0  0  0  0  0  0  0  0  0  0  0
    1.9202    0.1007   -0.0329 C   0  0  0  0  0  0  0  0  0  0  0  0
    2.1157    1.0316    2.3857 C   0  0  0  0  0  0  0  0  0  0  0  0
    2.7330    1.0098    0.9331 C   0  0  2  0  0  0  0  0  0  0  0  0
    4.0578    0.4679    1.1082 O   0  0  0  0  0  0  0  0  0  0  0  0
    2.0201   -0.9367   -1.9388 H   0  0  0  0  0  0  0  0  0  0  0  0
    3.5564   -0.9042   -1.0713 H   0  0  0  0  0  0  0  0  0  0  0  0
    2.9727    0.5451   -1.9176 H   0  0  0  0  0  0  0  0  0  0  0  0
    1.8641   -0.3123    4.0758 H   0  0  0  0  0  0  0  0  0  0  0  0
    3.3164   -0.6500    3.1118 H   0  0  0  0  0  0  0  0  0  0  0  0
    1.7195   -1.1384    2.5248 H   0  0  0  0  0  0  0  0  0  0  0  0
    2.5279    1.9657    4.3088 H   0  0  0  0  0  0  0  0  0  0  0  0
    2.6674    3.0902    2.9577 H   0  0  0  0  0  0  0  0  0  0  0  0
    3.9411    1.8847    3.2404 H   0  0  0  0  0  0  0  0  0  0  0  0
    0.2356    1.4695    3.3807 H   0  0  0  0  0  0  0  0  0  0  0  0
    0.0162    0.6526    1.8318 H   0  0  0  0  0  0  0  0  0  0  0  0
    0.4390    2.3738    1.8795 H   0  0  0  0  0  0  0  0  0  0  0  0
    1.8960    2.9424    0.2965 H   0  0  0  0  0  0  0  0  0  0  0  0
    3.2314    2.3694   -0.7004 H   0  0  0  0  0  0  0  0  0  0  0  0
    3.5621    3.0308    0.9034 H   0  0  0  0  0  0  0  0  0  0  0  0
    1.6227   -0.8125    0.4924 H   0  0  0  0  0  0  0  0  0  0  0  0
    0.9938    0.6187   -0.3103 H   0  0  0  0  0  0  0  0  0  0  0  0
    4.5399    0.6067    0.2789 H   0  0  0  0  0  0  0  0  0  0  0  0
  1 11  1  0  0  0  0
  1  6  1  0  0  0  0
  2 14  1  0  0  0  0
  2 13  1  0  0  0  0
  3 16  1  0  0  0  0
  4  7  1  0  0  0  0
  4 19  1  0  0  0  0
  5 24  1  0  0  0  0
  5  8  1  0  0  0  0
  6 25  1  0  0  0  0
  6  8  1  0  0  0  0
  7  2  1  0  0  0  0
  7  3  1  0  0  0  0
  8  9  1  1  0  0  0
  8  7  1  0  0  0  0
 10  1  1  0  0  0  0
 12  1  1  0  0  0  0
 15  2  1  0  0  0  0
 17  3  1  0  0  0  0
 18  3  1  0  0  0  0
 20  4  1  0  0  0  0
 21  4  1  0  0  0  0
 22  5  1  0  0  0  0
 23  5  1  0  0  0  0
 26  6  1  0  0  0  0
 27  9  1  0  0  0  0
M  END
>  <HBA>
1

>  <HBD>
1

>  <TPSA>
20.23

>  <cid>
23718

>  <dipole>
1.44

>  <excitation_energy_1>
6.404

>  <excitation_energy_2>
6.964

>  <excitation_energy_3>
7.236

>  <excitation_energy_4>
7.282

>  <homo_energy>
-6.993

>  <homo_lumo_gap>
8.806

>  <logP>
2.193

>  <lumo_energy>
1.812

>  <melting_point>
20.44

>  <molecular_refractivity>
41.51

>  <oscillator_strength_1>
0.0094

>  <oscillator_strength_2>
0.0034

>  <oscillator_strength_3>
0.0031

>  <oscillator_strength_4>
0.0002

>  <open_babel_can_smiles>
CC[C@@](C(C)(C)C)(O)C

>  <mulliken_charges>
27
1   -0.476571
2   -0.452707
3   -0.458767
4   -0.458157
5   -0.49527
6   -0.267995
7   0.090972
8   0.340844
9   -0.654408
10   0.149238
11   0.149239
12   0.140747
13   0.130449
14   0.169405
15   0.134524
16   0.133465
17   0.134769
18   0.161083
19   0.140882
20   0.143282
21   0.137509
22   0.1476
23   0.133686
24   0.160423
25   0.14225
26   0.133442
27   0.390066

>  <lowdin_charges>
27
1   -0.457589
2   -0.444971
3   -0.442396
4   -0.446862
5   -0.465789
6   -0.290767
7   0.011081
8   0.122672
9   -0.462774
10   0.156547
11   0.149335
12   0.14354
13   0.143241
14   0.16092
15   0.144582
16   0.144834
17   0.142837
18   0.155827
19   0.149505
20   0.149752
21   0.14448
22   0.153556
23   0.144128
24   0.159628
25   0.149444
26   0.144845
27   0.340395

$$$$

