PCCDB-ID:  47394
public computational chemistry database (PCCDB) project, http://pccdb.org

 43 42  0  0  0  0  0  0  0  0999 V2000
    0.8245    1.6569    2.0455 C   0  0  0  0  0  0  0  0  0  0  0  0
    7.3397   -2.0372    1.1905 C   0  0  0  0  0  0  0  0  0  0  0  0
    3.0553    1.5969   -1.7652 C   0  0  0  0  0  0  0  0  0  0  0  0
    5.4078    0.9856   -2.4035 C   0  0  0  0  0  0  0  0  0  0  0  0
    5.1901    1.2620    3.8015 C   0  0  0  0  0  0  0  0  0  0  0  0
    6.3600    2.6680    2.2607 C   0  0  0  0  0  0  0  0  0  0  0  0
    2.3094    1.9826    1.8465 C   0  0  0  0  0  0  0  0  0  0  0  0
    6.8571   -0.5810    1.1859 C   0  0  0  0  0  0  0  0  0  0  0  0
    3.1539    0.7251    1.6040 C   0  0  0  0  0  0  0  0  0  0  0  0
    5.3405   -0.4749    1.4047 C   0  0  0  0  0  0  0  0  0  0  0  0
    4.9276    1.6394    0.0062 C   0  0  0  0  0  0  0  0  0  0  0  0
    4.3637    0.9550   -1.2736 C   0  0  0  0  0  0  0  0  0  0  0  0
    4.6830    0.9428    1.3770 C   0  0  0  0  0  0  0  0  0  0  0  0
    5.1770    1.8425    2.4668 N   0  0  0  0  0  0  0  0  0  0  0  0
    0.2388    2.5647    2.2309 H   0  0  0  0  0  0  0  0  0  0  0  0
    0.6752    0.9852    2.9004 H   0  0  0  0  0  0  0  0  0  0  0  0
    0.3990    1.1620    1.1628 H   0  0  0  0  0  0  0  0  0  0  0  0
    8.4235   -2.0991    1.0386 H   0  0  0  0  0  0  0  0  0  0  0  0
    6.8571   -2.6173    0.3941 H   0  0  0  0  0  0  0  0  0  0  0  0
    7.1080   -2.5298    2.1430 H   0  0  0  0  0  0  0  0  0  0  0  0
    2.6852    1.0905   -2.6651 H   0  0  0  0  0  0  0  0  0  0  0  0
    3.2150    2.6523   -2.0224 H   0  0  0  0  0  0  0  0  0  0  0  0
    2.2626    1.5561   -1.0122 H   0  0  0  0  0  0  0  0  0  0  0  0
    5.0248    0.5063   -3.3124 H   0  0  0  0  0  0  0  0  0  0  0  0
    6.3289    0.4665   -2.1130 H   0  0  0  0  0  0  0  0  0  0  0  0
    5.6753    2.0189   -2.6616 H   0  0  0  0  0  0  0  0  0  0  0  0
    5.2750    2.0687    4.5401 H   0  0  0  0  0  0  0  0  0  0  0  0
    6.0258    0.5602    3.9864 H   0  0  0  0  0  0  0  0  0  0  0  0
    4.2570    0.7306    4.0062 H   0  0  0  0  0  0  0  0  0  0  0  0
    6.4357    3.3664    3.1036 H   0  0  0  0  0  0  0  0  0  0  0  0
    6.2762    3.2729    1.3563 H   0  0  0  0  0  0  0  0  0  0  0  0
    7.3162    2.1146    2.2148 H   0  0  0  0  0  0  0  0  0  0  0  0
    2.6984    2.5132    2.7218 H   0  0  0  0  0  0  0  0  0  0  0  0
    2.4167    2.6793    1.0059 H   0  0  0  0  0  0  0  0  0  0  0  0
    7.1410   -0.1154    0.2335 H   0  0  0  0  0  0  0  0  0  0  0  0
    7.3887   -0.0259    1.9677 H   0  0  0  0  0  0  0  0  0  0  0  0
    2.7554    0.1749    0.7420 H   0  0  0  0  0  0  0  0  0  0  0  0
    3.0106    0.0456    2.4555 H   0  0  0  0  0  0  0  0  0  0  0  0
    5.1005   -0.9418    2.3691 H   0  0  0  0  0  0  0  0  0  0  0  0
    4.8380   -1.1023    0.6555 H   0  0  0  0  0  0  0  0  0  0  0  0
    4.5299    2.6603    0.0664 H   0  0  0  0  0  0  0  0  0  0  0  0
    6.0081    1.7506   -0.1254 H   0  0  0  0  0  0  0  0  0  0  0  0
    4.1546   -0.1010   -1.0582 H   0  0  0  0  0  0  0  0  0  0  0  0
  1 15  1  0  0  0  0
  1 16  1  0  0  0  0
  2 20  1  0  0  0  0
  3 12  1  0  0  0  0
  3 23  1  0  0  0  0
  4 25  1  0  0  0  0
  4 12  1  0  0  0  0
  5 28  1  0  0  0  0
  5 29  1  0  0  0  0
  5 27  1  0  0  0  0
  6 14  1  0  0  0  0
  6 30  1  0  0  0  0
  7  1  1  0  0  0  0
  7 33  1  0  0  0  0
  8  2  1  0  0  0  0
  8 10  1  0  0  0  0
  8 36  1  0  0  0  0
  9  7  1  0  0  0  0
  9 38  1  0  0  0  0
 10 39  1  0  0  0  0
 11 41  1  0  0  0  0
 11 13  1  0  0  0  0
 12 43  1  0  0  0  0
 12 11  1  0  0  0  0
 13 10  1  0  0  0  0
 13  9  1  0  0  0  0
 13 14  1  0  0  0  0
 14  5  1  0  0  0  0
 17  1  1  0  0  0  0
 18  2  1  0  0  0  0
 19  2  1  0  0  0  0
 21  3  1  0  0  0  0
 22  3  1  0  0  0  0
 24  4  1  0  0  0  0
 26  4  1  0  0  0  0
 31  6  1  0  0  0  0
 32  6  1  0  0  0  0
 34  7  1  0  0  0  0
 35  8  1  0  0  0  0
 37  9  1  0  0  0  0
 40 10  1  0  0  0  0
 42 11  1  0  0  0  0
M  END
>  <HBA>
1

>  <HBD>
0

>  <TPSA>
3.24

>  <cid>
47394

>  <dipole>
0.53

>  <excitation_energy_1>
4.732

>  <excitation_energy_2>
5.031

>  <excitation_energy_3>
5.093

>  <excitation_energy_4>
5.198

>  <homo_energy>
-5.214

>  <homo_lumo_gap>
7.1

>  <logP>
3.933

>  <lumo_energy>
1.886

>  <melting_point>
-17.55

>  <molecular_refractivity>
67.54

>  <oscillator_strength_1>
0.0061

>  <oscillator_strength_2>
0.0058

>  <oscillator_strength_3>
0.004

>  <oscillator_strength_4>
0.0115

>  <open_babel_can_smiles>
CCCC(N(C)C)(CC(C)C)CCC

>  <mulliken_charges>
43
1   -0.447062
2   -0.443029
3   -0.455428
4   -0.45705
5   -0.304754
6   -0.29816
7   -0.245221
8   -0.265471
9   -0.273985
10   -0.262973
11   -0.313674
12   -0.0625
13   0.223152
14   -0.397556
15   0.139961
16   0.137607
17   0.138031
18   0.14095
19   0.14076
20   0.141405
21   0.137352
22   0.13844
23   0.155392
24   0.138565
25   0.143923
26   0.140197
27   0.143496
28   0.121201
29   0.149818
30   0.140651
31   0.152766
32   0.119515
33   0.148937
34   0.131156
35   0.135917
36   0.142272
37   0.130687
38   0.122627
39   0.126965
40   0.127118
41   0.144808
42   0.142983
43   0.130211

>  <lowdin_charges>
43
1   -0.44682
2   -0.442934
3   -0.447664
4   -0.44475
5   -0.359636
6   -0.358641
7   -0.279112
8   -0.280137
9   -0.285996
10   -0.292041
11   -0.282814
12   -0.121324
13   0.070092
14   -0.190584
15   0.148478
16   0.144532
17   0.143398
18   0.146889
19   0.146675
20   0.145924
21   0.146739
22   0.14343
23   0.153043
24   0.146874
25   0.14645
26   0.144429
27   0.14747
28   0.121698
29   0.149842
30   0.146618
31   0.152378
32   0.119404
33   0.150698
34   0.139801
35   0.139742
36   0.144031
37   0.143552
38   0.137391
39   0.141509
40   0.141782
41   0.147567
42   0.14579
43   0.136229

$$$$

