PCCDB-ID:  57663
public computational chemistry database (PCCDB) project, http://pccdb.org

 38 38  0  0  0  0  0  0  0  0999 V2000
    2.8945   -0.9376   -4.5038 C   0  0  0  0  0  0  0  0  0  0  0  0
    2.7129   -1.9755   -3.3896 C   0  0  0  0  0  0  0  0  0  0  0  0
    4.0159   -2.3938   -2.6865 C   0  0  0  0  0  0  0  0  0  0  0  0
    4.6865   -1.2733   -1.8782 C   0  0  0  0  0  0  0  0  0  0  0  0
    5.9935   -1.6847   -1.1781 C   0  0  0  0  0  0  0  0  0  0  0  0
    9.9149   -5.4394    4.1129 C   0  0  0  0  0  0  0  0  0  0  0  0
   10.1992   -4.4538    3.1702 C   0  0  0  0  0  0  0  0  0  0  0  0
    5.8210   -2.7334   -0.0704 C   0  0  0  0  0  0  0  0  0  0  0  0
    8.6229   -5.9531    4.1855 C   0  0  0  0  0  0  0  0  0  0  0  0
    9.2016   -3.9776    2.3197 C   0  0  0  0  0  0  0  0  0  0  0  0
    7.1310   -3.0231    0.6501 C   0  0  0  0  0  0  0  0  0  0  0  0
    7.6054   -5.5124    3.3302 C   0  0  0  0  0  0  0  0  0  0  0  0
    7.8983   -4.4916    2.3934 C   0  0  0  0  0  0  0  0  0  0  0  0
    6.2645   -6.1401    3.4873 C   0  0  0  0  0  0  0  0  0  0  0  0
    5.8690   -6.5305    4.6372 N   0  0  0  0  0  0  0  0  0  0  0  0
    5.5929   -6.2854    2.3069 O   0  0  0  0  0  0  0  0  0  0  0  0
    6.8750   -4.0311    1.6262 O   0  0  0  0  0  0  0  0  0  0  0  0
    3.2778    0.0147   -4.1204 H   0  0  0  0  0  0  0  0  0  0  0  0
    1.9422   -0.7288   -5.0047 H   0  0  0  0  0  0  0  0  0  0  0  0
    3.5985   -1.2963   -5.2655 H   0  0  0  0  0  0  0  0  0  0  0  0
    2.2430   -2.8728   -3.8143 H   0  0  0  0  0  0  0  0  0  0  0  0
    2.0061   -1.5894   -2.6409 H   0  0  0  0  0  0  0  0  0  0  0  0
    4.7263   -2.7713   -3.4380 H   0  0  0  0  0  0  0  0  0  0  0  0
    3.7950   -3.2407   -2.0237 H   0  0  0  0  0  0  0  0  0  0  0  0
    3.9775   -0.8955   -1.1261 H   0  0  0  0  0  0  0  0  0  0  0  0
    4.9065   -0.4269   -2.5415 H   0  0  0  0  0  0  0  0  0  0  0  0
    6.4557   -0.7850   -0.7472 H   0  0  0  0  0  0  0  0  0  0  0  0
    6.7020   -2.0609   -1.9311 H   0  0  0  0  0  0  0  0  0  0  0  0
   10.6879   -5.8079    4.7805 H   0  0  0  0  0  0  0  0  0  0  0  0
   11.2018   -4.0409    3.0930 H   0  0  0  0  0  0  0  0  0  0  0  0
    5.4402   -3.6772   -0.4772 H   0  0  0  0  0  0  0  0  0  0  0  0
    5.0836   -2.3866    0.6655 H   0  0  0  0  0  0  0  0  0  0  0  0
    8.3699   -6.7177    4.9120 H   0  0  0  0  0  0  0  0  0  0  0  0
    9.4394   -3.1971    1.6074 H   0  0  0  0  0  0  0  0  0  0  0  0
    7.5154   -2.1158    1.1396 H   0  0  0  0  0  0  0  0  0  0  0  0
    7.8949   -3.3745   -0.0591 H   0  0  0  0  0  0  0  0  0  0  0  0
    4.9585   -6.9999    4.5910 H   0  0  0  0  0  0  0  0  0  0  0  0
    4.7259   -6.6813    2.4983 H   0  0  0  0  0  0  0  0  0  0  0  0
  1 18  1  0  0  0  0
  1  2  1  0  0  0  0
  2  3  1  0  0  0  0
  2 22  1  0  0  0  0
  3 24  1  0  0  0  0
  3  4  1  0  0  0  0
  4  5  1  0  0  0  0
  4 25  1  0  0  0  0
  5 27  1  0  0  0  0
  5  8  1  0  0  0  0
  6  9  1  0  0  0  0
  6 29  1  0  0  0  0
  7  6  2  0  0  0  0
  8 11  1  0  0  0  0
  8 32  1  0  0  0  0
  9 33  1  0  0  0  0
 10 13  2  0  0  0  0
 10  7  1  0  0  0  0
 11 35  1  0  0  0  0
 11 17  1  0  0  0  0
 12 14  1  0  0  0  0
 12  9  2  0  0  0  0
 13 12  1  0  0  0  0
 14 15  2  0  0  0  0
 16 38  1  0  0  0  0
 16 14  1  0  0  0  0
 17 13  1  0  0  0  0
 19  1  1  0  0  0  0
 20  1  1  0  0  0  0
 21  2  1  0  0  0  0
 23  3  1  0  0  0  0
 26  4  1  0  0  0  0
 28  5  1  0  0  0  0
 30  7  1  0  0  0  0
 31  8  1  0  0  0  0
 34 10  1  0  0  0  0
 36 11  1  0  0  0  0
 37 15  1  0  0  0  0
M  END
>  <HBA>
3

>  <HBD>
1

>  <TPSA>
52.32

>  <cid>
57663

>  <dipole>
2.69

>  <excitation_energy_1>
4.522

>  <excitation_energy_2>
5.249

>  <excitation_energy_3>
5.267

>  <excitation_energy_4>
5.545

>  <homo_energy>
-5.87

>  <homo_lumo_gap>
5.304

>  <logP>
3.835

>  <lumo_energy>
-0.566

>  <melting_point>
95.25

>  <molecular_refractivity>
69.87

>  <oscillator_strength_1>
0.0997

>  <oscillator_strength_2>
0.03

>  <oscillator_strength_3>
0.0873

>  <oscillator_strength_4>
0.0221

>  <open_babel_can_smiles>
CCCCCCCOc1ccccc1C(=N)O

>  <mulliken_charges>
38
1   -0.443512
2   -0.249225
3   -0.252436
4   -0.25431
5   -0.266988
6   -0.137308
7   -0.129603
8   -0.277272
9   -0.163614
10   -0.200749
11   -0.030616
12   0.081582
13   0.341272
14   0.384244
15   -0.594021
16   -0.56621
17   -0.510616
18   0.146044
19   0.143005
20   0.140776
21   0.131452
22   0.130266
23   0.125919
24   0.13427
25   0.1285
26   0.134702
27   0.130131
28   0.131196
29   0.128373
30   0.130759
31   0.15784
32   0.146606
33   0.160245
34   0.13588
35   0.137595
36   0.13893
37   0.26333
38   0.393563

>  <lowdin_charges>
38
1   -0.448318
2   -0.274537
3   -0.280023
4   -0.277454
5   -0.277257
6   -0.182392
7   -0.1373
8   -0.282926
9   -0.125304
10   -0.216065
11   -0.127958
12   -0.05045
13   0.111265
14   0.1376
15   -0.420123
16   -0.365195
17   -0.186335
18   0.146842
19   0.150292
20   0.146845
21   0.14276
22   0.140097
23   0.13812
24   0.142735
25   0.139637
26   0.144061
27   0.141884
28   0.140496
29   0.159809
30   0.157574
31   0.153634
32   0.15033
33   0.176507
34   0.164283
35   0.137182
36   0.13879
37   0.24239
38   0.348503

$$$$

