PCCDB-ID:  12844
public computational chemistry database (PCCDB) project, http://pccdb.org

 36 36  0  0  1  0  0  0  0  0999 V2000
    0.7594   -0.2192    0.6209 C   0  0  0  0  0  0  0  0  0  0  0  0
    2.2912   -0.2075    0.6544 C   0  0  0  0  0  0  0  0  0  0  0  0
    2.8813    1.1862    0.9043 C   0  0  0  0  0  0  0  0  0  0  0  0
    4.4148    1.2055    0.9419 C   0  0  0  0  0  0  0  0  0  0  0  0
    5.0041    2.5983    1.1991 C   0  0  0  0  0  0  0  0  0  0  0  0
    6.5377    2.6126    1.2366 C   0  0  0  0  0  0  0  0  0  0  0  0
   10.7296    5.4094    1.8083 C   0  0  0  0  0  0  0  0  0  0  0  0
    7.1161    4.0059    1.5144 C   0  0  0  0  0  0  0  0  0  0  0  0
    9.2063    5.4150    1.9462 C   0  0  0  0  0  0  0  0  0  0  0  0
   11.1045    5.0858    0.3593 C   0  0  0  0  0  0  0  0  0  0  0  0
    8.6422    4.0531    1.5541 C   0  0  2  0  0  0  0  0  0  0  0  0
   10.3141    3.9497   -0.2799 C   0  0  0  0  0  0  0  0  0  0  0  0
   10.6901    3.3832   -1.2782 O   0  0  0  0  0  0  0  0  0  0  0  0
    9.1020    3.6240    0.2416 O   0  0  0  0  0  0  0  0  0  0  0  0
    0.3706   -1.2277    0.4392 H   0  0  0  0  0  0  0  0  0  0  0  0
    0.3750    0.4336   -0.1725 H   0  0  0  0  0  0  0  0  0  0  0  0
    0.3389    0.1335    1.5709 H   0  0  0  0  0  0  0  0  0  0  0  0
    2.6808   -0.6005   -0.2954 H   0  0  0  0  0  0  0  0  0  0  0  0
    2.6454   -0.8954    1.4354 H   0  0  0  0  0  0  0  0  0  0  0  0
    2.4891    1.5802    1.8540 H   0  0  0  0  0  0  0  0  0  0  0  0
    2.5277    1.8746    0.1221 H   0  0  0  0  0  0  0  0  0  0  0  0
    4.8071    0.8161   -0.0090 H   0  0  0  0  0  0  0  0  0  0  0  0
    4.7675    0.5136    1.7212 H   0  0  0  0  0  0  0  0  0  0  0  0
    4.6107    2.9885    2.1500 H   0  0  0  0  0  0  0  0  0  0  0  0
    4.6535    3.2902    0.4190 H   0  0  0  0  0  0  0  0  0  0  0  0
    6.9364    2.2427    0.2846 H   0  0  0  0  0  0  0  0  0  0  0  0
    6.8890    1.9150    2.0116 H   0  0  0  0  0  0  0  0  0  0  0  0
   11.1539    4.6559    2.4858 H   0  0  0  0  0  0  0  0  0  0  0  0
   11.1578    6.3742    2.1024 H   0  0  0  0  0  0  0  0  0  0  0  0
    6.7452    4.3758    2.4810 H   0  0  0  0  0  0  0  0  0  0  0  0
    6.7690    4.7151    0.7504 H   0  0  0  0  0  0  0  0  0  0  0  0
    8.7699    6.1936    1.3048 H   0  0  0  0  0  0  0  0  0  0  0  0
    8.9031    5.6365    2.9764 H   0  0  0  0  0  0  0  0  0  0  0  0
   12.1644    4.8428    0.2421 H   0  0  0  0  0  0  0  0  0  0  0  0
   10.9194    5.9633   -0.2767 H   0  0  0  0  0  0  0  0  0  0  0  0
    9.0094    3.2999    2.2676 H   0  0  0  0  0  0  0  0  0  0  0  0
  1  2  1  0  0  0  0
  1 17  1  0  0  0  0
  2  3  1  0  0  0  0
  2 19  1  0  0  0  0
  3  4  1  0  0  0  0
  3 20  1  0  0  0  0
  4  5  1  0  0  0  0
  4 23  1  0  0  0  0
  5  6  1  0  0  0  0
  5 24  1  0  0  0  0
  6  8  1  0  0  0  0
  6 27  1  0  0  0  0
  7  9  1  0  0  0  0
  7 29  1  0  0  0  0
  7 28  1  0  0  0  0
  8 11  1  0  0  0  0
  8 30  1  0  0  0  0
  9 33  1  0  0  0  0
 10  7  1  0  0  0  0
 11  9  1  0  0  0  0
 11 36  1  1  0  0  0
 12 14  1  0  0  0  0
 12 10  1  0  0  0  0
 13 12  2  0  0  0  0
 14 11  1  0  0  0  0
 15  1  1  0  0  0  0
 16  1  1  0  0  0  0
 18  2  1  0  0  0  0
 21  3  1  0  0  0  0
 22  4  1  0  0  0  0
 25  5  1  0  0  0  0
 26  6  1  0  0  0  0
 31  8  1  0  0  0  0
 32  9  1  0  0  0  0
 34 10  1  0  0  0  0
 35 10  1  0  0  0  0
M  END
>  <HBA>
2

>  <HBD>
0

>  <TPSA>
26.3

>  <cid>
12844

>  <dipole>
4.34

>  <excitation_energy_1>
5.456

>  <excitation_energy_2>
6.585

>  <excitation_energy_3>
6.961

>  <excitation_energy_4>
6.97

>  <homo_energy>
-6.961

>  <homo_lumo_gap>
7.325

>  <logP>
3.443

>  <lumo_energy>
0.365

>  <melting_point>
4.47

>  <molecular_refractivity>
58.97

>  <oscillator_strength_1>
0.0011

>  <oscillator_strength_2>
0.0019

>  <oscillator_strength_3>
0.049

>  <oscillator_strength_4>
0.0266

>  <open_babel_can_smiles>
CCCCCCC[C@@H]1CCCC(=O)O1

>  <mulliken_charges>
36
1   -0.441325
2   -0.246846
3   -0.24587
4   -0.253219
5   -0.255047
6   -0.26286
7   -0.27846
8   -0.270955
9   -0.289422
10   -0.366704
11   0.142032
12   0.59408
13   -0.452115
14   -0.465942
15   0.141621
16   0.141232
17   0.140165
18   0.131656
19   0.1296
20   0.12467
21   0.126855
22   0.132518
23   0.126526
24   0.123463
25   0.129822
26   0.16441
27   0.125198
28   0.146417
29   0.147783
30   0.132202
31   0.142244
32   0.145035
33   0.147502
34   0.180134
35   0.178816
36   0.134787

>  <lowdin_charges>
36
1   -0.445141
2   -0.273018
3   -0.275603
4   -0.275166
5   -0.274635
6   -0.278163
7   -0.280798
8   -0.280596
9   -0.290298
10   -0.311514
11   0.008928
12   0.192419
13   -0.247966
14   -0.198944
15   0.148595
16   0.147138
17   0.145694
18   0.139624
19   0.139502
20   0.136345
21   0.138398
22   0.14055
23   0.138401
24   0.135268
25   0.139842
26   0.155975
27   0.138573
28   0.147527
29   0.152858
30   0.145699
31   0.149335
32   0.149105
33   0.155828
34   0.173507
35   0.173489
36   0.139243

$$$$

