PCCDB-ID:  68074
public computational chemistry database (PCCDB) project, http://pccdb.org

 20 20  0  0  0  0  0  0  0  0999 V2000
    0.8846    0.0189   -0.0452 C   0  0  0  0  0  0  0  0  0  0  0  0
    3.0878    1.2546    0.0162 C   0  0  0  0  0  0  0  0  0  0  0  0
    3.1279   -1.1391   -0.0958 C   0  0  0  0  0  0  0  0  0  0  0  0
    2.3938    0.0444   -0.0511 C   0  0  0  0  0  0  0  0  0  0  0  0
    4.4807    1.2622    0.0429 C   0  0  0  0  0  0  0  0  0  0  0  0
    4.5290   -1.1322   -0.0768 C   0  0  0  0  0  0  0  0  0  0  0  0
    5.2547    0.0841   -0.0109 C   0  0  0  0  0  0  0  0  0  0  0  0
    6.7636    0.0688   -0.0290 C   0  0  0  0  0  0  0  0  0  0  0  0
    5.1516    2.4639    0.1152 O   0  0  0  0  0  0  0  0  0  0  0  0
    5.2119   -2.3006   -0.0979 O   0  0  0  0  0  0  0  0  0  0  0  0
    7.4108   -0.8694   -0.4285 O   0  0  0  0  0  0  0  0  0  0  0  0
    7.4006    1.1656    0.4490 O   0  0  0  0  0  0  0  0  0  0  0  0
    0.4664    0.9369   -0.4704 H   0  0  0  0  0  0  0  0  0  0  0  0
    0.4981   -0.0744    0.9782 H   0  0  0  0  0  0  0  0  0  0  0  0
    0.4967   -0.8292   -0.6187 H   0  0  0  0  0  0  0  0  0  0  0  0
    2.5437    2.1968    0.0462 H   0  0  0  0  0  0  0  0  0  0  0  0
    2.6082   -2.0943   -0.1482 H   0  0  0  0  0  0  0  0  0  0  0  0
    4.5137    3.1870    0.2168 H   0  0  0  0  0  0  0  0  0  0  0  0
    4.5704   -3.0291   -0.1059 H   0  0  0  0  0  0  0  0  0  0  0  0
    6.7633    1.8794    0.6363 H   0  0  0  0  0  0  0  0  0  0  0  0
  1 14  1  0  0  0  0
  2  5  1  0  0  0  0
  2 16  1  0  0  0  0
  3  6  2  0  0  0  0
  3  4  1  0  0  0  0
  4  1  1  0  0  0  0
  4  2  2  0  0  0  0
  5  9  1  0  0  0  0
  6  7  1  0  0  0  0
  7  5  2  0  0  0  0
  8  7  1  0  0  0  0
  8 12  1  0  0  0  0
  9 18  1  0  0  0  0
 10  6  1  0  0  0  0
 11  8  2  0  0  0  0
 12 20  1  0  0  0  0
 13  1  1  0  0  0  0
 15  1  1  0  0  0  0
 17  3  1  0  0  0  0
 19 10  1  0  0  0  0
M  END
>  <HBA>
4

>  <HBD>
3

>  <TPSA>
77.76

>  <cid>
68074

>  <dipole>
7.61

>  <excitation_energy_1>
4.572

>  <excitation_energy_2>
4.593

>  <excitation_energy_3>
5.158

>  <excitation_energy_4>
5.31

>  <homo_energy>
-6.343

>  <homo_lumo_gap>
5.369

>  <logP>
1.104

>  <lumo_energy>
-0.974

>  <melting_point>
181.43

>  <molecular_refractivity>
42.41

>  <oscillator_strength_1>
0.0413

>  <oscillator_strength_2>
0.0098

>  <oscillator_strength_3>
0.0007

>  <oscillator_strength_4>
0.1335

>  <open_babel_can_smiles>
OC(=O)c1c(O)cc(cc1O)C

>  <mulliken_charges>
20
1   -0.535098
2   -0.255091
3   -0.25825
4   0.185104
5   0.31596
6   0.31795
7   -0.032335
8   0.573773
9   -0.681393
10   -0.596585
11   -0.440307
12   -0.598972
13   0.162719
14   0.175316
15   0.16588
16   0.115907
17   0.11651
18   0.425779
19   0.41065
20   0.432483

>  <lowdin_charges>
20
1   -0.440769
2   -0.244391
3   -0.241392
4   0.035369
5   0.116357
6   0.136025
7   -0.120514
8   0.197756
9   -0.383602
10   -0.333182
11   -0.238809
12   -0.371795
13   0.161892
14   0.167463
15   0.164177
16   0.154251
17   0.154411
18   0.369541
19   0.359856
20   0.357355

$$$$

