PCCDB-ID:  10993
public computational chemistry database (PCCDB) project, http://pccdb.org

 19 18  0  0  0  0  0  0  0  0999 V2000
    3.4136    0.8980    1.6811 C   0  0  0  0  0  0  0  0  0  0  0  0
    3.6241   -0.1417    0.5667 C   0  0  0  0  0  0  0  0  0  0  0  0
    3.2804    0.3938   -0.7975 C   0  0  0  0  0  0  0  0  0  0  0  0
    4.1362    0.5294   -1.8179 C   0  0  0  0  0  0  0  0  0  0  0  0
    3.7779    1.0460   -3.1861 C   0  0  0  0  0  0  0  0  0  0  0  0
    3.7124   -0.0926   -4.2211 C   0  0  0  0  0  0  0  0  0  0  0  0
    2.7068   -1.0422   -3.9096 O   0  0  0  0  0  0  0  0  0  0  0  0
    3.6444    0.4719    2.6640 H   0  0  0  0  0  0  0  0  0  0  0  0
    2.3749    1.2487    1.7038 H   0  0  0  0  0  0  0  0  0  0  0  0
    4.0566    1.7716    1.5276 H   0  0  0  0  0  0  0  0  0  0  0  0
    2.9982   -1.0201    0.7833 H   0  0  0  0  0  0  0  0  0  0  0  0
    4.6646   -0.4907    0.5752 H   0  0  0  0  0  0  0  0  0  0  0  0
    2.2484    0.7273   -0.9324 H   0  0  0  0  0  0  0  0  0  0  0  0
    5.1702    0.2025   -1.6824 H   0  0  0  0  0  0  0  0  0  0  0  0
    4.5206    1.7845   -3.5201 H   0  0  0  0  0  0  0  0  0  0  0  0
    2.8022    1.5463   -3.1585 H   0  0  0  0  0  0  0  0  0  0  0  0
    4.7030   -0.5719   -4.3085 H   0  0  0  0  0  0  0  0  0  0  0  0
    3.4557    0.3107   -5.2063 H   0  0  0  0  0  0  0  0  0  0  0  0
    2.8278   -1.2725   -2.9727 H   0  0  0  0  0  0  0  0  0  0  0  0
  1  9  1  0  0  0  0
  1  8  1  0  0  0  0
  2 12  1  0  0  0  0
  2 11  1  0  0  0  0
  2  1  1  0  0  0  0
  3  2  1  0  0  0  0
  4 14  1  0  0  0  0
  4  3  2  0  0  0  0
  5 16  1  0  0  0  0
  5  4  1  0  0  0  0
  6  7  1  0  0  0  0
  6  5  1  0  0  0  0
  7 19  1  0  0  0  0
 10  1  1  0  0  0  0
 13  3  1  0  0  0  0
 15  5  1  0  0  0  0
 17  6  1  0  0  0  0
 18  6  1  0  0  0  0
M  END
>  <HBA>
1

>  <HBD>
1

>  <TPSA>
20.23

>  <cid>
10993

>  <dipole>
2.02

>  <excitation_energy_1>
6.177

>  <excitation_energy_2>
6.386

>  <excitation_energy_3>
6.598

>  <excitation_energy_4>
6.722

>  <homo_energy>
-6.697

>  <homo_lumo_gap>
7.116

>  <logP>
1.335

>  <lumo_energy>
0.419

>  <melting_point>
1.85

>  <molecular_refractivity>
31.64

>  <oscillator_strength_1>
0.1111

>  <oscillator_strength_2>
0.032

>  <oscillator_strength_3>
0.0031

>  <oscillator_strength_4>
0.0959

>  <open_babel_can_smiles>
OCC/C=C/CC

>  <mulliken_charges>
19
1   -0.439921
2   -0.298023
3   -0.088987
4   -0.127506
5   -0.319392
6   -0.020042
7   -0.619579
8   0.146055
9   0.14602
10   0.15177
11   0.144404
12   0.140664
13   0.126734
14   0.122213
15   0.138526
16   0.150777
17   0.115836
18   0.144533
19   0.385919

>  <lowdin_charges>
19
1   -0.441129
2   -0.269251
3   -0.166742
4   -0.178146
5   -0.293109
6   -0.130607
7   -0.470179
8   0.150863
9   0.147853
10   0.151947
11   0.149485
12   0.14539
13   0.14818
14   0.145985
15   0.153249
16   0.152485
17   0.121419
18   0.146184
19   0.336123

$$$$

