PCCDB-ID:  70256
public computational chemistry database (PCCDB) project, http://pccdb.org

 16 16  0  0  0  0  0  0  0  0999 V2000
    1.4397    0.3461    0.2726 C   0  0  0  0  0  0  0  0  0  0  0  0
    3.4495   -2.5872   -0.1392 C   0  0  0  0  0  0  0  0  0  0  0  0
    4.3912   -1.6750    0.1351 C   0  0  0  0  0  0  0  0  0  0  0  0
    2.2841   -2.1507   -0.9937 C   0  0  0  0  0  0  0  0  0  0  0  0
    4.2062   -0.2891   -0.4340 C   0  0  0  0  0  0  0  0  0  0  0  0
    2.2221    0.3521   -2.4272 O   0  0  0  0  0  0  0  0  0  0  0  0
    2.4690   -0.3022   -1.0999 P   0  0  2  0  0  0  0  0  0  0  0  0
    1.6635   -0.1712    1.2116 H   0  0  0  0  0  0  0  0  0  0  0  0
    0.3819    0.2099    0.0275 H   0  0  0  0  0  0  0  0  0  0  0  0
    1.6304    1.4167    0.3949 H   0  0  0  0  0  0  0  0  0  0  0  0
    3.5107   -3.6121    0.2204 H   0  0  0  0  0  0  0  0  0  0  0  0
    5.2701   -1.9084    0.7322 H   0  0  0  0  0  0  0  0  0  0  0  0
    1.3124   -2.4417   -0.5759 H   0  0  0  0  0  0  0  0  0  0  0  0
    2.3339   -2.5656   -2.0092 H   0  0  0  0  0  0  0  0  0  0  0  0
    4.8965   -0.0836   -1.2630 H   0  0  0  0  0  0  0  0  0  0  0  0
    4.3543    0.5035    0.3099 H   0  0  0  0  0  0  0  0  0  0  0  0
  1 10  1  0  0  0  0
  1  8  1  0  0  0  0
  2  3  2  0  0  0  0
  2 11  1  0  0  0  0
  3 12  1  0  0  0  0
  4 13  1  0  0  0  0
  4  2  1  0  0  0  0
  5  3  1  0  0  0  0
  5 16  1  0  0  0  0
  7  6  2  6  0  0  0
  7  4  1  0  0  0  0
  7  5  1  0  0  0  0
  7  1  1  0  0  0  0
  9  1  1  0  0  0  0
 14  4  1  0  0  0  0
 15  5  1  0  0  0  0
M  END
>  <HBA>
1

>  <HBD>
0

>  <TPSA>
26.88

>  <cid>
70256

>  <dipole>
4.19

>  <excitation_energy_1>
6.014

>  <excitation_energy_2>
6.154

>  <excitation_energy_3>
6.168

>  <excitation_energy_4>
6.189

>  <homo_energy>
-6.879

>  <homo_lumo_gap>
7.086

>  <logP>
1.549

>  <lumo_energy>
0.207

>  <melting_point>
17.21

>  <molecular_refractivity>
32.22

>  <oscillator_strength_1>
0.0047

>  <oscillator_strength_2>
0.0024

>  <oscillator_strength_3>
0.0061

>  <oscillator_strength_4>
0.0074

>  <open_babel_can_smiles>
C[P@]1(=O)CC=CC1

>  <mulliken_charges>
16
1   -0.650211
2   -0.108225
3   -0.108024
4   -0.538725
5   -0.538712
6   -0.548949
7   0.922486
8   0.17516
9   0.189679
10   0.18956
11   0.140014
12   0.140011
13   0.171001
14   0.196927
15   0.196985
16   0.171023

>  <lowdin_charges>
16
1   -0.633131
2   -0.165954
3   -0.167277
4   -0.46353
5   -0.464061
6   -0.615468
7   0.933774
8   0.177576
9   0.183239
10   0.182917
11   0.158227
12   0.159558
13   0.171147
14   0.184744
15   0.186147
16   0.172091

$$$$

