PCCDB-ID:  55048
public computational chemistry database (PCCDB) project, http://pccdb.org

 30 33  0  0  1  0  0  0  0  0999 V2000
    3.7133    0.6753   -0.0345 C   0  0  0  0  0  0  0  0  0  0  0  0
    3.6972   -0.7185   -0.1586 C   0  0  0  0  0  0  0  0  0  0  0  0
   -2.0834    2.5323    0.1806 C   0  0  0  0  0  0  0  0  0  0  0  0
    2.5209    1.4002    0.0591 C   0  0  0  0  0  0  0  0  0  0  0  0
    2.4863   -1.4172   -0.1906 C   0  0  0  0  0  0  0  0  0  0  0  0
   -0.6826    2.4536    0.1889 C   0  0  0  0  0  0  0  0  0  0  0  0
   -2.8885    1.3906    0.0569 C   0  0  0  0  0  0  0  0  0  0  0  0
   -0.7260   -2.3541   -0.0726 C   0  0  0  0  0  0  0  0  0  0  0  0
    1.3089    0.7139    0.0250 C   0  0  0  0  0  0  0  0  0  0  0  0
    1.2932   -0.7051   -0.1021 C   0  0  0  0  0  0  0  0  0  0  0  0
   -0.0843    1.1967    0.0909 C   0  0  0  0  0  0  0  0  0  0  0  0
   -2.2981    0.1235   -0.0296 C   0  0  0  0  0  0  0  0  0  0  0  0
   -0.1110   -1.1577   -0.0860 C   0  0  0  0  0  0  0  0  0  0  0  0
   -2.2274   -2.4306    0.1697 C   0  0  1  0  0  0  0  0  0  0  0  0
   -0.9119    0.0653    0.0052 C   0  0  0  0  0  0  0  0  0  0  0  0
   -3.0211   -1.1781   -0.3062 C   0  0  2  0  0  0  0  0  0  0  0  0
   -2.8034   -3.5922   -0.4010 O   0  0  0  0  0  0  0  0  0  0  0  0
   -3.2967   -1.3125   -1.7180 O   0  0  0  0  0  0  0  0  0  0  0  0
    4.6639    1.2012   -0.0095 H   0  0  0  0  0  0  0  0  0  0  0  0
    4.6345   -1.2632   -0.2303 H   0  0  0  0  0  0  0  0  0  0  0  0
   -2.5581    3.5066    0.2594 H   0  0  0  0  0  0  0  0  0  0  0  0
    2.5450    2.4825    0.1572 H   0  0  0  0  0  0  0  0  0  0  0  0
    2.4805   -2.5002   -0.2850 H   0  0  0  0  0  0  0  0  0  0  0  0
   -0.0887    3.3609    0.2638 H   0  0  0  0  0  0  0  0  0  0  0  0
   -3.9703    1.4923    0.0228 H   0  0  0  0  0  0  0  0  0  0  0  0
   -0.1975   -3.3032   -0.1263 H   0  0  0  0  0  0  0  0  0  0  0  0
   -2.3688   -2.5175    1.2588 H   0  0  0  0  0  0  0  0  0  0  0  0
   -4.0084   -1.2063    0.1627 H   0  0  0  0  0  0  0  0  0  0  0  0
   -3.0850   -3.3120   -1.2926 H   0  0  0  0  0  0  0  0  0  0  0  0
   -2.5019   -1.0150   -2.1923 H   0  0  0  0  0  0  0  0  0  0  0  0
  1 19  1  0  0  0  0
  1  4  1  0  0  0  0
  2  1  2  0  0  0  0
  3  6  1  0  0  0  0
  3 21  1  0  0  0  0
  4 22  1  0  0  0  0
  5  2  1  0  0  0  0
  5 10  2  0  0  0  0
  6 24  1  0  0  0  0
  7  3  2  0  0  0  0
  8 14  1  0  0  0  0
  9  4  2  0  0  0  0
  9 11  1  0  0  0  0
 10 13  1  0  0  0  0
 10  9  1  0  0  0  0
 11  6  2  0  0  0  0
 12 15  2  0  0  0  0
 12  7  1  0  0  0  0
 13  8  2  0  0  0  0
 13 15  1  0  0  0  0
 14 27  1  1  0  0  0
 15 11  1  0  0  0  0
 16 12  1  0  0  0  0
 16 28  1  1  0  0  0
 16 14  1  0  0  0  0
 17 14  1  0  0  0  0
 18 16  1  0  0  0  0
 20  2  1  0  0  0  0
 23  5  1  0  0  0  0
 25  7  1  0  0  0  0
 26  8  1  0  0  0  0
 29 17  1  0  0  0  0
 30 18  1  0  0  0  0
M  END
>  <HBA>
2

>  <HBD>
2

>  <TPSA>
40.46

>  <cid>
55048

>  <dipole>
2.55

>  <excitation_energy_1>
3.536

>  <excitation_energy_2>
4.037

>  <excitation_energy_3>
4.261

>  <excitation_energy_4>
4.307

>  <homo_energy>
-6.03

>  <homo_lumo_gap>
4.354

>  <logP>
2.507

>  <lumo_energy>
-1.676

>  <melting_point>
148.0

>  <molecular_refractivity>
70.0

>  <oscillator_strength_1>
0.005

>  <oscillator_strength_2>
0.1596

>  <oscillator_strength_3>
0.0274

>  <oscillator_strength_4>
0.0182

>  <open_babel_can_smiles>
O[C@H]1C=C2c3c([C@H]1O)cccc3c1c2cccc1

>  <mulliken_charges>
30
1   -0.133203
2   -0.137741
3   -0.133594
4   -0.197044
5   -0.190819
6   -0.202881
7   -0.199894
8   -0.287879
9   0.057224
10   0.067501
11   0.100497
12   0.110972
13   0.16486
14   0.122776
15   -0.062265
16   -0.004632
17   -0.643485
18   -0.626544
19   0.131799
20   0.131919
21   0.132756
22   0.132542
23   0.13489
24   0.133935
25   0.135152
26   0.148693
27   0.156856
28   0.154545
29   0.404022
30   0.399043

>  <lowdin_charges>
30
1   -0.151874
2   -0.157756
3   -0.153669
4   -0.157111
5   -0.148559
6   -0.157539
7   -0.154131
8   -0.160539
9   -0.006449
10   -0.010686
11   -0.008135
12   -0.03544
13   -0.021554
14   -0.014812
15   -0.018606
16   -0.009657
17   -0.460681
18   -0.460647
19   0.159585
20   0.159851
21   0.160108
22   0.157192
23   0.158467
24   0.160331
25   0.159993
26   0.168031
27   0.154478
28   0.158227
29   0.343117
30   0.348465

$$$$

