PCCDB-ID:  58579
public computational chemistry database (PCCDB) project, http://pccdb.org

 34 35  0  0  1  0  0  0  0  0999 V2000
    5.4986   -1.4515   -0.0622 C   0  0  0  0  0  0  0  0  0  0  0  0
    4.4701   -1.9411    2.2103 C   0  0  0  0  0  0  0  0  0  0  0  0
    4.4878    2.4192    1.8739 C   0  0  0  0  0  0  0  0  0  0  0  0
    3.3415    2.9693    1.3002 C   0  0  0  0  0  0  0  0  0  0  0  0
    4.7556    1.0640    1.7044 C   0  0  0  0  0  0  0  0  0  0  0  0
    2.4868    2.1591    0.5583 C   0  0  0  0  0  0  0  0  0  0  0  0
   -2.4331    1.9556   -2.3246 C   0  0  0  0  0  0  0  0  0  0  0  0
   -1.1000    2.5035   -2.9047 C   0  0  0  0  0  0  0  0  0  0  0  0
   -0.0430    0.3554   -0.0534 C   0  0  0  0  0  0  0  0  0  0  0  0
    4.2654   -1.2621    0.8430 C   0  0  0  0  0  0  0  0  0  0  0  0
    3.9021    0.2138    0.9824 C   0  0  0  0  0  0  0  0  0  0  0  0
    2.7468    0.7870    0.4064 C   0  0  0  0  0  0  0  0  0  0  0  0
   -0.7937    1.1256   -1.1040 C   0  0  3  0  0  0  0  0  0  0  0  0
   -2.0484    0.9587   -1.3093 N   0  0  0  0  0  0  0  0  0  0  0  0
   -0.1577    2.1345   -1.8337 N   0  0  0  0  0  0  0  0  0  0  0  0
    1.6311   -0.2329   -0.5807 S   0  0  0  0  0  0  0  0  0  0  0  0
    5.7148   -2.5178   -0.1986 H   0  0  0  0  0  0  0  0  0  0  0  0
    6.3893   -0.9824    0.3731 H   0  0  0  0  0  0  0  0  0  0  0  0
    5.3384   -1.0083   -1.0513 H   0  0  0  0  0  0  0  0  0  0  0  0
    4.6552   -3.0133    2.0761 H   0  0  0  0  0  0  0  0  0  0  0  0
    3.5858   -1.8256    2.8462 H   0  0  0  0  0  0  0  0  0  0  0  0
    5.3285   -1.5246    2.7501 H   0  0  0  0  0  0  0  0  0  0  0  0
    5.1713    3.0410    2.4456 H   0  0  0  0  0  0  0  0  0  0  0  0
    3.1191    4.0271    1.4117 H   0  0  0  0  0  0  0  0  0  0  0  0
    5.6532    0.6454    2.1520 H   0  0  0  0  0  0  0  0  0  0  0  0
    1.6144    2.5996    0.0841 H   0  0  0  0  0  0  0  0  0  0  0  0
   -3.0778    1.5042   -3.0856 H   0  0  0  0  0  0  0  0  0  0  0  0
   -3.0105    2.7538   -1.8380 H   0  0  0  0  0  0  0  0  0  0  0  0
   -1.1119    3.5847   -3.0698 H   0  0  0  0  0  0  0  0  0  0  0  0
   -0.8367    2.0108   -3.8518 H   0  0  0  0  0  0  0  0  0  0  0  0
   -0.6395   -0.5178    0.2162 H   0  0  0  0  0  0  0  0  0  0  0  0
    0.0950    0.9660    0.8438 H   0  0  0  0  0  0  0  0  0  0  0  0
    3.4248   -1.7678    0.3585 H   0  0  0  0  0  0  0  0  0  0  0  0
    0.7982    1.9312   -2.1090 H   0  0  0  0  0  0  0  0  0  0  0  0
  1 18  1  0  0  0  0
  1 10  1  0  0  0  0
  2 22  1  0  0  0  0
  2 21  1  0  0  0  0
  3 23  1  0  0  0  0
  4 24  1  0  0  0  0
  4  3  2  0  0  0  0
  5  3  1  0  0  0  0
  5 25  1  0  0  0  0
  6  4  1  0  0  0  0
  7 28  1  0  0  0  0
  7 14  1  0  0  0  0
  8  7  1  0  0  0  0
  8 15  1  0  0  0  0
  9 31  1  0  0  0  0
  9 32  1  0  0  0  0
 10 11  1  0  0  0  0
 10  2  1  0  0  0  0
 11  5  2  0  0  0  0
 12  6  2  0  0  0  0
 12 11  1  0  0  0  0
 13  9  1  0  0  0  0
 14 13  1  0  0  0  0
 15 13  1  0  0  0  0
 16  9  1  0  0  0  0
 16 12  1  0  0  0  0
 17  1  1  0  0  0  0
 19  1  1  0  0  0  0
 20  2  1  0  0  0  0
 26  6  1  0  0  0  0
 27  7  1  0  0  0  0
 29  8  1  0  0  0  0
 30  8  1  0  0  0  0
 33 10  1  0  0  0  0
 34 15  1  0  0  0  0
M  RAD  2  13   2  14   2
M  END
>  <HBA>
3

>  <HBD>
1

>  <TPSA>
49.69

>  <cid>
58579

>  <dipole>
2.21

>  <excitation_energy_1>
4.621

>  <excitation_energy_2>
4.88

>  <excitation_energy_3>
4.949

>  <excitation_energy_4>
5.266

>  <homo_energy>
-5.921

>  <homo_lumo_gap>
5.524

>  <logP>
2.668

>  <lumo_energy>
-0.397

>  <melting_point>
85.27

>  <molecular_refractivity>
78.78

>  <oscillator_strength_1>
0.0501

>  <oscillator_strength_2>
0.0823

>  <oscillator_strength_3>
0.0028

>  <oscillator_strength_4>
0.0022

>  <open_babel_can_smiles>
CC(c1ccccc1SC[C]1[N]CCN1)C

>  <mulliken_charges>
34
1   -0.437945
2   -0.443179
3   -0.132119
4   -0.123038
5   -0.170904
6   -0.170709
7   -0.163111
8   -0.147597
9   -0.508385
10   -0.170611
11   0.157462
12   -0.159571
13   0.48584
14   -0.455374
15   -0.604744
16   0.100217
17   0.143718
18   0.141959
19   0.151377
20   0.14394
21   0.152429
22   0.141382
23   0.131367
24   0.133409
25   0.129481
26   0.153509
27   0.151245
28   0.152524
29   0.15262
30   0.144944
31   0.212033
32   0.208974
33   0.16031
34   0.338547

>  <lowdin_charges>
34
1   -0.4389
2   -0.440857
3   -0.15897
4   -0.154438
5   -0.158593
6   -0.176465
7   -0.21229
8   -0.209676
9   -0.380356
10   -0.127973
11   -0.004389
12   -0.132963
13   0.070319
14   -0.23389
15   -0.319874
16   0.129634
17   0.148211
18   0.147024
19   0.152677
20   0.148768
21   0.154443
22   0.146284
23   0.160225
24   0.15842
25   0.157802
26   0.166306
27   0.152429
28   0.149065
29   0.149244
30   0.138999
31   0.191214
32   0.18888
33   0.160413
34   0.279279

$$$$

