PCCDB-ID:  40379
public computational chemistry database (PCCDB) project, http://pccdb.org

 17 17  0  0  0  0  0  0  0  0999 V2000
    1.2468   -0.5792   -0.0922 C   0  0  0  0  0  0  0  0  0  0  0  0
    2.7723   -0.5516    0.0368 C   0  0  0  0  0  0  0  0  0  0  0  0
    3.3737    0.8105   -0.3636 C   0  0  0  0  0  0  0  0  0  0  0  0
    5.5813    1.6676    0.6770 C   0  0  0  0  0  0  0  0  0  0  0  0
    7.3087    0.7047   -0.2788 C   0  0  0  0  0  0  0  0  0  0  0  0
    4.8636    0.9015   -0.2009 C   0  0  0  0  0  0  0  0  0  0  0  0
    6.9535    1.5576    0.6337 N   0  0  0  0  0  0  0  0  0  0  0  0
    5.9892   -0.0354   -1.1596 S   0  0  0  0  0  0  0  0  0  0  0  0
    0.8429   -1.5529    0.2059 H   0  0  0  0  0  0  0  0  0  0  0  0
    0.9304   -0.3893   -1.1252 H   0  0  0  0  0  0  0  0  0  0  0  0
    0.7802    0.1836    0.5431 H   0  0  0  0  0  0  0  0  0  0  0  0
    3.2115   -1.3391   -0.5897 H   0  0  0  0  0  0  0  0  0  0  0  0
    3.0669   -0.7811    1.0687 H   0  0  0  0  0  0  0  0  0  0  0  0
    2.9242    1.5999    0.2532 H   0  0  0  0  0  0  0  0  0  0  0  0
    3.0924    1.0358   -1.4019 H   0  0  0  0  0  0  0  0  0  0  0  0
    5.1326    2.3508    1.3909 H   0  0  0  0  0  0  0  0  0  0  0  0
    8.3366    0.4444   -0.5040 H   0  0  0  0  0  0  0  0  0  0  0  0
  1  2  1  0  0  0  0
  1  9  1  0  0  0  0
  1 11  1  0  0  0  0
  2 13  1  0  0  0  0
  3  6  1  0  0  0  0
  3  2  1  0  0  0  0
  3 14  1  0  0  0  0
  4 16  1  0  0  0  0
  5  7  2  0  0  0  0
  6  4  2  0  0  0  0
  7  4  1  0  0  0  0
  8  5  1  0  0  0  0
  8  6  1  0  0  0  0
 10  1  1  0  0  0  0
 12  2  1  0  0  0  0
 15  3  1  0  0  0  0
 17  5  1  0  0  0  0
M  END
>  <HBA>
2

>  <HBD>
0

>  <TPSA>
41.13

>  <cid>
40379

>  <dipole>
1.99

>  <excitation_energy_1>
5.332

>  <excitation_energy_2>
5.407

>  <excitation_energy_3>
5.591

>  <excitation_energy_4>
6.061

>  <homo_energy>
-6.525

>  <homo_lumo_gap>
5.927

>  <logP>
2.096

>  <lumo_energy>
-0.599

>  <melting_point>
20.56

>  <molecular_refractivity>
36.69

>  <oscillator_strength_1>
0.0007

>  <oscillator_strength_2>
0.1484

>  <oscillator_strength_3>
0.0079

>  <oscillator_strength_4>
0.0332

>  <open_babel_can_smiles>
CCCc1cncs1

>  <mulliken_charges>
17
1   -0.444333
2   -0.251505
3   -0.318611
4   0.013553
5   -0.126561
6   -0.114307
7   -0.350592
8   0.21961
9   0.149992
10   0.145232
11   0.14521
12   0.146247
13   0.147672
14   0.155407
15   0.156703
16   0.146322
17   0.179963

>  <lowdin_charges>
17
1   -0.445206
2   -0.271246
3   -0.266747
4   -0.152221
5   -0.237484
6   -0.162264
7   -0.148356
8   0.277275
9   0.154077
10   0.147456
11   0.14954
12   0.147748
13   0.146947
14   0.158742
15   0.154755
16   0.166132
17   0.18085

$$$$

