PCCDB-ID:  70328
public computational chemistry database (PCCDB) project, http://pccdb.org

 28 28  0  0  0  0  0  0  0  0999 V2000
    2.0191   -0.5939    0.4757 C   0  0  0  0  0  0  0  0  0  0  0  0
    2.3593    1.7866   -0.3417 C   0  0  0  0  0  0  0  0  0  0  0  0
    9.1601   -0.9934   -0.8215 C   0  0  0  0  0  0  0  0  0  0  0  0
    8.9610   -0.6074   -2.1478 C   0  0  0  0  0  0  0  0  0  0  0  0
    8.0565   -1.2410   -0.0023 C   0  0  0  0  0  0  0  0  0  0  0  0
    7.6654   -0.4694   -2.6481 C   0  0  0  0  0  0  0  0  0  0  0  0
    6.7623   -1.1116   -0.5067 C   0  0  0  0  0  0  0  0  0  0  0  0
    2.9061   -0.1654   -1.8612 C   0  0  0  0  0  0  0  0  0  0  0  0
    5.1585   -0.6287   -2.4070 C   0  0  0  0  0  0  0  0  0  0  0  0
    2.0002    0.3470   -0.7380 C   0  0  0  0  0  0  0  0  0  0  0  0
    6.5550   -0.7241   -1.8358 C   0  0  0  0  0  0  0  0  0  0  0  0
    4.2520   -0.1887   -1.4139 O   0  0  0  0  0  0  0  0  0  0  0  0
    1.3273   -0.2450    1.2510 H   0  0  0  0  0  0  0  0  0  0  0  0
    3.0217   -0.6428    0.9128 H   0  0  0  0  0  0  0  0  0  0  0  0
    1.7235   -1.6124    0.1958 H   0  0  0  0  0  0  0  0  0  0  0  0
    1.6724    2.1642    0.4245 H   0  0  0  0  0  0  0  0  0  0  0  0
    2.3043    2.4625   -1.2039 H   0  0  0  0  0  0  0  0  0  0  0  0
    3.3776    1.8349    0.0571 H   0  0  0  0  0  0  0  0  0  0  0  0
   10.1678   -1.0962   -0.4275 H   0  0  0  0  0  0  0  0  0  0  0  0
    9.8130   -0.4042   -2.7913 H   0  0  0  0  0  0  0  0  0  0  0  0
    8.2035   -1.5372    1.0332 H   0  0  0  0  0  0  0  0  0  0  0  0
    7.5161   -0.1567   -3.6797 H   0  0  0  0  0  0  0  0  0  0  0  0
    5.9032   -1.2966    0.1299 H   0  0  0  0  0  0  0  0  0  0  0  0
    2.8161    0.4883   -2.7465 H   0  0  0  0  0  0  0  0  0  0  0  0
    2.5951   -1.1793   -2.1697 H   0  0  0  0  0  0  0  0  0  0  0  0
    4.8385   -1.6160   -2.7890 H   0  0  0  0  0  0  0  0  0  0  0  0
    5.1495    0.0582   -3.2705 H   0  0  0  0  0  0  0  0  0  0  0  0
    0.9818    0.3478   -1.1556 H   0  0  0  0  0  0  0  0  0  0  0  0
  1 14  1  0  0  0  0
  1 13  1  0  0  0  0
  2 18  1  0  0  0  0
  2 16  1  0  0  0  0
  3 19  1  0  0  0  0
  3  5  2  0  0  0  0
  4  3  1  0  0  0  0
  5 21  1  0  0  0  0
  6  4  2  0  0  0  0
  6 11  1  0  0  0  0
  7  5  1  0  0  0  0
  7 23  1  0  0  0  0
  8 12  1  0  0  0  0
  8 10  1  0  0  0  0
  9 11  1  0  0  0  0
  9 12  1  0  0  0  0
 10  2  1  0  0  0  0
 10  1  1  0  0  0  0
 11  7  2  0  0  0  0
 15  1  1  0  0  0  0
 17  2  1  0  0  0  0
 20  4  1  0  0  0  0
 22  6  1  0  0  0  0
 24  8  1  0  0  0  0
 25  8  1  0  0  0  0
 26  9  1  0  0  0  0
 27  9  1  0  0  0  0
 28 10  1  0  0  0  0
M  END
>  <HBA>
1

>  <HBD>
0

>  <TPSA>
9.23

>  <cid>
70328

>  <dipole>
1.05

>  <excitation_energy_1>
5.285

>  <excitation_energy_2>
5.805

>  <excitation_energy_3>
6.046

>  <excitation_energy_4>
6.108

>  <homo_energy>
-6.438

>  <homo_lumo_gap>
6.512

>  <logP>
2.859

>  <lumo_energy>
0.073

>  <melting_point>
-4.46

>  <molecular_refractivity>
51.72

>  <oscillator_strength_1>
0.0002

>  <oscillator_strength_2>
0.0397

>  <oscillator_strength_3>
0.0064

>  <oscillator_strength_4>
0.0072

>  <open_babel_can_smiles>
CC(COCc1ccccc1)C

>  <mulliken_charges>
28
1   -0.443715
2   -0.441985
3   -0.12792
4   -0.129406
5   -0.132737
6   -0.180832
7   -0.164737
8   -0.001291
9   -0.071073
10   -0.091522
11   0.128019
12   -0.478741
13   0.139375
14   0.161447
15   0.135466
16   0.137994
17   0.135242
18   0.164486
19   0.126992
20   0.127566
21   0.128238
22   0.121059
23   0.144307
24   0.114935
25   0.115313
26   0.133737
27   0.126636
28   0.123146

>  <lowdin_charges>
28
1   -0.445414
2   -0.44694
3   -0.159265
4   -0.157362
5   -0.152684
6   -0.164998
7   -0.157821
8   -0.127951
9   -0.124151
10   -0.125831
11   -0.012999
12   -0.269167
13   0.148926
14   0.154527
15   0.145136
16   0.148324
17   0.146521
18   0.157301
19   0.155862
20   0.157516
21   0.15542
22   0.152249
23   0.165712
24   0.125496
25   0.124479
26   0.134678
27   0.132958
28   0.139477

$$$$

