PCCDB-ID:  26502
public computational chemistry database (PCCDB) project, http://pccdb.org

 29 28  0  0  0  0  0  0  0  0999 V2000
    1.1018   -1.3194   -1.3584 C   0  0  0  0  0  0  0  0  0  0  0  0
    1.0067    0.9775   -0.2838 C   0  0  0  0  0  0  0  0  0  0  0  0
    2.0434   -1.2431    1.5489 C   0  0  0  0  0  0  0  0  0  0  0  0
    5.0822   -1.3321    1.0225 C   0  0  0  0  0  0  0  0  0  0  0  0
    3.9231   -1.4257    0.0246 C   0  0  0  0  0  0  0  0  0  0  0  0
    1.9131   -0.1921   -0.6897 C   0  0  0  0  0  0  0  0  0  0  0  0
    6.3746    0.4000    2.1709 C   0  0  0  0  0  0  0  0  0  0  0  0
    7.1000   -0.5087    2.7189 N   0  0  0  0  0  0  0  0  0  0  0  0
    6.4108    1.7854    2.4236 N   0  0  0  0  0  0  0  0  0  0  0  0
    5.4064    0.0693    1.2387 N   0  0  0  0  0  0  0  0  0  0  0  0
    2.7661   -0.6234    0.4399 N   0  0  0  0  0  0  0  0  0  0  0  0
    0.5977   -0.9441   -2.2564 H   0  0  0  0  0  0  0  0  0  0  0  0
    0.3295   -1.7138   -0.6880 H   0  0  0  0  0  0  0  0  0  0  0  0
    1.7441   -2.1535   -1.6624 H   0  0  0  0  0  0  0  0  0  0  0  0
    0.5271    1.4066   -1.1706 H   0  0  0  0  0  0  0  0  0  0  0  0
    1.5905    1.7615    0.2094 H   0  0  0  0  0  0  0  0  0  0  0  0
    0.2069    0.6658    0.3974 H   0  0  0  0  0  0  0  0  0  0  0  0
    2.7150   -1.3628    2.4040 H   0  0  0  0  0  0  0  0  0  0  0  0
    1.6322   -2.2394    1.3051 H   0  0  0  0  0  0  0  0  0  0  0  0
    1.2197   -0.6013    1.8719 H   0  0  0  0  0  0  0  0  0  0  0  0
    5.9573   -1.8469    0.6136 H   0  0  0  0  0  0  0  0  0  0  0  0
    4.8461   -1.8412    1.9682 H   0  0  0  0  0  0  0  0  0  0  0  0
    3.6706   -2.4919   -0.1236 H   0  0  0  0  0  0  0  0  0  0  0  0
    4.2683   -1.0356   -0.9397 H   0  0  0  0  0  0  0  0  0  0  0  0
    2.6162    0.1970   -1.4381 H   0  0  0  0  0  0  0  0  0  0  0  0
    7.8247   -0.0892    3.3046 H   0  0  0  0  0  0  0  0  0  0  0  0
    7.2454    2.0790    2.9172 H   0  0  0  0  0  0  0  0  0  0  0  0
    6.2650    2.3511    1.5931 H   0  0  0  0  0  0  0  0  0  0  0  0
    4.5669    0.6421    1.2631 H   0  0  0  0  0  0  0  0  0  0  0  0
  1  6  1  0  0  0  0
  1 13  1  0  0  0  0
  2 16  1  0  0  0  0
  2 17  1  0  0  0  0
  3 20  1  0  0  0  0
  3 18  1  0  0  0  0
  4 10  1  0  0  0  0
  4 22  1  0  0  0  0
  5 11  1  0  0  0  0
  5  4  1  0  0  0  0
  6  2  1  0  0  0  0
  6 11  1  0  0  0  0
  7  9  2  0  0  0  0
  7  8  1  0  0  0  0
  8 26  1  0  0  0  0
  9 27  1  0  0  0  0
 10 29  1  0  0  0  0
 10  7  1  0  0  0  0
 11  3  1  0  0  0  0
 12  1  1  0  0  0  0
 14  1  1  0  0  0  0
 15  2  1  0  0  0  0
 19  3  1  0  0  0  0
 21  4  1  0  0  0  0
 23  5  1  0  0  0  0
 24  5  1  0  0  0  0
 25  6  1  0  0  0  0
 28  9  1  0  0  0  0
M  RAD  1   8   2
M  END
>  <HBA>
4

>  <HBD>
2

>  <TPSA>
67.64

>  <cid>
26502

>  <dipole>
2.72

>  <excitation_energy_1>
5.059

>  <excitation_energy_2>
5.25

>  <excitation_energy_3>
5.433

>  <excitation_energy_4>
5.688

>  <homo_energy>
-5.649

>  <homo_lumo_gap>
7.418

>  <logP>
1.001

>  <lumo_energy>
1.769

>  <melting_point>
101.77

>  <molecular_refractivity>
47.76

>  <oscillator_strength_1>
0.0011

>  <oscillator_strength_2>
0.0064

>  <oscillator_strength_3>
0.0172

>  <oscillator_strength_4>
0.0142

>  <open_babel_can_smiles>
[NH]C(=[NH2])NCCN(C(C)C)C

>  <mulliken_charges>
29
1   -0.456825
2   -0.449149
3   -0.316293
4   -0.105493
5   -0.144567
6   0.054065
7   0.582515
8   -0.650555
9   -0.754806
10   -0.605473
11   -0.394154
12   0.143653
13   0.146304
14   0.149143
15   0.143096
16   0.14931
17   0.143819
18   0.163037
19   0.126735
20   0.152859
21   0.16153
22   0.149219
23   0.121349
24   0.143405
25   0.129185
26   0.258962
27   0.314586
28   0.318363
29   0.326181

>  <lowdin_charges>
29
1   -0.464758
2   -0.452541
3   -0.364264
4   -0.196262
5   -0.204982
6   -0.059494
7   0.124824
8   -0.487796
9   -0.516947
10   -0.315389
11   -0.192651
12   0.153523
13   0.150666
14   0.15223
15   0.153198
16   0.154539
17   0.148069
18   0.156994
19   0.125226
20   0.153807
21   0.160874
22   0.140589
23   0.124961
24   0.147567
25   0.141557
26   0.244352
27   0.272746
28   0.27556
29   0.2738

$$$$

