PCCDB-ID:  66569
public computational chemistry database (PCCDB) project, http://pccdb.org

 20 21  0  0  0  0  0  0  0  0999 V2000
    0.8982    0.1448    0.1774 C   0  0  0  0  0  0  0  0  0  0  0  0
    6.6822   -2.2879   -0.0664 C   0  0  0  0  0  0  0  0  0  0  0  0
    7.3276   -1.0391   -0.0881 C   0  0  0  0  0  0  0  0  0  0  0  0
    5.2987   -2.3500   -0.0107 C   0  0  0  0  0  0  0  0  0  0  0  0
    6.5936    0.1386   -0.0543 C   0  0  0  0  0  0  0  0  0  0  0  0
    3.1561    1.2125    0.0871 C   0  0  0  0  0  0  0  0  0  0  0  0
    2.3981    0.0953    0.1134 C   0  0  0  0  0  0  0  0  0  0  0  0
    4.5310   -1.1729    0.0231 C   0  0  0  0  0  0  0  0  0  0  0  0
    5.1979    0.0599    0.0011 C   0  0  0  0  0  0  0  0  0  0  0  0
    3.0536   -1.2210    0.0825 C   0  0  0  0  0  0  0  0  0  0  0  0
    2.4205   -2.2766    0.1049 O   0  0  0  0  0  0  0  0  0  0  0  0
    4.5115    1.2457    0.0317 O   0  0  0  0  0  0  0  0  0  0  0  0
    0.5259    1.1740    0.1694 H   0  0  0  0  0  0  0  0  0  0  0  0
    0.5357   -0.3535    1.0836 H   0  0  0  0  0  0  0  0  0  0  0  0
    0.4609   -0.3956   -0.6694 H   0  0  0  0  0  0  0  0  0  0  0  0
    7.2698   -3.2008   -0.0933 H   0  0  0  0  0  0  0  0  0  0  0  0
    8.4121   -0.9905   -0.1316 H   0  0  0  0  0  0  0  0  0  0  0  0
    4.7664   -3.2958    0.0072 H   0  0  0  0  0  0  0  0  0  0  0  0
    7.0698    1.1136   -0.0707 H   0  0  0  0  0  0  0  0  0  0  0  0
    2.7535    2.2198    0.1062 H   0  0  0  0  0  0  0  0  0  0  0  0
  1 14  1  0  0  0  0
  2  4  1  0  0  0  0
  3  2  2  0  0  0  0
  3  5  1  0  0  0  0
  4 18  1  0  0  0  0
  4  8  2  0  0  0  0
  5  9  2  0  0  0  0
  6 20  1  0  0  0  0
  6  7  2  0  0  0  0
  7  1  1  0  0  0  0
  8 10  1  0  0  0  0
  9  8  1  0  0  0  0
  9 12  1  0  0  0  0
 10 11  2  0  0  0  0
 10  7  1  0  0  0  0
 12  6  1  0  0  0  0
 13  1  1  0  0  0  0
 15  1  1  0  0  0  0
 16  2  1  0  0  0  0
 17  3  1  0  0  0  0
 19  5  1  0  0  0  0
M  END
>  <HBA>
2

>  <HBD>
0

>  <TPSA>
30.21

>  <cid>
66569

>  <dipole>
3.02

>  <excitation_energy_1>
3.753

>  <excitation_energy_2>
4.404

>  <excitation_energy_3>
4.945

>  <excitation_energy_4>
5.174

>  <homo_energy>
-6.392

>  <homo_lumo_gap>
4.947

>  <logP>
2.101

>  <lumo_energy>
-1.445

>  <melting_point>
87.16

>  <molecular_refractivity>
47.45

>  <oscillator_strength_1>
0.0

>  <oscillator_strength_2>
0.0839

>  <oscillator_strength_3>
0.0142

>  <oscillator_strength_4>
0.0

>  <open_babel_can_smiles>
O=c1c(C)coc2c1cccc2

>  <mulliken_charges>
20
1   -0.509073
2   -0.13165
3   -0.130355
4   -0.175467
5   -0.172098
6   0.046591
7   0.068297
8   0.062324
9   0.294316
10   0.38033
11   -0.51136
12   -0.486827
13   0.144804
14   0.177189
15   0.178144
16   0.140299
17   0.142526
18   0.168042
19   0.150393
20   0.163574

>  <lowdin_charges>
20
1   -0.428519
2   -0.162193
3   -0.132528
4   -0.123574
5   -0.17414
6   -0.033011
7   -0.071815
8   -0.065745
9   0.102708
10   0.13591
11   -0.283697
12   -0.108702
13   0.152664
14   0.170885
15   0.171967
16   0.164127
17   0.162741
18   0.180085
19   0.172283
20   0.170551

$$$$

