PCCDB-ID:  39868
public computational chemistry database (PCCDB) project, http://pccdb.org

 14 13  0  0  0  0  0  0  0  0999 V2000
    1.2697   -0.7068   -0.5888 C   0  0  0  0  0  0  0  0  0  0  0  0
    3.4476   -0.4488    0.6317 C   0  0  0  0  0  0  0  0  0  0  0  0
    2.7170    1.1902   -1.0873 C   0  0  0  0  0  0  0  0  0  0  0  0
    2.5427    0.0069   -0.4223 N   0  0  0  0  0  0  0  0  0  0  0  0
    4.6684   -0.9847    0.1576 O   0  0  0  0  0  0  0  0  0  0  0  0
    1.5325    1.9386   -1.9844 S   0  0  0  0  0  0  0  0  0  0  0  0
    4.3016    2.0080   -0.9775 S   0  0  0  0  0  0  0  0  0  0  0  0
    0.4471   -0.1735   -0.0998 H   0  0  0  0  0  0  0  0  0  0  0  0
    1.3708   -1.7048   -0.1556 H   0  0  0  0  0  0  0  0  0  0  0  0
    1.0273   -0.7904   -1.6500 H   0  0  0  0  0  0  0  0  0  0  0  0
    2.8985   -1.1815    1.2320 H   0  0  0  0  0  0  0  0  0  0  0  0
    3.7325    0.3901    1.2706 H   0  0  0  0  0  0  0  0  0  0  0  0
    4.4660   -1.7119   -0.4540 H   0  0  0  0  0  0  0  0  0  0  0  0
    5.0576    0.9495   -0.5966 H   0  0  0  0  0  0  0  0  0  0  0  0
  1  4  1  0  0  0  0
  1  9  1  0  0  0  0
  1  8  1  0  0  0  0
  2 11  1  0  0  0  0
  2 12  1  0  0  0  0
  3  7  1  0  0  0  0
  3  4  1  0  0  0  0
  4  2  1  0  0  0  0
  5  2  1  0  0  0  0
  6  3  2  0  0  0  0
  7 14  1  0  0  0  0
 10  1  1  0  0  0  0
 13  5  1  0  0  0  0
M  END
>  <HBA>
4

>  <HBD>
2

>  <TPSA>
94.36

>  <cid>
39868

>  <dipole>
5.46

>  <excitation_energy_1>
3.284

>  <excitation_energy_2>
4.665

>  <excitation_energy_3>
4.846

>  <excitation_energy_4>
5.216

>  <homo_energy>
-5.793

>  <homo_lumo_gap>
4.637

>  <logP>
0.083

>  <lumo_energy>
-1.156

>  <melting_point>
47.3

>  <molecular_refractivity>
36.31

>  <oscillator_strength_1>
0.0008

>  <oscillator_strength_2>
0.1342

>  <oscillator_strength_3>
0.0082

>  <oscillator_strength_4>
0.0598

>  <open_babel_can_smiles>
CN(C(=S)S)CO

>  <mulliken_charges>
14
1   -0.319883
2   0.023291
3   -0.033909
4   -0.334716
5   -0.584288
6   -0.201701
7   0.021986
8   0.193471
9   0.149764
10   0.203154
11   0.159769
12   0.198039
13   0.401084
14   0.123939

>  <lowdin_charges>
14
1   -0.351231
2   -0.086233
3   -0.157564
4   -0.099935
5   -0.449483
6   -0.18051
7   0.015616
8   0.171066
9   0.151732
10   0.178384
11   0.152473
12   0.168834
13   0.351432
14   0.135417

$$$$

