PCCDB-ID:  44957
public computational chemistry database (PCCDB) project, http://pccdb.org

 31 31  0  0  0  0  0  0  0  0999 V2000
    2.8085    0.9564    0.9794 C   0  0  0  0  0  0  0  0  0  0  0  0
    2.9385    3.3613    0.3514 C   0  0  0  0  0  0  0  0  0  0  0  0
    4.6102   -4.0431   -3.4262 C   0  0  0  0  0  0  0  0  0  0  0  0
    3.2311   -4.1801   -5.4739 C   0  0  0  0  0  0  0  0  0  0  0  0
    3.8881    2.2130   -3.6157 C   0  0  0  0  0  0  0  0  0  0  0  0
    3.5146    2.5911   -2.3287 C   0  0  0  0  0  0  0  0  0  0  0  0
    4.0226    0.8747   -3.9819 C   0  0  0  0  0  0  0  0  0  0  0  0
    3.3839    0.2601   -1.7115 C   0  0  0  0  0  0  0  0  0  0  0  0
    3.2427    1.6156   -1.3431 C   0  0  0  0  0  0  0  0  0  0  0  0
    3.7610   -0.0825   -3.0051 C   0  0  0  0  0  0  0  0  0  0  0  0
    3.4053   -2.0473   -4.3328 C   0  0  0  0  0  0  0  0  0  0  0  0
    2.8392    1.9715   -0.0588 N   0  0  0  0  0  0  0  0  0  0  0  0
    3.7786   -3.3612   -4.4050 N   0  0  0  0  0  0  0  0  0  0  0  0
    2.6836   -1.4789   -5.1294 O   0  0  0  0  0  0  0  0  0  0  0  0
    3.9606   -1.4469   -3.2255 O   0  0  0  0  0  0  0  0  0  0  0  0
    2.4573    1.4076    1.9097 H   0  0  0  0  0  0  0  0  0  0  0  0
    3.7952    0.5011    1.1670 H   0  0  0  0  0  0  0  0  0  0  0  0
    2.1098    0.1522    0.7202 H   0  0  0  0  0  0  0  0  0  0  0  0
    2.5668    3.4591    1.3735 H   0  0  0  0  0  0  0  0  0  0  0  0
    2.3189    4.0029   -0.2861 H   0  0  0  0  0  0  0  0  0  0  0  0
    3.9706    3.7477    0.3203 H   0  0  0  0  0  0  0  0  0  0  0  0
    4.0211   -4.7700   -2.8484 H   0  0  0  0  0  0  0  0  0  0  0  0
    5.0545   -3.3237   -2.7428 H   0  0  0  0  0  0  0  0  0  0  0  0
    5.4119   -4.5892   -3.9398 H   0  0  0  0  0  0  0  0  0  0  0  0
    4.0414   -4.6375   -6.0566 H   0  0  0  0  0  0  0  0  0  0  0  0
    2.6267   -3.5498   -6.1243 H   0  0  0  0  0  0  0  0  0  0  0  0
    2.6049   -4.9848   -5.0642 H   0  0  0  0  0  0  0  0  0  0  0  0
    4.0857    2.9871   -4.3527 H   0  0  0  0  0  0  0  0  0  0  0  0
    3.4336    3.6457   -2.0964 H   0  0  0  0  0  0  0  0  0  0  0  0
    4.3058    0.5835   -4.9848 H   0  0  0  0  0  0  0  0  0  0  0  0
    3.2114   -0.5437   -1.0080 H   0  0  0  0  0  0  0  0  0  0  0  0
  1 17  1  0  0  0  0
  1 16  1  0  0  0  0
  2 19  1  0  0  0  0
  3 22  1  0  0  0  0
  3 23  1  0  0  0  0
  4 27  1  0  0  0  0
  4 13  1  0  0  0  0
  5  6  1  0  0  0  0
  6 29  1  0  0  0  0
  6  9  2  0  0  0  0
  7  5  2  0  0  0  0
  7 10  1  0  0  0  0
  8  9  1  0  0  0  0
  8 31  1  0  0  0  0
  9 12  1  0  0  0  0
 10  8  2  0  0  0  0
 11 15  1  0  0  0  0
 12  2  1  0  0  0  0
 12  1  1  0  0  0  0
 13 11  1  0  0  0  0
 13  3  1  0  0  0  0
 14 11  2  0  0  0  0
 15 10  1  0  0  0  0
 18  1  1  0  0  0  0
 20  2  1  0  0  0  0
 21  2  1  0  0  0  0
 24  3  1  0  0  0  0
 25  4  1  0  0  0  0
 26  4  1  0  0  0  0
 28  5  1  0  0  0  0
 30  7  1  0  0  0  0
M  END
>  <HBA>
4

>  <HBD>
0

>  <TPSA>
32.78

>  <cid>
44957

>  <dipole>
3.32

>  <excitation_energy_1>
4.496

>  <excitation_energy_2>
4.557

>  <excitation_energy_3>
4.959

>  <excitation_energy_4>
5.127

>  <homo_energy>
-5.056

>  <homo_lumo_gap>
5.391

>  <logP>
1.813

>  <lumo_energy>
0.335

>  <melting_point>
51.8

>  <molecular_refractivity>
60.24

>  <oscillator_strength_1>
0.0553

>  <oscillator_strength_2>
0.0284

>  <oscillator_strength_3>
0.0013

>  <oscillator_strength_4>
0.0014

>  <open_babel_can_smiles>
CN(C(=O)Oc1cccc(c1)N(C)C)C

>  <mulliken_charges>
31
1   -0.308503
2   -0.309978
3   -0.314105
4   -0.316776
5   -0.15124
6   -0.189233
7   -0.147692
8   -0.249745
9   0.36532
10   0.361901
11   0.781935
12   -0.475075
13   -0.435336
14   -0.510336
15   -0.562951
16   0.153197
17   0.14855
18   0.16438
19   0.152768
20   0.16452
21   0.149344
22   0.152583
23   0.19786
24   0.153546
25   0.151653
26   0.20494
27   0.151302
28   0.127497
29   0.120691
30   0.141406
31   0.127575

>  <lowdin_charges>
31
1   -0.351417
2   -0.34936
3   -0.35635
4   -0.354532
5   -0.142321
6   -0.216138
7   -0.197324
8   -0.229441
9   0.064484
10   0.117748
11   0.214868
12   -0.120454
13   -0.109001
14   -0.306398
15   -0.18118
16   0.156696
17   0.139692
18   0.154509
19   0.155246
20   0.155305
21   0.139364
22   0.14799
23   0.180109
24   0.151152
25   0.149573
26   0.186599
27   0.147993
28   0.158635
29   0.157286
30   0.169804
31   0.166863

$$$$

