PCCDB-ID:  52403
public computational chemistry database (PCCDB) project, http://pccdb.org

 30 29  0  0  1  0  0  0  0  0999 V2000
    0.6734    0.7971    2.3731 C   0  0  0  0  0  0  0  0  0  0  0  0
   -1.8879    0.7284   -1.4641 C   0  0  0  0  0  0  0  0  0  0  0  0
   -1.6539   -1.5086   -0.6248 C   0  0  0  0  0  0  0  0  0  0  0  0
    3.1512    2.8960   -0.7592 C   0  0  0  0  0  0  0  0  0  0  0  0
    2.8696   -0.4656   -2.6934 C   0  0  0  0  0  0  0  0  0  0  0  0
    1.5894   -0.2917    0.2203 C   0  0  0  0  0  0  0  0  0  0  0  0
    0.4040    0.2612    0.9923 C   0  0  2  0  0  0  0  0  0  0  0  0
    2.1897    0.7358   -0.7496 C   0  0  0  0  0  0  0  0  0  0  0  0
   -0.8038    0.3288    0.5671 N   0  0  0  0  0  0  0  0  0  0  0  0
   -0.9960   -0.2077   -0.7771 N   0  0  0  0  0  0  0  0  0  0  0  0
    2.6885    1.7949    0.0114 O   0  0  0  0  0  0  0  0  0  0  0  0
    3.2593    0.1671   -1.4884 O   0  0  0  0  0  0  0  0  0  0  0  0
    1.4596    1.5586    2.3243 H   0  0  0  0  0  0  0  0  0  0  0  0
    1.0377   -0.0028    3.0316 H   0  0  0  0  0  0  0  0  0  0  0  0
   -0.2361    1.2250    2.8005 H   0  0  0  0  0  0  0  0  0  0  0  0
   -2.8451    0.8709   -0.9345 H   0  0  0  0  0  0  0  0  0  0  0  0
   -2.0867    0.3479   -2.4719 H   0  0  0  0  0  0  0  0  0  0  0  0
   -1.3949    1.7010   -1.5506 H   0  0  0  0  0  0  0  0  0  0  0  0
   -1.8915   -1.9012   -1.6192 H   0  0  0  0  0  0  0  0  0  0  0  0
   -2.5825   -1.4461   -0.0316 H   0  0  0  0  0  0  0  0  0  0  0  0
   -0.9749   -2.2097   -0.1292 H   0  0  0  0  0  0  0  0  0  0  0  0
    3.4574    3.6664   -0.0478 H   0  0  0  0  0  0  0  0  0  0  0  0
    2.3495    3.2955   -1.3991 H   0  0  0  0  0  0  0  0  0  0  0  0
    4.0039    2.6152   -1.3867 H   0  0  0  0  0  0  0  0  0  0  0  0
    3.7868   -0.8040   -3.1818 H   0  0  0  0  0  0  0  0  0  0  0  0
    2.3401    0.2282   -3.3646 H   0  0  0  0  0  0  0  0  0  0  0  0
    2.2212   -1.3361   -2.5169 H   0  0  0  0  0  0  0  0  0  0  0  0
    1.2880   -1.1627   -0.3648 H   0  0  0  0  0  0  0  0  0  0  0  0
    2.3866   -0.5893    0.9094 H   0  0  0  0  0  0  0  0  0  0  0  0
    1.4168    1.0930   -1.4530 H   0  0  0  0  0  0  0  0  0  0  0  0
  1 15  1  0  0  0  0
  1 14  1  0  0  0  0
  2 16  1  0  0  0  0
  2 10  1  0  0  0  0
  3 21  1  0  0  0  0
  3 20  1  0  0  0  0
  4 22  1  0  0  0  0
  4 11  1  0  0  0  0
  5 27  1  0  0  0  0
  5 12  1  0  0  0  0
  6 29  1  0  0  0  0
  6  7  1  0  0  0  0
  7  9  1  6  0  0  0
  7  1  1  0  0  0  0
  8 11  1  0  0  0  0
  8  6  1  0  0  0  0
 10  3  1  0  0  0  0
 10  9  1  0  0  0  0
 12  8  1  0  0  0  0
 13  1  1  0  0  0  0
 17  2  1  0  0  0  0
 18  2  1  0  0  0  0
 19  3  1  0  0  0  0
 23  4  1  0  0  0  0
 24  4  1  0  0  0  0
 25  5  1  0  0  0  0
 26  5  1  0  0  0  0
 28  6  1  0  0  0  0
 30  8  1  0  0  0  0
M  RAD  2   7   2   9   2
M  END
>  <HBA>
4

>  <HBD>
0

>  <TPSA>
34.06

>  <cid>
52403

>  <dipole>
1.77

>  <excitation_energy_1>
4.257

>  <excitation_energy_2>
5.042

>  <excitation_energy_3>
5.409

>  <excitation_energy_4>
5.561

>  <homo_energy>
-5.388

>  <homo_lumo_gap>
5.622

>  <logP>
0.933

>  <lumo_energy>
0.234

>  <melting_point>
-25.29

>  <molecular_refractivity>
49.32

>  <oscillator_strength_1>
0.0057

>  <oscillator_strength_2>
0.0076

>  <oscillator_strength_3>
0.0078

>  <oscillator_strength_4>
0.0189

>  <open_babel_can_smiles>
COC(C[C]([N]N(C)C)C)OC

>  <mulliken_charges>
30
1   -0.509117
2   -0.274324
3   -0.281436
4   -0.203597
5   -0.205777
6   -0.34479
7   0.344077
8   0.381962
9   -0.326535
10   -0.320281
11   -0.47172
12   -0.474946
13   0.183017
14   0.154192
15   0.168688
16   0.133973
17   0.140109
18   0.150045
19   0.144949
20   0.13698
21   0.147068
22   0.15858
23   0.129744
24   0.159226
25   0.160901
26   0.135713
27   0.141592
28   0.1662
29   0.157126
30   0.118379

>  <lowdin_charges>
30
1   -0.451467
2   -0.359947
3   -0.362164
4   -0.285777
5   -0.282567
6   -0.309039
7   0.063558
8   0.103434
9   -0.143854
10   -0.142344
11   -0.249216
12   -0.269442
13   0.173404
14   0.160291
15   0.166717
16   0.132084
17   0.146064
18   0.149867
19   0.149507
20   0.132795
21   0.149188
22   0.157449
23   0.135029
24   0.148567
25   0.157678
26   0.136232
27   0.13656
28   0.169665
29   0.163906
30   0.123821

$$$$

