PCCDB-ID:  46664
public computational chemistry database (PCCDB) project, http://pccdb.org

 28 30  0  0  0  0  0  0  0  0999 V2000
   -3.7133   -0.6354   -0.0316 C   0  0  0  0  0  0  0  0  0  0  0  0
   -3.6624    0.7641    0.0184 C   0  0  0  0  0  0  0  0  0  0  0  0
   -2.5313   -1.3622   -0.0371 C   0  0  0  0  0  0  0  0  0  0  0  0
   -2.4394    1.4151    0.0583 C   0  0  0  0  0  0  0  0  0  0  0  0
    3.6052    0.8194    0.0216 C   0  0  0  0  0  0  0  0  0  0  0  0
    2.3792    1.4595    0.0518 C   0  0  0  0  0  0  0  0  0  0  0  0
    2.4971   -1.3243   -0.0403 C   0  0  0  0  0  0  0  0  0  0  0  0
    3.6811   -0.5872   -0.0161 C   0  0  0  0  0  0  0  0  0  0  0  0
   -1.2731   -0.7380    0.0056 C   0  0  0  0  0  0  0  0  0  0  0  0
    1.2438   -0.7053    0.0052 C   0  0  0  0  0  0  0  0  0  0  0  0
   -1.2440    0.6750    0.0497 C   0  0  0  0  0  0  0  0  0  0  0  0
    1.1905    0.7054    0.0500 C   0  0  0  0  0  0  0  0  0  0  0  0
   -0.0025   -1.5134    0.0067 C   0  0  0  0  0  0  0  0  0  0  0  0
    4.9771   -1.3312   -0.0707 C   0  0  0  0  0  0  0  0  0  0  0  0
    0.1144   -2.7950    0.0114 N   0  0  0  0  0  0  0  0  0  0  0  0
   -0.0309    1.3419    0.0862 N   0  0  0  0  0  0  0  0  0  0  0  0
    5.0893   -2.4583   -0.4896 O   0  0  0  0  0  0  0  0  0  0  0  0
    6.0810   -0.6665    0.3846 O   0  0  0  0  0  0  0  0  0  0  0  0
   -4.6692   -1.1486   -0.0661 H   0  0  0  0  0  0  0  0  0  0  0  0
   -4.5800    1.3455    0.0240 H   0  0  0  0  0  0  0  0  0  0  0  0
   -2.5831   -2.4465   -0.0790 H   0  0  0  0  0  0  0  0  0  0  0  0
   -2.3940    2.5014    0.0952 H   0  0  0  0  0  0  0  0  0  0  0  0
    4.5062    1.4274   -0.0160 H   0  0  0  0  0  0  0  0  0  0  0  0
    2.3267    2.5456    0.0651 H   0  0  0  0  0  0  0  0  0  0  0  0
    2.5371   -2.4064   -0.0901 H   0  0  0  0  0  0  0  0  0  0  0  0
   -0.7964   -3.2597    0.0151 H   0  0  0  0  0  0  0  0  0  0  0  0
   -0.0450    2.3521    0.1032 H   0  0  0  0  0  0  0  0  0  0  0  0
    5.8114    0.1378    0.8561 H   0  0  0  0  0  0  0  0  0  0  0  0
  1  2  2  0  0  0  0
  2 20  1  0  0  0  0
  2  4  1  0  0  0  0
  3  1  1  0  0  0  0
  3  9  2  0  0  0  0
  4 22  1  0  0  0  0
  5  6  1  0  0  0  0
  6 24  1  0  0  0  0
  7  8  1  0  0  0  0
  7 10  2  0  0  0  0
  8  5  2  0  0  0  0
  9 13  1  0  0  0  0
  9 11  1  0  0  0  0
 10 13  1  0  0  0  0
 10 12  1  0  0  0  0
 11  4  2  0  0  0  0
 11 16  1  0  0  0  0
 12  6  2  0  0  0  0
 12 16  1  0  0  0  0
 13 15  2  0  0  0  0
 14  8  1  0  0  0  0
 14 18  1  0  0  0  0
 15 26  1  0  0  0  0
 16 27  1  0  0  0  0
 17 14  2  0  0  0  0
 18 28  1  0  0  0  0
 19  1  1  0  0  0  0
 21  3  1  0  0  0  0
 23  5  1  0  0  0  0
 25  7  1  0  0  0  0
M  END
>  <HBA>
4

>  <HBD>
2

>  <TPSA>
76.21

>  <cid>
46664

>  <dipole>
8.85

>  <excitation_energy_1>
3.496

>  <excitation_energy_2>
3.875

>  <excitation_energy_3>
4.274

>  <excitation_energy_4>
4.43

>  <homo_energy>
-5.72

>  <homo_lumo_gap>
4.065

>  <logP>
3.25

>  <lumo_energy>
-1.654

>  <melting_point>
250.98

>  <molecular_refractivity>
70.61

>  <oscillator_strength_1>
0.0771

>  <oscillator_strength_2>
0.2401

>  <oscillator_strength_3>
0.0018

>  <oscillator_strength_4>
0.0084

>  <open_babel_can_smiles>
OC(=O)c1ccc2c(c1)c(=N)c1c([nH]2)cccc1

>  <mulliken_charges>
28
1   -0.13439
2   -0.130289
3   -0.212803
4   -0.183747
5   -0.200965
6   -0.187309
7   -0.231454
8   0.055595
9   0.112695
10   0.096301
11   0.346311
12   0.353691
13   0.239526
14   0.550967
15   -0.64678
16   -0.843757
17   -0.443464
18   -0.580936
19   0.138247
20   0.140987
21   0.139781
22   0.130293
23   0.135799
24   0.132247
25   0.2048
26   0.285329
27   0.326865
28   0.40646

>  <lowdin_charges>
28
1   -0.16967
2   -0.135388
3   -0.133936
4   -0.186695
5   -0.151198
6   -0.189721
7   -0.089924
8   -0.075909
9   -0.05656
10   -0.042796
11   0.062957
12   0.068474
13   0.053615
14   0.189793
15   -0.385166
16   -0.206938
17   -0.236972
18   -0.363321
19   0.163491
20   0.164857
21   0.158557
22   0.155807
23   0.159609
24   0.157188
25   0.198404
26   0.247993
27   0.288452
28   0.354997

$$$$

