PCCDB-ID:  12154
public computational chemistry database (PCCDB) project, http://pccdb.org

 18 18  0  0  0  0  0  0  0  0999 V2000
   -1.7540    0.1835    0.0279 C   0  0  0  0  0  0  0  0  0  0  0  0
   -1.0061    1.3212   -0.2839 C   0  0  0  0  0  0  0  0  0  0  0  0
   -1.0846   -1.0130    0.2933 C   0  0  0  0  0  0  0  0  0  0  0  0
    0.3843    1.2657   -0.3294 C   0  0  0  0  0  0  0  0  0  0  0  0
    0.3066   -1.0858    0.2516 C   0  0  0  0  0  0  0  0  0  0  0  0
    4.3555   -1.1532   -0.3689 C   0  0  0  0  0  0  0  0  0  0  0  0
    1.0537    0.0603   -0.0604 C   0  0  0  0  0  0  0  0  0  0  0  0
    3.1186   -1.1471   -0.0740 N   0  0  0  0  0  0  0  0  0  0  0  0
    2.4530    0.0546   -0.0657 N   0  0  0  0  0  0  0  0  0  0  0  0
    5.0862   -2.2924   -0.3545 O   0  0  0  0  0  0  0  0  0  0  0  0
   -2.8385    0.2286    0.0608 H   0  0  0  0  0  0  0  0  0  0  0  0
   -1.5064    2.2627   -0.4958 H   0  0  0  0  0  0  0  0  0  0  0  0
   -1.6512   -1.9087    0.5356 H   0  0  0  0  0  0  0  0  0  0  0  0
    0.9579    2.1588   -0.5705 H   0  0  0  0  0  0  0  0  0  0  0  0
    0.8238   -2.0157    0.4548 H   0  0  0  0  0  0  0  0  0  0  0  0
    4.9587   -0.2879   -0.6525 H   0  0  0  0  0  0  0  0  0  0  0  0
    2.8939    0.8274   -0.5584 H   0  0  0  0  0  0  0  0  0  0  0  0
    4.4851   -3.0092   -0.0808 H   0  0  0  0  0  0  0  0  0  0  0  0
  1 11  1  0  0  0  0
  1  3  2  0  0  0  0
  2  1  1  0  0  0  0
  3 13  1  0  0  0  0
  4  2  2  0  0  0  0
  4  7  1  0  0  0  0
  5  3  1  0  0  0  0
  5 15  1  0  0  0  0
  6 10  1  0  0  0  0
  6  8  2  0  0  0  0
  7  5  2  0  0  0  0
  8  9  1  0  0  0  0
  9  7  1  0  0  0  0
 10 18  1  0  0  0  0
 12  2  1  0  0  0  0
 14  4  1  0  0  0  0
 16  6  1  0  0  0  0
 17  9  1  0  0  0  0
M  END
>  <HBA>
3

>  <HBD>
2

>  <TPSA>
41.13

>  <cid>
12154

>  <dipole>
1.26

>  <excitation_energy_1>
4.288

>  <excitation_energy_2>
4.517

>  <excitation_energy_3>
4.736

>  <excitation_energy_4>
4.782

>  <homo_energy>
-5.108

>  <homo_lumo_gap>
5.203

>  <logP>
1.859

>  <lumo_energy>
0.095

>  <melting_point>
86.44

>  <molecular_refractivity>
39.14

>  <oscillator_strength_1>
0.0526

>  <oscillator_strength_2>
0.0229

>  <oscillator_strength_3>
0.3136

>  <oscillator_strength_4>
0.0089

>  <open_babel_can_smiles>
O/C=N/Nc1ccccc1

>  <mulliken_charges>
18
1   -0.135097
2   -0.135245
3   -0.139497
4   -0.191328
5   -0.1604
6   0.276095
7   0.361578
8   -0.25576
9   -0.543913
10   -0.565703
11   0.120864
12   0.125133
13   0.125425
14   0.113398
15   0.140968
16   0.142123
17   0.308844
18   0.412515

>  <lowdin_charges>
18
1   -0.183848
2   -0.147378
3   -0.145897
4   -0.203024
5   -0.194315
6   -0.023077
7   0.058682
8   -0.146542
9   -0.208657
10   -0.36203
11   0.152795
12   0.156155
13   0.15645
14   0.150888
15   0.167292
16   0.144964
17   0.264855
18   0.362686

$$$$

