PCCDB-ID:  19725
public computational chemistry database (PCCDB) project, http://pccdb.org

 39 41  0  0  1  0  0  0  0  0999 V2000
    1.2890   -0.2731   -0.5189 C   0  0  0  0  0  0  0  0  0  0  0  0
    3.5053   -1.4220   -0.8801 C   0  0  0  0  0  0  0  0  0  0  0  0
    4.1417    5.0944    1.8217 C   0  0  0  0  0  0  0  0  0  0  0  0
    7.0725    2.4070    0.8955 C   0  0  0  0  0  0  0  0  0  0  0  0
    4.6628    4.1291   -0.4418 C   0  0  0  0  0  0  0  0  0  0  0  0
    4.9642    2.9212   -1.2996 C   0  0  0  0  0  0  0  0  0  0  0  0
    4.3945   -0.2203    1.9397 C   0  0  0  0  0  0  0  0  0  0  0  0
    5.7707    0.3462    1.5258 C   0  0  0  0  0  0  0  0  0  0  0  0
    2.5727   -0.7784    0.1595 C   0  0  0  0  0  0  0  0  0  0  0  0
    4.4235    3.9686    0.8670 C   0  0  0  0  0  0  0  0  0  0  0  0
    3.2112    0.3053    1.0760 C   0  0  2  0  0  0  0  0  0  0  0  0
    4.9044    1.6320   -0.4596 C   0  0  2  0  0  0  0  0  0  0  0  0
    3.6073    1.6346    0.4130 C   0  0  2  0  0  0  0  0  0  0  0  0
    4.4304    2.5442    1.3945 C   0  0  1  0  0  0  0  0  0  0  0  0
    5.6961    1.7506    0.8834 C   0  0  2  0  0  0  0  0  0  0  0  0
    0.7623   -1.0952   -1.0181 H   0  0  0  0  0  0  0  0  0  0  0  0
    1.5082    0.4848   -1.2805 H   0  0  0  0  0  0  0  0  0  0  0  0
    0.5987    0.1733    0.2076 H   0  0  0  0  0  0  0  0  0  0  0  0
    3.0292   -2.3100   -1.3139 H   0  0  0  0  0  0  0  0  0  0  0  0
    4.4569   -1.7417   -0.4405 H   0  0  0  0  0  0  0  0  0  0  0  0
    3.7273   -0.7392   -1.7070 H   0  0  0  0  0  0  0  0  0  0  0  0
    4.1513    6.0661    1.3165 H   0  0  0  0  0  0  0  0  0  0  0  0
    4.8854    5.1244    2.6307 H   0  0  0  0  0  0  0  0  0  0  0  0
    3.1625    4.9716    2.3059 H   0  0  0  0  0  0  0  0  0  0  0  0
    7.7975    1.7875    0.3506 H   0  0  0  0  0  0  0  0  0  0  0  0
    7.4428    2.5115    1.9238 H   0  0  0  0  0  0  0  0  0  0  0  0
    7.0656    3.4006    0.4403 H   0  0  0  0  0  0  0  0  0  0  0  0
    4.6608    5.1156   -0.9036 H   0  0  0  0  0  0  0  0  0  0  0  0
    5.9547    3.0247   -1.7699 H   0  0  0  0  0  0  0  0  0  0  0  0
    4.2481    2.8529   -2.1337 H   0  0  0  0  0  0  0  0  0  0  0  0
    4.2088    0.0660    2.9813 H   0  0  0  0  0  0  0  0  0  0  0  0
    4.4198   -1.3168    1.9373 H   0  0  0  0  0  0  0  0  0  0  0  0
    6.2673   -0.3226    0.8078 H   0  0  0  0  0  0  0  0  0  0  0  0
    6.4233    0.3788    2.4086 H   0  0  0  0  0  0  0  0  0  0  0  0
    2.2742   -1.5821    0.8510 H   0  0  0  0  0  0  0  0  0  0  0  0
    2.4040    0.5686    1.7775 H   0  0  0  0  0  0  0  0  0  0  0  0
    5.1251    0.7547   -1.0750 H   0  0  0  0  0  0  0  0  0  0  0  0
    2.7387    2.1236   -0.0414 H   0  0  0  0  0  0  0  0  0  0  0  0
    4.1901    2.4958    2.4635 H   0  0  0  0  0  0  0  0  0  0  0  0
  1  9  1  0  0  0  0
  1 18  1  0  0  0  0
  2 20  1  0  0  0  0
  2  9  1  0  0  0  0
  3 24  1  0  0  0  0
  3 23  1  0  0  0  0
  4 26  1  0  0  0  0
  5 10  2  0  0  0  0
  6 12  1  0  0  0  0
  6  5  1  0  0  0  0
  7 31  1  0  0  0  0
  8  7  1  0  0  0  0
  8 34  1  0  0  0  0
  9 35  1  0  0  0  0
  9 11  1  0  0  0  0
 10 14  1  0  0  0  0
 10  3  1  0  0  0  0
 11 36  1  1  0  0  0
 11  7  1  0  0  0  0
 12 37  1  6  0  0  0
 12 13  1  0  0  0  0
 12 15  1  0  0  0  0
 13 38  1  6  0  0  0
 13 11  1  0  0  0  0
 13 14  1  0  0  0  0
 14 39  1  1  0  0  0
 15  4  1  6  0  0  0
 15 14  1  0  0  0  0
 15  8  1  0  0  0  0
 16  1  1  0  0  0  0
 17  1  1  0  0  0  0
 19  2  1  0  0  0  0
 21  2  1  0  0  0  0
 22  3  1  0  0  0  0
 25  4  1  0  0  0  0
 27  4  1  0  0  0  0
 28  5  1  0  0  0  0
 29  6  1  0  0  0  0
 30  6  1  0  0  0  0
 32  7  1  0  0  0  0
 33  8  1  0  0  0  0
M  END
>  <HBA>
0

>  <HBD>
0

>  <TPSA>
0.0

>  <cid>
19725

>  <dipole>
0.31

>  <excitation_energy_1>
5.389

>  <excitation_energy_2>
5.702

>  <excitation_energy_3>
5.743

>  <excitation_energy_4>
5.847

>  <homo_energy>
-5.878

>  <homo_lumo_gap>
6.702

>  <logP>
4.271

>  <lumo_energy>
0.825

>  <melting_point>
67.09

>  <molecular_refractivity>
67.14

>  <oscillator_strength_1>
0.0013

>  <oscillator_strength_2>
0.0033

>  <oscillator_strength_3>
0.0089

>  <oscillator_strength_4>
0.0071

>  <open_babel_can_smiles>
CC([C@H]1CC[C@]2([C@H]3[C@@H]1[C@@H]2C(=CC3)C)C)C

>  <mulliken_charges>
39
1   -0.451008
2   -0.451007
3   -0.526043
4   -0.4749
5   -0.211471
6   -0.289415
7   -0.303488
8   -0.27562
9   -0.07213
10   0.236877
11   -0.062827
12   -0.129097
13   -0.111248
14   -0.21424
15   0.125807
16   0.138516
17   0.144421
18   0.138217
19   0.137468
20   0.143803
21   0.146395
22   0.150733
23   0.152662
24   0.151639
25   0.136356
26   0.135183
27   0.151463
28   0.110637
29   0.139089
30   0.137814
31   0.136008
32   0.132776
33   0.130132
34   0.126923
35   0.118326
36   0.114358
37   0.113432
38   0.11926
39   0.104198

>  <lowdin_charges>
39
1   -0.449939
2   -0.451188
3   -0.438739
4   -0.451505
5   -0.201948
6   -0.273163
7   -0.283596
8   -0.278112
9   -0.122734
10   -0.00995
11   -0.131417
12   -0.14141
13   -0.129595
14   -0.139448
15   0.010318
16   0.148987
17   0.147278
18   0.147607
19   0.147978
20   0.148199
21   0.147935
22   0.154484
23   0.155325
24   0.153792
25   0.148973
26   0.146082
27   0.155715
28   0.146792
29   0.145807
30   0.147435
31   0.143081
32   0.142802
33   0.139672
34   0.141556
35   0.136217
36   0.138433
37   0.137173
38   0.13841
39   0.132693

$$$$

