PCCDB-ID:  52375
public computational chemistry database (PCCDB) project, http://pccdb.org

 32 31  0  0  0  0  0  0  0  0999 V2000
    4.6487    1.6999    0.6687 C   0  0  0  0  0  0  0  0  0  0  0  0
    4.5868    2.7849   -1.6244 C   0  0  0  0  0  0  0  0  0  0  0  0
    4.9309   -1.8851   -1.9792 C   0  0  0  0  0  0  0  0  0  0  0  0
    8.8758   -1.8255   -3.6229 C   0  0  0  0  0  0  0  0  0  0  0  0
    9.4329   -1.0321   -2.6984 C   0  0  0  0  0  0  0  0  0  0  0  0
    6.4549   -1.9652   -1.8176 C   0  0  0  0  0  0  0  0  0  0  0  0
    4.2949   -0.8286   -1.0837 C   0  0  0  0  0  0  0  0  0  0  0  0
    4.2125    1.5612   -0.7936 C   0  0  0  0  0  0  0  0  0  0  0  0
    7.9888   -2.9854   -3.3491 C   0  0  0  0  0  0  0  0  0  0  0  0
   10.3174    0.0953   -3.1211 C   0  0  0  0  0  0  0  0  0  0  0  0
    6.9740   -3.0737   -2.5966 N   0  0  0  0  0  0  0  0  0  0  0  0
    8.3110   -4.1020   -4.0782 O   0  0  0  0  0  0  0  0  0  0  0  0
   10.6170    0.3259   -4.2687 O   0  0  0  0  0  0  0  0  0  0  0  0
   10.7946    0.8793   -2.1186 O   0  0  0  0  0  0  0  0  0  0  0  0
    4.8296    0.4399   -1.4291 O   0  0  0  0  0  0  0  0  0  0  0  0
    4.1782    2.5763    1.1288 H   0  0  0  0  0  0  0  0  0  0  0  0
    5.7365    1.8217    0.7279 H   0  0  0  0  0  0  0  0  0  0  0  0
    4.3690    0.8235    1.2627 H   0  0  0  0  0  0  0  0  0  0  0  0
    4.1166    3.6881   -1.2207 H   0  0  0  0  0  0  0  0  0  0  0  0
    4.2642    2.6550   -2.6619 H   0  0  0  0  0  0  0  0  0  0  0  0
    5.6732    2.9294   -1.6200 H   0  0  0  0  0  0  0  0  0  0  0  0
    4.4936   -2.8633   -1.7464 H   0  0  0  0  0  0  0  0  0  0  0  0
    4.6907   -1.6633   -3.0259 H   0  0  0  0  0  0  0  0  0  0  0  0
    9.1059   -1.6110   -4.6677 H   0  0  0  0  0  0  0  0  0  0  0  0
    9.2631   -1.2062   -1.6380 H   0  0  0  0  0  0  0  0  0  0  0  0
    6.6842   -2.1610   -0.7585 H   0  0  0  0  0  0  0  0  0  0  0  0
    6.8963   -0.9922   -2.0696 H   0  0  0  0  0  0  0  0  0  0  0  0
    4.4910   -1.0665   -0.0246 H   0  0  0  0  0  0  0  0  0  0  0  0
    3.2004   -0.8276   -1.2198 H   0  0  0  0  0  0  0  0  0  0  0  0
    3.1177    1.4245   -0.8280 H   0  0  0  0  0  0  0  0  0  0  0  0
    9.1592   -3.9593   -4.5275 H   0  0  0  0  0  0  0  0  0  0  0  0
   10.4554    0.5805   -1.2590 H   0  0  0  0  0  0  0  0  0  0  0  0
  1 17  1  0  0  0  0
  1 16  1  0  0  0  0
  1 18  1  0  0  0  0
  2 21  1  0  0  0  0
  2 19  1  0  0  0  0
  2  8  1  0  0  0  0
  3  6  1  0  0  0  0
  3 22  1  0  0  0  0
  3  7  1  0  0  0  0
  4  9  1  0  0  0  0
  4  5  2  0  0  0  0
  5 25  1  0  0  0  0
  6 26  1  0  0  0  0
  7 28  1  0  0  0  0
  8  1  1  0  0  0  0
  9 11  2  0  0  0  0
 10  5  1  0  0  0  0
 10 14  1  0  0  0  0
 11  6  1  0  0  0  0
 12  9  1  0  0  0  0
 13 10  2  0  0  0  0
 14 32  1  0  0  0  0
 15  7  1  0  0  0  0
 15  8  1  0  0  0  0
 20  2  1  0  0  0  0
 23  3  1  0  0  0  0
 24  4  1  0  0  0  0
 27  6  1  0  0  0  0
 29  7  1  0  0  0  0
 30  8  1  0  0  0  0
 31 12  1  0  0  0  0
M  END
>  <HBA>
5

>  <HBD>
2

>  <TPSA>
75.63

>  <cid>
52375

>  <dipole>
3.25

>  <excitation_energy_1>
3.674

>  <excitation_energy_2>
4.116

>  <excitation_energy_3>
4.202

>  <excitation_energy_4>
4.356

>  <homo_energy>
-6.819

>  <homo_lumo_gap>
4.659

>  <logP>
0.949

>  <lumo_energy>
-2.161

>  <melting_point>
97.35

>  <molecular_refractivity>
55.57

>  <oscillator_strength_1>
0.0008

>  <oscillator_strength_2>
0.0068

>  <oscillator_strength_3>
0.0631

>  <oscillator_strength_4>
0.0252

>  <open_babel_can_smiles>
CC(OCCC/N=C(\C=C\C(=O)O)/O)C

>  <mulliken_charges>
32
1   -0.45566
2   -0.447146
3   -0.267999
4   -0.183974
5   -0.203382
6   -0.156439
7   -0.019819
8   0.165001
9   0.464266
10   0.606275
11   -0.399148
12   -0.581644
13   -0.446594
14   -0.573683
15   -0.486222
16   0.144287
17   0.145323
18   0.147284
19   0.140809
20   0.156268
21   0.149881
22   0.150163
23   0.150245
24   0.194204
25   0.153517
26   0.13612
27   0.148423
28   0.11639
29   0.122329
30   0.110232
31   0.408515
32   0.412179

>  <lowdin_charges>
32
1   -0.459758
2   -0.445328
3   -0.281454
4   -0.140081
5   -0.200256
6   -0.203693
7   -0.125211
8   0.013148
9   0.119436
10   0.192694
11   -0.178413
12   -0.363979
13   -0.238692
14   -0.347707
15   -0.281117
16   0.154961
17   0.149009
18   0.151742
19   0.152548
20   0.157089
21   0.15167
22   0.155892
23   0.150824
24   0.185987
25   0.164004
26   0.140931
27   0.139863
28   0.121236
29   0.127441
30   0.120895
31   0.356334
32   0.359986

$$$$

