PCCDB-ID:  10907
public computational chemistry database (PCCDB) project, http://pccdb.org

 26 25  0  0  0  0  0  0  0  0999 V2000
    1.8653    1.1342   -0.8318 C   0  0  0  0  0  0  0  0  0  0  0  0
    1.9414   -0.1272    1.3448 C   0  0  0  0  0  0  0  0  0  0  0  0
    5.8191   -1.3770   -1.5236 C   0  0  0  0  0  0  0  0  0  0  0  0
    5.1581    1.0250   -1.7869 C   0  0  0  0  0  0  0  0  0  0  0  0
    5.9822    0.1783    0.4319 C   0  0  0  0  0  0  0  0  0  0  0  0
    3.7143   -0.5971   -0.4177 C   0  0  0  0  0  0  0  0  0  0  0  0
    2.7858    0.4772    0.2104 C   0  0  0  0  0  0  0  0  0  0  0  0
    5.1555   -0.1752   -0.8210 C   0  0  0  0  0  0  0  0  0  0  0  0
    1.2538    1.9235   -0.3773 H   0  0  0  0  0  0  0  0  0  0  0  0
    1.1803    0.3912   -1.2610 H   0  0  0  0  0  0  0  0  0  0  0  0
    2.4267    1.5819   -1.6578 H   0  0  0  0  0  0  0  0  0  0  0  0
    1.2709    0.6206    1.7852 H   0  0  0  0  0  0  0  0  0  0  0  0
    2.5756   -0.5248    2.1459 H   0  0  0  0  0  0  0  0  0  0  0  0
    1.3200   -0.9524    0.9725 H   0  0  0  0  0  0  0  0  0  0  0  0
    6.8572   -1.1503   -1.7966 H   0  0  0  0  0  0  0  0  0  0  0  0
    5.2827   -1.6451   -2.4423 H   0  0  0  0  0  0  0  0  0  0  0  0
    5.8300   -2.2606   -0.8732 H   0  0  0  0  0  0  0  0  0  0  0  0
    6.1818    1.2599   -2.1044 H   0  0  0  0  0  0  0  0  0  0  0  0
    4.7459    1.9259   -1.3186 H   0  0  0  0  0  0  0  0  0  0  0  0
    4.5713    0.8139   -2.6892 H   0  0  0  0  0  0  0  0  0  0  0  0
    7.0094    0.4474    0.1564 H   0  0  0  0  0  0  0  0  0  0  0  0
    6.0354   -0.6718    1.1238 H   0  0  0  0  0  0  0  0  0  0  0  0
    5.5582    1.0281    0.9793 H   0  0  0  0  0  0  0  0  0  0  0  0
    3.2134   -1.0162   -1.3030 H   0  0  0  0  0  0  0  0  0  0  0  0
    3.8169   -1.4345    0.2871 H   0  0  0  0  0  0  0  0  0  0  0  0
    3.4079    1.2670    0.6546 H   0  0  0  0  0  0  0  0  0  0  0  0
  1  9  1  0  0  0  0
  1  7  1  0  0  0  0
  2 12  1  0  0  0  0
  2 13  1  0  0  0  0
  3 17  1  0  0  0  0
  3  8  1  0  0  0  0
  4 19  1  0  0  0  0
  4  8  1  0  0  0  0
  5 23  1  0  0  0  0
  5 22  1  0  0  0  0
  6  7  1  0  0  0  0
  6 25  1  0  0  0  0
  7 26  1  0  0  0  0
  7  2  1  0  0  0  0
  8  6  1  0  0  0  0
  8  5  1  0  0  0  0
 10  1  1  0  0  0  0
 11  1  1  0  0  0  0
 14  2  1  0  0  0  0
 15  3  1  0  0  0  0
 16  3  1  0  0  0  0
 18  4  1  0  0  0  0
 20  4  1  0  0  0  0
 21  5  1  0  0  0  0
 24  6  1  0  0  0  0
M  END
>  <HBA>
0

>  <HBD>
0

>  <TPSA>
0.0

>  <cid>
10907

>  <dipole>
0.09

>  <excitation_energy_1>
7.532

>  <excitation_energy_2>
7.72

>  <excitation_energy_3>
7.909

>  <excitation_energy_4>
8.0

>  <homo_energy>
-8.025

>  <homo_lumo_gap>
10.063

>  <logP>
3.079

>  <lumo_energy>
2.038

>  <melting_point>
-9.2

>  <molecular_refractivity>
40.31

>  <oscillator_strength_1>
0.0772

>  <oscillator_strength_2>
0.0537

>  <oscillator_strength_3>
0.0959

>  <oscillator_strength_4>
0.0014

>  <open_babel_can_smiles>
CC(CC(C)(C)C)C

>  <mulliken_charges>
26
1   -0.450207
2   -0.448338
3   -0.441197
4   -0.444509
5   -0.444548
6   -0.256108
7   -0.062814
8   0.097555
9   0.136715
10   0.137412
11   0.146751
12   0.137159
13   0.139732
14   0.139168
15   0.135873
16   0.136981
17   0.136732
18   0.135665
19   0.14331
20   0.137882
21   0.137157
22   0.136184
23   0.141542
24   0.123001
25   0.123897
26   0.125005

>  <lowdin_charges>
26
1   -0.450767
2   -0.447038
3   -0.44098
4   -0.444428
5   -0.445121
6   -0.278499
7   -0.125221
8   0.015686
9   0.146807
10   0.145264
11   0.150928
12   0.146941
13   0.1474
14   0.145771
15   0.144531
16   0.145857
17   0.146025
18   0.145566
19   0.148311
20   0.146206
21   0.14573
22   0.146091
23   0.147105
24   0.140218
25   0.140645
26   0.136973

$$$$

