PCCDB-ID:  7073
public computational chemistry database (PCCDB) project, http://pccdb.org

 31 31  0  0  0  0  0  0  0  0999 V2000
    0.2610    1.0631    3.6394 C   0  0  0  0  0  0  0  0  0  0  0  0
    3.4010    3.0162    2.7217 C   0  0  0  0  0  0  0  0  0  0  0  0
    2.1778    2.6827    3.3063 C   0  0  0  0  0  0  0  0  0  0  0  0
    4.0573    2.1271    1.8785 C   0  0  0  0  0  0  0  0  0  0  0  0
    4.7704    0.5266   -0.5101 C   0  0  0  0  0  0  0  0  0  0  0  0
    3.7282   -1.4057    0.6207 C   0  0  0  0  0  0  0  0  0  0  0  0
    6.2777    0.2641   -0.5602 C   0  0  0  0  0  0  0  0  0  0  0  0
    4.0862   -2.2336    1.8546 C   0  0  0  0  0  0  0  0  0  0  0  0
    2.2576    0.5465    2.1845 C   0  0  0  0  0  0  0  0  0  0  0  0
    1.5990    1.4382    3.0427 C   0  0  0  0  0  0  0  0  0  0  0  0
    3.4832    0.8738    1.5802 C   0  0  0  0  0  0  0  0  0  0  0  0
    4.1758   -0.0188    0.7224 N   0  0  0  0  0  0  0  0  0  0  0  0
    6.9301    0.7993    0.5791 O   0  0  0  0  0  0  0  0  0  0  0  0
    3.5779   -3.5430    1.6279 O   0  0  0  0  0  0  0  0  0  0  0  0
    0.0457    1.6544    4.5353 H   0  0  0  0  0  0  0  0  0  0  0  0
    0.2250    0.0031    3.9154 H   0  0  0  0  0  0  0  0  0  0  0  0
   -0.5565    1.2388    2.9274 H   0  0  0  0  0  0  0  0  0  0  0  0
    3.8632    3.9752    2.9425 H   0  0  0  0  0  0  0  0  0  0  0  0
    1.6810    3.3822    3.9739 H   0  0  0  0  0  0  0  0  0  0  0  0
    5.0324    2.3795    1.4741 H   0  0  0  0  0  0  0  0  0  0  0  0
    4.2799    0.0918   -1.3947 H   0  0  0  0  0  0  0  0  0  0  0  0
    4.5907    1.6035   -0.5406 H   0  0  0  0  0  0  0  0  0  0  0  0
    2.6477   -1.4887    0.4273 H   0  0  0  0  0  0  0  0  0  0  0  0
    4.2301   -1.8605   -0.2378 H   0  0  0  0  0  0  0  0  0  0  0  0
    6.7154    0.7531   -1.4372 H   0  0  0  0  0  0  0  0  0  0  0  0
    6.4706   -0.8182   -0.6554 H   0  0  0  0  0  0  0  0  0  0  0  0
    3.6518   -1.7820    2.7581 H   0  0  0  0  0  0  0  0  0  0  0  0
    5.1811   -2.2349    1.9772 H   0  0  0  0  0  0  0  0  0  0  0  0
    1.7870   -0.4107    1.9843 H   0  0  0  0  0  0  0  0  0  0  0  0
    6.4451    0.4368    1.3409 H   0  0  0  0  0  0  0  0  0  0  0  0
    3.7753   -4.0807    2.4088 H   0  0  0  0  0  0  0  0  0  0  0  0
  1 16  1  0  0  0  0
  1 15  1  0  0  0  0
  2 18  1  0  0  0  0
  2  3  2  0  0  0  0
  3 19  1  0  0  0  0
  4  2  1  0  0  0  0
  5 12  1  0  0  0  0
  6 12  1  0  0  0  0
  6  8  1  0  0  0  0
  7  5  1  0  0  0  0
  7 13  1  0  0  0  0
  8 28  1  0  0  0  0
  8 27  1  0  0  0  0
  9 10  2  0  0  0  0
 10  3  1  0  0  0  0
 10  1  1  0  0  0  0
 11  4  2  0  0  0  0
 11  9  1  0  0  0  0
 12 11  1  0  0  0  0
 13 30  1  0  0  0  0
 14  8  1  0  0  0  0
 14 31  1  0  0  0  0
 17  1  1  0  0  0  0
 20  4  1  0  0  0  0
 21  5  1  0  0  0  0
 22  5  1  0  0  0  0
 23  6  1  0  0  0  0
 24  6  1  0  0  0  0
 25  7  1  0  0  0  0
 26  7  1  0  0  0  0
 29  9  1  0  0  0  0
M  END
>  <HBA>
3

>  <HBD>
2

>  <TPSA>
43.7

>  <cid>
7073

>  <dipole>
1.67

>  <excitation_energy_1>
4.546

>  <excitation_energy_2>
4.753

>  <excitation_energy_3>
5.005

>  <excitation_energy_4>
5.24

>  <homo_energy>
-5.369

>  <homo_lumo_gap>
5.47

>  <logP>
0.786

>  <lumo_energy>
0.101

>  <melting_point>
53.41

>  <molecular_refractivity>
57.55

>  <oscillator_strength_1>
0.0285

>  <oscillator_strength_2>
0.0331

>  <oscillator_strength_3>
0.141

>  <oscillator_strength_4>
0.0216

>  <open_babel_can_smiles>
OCCN(c1cccc(c1)C)CCO

>  <mulliken_charges>
31
1   -0.528348
2   -0.135514
3   -0.185928
4   -0.199103
5   -0.165665
6   -0.147216
7   -0.026451
8   -0.03629
9   -0.244435
10   0.169993
11   0.320816
12   -0.515784
13   -0.614007
14   -0.620773
15   0.155084
16   0.154253
17   0.164739
18   0.127424
19   0.115061
20   0.145387
21   0.138249
22   0.167162
23   0.154505
24   0.159161
25   0.145495
26   0.12135
27   0.138153
28   0.122524
29   0.124521
30   0.398887
31   0.396748

>  <lowdin_charges>
31
1   -0.441591
2   -0.146542
3   -0.193083
4   -0.206267
5   -0.213326
6   -0.203893
7   -0.142215
8   -0.14115
9   -0.216007
10   0.009383
11   0.05165
12   -0.146379
13   -0.467868
14   -0.473386
15   0.157447
16   0.155121
17   0.161882
18   0.156728
19   0.153707
20   0.163835
21   0.143415
22   0.159816
23   0.140557
24   0.158176
25   0.149722
26   0.122663
27   0.135792
28   0.124472
29   0.157351
30   0.341396
31   0.348595

$$$$

