PCCDB-ID:  34924
public computational chemistry database (PCCDB) project, http://pccdb.org

 21 21  0  0  1  0  0  0  0  0999 V2000
    3.1733   -1.0018   -0.1631 C   0  0  0  0  0  0  0  0  0  0  0  0
    2.7832    1.3962    0.7208 C   0  0  0  0  0  0  0  0  0  0  0  0
    2.1932    0.0422    0.3160 C   0  0  0  0  0  0  0  0  0  0  0  0
    1.9535    2.6242    0.4064 C   0  0  2  0  0  0  0  0  0  0  0  0
    1.7954    4.8414   -0.2256 C   0  0  0  0  0  0  0  0  0  0  0  0
   -0.2696    3.5951    0.3444 C   0  0  0  0  0  0  0  0  0  0  0  0
    2.2682    5.9651   -0.6074 N   0  0  0  0  0  0  0  0  0  0  0  0
   -1.5441    3.5871    0.4268 N   0  0  0  0  0  0  0  0  0  0  0  0
    2.5659    3.6909    0.0149 N   0  0  0  0  0  0  0  0  0  0  0  0
    0.6018    2.5262    0.6162 N   0  0  0  0  0  0  0  0  0  0  0  0
    0.4141    4.7321   -0.0280 N   0  0  0  0  0  0  0  0  0  0  0  0
    0.9983   -0.1902    0.4091 O   0  0  0  0  0  0  0  0  0  0  0  0
    4.0114   -1.0975    0.5380 H   0  0  0  0  0  0  0  0  0  0  0  0
    3.5995   -0.6886   -1.1251 H   0  0  0  0  0  0  0  0  0  0  0  0
    2.6701   -1.9630   -0.2820 H   0  0  0  0  0  0  0  0  0  0  0  0
    3.7742    1.5489    0.2887 H   0  0  0  0  0  0  0  0  0  0  0  0
    2.9215    1.3448    1.8129 H   0  0  0  0  0  0  0  0  0  0  0  0
    3.2809    5.8720   -0.7006 H   0  0  0  0  0  0  0  0  0  0  0  0
   -1.8936    2.6787    0.7321 H   0  0  0  0  0  0  0  0  0  0  0  0
    0.2228    1.5911    0.7488 H   0  0  0  0  0  0  0  0  0  0  0  0
   -0.1463    5.5513   -0.2257 H   0  0  0  0  0  0  0  0  0  0  0  0
  1  3  1  0  0  0  0
  1 13  1  0  0  0  0
  2 17  1  0  0  0  0
  3 12  2  0  0  0  0
  3  2  1  0  0  0  0
  4 10  1  0  0  0  0
  4  2  1  1  0  0  0
  5 11  1  0  0  0  0
  5  9  2  0  0  0  0
  6  8  2  0  0  0  0
  6 10  1  0  0  0  0
  7  5  1  0  0  0  0
  8 19  1  0  0  0  0
  9  4  1  0  0  0  0
 10 20  1  0  0  0  0
 11  6  1  0  0  0  0
 14  1  1  0  0  0  0
 15  1  1  0  0  0  0
 16  2  1  0  0  0  0
 18  7  1  0  0  0  0
 21 11  1  0  0  0  0
M  RAD  2   4   2   7   2
M  END
>  <HBA>
6

>  <HBD>
2

>  <TPSA>
107.78

>  <cid>
34924

>  <dipole>
6.62

>  <excitation_energy_1>
4.179

>  <excitation_energy_2>
4.341

>  <excitation_energy_3>
4.616

>  <excitation_energy_4>
4.713

>  <homo_energy>
-6.234

>  <homo_lumo_gap>
4.762

>  <logP>
0.33

>  <lumo_energy>
-1.472

>  <melting_point>
174.05

>  <molecular_refractivity>
43.42

>  <oscillator_strength_1>
0.0028

>  <oscillator_strength_2>
0.0004

>  <oscillator_strength_3>
0.0013

>  <oscillator_strength_4>
0.022

>  <open_babel_can_smiles>
N=C1N[C](CC(=O)C)N=C(N1)[NH]

>  <mulliken_charges>
21
1   -0.532862
2   -0.450372
3   0.466072
4   0.527181
5   0.60646
6   0.683027
7   -0.647804
8   -0.648126
9   -0.514983
10   -0.686628
11   -0.644169
12   -0.444104
13   0.181452
14   0.192004
15   0.19329
16   0.20079
17   0.213612
18   0.293354
19   0.28253
20   0.371707
21   0.35757

>  <lowdin_charges>
21
1   -0.466965
2   -0.314014
3   0.180137
4   0.120984
5   0.118395
6   0.132478
7   -0.424625
8   -0.44892
9   -0.230209
10   -0.251999
11   -0.235291
12   -0.239281
13   0.177391
14   0.183821
15   0.179978
16   0.186885
17   0.195748
18   0.260175
19   0.257491
20   0.305748
21   0.312072

$$$$

