PCCDB-ID:  72908
public computational chemistry database (PCCDB) project, http://pccdb.org

 20 21  0  0  0  0  0  0  0  0999 V2000
   -2.4431   -0.7128   -0.1521 C   0  0  0  0  0  0  0  0  0  0  0  0
   -2.4602    0.6808   -0.0875 C   0  0  0  0  0  0  0  0  0  0  0  0
   -1.2314   -1.4054   -0.1309 C   0  0  0  0  0  0  0  0  0  0  0  0
   -1.2556    1.3779   -0.0193 C   0  0  0  0  0  0  0  0  0  0  0  0
    2.4751   -0.7437    0.0024 C   0  0  0  0  0  0  0  0  0  0  0  0
   -0.0134   -0.7187   -0.0349 C   0  0  0  0  0  0  0  0  0  0  0  0
   -0.0383    0.6936    0.0010 C   0  0  0  0  0  0  0  0  0  0  0  0
    1.2894   -1.4250    0.0187 C   0  0  0  0  0  0  0  0  0  0  0  0
    2.5631    0.6998   -0.0200 C   0  0  0  0  0  0  0  0  0  0  0  0
    1.2290    1.4834    0.0278 C   0  0  0  0  0  0  0  0  0  0  0  0
    1.2597   -2.8015    0.0321 N   0  0  0  0  0  0  0  0  0  0  0  0
    3.6188    1.3202   -0.0383 O   0  0  0  0  0  0  0  0  0  0  0  0
    1.2311    2.6993    0.0758 O   0  0  0  0  0  0  0  0  0  0  0  0
   -3.3741   -1.2677   -0.2273 H   0  0  0  0  0  0  0  0  0  0  0  0
   -3.4037    1.2186   -0.1025 H   0  0  0  0  0  0  0  0  0  0  0  0
   -1.2511   -2.4867   -0.2232 H   0  0  0  0  0  0  0  0  0  0  0  0
   -1.2287    2.4625    0.0108 H   0  0  0  0  0  0  0  0  0  0  0  0
    3.4188   -1.2826    0.0355 H   0  0  0  0  0  0  0  0  0  0  0  0
    2.1425   -3.2618    0.2126 H   0  0  0  0  0  0  0  0  0  0  0  0
    0.4756   -3.2526    0.4818 H   0  0  0  0  0  0  0  0  0  0  0  0
  1  3  2  0  0  0  0
  1  2  1  0  0  0  0
  2  4  2  0  0  0  0
  3  6  1  0  0  0  0
  4  7  1  0  0  0  0
  4 17  1  0  0  0  0
  5  8  2  0  0  0  0
  5 18  1  0  0  0  0
  6  7  2  0  0  0  0
  6  8  1  0  0  0  0
  7 10  1  0  0  0  0
  8 11  1  0  0  0  0
  9  5  1  0  0  0  0
  9 10  1  0  0  0  0
 10 13  2  0  0  0  0
 11 19  1  0  0  0  0
 11 20  1  0  0  0  0
 12  9  2  0  0  0  0
 14  1  1  0  0  0  0
 15  2  1  0  0  0  0
 16  3  1  0  0  0  0
M  END
>  <HBA>
3

>  <HBD>
1

>  <TPSA>
60.16

>  <cid>
72908

>  <dipole>
7.93

>  <excitation_energy_1>
2.205

>  <excitation_energy_2>
2.877

>  <excitation_energy_3>
3.39

>  <excitation_energy_4>
3.97

>  <homo_energy>
-6.229

>  <homo_lumo_gap>
3.483

>  <logP>
1.452

>  <lumo_energy>
-2.746

>  <melting_point>
153.47

>  <molecular_refractivity>
47.52

>  <oscillator_strength_1>
0.0

>  <oscillator_strength_2>
0.0368

>  <oscillator_strength_3>
0.0002

>  <oscillator_strength_4>
0.0164

>  <open_babel_can_smiles>
O=C1C=C(N)c2c(C1=O)cccc2

>  <mulliken_charges>
20
1   -0.11743
2   -0.12714
3   -0.212709
4   -0.167451
5   -0.286007
6   0.113182
7   0.020131
8   0.321428
9   0.398636
10   0.335686
11   -0.789429
12   -0.473327
13   -0.43209
14   0.144992
15   0.147585
16   0.135594
17   0.173953
18   0.134062
19   0.343445
20   0.336887

>  <lowdin_charges>
20
1   -0.136591
2   -0.145691
3   -0.159705
4   -0.116845
5   -0.265284
6   -0.007532
7   -0.041123
8   0.088318
9   0.111072
10   0.126549
11   -0.452477
12   -0.226561
13   -0.18776
14   0.166016
15   0.167063
16   0.157887
17   0.179937
18   0.166695
19   0.289619
20   0.286414

$$$$

