PCCDB-ID:  27656
public computational chemistry database (PCCDB) project, http://pccdb.org

 29 29  0  0  0  0  0  0  0  0999 V2000
    3.3453    1.0816   -0.7336 C   0  0  0  0  0  0  0  0  0  0  0  0
    1.4274    0.9605    0.8813 C   0  0  0  0  0  0  0  0  0  0  0  0
    2.6478   -3.0272    2.3130 C   0  0  0  0  0  0  0  0  0  0  0  0
    3.3623   -0.8617    3.3960 C   0  0  0  0  0  0  0  0  0  0  0  0
    3.2196   -2.6069   -0.9263 C   0  0  0  0  0  0  0  0  0  0  0  0
    4.6651   -2.1232   -1.0229 C   0  0  0  0  0  0  0  0  0  0  0  0
    2.9008    0.5716    0.6457 C   0  0  0  0  0  0  0  0  0  0  0  0
    2.6328   -1.4957    2.2000 C   0  0  0  0  0  0  0  0  0  0  0  0
    3.1413   -0.9610    0.8284 C   0  0  0  0  0  0  0  0  0  0  0  0
    2.4592   -1.6194   -0.2417 O   0  0  0  0  0  0  0  0  0  0  0  0
    4.9818   -1.3792    0.6172 S   0  0  0  0  0  0  0  0  0  0  0  0
    3.2083    2.1675   -0.7891 H   0  0  0  0  0  0  0  0  0  0  0  0
    2.7460    0.6263   -1.5287 H   0  0  0  0  0  0  0  0  0  0  0  0
    4.4018    0.8709   -0.9230 H   0  0  0  0  0  0  0  0  0  0  0  0
    1.2778    2.0177    0.6346 H   0  0  0  0  0  0  0  0  0  0  0  0
    1.1138    0.8237    1.9208 H   0  0  0  0  0  0  0  0  0  0  0  0
    0.7631    0.3701    0.2408 H   0  0  0  0  0  0  0  0  0  0  0  0
    2.2167   -3.3273    3.2755 H   0  0  0  0  0  0  0  0  0  0  0  0
    3.6652   -3.4278    2.2607 H   0  0  0  0  0  0  0  0  0  0  0  0
    2.0465   -3.4893    1.5247 H   0  0  0  0  0  0  0  0  0  0  0  0
    2.9422   -1.2426    4.3338 H   0  0  0  0  0  0  0  0  0  0  0  0
    3.2719    0.2293    3.4152 H   0  0  0  0  0  0  0  0  0  0  0  0
    4.4297   -1.1137    3.3896 H   0  0  0  0  0  0  0  0  0  0  0  0
    3.1795   -3.5697   -0.4004 H   0  0  0  0  0  0  0  0  0  0  0  0
    2.7572   -2.7253   -1.9122 H   0  0  0  0  0  0  0  0  0  0  0  0
    4.7910   -1.3809   -1.8165 H   0  0  0  0  0  0  0  0  0  0  0  0
    5.3610   -2.9504   -1.1876 H   0  0  0  0  0  0  0  0  0  0  0  0
    3.5162    1.0790    1.3988 H   0  0  0  0  0  0  0  0  0  0  0  0
    1.5792   -1.1945    2.2492 H   0  0  0  0  0  0  0  0  0  0  0  0
  1  7  1  0  0  0  0
  2 16  1  0  0  0  0
  3 18  1  0  0  0  0
  4 22  1  0  0  0  0
  4 21  1  0  0  0  0
  5 24  1  0  0  0  0
  5 10  1  0  0  0  0
  6  5  1  0  0  0  0
  6 11  1  0  0  0  0
  7  9  1  0  0  0  0
  7  2  1  0  0  0  0
  7 28  1  0  0  0  0
  8 29  1  0  0  0  0
  8  3  1  0  0  0  0
  8  4  1  0  0  0  0
  9  8  1  0  0  0  0
 10  9  1  0  0  0  0
 11  9  1  0  0  0  0
 12  1  1  0  0  0  0
 13  1  1  0  0  0  0
 14  1  1  0  0  0  0
 15  2  1  0  0  0  0
 17  2  1  0  0  0  0
 19  3  1  0  0  0  0
 20  3  1  0  0  0  0
 23  4  1  0  0  0  0
 25  5  1  0  0  0  0
 26  6  1  0  0  0  0
 27  6  1  0  0  0  0
M  END
>  <HBA>
2

>  <HBD>
0

>  <TPSA>
34.53

>  <cid>
27656

>  <dipole>
0.97

>  <excitation_energy_1>
4.979

>  <excitation_energy_2>
5.574

>  <excitation_energy_3>
5.82

>  <excitation_energy_4>
5.9

>  <homo_energy>
-5.981

>  <homo_lumo_gap>
6.642

>  <logP>
2.758

>  <lumo_energy>
0.661

>  <melting_point>
5.07

>  <molecular_refractivity>
51.98

>  <oscillator_strength_1>
0.0005

>  <oscillator_strength_2>
0.0094

>  <oscillator_strength_3>
0.0065

>  <oscillator_strength_4>
0.009

>  <open_babel_can_smiles>
CC(C1(OCCS1)C(C)C)C

>  <mulliken_charges>
29
1   -0.46042
2   -0.463883
3   -0.458543
4   -0.468481
5   -0.017594
6   -0.436632
7   -0.063341
8   -0.075286
9   0.148593
10   -0.488484
11   0.045586
12   0.137771
13   0.150381
14   0.159825
15   0.141604
16   0.145143
17   0.16243
18   0.137762
19   0.160847
20   0.151941
21   0.144621
22   0.148598
23   0.164961
24   0.143413
25   0.152652
26   0.180296
27   0.177177
28   0.136072
29   0.142992

>  <lowdin_charges>
29
1   -0.448099
2   -0.449851
3   -0.450892
4   -0.447125
5   -0.131934
6   -0.38635
7   -0.132868
8   -0.132938
9   0.042394
10   -0.25936
11   0.05326
12   0.146556
13   0.151632
14   0.155908
15   0.149291
16   0.146809
17   0.158437
18   0.14871
19   0.15506
20   0.154127
21   0.152619
22   0.148053
23   0.157404
24   0.13844
25   0.152179
26   0.159641
27   0.171994
28   0.147794
29   0.14911

$$$$

