PCCDB-ID:  37513
public computational chemistry database (PCCDB) project, http://pccdb.org

 11 11  0  0  1  0  0  0  0  0999 V2000
   -1.0865    0.0524   -0.0323 C   0  0  0  0  0  0  0  0  0  0  0  0
   -0.4294   -1.2370    0.0059 C   0  0  0  0  0  0  0  0  0  0  0  0
   -0.3436    1.1882   -0.0627 C   0  0  2  0  0  0  0  0  0  0  0  0
   -0.8715   -2.4327    0.0258 N   0  0  0  0  0  0  0  0  0  0  0  0
   -0.8140    2.4782   -0.1744 N   0  0  0  0  0  0  0  0  0  0  0  0
    1.3875   -1.0836    0.0714 S   0  0  0  0  0  0  0  0  0  0  0  0
    1.4251    1.0264   -0.0643 S   0  0  0  0  0  0  0  0  0  0  0  0
   -2.1727    0.0881   -0.0349 H   0  0  0  0  0  0  0  0  0  0  0  0
   -1.8945   -2.4463    0.0026 H   0  0  0  0  0  0  0  0  0  0  0  0
   -1.8020    2.5974    0.0124 H   0  0  0  0  0  0  0  0  0  0  0  0
   -0.2469    3.2087    0.2378 H   0  0  0  0  0  0  0  0  0  0  0  0
  1  2  2  0  0  0  0
  2  4  1  0  0  0  0
  2  6  1  0  0  0  0
  3  5  1  6  0  0  0
  3  1  1  0  0  0  0
  5 10  1  0  0  0  0
  5 11  1  0  0  0  0
  7  3  1  0  0  0  0
  7  6  1  0  0  0  0
  8  1  1  0  0  0  0
  9  4  1  0  0  0  0
M  RAD  2   3   2   4   2
M  END
>  <HBA>
4

>  <HBD>
2

>  <TPSA>
106.35

>  <cid>
37513

>  <dipole>
5.44

>  <excitation_energy_1>
2.934

>  <excitation_energy_2>
3.91

>  <excitation_energy_3>
4.302

>  <excitation_energy_4>
4.369

>  <homo_energy>
-5.671

>  <homo_lumo_gap>
4.071

>  <logP>
1.552

>  <lumo_energy>
-1.6

>  <melting_point>
93.71

>  <molecular_refractivity>
33.13

>  <oscillator_strength_1>
0.0004

>  <oscillator_strength_2>
0.0001

>  <oscillator_strength_3>
0.0019

>  <oscillator_strength_4>
0.0961

>  <open_babel_can_smiles>
N[C]1SSC(=C1)[NH]

>  <mulliken_charges>
11
1   -0.110251
2   0.083734
3   0.071119
4   -0.614047
5   -0.74377
6   0.109337
7   0.08095
8   0.142335
9   0.289415
10   0.344044
11   0.347133

>  <lowdin_charges>
11
1   -0.284595
2   -0.03908
3   -0.041781
4   -0.405817
5   -0.459447
6   0.11444
7   0.107527
8   0.16711
9   0.257931
10   0.290013
11   0.293699

$$$$

