PCCDB-ID:  25641
public computational chemistry database (PCCDB) project, http://pccdb.org

 35 35  0  0  0  0  0  0  0  0999 V2000
    4.8049    7.0613    0.0630 C   0  0  0  0  0  0  0  0  0  0  0  0
    4.8003    6.1737    1.3118 C   0  0  0  0  0  0  0  0  0  0  0  0
    3.8231    4.9943    1.2013 C   0  0  0  0  0  0  0  0  0  0  0  0
    3.7430    4.1010    2.4503 C   0  0  0  0  0  0  0  0  0  0  0  0
    5.0133    3.2881    2.7367 C   0  0  0  0  0  0  0  0  0  0  0  0
    4.8696    2.3705    3.9576 C   0  0  0  0  0  0  0  0  0  0  0  0
   10.0286    0.1923    5.2510 C   0  0  0  0  0  0  0  0  0  0  0  0
   10.6743    2.4960    5.5633 C   0  0  0  0  0  0  0  0  0  0  0  0
    8.7289    0.5953    4.9199 C   0  0  0  0  0  0  0  0  0  0  0  0
    9.3876    2.8982    5.2352 C   0  0  0  0  0  0  0  0  0  0  0  0
    6.1199    1.5566    4.2664 C   0  0  0  0  0  0  0  0  0  0  0  0
   11.0037    1.1342    5.5730 C   0  0  0  0  0  0  0  0  0  0  0  0
    8.4016    1.9534    4.9106 C   0  0  0  0  0  0  0  0  0  0  0  0
   12.2924    0.7971    5.9061 O   0  0  0  0  0  0  0  0  0  0  0  0
    7.1666    2.4616    4.6053 O   0  0  0  0  0  0  0  0  0  0  0  0
    5.5008    7.9015    0.1703 H   0  0  0  0  0  0  0  0  0  0  0  0
    3.8083    7.4767   -0.1322 H   0  0  0  0  0  0  0  0  0  0  0  0
    5.1045    6.4931   -0.8263 H   0  0  0  0  0  0  0  0  0  0  0  0
    4.5344    6.7785    2.1909 H   0  0  0  0  0  0  0  0  0  0  0  0
    5.8170    5.8020    1.4942 H   0  0  0  0  0  0  0  0  0  0  0  0
    4.0968    4.3775    0.3318 H   0  0  0  0  0  0  0  0  0  0  0  0
    2.8201    5.3900    0.9861 H   0  0  0  0  0  0  0  0  0  0  0  0
    2.8979    3.4074    2.3341 H   0  0  0  0  0  0  0  0  0  0  0  0
    3.5049    4.7229    3.3264 H   0  0  0  0  0  0  0  0  0  0  0  0
    5.8670    3.9559    2.8974 H   0  0  0  0  0  0  0  0  0  0  0  0
    5.2580    2.6781    1.8537 H   0  0  0  0  0  0  0  0  0  0  0  0
    4.0422    1.6645    3.7991 H   0  0  0  0  0  0  0  0  0  0  0  0
    4.6111    2.9637    4.8448 H   0  0  0  0  0  0  0  0  0  0  0  0
   10.2730   -0.8687    5.2550 H   0  0  0  0  0  0  0  0  0  0  0  0
   11.4393    3.2240    5.8148 H   0  0  0  0  0  0  0  0  0  0  0  0
    7.9919   -0.1602    4.6736 H   0  0  0  0  0  0  0  0  0  0  0  0
    9.1195    3.9502    5.2237 H   0  0  0  0  0  0  0  0  0  0  0  0
    6.4136    0.9534    3.3931 H   0  0  0  0  0  0  0  0  0  0  0  0
    5.9364    0.8687    5.1054 H   0  0  0  0  0  0  0  0  0  0  0  0
   12.3802   -0.1677    5.8726 H   0  0  0  0  0  0  0  0  0  0  0  0
  1 16  1  0  0  0  0
  1  2  1  0  0  0  0
  2 20  1  0  0  0  0
  2 19  1  0  0  0  0
  3  2  1  0  0  0  0
  3  4  1  0  0  0  0
  4  5  1  0  0  0  0
  4 24  1  0  0  0  0
  5 25  1  0  0  0  0
  5  6  1  0  0  0  0
  6 11  1  0  0  0  0
  6 28  1  0  0  0  0
  7 29  1  0  0  0  0
  7 12  2  0  0  0  0
  8 12  1  0  0  0  0
  8 30  1  0  0  0  0
  9  7  1  0  0  0  0
 10  8  2  0  0  0  0
 11 15  1  0  0  0  0
 11 34  1  0  0  0  0
 12 14  1  0  0  0  0
 13  9  2  0  0  0  0
 13 10  1  0  0  0  0
 15 13  1  0  0  0  0
 17  1  1  0  0  0  0
 18  1  1  0  0  0  0
 21  3  1  0  0  0  0
 22  3  1  0  0  0  0
 23  4  1  0  0  0  0
 26  5  1  0  0  0  0
 27  6  1  0  0  0  0
 31  9  1  0  0  0  0
 32 10  1  0  0  0  0
 33 11  1  0  0  0  0
 35 14  1  0  0  0  0
M  END
>  <HBA>
2

>  <HBD>
1

>  <TPSA>
29.46

>  <cid>
25641

>  <dipole>
2.33

>  <excitation_energy_1>
4.613

>  <excitation_energy_2>
4.71

>  <excitation_energy_3>
5.117

>  <excitation_energy_4>
5.478

>  <homo_energy>
-5.325

>  <homo_lumo_gap>
5.361

>  <logP>
3.741

>  <lumo_energy>
0.035

>  <melting_point>
45.41

>  <molecular_refractivity>
63.8

>  <oscillator_strength_1>
0.0571

>  <oscillator_strength_2>
0.0

>  <oscillator_strength_3>
0.0054

>  <oscillator_strength_4>
0.0001

>  <open_babel_can_smiles>
CCCCCCCOc1ccc(cc1)O

>  <mulliken_charges>
35
1   -0.441342
2   -0.24897
3   -0.247868
4   -0.255247
5   -0.256431
6   -0.277373
7   -0.204667
8   -0.161142
9   -0.198841
10   -0.181736
11   -0.032224
12   0.348526
13   0.377736
14   -0.650545
15   -0.526724
16   0.141618
17   0.1402
18   0.141107
19   0.129502
20   0.138072
21   0.125349
22   0.12619
23   0.124322
24   0.12815
25   0.158941
26   0.123937
27   0.132556
28   0.147451
29   0.116409
30   0.14005
31   0.13364
32   0.137634
33   0.13246
34   0.134902
35   0.404357

>  <lowdin_charges>
35
1   -0.444439
2   -0.274378
3   -0.27519
4   -0.276072
5   -0.279816
6   -0.281339
7   -0.205799
8   -0.176019
9   -0.205236
10   -0.168744
11   -0.127869
12   0.087294
13   0.086892
14   -0.386218
15   -0.209003
16   0.149575
17   0.144983
18   0.146555
19   0.138947
20   0.140743
21   0.137405
22   0.139128
23   0.138965
24   0.138795
25   0.151877
26   0.137236
27   0.146532
28   0.150345
29   0.150809
30   0.169003
31   0.16392
32   0.165437
33   0.134595
34   0.13778
35   0.353307

$$$$

