PCCDB-ID:  53440
public computational chemistry database (PCCDB) project, http://pccdb.org

 29 30  0  0  1  0  0  0  0  0999 V2000
    0.8732   -0.7106    0.1531 C   0  0  0  0  0  0  0  0  0  0  0  0
    3.2264   -1.7841   -1.6073 C   0  0  0  0  0  0  0  0  0  0  0  0
    3.7766    5.4904   -3.3474 C   0  0  0  0  0  0  0  0  0  0  0  0
    2.6583   -0.5812   -2.4049 C   0  0  0  0  0  0  0  0  0  0  0  0
    3.0167    4.3707   -3.7707 C   0  0  0  0  0  0  0  0  0  0  0  0
    3.2214   -1.2880   -0.1311 C   0  0  0  0  0  0  0  0  0  0  0  0
    3.8883    5.5644   -1.9806 C   0  0  0  0  0  0  0  0  0  0  0  0
    1.3675    1.5617   -1.6395 C   0  0  0  0  0  0  0  0  0  0  0  0
    2.4481    0.5139   -1.3201 C   0  0  1  0  0  0  0  0  0  0  0  0
    1.7341    2.3734   -2.8764 C   0  0  0  0  0  0  0  0  0  0  0  0
    2.5517    3.5971   -2.7280 C   0  0  0  0  0  0  0  0  0  0  0  0
    2.2322   -0.2018   -0.0425 N   0  0  0  0  0  0  0  0  0  0  0  0
    1.3829    2.0092   -3.9915 O   0  0  0  0  0  0  0  0  0  0  0  0
    3.0654    4.2670   -1.1923 S   0  0  0  0  0  0  0  0  0  0  0  0
    0.8497   -1.2849    1.0848 H   0  0  0  0  0  0  0  0  0  0  0  0
    0.4947   -1.3631   -0.6553 H   0  0  0  0  0  0  0  0  0  0  0  0
    0.1741    0.1230    0.2677 H   0  0  0  0  0  0  0  0  0  0  0  0
    4.2334   -2.0667   -1.9311 H   0  0  0  0  0  0  0  0  0  0  0  0
    2.5927   -2.6688   -1.7286 H   0  0  0  0  0  0  0  0  0  0  0  0
    4.2233    6.2126   -4.0219 H   0  0  0  0  0  0  0  0  0  0  0  0
    1.7076   -0.8314   -2.8874 H   0  0  0  0  0  0  0  0  0  0  0  0
    3.3295   -0.2382   -3.1976 H   0  0  0  0  0  0  0  0  0  0  0  0
    2.8001    4.1168   -4.8018 H   0  0  0  0  0  0  0  0  0  0  0  0
    4.2054   -0.8739    0.1252 H   0  0  0  0  0  0  0  0  0  0  0  0
    2.9957   -2.0739    0.5957 H   0  0  0  0  0  0  0  0  0  0  0  0
    4.4056    6.3124   -1.3939 H   0  0  0  0  0  0  0  0  0  0  0  0
    1.2319    2.2088   -0.7642 H   0  0  0  0  0  0  0  0  0  0  0  0
    0.4144    1.0728   -1.8606 H   0  0  0  0  0  0  0  0  0  0  0  0
    3.4017    1.0473   -1.1938 H   0  0  0  0  0  0  0  0  0  0  0  0
  1 17  1  0  0  0  0
  1 15  1  0  0  0  0
  2  6  1  0  0  0  0
  3  7  2  0  0  0  0
  4  2  1  0  0  0  0
  4  9  1  0  0  0  0
  5  3  1  0  0  0  0
  5 11  2  0  0  0  0
  6 12  1  0  0  0  0
  6 24  1  0  0  0  0
  6 25  1  0  0  0  0
  7 26  1  0  0  0  0
  7 14  1  0  0  0  0
  8  9  1  0  0  0  0
  8 27  1  0  0  0  0
  9 29  1  1  0  0  0
  9 12  1  0  0  0  0
 10 11  1  0  0  0  0
 10  8  1  0  0  0  0
 11 14  1  0  0  0  0
 12  1  1  0  0  0  0
 13 10  2  0  0  0  0
 16  1  1  0  0  0  0
 18  2  1  0  0  0  0
 19  2  1  0  0  0  0
 20  3  1  0  0  0  0
 21  4  1  0  0  0  0
 22  4  1  0  0  0  0
 23  5  1  0  0  0  0
 28  8  1  0  0  0  0
M  END
>  <HBA>
3

>  <HBD>
0

>  <TPSA>
48.55

>  <cid>
53440

>  <dipole>
1.97

>  <excitation_energy_1>
3.335

>  <excitation_energy_2>
3.641

>  <excitation_energy_3>
4.642

>  <excitation_energy_4>
4.842

>  <homo_energy>
-5.736

>  <homo_lumo_gap>
4.03

>  <logP>
2.353

>  <lumo_energy>
-1.706

>  <melting_point>
59.33

>  <molecular_refractivity>
63.25

>  <oscillator_strength_1>
0.0002

>  <oscillator_strength_2>
0.0006

>  <oscillator_strength_3>
0.252

>  <oscillator_strength_4>
0.0719

>  <open_babel_can_smiles>
CN1CCC[C@H]1CC(=O)c1cccs1

>  <mulliken_charges>
29
1   -0.311154
2   -0.290944
3   -0.099217
4   -0.28417
5   -0.098952
6   -0.143435
7   -0.339295
8   -0.393447
9   0.036681
10   0.441592
11   -0.21658
12   -0.38385
13   -0.468934
14   0.279579
15   0.15111
16   0.124932
17   0.154047
18   0.138806
19   0.141817
20   0.15154
21   0.150987
22   0.14815
23   0.172311
24   0.142357
25   0.137274
26   0.182527
27   0.165025
28   0.169135
29   0.142107

>  <lowdin_charges>
29
1   -0.365026
2   -0.301877
3   -0.178876
4   -0.302635
5   -0.139431
6   -0.210338
7   -0.304974
8   -0.308694
9   -0.064094
10   0.161574
11   -0.206135
12   -0.192441
13   -0.250384
14   0.330653
15   0.152475
16   0.124604
17   0.151861
18   0.147384
19   0.146437
20   0.17174
21   0.150837
22   0.154999
23   0.182329
24   0.141717
25   0.147195
26   0.187899
27   0.163425
28   0.167583
29   0.142194

$$$$

