PCCDB-ID:  69814
public computational chemistry database (PCCDB) project, http://pccdb.org

 16 15  0  0  0  0  0  0  0  0999 V2000
    0.5425    0.1546   -0.3851 C   0  0  0  0  0  0  0  0  0  0  0  0
    1.9880    0.4139   -0.0680 C   0  0  0  0  0  0  0  0  0  0  0  0
    3.0268    0.0274   -0.8182 C   0  0  0  0  0  0  0  0  0  0  0  0
    4.4717    0.3206   -0.5129 C   0  0  0  0  0  0  0  0  0  0  0  0
    5.0317    1.4202   -1.4345 C   0  0  0  0  0  0  0  0  0  0  0  0
    4.3673    2.6595   -1.2547 O   0  0  0  0  0  0  0  0  0  0  0  0
    0.0680   -0.4504    0.3993 H   0  0  0  0  0  0  0  0  0  0  0  0
    0.4271   -0.3745   -1.3371 H   0  0  0  0  0  0  0  0  0  0  0  0
   -0.0282    1.0910   -0.4444 H   0  0  0  0  0  0  0  0  0  0  0  0
    2.1878    0.9429    0.8660 H   0  0  0  0  0  0  0  0  0  0  0  0
    2.8304   -0.5039   -1.7528 H   0  0  0  0  0  0  0  0  0  0  0  0
    5.0786   -0.5876   -0.6369 H   0  0  0  0  0  0  0  0  0  0  0  0
    4.5797    0.6514    0.5272 H   0  0  0  0  0  0  0  0  0  0  0  0
    4.9781    1.0852   -2.4850 H   0  0  0  0  0  0  0  0  0  0  0  0
    6.0862    1.6033   -1.2033 H   0  0  0  0  0  0  0  0  0  0  0  0
    3.4149    2.4693   -1.3001 H   0  0  0  0  0  0  0  0  0  0  0  0
  1  2  1  0  0  0  0
  1  7  1  0  0  0  0
  2 10  1  0  0  0  0
  3  4  1  0  0  0  0
  3  2  2  0  0  0  0
  4 13  1  0  0  0  0
  5  6  1  0  0  0  0
  5 15  1  0  0  0  0
  5  4  1  0  0  0  0
  8  1  1  0  0  0  0
  9  1  1  0  0  0  0
 11  3  1  0  0  0  0
 12  4  1  0  0  0  0
 14  5  1  0  0  0  0
 16  6  1  0  0  0  0
M  END
>  <HBA>
1

>  <HBD>
1

>  <TPSA>
20.23

>  <cid>
69814

>  <dipole>
1.98

>  <excitation_energy_1>
6.229

>  <excitation_energy_2>
6.384

>  <excitation_energy_3>
6.632

>  <excitation_energy_4>
6.779

>  <homo_energy>
-6.694

>  <homo_lumo_gap>
7.17

>  <logP>
0.945

>  <lumo_energy>
0.476

>  <melting_point>
2.51

>  <molecular_refractivity>
26.84

>  <oscillator_strength_1>
0.0445

>  <oscillator_strength_2>
0.065

>  <oscillator_strength_3>
0.0055

>  <oscillator_strength_4>
0.0335

>  <open_babel_can_smiles>
C/C=C/CCO

>  <mulliken_charges>
16
1   -0.488053
2   -0.091824
3   -0.119493
4   -0.318836
5   -0.020821
6   -0.61901
7   0.159734
8   0.154108
9   0.157132
10   0.130271
11   0.121412
12   0.138389
13   0.150654
14   0.115812
15   0.144637
16   0.385889

>  <lowdin_charges>
16
1   -0.441416
2   -0.166425
3   -0.179144
4   -0.291334
5   -0.129369
6   -0.469403
7   0.160477
8   0.155291
9   0.158073
10   0.150631
11   0.146675
12   0.152485
13   0.151589
14   0.120731
15   0.145022
16   0.336118

$$$$

