PCCDB-ID:  39177
public computational chemistry database (PCCDB) project, http://pccdb.org

 26 25  0  0  1  0  0  0  0  0999 V2000
    2.3425   -0.7255    3.5853 C   0  0  0  0  0  0  0  0  0  0  0  0
    2.2725   -0.1041    0.4676 C   0  0  0  0  0  0  0  0  0  0  0  0
    4.8859   -3.7919    0.8662 C   0  0  0  0  0  0  0  0  0  0  0  0
    2.1205   -1.7222    2.4394 C   0  0  0  0  0  0  0  0  0  0  0  0
    4.3623   -1.2949    1.2093 C   0  0  0  0  0  0  0  0  0  0  0  0
    2.8262   -1.3905    1.1032 C   0  0  2  0  0  0  0  0  0  0  0  0
    5.0864   -2.5404    1.7498 C   0  0  2  0  0  0  0  0  0  0  0  0
    6.5862   -2.2563    1.8861 C   0  0  0  0  0  0  0  0  0  0  0  0
    7.1686   -1.3425    1.3585 O   0  0  0  0  0  0  0  0  0  0  0  0
    7.2846   -3.1474    2.6495 O   0  0  0  0  0  0  0  0  0  0  0  0
    1.7836   -1.0350    4.4757 H   0  0  0  0  0  0  0  0  0  0  0  0
    2.0038    0.2823    3.3214 H   0  0  0  0  0  0  0  0  0  0  0  0
    3.3985   -0.6543    3.8707 H   0  0  0  0  0  0  0  0  0  0  0  0
    1.1821   -0.1529    0.3612 H   0  0  0  0  0  0  0  0  0  0  0  0
    2.6999    0.0551   -0.5291 H   0  0  0  0  0  0  0  0  0  0  0  0
    2.5107    0.7807    1.0695 H   0  0  0  0  0  0  0  0  0  0  0  0
    3.8284   -4.0656    0.8107 H   0  0  0  0  0  0  0  0  0  0  0  0
    5.4322   -4.6600    1.2530 H   0  0  0  0  0  0  0  0  0  0  0  0
    5.2432   -3.6018   -0.1520 H   0  0  0  0  0  0  0  0  0  0  0  0
    1.0427   -1.8007    2.2409 H   0  0  0  0  0  0  0  0  0  0  0  0
    2.4294   -2.7220    2.7757 H   0  0  0  0  0  0  0  0  0  0  0  0
    4.6325   -0.4375    1.8376 H   0  0  0  0  0  0  0  0  0  0  0  0
    4.7763   -1.0682    0.2192 H   0  0  0  0  0  0  0  0  0  0  0  0
    2.5832   -2.2125    0.4141 H   0  0  0  0  0  0  0  0  0  0  0  0
    4.7108   -2.7704    2.7585 H   0  0  0  0  0  0  0  0  0  0  0  0
    6.6794   -3.8074    3.0259 H   0  0  0  0  0  0  0  0  0  0  0  0
  1 13  1  0  0  0  0
  1 11  1  0  0  0  0
  2 16  1  0  0  0  0
  2  6  1  0  0  0  0
  3 18  1  0  0  0  0
  3  7  1  0  0  0  0
  4 21  1  0  0  0  0
  4  1  1  0  0  0  0
  5  7  1  0  0  0  0
  5 22  1  0  0  0  0
  6 24  1  6  0  0  0
  6  5  1  0  0  0  0
  6  4  1  0  0  0  0
  7  8  1  0  0  0  0
  7 25  1  1  0  0  0
  8 10  1  0  0  0  0
  9  8  2  0  0  0  0
 10 26  1  0  0  0  0
 12  1  1  0  0  0  0
 14  2  1  0  0  0  0
 15  2  1  0  0  0  0
 17  3  1  0  0  0  0
 19  3  1  0  0  0  0
 20  4  1  0  0  0  0
 23  5  1  0  0  0  0
M  END
>  <HBA>
2

>  <HBD>
1

>  <TPSA>
37.3

>  <cid>
39177

>  <dipole>
4.23

>  <excitation_energy_1>
5.614

>  <excitation_energy_2>
6.334

>  <excitation_energy_3>
7.192

>  <excitation_energy_4>
7.29

>  <homo_energy>
-7.238

>  <homo_lumo_gap>
7.532

>  <logP>
2.143

>  <lumo_energy>
0.294

>  <melting_point>
49.27

>  <molecular_refractivity>
42.34

>  <oscillator_strength_1>
0.0014

>  <oscillator_strength_2>
0.0099

>  <oscillator_strength_3>
0.0035

>  <oscillator_strength_4>
0.0043

>  <open_babel_can_smiles>
CC[C@H](C[C@H](C(=O)O)C)C

>  <mulliken_charges>
26
1   -0.451973
2   -0.450501
3   -0.456094
4   -0.257874
5   -0.252117
6   -0.079036
7   -0.220065
8   0.609817
9   -0.441705
10   -0.574624
11   0.144491
12   0.151488
13   0.145113
14   0.139842
15   0.145118
16   0.147048
17   0.166306
18   0.138573
19   0.170004
20   0.132846
21   0.124948
22   0.148311
23   0.152237
24   0.121173
25   0.139294
26   0.407379

>  <lowdin_charges>
26
1   -0.448516
2   -0.442853
3   -0.44187
4   -0.27612
5   -0.275605
6   -0.128176
7   -0.167066
8   0.195402
9   -0.237712
10   -0.36229
11   0.152278
12   0.150231
13   0.145242
14   0.14608
15   0.150545
16   0.148992
17   0.158053
18   0.1476
19   0.161142
20   0.141415
21   0.134851
22   0.153191
23   0.15546
24   0.137206
25   0.145297
26   0.357221

$$$$

