PCCDB-ID:  62012
public computational chemistry database (PCCDB) project, http://pccdb.org

 39 38  0  0  1  0  0  0  0  0999 V2000
    6.3827   -2.9436   -5.8263 C   0  0  0  0  0  0  0  0  0  0  0  0
    7.9452   -8.2193    5.4076 C   0  0  0  0  0  0  0  0  0  0  0  0
   10.7606   -5.6452    1.5490 C   0  0  0  0  0  0  0  0  0  0  0  0
    6.0757   -3.4882   -4.4277 C   0  0  0  0  0  0  0  0  0  0  0  0
    8.1446   -7.0624    4.7728 C   0  0  0  0  0  0  0  0  0  0  0  0
    6.6586   -2.6261   -3.3005 C   0  0  0  0  0  0  0  0  0  0  0  0
    6.3628   -3.1685   -1.8961 C   0  0  0  0  0  0  0  0  0  0  0  0
    6.9470   -2.2984   -0.7744 C   0  0  0  0  0  0  0  0  0  0  0  0
    6.6039   -2.7704    0.6498 C   0  0  0  0  0  0  0  0  0  0  0  0
    7.1581   -4.1464    1.0606 C   0  0  0  0  0  0  0  0  0  0  0  0
    8.6906   -4.2156    1.1120 C   0  0  0  0  0  0  0  0  0  0  0  0
    9.2368   -5.5666    1.5713 C   0  0  2  0  0  0  0  0  0  0  0  0
    8.6247   -7.0398    3.3661 C   0  0  0  0  0  0  0  0  0  0  0  0
    8.8561   -8.0218    2.6875 O   0  0  0  0  0  0  0  0  0  0  0  0
    8.7689   -5.7641    2.9379 O   0  0  0  0  0  0  0  0  0  0  0  0
    5.9520   -3.5800   -6.6079 H   0  0  0  0  0  0  0  0  0  0  0  0
    7.4643   -2.8875   -6.0013 H   0  0  0  0  0  0  0  0  0  0  0  0
    5.9750   -1.9335   -5.9574 H   0  0  0  0  0  0  0  0  0  0  0  0
    7.5957   -8.2547    6.4350 H   0  0  0  0  0  0  0  0  0  0  0  0
    8.1296   -9.1626    4.9014 H   0  0  0  0  0  0  0  0  0  0  0  0
   11.1321   -5.4781    0.5317 H   0  0  0  0  0  0  0  0  0  0  0  0
   11.0980   -6.6320    1.8775 H   0  0  0  0  0  0  0  0  0  0  0  0
   11.1969   -4.8835    2.2048 H   0  0  0  0  0  0  0  0  0  0  0  0
    6.4671   -4.5119   -4.3398 H   0  0  0  0  0  0  0  0  0  0  0  0
    4.9872   -3.5678   -4.2963 H   0  0  0  0  0  0  0  0  0  0  0  0
    7.9719   -6.1013    5.2480 H   0  0  0  0  0  0  0  0  0  0  0  0
    6.2633   -1.6027   -3.3859 H   0  0  0  0  0  0  0  0  0  0  0  0
    7.7474   -2.5417   -3.4361 H   0  0  0  0  0  0  0  0  0  0  0  0
    6.7545   -4.1926   -1.8198 H   0  0  0  0  0  0  0  0  0  0  0  0
    5.2739   -3.2501   -1.7597 H   0  0  0  0  0  0  0  0  0  0  0  0
    6.5736   -1.2714   -0.8948 H   0  0  0  0  0  0  0  0  0  0  0  0
    8.0375   -2.2323   -0.8967 H   0  0  0  0  0  0  0  0  0  0  0  0
    5.5102   -2.7897    0.7589 H   0  0  0  0  0  0  0  0  0  0  0  0
    6.9649   -2.0187    1.3664 H   0  0  0  0  0  0  0  0  0  0  0  0
    6.7829   -4.9222    0.3786 H   0  0  0  0  0  0  0  0  0  0  0  0
    6.7644   -4.3990    2.0523 H   0  0  0  0  0  0  0  0  0  0  0  0
    9.0774   -3.4324    1.7795 H   0  0  0  0  0  0  0  0  0  0  0  0
    9.1149   -4.0169    0.1194 H   0  0  0  0  0  0  0  0  0  0  0  0
    8.8180   -6.3760    0.9647 H   0  0  0  0  0  0  0  0  0  0  0  0
  1  4  1  0  0  0  0
  2 19  1  0  0  0  0
  3 12  1  0  0  0  0
  3 22  1  0  0  0  0
  3 23  1  0  0  0  0
  4 24  1  0  0  0  0
  4 25  1  0  0  0  0
  4  6  1  0  0  0  0
  5 26  1  0  0  0  0
  5  2  2  0  0  0  0
  6  7  1  0  0  0  0
  7 29  1  0  0  0  0
  7 30  1  0  0  0  0
  7  8  1  0  0  0  0
  8  9  1  0  0  0  0
  9 33  1  0  0  0  0
  9 10  1  0  0  0  0
  9 34  1  0  0  0  0
 10 11  1  0  0  0  0
 10 36  1  0  0  0  0
 11 12  1  0  0  0  0
 11 37  1  0  0  0  0
 12 39  1  6  0  0  0
 12 15  1  0  0  0  0
 13  5  1  0  0  0  0
 14 13  2  0  0  0  0
 15 13  1  0  0  0  0
 16  1  1  0  0  0  0
 17  1  1  0  0  0  0
 18  1  1  0  0  0  0
 20  2  1  0  0  0  0
 21  3  1  0  0  0  0
 27  6  1  0  0  0  0
 28  6  1  0  0  0  0
 31  8  1  0  0  0  0
 32  8  1  0  0  0  0
 35 10  1  0  0  0  0
 38 11  1  0  0  0  0
M  END
>  <HBA>
2

>  <HBD>
0

>  <TPSA>
26.3

>  <cid>
62012

>  <dipole>
1.63

>  <excitation_energy_1>
4.715

>  <excitation_energy_2>
6.048

>  <excitation_energy_3>
6.225

>  <excitation_energy_4>
6.418

>  <homo_energy>
-7.312

>  <homo_lumo_gap>
6.177

>  <logP>
3.855

>  <lumo_energy>
-1.135

>  <melting_point>
-39.37

>  <molecular_refractivity>
65.42

>  <oscillator_strength_1>
0.0003

>  <oscillator_strength_2>
0.0243

>  <oscillator_strength_3>
0.4464

>  <oscillator_strength_4>
0.0069

>  <open_babel_can_smiles>
CCCCCCCC[C@H](OC(=O)C=C)C

>  <mulliken_charges>
39
1   -0.441359
2   -0.303129
3   -0.464051
4   -0.24725
5   -0.135891
6   -0.245657
7   -0.254095
8   -0.257699
9   -0.259846
10   -0.264937
11   -0.26984
12   0.127803
13   0.616354
14   -0.495768
15   -0.487396
16   0.141786
17   0.140827
18   0.141056
19   0.156014
20   0.179928
21   0.146973
22   0.173525
23   0.150656
24   0.130025
25   0.130371
26   0.151749
27   0.126523
28   0.125199
29   0.130497
30   0.127288
31   0.128649
32   0.129503
33   0.128957
34   0.127537
35   0.134454
36   0.144974
37   0.138171
38   0.139145
39   0.158956

>  <lowdin_charges>
39
1   -0.443092
2   -0.26618
3   -0.453563
4   -0.269138
5   -0.186629
6   -0.271066
7   -0.273944
8   -0.275245
9   -0.274519
10   -0.281527
11   -0.283443
12   0.008685
13   0.197173
14   -0.277532
15   -0.194795
16   0.150298
17   0.144197
18   0.145319
19   0.166981
20   0.179243
21   0.155574
22   0.166004
23   0.154857
24   0.137555
25   0.13684
26   0.168919
27   0.136039
28   0.13456
29   0.1369
30   0.135759
31   0.140251
32   0.135024
33   0.139275
34   0.141491
35   0.141465
36   0.148639
37   0.146963
38   0.147915
39   0.154747

$$$$

