PCCDB-ID:  20465
public computational chemistry database (PCCDB) project, http://pccdb.org

 17 17  0  0  1  0  0  0  0  0999 V2000
    0.7716   -0.0480    0.2078 C   0  0  0  0  0  0  0  0  0  0  0  0
    2.6556    0.2352   -1.5115 C   0  0  0  0  0  0  0  0  0  0  0  0
    3.1379   -0.9045    0.7935 C   0  0  2  0  0  0  0  0  0  0  0  0
    4.4582   -1.4690    0.3420 C   0  0  1  0  0  0  0  0  0  0  0  0
    2.2571   -0.0892   -0.0881 C   0  0  0  0  0  0  0  0  0  0  0  0
    5.5212   -0.8179    0.1207 N   0  0  0  0  0  0  0  0  0  0  0  0
    4.4663   -2.8224    0.1757 O   0  0  0  0  0  0  0  0  0  0  0  0
    3.0792    0.5128    0.9373 O   0  0  0  0  0  0  0  0  0  0  0  0
    0.2296   -0.7706   -0.4132 H   0  0  0  0  0  0  0  0  0  0  0  0
    0.3721    0.9487   -0.0133 H   0  0  0  0  0  0  0  0  0  0  0  0
    0.5733   -0.2682    1.2607 H   0  0  0  0  0  0  0  0  0  0  0  0
    2.1505   -0.4384   -2.2136 H   0  0  0  0  0  0  0  0  0  0  0  0
    3.7341    0.1459   -1.6574 H   0  0  0  0  0  0  0  0  0  0  0  0
    2.3539    1.2603   -1.7555 H   0  0  0  0  0  0  0  0  0  0  0  0
    2.6613   -1.4623    1.6064 H   0  0  0  0  0  0  0  0  0  0  0  0
    5.3390    0.1686    0.3216 H   0  0  0  0  0  0  0  0  0  0  0  0
    3.5756   -3.1746    0.3291 H   0  0  0  0  0  0  0  0  0  0  0  0
  1 11  1  0  0  0  0
  2  5  1  0  0  0  0
  3  8  1  0  0  0  0
  3 15  1  1  0  0  0
  4  6  1  1  0  0  0
  4  3  1  0  0  0  0
  5  1  1  0  0  0  0
  5  3  1  0  0  0  0
  5  8  1  0  0  0  0
  6 16  1  0  0  0  0
  7 17  1  0  0  0  0
  7  4  1  0  0  0  0
  9  1  1  0  0  0  0
 10  1  1  0  0  0  0
 12  2  1  0  0  0  0
 13  2  1  0  0  0  0
 14  2  1  0  0  0  0
M  RAD  2   4   2   6   2
M  END
>  <HBA>
3

>  <HBD>
1

>  <TPSA>
55.62

>  <cid>
20465

>  <dipole>
4.83

>  <excitation_energy_1>
5.959

>  <excitation_energy_2>
6.298

>  <excitation_energy_3>
6.519

>  <excitation_energy_4>
6.665

>  <homo_energy>
-7.266

>  <homo_lumo_gap>
7.516

>  <logP>
0.349

>  <lumo_energy>
0.25

>  <melting_point>
74.39

>  <molecular_refractivity>
28.07

>  <oscillator_strength_1>
0.0015

>  <oscillator_strength_2>
0.0145

>  <oscillator_strength_3>
0.0134

>  <oscillator_strength_4>
0.0057

>  <open_babel_can_smiles>
[NH][C]([C@H]1OC1(C)C)O

>  <mulliken_charges>
17
1   -0.475397
2   -0.48332
3   -0.062083
4   0.486225
5   0.319738
6   -0.587238
7   -0.579209
8   -0.464292
9   0.154414
10   0.16648
11   0.163122
12   0.154077
13   0.178769
14   0.163194
15   0.15062
16   0.30685
17   0.408052

>  <lowdin_charges>
17
1   -0.44492
2   -0.450342
3   -0.080442
4   0.113148
5   0.118806
6   -0.382677
7   -0.35931
8   -0.273208
9   0.160742
10   0.163866
11   0.161573
12   0.161476
13   0.171639
14   0.162914
15   0.156003
16   0.26591
17   0.354823

$$$$

