PCCDB-ID:  66302
public computational chemistry database (PCCDB) project, http://pccdb.org

 24 25  0  0  0  0  0  0  0  0999 V2000
    0.9432    0.3603    0.2193 C   0  0  0  0  0  0  0  0  0  0  0  0
    1.0260   -4.7765   -0.9122 C   0  0  0  0  0  0  0  0  0  0  0  0
    2.1980   -4.7238   -0.1532 C   0  0  0  0  0  0  0  0  0  0  0  0
    0.5128   -3.6040   -1.4668 C   0  0  0  0  0  0  0  0  0  0  0  0
    4.6486    1.1862    0.1195 C   0  0  0  0  0  0  0  0  0  0  0  0
    3.2667    1.3052    0.2202 C   0  0  0  0  0  0  0  0  0  0  0  0
    2.8459   -3.5086    0.0526 C   0  0  0  0  0  0  0  0  0  0  0  0
    1.1564   -2.3846   -1.2509 C   0  0  0  0  0  0  0  0  0  0  0  0
    5.1705   -0.0806   -0.1355 C   0  0  0  0  0  0  0  0  0  0  0  0
    2.4360    0.1927    0.0419 C   0  0  0  0  0  0  0  0  0  0  0  0
    2.3274   -2.3163   -0.4804 C   0  0  0  0  0  0  0  0  0  0  0  0
    3.0683   -1.0405   -0.2522 C   0  0  0  0  0  0  0  0  0  0  0  0
    4.4097   -1.1603   -0.3132 N   0  0  0  0  0  0  0  0  0  0  0  0
    0.7347    1.2025    0.8877 H   0  0  0  0  0  0  0  0  0  0  0  0
    0.4782   -0.5348    0.6411 H   0  0  0  0  0  0  0  0  0  0  0  0
    0.4356    0.5723   -0.7305 H   0  0  0  0  0  0  0  0  0  0  0  0
    0.5218   -5.7253   -1.0759 H   0  0  0  0  0  0  0  0  0  0  0  0
    2.6100   -5.6334    0.2761 H   0  0  0  0  0  0  0  0  0  0  0  0
   -0.3866   -3.6363   -2.0762 H   0  0  0  0  0  0  0  0  0  0  0  0
    5.3023    2.0429    0.2538 H   0  0  0  0  0  0  0  0  0  0  0  0
    2.8178    2.2679    0.4558 H   0  0  0  0  0  0  0  0  0  0  0  0
    3.7676   -3.4644    0.6231 H   0  0  0  0  0  0  0  0  0  0  0  0
    0.7594   -1.4867   -1.7132 H   0  0  0  0  0  0  0  0  0  0  0  0
    6.2465   -0.2379   -0.1983 H   0  0  0  0  0  0  0  0  0  0  0  0
  1 15  1  0  0  0  0
  1 14  1  0  0  0  0
  2  3  2  0  0  0  0
  3  7  1  0  0  0  0
  3 18  1  0  0  0  0
  4  8  2  0  0  0  0
  4  2  1  0  0  0  0
  5  6  1  0  0  0  0
  5 20  1  0  0  0  0
  6 21  1  0  0  0  0
  7 22  1  0  0  0  0
  8 11  1  0  0  0  0
  9  5  2  0  0  0  0
 10  1  1  0  0  0  0
 10  6  2  0  0  0  0
 11 12  1  0  0  0  0
 11  7  2  0  0  0  0
 12 10  1  0  0  0  0
 13 12  2  0  0  0  0
 13  9  1  0  0  0  0
 16  1  1  0  0  0  0
 17  2  1  0  0  0  0
 19  4  1  0  0  0  0
 23  8  1  0  0  0  0
 24  9  1  0  0  0  0
M  END
>  <HBA>
1

>  <HBD>
0

>  <TPSA>
12.89

>  <cid>
66302

>  <dipole>
1.95

>  <excitation_energy_1>
4.576

>  <excitation_energy_2>
4.726

>  <excitation_energy_3>
4.911

>  <excitation_energy_4>
4.964

>  <homo_energy>
-6.169

>  <homo_lumo_gap>
5.298

>  <logP>
3.057

>  <lumo_energy>
-0.871

>  <melting_point>
60.93

>  <molecular_refractivity>
54.64

>  <oscillator_strength_1>
0.0672

>  <oscillator_strength_2>
0.211

>  <oscillator_strength_3>
0.0078

>  <oscillator_strength_4>
0.0554

>  <open_babel_can_smiles>
Cc1cccnc1c1ccccc1

>  <mulliken_charges>
24
1   -0.540461
2   -0.124544
3   -0.136997
4   -0.137241
5   -0.139356
6   -0.151592
7   -0.147702
8   -0.171412
9   0.039055
10   0.146711
11   0.105062
12   0.157651
13   -0.468642
14   0.155499
15   0.176879
16   0.16591
17   0.128786
18   0.130207
19   0.128419
20   0.135271
21   0.133914
22   0.146814
23   0.129806
24   0.137964

>  <lowdin_charges>
24
1   -0.446677
2   -0.155027
3   -0.158112
4   -0.158717
5   -0.179201
6   -0.138642
7   -0.140824
8   -0.161617
9   -0.090188
10   -0.017031
11   -0.009569
12   0.041948
13   -0.151136
14   0.158213
15   0.169755
16   0.160266
17   0.157458
18   0.158453
19   0.156905
20   0.164102
21   0.158776
22   0.168609
23   0.15924
24   0.153015

$$$$

