PCCDB-ID:  56701
public computational chemistry database (PCCDB) project, http://pccdb.org

 38 37  0  0  0  0  0  0  0  0999 V2000
    7.1995   -3.4441    0.5635 C   0  0  0  0  0  0  0  0  0  0  0  0
    5.2618    8.3659    3.5453 C   0  0  0  0  0  0  0  0  0  0  0  0
    7.2248   -1.9450    0.8808 C   0  0  0  0  0  0  0  0  0  0  0  0
    6.6851    8.7739    3.9470 C   0  0  0  0  0  0  0  0  0  0  0  0
    5.8599   -1.2726    0.6669 C   0  0  0  0  0  0  0  0  0  0  0  0
    7.7426    8.5916    2.8405 C   0  0  0  0  0  0  0  0  0  0  0  0
    5.8562    0.2447    0.8689 C   0  0  0  0  0  0  0  0  0  0  0  0
    7.8367    7.1849    2.2417 C   0  0  0  0  0  0  0  0  0  0  0  0
    7.2601    2.6952    2.4499 C   0  0  0  0  0  0  0  0  0  0  0  0
    7.0401    4.1492    2.8902 C   0  0  0  0  0  0  0  0  0  0  0  0
    6.1118    0.5811    2.2864 N   0  0  0  0  0  0  0  0  0  0  0  0
    8.2396    6.2054    3.2738 N   0  0  0  0  0  0  0  0  0  0  0  0
    6.1219    1.9732    2.4919 N   0  0  0  0  0  0  0  0  0  0  0  0
    8.1638    4.8869    2.7899 N   0  0  0  0  0  0  0  0  0  0  0  0
    8.3643    2.2602    2.1217 O   0  0  0  0  0  0  0  0  0  0  0  0
    5.9541    4.5593    3.3039 O   0  0  0  0  0  0  0  0  0  0  0  0
    8.1823   -3.9021    0.7211 H   0  0  0  0  0  0  0  0  0  0  0  0
    6.9111   -3.6219   -0.4799 H   0  0  0  0  0  0  0  0  0  0  0  0
    6.4790   -3.9713    1.2006 H   0  0  0  0  0  0  0  0  0  0  0  0
    4.5492    8.6141    4.3399 H   0  0  0  0  0  0  0  0  0  0  0  0
    5.1846    7.2889    3.3599 H   0  0  0  0  0  0  0  0  0  0  0  0
    4.9412    8.8909    2.6365 H   0  0  0  0  0  0  0  0  0  0  0  0
    7.9766   -1.4472    0.2526 H   0  0  0  0  0  0  0  0  0  0  0  0
    7.5532   -1.8098    1.9206 H   0  0  0  0  0  0  0  0  0  0  0  0
    6.9848    8.2177    4.8466 H   0  0  0  0  0  0  0  0  0  0  0  0
    6.6925    9.8302    4.2462 H   0  0  0  0  0  0  0  0  0  0  0  0
    5.1166   -1.7216    1.3390 H   0  0  0  0  0  0  0  0  0  0  0  0
    5.5215   -1.4743   -0.3586 H   0  0  0  0  0  0  0  0  0  0  0  0
    8.7278    8.8759    3.2318 H   0  0  0  0  0  0  0  0  0  0  0  0
    7.5191    9.2826    2.0163 H   0  0  0  0  0  0  0  0  0  0  0  0
    4.8692    0.6485    0.6173 H   0  0  0  0  0  0  0  0  0  0  0  0
    6.5894    0.7237    0.2009 H   0  0  0  0  0  0  0  0  0  0  0  0
    8.6054    7.1697    1.4606 H   0  0  0  0  0  0  0  0  0  0  0  0
    6.8850    6.9011    1.7697 H   0  0  0  0  0  0  0  0  0  0  0  0
    7.0540    0.2711    2.5276 H   0  0  0  0  0  0  0  0  0  0  0  0
    7.5663    6.2485    4.0395 H   0  0  0  0  0  0  0  0  0  0  0  0
    5.3035    2.3910    2.9189 H   0  0  0  0  0  0  0  0  0  0  0  0
    9.0314    4.4142    2.5656 H   0  0  0  0  0  0  0  0  0  0  0  0
  1 17  1  0  0  0  0
  1  3  1  0  0  0  0
  1 19  1  0  0  0  0
  2  4  1  0  0  0  0
  2 20  1  0  0  0  0
  3 24  1  0  0  0  0
  4 26  1  0  0  0  0
  4 25  1  0  0  0  0
  5  7  1  0  0  0  0
  5  3  1  0  0  0  0
  5 27  1  0  0  0  0
  6 29  1  0  0  0  0
  6  4  1  0  0  0  0
  7 11  1  0  0  0  0
  8  6  1  0  0  0  0
  8 12  1  0  0  0  0
  9 13  1  0  0  0  0
  9 10  1  0  0  0  0
 10 16  2  0  0  0  0
 11 13  1  0  0  0  0
 11 35  1  0  0  0  0
 12 36  1  0  0  0  0
 13 37  1  0  0  0  0
 14 10  1  0  0  0  0
 14 12  1  0  0  0  0
 15  9  2  0  0  0  0
 18  1  1  0  0  0  0
 21  2  1  0  0  0  0
 22  2  1  0  0  0  0
 23  3  1  0  0  0  0
 28  5  1  0  0  0  0
 30  6  1  0  0  0  0
 31  7  1  0  0  0  0
 32  7  1  0  0  0  0
 33  8  1  0  0  0  0
 34  8  1  0  0  0  0
 38 14  1  0  0  0  0
M  END
>  <HBA>
6

>  <HBD>
4

>  <TPSA>
82.26

>  <cid>
56701

>  <dipole>
1.01

>  <excitation_energy_1>
4.122

>  <excitation_energy_2>
4.756

>  <excitation_energy_3>
4.853

>  <excitation_energy_4>
5.866

>  <homo_energy>
-6.351

>  <homo_lumo_gap>
5.293

>  <logP>
1.392

>  <lumo_energy>
-1.059

>  <melting_point>
122.28

>  <molecular_refractivity>
61.79

>  <oscillator_strength_1>
0.0005

>  <oscillator_strength_2>
0.1562

>  <oscillator_strength_3>
0.0022

>  <oscillator_strength_4>
0.0006

>  <open_babel_can_smiles>
CCCCNNC(=O)C(=O)NNCCCC

>  <mulliken_charges>
38
1   -0.442475
2   -0.460491
3   -0.26056
4   -0.266599
5   -0.26206
6   -0.269987
7   -0.119449
8   -0.11767
9   0.557156
10   0.558301
11   -0.431116
12   -0.431716
13   -0.472318
14   -0.472766
15   -0.548513
16   -0.547366
17   0.146123
18   0.143115
19   0.145171
20   0.143743
21   0.175282
22   0.138582
23   0.141256
24   0.136649
25   0.135211
26   0.137772
27   0.146386
28   0.136593
29   0.145939
30   0.137931
31   0.146135
32   0.143161
33   0.145395
34   0.148211
35   0.331928
36   0.332858
37   0.364897
38   0.36529

>  <lowdin_charges>
38
1   -0.443076
2   -0.454944
3   -0.277064
4   -0.278191
5   -0.281088
6   -0.283008
7   -0.206982
8   -0.209698
9   0.114978
10   0.116794
11   -0.278057
12   -0.279158
13   -0.186149
14   -0.184846
15   -0.32251
16   -0.324314
17   0.151378
18   0.146013
19   0.14968
20   0.152441
21   0.157997
22   0.145682
23   0.145167
24   0.139134
25   0.138929
26   0.144691
27   0.14976
28   0.146831
29   0.149615
30   0.149138
31   0.147094
32   0.137089
33   0.147481
34   0.137963
35   0.265
36   0.266704
37   0.304791
38   0.304737

$$$$

