PCCDB-ID:  6510
public computational chemistry database (PCCDB) project, http://pccdb.org

 23 22  0  0  0  0  0  0  0  0999 V2000
    2.8017    0.0728   -1.4816 C   0  0  0  0  0  0  0  0  0  0  0  0
    2.4933   -0.1376    0.0082 C   0  0  0  0  0  0  0  0  0  0  0  0
    2.5375   -1.4237    2.1392 C   0  0  0  0  0  0  0  0  0  0  0  0
    2.5610   -2.6807   -0.0578 C   0  0  0  0  0  0  0  0  0  0  0  0
    4.6070   -1.3738    0.6843 C   0  0  0  0  0  0  0  0  0  0  0  0
    3.0601   -1.4156    0.6801 C   0  0  0  0  0  0  0  0  0  0  0  0
    3.0469   -2.4958    2.9372 O   0  0  0  0  0  0  0  0  0  0  0  0
    2.9194   -3.9025    0.5998 O   0  0  0  0  0  0  0  0  0  0  0  0
    5.2086   -2.5378    1.2614 O   0  0  0  0  0  0  0  0  0  0  0  0
    2.3598    1.0154   -1.8229 H   0  0  0  0  0  0  0  0  0  0  0  0
    2.3880   -0.7248   -2.1076 H   0  0  0  0  0  0  0  0  0  0  0  0
    3.8776    0.1285   -1.6799 H   0  0  0  0  0  0  0  0  0  0  0  0
    1.4025   -0.1375    0.1431 H   0  0  0  0  0  0  0  0  0  0  0  0
    2.8629    0.7318    0.5702 H   0  0  0  0  0  0  0  0  0  0  0  0
    1.4358   -1.4468    2.1317 H   0  0  0  0  0  0  0  0  0  0  0  0
    2.8412   -0.5002    2.6462 H   0  0  0  0  0  0  0  0  0  0  0  0
    2.9402   -2.6916   -1.0899 H   0  0  0  0  0  0  0  0  0  0  0  0
    1.4658   -2.6752   -0.1100 H   0  0  0  0  0  0  0  0  0  0  0  0
    4.9455   -0.4678    1.2129 H   0  0  0  0  0  0  0  0  0  0  0  0
    4.9926   -1.3194   -0.3386 H   0  0  0  0  0  0  0  0  0  0  0  0
    2.8029   -3.3072    2.4441 H   0  0  0  0  0  0  0  0  0  0  0  0
    3.8960   -3.8653    0.6719 H   0  0  0  0  0  0  0  0  0  0  0  0
    4.8227   -2.5988    2.1605 H   0  0  0  0  0  0  0  0  0  0  0  0
  1  2  1  0  0  0  0
  2 13  1  0  0  0  0
  2 14  1  0  0  0  0
  2  6  1  0  0  0  0
  3 16  1  0  0  0  0
  3  7  1  0  0  0  0
  4  8  1  0  0  0  0
  4  6  1  0  0  0  0
  5 19  1  0  0  0  0
  5  9  1  0  0  0  0
  6  5  1  0  0  0  0
  6  3  1  0  0  0  0
  8 22  1  0  0  0  0
  9 23  1  0  0  0  0
 10  1  1  0  0  0  0
 11  1  1  0  0  0  0
 12  1  1  0  0  0  0
 15  3  1  0  0  0  0
 17  4  1  0  0  0  0
 18  4  1  0  0  0  0
 20  5  1  0  0  0  0
 21  7  1  0  0  0  0
M  END
>  <HBA>
3

>  <HBD>
3

>  <TPSA>
60.69

>  <cid>
6510

>  <dipole>
2.81

>  <excitation_energy_1>
6.558

>  <excitation_energy_2>
6.583

>  <excitation_energy_3>
6.739

>  <excitation_energy_4>
6.765

>  <homo_energy>
-7.097

>  <homo_lumo_gap>
8.985

>  <logP>
-0.64

>  <lumo_energy>
1.888

>  <melting_point>
47.98

>  <molecular_refractivity>
34.18

>  <oscillator_strength_1>
0.0005

>  <oscillator_strength_2>
0.0004

>  <oscillator_strength_3>
0.0198

>  <oscillator_strength_4>
0.0356

>  <open_babel_can_smiles>
CCC(CO)(CO)CO

>  <mulliken_charges>
23
1   -0.459818
2   -0.268461
3   -0.038031
4   -0.041194
5   -0.038945
6   -0.004522
7   -0.650577
8   -0.651752
9   -0.651933
10   0.152083
11   0.153858
12   0.152868
13   0.138476
14   0.138171
15   0.130024
16   0.144141
17   0.13576
18   0.143417
19   0.128688
20   0.147481
21   0.413695
22   0.412973
23   0.413597

>  <lowdin_charges>
23
1   -0.449129
2   -0.271014
3   -0.136979
4   -0.134946
5   -0.137873
6   -0.052895
7   -0.477183
8   -0.475413
9   -0.477587
10   0.156517
11   0.152302
12   0.149047
13   0.143792
14   0.146298
15   0.131106
16   0.146135
17   0.135332
18   0.143498
19   0.133616
20   0.145993
21   0.344653
22   0.341613
23   0.343118

$$$$

