PCCDB-ID:  28563
public computational chemistry database (PCCDB) project, http://pccdb.org

 28 29  0  0  0  0  0  0  0  0999 V2000
    2.2733    0.4587   -0.3885 C   0  0  0  0  0  0  0  0  0  0  0  0
    1.1572    1.2861   -0.3124 C   0  0  0  0  0  0  0  0  0  0  0  0
   -2.4499    0.9362   -0.2470 C   0  0  0  0  0  0  0  0  0  0  0  0
   -2.5018   -0.3334    0.5887 C   0  0  0  0  0  0  0  0  0  0  0  0
    0.8647   -1.4760   -0.1159 C   0  0  0  0  0  0  0  0  0  0  0  0
    3.3513   -1.8413   -0.3643 C   0  0  0  0  0  0  0  0  0  0  0  0
    2.1392   -0.9358   -0.2991 C   0  0  0  0  0  0  0  0  0  0  0  0
   -0.1149    0.7392   -0.1350 C   0  0  0  0  0  0  0  0  0  0  0  0
   -0.2581   -0.6522   -0.0215 C   0  0  0  0  0  0  0  0  0  0  0  0
    5.4219   -2.1328   -1.6518 C   0  0  0  0  0  0  0  0  0  0  0  0
    5.9040   -2.8468   -0.7002 N   0  0  0  0  0  0  0  0  0  0  0  0
    6.0043   -1.8730   -2.9060 N   0  0  0  0  0  0  0  0  0  0  0  0
    4.1766   -1.5289   -1.5298 N   0  0  0  0  0  0  0  0  0  0  0  0
   -1.1942    1.5902   -0.0719 O   0  0  0  0  0  0  0  0  0  0  0  0
   -1.4865   -1.2429    0.1666 O   0  0  0  0  0  0  0  0  0  0  0  0
    3.2591    0.8911   -0.5307 H   0  0  0  0  0  0  0  0  0  0  0  0
    1.2455    2.3656   -0.3920 H   0  0  0  0  0  0  0  0  0  0  0  0
   -3.2164    1.6506    0.0653 H   0  0  0  0  0  0  0  0  0  0  0  0
   -2.5993    0.6910   -1.3080 H   0  0  0  0  0  0  0  0  0  0  0  0
   -3.4545   -0.8548    0.4629 H   0  0  0  0  0  0  0  0  0  0  0  0
   -2.3650   -0.0872    1.6510 H   0  0  0  0  0  0  0  0  0  0  0  0
    0.7177   -2.5496   -0.0349 H   0  0  0  0  0  0  0  0  0  0  0  0
    3.0383   -2.8957   -0.3590 H   0  0  0  0  0  0  0  0  0  0  0  0
    3.9900   -1.7130    0.5154 H   0  0  0  0  0  0  0  0  0  0  0  0
    6.8682   -3.1181   -0.9014 H   0  0  0  0  0  0  0  0  0  0  0  0
    6.9812   -2.1356   -2.9574 H   0  0  0  0  0  0  0  0  0  0  0  0
    5.8645   -0.9215   -3.2313 H   0  0  0  0  0  0  0  0  0  0  0  0
    3.6563   -1.4879   -2.3994 H   0  0  0  0  0  0  0  0  0  0  0  0
  1  2  2  0  0  0  0
  1  7  1  0  0  0  0
  2  8  1  0  0  0  0
  3 14  1  0  0  0  0
  3 18  1  0  0  0  0
  3  4  1  0  0  0  0
  4 21  1  0  0  0  0
  5 22  1  0  0  0  0
  5  9  1  0  0  0  0
  6 23  1  0  0  0  0
  6  7  1  0  0  0  0
  6 24  1  0  0  0  0
  7  5  2  0  0  0  0
  8 14  1  0  0  0  0
  8  9  2  0  0  0  0
  9 15  1  0  0  0  0
 10 13  1  0  0  0  0
 10 11  1  0  0  0  0
 12 10  2  0  0  0  0
 13  6  1  0  0  0  0
 15  4  1  0  0  0  0
 16  1  1  0  0  0  0
 17  2  1  0  0  0  0
 19  3  1  0  0  0  0
 20  4  1  0  0  0  0
 25 11  1  0  0  0  0
 26 12  1  0  0  0  0
 27 12  1  0  0  0  0
 28 13  1  0  0  0  0
M  RAD  1  11   2
M  END
>  <HBA>
5

>  <HBD>
2

>  <TPSA>
82.86

>  <cid>
28563

>  <dipole>
2.85

>  <excitation_energy_1>
4.803

>  <excitation_energy_2>
5.058

>  <excitation_energy_3>
5.21

>  <excitation_energy_4>
5.317

>  <homo_energy>
-5.567

>  <homo_lumo_gap>
5.736

>  <logP>
1.632

>  <lumo_energy>
0.169

>  <melting_point>
167.64

>  <molecular_refractivity>
56.18

>  <oscillator_strength_1>
0.0517

>  <oscillator_strength_2>
0.0211

>  <oscillator_strength_3>
0.0056

>  <oscillator_strength_4>
0.0052

>  <open_babel_can_smiles>
[NH]C(=[NH2])NCc1ccc2c(c1)OCCO2

>  <mulliken_charges>
28
1   -0.175707
2   -0.190172
3   -0.059485
4   -0.059277
5   -0.263304
6   -0.178626
7   0.128716
8   0.326872
9   0.338239
10   0.589073
11   -0.645748
12   -0.756729
13   -0.60493
14   -0.522656
15   -0.524391
16   0.132307
17   0.137781
18   0.158055
19   0.156898
20   0.158062
21   0.15871
22   0.137417
23   0.14948
24   0.188529
25   0.26312
26   0.317645
27   0.32133
28   0.318791

>  <lowdin_charges>
28
1   -0.170213
2   -0.172302
3   -0.140153
4   -0.139311
5   -0.183915
6   -0.184262
7   -0.024333
8   0.05633
9   0.060471
10   0.124903
11   -0.477174
12   -0.511053
13   -0.310318
14   -0.209384
15   -0.209043
16   0.161517
17   0.164569
18   0.161678
19   0.14593
20   0.160463
21   0.146716
22   0.164662
23   0.142484
24   0.173647
25   0.244511
26   0.272801
27   0.275779
28   0.274997

$$$$

