PCCDB-ID:  528
public computational chemistry database (PCCDB) project, http://pccdb.org

 22 21  0  0  1  0  0  0  0  0999 V2000
    1.6484    0.1030    1.3243 C   0  0  0  0  0  0  0  0  0  0  0  0
    5.3467   -2.3428    1.8498 C   0  0  0  0  0  0  0  0  0  0  0  0
    4.7713   -1.7401    0.5507 C   0  0  0  0  0  0  0  0  0  0  0  0
    3.1281   -0.1899    1.2876 C   0  0  0  0  0  0  0  0  0  0  0  0
    6.7462   -1.8053    2.1961 C   0  0  1  0  0  0  0  0  0  0  0  0
    7.7200   -2.0231    1.0116 C   0  0  0  0  0  0  0  0  0  0  0  0
    6.8046   -0.3892    2.6061 N   0  0  0  0  0  0  0  0  0  0  0  0
    3.9923    0.5492    1.7231 O   0  0  0  0  0  0  0  0  0  0  0  0
    7.6905   -3.0109    0.3111 O   0  0  0  0  0  0  0  0  0  0  0  0
    8.5962   -1.0256    0.8554 O   0  0  0  0  0  0  0  0  0  0  0  0
    3.3782   -1.3697    0.6889 O   0  0  0  0  0  0  0  0  0  0  0  0
    1.4624    0.9648    1.9661 H   0  0  0  0  0  0  0  0  0  0  0  0
    1.0931   -0.7680    1.6838 H   0  0  0  0  0  0  0  0  0  0  0  0
    1.2939    0.3222    0.3109 H   0  0  0  0  0  0  0  0  0  0  0  0
    5.4019   -3.4303    1.7534 H   0  0  0  0  0  0  0  0  0  0  0  0
    4.6724   -2.1220    2.6839 H   0  0  0  0  0  0  0  0  0  0  0  0
    4.7806   -2.4675   -0.2601 H   0  0  0  0  0  0  0  0  0  0  0  0
    5.3291   -0.8567    0.2274 H   0  0  0  0  0  0  0  0  0  0  0  0
    7.1526   -2.4091    3.0176 H   0  0  0  0  0  0  0  0  0  0  0  0
    6.0050    0.1261    2.2306 H   0  0  0  0  0  0  0  0  0  0  0  0
    6.7569   -0.3020    3.6178 H   0  0  0  0  0  0  0  0  0  0  0  0
    8.3102   -0.3491    1.5289 H   0  0  0  0  0  0  0  0  0  0  0  0
  1 13  1  0  0  0  0
  1 12  1  0  0  0  0
  2  5  1  0  0  0  0
  2 16  1  0  0  0  0
  3 11  1  0  0  0  0
  3  2  1  0  0  0  0
  4  1  1  0  0  0  0
  4  8  2  0  0  0  0
  5  7  1  0  0  0  0
  5 19  1  1  0  0  0
  6  5  1  0  0  0  0
  7 21  1  0  0  0  0
  9  6  2  0  0  0  0
 10  6  1  0  0  0  0
 10 22  1  0  0  0  0
 11  4  1  0  0  0  0
 14  1  1  0  0  0  0
 15  2  1  0  0  0  0
 17  3  1  0  0  0  0
 18  3  1  0  0  0  0
 20  7  1  0  0  0  0
M  END
>  <HBA>
5

>  <HBD>
2

>  <TPSA>
89.62

>  <cid>
528

>  <dipole>
5.22

>  <excitation_energy_1>
5.389

>  <excitation_energy_2>
5.819

>  <excitation_energy_3>
6.09

>  <excitation_energy_4>
6.191

>  <homo_energy>
-6.743

>  <homo_lumo_gap>
6.585

>  <logP>
0.052

>  <lumo_energy>
-0.158

>  <melting_point>
117.29

>  <molecular_refractivity>
36.72

>  <oscillator_strength_1>
0.0022

>  <oscillator_strength_2>
0.0013

>  <oscillator_strength_3>
0.0008

>  <oscillator_strength_4>
0.0082

>  <open_babel_can_smiles>
CC(=O)OCC[C@@H](C(=O)O)N

>  <mulliken_charges>
22
1   -0.525835
2   -0.280278
3   -0.062542
4   0.607423
5   -0.106278
6   0.613468
7   -0.799929
8   -0.482063
9   -0.480035
10   -0.580896
11   -0.446471
12   0.185686
13   0.185008
14   0.191795
15   0.176681
16   0.1537
17   0.18762
18   0.16714
19   0.17384
20   0.36726
21   0.3201
22   0.434607

>  <lowdin_charges>
22
1   -0.463773
2   -0.292025
3   -0.133248
4   0.209454
5   -0.111712
6   0.16791
7   -0.556247
8   -0.283565
9   -0.269582
10   -0.353356
11   -0.186795
12   0.178217
13   0.179855
14   0.183432
15   0.167432
16   0.156755
17   0.172762
18   0.155765
19   0.168387
20   0.279183
21   0.269478
22   0.361674

$$$$

