PCCDB-ID:  32396
public computational chemistry database (PCCDB) project, http://pccdb.org

 31 33  0  0  0  0  0  0  0  0999 V2000
   -1.4711   -0.0556    0.2280 C   0  0  0  0  0  0  0  0  0  0  0  0
   -0.6484   -0.9804    0.8737 C   0  0  0  0  0  0  0  0  0  0  0  0
   -0.8942    0.9421   -0.5599 C   0  0  0  0  0  0  0  0  0  0  0  0
    0.7367   -0.9071    0.7336 C   0  0  0  0  0  0  0  0  0  0  0  0
    0.4909    1.0127   -0.7018 C   0  0  0  0  0  0  0  0  0  0  0  0
    3.4693    1.4057   -0.2747 C   0  0  0  0  0  0  0  0  0  0  0  0
    4.8510    1.4628   -0.4152 C   0  0  0  0  0  0  0  0  0  0  0  0
    5.7880   -2.2312   -0.5034 C   0  0  0  0  0  0  0  0  0  0  0  0
    7.1812   -1.9875   -1.0878 C   0  0  0  0  0  0  0  0  0  0  0  0
    3.5898   -0.9938   -0.2904 C   0  0  0  0  0  0  0  0  0  0  0  0
    7.1253    0.3943   -0.6844 C   0  0  0  0  0  0  0  0  0  0  0  0
    1.3330    0.0898   -0.0578 C   0  0  0  0  0  0  0  0  0  0  0  0
    2.8085    0.1666   -0.2084 C   0  0  0  0  0  0  0  0  0  0  0  0
    4.9811   -0.9487   -0.4298 C   0  0  0  0  0  0  0  0  0  0  0  0
    5.6236    0.2978   -0.4920 C   0  0  0  0  0  0  0  0  0  0  0  0
    7.7898   -0.8689   -0.3677 N   0  0  0  0  0  0  0  0  0  0  0  0
   -2.5507   -0.1115    0.3381 H   0  0  0  0  0  0  0  0  0  0  0  0
   -1.0852   -1.7557    1.4979 H   0  0  0  0  0  0  0  0  0  0  0  0
   -1.5246    1.6626   -1.0748 H   0  0  0  0  0  0  0  0  0  0  0  0
    1.3679   -1.6144    1.2642 H   0  0  0  0  0  0  0  0  0  0  0  0
    0.9268    1.7765   -1.3399 H   0  0  0  0  0  0  0  0  0  0  0  0
    2.8991    2.3259   -0.1848 H   0  0  0  0  0  0  0  0  0  0  0  0
    5.3448    2.4321   -0.4533 H   0  0  0  0  0  0  0  0  0  0  0  0
    5.9031   -2.6448    0.5077 H   0  0  0  0  0  0  0  0  0  0  0  0
    5.2519   -2.9825   -1.0972 H   0  0  0  0  0  0  0  0  0  0  0  0
    7.0993   -1.8030   -2.1775 H   0  0  0  0  0  0  0  0  0  0  0  0
    7.8075   -2.8760   -0.9530 H   0  0  0  0  0  0  0  0  0  0  0  0
    3.0993   -1.9646   -0.2725 H   0  0  0  0  0  0  0  0  0  0  0  0
    7.5307    1.1758   -0.0293 H   0  0  0  0  0  0  0  0  0  0  0  0
    7.3190    0.7255   -1.7259 H   0  0  0  0  0  0  0  0  0  0  0  0
    8.7764   -0.7954   -0.6049 H   0  0  0  0  0  0  0  0  0  0  0  0
  1 17  1  0  0  0  0
  1  2  2  0  0  0  0
  2 18  1  0  0  0  0
  3  1  1  0  0  0  0
  4  2  1  0  0  0  0
  4 20  1  0  0  0  0
  5  3  2  0  0  0  0
  5 12  1  0  0  0  0
  6 13  1  0  0  0  0
  6 22  1  0  0  0  0
  7  6  2  0  0  0  0
  8 14  1  0  0  0  0
  8 24  1  0  0  0  0
  9 27  1  0  0  0  0
  9  8  1  0  0  0  0
  9 16  1  0  0  0  0
 10 28  1  0  0  0  0
 10 13  2  0  0  0  0
 11 15  1  0  0  0  0
 11 16  1  0  0  0  0
 11 29  1  0  0  0  0
 12  4  2  0  0  0  0
 13 12  1  0  0  0  0
 14 10  1  0  0  0  0
 15 14  2  0  0  0  0
 15  7  1  0  0  0  0
 19  3  1  0  0  0  0
 21  5  1  0  0  0  0
 23  7  1  0  0  0  0
 25  8  1  0  0  0  0
 26  9  1  0  0  0  0
 30 11  1  0  0  0  0
 31 16  1  0  0  0  0
M  END
>  <HBA>
1

>  <HBD>
1

>  <TPSA>
12.03

>  <cid>
32396

>  <dipole>
1.29

>  <excitation_energy_1>
4.62

>  <excitation_energy_2>
4.694

>  <excitation_energy_3>
4.87

>  <excitation_energy_4>
4.937

>  <homo_energy>
-5.769

>  <homo_lumo_gap>
5.187

>  <logP>
3.328

>  <lumo_energy>
-0.582

>  <melting_point>
99.36

>  <molecular_refractivity>
71.22

>  <oscillator_strength_1>
0.3397

>  <oscillator_strength_2>
0.0048

>  <oscillator_strength_3>
0.0337

>  <oscillator_strength_4>
0.1384

>  <open_babel_can_smiles>
c1ccc(cc1)c1ccc2c(c1)CCNC2

>  <mulliken_charges>
31
1   -0.12746
2   -0.134411
3   -0.133896
4   -0.172799
5   -0.174678
6   -0.179197
7   -0.189326
8   -0.319706
9   -0.150576
10   -0.249265
11   -0.199915
12   0.087701
13   0.09904
14   0.124494
15   0.118132
16   -0.55214
17   0.127751
18   0.128677
19   0.128487
20   0.131413
21   0.130579
22   0.128872
23   0.11988
24   0.162355
25   0.140425
26   0.117097
27   0.137207
28   0.122932
29   0.151055
30   0.128325
31   0.298948

>  <lowdin_charges>
31
1   -0.157655
2   -0.156005
3   -0.156879
4   -0.163802
5   -0.163271
6   -0.16543
7   -0.162017
8   -0.278442
9   -0.201326
10   -0.168587
11   -0.202899
12   7.5e-05
13   -0.003793
14   -0.009315
15   -0.015616
16   -0.361442
17   0.155144
18   0.158186
19   0.158494
20   0.160355
21   0.159509
22   0.158594
23   0.15365
24   0.158529
25   0.151899
26   0.115473
27   0.147048
28   0.155308
29   0.154076
30   0.125422
31   0.254717

$$$$

