PCCDB-ID:  45840
public computational chemistry database (PCCDB) project, http://pccdb.org

 34 35  0  0  1  0  0  0  0  0999 V2000
    0.3395   -0.6595    1.1213 C   0  0  0  0  0  0  0  0  0  0  0  0
    6.6370   -0.6862   -0.0891 C   0  0  0  0  0  0  0  0  0  0  0  0
    6.7546   -0.6589    1.4343 C   0  0  0  0  0  0  0  0  0  0  0  0
    2.8833    1.2273   -1.7230 C   0  0  0  0  0  0  0  0  0  0  0  0
    3.0095   -0.2578   -2.1578 C   0  0  0  0  0  0  0  0  0  0  0  0
    5.6201    0.3311   -0.6234 C   0  0  0  0  0  0  0  0  0  0  0  0
    7.6126   -1.7555    2.0141 C   0  0  0  0  0  0  0  0  0  0  0  0
    2.1477    0.9000    0.7021 C   0  0  0  0  0  0  0  0  0  0  0  0
    2.3603   -1.4200    0.0204 C   0  0  0  0  0  0  0  0  0  0  0  0
    3.3290    1.2030   -0.2325 C   0  0  1  0  0  0  0  0  0  0  0  0
    3.5251   -0.9702   -0.8709 C   0  0  2  0  0  0  0  0  0  0  0  0
    1.4469   -0.3024    0.2542 N   0  0  0  0  0  0  0  0  0  0  0  0
    4.2676    0.0676   -0.1187 N   0  0  0  0  0  0  0  0  0  0  0  0
    8.1320   -2.6446    1.3737 O   0  0  0  0  0  0  0  0  0  0  0  0
   -0.3592    0.1819    1.1951 H   0  0  0  0  0  0  0  0  0  0  0  0
    0.6568   -0.9310    2.1479 H   0  0  0  0  0  0  0  0  0  0  0  0
   -0.2011   -1.5140    0.6983 H   0  0  0  0  0  0  0  0  0  0  0  0
    6.3649   -1.6985   -0.4092 H   0  0  0  0  0  0  0  0  0  0  0  0
    7.6153   -0.4852   -0.5436 H   0  0  0  0  0  0  0  0  0  0  0  0
    5.7553   -0.7322    1.8893 H   0  0  0  0  0  0  0  0  0  0  0  0
    7.1572    0.3026    1.7925 H   0  0  0  0  0  0  0  0  0  0  0  0
    1.8639    1.6075   -1.8359 H   0  0  0  0  0  0  0  0  0  0  0  0
    3.5466    1.8727   -2.3093 H   0  0  0  0  0  0  0  0  0  0  0  0
    3.7244   -0.3754   -2.9790 H   0  0  0  0  0  0  0  0  0  0  0  0
    2.0542   -0.6734   -2.4893 H   0  0  0  0  0  0  0  0  0  0  0  0
    5.6729    0.3476   -1.7267 H   0  0  0  0  0  0  0  0  0  0  0  0
    5.9069    1.3359   -0.2854 H   0  0  0  0  0  0  0  0  0  0  0  0
    7.7448   -1.7081    3.1201 H   0  0  0  0  0  0  0  0  0  0  0  0
    1.4344    1.7350    0.6927 H   0  0  0  0  0  0  0  0  0  0  0  0
    2.5368    0.8010    1.7343 H   0  0  0  0  0  0  0  0  0  0  0  0
    2.7772   -1.8275    0.9621 H   0  0  0  0  0  0  0  0  0  0  0  0
    1.7976   -2.2249   -0.4709 H   0  0  0  0  0  0  0  0  0  0  0  0
    3.8181    2.1284    0.0898 H   0  0  0  0  0  0  0  0  0  0  0  0
    4.1708   -1.8280   -1.0802 H   0  0  0  0  0  0  0  0  0  0  0  0
  1 15  1  0  0  0  0
  1 16  1  0  0  0  0
  2  3  1  0  0  0  0
  3 21  1  0  0  0  0
  3 20  1  0  0  0  0
  3  7  1  0  0  0  0
  4 10  1  0  0  0  0
  5  4  1  0  0  0  0
  5 11  1  0  0  0  0
  6 27  1  0  0  0  0
  6 13  1  0  0  0  0
  6  2  1  0  0  0  0
  7 28  1  0  0  0  0
  8 30  1  0  0  0  0
  9 12  1  0  0  0  0
  9 31  1  0  0  0  0
 10 13  1  0  0  0  0
 10 33  1  1  0  0  0
 10  8  1  0  0  0  0
 11 34  1  6  0  0  0
 11 13  1  0  0  0  0
 11  9  1  0  0  0  0
 12  8  1  0  0  0  0
 12  1  1  0  0  0  0
 14  7  2  0  0  0  0
 17  1  1  0  0  0  0
 18  2  1  0  0  0  0
 19  2  1  0  0  0  0
 22  4  1  0  0  0  0
 23  4  1  0  0  0  0
 24  5  1  0  0  0  0
 25  5  1  0  0  0  0
 26  6  1  0  0  0  0
 29  8  1  0  0  0  0
 32  9  1  0  0  0  0
M  END
>  <HBA>
3

>  <HBD>
0

>  <TPSA>
23.55

>  <cid>
45840

>  <dipole>
2.73

>  <excitation_energy_1>
4.345

>  <excitation_energy_2>
4.668

>  <excitation_energy_3>
4.71

>  <excitation_energy_4>
5.175

>  <homo_energy>
-5.717

>  <homo_lumo_gap>
5.353

>  <logP>
0.62

>  <lumo_energy>
-0.365

>  <melting_point>
52.27

>  <molecular_refractivity>
64.58

>  <oscillator_strength_1>
0.0002

>  <oscillator_strength_2>
0.0172

>  <oscillator_strength_3>
0.0008

>  <oscillator_strength_4>
0.0104

>  <open_babel_can_smiles>
O=CCCCN1[C@@H]2CC[C@H]1CN(C2)C

>  <mulliken_charges>
34
1   -0.288368
2   -0.258055
3   -0.344657
4   -0.270716
5   -0.272512
6   -0.127821
7   0.250866
8   -0.100336
9   -0.100814
10   -0.005289
11   -0.014427
12   -0.396949
13   -0.392308
14   -0.388587
15   0.145987
16   0.118848
17   0.146686
18   0.1568
19   0.143286
20   0.184562
21   0.151236
22   0.146272
23   0.132801
24   0.134772
25   0.147814
26   0.122001
27   0.130081
28   0.100516
29   0.13187
30   0.113815
31   0.115066
32   0.13326
33   0.122799
34   0.1315

>  <lowdin_charges>
34
1   -0.353407
2   -0.276326
3   -0.317299
4   -0.297493
5   -0.298016
6   -0.197534
7   0.059316
8   -0.202
9   -0.204015
10   -0.075766
11   -0.0775
12   -0.188495
13   -0.192694
14   -0.2262
15   0.149354
16   0.119804
17   0.150035
18   0.152469
19   0.151205
20   0.174581
21   0.159353
22   0.152567
23   0.144353
24   0.143725
25   0.154604
26   0.12424
27   0.14
28   0.110462
29   0.142187
30   0.120605
31   0.12251
32   0.14345
33   0.143791
34   0.148136

$$$$

