PCCDB-ID:  10383
public computational chemistry database (PCCDB) project, http://pccdb.org

 21 21  0  0  0  0  0  0  0  0999 V2000
    2.6617    0.6781   -0.3682 C   0  0  0  0  0  0  0  0  0  0  0  0
    6.4756   -4.0797   -2.2561 C   0  0  0  0  0  0  0  0  0  0  0  0
    2.1787   -2.9031    0.1032 C   0  0  0  0  0  0  0  0  0  0  0  0
    4.0246   -4.1604   -0.8717 C   0  0  0  0  0  0  0  0  0  0  0  0
    4.0013   -1.7230   -0.9929 C   0  0  0  0  0  0  0  0  0  0  0  0
    2.8022   -4.1112   -0.1844 C   0  0  0  0  0  0  0  0  0  0  0  0
    2.7892   -1.7062   -0.3075 C   0  0  0  0  0  0  0  0  0  0  0  0
    4.6106   -2.9602   -1.2685 C   0  0  0  0  0  0  0  0  0  0  0  0
    2.2642   -5.3152    0.1823 O   0  0  0  0  0  0  0  0  0  0  0  0
    2.1066   -0.5693    0.0168 O   0  0  0  0  0  0  0  0  0  0  0  0
    5.7947   -2.8752   -1.9430 O   0  0  0  0  0  0  0  0  0  0  0  0
    1.9633    1.4384   -0.0133 H   0  0  0  0  0  0  0  0  0  0  0  0
    2.7606    0.7560   -1.4589 H   0  0  0  0  0  0  0  0  0  0  0  0
    3.6439    0.8424    0.0939 H   0  0  0  0  0  0  0  0  0  0  0  0
    7.3835   -3.7814   -2.7838 H   0  0  0  0  0  0  0  0  0  0  0  0
    5.8726   -4.7264   -2.9069 H   0  0  0  0  0  0  0  0  0  0  0  0
    6.7479   -4.6364   -1.3498 H   0  0  0  0  0  0  0  0  0  0  0  0
    1.2329   -2.8577    0.6355 H   0  0  0  0  0  0  0  0  0  0  0  0
    4.4696   -5.1264   -1.0706 H   0  0  0  0  0  0  0  0  0  0  0  0
    4.4998   -0.8219   -1.3248 H   0  0  0  0  0  0  0  0  0  0  0  0
    1.4300   -5.1525    0.6491 H   0  0  0  0  0  0  0  0  0  0  0  0
  1 12  1  0  0  0  0
  1 10  1  0  0  0  0
  1 14  1  0  0  0  0
  2 11  1  0  0  0  0
  2 17  1  0  0  0  0
  3 18  1  0  0  0  0
  4  6  2  0  0  0  0
  5  7  1  0  0  0  0
  6  3  1  0  0  0  0
  6  9  1  0  0  0  0
  7 10  1  0  0  0  0
  7  3  2  0  0  0  0
  8  5  2  0  0  0  0
  8  4  1  0  0  0  0
  9 21  1  0  0  0  0
 11  8  1  0  0  0  0
 13  1  1  0  0  0  0
 15  2  1  0  0  0  0
 16  2  1  0  0  0  0
 19  4  1  0  0  0  0
 20  5  1  0  0  0  0
M  END
>  <HBA>
3

>  <HBD>
1

>  <TPSA>
38.69

>  <cid>
10383

>  <dipole>
0.5

>  <excitation_energy_1>
5.065

>  <excitation_energy_2>
5.107

>  <excitation_energy_3>
5.274

>  <excitation_energy_4>
5.596

>  <homo_energy>
-5.646

>  <homo_lumo_gap>
6.28

>  <logP>
1.409

>  <lumo_energy>
0.634

>  <melting_point>
55.51

>  <molecular_refractivity>
41.45

>  <oscillator_strength_1>
0.0002

>  <oscillator_strength_2>
0.0003

>  <oscillator_strength_3>
0.001

>  <oscillator_strength_4>
0.0072

>  <open_babel_can_smiles>
COc1cc(OC)cc(c1)O

>  <mulliken_charges>
21
1   -0.212559
2   -0.213069
3   -0.263857
4   -0.249563
5   -0.264943
6   0.362749
7   0.386697
8   0.382668
9   -0.649403
10   -0.514989
11   -0.512452
12   0.166962
13   0.153668
14   0.153655
15   0.166979
16   0.153803
17   0.153845
18   0.121061
19   0.13599
20   0.134309
21   0.408449

>  <lowdin_charges>
21
1   -0.275274
2   -0.280286
3   -0.264988
4   -0.266832
5   -0.266534
6   0.119577
7   0.119918
8   0.122393
9   -0.378839
10   -0.199083
11   -0.198607
12   0.162436
13   0.144123
14   0.145745
15   0.161558
16   0.147847
17   0.147046
18   0.160678
19   0.170511
20   0.170544
21   0.358067

$$$$

