PCCDB-ID:  59824
public computational chemistry database (PCCDB) project, http://pccdb.org

 31 31  0  0  0  0  0  0  0  0999 V2000
    7.6646    1.8181    2.6483 C   0  0  0  0  0  0  0  0  0  0  0  0
   11.0041   -0.2049    3.3156 C   0  0  0  0  0  0  0  0  0  0  0  0
    6.9447    0.7201    3.4403 C   0  0  0  0  0  0  0  0  0  0  0  0
    6.4341   -0.4467    2.5795 C   0  0  0  0  0  0  0  0  0  0  0  0
   10.2357   -4.8814    1.9117 C   0  0  0  0  0  0  0  0  0  0  0  0
    9.2060   -4.0697    2.3841 C   0  0  0  0  0  0  0  0  0  0  0  0
    7.5214   -1.2754    1.9067 C   0  0  0  0  0  0  0  0  0  0  0  0
   11.5875   -2.9184    1.5288 C   0  0  0  0  0  0  0  0  0  0  0  0
   11.4404   -4.3137    1.4670 C   0  0  0  0  0  0  0  0  0  0  0  0
    9.3472   -2.6833    2.4367 C   0  0  0  0  0  0  0  0  0  0  0  0
   10.5576   -2.1120    2.0077 C   0  0  0  0  0  0  0  0  0  0  0  0
   12.5020   -5.1226    1.0370 N   0  0  0  0  0  0  0  0  0  0  0  0
   10.7329   -0.7429    2.0182 O   0  0  0  0  0  0  0  0  0  0  0  0
    8.3236   -1.8963    2.9272 O   0  0  0  0  0  0  0  0  0  0  0  0
    7.9729    2.6384    3.3071 H   0  0  0  0  0  0  0  0  0  0  0  0
    7.0114    2.2427    1.8752 H   0  0  0  0  0  0  0  0  0  0  0  0
    8.5645    1.4383    2.1520 H   0  0  0  0  0  0  0  0  0  0  0  0
   11.1097    0.8747    3.1844 H   0  0  0  0  0  0  0  0  0  0  0  0
   11.9391   -0.6157    3.7196 H   0  0  0  0  0  0  0  0  0  0  0  0
   10.1836   -0.4131    4.0104 H   0  0  0  0  0  0  0  0  0  0  0  0
    6.0878    1.1601    3.9676 H   0  0  0  0  0  0  0  0  0  0  0  0
    7.6118    0.3227    4.2146 H   0  0  0  0  0  0  0  0  0  0  0  0
    5.7749   -0.0614    1.7882 H   0  0  0  0  0  0  0  0  0  0  0  0
    5.8253   -1.1180    3.1987 H   0  0  0  0  0  0  0  0  0  0  0  0
   10.1065   -5.9609    1.8861 H   0  0  0  0  0  0  0  0  0  0  0  0
    8.2711   -4.5062    2.7240 H   0  0  0  0  0  0  0  0  0  0  0  0
    8.1613   -0.6583    1.2642 H   0  0  0  0  0  0  0  0  0  0  0  0
    7.0686   -2.0582    1.2807 H   0  0  0  0  0  0  0  0  0  0  0  0
   12.5085   -2.4402    1.2055 H   0  0  0  0  0  0  0  0  0  0  0  0
   12.2170   -6.0237    0.6722 H   0  0  0  0  0  0  0  0  0  0  0  0
   13.1446   -4.6647    0.4019 H   0  0  0  0  0  0  0  0  0  0  0  0
  1 15  1  0  0  0  0
  1  3  1  0  0  0  0
  2 19  1  0  0  0  0
  2 20  1  0  0  0  0
  3 21  1  0  0  0  0
  3 22  1  0  0  0  0
  4 24  1  0  0  0  0
  4  3  1  0  0  0  0
  5  6  2  0  0  0  0
  6 10  1  0  0  0  0
  6 26  1  0  0  0  0
  7  4  1  0  0  0  0
  7 14  1  0  0  0  0
  8 11  1  0  0  0  0
  9  8  2  0  0  0  0
  9  5  1  0  0  0  0
 10 14  1  0  0  0  0
 11 13  1  0  0  0  0
 11 10  2  0  0  0  0
 12  9  1  0  0  0  0
 13  2  1  0  0  0  0
 16  1  1  0  0  0  0
 17  1  1  0  0  0  0
 18  2  1  0  0  0  0
 23  4  1  0  0  0  0
 25  5  1  0  0  0  0
 27  7  1  0  0  0  0
 28  7  1  0  0  0  0
 29  8  1  0  0  0  0
 30 12  1  0  0  0  0
 31 12  1  0  0  0  0
M  END
>  <HBA>
3

>  <HBD>
1

>  <TPSA>
44.48

>  <cid>
59824

>  <dipole>
1.64

>  <excitation_energy_1>
4.583

>  <excitation_energy_2>
4.68

>  <excitation_energy_3>
5.241

>  <excitation_energy_4>
5.348

>  <homo_energy>
-5.263

>  <homo_lumo_gap>
5.467

>  <logP>
3.038

>  <lumo_energy>
0.204

>  <melting_point>
62.7

>  <molecular_refractivity>
58.25

>  <oscillator_strength_1>
0.0447

>  <oscillator_strength_2>
0.0032

>  <oscillator_strength_3>
0.0695

>  <oscillator_strength_4>
0.0157

>  <open_babel_can_smiles>
CCCCOc1ccc(cc1OC)N

>  <mulliken_charges>
31
1   -0.45771
2   -0.212826
3   -0.248988
4   -0.274143
5   -0.182161
6   -0.18453
7   -0.027957
8   -0.233709
9   0.312043
10   0.317795
11   0.318621
12   -0.790274
13   -0.530758
14   -0.547972
15   0.139469
16   0.137136
17   0.163084
18   0.15647
19   0.141373
20   0.167832
21   0.129153
22   0.151541
23   0.130185
24   0.141597
25   0.116679
26   0.13294
27   0.149999
28   0.124712
29   0.123646
30   0.31792
31   0.318832

>  <lowdin_charges>
31
1   -0.45347
2   -0.273935
3   -0.277049
4   -0.285636
5   -0.203577
6   -0.163922
7   -0.128679
8   -0.217481
9   0.056753
10   0.045961
11   0.08085
12   -0.492086
13   -0.234931
14   -0.239344
15   0.149509
16   0.145128
17   0.154302
18   0.152356
19   0.140012
20   0.152367
21   0.142201
22   0.149008
23   0.146003
24   0.150255
25   0.15165
26   0.164493
27   0.143845
28   0.134488
29   0.161355
30   0.273928
31   0.275646

$$$$

