PCCDB-ID:  22772
public computational chemistry database (PCCDB) project, http://pccdb.org

  9  8  0  0  0  0  0  0  0  0999 V2000
    1.3139   -0.1244   -0.1506 C   0  0  0  0  0  0  0  0  0  0  0  0
    5.5151    1.3062    2.8276 C   0  0  0  0  0  0  0  0  0  0  0  0
    3.4755    0.5599    1.2673 C   0  0  0  0  0  0  0  0  0  0  0  0
    0.1540   -0.1118   -0.0317 N   0  0  0  0  0  0  0  0  0  0  0  0
    5.6791    1.7675    3.8858 N   0  0  0  0  0  0  0  0  0  0  0  0
    2.9989   -0.1633   -0.3708 S   0  0  0  0  0  0  0  0  0  0  0  0
    5.3271    0.6326    1.2783 S   0  0  0  0  0  0  0  0  0  0  0  0
    3.1260   -0.0863    2.0726 H   0  0  0  0  0  0  0  0  0  0  0  0
    3.0654    1.5655    1.3609 H   0  0  0  0  0  0  0  0  0  0  0  0
  1  4  3  0  0  0  0
  2  5  3  0  0  0  0
  3  7  1  0  0  0  0
  3  9  1  0  0  0  0
  3  8  1  0  0  0  0
  6  1  1  0  0  0  0
  6  3  1  0  0  0  0
  7  2  1  0  0  0  0
M  END
>  <HBA>
4

>  <HBD>
0

>  <TPSA>
98.18

>  <cid>
22772

>  <dipole>
2.11

>  <excitation_energy_1>
4.577

>  <excitation_energy_2>
4.581

>  <excitation_energy_3>
5.84

>  <excitation_energy_4>
5.878

>  <homo_energy>
-7.987

>  <homo_lumo_gap>
5.818

>  <logP>
1.372

>  <lumo_energy>
-2.169

>  <melting_point>
61.17

>  <molecular_refractivity>
31.21

>  <oscillator_strength_1>
0.0001

>  <oscillator_strength_2>
0.0

>  <oscillator_strength_3>
0.0

>  <oscillator_strength_4>
0.0002

>  <open_babel_can_smiles>
N#CSCSC#N

>  <mulliken_charges>
9
1   0.115829
2   0.115839
3   -0.597082
4   -0.355363
5   -0.35534
6   0.283206
7   0.283179
8   0.254853
9   0.254879

>  <lowdin_charges>
9
1   -0.169637
2   -0.167546
3   -0.461468
4   -0.090279
5   -0.090852
6   0.290607
7   0.289896
8   0.200419
9   0.19886

$$$$

