PCCDB-ID:  23228
public computational chemistry database (PCCDB) project, http://pccdb.org

 24 23  0  0  0  0  0  0  0  0999 V2000
    2.6810    0.8113   -3.6492 C   0  0  0  0  0  0  0  0  0  0  0  0
    6.9424   -1.7574    0.6867 C   0  0  0  0  0  0  0  0  0  0  0  0
    6.1757   -0.3412    2.4881 C   0  0  0  0  0  0  0  0  0  0  0  0
    2.3641    1.3034   -2.2450 C   0  0  0  0  0  0  0  0  0  0  0  0
    4.7715   -0.6957    0.5485 C   0  0  0  0  0  0  0  0  0  0  0  0
    4.4308    1.0448   -1.0019 C   0  0  0  0  0  0  0  0  0  0  0  0
    5.2246    0.4887   -0.1896 N   0  0  0  0  0  0  0  0  0  0  0  0
    5.7878   -1.2508    1.4174 N   0  0  0  0  0  0  0  0  0  0  0  0
    4.7963    2.1457   -1.7123 O   0  0  0  0  0  0  0  0  0  0  0  0
    3.1702    0.6374   -1.2449 O   0  0  0  0  0  0  0  0  0  0  0  0
    1.9924    1.2708   -4.3679 H   0  0  0  0  0  0  0  0  0  0  0  0
    2.5688   -0.2760   -3.7122 H   0  0  0  0  0  0  0  0  0  0  0  0
    3.7025    1.0782   -3.9352 H   0  0  0  0  0  0  0  0  0  0  0  0
    7.6150   -2.2725    1.3824 H   0  0  0  0  0  0  0  0  0  0  0  0
    7.5160   -0.9690    0.1689 H   0  0  0  0  0  0  0  0  0  0  0  0
    6.6100   -2.4850   -0.0630 H   0  0  0  0  0  0  0  0  0  0  0  0
    6.8483   -0.8612    3.1801 H   0  0  0  0  0  0  0  0  0  0  0  0
    5.2844   -0.0351    3.0482 H   0  0  0  0  0  0  0  0  0  0  0  0
    6.6841    0.5703    2.1284 H   0  0  0  0  0  0  0  0  0  0  0  0
    1.3393    1.0490   -1.9617 H   0  0  0  0  0  0  0  0  0  0  0  0
    2.4938    2.3848   -2.1585 H   0  0  0  0  0  0  0  0  0  0  0  0
    4.4565   -1.4823   -0.1517 H   0  0  0  0  0  0  0  0  0  0  0  0
    3.8981   -0.4444    1.1669 H   0  0  0  0  0  0  0  0  0  0  0  0
    5.7090    2.3279   -1.4282 H   0  0  0  0  0  0  0  0  0  0  0  0
  1  4  1  0  0  0  0
  2 14  1  0  0  0  0
  2  8  1  0  0  0  0
  3 18  1  0  0  0  0
  3 17  1  0  0  0  0
  4 21  1  0  0  0  0
  4 20  1  0  0  0  0
  4 10  1  0  0  0  0
  5 23  1  0  0  0  0
  5  8  1  0  0  0  0
  6  7  2  0  0  0  0
  7  5  1  0  0  0  0
  8  3  1  0  0  0  0
  9 24  1  0  0  0  0
  9  6  1  0  0  0  0
 10  6  1  0  0  0  0
 11  1  1  0  0  0  0
 12  1  1  0  0  0  0
 13  1  1  0  0  0  0
 15  2  1  0  0  0  0
 16  2  1  0  0  0  0
 19  3  1  0  0  0  0
 22  5  1  0  0  0  0
M  END
>  <HBA>
4

>  <HBD>
1

>  <TPSA>
41.57

>  <cid>
23228

>  <dipole>
2.42

>  <excitation_energy_1>
5.05

>  <excitation_energy_2>
5.442

>  <excitation_energy_3>
5.605

>  <excitation_energy_4>
5.723

>  <homo_energy>
-5.445

>  <homo_lumo_gap>
6.849

>  <logP>
0.642

>  <lumo_energy>
1.404

>  <melting_point>
26.03

>  <molecular_refractivity>
38.33

>  <oscillator_strength_1>
0.0049

>  <oscillator_strength_2>
0.0023

>  <oscillator_strength_3>
0.0039

>  <oscillator_strength_4>
0.0017

>  <open_babel_can_smiles>
CCO/C(=N\CN(C)C)/O

>  <mulliken_charges>
24
1   -0.462554
2   -0.29293
3   -0.292895
4   -0.035903
5   -0.018655
6   0.733981
7   -0.512816
8   -0.363418
9   -0.612393
10   -0.480542
11   0.150098
12   0.161621
13   0.171759
14   0.139869
15   0.133591
16   0.138835
17   0.139681
18   0.139305
19   0.133915
20   0.157474
21   0.169098
22   0.139709
23   0.140902
24   0.422267

>  <lowdin_charges>
24
1   -0.45589
2   -0.361393
3   -0.359145
4   -0.119758
5   -0.135916
6   0.189352
7   -0.289119
8   -0.179224
9   -0.375092
10   -0.197536
11   0.160146
12   0.156593
13   0.161851
14   0.146764
15   0.130286
16   0.146568
17   0.146532
18   0.146586
19   0.129358
20   0.153841
21   0.153542
22   0.140598
23   0.140606
24   0.370448

$$$$

