PCCDB-ID:  46388
public computational chemistry database (PCCDB) project, http://pccdb.org

 19 20  0  0  0  0  0  0  0  0999 V2000
    1.0396    0.0372    0.0066 C   0  0  0  0  0  0  0  0  0  0  0  0
    3.2935    1.1843    0.0989 C   0  0  0  0  0  0  0  0  0  0  0  0
    4.6979    1.1880    0.1376 C   0  0  0  0  0  0  0  0  0  0  0  0
    3.2197   -1.2406   -0.0385 C   0  0  0  0  0  0  0  0  0  0  0  0
    2.5513   -0.0007    0.0150 C   0  0  0  0  0  0  0  0  0  0  0  0
    4.6051   -1.2359    0.0009 C   0  0  0  0  0  0  0  0  0  0  0  0
    5.3233   -0.0392    0.0878 C   0  0  0  0  0  0  0  0  0  0  0  0
    6.8517   -1.6760    0.0286 C   0  0  0  0  0  0  0  0  0  0  0  0
    8.0179   -2.1729    0.0267 N   0  0  0  0  0  0  0  0  0  0  0  0
    5.5739   -2.2358   -0.0346 N   0  0  0  0  0  0  0  0  0  0  0  0
    6.6754   -0.3057    0.1047 O   0  0  0  0  0  0  0  0  0  0  0  0
    0.6678    1.0243   -0.2855 H   0  0  0  0  0  0  0  0  0  0  0  0
    0.6269   -0.1877    0.9992 H   0  0  0  0  0  0  0  0  0  0  0  0
    0.6220   -0.6981   -0.6906 H   0  0  0  0  0  0  0  0  0  0  0  0
    2.7671    2.1341    0.1344 H   0  0  0  0  0  0  0  0  0  0  0  0
    5.2673    2.1090    0.1999 H   0  0  0  0  0  0  0  0  0  0  0  0
    2.6590   -2.1687   -0.1102 H   0  0  0  0  0  0  0  0  0  0  0  0
    7.9867   -3.1901   -0.0344 H   0  0  0  0  0  0  0  0  0  0  0  0
    5.4092   -3.2275   -0.1002 H   0  0  0  0  0  0  0  0  0  0  0  0
  1  5  1  0  0  0  0
  1 13  1  0  0  0  0
  2 15  1  0  0  0  0
  2  3  1  0  0  0  0
  3 16  1  0  0  0  0
  4  6  2  0  0  0  0
  4  5  1  0  0  0  0
  5  2  2  0  0  0  0
  6  7  1  0  0  0  0
  7 11  1  0  0  0  0
  7  3  2  0  0  0  0
  8 11  1  0  0  0  0
  9  8  2  0  0  0  0
 10  6  1  0  0  0  0
 10  8  1  0  0  0  0
 12  1  1  0  0  0  0
 14  1  1  0  0  0  0
 17  4  1  0  0  0  0
 18  9  1  0  0  0  0
 19 10  1  0  0  0  0
M  END
>  <HBA>
3

>  <HBD>
1

>  <TPSA>
52.05

>  <cid>
46388

>  <dipole>
4.51

>  <excitation_energy_1>
4.585

>  <excitation_energy_2>
4.608

>  <excitation_energy_3>
5.183

>  <excitation_energy_4>
5.323

>  <homo_energy>
-5.535

>  <homo_lumo_gap>
5.328

>  <logP>
2.3

>  <lumo_energy>
-0.207

>  <melting_point>
117.38

>  <molecular_refractivity>
43.38

>  <oscillator_strength_1>
0.1592

>  <oscillator_strength_2>
0.0024

>  <oscillator_strength_3>
0.0435

>  <oscillator_strength_4>
0.0015

>  <open_babel_can_smiles>
Cc1ccc2c(c1)[nH]c(=N)o2

>  <mulliken_charges>
19
1   -0.529705
2   -0.196798
3   -0.196677
4   -0.227256
5   0.162967
6   0.381169
7   0.325958
8   0.710969
9   -0.649068
10   -0.771503
11   -0.508024
12   0.158724
13   0.165629
14   0.156795
15   0.126296
16   0.151806
17   0.125967
18   0.279038
19   0.333711

>  <lowdin_charges>
19
1   -0.441296
2   -0.176912
3   -0.172848
4   -0.199818
5   0.001612
6   0.030421
7   0.078252
8   0.171431
9   -0.431858
10   -0.253694
11   -0.131702
12   0.158797
13   0.160843
14   0.158743
15   0.158794
16   0.174264
17   0.159283
18   0.258739
19   0.296949

$$$$

