PCCDB-ID:  16226
public computational chemistry database (PCCDB) project, http://pccdb.org

 31 30  0  0  0  0  0  0  0  0999 V2000
    3.0260   -0.2879   -1.7707 C   0  0  0  0  0  0  0  0  0  0  0  0
    8.2788   -3.6932    1.5147 C   0  0  0  0  0  0  0  0  0  0  0  0
    8.9714   -3.5593    3.8051 C   0  0  0  0  0  0  0  0  0  0  0  0
    3.3828    0.2329   -0.3748 C   0  0  0  0  0  0  0  0  0  0  0  0
    4.5094   -0.5610    0.2997 C   0  0  0  0  0  0  0  0  0  0  0  0
    4.8644   -0.0395    1.6997 C   0  0  0  0  0  0  0  0  0  0  0  0
    5.9374   -0.8540    2.4407 C   0  0  0  0  0  0  0  0  0  0  0  0
    7.3404   -0.7727    1.8236 C   0  0  0  0  0  0  0  0  0  0  0  0
    8.4058   -1.5337    2.6245 C   0  0  0  0  0  0  0  0  0  0  0  0
    8.1371   -2.9663    2.7692 N   0  0  0  0  0  0  0  0  0  0  0  0
    2.2201    0.3003   -2.2247 H   0  0  0  0  0  0  0  0  0  0  0  0
    2.6937   -1.3327   -1.7309 H   0  0  0  0  0  0  0  0  0  0  0  0
    3.8909   -0.2426   -2.4442 H   0  0  0  0  0  0  0  0  0  0  0  0
    8.0456   -4.7510    1.6776 H   0  0  0  0  0  0  0  0  0  0  0  0
    9.3016   -3.6301    1.0899 H   0  0  0  0  0  0  0  0  0  0  0  0
    7.5779   -3.3109    0.7671 H   0  0  0  0  0  0  0  0  0  0  0  0
    8.7075   -4.6152    3.9317 H   0  0  0  0  0  0  0  0  0  0  0  0
    8.7980   -3.0493    4.7589 H   0  0  0  0  0  0  0  0  0  0  0  0
   10.0561   -3.5052    3.5806 H   0  0  0  0  0  0  0  0  0  0  0  0
    2.4895    0.2075    0.2655 H   0  0  0  0  0  0  0  0  0  0  0  0
    3.6766    1.2902   -0.4426 H   0  0  0  0  0  0  0  0  0  0  0  0
    5.3970   -0.5372   -0.3481 H   0  0  0  0  0  0  0  0  0  0  0  0
    4.2139   -1.6187    0.3731 H   0  0  0  0  0  0  0  0  0  0  0  0
    3.9498   -0.0285    2.3100 H   0  0  0  0  0  0  0  0  0  0  0  0
    5.1883    1.0098    1.6240 H   0  0  0  0  0  0  0  0  0  0  0  0
    5.6319   -1.9059    2.5029 H   0  0  0  0  0  0  0  0  0  0  0  0
    5.9962   -0.4975    3.4794 H   0  0  0  0  0  0  0  0  0  0  0  0
    7.6571    0.2792    1.7713 H   0  0  0  0  0  0  0  0  0  0  0  0
    7.3234   -1.1285    0.7859 H   0  0  0  0  0  0  0  0  0  0  0  0
    8.4430   -1.1090    3.6363 H   0  0  0  0  0  0  0  0  0  0  0  0
    9.4041   -1.3559    2.1722 H   0  0  0  0  0  0  0  0  0  0  0  0
  1 12  1  0  0  0  0
  1  4  1  0  0  0  0
  2 14  1  0  0  0  0
  2 10  1  0  0  0  0
  3 17  1  0  0  0  0
  3 18  1  0  0  0  0
  4 20  1  0  0  0  0
  4  5  1  0  0  0  0
  5 23  1  0  0  0  0
  5  6  1  0  0  0  0
  6 24  1  0  0  0  0
  6  7  1  0  0  0  0
  7 26  1  0  0  0  0
  7 27  1  0  0  0  0
  8  7  1  0  0  0  0
  8  9  1  0  0  0  0
  9 10  1  0  0  0  0
  9 30  1  0  0  0  0
 10  3  1  0  0  0  0
 11  1  1  0  0  0  0
 13  1  1  0  0  0  0
 15  2  1  0  0  0  0
 16  2  1  0  0  0  0
 19  3  1  0  0  0  0
 21  4  1  0  0  0  0
 22  5  1  0  0  0  0
 25  6  1  0  0  0  0
 28  8  1  0  0  0  0
 29  8  1  0  0  0  0
 31  9  1  0  0  0  0
M  END
>  <HBA>
1

>  <HBD>
0

>  <TPSA>
3.24

>  <cid>
16226

>  <dipole>
0.52

>  <excitation_energy_1>
5.246

>  <excitation_energy_2>
5.637

>  <excitation_energy_3>
5.699

>  <excitation_energy_4>
5.773

>  <homo_energy>
-5.625

>  <homo_lumo_gap>
7.883

>  <logP>
2.518

>  <lumo_energy>
2.259

>  <melting_point>
-25.92

>  <molecular_refractivity>
48.27

>  <oscillator_strength_1>
0.0309

>  <oscillator_strength_2>
0.0071

>  <oscillator_strength_3>
0.0088

>  <oscillator_strength_4>
0.0423

>  <open_babel_can_smiles>
CCCCCCCN(C)C

>  <mulliken_charges>
31
1   -0.441591
2   -0.300195
3   -0.2919
4   -0.245996
5   -0.24761
6   -0.254737
7   -0.246362
8   -0.274224
9   -0.113331
10   -0.36113
11   0.14071
12   0.14079
13   0.140024
14   0.146783
15   0.114564
16   0.153315
17   0.145779
18   0.147784
19   0.114804
20   0.129593
21   0.129302
22   0.128616
23   0.126076
24   0.126071
25   0.122623
26   0.147962
27   0.121402
28   0.127798
29   0.137411
30   0.130909
31   0.104759

>  <lowdin_charges>
31
1   -0.444917
2   -0.358113
3   -0.351502
4   -0.270568
5   -0.276013
6   -0.274259
7   -0.273672
8   -0.281351
9   -0.196896
10   -0.183886
11   0.149669
12   0.144672
13   0.145876
14   0.148156
15   0.117898
16   0.151866
17   0.146813
18   0.148594
19   0.116442
20   0.138592
21   0.136773
22   0.137241
23   0.135381
24   0.139932
25   0.133793
26   0.146761
27   0.13755
28   0.141194
29   0.138938
30   0.140606
31   0.114429

$$$$

