PCCDB-ID:  5799
public computational chemistry database (PCCDB) project, http://pccdb.org

 27 30  0  0  0  0  0  0  0  0999 V2000
    0.2473   -1.4806    1.5771 C   0  0  0  0  0  0  0  0  0  0  0  0
   -0.2697   -0.0705    1.5197 C   0  0  0  0  0  0  0  0  0  0  0  0
   -5.0759    0.9266   -1.1650 C   0  0  0  0  0  0  0  0  0  0  0  0
   -6.0055   -0.2234   -1.4311 C   0  0  0  0  0  0  0  0  0  0  0  0
   -4.5132   -5.3345    0.2924 C   0  0  0  0  0  0  0  0  0  0  0  0
   -3.0684   -5.5939    0.6152 C   0  0  0  0  0  0  0  0  0  0  0  0
   -1.8674   -1.5083    0.2585 C   0  0  0  0  0  0  0  0  0  0  0  0
   -4.0290   -1.1211   -0.2110 C   0  0  0  0  0  0  0  0  0  0  0  0
   -3.2545   -3.2278   -0.1435 C   0  0  0  0  0  0  0  0  0  0  0  0
   -2.8305   -0.5928    0.0775 N   0  0  0  0  0  0  0  0  0  0  0  0
   -2.0136   -2.8396    0.1858 N   0  0  0  0  0  0  0  0  0  0  0  0
   -4.3087   -2.4251   -0.3511 N   0  0  0  0  0  0  0  0  0  0  0  0
   -0.5881   -1.0309    0.4833 N   0  0  0  0  0  0  0  0  0  0  0  0
   -5.0927   -0.2401   -0.3059 N   0  0  0  0  0  0  0  0  0  0  0  0
   -3.4531   -4.5822   -0.3466 N   0  0  0  0  0  0  0  0  0  0  0  0
   -0.2009   -2.1596    2.3000 H   0  0  0  0  0  0  0  0  0  0  0  0
    1.2827   -1.6960    1.3234 H   0  0  0  0  0  0  0  0  0  0  0  0
    0.3891    0.7427    1.2236 H   0  0  0  0  0  0  0  0  0  0  0  0
   -1.0697    0.2093    2.2024 H   0  0  0  0  0  0  0  0  0  0  0  0
   -5.4539    1.8448   -0.7211 H   0  0  0  0  0  0  0  0  0  0  0  0
   -4.2152    1.0505   -1.8191 H   0  0  0  0  0  0  0  0  0  0  0  0
   -5.7778   -0.8824   -2.2665 H   0  0  0  0  0  0  0  0  0  0  0  0
   -7.0610   -0.1435   -1.1811 H   0  0  0  0  0  0  0  0  0  0  0  0
   -5.1174   -4.8136    1.0326 H   0  0  0  0  0  0  0  0  0  0  0  0
   -5.0615   -6.0179   -0.3520 H   0  0  0  0  0  0  0  0  0  0  0  0
   -2.5633   -6.4663    0.2071 H   0  0  0  0  0  0  0  0  0  0  0  0
   -2.6901   -5.2499    1.5758 H   0  0  0  0  0  0  0  0  0  0  0  0
  1 16  1  0  0  0  0
  2  1  1  0  0  0  0
  2 19  1  0  0  0  0
  3 20  1  0  0  0  0
  3 14  1  0  0  0  0
  4 23  1  0  0  0  0
  4  3  1  0  0  0  0
  4 14  1  0  0  0  0
  5  6  1  0  0  0  0
  5 24  1  0  0  0  0
  6 27  1  0  0  0  0
  7 13  1  0  0  0  0
  8 10  2  0  0  0  0
  9 11  2  0  0  0  0
 10  7  2  0  0  0  0
 11  7  1  0  0  0  0
 12  8  1  0  0  0  0
 12  9  1  0  0  0  0
 13  2  1  0  0  0  0
 13  1  1  0  0  0  0
 14  8  1  0  0  0  0
 15  9  1  0  0  0  0
 15  5  1  0  0  0  0
 15  6  1  0  0  0  0
 17  1  1  0  0  0  0
 18  2  1  0  0  0  0
 21  3  1  0  0  0  0
 22  4  1  0  0  0  0
 25  5  1  0  0  0  0
 26  6  1  0  0  0  0
M  RAD  1  12   2
M  END
>  <HBA>
6

>  <HBD>
0

>  <TPSA>
47.7

>  <cid>
5799

>  <dipole>
1.36

>  <excitation_energy_1>
4.984

>  <excitation_energy_2>
5.2

>  <excitation_energy_3>
5.318

>  <excitation_energy_4>
5.342

>  <homo_energy>
-6.425

>  <homo_lumo_gap>
6.166

>  <logP>
-0.473

>  <lumo_energy>
-0.259

>  <melting_point>
105.84

>  <molecular_refractivity>
64.91

>  <oscillator_strength_1>
0.0014

>  <oscillator_strength_2>
0.0047

>  <oscillator_strength_3>
0.0045

>  <oscillator_strength_4>
0.0878

>  <open_babel_can_smiles>
C1CN1C1=NC(=[N]=C([N]1)N1CC1)N1CC1

>  <mulliken_charges>
27
1   -0.185129
2   -0.186422
3   -0.186606
4   -0.186663
5   -0.1865
6   -0.185214
7   0.589827
8   0.588601
9   0.589835
10   -0.503531
11   -0.504902
12   -0.503644
13   -0.383259
14   -0.386198
15   -0.38324
16   0.167364
17   0.165286
18   0.164754
19   0.171744
20   0.163699
21   0.173579
22   0.173633
23   0.1637
24   0.171734
25   0.164817
26   0.165287
27   0.167447

>  <lowdin_charges>
27
1   -0.216261
2   -0.219254
3   -0.217823
4   -0.21565
5   -0.220923
6   -0.216693
7   0.134443
8   0.133736
9   0.135459
10   -0.227898
11   -0.227967
12   -0.227706
13   -0.123385
14   -0.125158
15   -0.124127
16   0.162046
17   0.162336
18   0.164108
19   0.163785
20   0.163027
21   0.164298
22   0.164493
23   0.161163
24   0.164284
25   0.164822
26   0.1642
27   0.160646

$$$$

