PCCDB-ID:  32889
public computational chemistry database (PCCDB) project, http://pccdb.org

 28 29  0  0  1  0  0  0  0  0999 V2000
    1.9695    1.1889    2.3058 C   0  0  0  0  0  0  0  0  0  0  0  0
    4.3880   -1.9670   -0.8677 C   0  0  0  0  0  0  0  0  0  0  0  0
    4.9660    1.6974    0.0063 C   0  0  0  0  0  0  0  0  0  0  0  0
    3.9646    1.9296    0.9466 C   0  0  0  0  0  0  0  0  0  0  0  0
    5.0830    0.4403   -0.5811 C   0  0  0  0  0  0  0  0  0  0  0  0
    0.2235   -2.6607   -1.5483 C   0  0  0  0  0  0  0  0  0  0  0  0
   -0.7227   -3.1948   -0.4438 C   0  0  0  0  0  0  0  0  0  0  0  0
    3.0631    0.9206    1.2977 C   0  0  0  0  0  0  0  0  0  0  0  0
    4.2147   -0.6054   -0.2467 C   0  0  0  0  0  0  0  0  0  0  0  0
    3.1954   -0.3434    0.6887 C   0  0  0  0  0  0  0  0  0  0  0  0
    1.3754   -1.9776    0.2762 C   0  0  2  0  0  0  0  0  0  0  0  0
    1.2047   -1.7549   -0.9674 N   0  0  0  0  0  0  0  0  0  0  0  0
    2.3083   -1.3880    1.0953 N   0  0  0  0  0  0  0  0  0  0  0  0
    0.3245   -3.2405    1.0641 S   0  0  0  0  0  0  0  0  0  0  0  0
    1.9382    2.2503    2.5682 H   0  0  0  0  0  0  0  0  0  0  0  0
    2.1182    0.6336    3.2437 H   0  0  0  0  0  0  0  0  0  0  0  0
    0.9827    0.9086    1.9184 H   0  0  0  0  0  0  0  0  0  0  0  0
    5.3683   -2.0525   -1.3466 H   0  0  0  0  0  0  0  0  0  0  0  0
    3.6120   -2.1508   -1.6190 H   0  0  0  0  0  0  0  0  0  0  0  0
    4.2989   -2.7594   -0.1158 H   0  0  0  0  0  0  0  0  0  0  0  0
    5.6562    2.4922   -0.2632 H   0  0  0  0  0  0  0  0  0  0  0  0
    3.8663    2.9093    1.4079 H   0  0  0  0  0  0  0  0  0  0  0  0
    5.8717    0.2522   -1.3055 H   0  0  0  0  0  0  0  0  0  0  0  0
   -0.3522   -2.1424   -2.3234 H   0  0  0  0  0  0  0  0  0  0  0  0
    0.7448   -3.4984   -2.0354 H   0  0  0  0  0  0  0  0  0  0  0  0
   -1.1014   -4.1957   -0.6616 H   0  0  0  0  0  0  0  0  0  0  0  0
   -1.5675   -2.5207   -0.2736 H   0  0  0  0  0  0  0  0  0  0  0  0
    2.0579   -1.3891    2.0753 H   0  0  0  0  0  0  0  0  0  0  0  0
  1 15  1  0  0  0  0
  1 16  1  0  0  0  0
  2  9  1  0  0  0  0
  2 20  1  0  0  0  0
  3  4  2  0  0  0  0
  4  8  1  0  0  0  0
  4 22  1  0  0  0  0
  5  9  2  0  0  0  0
  5  3  1  0  0  0  0
  6 12  1  0  0  0  0
  6  7  1  0  0  0  0
  7 27  1  0  0  0  0
  7 14  1  0  0  0  0
  8  1  1  0  0  0  0
  9 10  1  0  0  0  0
 10 13  1  0  0  0  0
 10  8  2  0  0  0  0
 11 14  1  0  0  0  0
 11 13  1  6  0  0  0
 12 11  1  0  0  0  0
 13 28  1  0  0  0  0
 17  1  1  0  0  0  0
 18  2  1  0  0  0  0
 19  2  1  0  0  0  0
 21  3  1  0  0  0  0
 23  5  1  0  0  0  0
 24  6  1  0  0  0  0
 25  6  1  0  0  0  0
 26  7  1  0  0  0  0
M  RAD  2  11   2  12   2
M  END
>  <HBA>
3

>  <HBD>
1

>  <TPSA>
49.69

>  <cid>
32889

>  <dipole>
1.0

>  <excitation_energy_1>
4.71

>  <excitation_energy_2>
4.953

>  <excitation_energy_3>
5.008

>  <excitation_energy_4>
5.207

>  <homo_energy>
-5.864

>  <homo_lumo_gap>
5.712

>  <logP>
2.327

>  <lumo_energy>
-0.152

>  <melting_point>
95.63

>  <molecular_refractivity>
67.78

>  <oscillator_strength_1>
0.0097

>  <oscillator_strength_2>
0.0593

>  <oscillator_strength_3>
0.0236

>  <oscillator_strength_4>
0.0836

>  <open_babel_can_smiles>
Cc1cccc(c1N[C]1[N]CCS1)C

>  <mulliken_charges>
28
1   -0.548441
2   -0.534793
3   -0.110062
4   -0.20953
5   -0.209318
6   -0.136817
7   -0.435179
8   0.18034
9   0.203068
10   0.174999
11   0.317607
12   -0.417415
13   -0.710729
14   0.07303
15   0.162485
16   0.152601
17   0.172283
18   0.144649
19   0.18913
20   0.160041
21   0.125768
22   0.12058
23   0.122277
24   0.155466
25   0.154445
26   0.178935
27   0.184993
28   0.339587

>  <lowdin_charges>
28
1   -0.444879
2   -0.44715
3   -0.159613
4   -0.170753
5   -0.167067
6   -0.203002
7   -0.378581
8   -0.014148
9   0.007311
10   0.030521
11   -0.010341
12   -0.238002
13   -0.248064
14   0.085382
15   0.160534
16   0.152755
17   0.163638
18   0.152402
19   0.174626
20   0.16203
21   0.158054
22   0.153763
23   0.155734
24   0.155267
25   0.148272
26   0.170308
27   0.162578
28   0.288424

$$$$

