PCCDB-ID:  39800
public computational chemistry database (PCCDB) project, http://pccdb.org

 12 12  0  0  0  0  0  0  0  0999 V2000
    0.9502   -0.0284   -0.1409 C   0  0  0  0  0  0  0  0  0  0  0  0
    4.6277   -0.5601    0.0186 C   0  0  0  0  0  0  0  0  0  0  0  0
    4.7421    0.7778   -0.0829 C   0  0  0  0  0  0  0  0  0  0  0  0
    3.2394   -1.0426    0.0127 C   0  0  0  0  0  0  0  0  0  0  0  0
    2.3976    0.0719   -0.1026 N   0  0  0  0  0  0  0  0  0  0  0  0
    2.8243   -2.1927    0.0908 O   0  0  0  0  0  0  0  0  0  0  0  0
    3.2015    1.5886   -0.1962 S   0  0  0  0  0  0  0  0  0  0  0  0
    0.7235   -1.0943   -0.0669 H   0  0  0  0  0  0  0  0  0  0  0  0
    0.5478    0.3649   -1.0813 H   0  0  0  0  0  0  0  0  0  0  0  0
    0.4908    0.5012    0.7013 H   0  0  0  0  0  0  0  0  0  0  0  0
    5.4548   -1.2531    0.1019 H   0  0  0  0  0  0  0  0  0  0  0  0
    5.6454    1.3748   -0.1001 H   0  0  0  0  0  0  0  0  0  0  0  0
  1  5  1  0  0  0  0
  1  8  1  0  0  0  0
  1 10  1  0  0  0  0
  2 11  1  0  0  0  0
  3  2  2  0  0  0  0
  4  2  1  0  0  0  0
  4  6  2  0  0  0  0
  5  4  1  0  0  0  0
  7  5  1  0  0  0  0
  7  3  1  0  0  0  0
  9  1  1  0  0  0  0
 12  3  1  0  0  0  0
M  END
>  <HBA>
3

>  <HBD>
0

>  <TPSA>
50.24

>  <cid>
39800

>  <dipole>
3.38

>  <excitation_energy_1>
3.941

>  <excitation_energy_2>
4.56

>  <excitation_energy_3>
4.743

>  <excitation_energy_4>
5.389

>  <homo_energy>
-5.973

>  <homo_lumo_gap>
5.064

>  <logP>
0.447

>  <lumo_energy>
-0.909

>  <melting_point>
40.15

>  <molecular_refractivity>
29.84

>  <oscillator_strength_1>
0.0

>  <oscillator_strength_2>
0.1141

>  <oscillator_strength_3>
0.0

>  <oscillator_strength_4>
0.0518

>  <open_babel_can_smiles>
Cn1sccc1=O

>  <mulliken_charges>
12
1   -0.317167
2   -0.140184
3   -0.32584
4   0.582461
5   -0.555834
6   -0.529519
7   0.372087
8   0.213132
9   0.169426
10   0.16948
11   0.166922
12   0.195037

>  <lowdin_charges>
12
1   -0.351848
2   -0.206502
3   -0.274852
4   0.140589
5   -0.248787
6   -0.311795
7   0.367128
8   0.189845
9   0.159076
10   0.159792
11   0.185326
12   0.192027

$$$$

