PCCDB-ID:  5829
public computational chemistry database (PCCDB) project, http://pccdb.org

 21 20  0  0  0  0  0  0  0  0999 V2000
    1.6209   -0.8451   -0.0475 C   0  0  0  0  0  0  0  0  0  0  0  0
    3.1629    0.1489   -1.6130 C   0  0  0  0  0  0  0  0  0  0  0  0
    5.1303    2.1100    1.4630 C   0  0  0  0  0  0  0  0  0  0  0  0
    5.5197   -0.2591    1.2318 C   0  0  0  0  0  0  0  0  0  0  0  0
    3.3373    0.6595    0.7434 C   0  0  0  0  0  0  0  0  0  0  0  0
    2.9683   -0.3368   -0.2520 N   0  0  0  0  0  0  0  0  0  0  0  0
    4.7738    0.8958    0.7462 N   0  0  0  0  0  0  0  0  0  0  0  0
    1.4220   -1.6487   -0.7651 H   0  0  0  0  0  0  0  0  0  0  0  0
    0.8342   -0.0753   -0.1785 H   0  0  0  0  0  0  0  0  0  0  0  0
    1.5260   -1.2594    0.9622 H   0  0  0  0  0  0  0  0  0  0  0  0
    3.0243   -0.6749   -2.3218 H   0  0  0  0  0  0  0  0  0  0  0  0
    4.1799    0.5340   -1.7111 H   0  0  0  0  0  0  0  0  0  0  0  0
    2.4548    0.9581   -1.8833 H   0  0  0  0  0  0  0  0  0  0  0  0
    6.2067    2.2884    1.3647 H   0  0  0  0  0  0  0  0  0  0  0  0
    4.8940    2.0694    2.5454 H   0  0  0  0  0  0  0  0  0  0  0  0
    4.6025    2.9680    1.0322 H   0  0  0  0  0  0  0  0  0  0  0  0
    6.5919   -0.0979    1.0746 H   0  0  0  0  0  0  0  0  0  0  0  0
    5.2086   -1.1444    0.6733 H   0  0  0  0  0  0  0  0  0  0  0  0
    5.3551   -0.4511    2.3112 H   0  0  0  0  0  0  0  0  0  0  0  0
    2.9758    0.2957    1.7256 H   0  0  0  0  0  0  0  0  0  0  0  0
    2.8422    1.6332    0.5581 H   0  0  0  0  0  0  0  0  0  0  0  0
  1 10  1  0  0  0  0
  2  6  1  0  0  0  0
  3 15  1  0  0  0  0
  4 19  1  0  0  0  0
  5  7  1  0  0  0  0
  5 20  1  0  0  0  0
  6  1  1  0  0  0  0
  6  5  1  0  0  0  0
  7  4  1  0  0  0  0
  7  3  1  0  0  0  0
  8  1  1  0  0  0  0
  9  1  1  0  0  0  0
 11  2  1  0  0  0  0
 12  2  1  0  0  0  0
 13  2  1  0  0  0  0
 14  3  1  0  0  0  0
 16  3  1  0  0  0  0
 17  4  1  0  0  0  0
 18  4  1  0  0  0  0
 21  5  1  0  0  0  0
M  END
>  <HBA>
2

>  <HBD>
0

>  <TPSA>
6.48

>  <cid>
5829

>  <dipole>
0.68

>  <excitation_energy_1>
5.327

>  <excitation_energy_2>
5.434

>  <excitation_energy_3>
5.749

>  <excitation_energy_4>
5.863

>  <homo_energy>
-5.636

>  <homo_lumo_gap>
7.965

>  <logP>
0.067

>  <lumo_energy>
2.329

>  <melting_point>
-20.63

>  <molecular_refractivity>
31.94

>  <oscillator_strength_1>
0.027

>  <oscillator_strength_2>
0.0303

>  <oscillator_strength_3>
0.0267

>  <oscillator_strength_4>
0.0002

>  <open_babel_can_smiles>
CN(CN(C)C)C

>  <mulliken_charges>
21
1   -0.296427
2   -0.302733
3   -0.296455
4   -0.302417
5   0.031942
6   -0.368895
7   -0.369
8   0.149276
9   0.116756
10   0.148797
11   0.143648
12   0.1731
13   0.111212
14   0.149295
15   0.116732
16   0.148814
17   0.143572
18   0.173064
19   0.111158
20   0.109278
21   0.109284

>  <lowdin_charges>
21
1   -0.356888
2   -0.362576
3   -0.353024
4   -0.359063
5   -0.130057
6   -0.181428
7   -0.181763
8   0.151118
9   0.120187
10   0.148623
11   0.148039
12   0.161634
13   0.118711
14   0.148696
15   0.117392
16   0.150107
17   0.145429
18   0.162875
19   0.11613
20   0.117948
21   0.117911

$$$$

