PCCDB-ID:  50002
public computational chemistry database (PCCDB) project, http://pccdb.org

 24 25  0  0  0  0  0  0  0  0999 V2000
   -0.7286   -1.9737   -2.4134 C   0  0  0  0  0  0  0  0  0  0  0  0
   -0.7340   -1.9994   -1.0151 C   0  0  0  0  0  0  0  0  0  0  0  0
   -0.0886   -0.9343   -3.0911 C   0  0  0  0  0  0  0  0  0  0  0  0
   -0.0972   -0.9907   -0.3003 C   0  0  0  0  0  0  0  0  0  0  0  0
    0.5360    0.0869   -2.3767 C   0  0  0  0  0  0  0  0  0  0  0  0
    1.6936    2.4016   -0.6926 C   0  0  0  0  0  0  0  0  0  0  0  0
    0.5340    0.0679   -0.9746 C   0  0  0  0  0  0  0  0  0  0  0  0
    1.0458    3.2654   -1.5059 C   0  0  0  0  0  0  0  0  0  0  0  0
    1.2494    1.0814   -0.1499 C   0  0  0  0  0  0  0  0  0  0  0  0
    1.5206    4.6605   -1.8240 C   0  0  0  0  0  0  0  0  0  0  0  0
   -0.2900    4.2821   -2.7849 C   0  0  0  0  0  0  0  0  0  0  0  0
   -0.1554    3.1212   -2.1878 N   0  0  0  0  0  0  0  0  0  0  0  0
    0.6901    5.2638   -2.6152 N   0  0  0  0  0  0  0  0  0  0  0  0
    1.5326    0.8612    1.0246 O   0  0  0  0  0  0  0  0  0  0  0  0
    2.6336    5.2432   -1.3898 O   0  0  0  0  0  0  0  0  0  0  0  0
   -1.3230    4.5877   -3.5562 O   0  0  0  0  0  0  0  0  0  0  0  0
   -1.2197   -2.7654   -2.9733 H   0  0  0  0  0  0  0  0  0  0  0  0
   -1.2303   -2.8088   -0.4867 H   0  0  0  0  0  0  0  0  0  0  0  0
   -0.0755   -0.9190   -4.1774 H   0  0  0  0  0  0  0  0  0  0  0  0
   -0.0731   -1.0005    0.7843 H   0  0  0  0  0  0  0  0  0  0  0  0
    1.0264    0.8937   -2.9079 H   0  0  0  0  0  0  0  0  0  0  0  0
    2.5951    2.7462   -0.1871 H   0  0  0  0  0  0  0  0  0  0  0  0
    3.1151    4.6396   -0.8000 H   0  0  0  0  0  0  0  0  0  0  0  0
   -1.9090    3.8083   -3.5593 H   0  0  0  0  0  0  0  0  0  0  0  0
  1  2  1  0  0  0  0
  2 18  1  0  0  0  0
  2  4  2  0  0  0  0
  3  1  2  0  0  0  0
  3  5  1  0  0  0  0
  4 20  1  0  0  0  0
  5  7  2  0  0  0  0
  6 22  1  0  0  0  0
  6  9  1  0  0  0  0
  7  4  1  0  0  0  0
  7  9  1  0  0  0  0
  8  6  2  0  0  0  0
  9 14  2  0  0  0  0
 10  8  1  0  0  0  0
 10 15  1  0  0  0  0
 11 13  2  0  0  0  0
 11 12  2  0  0  0  0
 12  8  1  0  0  0  0
 13 10  2  0  0  0  0
 15 23  1  0  0  0  0
 16 11  1  0  0  0  0
 17  1  1  0  0  0  0
 19  3  1  0  0  0  0
 21  5  1  0  0  0  0
 24 16  1  0  0  0  0
M  END
>  <HBA>
5

>  <HBD>
2

>  <TPSA>
75.27

>  <cid>
50002

>  <dipole>
2.54

>  <excitation_energy_1>
3.127

>  <excitation_energy_2>
3.387

>  <excitation_energy_3>
3.536

>  <excitation_energy_4>
3.627

>  <homo_energy>
-6.727

>  <homo_lumo_gap>
3.908

>  <logP>
1.25

>  <lumo_energy>
-2.819

>  <melting_point>
179.48

>  <molecular_refractivity>
62.69

>  <oscillator_strength_1>
0.0205

>  <oscillator_strength_2>
0.0978

>  <oscillator_strength_3>
0.0401

>  <oscillator_strength_4>
0.0237

>  <open_babel_can_smiles>
O=C(c1ccccc1)/C=C/1\N=[C](=[N]=C1O)O

>  <mulliken_charges>
24
1   -0.116891
2   -0.134995
3   -0.144042
4   -0.152813
5   -0.138295
6   -0.329899
7   0.077613
8   0.344728
9   0.398844
10   0.476448
11   0.639936
12   -0.561216
13   -0.476925
14   -0.464909
15   -0.573555
16   -0.571643
17   0.13799
18   0.138726
19   0.136009
20   0.162803
21   0.144241
22   0.140009
23   0.437433
24   0.430403

>  <lowdin_charges>
24
1   -0.137783
2   -0.157516
3   -0.157632
4   -0.124232
5   -0.130431
6   -0.189455
7   -0.042847
8   0.015014
9   0.161718
10   0.144614
11   0.170327
12   -0.267551
13   -0.196822
14   -0.239255
15   -0.29917
16   -0.297722
17   0.162713
18   0.163084
19   0.158693
20   0.173938
21   0.170155
22   0.166934
23   0.375447
24   0.377781

$$$$

