PCCDB-ID:  56422
public computational chemistry database (PCCDB) project, http://pccdb.org

 31 32  0  0  0  0  0  0  0  0999 V2000
    1.4949   -1.7495    2.1992 C   0  0  0  0  0  0  0  0  0  0  0  0
    2.3306   -1.3096    1.2586 C   0  0  0  0  0  0  0  0  0  0  0  0
    7.1835    3.3412   -0.1268 C   0  0  0  0  0  0  0  0  0  0  0  0
    7.2632    2.2131   -1.1995 C   0  0  0  0  0  0  0  0  0  0  0  0
    7.1003    2.6079    1.2273 C   0  0  0  0  0  0  0  0  0  0  0  0
    7.0247    0.8862   -0.4335 C   0  0  0  0  0  0  0  0  0  0  0  0
    6.4644    0.1823    2.0077 C   0  0  0  0  0  0  0  0  0  0  0  0
    2.8467    0.1015    1.1571 C   0  0  0  0  0  0  0  0  0  0  0  0
    5.0118   -0.2610    2.2704 C   0  0  0  0  0  0  0  0  0  0  0  0
    4.8414    1.4679    0.7469 C   0  0  0  0  0  0  0  0  0  0  0  0
    6.3712    1.2871    0.9107 C   0  0  0  0  0  0  0  0  0  0  0  0
    4.2997    0.1480    1.0577 N   0  0  0  0  0  0  0  0  0  0  0  0
    1.1336   -2.7744    2.2115 H   0  0  0  0  0  0  0  0  0  0  0  0
    1.1337   -1.0978    2.9925 H   0  0  0  0  0  0  0  0  0  0  0  0
    2.6838   -1.9872    0.4809 H   0  0  0  0  0  0  0  0  0  0  0  0
    6.2823    3.9470   -0.2800 H   0  0  0  0  0  0  0  0  0  0  0  0
    8.0341    4.0294   -0.1754 H   0  0  0  0  0  0  0  0  0  0  0  0
    8.2332    2.2042   -1.7080 H   0  0  0  0  0  0  0  0  0  0  0  0
    6.5083    2.3662   -1.9786 H   0  0  0  0  0  0  0  0  0  0  0  0
    6.5989    3.1965    2.0051 H   0  0  0  0  0  0  0  0  0  0  0  0
    8.1099    2.3783    1.5950 H   0  0  0  0  0  0  0  0  0  0  0  0
    7.9850    0.3949   -0.2287 H   0  0  0  0  0  0  0  0  0  0  0  0
    6.4089    0.1678   -0.9856 H   0  0  0  0  0  0  0  0  0  0  0  0
    7.0720   -0.6570    1.6529 H   0  0  0  0  0  0  0  0  0  0  0  0
    6.9346    0.5577    2.9231 H   0  0  0  0  0  0  0  0  0  0  0  0
    2.4694    0.7004    2.0117 H   0  0  0  0  0  0  0  0  0  0  0  0
    2.4437    0.5640    0.2440 H   0  0  0  0  0  0  0  0  0  0  0  0
    4.6069    0.2568    3.1639 H   0  0  0  0  0  0  0  0  0  0  0  0
    4.9035   -1.3364    2.4419 H   0  0  0  0  0  0  0  0  0  0  0  0
    4.5429    1.7755   -0.2625 H   0  0  0  0  0  0  0  0  0  0  0  0
    4.4710    2.2403    1.4540 H   0  0  0  0  0  0  0  0  0  0  0  0
  1 13  1  0  0  0  0
  1 14  1  0  0  0  0
  2  1  2  0  0  0  0
  3  5  1  0  0  0  0
  4  6  1  0  0  0  0
  4  3  1  0  0  0  0
  5 21  1  0  0  0  0
  5 20  1  0  0  0  0
  6 22  1  0  0  0  0
  6 11  1  0  0  0  0
  7  9  1  0  0  0  0
  7 25  1  0  0  0  0
  8  2  1  0  0  0  0
  8 26  1  0  0  0  0
  9 29  1  0  0  0  0
  9 28  1  0  0  0  0
 10 11  1  0  0  0  0
 10 12  1  0  0  0  0
 10 31  1  0  0  0  0
 11  5  1  0  0  0  0
 11  7  1  0  0  0  0
 12  8  1  0  0  0  0
 12  9  1  0  0  0  0
 15  2  1  0  0  0  0
 16  3  1  0  0  0  0
 17  3  1  0  0  0  0
 18  4  1  0  0  0  0
 19  4  1  0  0  0  0
 23  6  1  0  0  0  0
 24  7  1  0  0  0  0
 27  8  1  0  0  0  0
 30 10  1  0  0  0  0
M  END
>  <HBA>
1

>  <HBD>
0

>  <TPSA>
3.24

>  <cid>
56422

>  <dipole>
0.47

>  <excitation_energy_1>
5.049

>  <excitation_energy_2>
5.387

>  <excitation_energy_3>
5.706

>  <excitation_energy_4>
5.779

>  <homo_energy>
-5.723

>  <homo_lumo_gap>
6.297

>  <logP>
2.376

>  <lumo_energy>
0.574

>  <melting_point>
16.0

>  <molecular_refractivity>
56.84

>  <oscillator_strength_1>
0.0014

>  <oscillator_strength_2>
0.0103

>  <oscillator_strength_3>
0.0067

>  <oscillator_strength_4>
0.0343

>  <open_babel_can_smiles>
C=CCN1CCC2(C1)CCCC2

>  <mulliken_charges>
31
1   -0.339717
2   -0.046519
3   -0.273313
4   -0.274643
5   -0.290684
6   -0.284384
7   -0.310438
8   -0.156622
9   -0.118214
10   -0.126928
11   0.108747
12   -0.40545
13   0.140174
14   0.136752
15   0.134564
16   0.136878
17   0.134242
18   0.135479
19   0.135581
20   0.129715
21   0.131359
22   0.128613
23   0.145477
24   0.143229
25   0.136248
26   0.112812
27   0.14492
28   0.106504
29   0.146101
30   0.136471
31   0.103043

>  <lowdin_charges>
31
1   -0.339521
2   -0.149393
3   -0.286688
4   -0.289635
5   -0.28301
6   -0.28428
7   -0.285466
8   -0.196354
9   -0.200868
10   -0.205002
11   0.001431
12   -0.187495
13   0.157832
14   0.15541
15   0.156497
16   0.142295
17   0.14554
18   0.145153
19   0.143527
20   0.142758
21   0.139751
22   0.138896
23   0.151195
24   0.15019
25   0.147218
26   0.120806
27   0.151395
28   0.114469
29   0.146858
30   0.142352
31   0.114139

$$$$

