PCCDB-ID:  15674
public computational chemistry database (PCCDB) project, http://pccdb.org

 20 21  0  0  0  0  0  0  0  0999 V2000
    1.0380   -0.0755    0.0595 C   0  0  0  0  0  0  0  0  0  0  0  0
    7.3438    1.0307   -0.2717 C   0  0  0  0  0  0  0  0  0  0  0  0
    6.6292    2.2510   -0.2611 C   0  0  0  0  0  0  0  0  0  0  0  0
    6.6652   -0.1686   -0.2125 C   0  0  0  0  0  0  0  0  0  0  0  0
    5.2528    2.2592   -0.1924 C   0  0  0  0  0  0  0  0  0  0  0  0
    2.5403   -0.0771   -0.0080 C   0  0  0  0  0  0  0  0  0  0  0  0
    5.2514   -0.1868   -0.1416 C   0  0  0  0  0  0  0  0  0  0  0  0
    4.5292    1.0416   -0.1306 C   0  0  0  0  0  0  0  0  0  0  0  0
    4.4288   -1.3620   -0.0753 C   0  0  0  0  0  0  0  0  0  0  0  0
    3.1651    1.0822   -0.0632 N   0  0  0  0  0  0  0  0  0  0  0  0
    3.1237   -1.3118   -0.0108 N   0  0  0  0  0  0  0  0  0  0  0  0
    4.9569   -2.6060   -0.0769 O   0  0  0  0  0  0  0  0  0  0  0  0
    0.6614    0.9472    0.1134 H   0  0  0  0  0  0  0  0  0  0  0  0
    0.6972   -0.6438    0.9321 H   0  0  0  0  0  0  0  0  0  0  0  0
    0.6209   -0.5720   -0.8246 H   0  0  0  0  0  0  0  0  0  0  0  0
    8.4283    1.0391   -0.3266 H   0  0  0  0  0  0  0  0  0  0  0  0
    7.1752    3.1893   -0.3081 H   0  0  0  0  0  0  0  0  0  0  0  0
    7.2394   -1.0938   -0.2242 H   0  0  0  0  0  0  0  0  0  0  0  0
    4.6843    3.1836   -0.1837 H   0  0  0  0  0  0  0  0  0  0  0  0
    5.9239   -2.5535   -0.1194 H   0  0  0  0  0  0  0  0  0  0  0  0
  1 13  1  0  0  0  0
  1 14  1  0  0  0  0
  2  3  2  0  0  0  0
  2  4  1  0  0  0  0
  3  5  1  0  0  0  0
  4  7  2  0  0  0  0
  5 19  1  0  0  0  0
  5  8  2  0  0  0  0
  6  1  1  0  0  0  0
  7  8  1  0  0  0  0
  7  9  1  0  0  0  0
  8 10  1  0  0  0  0
  9 11  2  0  0  0  0
 10  6  2  0  0  0  0
 11  6  1  0  0  0  0
 12  9  1  0  0  0  0
 15  1  1  0  0  0  0
 16  2  1  0  0  0  0
 17  3  1  0  0  0  0
 18  4  1  0  0  0  0
 20 12  1  0  0  0  0
M  END
>  <HBA>
2

>  <HBD>
1

>  <TPSA>
45.75

>  <cid>
15674

>  <dipole>
3.51

>  <excitation_energy_1>
4.138

>  <excitation_energy_2>
4.386

>  <excitation_energy_3>
4.765

>  <excitation_energy_4>
4.766

>  <homo_energy>
-6.419

>  <homo_lumo_gap>
4.947

>  <logP>
1.232

>  <lumo_energy>
-1.472

>  <melting_point>
150.71

>  <molecular_refractivity>
47.33

>  <oscillator_strength_1>
0.0012

>  <oscillator_strength_2>
0.0625

>  <oscillator_strength_3>
0.0024

>  <oscillator_strength_4>
0.0302

>  <open_babel_can_smiles>
Cc1nc2ccccc2c(n1)O

>  <mulliken_charges>
20
1   -0.501627
2   -0.131613
3   -0.131603
4   -0.213554
5   -0.148058
6   0.421266
7   0.120345
8   0.245131
9   0.443791
10   -0.527012
11   -0.47894
12   -0.586807
13   0.169994
14   0.171055
15   0.171236
16   0.139746
17   0.142469
18   0.121336
19   0.151337
20   0.421508

>  <lowdin_charges>
20
1   -0.445599
2   -0.153784
3   -0.141195
4   -0.160964
5   -0.149865
6   0.10424
7   -0.071776
8   0.05813
9   0.150712
10   -0.188587
11   -0.184265
12   -0.333497
13   0.166329
14   0.170799
15   0.171082
16   0.161438
17   0.165045
18   0.150624
19   0.173855
20   0.35728

$$$$

