PCCDB-ID:  13211
public computational chemistry database (PCCDB) project, http://pccdb.org

 22 23  0  0  0  0  0  0  0  0999 V2000
    1.0017   -0.1312    0.0578 C   0  0  0  0  0  0  0  0  0  0  0  0
    4.6917   -1.1516   -0.0137 C   0  0  0  0  0  0  0  0  0  0  0  0
    3.7718    3.4869   -0.1870 C   0  0  0  0  0  0  0  0  0  0  0  0
    3.2955   -1.2151   -0.0127 C   0  0  0  0  0  0  0  0  0  0  0  0
    5.3444    0.0814    0.0490 C   0  0  0  0  0  0  0  0  0  0  0  0
    5.0383    2.6836    0.2007 C   0  0  0  0  0  0  0  0  0  0  0  0
    2.5797    2.5665    0.1788 C   0  0  0  0  0  0  0  0  0  0  0  0
    2.5103   -0.0554    0.0480 C   0  0  0  0  0  0  0  0  0  0  0  0
    4.5768    1.2436    0.1036 C   0  0  0  0  0  0  0  0  0  0  0  0
    3.1775    1.1758    0.1001 C   0  0  0  0  0  0  0  0  0  0  0  0
    0.6556   -1.1669   -0.0167 H   0  0  0  0  0  0  0  0  0  0  0  0
    0.5629    0.4290   -0.7781 H   0  0  0  0  0  0  0  0  0  0  0  0
    0.5824    0.2953    0.9784 H   0  0  0  0  0  0  0  0  0  0  0  0
    5.2705   -2.0703   -0.0665 H   0  0  0  0  0  0  0  0  0  0  0  0
    3.7722    3.6613   -1.2696 H   0  0  0  0  0  0  0  0  0  0  0  0
    3.7211    4.4655    0.3007 H   0  0  0  0  0  0  0  0  0  0  0  0
    2.8043   -2.1844   -0.0631 H   0  0  0  0  0  0  0  0  0  0  0  0
    6.4309    0.1309    0.0487 H   0  0  0  0  0  0  0  0  0  0  0  0
    5.3488    2.9145    1.2308 H   0  0  0  0  0  0  0  0  0  0  0  0
    5.8969    2.9081   -0.4429 H   0  0  0  0  0  0  0  0  0  0  0  0
    1.7208    2.7082   -0.4883 H   0  0  0  0  0  0  0  0  0  0  0  0
    2.2171    2.7736    1.1977 H   0  0  0  0  0  0  0  0  0  0  0  0
  1 13  1  0  0  0  0
  2  4  2  0  0  0  0
  2  5  1  0  0  0  0
  3  7  1  0  0  0  0
  3  6  1  0  0  0  0
  3 16  1  0  0  0  0
  4  8  1  0  0  0  0
  5  9  2  0  0  0  0
  6 19  1  0  0  0  0
  7 22  1  0  0  0  0
  8  1  1  0  0  0  0
  8 10  2  0  0  0  0
  9  6  1  0  0  0  0
 10  9  1  0  0  0  0
 10  7  1  0  0  0  0
 11  1  1  0  0  0  0
 12  1  1  0  0  0  0
 14  2  1  0  0  0  0
 15  3  1  0  0  0  0
 17  4  1  0  0  0  0
 18  5  1  0  0  0  0
 20  6  1  0  0  0  0
 21  7  1  0  0  0  0
M  END
>  <HBA>
0

>  <HBD>
0

>  <TPSA>
0.0

>  <cid>
13211

>  <dipole>
0.59

>  <excitation_energy_1>
5.143

>  <excitation_energy_2>
5.727

>  <excitation_energy_3>
5.866

>  <excitation_energy_4>
5.976

>  <homo_energy>
-6.12

>  <homo_lumo_gap>
6.319

>  <logP>
2.484

>  <lumo_energy>
0.199

>  <melting_point>
38.74

>  <molecular_refractivity>
44.03

>  <oscillator_strength_1>
0.0098

>  <oscillator_strength_2>
0.0015

>  <oscillator_strength_3>
0.0118

>  <oscillator_strength_4>
0.0019

>  <open_babel_can_smiles>
Cc1cccc2c1CCC2

>  <mulliken_charges>
22
1   -0.529754
2   -0.127749
3   -0.279967
4   -0.191282
5   -0.201785
6   -0.34728
7   -0.347828
8   0.123453
9   0.137102
10   0.069604
11   0.152613
12   0.158547
13   0.159039
14   0.122291
15   0.146167
16   0.135156
17   0.11562
18   0.119556
19   0.149764
20   0.145304
21   0.143621
22   0.147808

>  <lowdin_charges>
22
1   -0.441891
2   -0.159628
3   -0.271705
4   -0.17345
5   -0.169742
6   -0.278703
7   -0.279445
8   -0.006409
9   -0.013215
10   -0.025213
11   0.155019
12   0.158805
13   0.158835
14   0.155021
15   0.144874
16   0.144771
17   0.151544
18   0.151556
19   0.149518
20   0.151192
21   0.149922
22   0.148345

$$$$

