PCCDB-ID:  12309
public computational chemistry database (PCCDB) project, http://pccdb.org

 13 12  0  0  0  0  0  0  0  0999 V2000
    0.8949    0.0732   -0.0055 C   0  0  0  0  0  0  0  0  0  0  0  0
    5.6861    1.1211    0.9822 C   0  0  0  0  0  0  0  0  0  0  0  0
    2.1026    0.0717   -0.0055 C   0  0  0  0  0  0  0  0  0  0  0  0
    4.1557    1.1268    0.9849 C   0  0  0  0  0  0  0  0  0  0  0  0
    3.5659    0.0834    0.0117 C   0  0  0  0  0  0  0  0  0  0  0  0
   -0.1712    0.0736   -0.0072 H   0  0  0  0  0  0  0  0  0  0  0  0
    6.0850    1.8671    1.6783 H   0  0  0  0  0  0  0  0  0  0  0  0
    6.0838    1.3506   -0.0141 H   0  0  0  0  0  0  0  0  0  0  0  0
    6.0823    0.1427    1.2803 H   0  0  0  0  0  0  0  0  0  0  0  0
    3.7810    2.1198    0.7091 H   0  0  0  0  0  0  0  0  0  0  0  0
    3.7788    0.9214    1.9942 H   0  0  0  0  0  0  0  0  0  0  0  0
    3.9404    0.2819   -1.0029 H   0  0  0  0  0  0  0  0  0  0  0  0
    3.9366   -0.9157    0.2815 H   0  0  0  0  0  0  0  0  0  0  0  0
  2  4  1  0  0  0  0
  2  9  1  0  0  0  0
  2  7  1  0  0  0  0
  3  1  3  0  0  0  0
  3  5  1  0  0  0  0
  4 11  1  0  0  0  0
  5 13  1  0  0  0  0
  5  4  1  0  0  0  0
  6  1  1  0  0  0  0
  8  2  1  0  0  0  0
 10  4  1  0  0  0  0
 12  5  1  0  0  0  0
M  END
>  <HBA>
0

>  <HBD>
0

>  <TPSA>
0.0

>  <cid>
12309

>  <dipole>
0.75

>  <excitation_energy_1>
6.499

>  <excitation_energy_2>
6.65

>  <excitation_energy_3>
6.681

>  <excitation_energy_4>
6.911

>  <homo_energy>
-7.002

>  <homo_lumo_gap>
8.604

>  <logP>
1.42

>  <lumo_energy>
1.603

>  <melting_point>
-8.55

>  <molecular_refractivity>
24.31

>  <oscillator_strength_1>
0.0005

>  <oscillator_strength_2>
0.0123

>  <oscillator_strength_3>
0.0

>  <oscillator_strength_4>
0.0291

>  <open_babel_can_smiles>
CCCC#C

>  <mulliken_charges>
13
1   -0.519114
2   -0.442674
3   0.354532
4   -0.250145
5   -0.39496
6   0.184215
7   0.149419
8   0.144392
9   0.144471
10   0.148872
11   0.148798
12   0.166003
13   0.166192

>  <lowdin_charges>
13
1   -0.265183
2   -0.446272
3   -0.040002
4   -0.264168
5   -0.259713
6   0.200582
7   0.155082
8   0.147589
9   0.147878
10   0.14876
11   0.148431
12   0.163341
13   0.163675

$$$$

