PCCDB-ID:  14277
public computational chemistry database (PCCDB) project, http://pccdb.org

 19 19  0  0  0  0  0  0  0  0999 V2000
    1.3216   -0.1277   -0.0694 C   0  0  0  0  0  0  0  0  0  0  0  0
   -0.2757   -1.4576    1.3262 C   0  0  0  0  0  0  0  0  0  0  0  0
    1.5342   -2.6368   -0.0428 C   0  0  0  0  0  0  0  0  0  0  0  0
   -0.4084   -1.5929   -1.1890 C   0  0  0  0  0  0  0  0  0  0  0  0
    0.5476   -1.4561    0.0137 C   0  0  0  0  0  0  0  0  0  0  0  0
    2.1272   -0.1215   -1.2427 O   0  0  0  0  0  0  0  0  0  0  0  0
    0.5269   -1.5882    2.4927 O   0  0  0  0  0  0  0  0  0  0  0  0
    0.5735   -4.1977   -0.1169 S   0  0  0  0  0  0  0  0  0  0  0  0
   -0.8837   -3.3698   -1.4554 S   0  0  0  0  0  0  0  0  0  0  0  0
    1.9299   -0.0253    0.8407 H   0  0  0  0  0  0  0  0  0  0  0  0
    0.5990    0.7047   -0.0841 H   0  0  0  0  0  0  0  0  0  0  0  0
   -1.0378   -2.2435    1.2811 H   0  0  0  0  0  0  0  0  0  0  0  0
   -0.7976   -0.4967    1.4140 H   0  0  0  0  0  0  0  0  0  0  0  0
    2.1509   -2.6757    0.8602 H   0  0  0  0  0  0  0  0  0  0  0  0
    2.1840   -2.5497   -0.9150 H   0  0  0  0  0  0  0  0  0  0  0  0
    0.0787   -1.2360   -2.0978 H   0  0  0  0  0  0  0  0  0  0  0  0
   -1.3296   -1.0228   -1.0268 H   0  0  0  0  0  0  0  0  0  0  0  0
    2.6624    0.6858   -1.2362 H   0  0  0  0  0  0  0  0  0  0  0  0
    0.6329   -2.5371    2.6611 H   0  0  0  0  0  0  0  0  0  0  0  0
  1  5  1  0  0  0  0
  1 10  1  0  0  0  0
  2 13  1  0  0  0  0
  2  7  1  0  0  0  0
  3  5  1  0  0  0  0
  3 14  1  0  0  0  0
  4 17  1  0  0  0  0
  4  5  1  0  0  0  0
  5  2  1  0  0  0  0
  6 18  1  0  0  0  0
  6  1  1  0  0  0  0
  7 19  1  0  0  0  0
  8  3  1  0  0  0  0
  9  4  1  0  0  0  0
  9  8  1  0  0  0  0
 11  1  1  0  0  0  0
 12  2  1  0  0  0  0
 15  3  1  0  0  0  0
 16  4  1  0  0  0  0
M  END
>  <HBA>
4

>  <HBD>
2

>  <TPSA>
91.06

>  <cid>
14277

>  <dipole>
3.36

>  <excitation_energy_1>
2.989

>  <excitation_energy_2>
4.215

>  <excitation_energy_3>
4.887

>  <excitation_energy_4>
4.983

>  <homo_energy>
-5.445

>  <homo_lumo_gap>
4.308

>  <logP>
0.352

>  <lumo_energy>
-1.137

>  <melting_point>
70.54

>  <molecular_refractivity>
41.28

>  <oscillator_strength_1>
0.0017

>  <oscillator_strength_2>
0.0003

>  <oscillator_strength_3>
0.0067

>  <oscillator_strength_4>
0.0034

>  <open_babel_can_smiles>
OCC1(CO)CSSC1

>  <mulliken_charges>
19
1   -0.041979
2   -0.0538
3   -0.447395
4   -0.434976
5   0.038464
6   -0.622564
7   -0.619994
8   -0.003198
9   0.004977
10   0.153274
11   0.125688
12   0.168558
13   0.142471
14   0.180141
15   0.214545
16   0.211098
17   0.177828
18   0.401617
19   0.405243

>  <lowdin_charges>
19
1   -0.136988
2   -0.142965
3   -0.381747
4   -0.375283
5   -0.028962
6   -0.469957
7   -0.46215
8   0.012177
9   0.008728
10   0.145552
11   0.131675
12   0.15642
13   0.145575
14   0.172077
15   0.179493
16   0.178314
17   0.167308
18   0.351872
19   0.348861

$$$$

