PCCDB-ID:  12195
public computational chemistry database (PCCDB) project, http://pccdb.org

 19 18  0  0  0  0  0  0  0  0999 V2000
    1.3909   -0.0193   -0.6593 C   0  0  0  0  0  0  0  0  0  0  0  0
    4.4069    2.0603    4.6001 C   0  0  0  0  0  0  0  0  0  0  0  0
    2.8896   -0.1019   -0.3761 C   0  0  0  0  0  0  0  0  0  0  0  0
    3.7434    1.5344    3.3407 C   0  0  0  0  0  0  0  0  0  0  0  0
    4.3991    0.5013    1.3219 C   0  0  0  0  0  0  0  0  0  0  0  0
    3.1892    0.4674    0.9317 N   0  0  0  0  0  0  0  0  0  0  0  0
    5.5126    0.0652    0.6766 O   0  0  0  0  0  0  0  0  0  0  0  0
    4.7862    1.0023    2.5013 O   0  0  0  0  0  0  0  0  0  0  0  0
    1.1521   -0.4459   -1.6402 H   0  0  0  0  0  0  0  0  0  0  0  0
    1.0582    1.0235   -0.6410 H   0  0  0  0  0  0  0  0  0  0  0  0
    0.8296   -0.5654    0.1057 H   0  0  0  0  0  0  0  0  0  0  0  0
    3.6477    2.4702    5.2753 H   0  0  0  0  0  0  0  0  0  0  0  0
    5.1231    2.8533    4.3627 H   0  0  0  0  0  0  0  0  0  0  0  0
    4.9399    1.2606    5.1242 H   0  0  0  0  0  0  0  0  0  0  0  0
    3.4320    0.4307   -1.1787 H   0  0  0  0  0  0  0  0  0  0  0  0
    3.2039   -1.1601   -0.4314 H   0  0  0  0  0  0  0  0  0  0  0  0
    3.2131    2.3207    2.7933 H   0  0  0  0  0  0  0  0  0  0  0  0
    3.0200    0.7406    3.5553 H   0  0  0  0  0  0  0  0  0  0  0  0
    5.2416   -0.3013   -0.1796 H   0  0  0  0  0  0  0  0  0  0  0  0
  1 10  1  0  0  0  0
  1  3  1  0  0  0  0
  1 11  1  0  0  0  0
  2 14  1  0  0  0  0
  2 12  1  0  0  0  0
  3  6  1  0  0  0  0
  4 18  1  0  0  0  0
  4  2  1  0  0  0  0
  5  8  1  0  0  0  0
  6  5  2  0  0  0  0
  7  5  1  0  0  0  0
  8  4  1  0  0  0  0
  9  1  1  0  0  0  0
 13  2  1  0  0  0  0
 15  3  1  0  0  0  0
 16  3  1  0  0  0  0
 17  4  1  0  0  0  0
 19  7  1  0  0  0  0
M  END
>  <HBA>
3

>  <HBD>
1

>  <TPSA>
38.33

>  <cid>
12195

>  <dipole>
1.03

>  <excitation_energy_1>
5.865

>  <excitation_energy_2>
6.281

>  <excitation_energy_3>
6.641

>  <excitation_energy_4>
6.756

>  <homo_energy>
-6.618

>  <homo_lumo_gap>
8.003

>  <logP>
1.143

>  <lumo_energy>
1.385

>  <melting_point>
24.06

>  <molecular_refractivity>
30.62

>  <oscillator_strength_1>
0.004

>  <oscillator_strength_2>
0.0114

>  <oscillator_strength_3>
0.0119

>  <oscillator_strength_4>
0.001

>  <open_babel_can_smiles>
CCO/C(=N/CC)/O

>  <mulliken_charges>
19
1   -0.433083
2   -0.459578
3   -0.166459
4   -0.018051
5   0.693225
6   -0.46775
7   -0.596585
8   -0.460889
9   0.134379
10   0.155146
11   0.155498
12   0.148895
13   0.161517
14   0.16176
15   0.126983
16   0.128962
17   0.155816
18   0.155368
19   0.424846

>  <lowdin_charges>
19
1   -0.441645
2   -0.452069
3   -0.20468
4   -0.119013
5   0.183995
6   -0.282379
7   -0.361445
8   -0.180462
9   0.146354
10   0.154189
11   0.156738
12   0.158498
13   0.159448
14   0.160043
15   0.128065
16   0.126603
17   0.151423
18   0.150747
19   0.365591

$$$$

