PCCDB-ID:  70776
public computational chemistry database (PCCDB) project, http://pccdb.org

 31 31  0  0  0  0  0  0  0  0999 V2000
   -1.7804    0.0452    0.5396 C   0  0  0  0  0  0  0  0  0  0  0  0
   -1.4240    1.3188   -0.2398 C   0  0  0  0  0  0  0  0  0  0  0  0
   -1.4947   -1.2994   -0.1442 C   0  0  0  0  0  0  0  0  0  0  0  0
    0.0571    1.5272   -0.6210 C   0  0  0  0  0  0  0  0  0  0  0  0
   -0.0236   -1.6177   -0.4895 C   0  0  0  0  0  0  0  0  0  0  0  0
    4.1589   -0.9403    0.3861 C   0  0  0  0  0  0  0  0  0  0  0  0
    1.1133    1.2244    0.4684 C   0  0  0  0  0  0  0  0  0  0  0  0
    1.0314   -1.2608    0.5836 C   0  0  0  0  0  0  0  0  0  0  0  0
    3.0837   -0.0805    1.0625 C   0  0  0  0  0  0  0  0  0  0  0  0
    5.3843   -0.9282    1.1948 N   0  0  0  0  0  0  0  0  0  0  0  0
    1.8252   -0.0529    0.3045 N   0  0  0  0  0  0  0  0  0  0  0  0
   -2.8537    0.0831    0.7714 H   0  0  0  0  0  0  0  0  0  0  0  0
   -1.2747    0.0681    1.5137 H   0  0  0  0  0  0  0  0  0  0  0  0
   -1.7457    2.1737    0.3719 H   0  0  0  0  0  0  0  0  0  0  0  0
   -2.0274    1.3660   -1.1578 H   0  0  0  0  0  0  0  0  0  0  0  0
   -2.0928   -1.3766   -1.0636 H   0  0  0  0  0  0  0  0  0  0  0  0
   -1.8708   -2.0881    0.5229 H   0  0  0  0  0  0  0  0  0  0  0  0
    0.1650    2.5802   -0.9123 H   0  0  0  0  0  0  0  0  0  0  0  0
    0.3204    0.9517   -1.5132 H   0  0  0  0  0  0  0  0  0  0  0  0
    0.2740   -1.1388   -1.4268 H   0  0  0  0  0  0  0  0  0  0  0  0
    0.0344   -2.6967   -0.6828 H   0  0  0  0  0  0  0  0  0  0  0  0
    4.2841   -0.5805   -0.6497 H   0  0  0  0  0  0  0  0  0  0  0  0
    3.8229   -1.9818    0.3185 H   0  0  0  0  0  0  0  0  0  0  0  0
    0.6608    1.3209    1.4760 H   0  0  0  0  0  0  0  0  0  0  0  0
    1.8805    2.0032    0.4105 H   0  0  0  0  0  0  0  0  0  0  0  0
    1.7441   -2.0881    0.6402 H   0  0  0  0  0  0  0  0  0  0  0  0
    0.5610   -1.2068    1.5853 H   0  0  0  0  0  0  0  0  0  0  0  0
    3.4680    0.9453    1.1254 H   0  0  0  0  0  0  0  0  0  0  0  0
    2.9509   -0.4243    2.1042 H   0  0  0  0  0  0  0  0  0  0  0  0
    5.7986    0.0034    1.1713 H   0  0  0  0  0  0  0  0  0  0  0  0
    6.0764   -1.5499    0.7804 H   0  0  0  0  0  0  0  0  0  0  0  0
  1 12  1  0  0  0  0
  1 13  1  0  0  0  0
  2 14  1  0  0  0  0
  2  1  1  0  0  0  0
  3 17  1  0  0  0  0
  3  1  1  0  0  0  0
  4  2  1  0  0  0  0
  4  7  1  0  0  0  0
  5  3  1  0  0  0  0
  5  8  1  0  0  0  0
  6  9  1  0  0  0  0
  6 10  1  0  0  0  0
  7 24  1  0  0  0  0
  8 26  1  0  0  0  0
  8 27  1  0  0  0  0
  9 28  1  0  0  0  0
  9 29  1  0  0  0  0
 11  7  1  0  0  0  0
 11  8  1  0  0  0  0
 11  9  1  0  0  0  0
 15  2  1  0  0  0  0
 16  3  1  0  0  0  0
 18  4  1  0  0  0  0
 19  4  1  0  0  0  0
 20  5  1  0  0  0  0
 21  5  1  0  0  0  0
 22  6  1  0  0  0  0
 23  6  1  0  0  0  0
 25  7  1  0  0  0  0
 30 10  1  0  0  0  0
 31 10  1  0  0  0  0
M  END
>  <HBA>
2

>  <HBD>
1

>  <TPSA>
29.26

>  <cid>
70776

>  <dipole>
0.95

>  <excitation_energy_1>
5.082

>  <excitation_energy_2>
5.327

>  <excitation_energy_3>
5.355

>  <excitation_energy_4>
5.482

>  <homo_energy>
-5.478

>  <homo_lumo_gap>
7.608

>  <logP>
1.849

>  <lumo_energy>
2.131

>  <melting_point>
50.91

>  <molecular_refractivity>
52.78

>  <oscillator_strength_1>
0.0013

>  <oscillator_strength_2>
0.0138

>  <oscillator_strength_3>
0.0311

>  <oscillator_strength_4>
0.0534

>  <open_babel_can_smiles>
NCCN1CCCCCCC1

>  <mulliken_charges>
31
1   -0.260231
2   -0.25724
3   -0.258305
4   -0.273539
5   -0.272215
6   -0.136973
7   -0.11915
8   -0.127918
9   -0.113393
10   -0.72059
11   -0.399749
12   0.128184
13   0.133895
14   0.128059
15   0.127274
16   0.127377
17   0.128688
18   0.130688
19   0.150679
20   0.151117
21   0.130655
22   0.122312
23   0.139433
24   0.113284
25   0.132991
26   0.138572
27   0.116097
28   0.121537
29   0.130584
30   0.291069
31   0.296808

>  <lowdin_charges>
31
1   -0.28269
2   -0.279896
3   -0.280274
4   -0.290647
5   -0.289565
6   -0.208613
7   -0.200738
8   -0.20207
9   -0.20153
10   -0.561133
11   -0.193499
12   0.142613
13   0.137813
14   0.140741
15   0.140334
16   0.140351
17   0.141369
18   0.144172
19   0.150128
20   0.149802
21   0.143454
22   0.121096
23   0.139085
24   0.11705
25   0.144659
26   0.147644
27   0.118731
28   0.137341
29   0.127634
30   0.249693
31   0.256944

$$$$

