PCCDB-ID:  70598
public computational chemistry database (PCCDB) project, http://pccdb.org

 17 16  0  0  0  0  0  0  0  0999 V2000
    1.0126   -0.3310   -0.1074 C   0  0  0  0  0  0  0  0  0  0  0  0
    2.8864    1.9442   -0.6556 C   0  0  0  0  0  0  0  0  0  0  0  0
    2.8111    0.5305    1.9790 C   0  0  0  0  0  0  0  0  0  0  0  0
    0.7514   -1.5193    0.6093 O   0  0  0  0  0  0  0  0  0  0  0  0
    4.2475    2.3313   -0.5949 O   0  0  0  0  0  0  0  0  0  0  0  0
    2.7062   -0.7525    2.6096 O   0  0  0  0  0  0  0  0  0  0  0  0
    3.8650   -0.6253   -0.3083 O   0  0  0  0  0  0  0  0  0  0  0  0
    2.7438    0.2775    0.1447 P   0  0  0  0  0  0  0  0  0  0  0  0
    0.3194    0.4895    0.1599 H   0  0  0  0  0  0  0  0  0  0  0  0
    0.8672   -0.5445   -1.1725 H   0  0  0  0  0  0  0  0  0  0  0  0
    2.5079    1.8800   -1.6893 H   0  0  0  0  0  0  0  0  0  0  0  0
    2.3001    2.7066   -0.1316 H   0  0  0  0  0  0  0  0  0  0  0  0
    3.7423    1.0453    2.2505 H   0  0  0  0  0  0  0  0  0  0  0  0
    1.9684    1.1275    2.3420 H   0  0  0  0  0  0  0  0  0  0  0  0
    1.1580   -1.4360    1.4936 H   0  0  0  0  0  0  0  0  0  0  0  0
    4.7657    1.5676   -0.9095 H   0  0  0  0  0  0  0  0  0  0  0  0
    3.4338   -1.2991    2.2604 H   0  0  0  0  0  0  0  0  0  0  0  0
  1  8  1  0  0  0  0
  1  9  1  0  0  0  0
  1  4  1  0  0  0  0
  2  5  1  0  0  0  0
  2 12  1  0  0  0  0
  2  8  1  0  0  0  0
  3 13  1  0  0  0  0
  3 14  1  0  0  0  0
  3  6  1  0  0  0  0
  4 15  1  0  0  0  0
  7  8  2  0  0  0  0
  8  3  1  0  0  0  0
 10  1  1  0  0  0  0
 11  2  1  0  0  0  0
 16  5  1  0  0  0  0
 17  6  1  0  0  0  0
M  END
>  <HBA>
4

>  <HBD>
3

>  <TPSA>
87.57

>  <cid>
70598

>  <dipole>
2.9

>  <excitation_energy_1>
5.802

>  <excitation_energy_2>
6.078

>  <excitation_energy_3>
6.225

>  <excitation_energy_4>
6.437

>  <homo_energy>
-7.021

>  <homo_lumo_gap>
7.513

>  <logP>
-0.801

>  <lumo_energy>
0.493

>  <melting_point>
42.02

>  <molecular_refractivity>
28.68

>  <oscillator_strength_1>
0.0101

>  <oscillator_strength_2>
0.0008

>  <oscillator_strength_3>
0.0088

>  <oscillator_strength_4>
0.0111

>  <open_babel_can_smiles>
OCP(=O)(CO)CO

>  <mulliken_charges>
17
1   -0.210837
2   -0.226216
3   -0.233836
4   -0.622747
5   -0.605829
6   -0.61738
7   -0.584999
8   0.810282
9   0.141001
10   0.182171
11   0.162752
12   0.171328
13   0.187123
14   0.175326
15   0.420644
16   0.421216
17   0.430003

>  <lowdin_charges>
17
1   -0.299305
2   -0.305974
3   -0.311104
4   -0.459166
5   -0.45528
6   -0.454017
7   -0.634932
8   0.853769
9   0.146887
10   0.17287
11   0.157752
12   0.170595
13   0.172002
14   0.171872
15   0.347587
16   0.360031
17   0.366413

$$$$

