PCCDB-ID:  20686
public computational chemistry database (PCCDB) project, http://pccdb.org

 16 15  0  0  1  0  0  0  0  0999 V2000
    2.9503    1.0695   -1.0038 C   0  0  0  0  0  0  0  0  0  0  0  0
    2.6420   -2.5412    0.5721 C   0  0  0  0  0  0  0  0  0  0  0  0
    3.1061   -1.3985   -0.3554 C   0  0  0  0  0  0  0  0  0  0  0  0
    1.1925   -2.7573    0.5082 C   0  0  0  0  0  0  0  0  0  0  0  0
    2.9597    0.3675    1.3742 C   0  0  0  0  0  0  0  0  0  0  0  0
    2.5355   -0.0096    0.0158 C   0  0  1  0  0  0  0  0  0  0  0  0
    0.0428   -2.8997    0.4333 N   0  0  0  0  0  0  0  0  0  0  0  0
    3.3162    0.6440    2.4442 N   0  0  0  0  0  0  0  0  0  0  0  0
    2.5705    0.8044   -1.9958 H   0  0  0  0  0  0  0  0  0  0  0  0
    4.0403    1.1563   -1.0607 H   0  0  0  0  0  0  0  0  0  0  0  0
    2.5431    2.0463   -0.7284 H   0  0  0  0  0  0  0  0  0  0  0  0
    2.9204   -2.3259    1.6111 H   0  0  0  0  0  0  0  0  0  0  0  0
    3.1460   -3.4735    0.2921 H   0  0  0  0  0  0  0  0  0  0  0  0
    2.8096   -1.6218   -1.3861 H   0  0  0  0  0  0  0  0  0  0  0  0
    4.2009   -1.3589   -0.3308 H   0  0  0  0  0  0  0  0  0  0  0  0
    1.4392   -0.0796    0.0283 H   0  0  0  0  0  0  0  0  0  0  0  0
  1 11  1  0  0  0  0
  1  6  1  0  0  0  0
  2 12  1  0  0  0  0
  3 15  1  0  0  0  0
  3  6  1  0  0  0  0
  3  2  1  0  0  0  0
  4  2  1  0  0  0  0
  5  8  3  0  0  0  0
  6 16  1  6  0  0  0
  6  5  1  0  0  0  0
  7  4  3  0  0  0  0
  9  1  1  0  0  0  0
 10  1  1  0  0  0  0
 13  2  1  0  0  0  0
 14  3  1  0  0  0  0
M  END
>  <HBA>
2

>  <HBD>
0

>  <TPSA>
47.58

>  <cid>
20686

>  <dipole>
4.4

>  <excitation_energy_1>
7.52

>  <excitation_energy_2>
7.544

>  <excitation_energy_3>
7.726

>  <excitation_energy_4>
7.754

>  <homo_energy>
-8.92

>  <homo_lumo_gap>
9.331

>  <logP>
1.45

>  <lumo_energy>
0.411

>  <melting_point>
41.24

>  <molecular_refractivity>
30.45

>  <oscillator_strength_1>
0.0006

>  <oscillator_strength_2>
0.0018

>  <oscillator_strength_3>
0.0332

>  <oscillator_strength_4>
0.0038

>  <open_babel_can_smiles>
N#CCC[C@@H](C#N)C

>  <mulliken_charges>
16
1   -0.448341
2   -0.359246
3   -0.264706
4   0.353204
5   0.351261
6   -0.174544
7   -0.464431
8   -0.471148
9   0.16458
10   0.167929
11   0.176994
12   0.219589
13   0.201932
14   0.170749
15   0.169409
16   0.206769

>  <lowdin_charges>
16
1   -0.429087
2   -0.275446
3   -0.255075
4   -0.022122
5   -0.021409
6   -0.124655
7   -0.12198
8   -0.125109
9   0.161018
10   0.160049
11   0.168617
12   0.192035
13   0.188247
14   0.162058
15   0.16081
16   0.182047

$$$$

