PCCDB-ID:  27869
public computational chemistry database (PCCDB) project, http://pccdb.org

 32 32  0  0  1  0  0  0  0  0999 V2000
    1.2889    0.4404    0.0809 C   0  0  0  0  0  0  0  0  0  0  0  0
    3.1107    4.0003   -1.9230 C   0  0  0  0  0  0  0  0  0  0  0  0
    4.3901    1.8984   -0.3811 C   0  0  0  0  0  0  0  0  0  0  0  0
    2.5531   -4.7378   -1.1812 C   0  0  0  0  0  0  0  0  0  0  0  0
    3.7034   -3.9522   -1.2851 C   0  0  0  0  0  0  0  0  0  0  0  0
    1.3026   -4.1572   -1.3955 C   0  0  0  0  0  0  0  0  0  0  0  0
    3.5949   -2.5974   -1.5961 C   0  0  0  0  0  0  0  0  0  0  0  0
    1.1962   -2.7994   -1.7062 C   0  0  0  0  0  0  0  0  0  0  0  0
    2.5187    0.3273   -0.8252 C   0  0  1  0  0  0  0  0  0  0  0  0
    2.4942    2.6111   -1.8216 C   0  0  0  0  0  0  0  0  0  0  0  0
    2.3428   -2.0038   -1.8039 C   0  0  0  0  0  0  0  0  0  0  0  0
    2.2489   -0.5167   -2.1202 C   0  0  1  0  0  0  0  0  0  0  0  0
    3.1365    1.6582   -1.0896 N   0  0  0  0  0  0  0  0  0  0  0  0
    1.4296    2.3884   -2.4146 O   0  0  0  0  0  0  0  0  0  0  0  0
    0.9940   -0.2566   -2.6998 O   0  0  0  0  0  0  0  0  0  0  0  0
    0.9118   -0.5592    0.3173 H   0  0  0  0  0  0  0  0  0  0  0  0
    0.4902    1.0013   -0.4063 H   0  0  0  0  0  0  0  0  0  0  0  0
    1.5519    0.9413    1.0192 H   0  0  0  0  0  0  0  0  0  0  0  0
    3.2633    4.4621   -0.9415 H   0  0  0  0  0  0  0  0  0  0  0  0
    2.4205    4.6139   -2.5024 H   0  0  0  0  0  0  0  0  0  0  0  0
    4.0772    3.9773   -2.4394 H   0  0  0  0  0  0  0  0  0  0  0  0
    5.1251    1.1299   -0.6482 H   0  0  0  0  0  0  0  0  0  0  0  0
    4.2410    1.8633    0.7065 H   0  0  0  0  0  0  0  0  0  0  0  0
    4.8122    2.8687   -0.6363 H   0  0  0  0  0  0  0  0  0  0  0  0
    2.6338   -5.7950   -0.9424 H   0  0  0  0  0  0  0  0  0  0  0  0
    4.6842   -4.3959   -1.1337 H   0  0  0  0  0  0  0  0  0  0  0  0
    0.4031   -4.7638   -1.3251 H   0  0  0  0  0  0  0  0  0  0  0  0
    4.4978   -1.9959   -1.6915 H   0  0  0  0  0  0  0  0  0  0  0  0
    0.2293   -2.3455   -1.8924 H   0  0  0  0  0  0  0  0  0  0  0  0
    3.2959   -0.2138   -0.2781 H   0  0  0  0  0  0  0  0  0  0  0  0
    3.0663   -0.2718   -2.8223 H   0  0  0  0  0  0  0  0  0  0  0  0
    0.9308    0.7217   -2.7563 H   0  0  0  0  0  0  0  0  0  0  0  0
  1 16  1  0  0  0  0
  1 18  1  0  0  0  0
  2 10  1  0  0  0  0
  2 19  1  0  0  0  0
  3 23  1  0  0  0  0
  4 25  1  0  0  0  0
  5  4  1  0  0  0  0
  5 26  1  0  0  0  0
  6 27  1  0  0  0  0
  6  4  2  0  0  0  0
  7  5  2  0  0  0  0
  8  6  1  0  0  0  0
  9 30  1  1  0  0  0
  9  1  1  0  0  0  0
 10 13  1  0  0  0  0
 11  8  2  0  0  0  0
 11  7  1  0  0  0  0
 12 31  1  6  0  0  0
 12 11  1  0  0  0  0
 12  9  1  0  0  0  0
 13  9  1  0  0  0  0
 13  3  1  0  0  0  0
 14 10  2  0  0  0  0
 15 12  1  0  0  0  0
 17  1  1  0  0  0  0
 20  2  1  0  0  0  0
 21  2  1  0  0  0  0
 22  3  1  0  0  0  0
 24  3  1  0  0  0  0
 28  7  1  0  0  0  0
 29  8  1  0  0  0  0
 32 15  1  0  0  0  0
M  END
>  <HBA>
3

>  <HBD>
1

>  <TPSA>
40.54

>  <cid>
27869

>  <dipole>
5.08

>  <excitation_energy_1>
5.259

>  <excitation_energy_2>
5.616

>  <excitation_energy_3>
5.646

>  <excitation_energy_4>
5.663

>  <homo_energy>
-6.253

>  <homo_lumo_gap>
6.329

>  <logP>
1.587

>  <lumo_energy>
0.076

>  <melting_point>
46.47

>  <molecular_refractivity>
59.7

>  <oscillator_strength_1>
0.002

>  <oscillator_strength_2>
0.0564

>  <oscillator_strength_3>
0.0192

>  <oscillator_strength_4>
0.0042

>  <open_babel_can_smiles>
O[C@@H]([C@@H](N(C(=O)C)C)C)c1ccccc1

>  <mulliken_charges>
32
1   -0.442449
2   -0.552324
3   -0.327807
4   -0.12817
5   -0.132866
6   -0.133512
7   -0.179705
8   -0.168531
9   -0.020476
10   0.601944
11   0.121999
12   0.101205
13   -0.401332
14   -0.544363
15   -0.666866
16   0.163176
17   0.178197
18   0.134285
19   0.17073
20   0.194085
21   0.174567
22   0.168746
23   0.16719
24   0.172891
25   0.125433
26   0.124579
27   0.127928
28   0.112128
29   0.15859
30   0.146209
31   0.11845
32   0.436069

>  <lowdin_charges>
32
1   -0.452057
2   -0.471965
3   -0.352263
4   -0.159187
5   -0.158367
6   -0.156459
7   -0.174175
8   -0.157814
9   -0.071178
10   0.169997
11   -0.011323
12   -0.002829
13   -0.099492
14   -0.332571
15   -0.470639
16   0.164285
17   0.168865
18   0.14676
19   0.166957
20   0.183409
21   0.169721
22   0.156671
23   0.151245
24   0.166959
25   0.154079
26   0.1548
27   0.157019
28   0.148365
29   0.173324
30   0.157128
31   0.132106
32   0.348631

$$$$

