PCCDB-ID:  18663
public computational chemistry database (PCCDB) project, http://pccdb.org

 28 28  0  0  1  0  0  0  0  0999 V2000
    1.3009    0.1606    0.1439 C   0  0  0  0  0  0  0  0  0  0  0  0
    2.6496   -1.3955   -2.1697 C   0  0  0  0  0  0  0  0  0  0  0  0
    3.8119   -2.8130   -0.4527 C   0  0  0  0  0  0  0  0  0  0  0  0
    3.1473   -1.7197    4.4760 C   0  0  0  0  0  0  0  0  0  0  0  0
    2.0568   -2.2395    3.7752 C   0  0  0  0  0  0  0  0  0  0  0  0
    4.0523   -0.8899    3.8146 C   0  0  0  0  0  0  0  0  0  0  0  0
    1.8685   -1.9315    2.4276 C   0  0  0  0  0  0  0  0  0  0  0  0
    3.8633   -0.5867    2.4646 C   0  0  0  0  0  0  0  0  0  0  0  0
    2.5722   -0.7022    0.2883 C   0  0  1  0  0  0  0  0  0  0  0  0
    2.7740   -1.1000    1.7476 C   0  0  0  0  0  0  0  0  0  0  0  0
    2.6057   -1.8976   -0.7153 C   0  0  0  0  0  0  0  0  0  0  0  0
    1.3859   -2.6352   -0.5120 O   0  0  0  0  0  0  0  0  0  0  0  0
    1.3253    0.9845    0.8646 H   0  0  0  0  0  0  0  0  0  0  0  0
    0.4027   -0.4332    0.3336 H   0  0  0  0  0  0  0  0  0  0  0  0
    1.2152    0.5954   -0.8571 H   0  0  0  0  0  0  0  0  0  0  0  0
    3.5318   -0.7713   -2.3546 H   0  0  0  0  0  0  0  0  0  0  0  0
    1.7548   -0.8195   -2.4189 H   0  0  0  0  0  0  0  0  0  0  0  0
    2.6997   -2.2482   -2.8591 H   0  0  0  0  0  0  0  0  0  0  0  0
    4.7565   -2.2644   -0.5457 H   0  0  0  0  0  0  0  0  0  0  0  0
    3.8328   -3.6303   -1.1860 H   0  0  0  0  0  0  0  0  0  0  0  0
    3.7637   -3.2476    0.5485 H   0  0  0  0  0  0  0  0  0  0  0  0
    3.2888   -1.9588    5.5269 H   0  0  0  0  0  0  0  0  0  0  0  0
    1.3457   -2.8885    4.2808 H   0  0  0  0  0  0  0  0  0  0  0  0
    4.9063   -0.4774    4.3461 H   0  0  0  0  0  0  0  0  0  0  0  0
    1.0260   -2.3511    1.8888 H   0  0  0  0  0  0  0  0  0  0  0  0
    4.5744    0.0639    1.9588 H   0  0  0  0  0  0  0  0  0  0  0  0
    3.4307   -0.0740    0.0133 H   0  0  0  0  0  0  0  0  0  0  0  0
    1.4348   -3.4340   -1.0607 H   0  0  0  0  0  0  0  0  0  0  0  0
  1  9  1  0  0  0  0
  1 14  1  0  0  0  0
  1 13  1  0  0  0  0
  2 11  1  0  0  0  0
  3 21  1  0  0  0  0
  4 22  1  0  0  0  0
  5 23  1  0  0  0  0
  5  4  2  0  0  0  0
  6 24  1  0  0  0  0
  6  4  1  0  0  0  0
  7  5  1  0  0  0  0
  8  6  2  0  0  0  0
  9 27  1  6  0  0  0
  9 10  1  0  0  0  0
 10  7  2  0  0  0  0
 10  8  1  0  0  0  0
 11 12  1  0  0  0  0
 11  3  1  0  0  0  0
 11  9  1  0  0  0  0
 15  1  1  0  0  0  0
 16  2  1  0  0  0  0
 17  2  1  0  0  0  0
 18  2  1  0  0  0  0
 19  3  1  0  0  0  0
 20  3  1  0  0  0  0
 25  7  1  0  0  0  0
 26  8  1  0  0  0  0
 28 12  1  0  0  0  0
M  END
>  <HBA>
1

>  <HBD>
1

>  <TPSA>
20.23

>  <cid>
18663

>  <dipole>
1.62

>  <excitation_energy_1>
5.302

>  <excitation_energy_2>
5.777

>  <excitation_energy_3>
5.921

>  <excitation_energy_4>
6.003

>  <homo_energy>
-6.305

>  <homo_lumo_gap>
6.539

>  <logP>
2.561

>  <lumo_energy>
0.234

>  <melting_point>
34.13

>  <molecular_refractivity>
51.84

>  <oscillator_strength_1>
0.0002

>  <oscillator_strength_2>
0.0065

>  <oscillator_strength_3>
0.0182

>  <oscillator_strength_4>
0.0057

>  <open_babel_can_smiles>
C[C@H](C(O)(C)C)c1ccccc1

>  <mulliken_charges>
28
1   -0.451556
2   -0.458587
3   -0.466732
4   -0.130778
5   -0.13201
6   -0.127198
7   -0.178518
8   -0.195304
9   -0.160286
10   0.152402
11   0.311841
12   -0.637889
13   0.146326
14   0.169599
15   0.138736
16   0.140761
17   0.159269
18   0.129421
19   0.142329
20   0.12508
21   0.172225
22   0.12395
23   0.124708
24   0.123911
25   0.152934
26   0.11786
27   0.121393
28   0.386113

>  <lowdin_charges>
28
1   -0.443528
2   -0.459707
3   -0.460154
4   -0.161466
5   -0.159432
6   -0.160205
7   -0.165869
8   -0.174254
9   -0.125534
10   -0.000461
11   0.125242
12   -0.462414
13   0.153362
14   0.1613
15   0.146394
16   0.151612
17   0.157936
18   0.145007
19   0.153205
20   0.142298
21   0.164886
22   0.153401
23   0.156156
24   0.155677
25   0.16938
26   0.151952
27   0.143995
28   0.341219

$$$$

