PCCDB-ID:  47515
public computational chemistry database (PCCDB) project, http://pccdb.org

 37 39  0  0  1  0  0  0  0  0999 V2000
    1.1786   -0.5647   -0.4225 C   0  0  0  0  0  0  0  0  0  0  0  0
    1.9604    7.2656    4.8264 C   0  0  0  0  0  0  0  0  0  0  0  0
    2.2589    7.2265    3.4631 C   0  0  0  0  0  0  0  0  0  0  0  0
    1.8324    6.0583    5.5157 C   0  0  0  0  0  0  0  0  0  0  0  0
    2.4267    6.0157    2.7966 C   0  0  0  0  0  0  0  0  0  0  0  0
    1.9922    4.8373    4.8658 C   0  0  0  0  0  0  0  0  0  0  0  0
    3.1118   -0.8648    1.2331 C   0  0  0  0  0  0  0  0  0  0  0  0
    2.5746   -0.1568    2.4962 C   0  0  0  0  0  0  0  0  0  0  0  0
    2.9113    1.3024   -0.1122 C   0  0  0  0  0  0  0  0  0  0  0  0
    2.4311    2.2848    3.5079 C   0  0  0  0  0  0  0  0  0  0  0  0
    2.5860    3.4576    1.3790 C   0  0  0  0  0  0  0  0  0  0  0  0
    2.6448   -0.2267   -0.1001 C   0  0  2  0  0  0  0  0  0  0  0  0
    2.9202    1.3285    2.4163 C   0  0  2  0  0  0  0  0  0  0  0  0
    2.3414    1.9631    1.1423 C   0  0  2  0  0  0  0  0  0  0  0  0
    2.2940    4.7885    3.4856 C   0  0  0  0  0  0  0  0  0  0  0  0
    2.4566    3.5832    2.8328 N   0  0  0  0  0  0  0  0  0  0  0  0
    1.0357   -1.6504   -0.4795 H   0  0  0  0  0  0  0  0  0  0  0  0
    0.8826   -0.1383   -1.3885 H   0  0  0  0  0  0  0  0  0  0  0  0
    0.4820   -0.1832    0.3320 H   0  0  0  0  0  0  0  0  0  0  0  0
    1.8316    8.2141    5.3394 H   0  0  0  0  0  0  0  0  0  0  0  0
    2.3683    8.1531    2.9042 H   0  0  0  0  0  0  0  0  0  0  0  0
    1.5988    6.0611    6.5779 H   0  0  0  0  0  0  0  0  0  0  0  0
    2.6773    6.0196    1.7411 H   0  0  0  0  0  0  0  0  0  0  0  0
    1.8723    3.9165    5.4266 H   0  0  0  0  0  0  0  0  0  0  0  0
    2.8315   -1.9260    1.2480 H   0  0  0  0  0  0  0  0  0  0  0  0
    4.2104   -0.8363    1.2682 H   0  0  0  0  0  0  0  0  0  0  0  0
    3.0093   -0.6207    3.3912 H   0  0  0  0  0  0  0  0  0  0  0  0
    1.4856   -0.2814    2.5768 H   0  0  0  0  0  0  0  0  0  0  0  0
    2.4880    1.7450   -1.0241 H   0  0  0  0  0  0  0  0  0  0  0  0
    3.9958    1.4825   -0.1488 H   0  0  0  0  0  0  0  0  0  0  0  0
    3.0841    2.2853    4.3901 H   0  0  0  0  0  0  0  0  0  0  0  0
    1.4151    2.0198    3.8497 H   0  0  0  0  0  0  0  0  0  0  0  0
    1.8515    4.0885    0.8617 H   0  0  0  0  0  0  0  0  0  0  0  0
    3.5874    3.7634    1.0301 H   0  0  0  0  0  0  0  0  0  0  0  0
    3.2535   -0.6695   -0.9009 H   0  0  0  0  0  0  0  0  0  0  0  0
    4.0172    1.4225    2.3622 H   0  0  0  0  0  0  0  0  0  0  0  0
    1.2524    1.8075    1.1631 H   0  0  0  0  0  0  0  0  0  0  0  0
  1 12  1  0  0  0  0
  1 19  1  0  0  0  0
  2 20  1  0  0  0  0
  2  4  2  0  0  0  0
  3  2  1  0  0  0  0
  4 22  1  0  0  0  0
  5  3  2  0  0  0  0
  5 15  1  0  0  0  0
  6 24  1  0  0  0  0
  6  4  1  0  0  0  0
  7 25  1  0  0  0  0
  7 26  1  0  0  0  0
  7  8  1  0  0  0  0
  8 28  1  0  0  0  0
  8 27  1  0  0  0  0
  9 12  1  0  0  0  0
  9 14  1  0  0  0  0
 10 32  1  0  0  0  0
 10 31  1  0  0  0  0
 11 16  1  0  0  0  0
 12 35  1  6  0  0  0
 12  7  1  0  0  0  0
 13 36  1  6  0  0  0
 13  8  1  0  0  0  0
 13 10  1  0  0  0  0
 14 37  1  1  0  0  0
 14 11  1  0  0  0  0
 14 13  1  0  0  0  0
 15  6  2  0  0  0  0
 16 15  1  0  0  0  0
 16 10  1  0  0  0  0
 17  1  1  0  0  0  0
 18  1  1  0  0  0  0
 21  3  1  0  0  0  0
 23  5  1  0  0  0  0
 29  9  1  0  0  0  0
 30  9  1  0  0  0  0
 33 11  1  0  0  0  0
 34 11  1  0  0  0  0
M  END
>  <HBA>
1

>  <HBD>
0

>  <TPSA>
3.24

>  <cid>
47515

>  <dipole>
2.71

>  <excitation_energy_1>
4.362

>  <excitation_energy_2>
4.408

>  <excitation_energy_3>
4.674

>  <excitation_energy_4>
4.779

>  <homo_energy>
-4.811

>  <homo_lumo_gap>
5.276

>  <logP>
3.624

>  <lumo_energy>
0.465

>  <melting_point>
53.17

>  <molecular_refractivity>
73.0

>  <oscillator_strength_1>
0.0189

>  <oscillator_strength_2>
0.0392

>  <oscillator_strength_3>
0.0125

>  <oscillator_strength_4>
0.0282

>  <open_babel_can_smiles>
C[C@@H]1CC[C@H]2[C@H](C1)CN(C2)c1ccccc1

>  <mulliken_charges>
37
1   -0.452755
2   -0.139762
3   -0.136228
4   -0.136375
5   -0.195842
6   -0.196762
7   -0.267483
8   -0.269823
9   -0.269405
10   -0.106349
11   -0.10595
12   -0.076085
13   -0.114298
14   -0.122396
15   0.373753
16   -0.537564
17   0.142845
18   0.142641
19   0.146602
20   0.11465
21   0.118951
22   0.118966
23   0.120825
24   0.120613
25   0.131793
26   0.130279
27   0.134428
28   0.132709
29   0.130953
30   0.12787
31   0.144355
32   0.131521
33   0.143761
34   0.132826
35   0.123453
36   0.128832
37   0.134453

>  <lowdin_charges>
37
1   -0.449017
2   -0.196161
3   -0.148629
4   -0.145694
5   -0.211029
6   -0.214148
7   -0.274452
8   -0.276906
9   -0.27703
10   -0.192242
11   -0.193098
12   -0.125286
13   -0.131591
14   -0.133136
15   0.058558
16   -0.124681
17   0.147823
18   0.149145
19   0.147187
20   0.152155
21   0.153108
22   0.151041
23   0.153691
24   0.15563
25   0.142911
26   0.138584
27   0.146354
28   0.138488
29   0.14388
30   0.138782
31   0.146244
32   0.131361
33   0.146904
34   0.132471
35   0.142317
36   0.136967
37   0.139497

$$$$

