PCCDB-ID:  44524
public computational chemistry database (PCCDB) project, http://pccdb.org

 29 29  0  0  0  0  0  0  0  0999 V2000
    8.5866   -1.8155   -0.4946 C   0  0  0  0  0  0  0  0  0  0  0  0
    7.8414   -2.7363   -2.5761 C   0  0  0  0  0  0  0  0  0  0  0  0
    3.6772   -1.7078   -1.2454 C   0  0  0  0  0  0  0  0  0  0  0  0
    5.0742   -1.5864   -1.8760 C   0  0  0  0  0  0  0  0  0  0  0  0
    0.0344   -0.9923    1.4780 C   0  0  0  0  0  0  0  0  0  0  0  0
    3.3991   -0.6997   -0.1090 C   0  0  0  0  0  0  0  0  0  0  0  0
    1.4571   -1.1297    1.6102 C   0  0  0  0  0  0  0  0  0  0  0  0
    6.2188   -1.9723   -0.9305 C   0  0  0  0  0  0  0  0  0  0  0  0
   -0.1834   -0.5570    0.2088 C   0  0  0  0  0  0  0  0  0  0  0  0
    2.0026   -0.7672    0.4131 C   0  0  0  0  0  0  0  0  0  0  0  0
    7.5475   -1.7820   -1.5151 N   0  0  0  0  0  0  0  0  0  0  0  0
    1.0012   -0.4139   -0.4559 O   0  0  0  0  0  0  0  0  0  0  0  0
    9.5591   -1.6031   -0.9524 H   0  0  0  0  0  0  0  0  0  0  0  0
    8.6631   -2.7918    0.0259 H   0  0  0  0  0  0  0  0  0  0  0  0
    8.3930   -1.0453    0.2604 H   0  0  0  0  0  0  0  0  0  0  0  0
    8.8334   -2.5266   -2.9912 H   0  0  0  0  0  0  0  0  0  0  0  0
    7.1171   -2.6431   -3.3898 H   0  0  0  0  0  0  0  0  0  0  0  0
    7.8336   -3.7891   -2.2270 H   0  0  0  0  0  0  0  0  0  0  0  0
    3.5261   -2.7269   -0.8636 H   0  0  0  0  0  0  0  0  0  0  0  0
    2.9231   -1.5572   -2.0269 H   0  0  0  0  0  0  0  0  0  0  0  0
    5.2423   -0.5591   -2.2258 H   0  0  0  0  0  0  0  0  0  0  0  0
    5.0977   -2.2259   -2.7667 H   0  0  0  0  0  0  0  0  0  0  0  0
   -0.7174   -1.1897    2.2296 H   0  0  0  0  0  0  0  0  0  0  0  0
    3.6071    0.3157   -0.4769 H   0  0  0  0  0  0  0  0  0  0  0  0
    4.0761   -0.8709    0.7351 H   0  0  0  0  0  0  0  0  0  0  0  0
    2.0035   -1.4552    2.4850 H   0  0  0  0  0  0  0  0  0  0  0  0
    6.0733   -3.0172   -0.5810 H   0  0  0  0  0  0  0  0  0  0  0  0
    6.1729   -1.3397   -0.0364 H   0  0  0  0  0  0  0  0  0  0  0  0
   -1.0696   -0.3089   -0.3553 H   0  0  0  0  0  0  0  0  0  0  0  0
  1 14  1  0  0  0  0
  1 15  1  0  0  0  0
  2 18  1  0  0  0  0
  2 11  1  0  0  0  0
  3 19  1  0  0  0  0
  3  6  1  0  0  0  0
  4  3  1  0  0  0  0
  4  8  1  0  0  0  0
  5  7  1  0  0  0  0
  5 23  1  0  0  0  0
  6 10  1  0  0  0  0
  6 25  1  0  0  0  0
  7 26  1  0  0  0  0
  8 27  1  0  0  0  0
  8 28  1  0  0  0  0
  9  5  2  0  0  0  0
 10  7  2  0  0  0  0
 11  8  1  0  0  0  0
 11  1  1  0  0  0  0
 12  9  1  0  0  0  0
 12 10  1  0  0  0  0
 13  1  1  0  0  0  0
 16  2  1  0  0  0  0
 17  2  1  0  0  0  0
 20  3  1  0  0  0  0
 21  4  1  0  0  0  0
 22  4  1  0  0  0  0
 24  6  1  0  0  0  0
 29  9  1  0  0  0  0
M  END
>  <HBA>
2

>  <HBD>
0

>  <TPSA>
16.38

>  <cid>
44524

>  <dipole>
0.89

>  <excitation_energy_1>
5.273

>  <excitation_energy_2>
5.418

>  <excitation_energy_3>
5.589

>  <excitation_energy_4>
5.613

>  <homo_energy>
-5.676

>  <homo_lumo_gap>
6.286

>  <logP>
2.164

>  <lumo_energy>
0.61

>  <melting_point>
5.7

>  <molecular_refractivity>
50.6

>  <oscillator_strength_1>
0.0218

>  <oscillator_strength_2>
0.0095

>  <oscillator_strength_3>
0.0103

>  <oscillator_strength_4>
0.0029

>  <open_babel_can_smiles>
CN(CCCCc1ccco1)C

>  <mulliken_charges>
29
1   -0.293415
2   -0.301009
3   -0.263822
4   -0.267035
5   -0.182103
6   -0.348253
7   -0.210896
8   -0.10967
9   0.079686
10   0.348585
11   -0.367926
12   -0.440795
13   0.146926
14   0.1154
15   0.147164
16   0.147652
17   0.153858
18   0.1149
19   0.136837
20   0.151497
21   0.143196
22   0.135877
23   0.13681
24   0.154721
25   0.151946
26   0.131478
27   0.104749
28   0.134519
29   0.149119

>  <lowdin_charges>
29
1   -0.356431
2   -0.356764
3   -0.274647
4   -0.281691
5   -0.207963
6   -0.276615
7   -0.225858
8   -0.199831
9   -0.087238
10   0.067191
11   -0.183592
12   -0.107063
13   0.14856
14   0.118527
15   0.148998
16   0.149565
17   0.151267
18   0.117204
19   0.14268
20   0.153207
21   0.14606
22   0.145077
23   0.167931
24   0.155671
25   0.156993
26   0.165503
27   0.112165
28   0.142056
29   0.169038

$$$$

