PCCDB-ID:  10312
public computational chemistry database (PCCDB) project, http://pccdb.org

 18 18  0  0  0  0  0  0  0  0999 V2000
    1.1003    0.3222    0.3789 C   0  0  0  0  0  0  0  0  0  0  0  0
    4.1730    1.7302   -3.5310 C   0  0  0  0  0  0  0  0  0  0  0  0
    4.5750    0.4970   -3.0161 C   0  0  0  0  0  0  0  0  0  0  0  0
    3.1996    2.4740   -2.8603 C   0  0  0  0  0  0  0  0  0  0  0  0
    4.0074    0.0092   -1.8392 C   0  0  0  0  0  0  0  0  0  0  0  0
    2.6338    1.9878   -1.6834 C   0  0  0  0  0  0  0  0  0  0  0  0
    3.2998   -0.4433    1.0939 C   0  0  0  0  0  0  0  0  0  0  0  0
    2.4082    0.2188    0.0866 C   0  0  0  0  0  0  0  0  0  0  0  0
    3.0230    0.7446   -1.1568 C   0  0  0  0  0  0  0  0  0  0  0  0
    2.9114   -0.9600    2.1226 O   0  0  0  0  0  0  0  0  0  0  0  0
    0.7275   -0.0659    1.3221 H   0  0  0  0  0  0  0  0  0  0  0  0
    0.3883    0.7733   -0.3054 H   0  0  0  0  0  0  0  0  0  0  0  0
    4.6187    2.1119   -4.4455 H   0  0  0  0  0  0  0  0  0  0  0  0
    5.3283   -0.0907   -3.5339 H   0  0  0  0  0  0  0  0  0  0  0  0
    2.8861    3.4387   -3.2501 H   0  0  0  0  0  0  0  0  0  0  0  0
    4.3114   -0.9647   -1.4644 H   0  0  0  0  0  0  0  0  0  0  0  0
    1.8970    2.5825   -1.1503 H   0  0  0  0  0  0  0  0  0  0  0  0
    4.3825   -0.4202    0.8490 H   0  0  0  0  0  0  0  0  0  0  0  0
  1 11  1  0  0  0  0
  2  3  2  0  0  0  0
  2  4  1  0  0  0  0
  3  5  1  0  0  0  0
  4  6  2  0  0  0  0
  5 16  1  0  0  0  0
  5  9  2  0  0  0  0
  6  9  1  0  0  0  0
  6 17  1  0  0  0  0
  7 10  2  0  0  0  0
  8  1  2  0  0  0  0
  8  7  1  0  0  0  0
  9  8  1  0  0  0  0
 12  1  1  0  0  0  0
 13  2  1  0  0  0  0
 14  3  1  0  0  0  0
 15  4  1  0  0  0  0
 18  7  1  0  0  0  0
M  END
>  <HBA>
1

>  <HBD>
0

>  <TPSA>
17.07

>  <cid>
10312

>  <dipole>
3.0

>  <excitation_energy_1>
3.477

>  <excitation_energy_2>
4.116

>  <excitation_energy_3>
4.317

>  <excitation_energy_4>
5.24

>  <homo_energy>
-6.599

>  <homo_lumo_gap>
4.702

>  <logP>
1.899

>  <lumo_energy>
-1.897

>  <melting_point>
20.02

>  <molecular_refractivity>
41.54

>  <oscillator_strength_1>
0.002

>  <oscillator_strength_2>
0.0766

>  <oscillator_strength_3>
0.0027

>  <oscillator_strength_4>
0.0021

>  <open_babel_can_smiles>
O=CC(=C)c1ccccc1

>  <mulliken_charges>
18
1   -0.358397
2   -0.12486
3   -0.132515
4   -0.131748
5   -0.17598
6   -0.169661
7   0.200675
8   0.065948
9   0.089148
10   -0.398129
11   0.182172
12   0.16162
13   0.134981
14   0.136325
15   0.135452
16   0.136746
17   0.134427
18   0.113795

>  <lowdin_charges>
18
1   -0.271053
2   -0.15258
3   -0.153251
4   -0.152211
5   -0.162701
6   -0.157596
7   0.046381
8   -0.048985
9   -0.008353
10   -0.218854
11   0.18124
12   0.170417
13   0.16082
14   0.162181
15   0.160319
16   0.159668
17   0.162105
18   0.122452

$$$$

