PCCDB-ID:  20404
public computational chemistry database (PCCDB) project, http://pccdb.org

 32 31  0  0  1  0  0  0  0  0999 V2000
    3.4744   -1.5531    0.7085 C   0  0  0  0  0  0  0  0  0  0  0  0
    3.3009    0.9746    0.8255 C   0  0  0  0  0  0  0  0  0  0  0  0
    5.9393    0.2704   -5.5713 C   0  0  0  0  0  0  0  0  0  0  0  0
    6.6492    1.4057   -3.4400 C   0  0  0  0  0  0  0  0  0  0  0  0
    2.9699   -0.2204   -1.4223 C   0  0  0  0  0  0  0  0  0  0  0  0
    4.4110   -0.1100   -1.9478 C   0  0  0  0  0  0  0  0  0  0  0  0
    2.8157   -0.2984    0.1141 C   0  0  0  0  0  0  0  0  0  0  0  0
    5.9360    0.1826   -4.0354 C   0  0  0  0  0  0  0  0  0  0  0  0
    4.4897    0.0087   -3.4849 C   0  0  1  0  0  0  0  0  0  0  0  0
    3.8903   -1.2595   -4.1025 C   0  0  0  0  0  0  0  0  0  0  0  0
    4.2986   -2.3689   -3.8590 O   0  0  0  0  0  0  0  0  0  0  0  0
    2.8578   -1.0971   -4.9756 O   0  0  0  0  0  0  0  0  0  0  0  0
    3.2378   -1.6484    1.7748 H   0  0  0  0  0  0  0  0  0  0  0  0
    4.5666   -1.5188    0.6184 H   0  0  0  0  0  0  0  0  0  0  0  0
    3.1276   -2.4630    0.2044 H   0  0  0  0  0  0  0  0  0  0  0  0
    3.0645    0.9357    1.8954 H   0  0  0  0  0  0  0  0  0  0  0  0
    2.8239    1.8716    0.4115 H   0  0  0  0  0  0  0  0  0  0  0  0
    4.3867    1.1019    0.7379 H   0  0  0  0  0  0  0  0  0  0  0  0
    6.9639    0.3603   -5.9486 H   0  0  0  0  0  0  0  0  0  0  0  0
    5.3847    1.1537   -5.9172 H   0  0  0  0  0  0  0  0  0  0  0  0
    5.4937   -0.6144   -6.0383 H   0  0  0  0  0  0  0  0  0  0  0  0
    7.6409    1.5209   -3.8921 H   0  0  0  0  0  0  0  0  0  0  0  0
    6.7914    1.3244   -2.3584 H   0  0  0  0  0  0  0  0  0  0  0  0
    6.0876    2.3282   -3.6392 H   0  0  0  0  0  0  0  0  0  0  0  0
    2.4953   -1.1103   -1.8581 H   0  0  0  0  0  0  0  0  0  0  0  0
    2.3939    0.6457   -1.7830 H   0  0  0  0  0  0  0  0  0  0  0  0
    4.9909   -0.9916   -1.6518 H   0  0  0  0  0  0  0  0  0  0  0  0
    4.8961    0.7644   -1.5033 H   0  0  0  0  0  0  0  0  0  0  0  0
    1.7346   -0.3803    0.3015 H   0  0  0  0  0  0  0  0  0  0  0  0
    6.4881   -0.7217   -3.7466 H   0  0  0  0  0  0  0  0  0  0  0  0
    3.9035    0.8892   -3.7965 H   0  0  0  0  0  0  0  0  0  0  0  0
    2.6492   -0.1529   -5.0602 H   0  0  0  0  0  0  0  0  0  0  0  0
  1 13  1  0  0  0  0
  2 16  1  0  0  0  0
  3  8  1  0  0  0  0
  4 23  1  0  0  0  0
  5  7  1  0  0  0  0
  6 27  1  0  0  0  0
  6 28  1  0  0  0  0
  6  5  1  0  0  0  0
  7 29  1  0  0  0  0
  7  1  1  0  0  0  0
  7  2  1  0  0  0  0
  8 30  1  0  0  0  0
  8  9  1  0  0  0  0
  8  4  1  0  0  0  0
  9 31  1  6  0  0  0
  9  6  1  0  0  0  0
 10 11  2  0  0  0  0
 10  9  1  0  0  0  0
 12 10  1  0  0  0  0
 14  1  1  0  0  0  0
 15  1  1  0  0  0  0
 17  2  1  0  0  0  0
 18  2  1  0  0  0  0
 19  3  1  0  0  0  0
 20  3  1  0  0  0  0
 21  3  1  0  0  0  0
 22  4  1  0  0  0  0
 24  4  1  0  0  0  0
 25  5  1  0  0  0  0
 26  5  1  0  0  0  0
 32 12  1  0  0  0  0
M  END
>  <HBA>
2

>  <HBD>
1

>  <TPSA>
37.3

>  <cid>
20404

>  <dipole>
3.88

>  <excitation_energy_1>
5.663

>  <excitation_energy_2>
6.412

>  <excitation_energy_3>
7.08

>  <excitation_energy_4>
7.222

>  <homo_energy>
-7.2

>  <homo_lumo_gap>
7.554

>  <logP>
2.779

>  <lumo_energy>
0.354

>  <melting_point>
47.94

>  <molecular_refractivity>
51.96

>  <oscillator_strength_1>
0.0023

>  <oscillator_strength_2>
0.0128

>  <oscillator_strength_3>
0.0008

>  <oscillator_strength_4>
0.0011

>  <open_babel_can_smiles>
CC(CC[C@H](C(=O)O)C(C)C)C

>  <mulliken_charges>
32
1   -0.445916
2   -0.445602
3   -0.468941
4   -0.453544
5   -0.275482
6   -0.275724
7   -0.066142
8   -0.073125
9   -0.174004
10   0.603728
11   -0.459652
12   -0.572594
13   0.140016
14   0.143386
15   0.14984
16   0.143061
17   0.136776
18   0.141854
19   0.15146
20   0.131912
21   0.16799
22   0.14835
23   0.152402
24   0.138345
25   0.149484
26   0.116572
27   0.164931
28   0.143258
29   0.124015
30   0.154644
31   0.102385
32   0.406315

>  <lowdin_charges>
32
1   -0.443764
2   -0.444742
3   -0.452536
4   -0.444258
5   -0.284514
6   -0.278619
7   -0.116935
8   -0.117594
9   -0.16383
10   0.195454
11   -0.249087
12   -0.35559
13   0.147228
14   0.14475
15   0.152977
16   0.148531
17   0.146271
18   0.143281
19   0.15422
20   0.142224
21   0.160242
22   0.153363
23   0.15058
24   0.145573
25   0.149597
26   0.134659
27   0.159157
28   0.148938
29   0.137042
30   0.153641
31   0.130625
32   0.353119

$$$$

