PCCDB-ID:  50978
public computational chemistry database (PCCDB) project, http://pccdb.org

 29 28  0  0  0  0  0  0  0  0999 V2000
    6.7688    0.3286    0.7678 C   0  0  0  0  0  0  0  0  0  0  0  0
    6.3935    3.6668    4.0097 C   0  0  0  0  0  0  0  0  0  0  0  0
    2.8346    1.0839    2.7592 C   0  0  0  0  0  0  0  0  0  0  0  0
    2.9794    2.5971    3.0177 C   0  0  0  0  0  0  0  0  0  0  0  0
    3.3858    0.2345    3.9176 C   0  0  0  0  0  0  0  0  0  0  0  0
    4.8618   -1.7146    3.2193 C   0  0  0  0  0  0  0  0  0  0  0  0
    6.3263   -0.1730    2.1158 C   0  0  0  0  0  0  0  0  0  0  0  0
    4.4309    3.0159    2.8745 C   0  0  0  0  0  0  0  0  0  0  0  0
    2.4223   -1.8863    3.4225 N   0  0  0  0  0  0  0  0  0  0  0  0
    3.5662   -1.1725    3.5510 N   0  0  0  0  0  0  0  0  0  0  0  0
    6.7206    0.2494    3.1835 O   0  0  0  0  0  0  0  0  0  0  0  0
    5.0387    2.9999    1.8222 O   0  0  0  0  0  0  0  0  0  0  0  0
    2.5469   -3.0406    3.0411 O   0  0  0  0  0  0  0  0  0  0  0  0
    4.9832    3.3608    4.0521 O   0  0  0  0  0  0  0  0  0  0  0  0
    5.3833   -1.1508    1.9969 O   0  0  0  0  0  0  0  0  0  0  0  0
    7.8388    0.5474    0.8002 H   0  0  0  0  0  0  0  0  0  0  0  0
    6.2388    1.2683    0.5746 H   0  0  0  0  0  0  0  0  0  0  0  0
    6.5449   -0.3869   -0.0250 H   0  0  0  0  0  0  0  0  0  0  0  0
    6.5828    4.4886    3.3149 H   0  0  0  0  0  0  0  0  0  0  0  0
    6.9540    2.7823    3.6984 H   0  0  0  0  0  0  0  0  0  0  0  0
    6.6560    3.9548    5.0277 H   0  0  0  0  0  0  0  0  0  0  0  0
    3.3612    0.8309    1.8332 H   0  0  0  0  0  0  0  0  0  0  0  0
    1.7797    0.8323    2.6073 H   0  0  0  0  0  0  0  0  0  0  0  0
    2.6004    2.8708    4.0072 H   0  0  0  0  0  0  0  0  0  0  0  0
    2.4054    3.1465    2.2644 H   0  0  0  0  0  0  0  0  0  0  0  0
    2.7076    0.2802    4.7759 H   0  0  0  0  0  0  0  0  0  0  0  0
    4.3621    0.6007    4.2447 H   0  0  0  0  0  0  0  0  0  0  0  0
    4.7253   -2.7784    3.0372 H   0  0  0  0  0  0  0  0  0  0  0  0
    5.5675   -1.5180    4.0265 H   0  0  0  0  0  0  0  0  0  0  0  0
  1 16  1  0  0  0  0
  1  7  1  0  0  0  0
  2 14  1  0  0  0  0
  2 21  1  0  0  0  0
  3  4  1  0  0  0  0
  3  5  1  0  0  0  0
  4 24  1  0  0  0  0
  5 27  1  0  0  0  0
  5 26  1  0  0  0  0
  6 10  1  0  0  0  0
  6 29  1  0  0  0  0
  7 11  2  0  0  0  0
  8  4  1  0  0  0  0
  8 14  1  0  0  0  0
  9 10  1  0  0  0  0
 10  5  1  0  0  0  0
 12  8  2  0  0  0  0
 13  9  2  0  0  0  0
 15  7  1  0  0  0  0
 15  6  1  0  0  0  0
 17  1  1  0  0  0  0
 18  1  1  0  0  0  0
 19  2  1  0  0  0  0
 20  2  1  0  0  0  0
 22  3  1  0  0  0  0
 23  3  1  0  0  0  0
 25  4  1  0  0  0  0
 28  6  1  0  0  0  0
M  END
>  <HBA>
7

>  <HBD>
0

>  <TPSA>
85.27

>  <cid>
50978

>  <dipole>
2.97

>  <excitation_energy_1>
3.196

>  <excitation_energy_2>
5.472

>  <excitation_energy_3>
5.664

>  <excitation_energy_4>
5.683

>  <homo_energy>
-6.37

>  <homo_lumo_gap>
5.04

>  <logP>
0.444

>  <lumo_energy>
-1.331

>  <melting_point>
18.68

>  <molecular_refractivity>
50.77

>  <oscillator_strength_1>
0.0011

>  <oscillator_strength_2>
0.1254

>  <oscillator_strength_3>
0.0606

>  <oscillator_strength_4>
0.0268

>  <open_babel_can_smiles>
O=NN(COC(=O)C)CCCC(=O)OC

>  <mulliken_charges>
29
1   -0.547974
2   -0.238144
3   -0.280826
4   -0.343665
5   -0.159009
6   0.050992
7   0.623385
8   0.613255
9   0.168947
10   -0.247195
11   -0.475674
12   -0.486936
13   -0.360883
14   -0.441009
15   -0.448094
16   0.183008
17   0.230926
18   0.178551
19   0.169324
20   0.197917
21   0.164473
22   0.173319
23   0.168001
24   0.164575
25   0.177418
26   0.174466
27   0.190282
28   0.206041
29   0.194529

>  <lowdin_charges>
29
1   -0.469846
2   -0.283491
3   -0.277658
4   -0.299814
5   -0.208294
6   -0.090488
7   0.215895
8   0.19763
9   0.063279
10   -0.055491
11   -0.276842
12   -0.280115
13   -0.24674
14   -0.185999
15   -0.196909
16   0.177792
17   0.20204
18   0.174621
19   0.160109
20   0.172585
21   0.16054
22   0.161377
23   0.158959
24   0.16214
25   0.176599
26   0.163794
27   0.170137
28   0.181017
29   0.173173

$$$$

