PCCDB-ID:  16661
public computational chemistry database (PCCDB) project, http://pccdb.org

 25 26  0  0  0  0  0  0  0  0999 V2000
    3.0451    1.0165   -0.3524 C   0  0  0  0  0  0  0  0  0  0  0  0
    4.1666    0.6108   -1.0804 C   0  0  0  0  0  0  0  0  0  0  0  0
    2.1060    0.0690    0.0590 C   0  0  0  0  0  0  0  0  0  0  0  0
    6.8260   -5.3667   -0.3746 C   0  0  0  0  0  0  0  0  0  0  0  0
    6.5354   -4.2306    0.3858 C   0  0  0  0  0  0  0  0  0  0  0  0
    4.3554   -0.7343   -1.3978 C   0  0  0  0  0  0  0  0  0  0  0  0
    2.2868   -1.2813   -0.2440 C   0  0  0  0  0  0  0  0  0  0  0  0
    6.0204   -5.6813   -1.4630 C   0  0  0  0  0  0  0  0  0  0  0  0
    5.4499   -3.4198    0.0683 C   0  0  0  0  0  0  0  0  0  0  0  0
    3.4126   -1.6699   -0.9674 C   0  0  0  0  0  0  0  0  0  0  0  0
    4.9486   -4.8540   -1.8041 C   0  0  0  0  0  0  0  0  0  0  0  0
    4.6398   -3.7156   -1.0356 C   0  0  0  0  0  0  0  0  0  0  0  0
    4.1791   -5.2082   -3.0055 N   0  0  0  0  0  0  0  0  0  0  0  0
    4.1150   -6.4055   -3.2939 O   0  0  0  0  0  0  0  0  0  0  0  0
    3.6802   -4.3014   -3.6660 O   0  0  0  0  0  0  0  0  0  0  0  0
    3.5116   -3.0099   -1.3217 O   0  0  0  0  0  0  0  0  0  0  0  0
    2.9019    2.0662   -0.1130 H   0  0  0  0  0  0  0  0  0  0  0  0
    4.8945    1.3447   -1.4149 H   0  0  0  0  0  0  0  0  0  0  0  0
    1.2287    0.3775    0.6208 H   0  0  0  0  0  0  0  0  0  0  0  0
    7.6689   -6.0009   -0.1202 H   0  0  0  0  0  0  0  0  0  0  0  0
    7.1494   -3.9781    1.2456 H   0  0  0  0  0  0  0  0  0  0  0  0
    5.2118   -1.0581   -1.9809 H   0  0  0  0  0  0  0  0  0  0  0  0
    1.5688   -2.0350    0.0627 H   0  0  0  0  0  0  0  0  0  0  0  0
    6.2045   -6.5579   -2.0730 H   0  0  0  0  0  0  0  0  0  0  0  0
    5.2090   -2.5565    0.6781 H   0  0  0  0  0  0  0  0  0  0  0  0
  1 17  1  0  0  0  0
  1  3  2  0  0  0  0
  2  1  1  0  0  0  0
  3 19  1  0  0  0  0
  4 20  1  0  0  0  0
  4  5  2  0  0  0  0
  5 21  1  0  0  0  0
  6  2  2  0  0  0  0
  6 10  1  0  0  0  0
  7  3  1  0  0  0  0
  7 23  1  0  0  0  0
  8  4  1  0  0  0  0
  9  5  1  0  0  0  0
  9 25  1  0  0  0  0
 10  7  2  0  0  0  0
 11  8  2  0  0  0  0
 11 12  1  0  0  0  0
 12  9  2  0  0  0  0
 13 11  1  0  0  0  0
 14 13  2  0  0  0  0
 15 13  2  0  0  0  0
 16 12  1  0  0  0  0
 16 10  1  0  0  0  0
 18  2  1  0  0  0  0
 22  6  1  0  0  0  0
 24  8  1  0  0  0  0
M  END
>  <HBA>
1

>  <HBD>
0

>  <TPSA>
55.05

>  <cid>
16661

>  <dipole>
5.43

>  <excitation_energy_1>
3.463

>  <excitation_energy_2>
3.716

>  <excitation_energy_3>
4.172

>  <excitation_energy_4>
4.343

>  <homo_energy>
-6.457

>  <homo_lumo_gap>
4.324

>  <logP>
3.91

>  <lumo_energy>
-2.133

>  <melting_point>
80.55

>  <molecular_refractivity>
61.78

>  <oscillator_strength_1>
0.043

>  <oscillator_strength_2>
0.0238

>  <oscillator_strength_3>
0.0073

>  <oscillator_strength_4>
0.0002

>  <open_babel_can_smiles>
O=N(=O)c1ccccc1Oc1ccccc1

>  <mulliken_charges>
25
1   -0.123674
2   -0.139369
3   -0.139557
4   -0.142556
5   -0.117941
6   -0.151989
7   -0.165123
8   -0.146676
9   -0.186327
10   0.330264
11   0.225941
12   0.357757
13   0.35574
14   -0.389911
15   -0.373013
16   -0.554094
17   0.135766
18   0.140554
19   0.140509
20   0.146779
21   0.148619
22   0.152622
23   0.149547
24   0.181209
25   0.164922

>  <lowdin_charges>
25
1   -0.16112
2   -0.147433
3   -0.145301
4   -0.167415
5   -0.127516
6   -0.177548
7   -0.175107
8   -0.130069
9   -0.189763
10   0.101153
11   -0.020481
12   0.116723
13   0.308494
14   -0.250942
15   -0.231243
16   -0.138944
17   0.160272
18   0.164268
19   0.163625
20   0.168422
21   0.168101
22   0.172464
23   0.173102
24   0.186965
25   0.17929

$$$$

