PCCDB-ID:  48801
public computational chemistry database (PCCDB) project, http://pccdb.org

 35 35  0  0  1  0  0  0  0  0999 V2000
    5.2193   -1.5326    1.0621 C   0  0  0  0  0  0  0  0  0  0  0  0
    6.6421    2.0443   -4.1927 C   0  0  0  0  0  0  0  0  0  0  0  0
    3.0574    1.6755   -0.4794 C   0  0  0  0  0  0  0  0  0  0  0  0
    5.1550    5.6248   -2.0529 C   0  0  0  0  0  0  0  0  0  0  0  0
    4.1031   -1.2354    0.0437 C   0  0  0  0  0  0  0  0  0  0  0  0
    6.0020    1.2023   -3.0827 C   0  0  0  0  0  0  0  0  0  0  0  0
    4.5645   -0.2796   -1.0259 C   0  0  0  0  0  0  0  0  0  0  0  0
    4.1457    0.9760   -1.2635 C   0  0  0  0  0  0  0  0  0  0  0  0
    3.6541    1.9809   -3.4817 C   0  0  0  0  0  0  0  0  0  0  0  0
    5.1576    3.1925   -1.8594 C   0  0  0  0  0  0  0  0  0  0  0  0
    3.8759    4.2756   -3.6864 C   0  0  0  0  0  0  0  0  0  0  0  0
    4.7305    1.8244   -2.4145 C   0  0  2  0  0  0  0  0  0  0  0  0
    3.3087    3.0608   -4.0733 N   0  0  0  0  0  0  0  0  0  0  0  0
    4.6910    4.3117   -2.5171 N   0  0  0  0  0  0  0  0  0  0  0  0
    3.0449    0.8496   -3.8662 O   0  0  0  0  0  0  0  0  0  0  0  0
    5.9108    3.2642   -0.9004 O   0  0  0  0  0  0  0  0  0  0  0  0
    3.6611    5.3040   -4.2933 O   0  0  0  0  0  0  0  0  0  0  0  0
    4.8840   -2.2689    1.8006 H   0  0  0  0  0  0  0  0  0  0  0  0
    5.5160   -0.6227    1.5942 H   0  0  0  0  0  0  0  0  0  0  0  0
    6.1109   -1.9355    0.5672 H   0  0  0  0  0  0  0  0  0  0  0  0
    7.4982    1.5045   -4.6104 H   0  0  0  0  0  0  0  0  0  0  0  0
    7.0134    3.0023   -3.8142 H   0  0  0  0  0  0  0  0  0  0  0  0
    5.9466    2.2465   -5.0141 H   0  0  0  0  0  0  0  0  0  0  0  0
    2.5254    1.0023    0.1945 H   0  0  0  0  0  0  0  0  0  0  0  0
    2.3145    2.1319   -1.1457 H   0  0  0  0  0  0  0  0  0  0  0  0
    3.4880    2.4819    0.1262 H   0  0  0  0  0  0  0  0  0  0  0  0
    5.2905    5.5810   -0.9729 H   0  0  0  0  0  0  0  0  0  0  0  0
    4.4117    6.3692   -2.3310 H   0  0  0  0  0  0  0  0  0  0  0  0
    6.1099    5.8833   -2.5219 H   0  0  0  0  0  0  0  0  0  0  0  0
    3.2196   -0.8612    0.5691 H   0  0  0  0  0  0  0  0  0  0  0  0
    3.8029   -2.1792   -0.4343 H   0  0  0  0  0  0  0  0  0  0  0  0
    6.7253    1.0408   -2.2779 H   0  0  0  0  0  0  0  0  0  0  0  0
    5.7376    0.2213   -3.4927 H   0  0  0  0  0  0  0  0  0  0  0  0
    5.3820   -0.6742   -1.6259 H   0  0  0  0  0  0  0  0  0  0  0  0
    3.3013    0.1415   -3.2432 H   0  0  0  0  0  0  0  0  0  0  0  0
  1 19  1  0  0  0  0
  1 18  1  0  0  0  0
  2 22  1  0  0  0  0
  2  6  1  0  0  0  0
  3 26  1  0  0  0  0
  3 24  1  0  0  0  0
  4 27  1  0  0  0  0
  5 30  1  0  0  0  0
  5  1  1  0  0  0  0
  6 12  1  0  0  0  0
  6 32  1  0  0  0  0
  7  5  1  0  0  0  0
  8  7  2  0  0  0  0
  8  3  1  0  0  0  0
  9 12  1  0  0  0  0
 10 16  2  0  0  0  0
 11 14  1  0  0  0  0
 12 10  1  0  0  0  0
 12  8  1  1  0  0  0
 13 11  1  0  0  0  0
 13  9  2  0  0  0  0
 14  4  1  0  0  0  0
 14 10  1  0  0  0  0
 15  9  1  0  0  0  0
 15 35  1  0  0  0  0
 17 11  2  0  0  0  0
 20  1  1  0  0  0  0
 21  2  1  0  0  0  0
 23  2  1  0  0  0  0
 25  3  1  0  0  0  0
 28  4  1  0  0  0  0
 29  4  1  0  0  0  0
 31  5  1  0  0  0  0
 33  6  1  0  0  0  0
 34  7  1  0  0  0  0
M  END
>  <HBA>
5

>  <HBD>
1

>  <TPSA>
66.48

>  <cid>
48801

>  <dipole>
5.52

>  <excitation_energy_1>
4.52

>  <excitation_energy_2>
4.64

>  <excitation_energy_3>
5.033

>  <excitation_energy_4>
5.254

>  <homo_energy>
-7.151

>  <homo_lumo_gap>
5.774

>  <logP>
1.714

>  <lumo_energy>
-1.377

>  <melting_point>
128.25

>  <molecular_refractivity>
71.47

>  <oscillator_strength_1>
0.0009

>  <oscillator_strength_2>
0.0027

>  <oscillator_strength_3>
0.0137

>  <oscillator_strength_4>
0.0038

>  <open_babel_can_smiles>
CC/C=C(/[C@@]1(CC)C(=NC(=O)N(C1=O)C)O)\C

>  <mulliken_charges>
35
1   -0.4414
2   -0.47733
3   -0.544044
4   -0.318052
5   -0.301272
6   -0.273684
7   -0.178373
8   0.15498
9   0.550752
10   0.628573
11   0.701124
12   -0.170074
13   -0.497734
14   -0.5112
15   -0.569354
16   -0.512423
17   -0.465684
18   0.151724
19   0.163044
20   0.148353
21   0.16034
22   0.168157
23   0.173245
24   0.166951
25   0.170545
26   0.191527
27   0.18604
28   0.194261
29   0.17402
30   0.14936
31   0.148386
32   0.183839
33   0.144476
34   0.137093
35   0.413831

>  <lowdin_charges>
35
1   -0.441709
2   -0.455423
3   -0.457092
4   -0.348793
5   -0.273356
6   -0.265368
7   -0.181741
8   -0.016112
9   0.159166
10   0.159471
11   0.186995
12   -0.049188
13   -0.188314
14   -0.092244
15   -0.321128
16   -0.279803
17   -0.246299
18   0.155377
19   0.157773
20   0.150726
21   0.162769
22   0.159472
23   0.162346
24   0.165471
25   0.16499
26   0.176975
27   0.172202
28   0.180515
29   0.162463
30   0.15118
31   0.152438
32   0.169517
33   0.147054
34   0.158547
35   0.361122

$$$$

