PCCDB-ID:  42605
public computational chemistry database (PCCDB) project, http://pccdb.org

 28 29  0  0  1  0  0  0  0  0999 V2000
    4.8705   -2.3098    2.2724 C   0  0  0  0  0  0  0  0  0  0  0  0
    6.6486    2.2704    1.3734 C   0  0  0  0  0  0  0  0  0  0  0  0
    4.5561   -1.2023    2.6369 C   0  0  0  0  0  0  0  0  0  0  0  0
    8.9749    0.2515    6.8069 C   0  0  0  0  0  0  0  0  0  0  0  0
    8.8768   -0.5280    5.6367 C   0  0  0  0  0  0  0  0  0  0  0  0
    8.2832    1.4492    6.9251 C   0  0  0  0  0  0  0  0  0  0  0  0
    8.0894   -0.1269    4.5630 C   0  0  0  0  0  0  0  0  0  0  0  0
    6.6463    3.0332    5.6402 C   0  0  0  0  0  0  0  0  0  0  0  0
    6.1025    2.9073    4.3922 C   0  0  0  0  0  0  0  0  0  0  0  0
    4.1737    0.1449    3.0798 C   0  0  0  0  0  0  0  0  0  0  0  0
    6.1810    1.2997    2.4509 C   0  0  1  0  0  0  0  0  0  0  0  0
    7.4792    1.8833    5.8573 C   0  0  0  0  0  0  0  0  0  0  0  0
    7.3917    1.0818    4.6837 C   0  0  0  0  0  0  0  0  0  0  0  0
    6.5399    1.7311    3.7958 N   0  0  0  0  0  0  0  0  0  0  0  0
    4.7735    1.1854    2.3074 O   0  0  0  0  0  0  0  0  0  0  0  0
    5.1414   -3.2899    1.9501 H   0  0  0  0  0  0  0  0  0  0  0  0
    7.7300    2.4180    1.4447 H   0  0  0  0  0  0  0  0  0  0  0  0
    6.1519    3.2391    1.4831 H   0  0  0  0  0  0  0  0  0  0  0  0
    6.4053    1.8683    0.3858 H   0  0  0  0  0  0  0  0  0  0  0  0
    9.5998   -0.0943    7.6259 H   0  0  0  0  0  0  0  0  0  0  0  0
    9.4256   -1.4636    5.5709 H   0  0  0  0  0  0  0  0  0  0  0  0
    8.3594    2.0474    7.8298 H   0  0  0  0  0  0  0  0  0  0  0  0
    8.0195   -0.7447    3.6727 H   0  0  0  0  0  0  0  0  0  0  0  0
    6.4701    3.8454    6.3324 H   0  0  0  0  0  0  0  0  0  0  0  0
    5.4099    3.5493    3.8668 H   0  0  0  0  0  0  0  0  0  0  0  0
    4.4118    0.2706    4.1454 H   0  0  0  0  0  0  0  0  0  0  0  0
    3.0949    0.2869    2.9597 H   0  0  0  0  0  0  0  0  0  0  0  0
    6.6527    0.3216    2.3055 H   0  0  0  0  0  0  0  0  0  0  0  0
  1  3  3  0  0  0  0
  2 17  1  0  0  0  0
  2 18  1  0  0  0  0
  2 11  1  0  0  0  0
  3 10  1  0  0  0  0
  4  6  1  0  0  0  0
  4 20  1  0  0  0  0
  5  4  2  0  0  0  0
  6 22  1  0  0  0  0
  7 13  2  0  0  0  0
  7  5  1  0  0  0  0
  8 12  1  0  0  0  0
  8 24  1  0  0  0  0
  9  8  2  0  0  0  0
 10 26  1  0  0  0  0
 11 28  1  6  0  0  0
 11 14  1  0  0  0  0
 12  6  2  0  0  0  0
 13 12  1  0  0  0  0
 14  9  1  0  0  0  0
 14 13  1  0  0  0  0
 15 11  1  0  0  0  0
 15 10  1  0  0  0  0
 16  1  1  0  0  0  0
 19  2  1  0  0  0  0
 21  5  1  0  0  0  0
 23  7  1  0  0  0  0
 25  9  1  0  0  0  0
 27 10  1  0  0  0  0
M  END
>  <HBA>
2

>  <HBD>
0

>  <TPSA>
14.16

>  <cid>
42605

>  <dipole>
1.25

>  <excitation_energy_1>
4.675

>  <excitation_energy_2>
4.837

>  <excitation_energy_3>
5.075

>  <excitation_energy_4>
5.147

>  <homo_energy>
-5.423

>  <homo_lumo_gap>
5.309

>  <logP>
2.81

>  <lumo_energy>
-0.114

>  <melting_point>
56.56

>  <molecular_refractivity>
61.67

>  <oscillator_strength_1>
0.0812

>  <oscillator_strength_2>
0.0278

>  <oscillator_strength_3>
0.0074

>  <oscillator_strength_4>
0.0145

>  <open_babel_can_smiles>
C#CCO[C@H](n1ccc2c1cccc2)C

>  <mulliken_charges>
28
1   -0.470639
2   -0.451862
3   0.311825
4   -0.135796
5   -0.154533
6   -0.209185
7   -0.159847
8   -0.234163
9   0.032259
10   -0.171018
11   0.230571
12   0.107071
13   0.295421
14   -0.521692
15   -0.463296
16   0.196134
17   0.162764
18   0.16199
19   0.166105
20   0.119478
21   0.121595
22   0.123803
23   0.133879
24   0.129526
25   0.157737
26   0.185681
27   0.184092
28   0.152102

>  <lowdin_charges>
28
1   -0.237372
2   -0.445555
3   -0.056864
4   -0.176707
5   -0.164872
6   -0.162224
7   -0.190992
8   -0.221156
9   -0.126836
10   -0.118232
11   0.061654
12   -0.026923
13   0.023434
14   -0.041968
15   -0.257874
16   0.207597
17   0.162125
18   0.161023
19   0.164891
20   0.155042
21   0.154745
22   0.156185
23   0.158497
24   0.164119
25   0.170101
26   0.164819
27   0.17343
28   0.149915

$$$$

