PCCDB-ID:  36192
public computational chemistry database (PCCDB) project, http://pccdb.org

 28 29  0  0  0  0  0  0  0  0999 V2000
    1.0317    0.2485    0.3761 C   0  0  0  0  0  0  0  0  0  0  0  0
    5.0898   -2.5332   -0.2611 C   0  0  0  0  0  0  0  0  0  0  0  0
    2.4554    3.2094   -0.9443 C   0  0  0  0  0  0  0  0  0  0  0  0
    6.9615    2.2218   -0.0772 C   0  0  0  0  0  0  0  0  0  0  0  0
    7.5258    0.9499   -0.2390 C   0  0  0  0  0  0  0  0  0  0  0  0
    5.5872    2.3422    0.0595 C   0  0  0  0  0  0  0  0  0  0  0  0
    6.7279   -0.1871   -0.2521 C   0  0  0  0  0  0  0  0  0  0  0  0
    2.5223    0.2047    0.2005 C   0  0  0  0  0  0  0  0  0  0  0  0
    4.7536    1.2096    0.0309 C   0  0  0  0  0  0  0  0  0  0  0  0
    5.3300   -0.0789   -0.1119 C   0  0  0  0  0  0  0  0  0  0  0  0
    3.3164    1.3086    0.1624 C   0  0  0  0  0  0  0  0  0  0  0  0
    3.1135   -1.1317    0.0711 C   0  0  0  0  0  0  0  0  0  0  0  0
    4.5094   -1.2008   -0.1038 N   0  0  0  0  0  0  0  0  0  0  0  0
    2.4278   -2.1539    0.0958 O   0  0  0  0  0  0  0  0  0  0  0  0
    2.7761    2.5702    0.2947 O   0  0  0  0  0  0  0  0  0  0  0  0
    0.6889    1.2670    0.5667 H   0  0  0  0  0  0  0  0  0  0  0  0
    0.7328   -0.3953    1.2103 H   0  0  0  0  0  0  0  0  0  0  0  0
    0.5219   -0.1482   -0.5101 H   0  0  0  0  0  0  0  0  0  0  0  0
    5.7701   -2.7600    0.5673 H   0  0  0  0  0  0  0  0  0  0  0  0
    5.6395   -2.6032   -1.2054 H   0  0  0  0  0  0  0  0  0  0  0  0
    4.2656   -3.2435   -0.2592 H   0  0  0  0  0  0  0  0  0  0  0  0
    1.6940    2.6441   -1.4961 H   0  0  0  0  0  0  0  0  0  0  0  0
    3.3453    3.3232   -1.5761 H   0  0  0  0  0  0  0  0  0  0  0  0
    2.0619    4.1952   -0.6873 H   0  0  0  0  0  0  0  0  0  0  0  0
    7.5935    3.1045   -0.0533 H   0  0  0  0  0  0  0  0  0  0  0  0
    8.6014    0.8417   -0.3481 H   0  0  0  0  0  0  0  0  0  0  0  0
    5.1281    3.3134    0.2086 H   0  0  0  0  0  0  0  0  0  0  0  0
    7.1912   -1.1596   -0.3620 H   0  0  0  0  0  0  0  0  0  0  0  0
  1 16  1  0  0  0  0
  1 17  1  0  0  0  0
  2 21  1  0  0  0  0
  2 13  1  0  0  0  0
  2 19  1  0  0  0  0
  3 24  1  0  0  0  0
  3 15  1  0  0  0  0
  4 25  1  0  0  0  0
  4  6  2  0  0  0  0
  5  4  1  0  0  0  0
  6 27  1  0  0  0  0
  7  5  2  0  0  0  0
  7 10  1  0  0  0  0
  8  1  1  0  0  0  0
  9  6  1  0  0  0  0
  9 11  1  0  0  0  0
 10 13  1  0  0  0  0
 10  9  2  0  0  0  0
 11  8  2  0  0  0  0
 11 15  1  0  0  0  0
 12 14  2  0  0  0  0
 12  8  1  0  0  0  0
 13 12  1  0  0  0  0
 18  1  1  0  0  0  0
 20  2  1  0  0  0  0
 22  3  1  0  0  0  0
 23  3  1  0  0  0  0
 26  5  1  0  0  0  0
 28  7  1  0  0  0  0
M  END
>  <HBA>
3

>  <HBD>
0

>  <TPSA>
31.23

>  <cid>
36192

>  <dipole>
3.49

>  <excitation_energy_1>
4.03

>  <excitation_energy_2>
4.487

>  <excitation_energy_3>
4.581

>  <excitation_energy_4>
5.267

>  <homo_energy>
-5.81

>  <homo_lumo_gap>
4.547

>  <logP>
1.855

>  <lumo_energy>
-1.263

>  <melting_point>
97.21

>  <molecular_refractivity>
60.93

>  <oscillator_strength_1>
0.1441

>  <oscillator_strength_2>
0.0007

>  <oscillator_strength_3>
0.0781

>  <oscillator_strength_4>
0.0871

>  <open_babel_can_smiles>
COc1c(C)c(=O)n(c2c1cccc2)C

>  <mulliken_charges>
28
1   -0.514601
2   -0.344577
3   -0.214105
4   -0.134468
5   -0.13428
6   -0.207093
7   -0.183131
8   0.028534
9   0.098586
10   0.329365
11   0.273318
12   0.570947
13   -0.593101
14   -0.535484
15   -0.523515
16   0.160434
17   0.177598
18   0.167589
19   0.166456
20   0.16444
21   0.218702
22   0.15438
23   0.150701
24   0.167664
25   0.132127
26   0.134898
27   0.149176
28   0.139438

>  <lowdin_charges>
28
1   -0.435885
2   -0.361458
3   -0.274131
4   -0.173125
5   -0.1394
6   -0.14784
7   -0.194102
8   -0.059481
9   -0.043227
10   0.05921
11   0.098412
12   0.156166
13   -0.055918
14   -0.319551
15   -0.228129
16   0.160722
17   0.17342
18   0.166983
19   0.158003
20   0.15678
21   0.193736
22   0.147745
23   0.145191
24   0.160165
25   0.160982
26   0.159416
27   0.169287
28   0.166033

$$$$

