PCCDB-ID:  31291
public computational chemistry database (PCCDB) project, http://pccdb.org

 43 42  0  0  0  0  0  0  0  0999 V2000
   12.2121   -2.1327   -5.6536 C   0  0  0  0  0  0  0  0  0  0  0  0
   10.7736   -1.7427   -6.0128 C   0  0  0  0  0  0  0  0  0  0  0  0
   10.3223   -0.3867   -5.4409 C   0  0  0  0  0  0  0  0  0  0  0  0
   10.2829   -0.2813   -3.9059 C   0  0  0  0  0  0  0  0  0  0  0  0
    9.2652   -1.2081   -3.2253 C   0  0  0  0  0  0  0  0  0  0  0  0
    9.2053   -1.0131   -1.7031 C   0  0  0  0  0  0  0  0  0  0  0  0
    8.1392   -1.8557   -0.9832 C   0  0  0  0  0  0  0  0  0  0  0  0
    8.3710   -3.3731   -1.0332 C   0  0  0  0  0  0  0  0  0  0  0  0
    7.3272   -4.1604   -0.2272 C   0  0  0  0  0  0  0  0  0  0  0  0
    7.4540   -5.6904   -0.3234 C   0  0  0  0  0  0  0  0  0  0  0  0
    8.7262   -6.2625    0.3216 C   0  0  0  0  0  0  0  0  0  0  0  0
    8.7924   -7.8017    0.3340 C   0  0  0  0  0  0  0  0  0  0  0  0
    8.9441   -8.4817   -1.0456 C   0  0  0  0  0  0  0  0  0  0  0  0
   10.3132   -8.3066   -1.6650 C   0  0  0  0  0  0  0  0  0  0  0  0
   10.9646   -9.2064   -2.1499 O   0  0  0  0  0  0  0  0  0  0  0  0
   12.4979   -3.0734   -6.1381 H   0  0  0  0  0  0  0  0  0  0  0  0
   12.3424   -2.2678   -4.5738 H   0  0  0  0  0  0  0  0  0  0  0  0
   12.9231   -1.3622   -5.9777 H   0  0  0  0  0  0  0  0  0  0  0  0
   10.0874   -2.5343   -5.6831 H   0  0  0  0  0  0  0  0  0  0  0  0
   10.6784   -1.7025   -7.1063 H   0  0  0  0  0  0  0  0  0  0  0  0
    9.3229   -0.1532   -5.8356 H   0  0  0  0  0  0  0  0  0  0  0  0
   10.9914    0.3953   -5.8282 H   0  0  0  0  0  0  0  0  0  0  0  0
   10.0456    0.7581   -3.6375 H   0  0  0  0  0  0  0  0  0  0  0  0
   11.2826   -0.4735   -3.4916 H   0  0  0  0  0  0  0  0  0  0  0  0
    9.5057   -2.2541   -3.4548 H   0  0  0  0  0  0  0  0  0  0  0  0
    8.2672   -1.0238   -3.6522 H   0  0  0  0  0  0  0  0  0  0  0  0
    9.0117    0.0485   -1.4930 H   0  0  0  0  0  0  0  0  0  0  0  0
   10.1932   -1.2307   -1.2699 H   0  0  0  0  0  0  0  0  0  0  0  0
    7.1498   -1.6272   -1.4072 H   0  0  0  0  0  0  0  0  0  0  0  0
    8.0961   -1.5422    0.0697 H   0  0  0  0  0  0  0  0  0  0  0  0
    9.3806   -3.5905   -0.6564 H   0  0  0  0  0  0  0  0  0  0  0  0
    8.3513   -3.7206   -2.0757 H   0  0  0  0  0  0  0  0  0  0  0  0
    6.3250   -3.8709   -0.5739 H   0  0  0  0  0  0  0  0  0  0  0  0
    7.3801   -3.8580    0.8293 H   0  0  0  0  0  0  0  0  0  0  0  0
    7.4004   -5.9836   -1.3818 H   0  0  0  0  0  0  0  0  0  0  0  0
    6.5810   -6.1484    0.1635 H   0  0  0  0  0  0  0  0  0  0  0  0
    8.7771   -5.9125    1.3622 H   0  0  0  0  0  0  0  0  0  0  0  0
    9.6157   -5.8528   -0.1740 H   0  0  0  0  0  0  0  0  0  0  0  0
    7.8785   -8.1902    0.8024 H   0  0  0  0  0  0  0  0  0  0  0  0
    9.6209   -8.1232    0.9794 H   0  0  0  0  0  0  0  0  0  0  0  0
    8.2065   -8.0653   -1.7481 H   0  0  0  0  0  0  0  0  0  0  0  0
    8.7522   -9.5577   -0.9780 H   0  0  0  0  0  0  0  0  0  0  0  0
   10.7155   -7.2678   -1.6587 H   0  0  0  0  0  0  0  0  0  0  0  0
  1 17  1  0  0  0  0
  2 19  1  0  0  0  0
  2  1  1  0  0  0  0
  2  3  1  0  0  0  0
  3  4  1  0  0  0  0
  4 23  1  0  0  0  0
  4 24  1  0  0  0  0
  4  5  1  0  0  0  0
  5  6  1  0  0  0  0
  6 27  1  0  0  0  0
  6 28  1  0  0  0  0
  6  7  1  0  0  0  0
  7 30  1  0  0  0  0
  8  7  1  0  0  0  0
  8 31  1  0  0  0  0
  8  9  1  0  0  0  0
  9 34  1  0  0  0  0
 10  9  1  0  0  0  0
 10 36  1  0  0  0  0
 10 11  1  0  0  0  0
 11 12  1  0  0  0  0
 11 37  1  0  0  0  0
 12 39  1  0  0  0  0
 12 40  1  0  0  0  0
 13 42  1  0  0  0  0
 13 12  1  0  0  0  0
 14 43  1  0  0  0  0
 14 13  1  0  0  0  0
 15 14  2  0  0  0  0
 16  1  1  0  0  0  0
 18  1  1  0  0  0  0
 20  2  1  0  0  0  0
 21  3  1  0  0  0  0
 22  3  1  0  0  0  0
 25  5  1  0  0  0  0
 26  5  1  0  0  0  0
 29  7  1  0  0  0  0
 32  8  1  0  0  0  0
 33  9  1  0  0  0  0
 35 10  1  0  0  0  0
 38 11  1  0  0  0  0
 41 13  1  0  0  0  0
M  END
>  <HBA>
1

>  <HBD>
0

>  <TPSA>
17.07

>  <cid>
31291

>  <dipole>
3.0

>  <excitation_energy_1>
4.175

>  <excitation_energy_2>
6.356

>  <excitation_energy_3>
6.563

>  <excitation_energy_4>
6.726

>  <homo_energy>
-6.724

>  <homo_lumo_gap>
6.158

>  <logP>
4.886

>  <lumo_energy>
-0.566

>  <melting_point>
-0.15

>  <molecular_refractivity>
69.61

>  <oscillator_strength_1>
0.0001

>  <oscillator_strength_2>
0.0118

>  <oscillator_strength_3>
0.0151

>  <oscillator_strength_4>
0.0042

>  <open_babel_can_smiles>
CCCCCCCCCCCCCC=O

>  <mulliken_charges>
43
1   -0.44351
2   -0.24991
3   -0.252208
4   -0.256019
5   -0.256021
6   -0.255264
7   -0.255023
8   -0.25669
9   -0.255817
10   -0.257533
11   -0.265061
12   -0.276733
13   -0.340554
14   0.258788
15   -0.386994
16   0.142946
17   0.14444
18   0.140876
19   0.132871
20   0.130891
21   0.125731
22   0.126178
23   0.126907
24   0.131104
25   0.136714
26   0.124769
27   0.127645
28   0.125853
29   0.126897
30   0.12748
31   0.130517
32   0.131487
33   0.130278
34   0.128281
35   0.128452
36   0.129894
37   0.1363
38   0.140955
39   0.144774
40   0.144814
41   0.164998
42   0.165323
43   0.101175

>  <lowdin_charges>
43
1   -0.44676
2   -0.274724
3   -0.277099
4   -0.276036
5   -0.277321
6   -0.272835
7   -0.272764
8   -0.277702
9   -0.272165
10   -0.277391
11   -0.281386
12   -0.275282
13   -0.313541
14   0.057414
15   -0.219417
16   0.150328
17   0.144507
18   0.146927
19   0.139673
20   0.139989
21   0.138661
22   0.140721
23   0.139001
24   0.138212
25   0.138349
26   0.135924
27   0.138814
28   0.136566
29   0.13691
30   0.139006
31   0.137117
32   0.137174
33   0.141308
34   0.136593
35   0.135007
36   0.142043
37   0.144244
38   0.140691
39   0.149808
40   0.148662
41   0.166049
42   0.162661
43   0.112064

$$$$

