PCCDB-ID:  14341
public computational chemistry database (PCCDB) project, http://pccdb.org

 31 32  0  0  1  0  0  0  0  0999 V2000
    1.1526    0.8861    0.4397 C   0  0  0  0  0  0  0  0  0  0  0  0
    2.5423    0.4112    0.0087 C   0  0  0  0  0  0  0  0  0  0  0  0
    3.5882   -0.1154    4.9996 C   0  0  0  0  0  0  0  0  0  0  0  0
    4.6067    0.2040    4.0990 C   0  0  0  0  0  0  0  0  0  0  0  0
    2.4022   -0.6802    4.5283 C   0  0  0  0  0  0  0  0  0  0  0  0
    4.4394   -0.0398    2.7357 C   0  0  0  0  0  0  0  0  0  0  0  0
    2.2332   -0.9208    3.1632 C   0  0  0  0  0  0  0  0  0  0  0  0
    4.5491   -2.9665   -1.4480 C   0  0  0  0  0  0  0  0  0  0  0  0
    2.9839   -3.0897    0.5894 C   0  0  0  0  0  0  0  0  0  0  0  0
    3.2500   -0.6024    2.2557 C   0  0  0  0  0  0  0  0  0  0  0  0
    4.3456   -2.6399    0.0303 C   0  0  2  0  0  0  0  0  0  0  0  0
    3.0575   -0.8264    0.7513 C   0  0  1  0  0  0  0  0  0  0  0  0
    5.6908   -2.3121   -1.9664 O   0  0  0  0  0  0  0  0  0  0  0  0
    2.1808   -1.9140    0.4969 O   0  0  0  0  0  0  0  0  0  0  0  0
    4.3099   -1.2060    0.1564 O   0  0  0  0  0  0  0  0  0  0  0  0
    0.8489    1.7511   -0.1594 H   0  0  0  0  0  0  0  0  0  0  0  0
    1.1343    1.1844    1.4929 H   0  0  0  0  0  0  0  0  0  0  0  0
    0.4081    0.0966    0.2951 H   0  0  0  0  0  0  0  0  0  0  0  0
    3.2808    1.2092    0.1506 H   0  0  0  0  0  0  0  0  0  0  0  0
    2.5409    0.1525   -1.0564 H   0  0  0  0  0  0  0  0  0  0  0  0
    3.7201    0.0715    6.0620 H   0  0  0  0  0  0  0  0  0  0  0  0
    5.5364    0.6373    4.4588 H   0  0  0  0  0  0  0  0  0  0  0  0
    1.6069   -0.9379    5.2230 H   0  0  0  0  0  0  0  0  0  0  0  0
    5.2380    0.1887    2.0366 H   0  0  0  0  0  0  0  0  0  0  0  0
    1.3148   -1.3667    2.7941 H   0  0  0  0  0  0  0  0  0  0  0  0
    3.6349   -2.6912   -2.0011 H   0  0  0  0  0  0  0  0  0  0  0  0
    4.7118   -4.0427   -1.5769 H   0  0  0  0  0  0  0  0  0  0  0  0
    3.0668   -3.4281    1.6301 H   0  0  0  0  0  0  0  0  0  0  0  0
    2.5027   -3.8705   -0.0069 H   0  0  0  0  0  0  0  0  0  0  0  0
    5.1875   -3.0231    0.6186 H   0  0  0  0  0  0  0  0  0  0  0  0
    5.5838   -1.3769   -1.7229 H   0  0  0  0  0  0  0  0  0  0  0  0
  1 17  1  0  0  0  0
  2 19  1  0  0  0  0
  2  1  1  0  0  0  0
  3 21  1  0  0  0  0
  4 22  1  0  0  0  0
  4  3  2  0  0  0  0
  5  3  1  0  0  0  0
  5 23  1  0  0  0  0
  6  4  1  0  0  0  0
  7  5  2  0  0  0  0
  8 11  1  0  0  0  0
  9 28  1  0  0  0  0
 10  6  2  0  0  0  0
 10  7  1  0  0  0  0
 11 15  1  0  0  0  0
 11  9  1  0  0  0  0
 11 30  1  1  0  0  0
 12  2  1  6  0  0  0
 12 10  1  0  0  0  0
 13 31  1  0  0  0  0
 13  8  1  0  0  0  0
 14  9  1  0  0  0  0
 14 12  1  0  0  0  0
 15 12  1  0  0  0  0
 16  1  1  0  0  0  0
 18  1  1  0  0  0  0
 20  2  1  0  0  0  0
 24  6  1  0  0  0  0
 25  7  1  0  0  0  0
 26  8  1  0  0  0  0
 27  8  1  0  0  0  0
 29  9  1  0  0  0  0
M  END
>  <HBA>
3

>  <HBD>
1

>  <TPSA>
38.69

>  <cid>
14341

>  <dipole>
1.91

>  <excitation_energy_1>
5.324

>  <excitation_energy_2>
5.882

>  <excitation_energy_3>
6.024

>  <excitation_energy_4>
6.134

>  <homo_energy>
-6.702

>  <homo_lumo_gap>
6.547

>  <logP>
1.657

>  <lumo_energy>
-0.155

>  <melting_point>
34.07

>  <molecular_refractivity>
56.54

>  <oscillator_strength_1>
0.0004

>  <oscillator_strength_2>
0.0183

>  <oscillator_strength_3>
0.006

>  <oscillator_strength_4>
0.0083

>  <open_babel_can_smiles>
OC[C@@H]1CO[C@@](O1)(CC)c1ccccc1

>  <mulliken_charges>
31
1   -0.460794
2   -0.259913
3   -0.125055
4   -0.135576
5   -0.135257
6   -0.169306
7   -0.172352
8   -0.033112
9   -0.080766
10   0.101436
11   0.113968
12   0.468783
13   -0.621826
14   -0.50319
15   -0.550217
16   0.146378
17   0.157546
18   0.162507
19   0.146134
20   0.146374
21   0.13019
22   0.131197
23   0.130629
24   0.142948
25   0.145106
26   0.127963
27   0.139808
28   0.150393
29   0.158452
30   0.145974
31   0.401576

>  <lowdin_charges>
31
1   -0.448551
2   -0.275463
3   -0.154262
4   -0.155843
5   -0.158513
6   -0.160544
7   -0.163686
8   -0.145256
9   -0.145994
10   -0.034978
11   -0.02928
12   0.213802
13   -0.461845
14   -0.253107
15   -0.276088
16   0.154383
17   0.154339
18   0.15766
19   0.155127
20   0.151518
21   0.156342
22   0.158314
23   0.158955
24   0.166016
25   0.165931
26   0.130995
27   0.144929
28   0.143775
29   0.159013
30   0.14859
31   0.343721

$$$$

