PCCDB-ID:  69904
public computational chemistry database (PCCDB) project, http://pccdb.org

 27 27  0  0  0  0  0  0  0  0999 V2000
    3.1474    1.4334   -0.0776 C   0  0  0  0  0  0  0  0  0  0  0  0
    6.8688   -3.2999   -3.1342 C   0  0  0  0  0  0  0  0  0  0  0  0
    1.4847   -5.0835    0.5283 C   0  0  0  0  0  0  0  0  0  0  0  0
    4.3858   -1.0679   -1.1760 C   0  0  0  0  0  0  0  0  0  0  0  0
    2.6965   -2.4110   -0.0943 C   0  0  0  0  0  0  0  0  0  0  0  0
    4.4216   -3.4705   -1.4093 C   0  0  0  0  0  0  0  0  0  0  0  0
    2.5702    0.0602    0.2106 C   0  0  0  0  0  0  0  0  0  0  0  0
    6.2080   -2.0623   -2.5568 C   0  0  0  0  0  0  0  0  0  0  0  0
    2.7252   -4.9475   -0.3345 C   0  0  0  0  0  0  0  0  0  0  0  0
    3.2465   -1.1490   -0.3749 C   0  0  0  0  0  0  0  0  0  0  0  0
    4.9826   -2.2266   -1.7003 C   0  0  0  0  0  0  0  0  0  0  0  0
    3.2747   -3.5737   -0.6044 C   0  0  0  0  0  0  0  0  0  0  0  0
    1.5743   -0.0716    0.9047 O   0  0  0  0  0  0  0  0  0  0  0  0
    6.6556   -0.9479   -2.7776 O   0  0  0  0  0  0  0  0  0  0  0  0
    3.2751   -5.9302   -0.8066 O   0  0  0  0  0  0  0  0  0  0  0  0
    4.1796    1.5102    0.2847 H   0  0  0  0  0  0  0  0  0  0  0  0
    2.5320    2.1841    0.4205 H   0  0  0  0  0  0  0  0  0  0  0  0
    3.1677    1.6346   -1.1553 H   0  0  0  0  0  0  0  0  0  0  0  0
    6.1728   -3.8554   -3.7741 H   0  0  0  0  0  0  0  0  0  0  0  0
    7.1917   -3.9820   -2.3387 H   0  0  0  0  0  0  0  0  0  0  0  0
    7.7350   -2.9928   -3.7223 H   0  0  0  0  0  0  0  0  0  0  0  0
    1.6539   -4.6694    1.5295 H   0  0  0  0  0  0  0  0  0  0  0  0
    1.2302   -6.1412    0.6123 H   0  0  0  0  0  0  0  0  0  0  0  0
    0.6392   -4.5387    0.0917 H   0  0  0  0  0  0  0  0  0  0  0  0
    4.8460   -0.1165   -1.4201 H   0  0  0  0  0  0  0  0  0  0  0  0
    1.8108   -2.4403    0.5311 H   0  0  0  0  0  0  0  0  0  0  0  0
    4.8470   -4.3923   -1.7911 H   0  0  0  0  0  0  0  0  0  0  0  0
  1  7  1  0  0  0  0
  1 16  1  0  0  0  0
  1 17  1  0  0  0  0
  2  8  1  0  0  0  0
  2 20  1  0  0  0  0
  3 23  1  0  0  0  0
  3 22  1  0  0  0  0
  4 10  2  0  0  0  0
  5 26  1  0  0  0  0
  6 12  1  0  0  0  0
  7 13  2  0  0  0  0
  8 11  1  0  0  0  0
  9  3  1  0  0  0  0
 10  5  1  0  0  0  0
 10  7  1  0  0  0  0
 11  6  2  0  0  0  0
 11  4  1  0  0  0  0
 12  9  1  0  0  0  0
 12  5  2  0  0  0  0
 14  8  2  0  0  0  0
 15  9  2  0  0  0  0
 18  1  1  0  0  0  0
 19  2  1  0  0  0  0
 21  2  1  0  0  0  0
 24  3  1  0  0  0  0
 25  4  1  0  0  0  0
 27  6  1  0  0  0  0
M  END
>  <HBA>
3

>  <HBD>
0

>  <TPSA>
51.21

>  <cid>
69904

>  <dipole>
0.0

>  <excitation_energy_1>
3.629

>  <excitation_energy_2>
3.701

>  <excitation_energy_3>
3.702

>  <excitation_energy_4>
4.139

>  <homo_energy>
-7.029

>  <homo_lumo_gap>
4.947

>  <logP>
2.294

>  <lumo_energy>
-2.082

>  <melting_point>
110.01

>  <molecular_refractivity>
57.03

>  <oscillator_strength_1>
0.0002

>  <oscillator_strength_2>
0.0

>  <oscillator_strength_3>
0.0

>  <oscillator_strength_4>
0.0

>  <open_babel_can_smiles>
CC(=O)c1cc(cc(c1)C(=O)C)C(=O)C

>  <mulliken_charges>
27
1   -0.544159
2   -0.544062
3   -0.544061
4   -0.218824
5   -0.218938
6   -0.21909
7   0.418128
8   0.418118
9   0.418197
10   0.077105
11   0.077328
12   0.077191
13   -0.449895
14   -0.449928
15   -0.449892
16   0.17907
17   0.185448
18   0.178963
19   0.178964
20   0.178996
21   0.185418
22   0.179043
23   0.185419
24   0.178914
25   0.174137
26   0.174186
27   0.174222

>  <lowdin_charges>
27
1   -0.472329
2   -0.476854
3   -0.474563
4   -0.109732
5   -0.108972
6   -0.110459
7   0.162059
8   0.164953
9   0.166831
10   -0.052279
11   -0.052434
12   -0.05383
13   -0.23647
14   -0.237575
15   -0.237909
16   0.17382
17   0.178771
18   0.173078
19   0.175998
20   0.175551
21   0.178163
22   0.174317
23   0.176313
24   0.175509
25   0.182534
26   0.182449
27   0.183058

$$$$

