PCCDB-ID:  34072
public computational chemistry database (PCCDB) project, http://pccdb.org

 22 21  0  0  1  0  0  0  0  0999 V2000
    1.0100    0.1760    0.1466 C   0  0  0  0  0  0  0  0  0  0  0  0
    3.1357    1.5495    0.1209 C   0  0  0  0  0  0  0  0  0  0  0  0
    5.1382   -2.0522    2.0337 C   0  0  0  0  0  0  0  0  0  0  0  0
    3.1384   -0.8507    1.0202 C   0  0  0  0  0  0  0  0  0  0  0  0
    5.1091   -1.4789   -0.3955 C   0  0  0  0  0  0  0  0  0  0  0  0
    2.5385    0.1394   -0.0004 C   0  0  0  0  0  0  0  0  0  0  0  0
    4.6753   -1.0252    0.9838 C   0  0  2  0  0  0  0  0  0  0  0  0
    5.7789   -0.8289   -1.1682 O   0  0  0  0  0  0  0  0  0  0  0  0
    0.5569    0.8344   -0.6034 H   0  0  0  0  0  0  0  0  0  0  0  0
    0.7205    0.5522    1.1367 H   0  0  0  0  0  0  0  0  0  0  0  0
    0.5696   -0.8214    0.0276 H   0  0  0  0  0  0  0  0  0  0  0  0
    2.6401    2.2394   -0.5719 H   0  0  0  0  0  0  0  0  0  0  0  0
    4.2047    1.5594   -0.1149 H   0  0  0  0  0  0  0  0  0  0  0  0
    3.0045    1.9478    1.1360 H   0  0  0  0  0  0  0  0  0  0  0  0
    4.7845   -1.7655    3.0301 H   0  0  0  0  0  0  0  0  0  0  0  0
    6.2307   -2.1241    2.0700 H   0  0  0  0  0  0  0  0  0  0  0  0
    4.7403   -3.0511    1.8148 H   0  0  0  0  0  0  0  0  0  0  0  0
    2.6697   -1.8357    0.8755 H   0  0  0  0  0  0  0  0  0  0  0  0
    2.8623   -0.5313    2.0357 H   0  0  0  0  0  0  0  0  0  0  0  0
    4.7502   -2.4991   -0.6764 H   0  0  0  0  0  0  0  0  0  0  0  0
    2.7675   -0.2313   -1.0108 H   0  0  0  0  0  0  0  0  0  0  0  0
    5.1648   -0.0641    1.1724 H   0  0  0  0  0  0  0  0  0  0  0  0
  1 10  1  0  0  0  0
  2 14  1  0  0  0  0
  3 16  1  0  0  0  0
  3 15  1  0  0  0  0
  4 19  1  0  0  0  0
  5  7  1  0  0  0  0
  6  2  1  0  0  0  0
  6  1  1  0  0  0  0
  6  4  1  0  0  0  0
  7  4  1  0  0  0  0
  7 22  1  1  0  0  0
  7  3  1  0  0  0  0
  8  5  2  0  0  0  0
  9  1  1  0  0  0  0
 11  1  1  0  0  0  0
 12  2  1  0  0  0  0
 13  2  1  0  0  0  0
 17  3  1  0  0  0  0
 18  4  1  0  0  0  0
 20  5  1  0  0  0  0
 21  6  1  0  0  0  0
M  END
>  <HBA>
1

>  <HBD>
0

>  <TPSA>
17.07

>  <cid>
34072

>  <dipole>
2.61

>  <excitation_energy_1>
4.194

>  <excitation_energy_2>
6.462

>  <excitation_energy_3>
6.736

>  <excitation_energy_4>
6.86

>  <homo_energy>
-6.729

>  <homo_lumo_gap>
6.153

>  <logP>
1.867

>  <lumo_energy>
-0.577

>  <melting_point>
4.5

>  <molecular_refractivity>
35.96

>  <oscillator_strength_1>
0.0002

>  <oscillator_strength_2>
0.0091

>  <oscillator_strength_3>
0.0239

>  <oscillator_strength_4>
0.0064

>  <open_babel_can_smiles>
O=C[C@@H](CC(C)C)C

>  <mulliken_charges>
22
1   -0.442736
2   -0.451608
3   -0.46494
4   -0.26776
5   0.264637
6   -0.075202
7   -0.149124
8   -0.393535
9   0.144671
10   0.139618
11   0.139567
12   0.143472
13   0.163091
14   0.135258
15   0.156861
16   0.159508
17   0.148405
18   0.13058
19   0.136968
20   0.093893
21   0.13398
22   0.154396

>  <lowdin_charges>
22
1   -0.443992
2   -0.448102
3   -0.438376
4   -0.272423
5   0.057998
6   -0.123185
7   -0.160413
8   -0.219864
9   0.151747
10   0.145383
11   0.146702
12   0.152372
13   0.155776
14   0.143146
15   0.157156
16   0.155151
17   0.149826
18   0.141313
19   0.145132
20   0.108813
21   0.13968
22   0.15616

$$$$

