PCCDB-ID:  11596
public computational chemistry database (PCCDB) project, http://pccdb.org

 19 18  0  0  0  0  0  0  0  0999 V2000
    0.9475    0.2250   -0.2316 C   0  0  0  0  0  0  0  0  0  0  0  0
    2.4757    0.1679   -0.1473 C   0  0  0  0  0  0  0  0  0  0  0  0
    2.9805   -0.9581    0.7644 C   0  0  0  0  0  0  0  0  0  0  0  0
    4.4958   -1.0386    0.8698 C   0  0  0  0  0  0  0  0  0  0  0  0
    6.3364   -1.4508   -0.5524 C   0  0  0  0  0  0  0  0  0  0  0  0
    7.1361   -1.2758    0.4239 N   0  0  0  0  0  0  0  0  0  0  0  0
    6.6081   -1.7491   -1.8529 O   0  0  0  0  0  0  0  0  0  0  0  0
    5.0087   -1.3632   -0.4392 O   0  0  0  0  0  0  0  0  0  0  0  0
    0.6150    1.0373   -0.8876 H   0  0  0  0  0  0  0  0  0  0  0  0
    0.4990    0.3898    0.7562 H   0  0  0  0  0  0  0  0  0  0  0  0
    0.5375   -0.7119   -0.6284 H   0  0  0  0  0  0  0  0  0  0  0  0
    2.8602    1.1291    0.2230 H   0  0  0  0  0  0  0  0  0  0  0  0
    2.8988    0.0324   -1.1496 H   0  0  0  0  0  0  0  0  0  0  0  0
    2.5964   -1.9251    0.4126 H   0  0  0  0  0  0  0  0  0  0  0  0
    2.5879   -0.8178    1.7816 H   0  0  0  0  0  0  0  0  0  0  0  0
    4.8172   -1.8123    1.5749 H   0  0  0  0  0  0  0  0  0  0  0  0
    4.9365   -0.0899    1.1959 H   0  0  0  0  0  0  0  0  0  0  0  0
    8.1126   -1.3809    0.1499 H   0  0  0  0  0  0  0  0  0  0  0  0
    7.5695   -1.8223   -1.9523 H   0  0  0  0  0  0  0  0  0  0  0  0
  1  2  1  0  0  0  0
  1 10  1  0  0  0  0
  2 12  1  0  0  0  0
  2  3  1  0  0  0  0
  3  4  1  0  0  0  0
  3 15  1  0  0  0  0
  4 17  1  0  0  0  0
  4 16  1  0  0  0  0
  5  8  1  0  0  0  0
  5  6  2  0  0  0  0
  7  5  1  0  0  0  0
  8  4  1  0  0  0  0
  9  1  1  0  0  0  0
 11  1  1  0  0  0  0
 13  2  1  0  0  0  0
 14  3  1  0  0  0  0
 18  6  1  0  0  0  0
 19  7  1  0  0  0  0
M  END
>  <HBA>
3

>  <HBD>
1

>  <TPSA>
52.32

>  <cid>
11596

>  <dipole>
1.1

>  <excitation_energy_1>
5.918

>  <excitation_energy_2>
6.425

>  <excitation_energy_3>
7.16

>  <excitation_energy_4>
7.228

>  <homo_energy>
-7.029

>  <homo_lumo_gap>
8.332

>  <logP>
1.582

>  <lumo_energy>
1.303

>  <melting_point>
51.12

>  <molecular_refractivity>
30.53

>  <oscillator_strength_1>
0.0057

>  <oscillator_strength_2>
0.0448

>  <oscillator_strength_3>
0.0182

>  <oscillator_strength_4>
0.0005

>  <open_babel_can_smiles>
CCCCOC(=N)O

>  <mulliken_charges>
19
1   -0.442567
2   -0.250357
3   -0.274534
4   -0.02331
5   0.64643
6   -0.629641
7   -0.571377
8   -0.446291
9   0.144055
10   0.139536
11   0.143785
12   0.129106
13   0.157113
14   0.146035
15   0.135992
16   0.15762
17   0.156976
18   0.274539
19   0.406889

>  <lowdin_charges>
19
1   -0.444806
2   -0.274142
3   -0.281186
4   -0.11904
5   0.188395
6   -0.470789
7   -0.365025
8   -0.181442
9   0.15147
10   0.144709
11   0.147728
12   0.138863
13   0.150958
14   0.148797
15   0.147146
16   0.15446
17   0.151326
18   0.254463
19   0.358116

$$$$

