PCCDB-ID:  53147
public computational chemistry database (PCCDB) project, http://pccdb.org

 19 18  0  0  1  0  0  0  0  0999 V2000
    1.8287   -0.6904   -0.3869 C   0  0  0  0  0  0  0  0  0  0  0  0
    3.3144    3.1098    1.7614 C   0  0  0  0  0  0  0  0  0  0  0  0
    2.8559    0.4287   -0.2061 C   0  0  0  0  0  0  0  0  0  0  0  0
    2.5891    1.7847    1.9761 C   0  0  2  0  0  0  0  0  0  0  0  0
    4.1201   -0.1074    1.7368 N   0  0  0  0  0  0  0  0  0  0  0  0
    3.1952    0.6934    1.1973 N   0  0  0  0  0  0  0  0  0  0  0  0
    4.4409    0.1604    2.8963 O   0  0  0  0  0  0  0  0  0  0  0  0
    0.4445    0.9033    2.1191 O   0  0  0  0  0  0  0  0  0  0  0  0
    1.2465    1.9986    1.5846 O   0  0  0  0  0  0  0  0  0  0  0  0
    1.6406   -0.8504   -1.4550 H   0  0  0  0  0  0  0  0  0  0  0  0
    0.8847   -0.4420    0.1036 H   0  0  0  0  0  0  0  0  0  0  0  0
    2.2095   -1.6242    0.0387 H   0  0  0  0  0  0  0  0  0  0  0  0
    4.3603    2.9847    2.0548 H   0  0  0  0  0  0  0  0  0  0  0  0
    2.8620    3.8930    2.3769 H   0  0  0  0  0  0  0  0  0  0  0  0
    3.2734    3.4181    0.7119 H   0  0  0  0  0  0  0  0  0  0  0  0
    2.4846    1.3657   -0.6297 H   0  0  0  0  0  0  0  0  0  0  0  0
    3.7902    0.1754   -0.7153 H   0  0  0  0  0  0  0  0  0  0  0  0
    2.6410    1.4731    3.0211 H   0  0  0  0  0  0  0  0  0  0  0  0
   -0.1241    1.4043    2.7321 H   0  0  0  0  0  0  0  0  0  0  0  0
  1  3  1  0  0  0  0
  1 12  1  0  0  0  0
  1 11  1  0  0  0  0
  2  4  1  0  0  0  0
  2 13  1  0  0  0  0
  2 14  1  0  0  0  0
  3  6  1  0  0  0  0
  4 18  1  1  0  0  0
  5  7  2  0  0  0  0
  6  5  1  0  0  0  0
  6  4  1  0  0  0  0
  8 19  1  0  0  0  0
  9  4  1  0  0  0  0
  9  8  1  0  0  0  0
 10  1  1  0  0  0  0
 15  2  1  0  0  0  0
 16  3  1  0  0  0  0
 17  3  1  0  0  0  0
M  END
>  <HBA>
5

>  <HBD>
1

>  <TPSA>
62.13

>  <cid>
53147

>  <dipole>
3.55

>  <excitation_energy_1>
3.255

>  <excitation_energy_2>
4.881

>  <excitation_energy_3>
5.596

>  <excitation_energy_4>
5.748

>  <homo_energy>
-5.948

>  <homo_lumo_gap>
5.075

>  <logP>
0.825

>  <lumo_energy>
-0.873

>  <melting_point>
25.97

>  <molecular_refractivity>
31.63

>  <oscillator_strength_1>
0.0009

>  <oscillator_strength_2>
0.0011

>  <oscillator_strength_3>
0.0353

>  <oscillator_strength_4>
0.0777

>  <open_babel_can_smiles>
C[C@H](N(N=O)CC)OO

>  <mulliken_charges>
19
1   -0.45126
2   -0.463291
3   -0.133809
4   0.278528
5   0.154941
6   -0.238008
7   -0.390264
8   -0.396334
9   -0.305676
10   0.143418
11   0.186795
12   0.164853
13   0.184907
14   0.166707
15   0.163572
16   0.163704
17   0.170219
18   0.181077
19   0.419923

>  <lowdin_charges>
19
1   -0.452567
2   -0.448629
3   -0.19601
4   0.037177
5   0.054777
6   -0.053524
7   -0.281429
8   -0.33356
9   -0.151266
10   0.15159
11   0.168514
12   0.159938
13   0.175243
14   0.166283
15   0.160123
16   0.158927
17   0.161528
18   0.165193
19   0.357691

$$$$

