PCCDB-ID:  30333
public computational chemistry database (PCCDB) project, http://pccdb.org

 23 25  0  0  1  0  0  0  0  0999 V2000
    2.4733    0.8083    0.1147 C   0  0  0  0  0  0  0  0  0  0  0  0
    2.5171   -0.6048    0.2044 C   0  0  0  0  0  0  0  0  0  0  0  0
    1.2671    1.4574   -0.0268 C   0  0  0  0  0  0  0  0  0  0  0  0
    1.3550   -1.3413    0.1509 C   0  0  0  0  0  0  0  0  0  0  0  0
   -1.2143    1.3615   -0.2257 C   0  0  0  0  0  0  0  0  0  0  0  0
   -2.3746    0.6279   -0.2836 C   0  0  0  0  0  0  0  0  0  0  0  0
   -1.1231   -1.4301   -0.0548 C   0  0  0  0  0  0  0  0  0  0  0  0
   -4.5954   -1.3477   -1.3686 C   0  0  0  0  0  0  0  0  0  0  0  0
    0.0506    0.7274   -0.0866 C   0  0  0  0  0  0  0  0  0  0  0  0
    0.0945   -0.7021    0.0036 C   0  0  0  0  0  0  0  0  0  0  0  0
   -2.3366   -0.7913   -0.2076 C   0  0  0  0  0  0  0  0  0  0  0  0
   -3.5933   -1.5868   -0.3092 C   0  0  1  0  0  0  0  0  0  0  0  0
   -4.8316   -0.9149   -0.0271 O   0  0  0  0  0  0  0  0  0  0  0  0
    3.3974    1.3782    0.1593 H   0  0  0  0  0  0  0  0  0  0  0  0
    3.4748   -1.1061    0.3159 H   0  0  0  0  0  0  0  0  0  0  0  0
    1.2297    2.5422   -0.0951 H   0  0  0  0  0  0  0  0  0  0  0  0
    1.3868   -2.4263    0.2193 H   0  0  0  0  0  0  0  0  0  0  0  0
   -1.2515    2.4472   -0.2777 H   0  0  0  0  0  0  0  0  0  0  0  0
   -3.3396    1.1190   -0.3622 H   0  0  0  0  0  0  0  0  0  0  0  0
   -1.0850   -2.5156    0.0203 H   0  0  0  0  0  0  0  0  0  0  0  0
   -5.2250   -2.1683   -1.7146 H   0  0  0  0  0  0  0  0  0  0  0  0
   -4.4177   -0.5529   -2.0934 H   0  0  0  0  0  0  0  0  0  0  0  0
   -3.5345   -2.5974    0.0992 H   0  0  0  0  0  0  0  0  0  0  0  0
  1 14  1  0  0  0  0
  1  2  2  0  0  0  0
  2 15  1  0  0  0  0
  3  1  1  0  0  0  0
  4  2  1  0  0  0  0
  4 17  1  0  0  0  0
  5  9  1  0  0  0  0
  6  5  2  0  0  0  0
  6 11  1  0  0  0  0
  7 10  1  0  0  0  0
  7 20  1  0  0  0  0
  8 12  1  0  0  0  0
  8 13  1  0  0  0  0
  9  3  2  0  0  0  0
  9 10  1  0  0  0  0
 10  4  2  0  0  0  0
 11  7  2  0  0  0  0
 12 11  1  0  0  0  0
 12 13  1  0  0  0  0
 12 23  1  1  0  0  0
 16  3  1  0  0  0  0
 18  5  1  0  0  0  0
 19  6  1  0  0  0  0
 21  8  1  0  0  0  0
 22  8  1  0  0  0  0
M  END
>  <HBA>
1

>  <HBD>
0

>  <TPSA>
12.53

>  <cid>
30333

>  <dipole>
1.84

>  <excitation_energy_1>
4.31

>  <excitation_energy_2>
4.356

>  <excitation_energy_3>
5.466

>  <excitation_energy_4>
5.502

>  <homo_energy>
-5.84

>  <homo_lumo_gap>
4.765

>  <logP>
2.911

>  <lumo_energy>
-1.075

>  <melting_point>
65.45

>  <molecular_refractivity>
52.69

>  <oscillator_strength_1>
0.0382

>  <oscillator_strength_2>
0.0186

>  <oscillator_strength_3>
0.0239

>  <oscillator_strength_4>
0.1405

>  <open_babel_can_smiles>
c1ccc2c(c1)cc(cc2)[C@@H]1CO1

>  <mulliken_charges>
23
1   -0.134026
2   -0.137963
3   -0.192625
4   -0.186841
5   -0.192624
6   -0.195844
7   -0.269615
8   -0.108235
9   0.139676
10   0.133152
11   0.185887
12   0.016371
13   -0.443137
14   0.130747
15   0.130793
16   0.130787
17   0.129271
18   0.132301
19   0.149247
20   0.125216
21   0.154713
22   0.155187
23   0.147564

>  <lowdin_charges>
23
1   -0.158941
2   -0.157501
3   -0.153157
4   -0.154454
5   -0.149609
6   -0.160804
7   -0.163003
8   -0.163275
9   -0.001346
10   0.001051
11   -0.015079
12   -0.019119
13   -0.278684
14   0.159382
15   0.158991
16   0.156028
17   0.155356
18   0.156765
19   0.168631
20   0.153581
21   0.156286
22   0.155788
23   0.153115

$$$$

