PCCDB-ID:  11517
public computational chemistry database (PCCDB) project, http://pccdb.org

 38 37  0  0  0  0  0  0  0  0999 V2000
    2.3688    0.6158    1.2024 C   0  0  0  0  0  0  0  0  0  0  0  0
   13.1843   -7.0040    0.6717 C   0  0  0  0  0  0  0  0  0  0  0  0
    2.1169   -0.0500   -0.1557 C   0  0  0  0  0  0  0  0  0  0  0  0
   12.5582   -5.6065    0.7158 C   0  0  0  0  0  0  0  0  0  0  0  0
    2.7390   -1.4485   -0.3053 C   0  0  0  0  0  0  0  0  0  0  0  0
   11.0374   -5.6297    0.5105 C   0  0  0  0  0  0  0  0  0  0  0  0
    4.2741   -1.4704   -0.3092 C   0  0  0  0  0  0  0  0  0  0  0  0
    4.8550   -2.8747   -0.5214 C   0  0  0  0  0  0  0  0  0  0  0  0
    6.3881   -2.9020   -0.5327 C   0  0  0  0  0  0  0  0  0  0  0  0
    6.9531   -4.3199   -0.7576 C   0  0  0  0  0  0  0  0  0  0  0  0
   10.4273   -4.2326    0.5568 C   0  0  0  0  0  0  0  0  0  0  0  0
    8.4669   -4.3198   -0.7990 C   0  0  0  0  0  0  0  0  0  0  0  0
    9.1379   -4.3168   -1.8095 O   0  0  0  0  0  0  0  0  0  0  0  0
    8.9851   -4.2771    0.4530 O   0  0  0  0  0  0  0  0  0  0  0  0
    1.8540    1.5812    1.2686 H   0  0  0  0  0  0  0  0  0  0  0  0
    3.4346    0.8008    1.3772 H   0  0  0  0  0  0  0  0  0  0  0  0
    2.0022   -0.0131    2.0237 H   0  0  0  0  0  0  0  0  0  0  0  0
   14.2690   -6.9588    0.8206 H   0  0  0  0  0  0  0  0  0  0  0  0
   12.9996   -7.4898   -0.2939 H   0  0  0  0  0  0  0  0  0  0  0  0
   12.7665   -7.6504    1.4532 H   0  0  0  0  0  0  0  0  0  0  0  0
    2.4950    0.6004   -0.9576 H   0  0  0  0  0  0  0  0  0  0  0  0
    1.0333   -0.1304   -0.3161 H   0  0  0  0  0  0  0  0  0  0  0  0
   13.0200   -4.9752   -0.0562 H   0  0  0  0  0  0  0  0  0  0  0  0
   12.7911   -5.1320    1.6799 H   0  0  0  0  0  0  0  0  0  0  0  0
    2.3781   -1.8975   -1.2416 H   0  0  0  0  0  0  0  0  0  0  0  0
    2.3691   -2.0959    0.5042 H   0  0  0  0  0  0  0  0  0  0  0  0
   10.5650   -6.2498    1.2842 H   0  0  0  0  0  0  0  0  0  0  0  0
   10.8004   -6.0845   -0.4587 H   0  0  0  0  0  0  0  0  0  0  0  0
    4.6581   -1.0630    0.6362 H   0  0  0  0  0  0  0  0  0  0  0  0
    4.6431   -0.8023   -1.1018 H   0  0  0  0  0  0  0  0  0  0  0  0
    4.4776   -3.2846   -1.4697 H   0  0  0  0  0  0  0  0  0  0  0  0
    4.4857   -3.5453    0.2687 H   0  0  0  0  0  0  0  0  0  0  0  0
    6.7749   -2.5091    0.4163 H   0  0  0  0  0  0  0  0  0  0  0  0
    6.7631   -2.2398   -1.3248 H   0  0  0  0  0  0  0  0  0  0  0  0
    6.6000   -4.7194   -1.7131 H   0  0  0  0  0  0  0  0  0  0  0  0
    6.6130   -4.9826    0.0462 H   0  0  0  0  0  0  0  0  0  0  0  0
   10.8216   -3.6055   -0.2476 H   0  0  0  0  0  0  0  0  0  0  0  0
   10.6175   -3.7489    1.5194 H   0  0  0  0  0  0  0  0  0  0  0  0
  1 15  1  0  0  0  0
  1 16  1  0  0  0  0
  1 17  1  0  0  0  0
  2  4  1  0  0  0  0
  2 18  1  0  0  0  0
  2 20  1  0  0  0  0
  3  1  1  0  0  0  0
  4 24  1  0  0  0  0
  5  3  1  0  0  0  0
  5 26  1  0  0  0  0
  6 11  1  0  0  0  0
  6  4  1  0  0  0  0
  6 27  1  0  0  0  0
  7  5  1  0  0  0  0
  7 29  1  0  0  0  0
  8  7  1  0  0  0  0
  8 32  1  0  0  0  0
  9  8  1  0  0  0  0
  9 33  1  0  0  0  0
 10  9  1  0  0  0  0
 10 36  1  0  0  0  0
 11 38  1  0  0  0  0
 12 10  1  0  0  0  0
 12 14  1  0  0  0  0
 13 12  2  0  0  0  0
 14 11  1  0  0  0  0
 19  2  1  0  0  0  0
 21  3  1  0  0  0  0
 22  3  1  0  0  0  0
 23  4  1  0  0  0  0
 25  5  1  0  0  0  0
 28  6  1  0  0  0  0
 30  7  1  0  0  0  0
 31  8  1  0  0  0  0
 34  9  1  0  0  0  0
 35 10  1  0  0  0  0
 37 11  1  0  0  0  0
M  END
>  <HBA>
2

>  <HBD>
0

>  <TPSA>
26.3

>  <cid>
11517

>  <dipole>
1.72

>  <excitation_energy_1>
5.718

>  <excitation_energy_2>
7.031

>  <excitation_energy_3>
7.248

>  <excitation_energy_4>
7.304

>  <homo_energy>
-7.113

>  <homo_lumo_gap>
7.568

>  <logP>
3.69

>  <lumo_energy>
0.454

>  <melting_point>
-18.11

>  <molecular_refractivity>
61.08

>  <oscillator_strength_1>
0.0034

>  <oscillator_strength_2>
0.0129

>  <oscillator_strength_3>
0.0099

>  <oscillator_strength_4>
0.001

>  <open_babel_can_smiles>
CCCCCCCC(=O)OCCCC

>  <mulliken_charges>
38
1   -0.443559
2   -0.441017
3   -0.248711
4   -0.258508
5   -0.249803
6   -0.272419
7   -0.254755
8   -0.253193
9   -0.269638
10   -0.329618
11   -0.04384
12   0.600494
13   -0.478977
14   -0.462671
15   0.142589
16   0.146027
17   0.140468
18   0.144492
19   0.147691
20   0.143353
21   0.130188
22   0.131085
23   0.140289
24   0.131706
25   0.128004
26   0.12633
27   0.139686
28   0.160464
29   0.133577
30   0.12923
31   0.132083
32   0.130758
33   0.148587
34   0.147897
35   0.163312
36   0.157396
37   0.164998
38   0.146003

>  <lowdin_charges>
38
1   -0.446436
2   -0.441542
3   -0.271885
4   -0.272677
5   -0.276611
6   -0.288685
7   -0.277446
8   -0.27431
9   -0.270152
10   -0.296193
11   -0.13256
12   0.199607
13   -0.272833
14   -0.200177
15   0.149721
16   0.145553
17   0.146549
18   0.149008
19   0.149477
20   0.148443
21   0.13989
22   0.140056
23   0.144681
24   0.139052
25   0.140464
26   0.138156
27   0.146226
28   0.155517
29   0.140273
30   0.139715
31   0.139845
32   0.140267
33   0.147952
34   0.148684
35   0.163787
36   0.162077
37   0.157252
38   0.149253

$$$$

