PCCDB-ID:  53148
public computational chemistry database (PCCDB) project, http://pccdb.org

 13 12  0  0  0  0  0  0  0  0999 V2000
    0.7297   -0.4824    0.4109 C   0  0  0  0  0  0  0  0  0  0  0  0
    2.0323    1.6752    0.0724 C   0  0  0  0  0  0  0  0  0  0  0  0
    1.5187    0.1287   -1.7544 N   0  0  0  0  0  0  0  0  0  0  0  0
    1.4536    0.4499   -0.4389 N   0  0  0  0  0  0  0  0  0  0  0  0
    2.1262    0.9256   -2.4537 O   0  0  0  0  0  0  0  0  0  0  0  0
    3.5045    0.7325    1.5735 O   0  0  0  0  0  0  0  0  0  0  0  0
    3.4047    1.5885    0.3939 O   0  0  0  0  0  0  0  0  0  0  0  0
    1.3822   -0.8724    1.1968 H   0  0  0  0  0  0  0  0  0  0  0  0
    0.3811   -1.2981   -0.2256 H   0  0  0  0  0  0  0  0  0  0  0  0
   -0.1349    0.0048    0.8774 H   0  0  0  0  0  0  0  0  0  0  0  0
    1.4542    1.9932    0.9452 H   0  0  0  0  0  0  0  0  0  0  0  0
    2.0073    2.4249   -0.7220 H   0  0  0  0  0  0  0  0  0  0  0  0
    4.1113    0.0550    1.2244 H   0  0  0  0  0  0  0  0  0  0  0  0
  1 10  1  0  0  0  0
  1  8  1  0  0  0  0
  2  7  1  0  0  0  0
  2 11  1  0  0  0  0
  3  4  1  0  0  0  0
  4  2  1  0  0  0  0
  4  1  1  0  0  0  0
  5  3  2  0  0  0  0
  7  6  1  0  0  0  0
  9  1  1  0  0  0  0
 12  2  1  0  0  0  0
 13  6  1  0  0  0  0
M  END
>  <HBA>
5

>  <HBD>
1

>  <TPSA>
62.13

>  <cid>
53148

>  <dipole>
3.19

>  <excitation_energy_1>
3.232

>  <excitation_energy_2>
5.156

>  <excitation_energy_3>
5.367

>  <excitation_energy_4>
5.736

>  <homo_energy>
-6.34

>  <homo_lumo_gap>
5.094

>  <logP>
0.047

>  <lumo_energy>
-1.246

>  <melting_point>
27.3

>  <molecular_refractivity>
22.02

>  <oscillator_strength_1>
0.0011

>  <oscillator_strength_2>
0.0103

>  <oscillator_strength_3>
0.0308

>  <oscillator_strength_4>
0.009

>  <open_babel_can_smiles>
CN(N=O)COO

>  <mulliken_charges>
13
1   -0.310919
2   0.109811
3   0.162385
4   -0.233441
5   -0.359364
6   -0.413811
7   -0.271721
8   0.177234
9   0.189532
10   0.166614
11   0.163173
12   0.197896
13   0.422613

>  <lowdin_charges>
13
1   -0.360226
2   -0.096961
3   0.063574
4   -0.062227
5   -0.250416
6   -0.345524
7   -0.143577
8   0.163442
9   0.176625
10   0.157838
11   0.156797
12   0.181953
13   0.358701

$$$$

