PCCDB-ID:  35794
public computational chemistry database (PCCDB) project, http://pccdb.org

 16 16  0  0  0  0  0  0  0  0999 V2000
    1.1382   -0.9891    0.5790 C   0  0  0  0  0  0  0  0  0  0  0  0
    2.0475   -0.2257   -0.0261 C   0  0  0  0  0  0  0  0  0  0  0  0
    6.5129    0.6631   -0.1186 C   0  0  0  0  0  0  0  0  0  0  0  0
    2.9841    0.7015    0.7018 C   0  0  0  0  0  0  0  0  0  0  0  0
    5.3458    1.3695    0.0291 C   0  0  0  0  0  0  0  0  0  0  0  0
    5.0276   -0.7718    0.4315 C   0  0  0  0  0  0  0  0  0  0  0  0
    6.3063   -0.6749    0.1330 N   0  0  0  0  0  0  0  0  0  0  0  0
    4.3876    0.4378    0.3824 N   0  0  0  0  0  0  0  0  0  0  0  0
    0.4646   -1.6291    0.0164 H   0  0  0  0  0  0  0  0  0  0  0  0
    1.0281   -0.9989    1.6615 H   0  0  0  0  0  0  0  0  0  0  0  0
    2.1458   -0.2394   -1.1110 H   0  0  0  0  0  0  0  0  0  0  0  0
    7.4884    1.0393   -0.3968 H   0  0  0  0  0  0  0  0  0  0  0  0
    2.8267    0.6289    1.7850 H   0  0  0  0  0  0  0  0  0  0  0  0
    2.7880    1.7409    0.4134 H   0  0  0  0  0  0  0  0  0  0  0  0
    5.1044    2.4172   -0.0760 H   0  0  0  0  0  0  0  0  0  0  0  0
    4.5028   -1.6830    0.6849 H   0  0  0  0  0  0  0  0  0  0  0  0
  1 10  1  0  0  0  0
  2  1  2  0  0  0  0
  2  4  1  0  0  0  0
  3  5  2  0  0  0  0
  3  7  1  0  0  0  0
  4 13  1  0  0  0  0
  5  8  1  0  0  0  0
  6 16  1  0  0  0  0
  7  6  2  0  0  0  0
  8  6  1  0  0  0  0
  8  4  1  0  0  0  0
  9  1  1  0  0  0  0
 11  2  1  0  0  0  0
 12  3  1  0  0  0  0
 14  4  1  0  0  0  0
 15  5  1  0  0  0  0
M  END
>  <HBA>
2

>  <HBD>
0

>  <TPSA>
17.82

>  <cid>
35794

>  <dipole>
4.07

>  <excitation_energy_1>
4.968

>  <excitation_energy_2>
5.498

>  <excitation_energy_3>
5.783

>  <excitation_energy_4>
6.046

>  <homo_energy>
-5.976

>  <homo_lumo_gap>
5.875

>  <logP>
1.069

>  <lumo_energy>
-0.101

>  <melting_point>
-0.94

>  <molecular_refractivity>
32.63

>  <oscillator_strength_1>
0.0215

>  <oscillator_strength_2>
0.016

>  <oscillator_strength_3>
0.0616

>  <oscillator_strength_4>
0.0402

>  <open_babel_can_smiles>
C=CCn1cncc1

>  <mulliken_charges>
16
1   -0.335346
2   -0.051132
3   -0.03948
4   -0.193311
5   0.006113
6   0.197118
7   -0.436936
8   -0.375394
9   0.155371
10   0.147235
11   0.150453
12   0.13255
13   0.170297
14   0.170212
15   0.146336
16   0.155914

>  <lowdin_charges>
16
1   -0.322853
2   -0.155082
3   -0.157649
4   -0.181169
5   -0.179039
6   -0.106989
7   -0.186975
8   -0.011528
9   0.168274
10   0.157755
11   0.160595
12   0.15995
13   0.156861
14   0.164573
15   0.164683
16   0.168595

$$$$

