PCCDB-ID:  61302
public computational chemistry database (PCCDB) project, http://pccdb.org

 25 25  0  0  1  0  0  0  0  0999 V2000
    2.6525   -1.0407    0.8355 C   0  0  0  0  0  0  0  0  0  0  0  0
    4.5397    6.1230    2.4075 C   0  0  0  0  0  0  0  0  0  0  0  0
    3.1907    5.7864    2.5308 C   0  0  0  0  0  0  0  0  0  0  0  0
    5.3526    5.3954    1.5362 C   0  0  0  0  0  0  0  0  0  0  0  0
    2.6623    4.7285    1.7895 C   0  0  0  0  0  0  0  0  0  0  0  0
    4.8181    4.3396    0.7970 C   0  0  0  0  0  0  0  0  0  0  0  0
    3.0635    1.4736    0.8704 C   0  0  0  0  0  0  0  0  0  0  0  0
    2.9001    2.8181    0.1361 C   0  0  0  0  0  0  0  0  0  0  0  0
    2.5475    0.2748    0.0617 C   0  0  1  0  0  0  0  0  0  0  0  0
    3.4659    3.9880    0.9120 C   0  0  0  0  0  0  0  0  0  0  0  0
    3.2035    0.1758   -1.2075 O   0  0  0  0  0  0  0  0  0  0  0  0
    2.0607   -1.0110    1.7578 H   0  0  0  0  0  0  0  0  0  0  0  0
    3.6947   -1.2451    1.1173 H   0  0  0  0  0  0  0  0  0  0  0  0
    2.2963   -1.8724    0.2195 H   0  0  0  0  0  0  0  0  0  0  0  0
    4.9532    6.9479    2.9818 H   0  0  0  0  0  0  0  0  0  0  0  0
    2.5472    6.3502    3.2016 H   0  0  0  0  0  0  0  0  0  0  0  0
    6.4031    5.6535    1.4276 H   0  0  0  0  0  0  0  0  0  0  0  0
    1.6081    4.4764    1.8869 H   0  0  0  0  0  0  0  0  0  0  0  0
    5.4568    3.7832    0.1137 H   0  0  0  0  0  0  0  0  0  0  0  0
    2.5381    1.5123    1.8343 H   0  0  0  0  0  0  0  0  0  0  0  0
    4.1262    1.3122    1.1099 H   0  0  0  0  0  0  0  0  0  0  0  0
    1.8328    2.9862   -0.0603 H   0  0  0  0  0  0  0  0  0  0  0  0
    3.3863    2.7390   -0.8425 H   0  0  0  0  0  0  0  0  0  0  0  0
    1.4961    0.4516   -0.1992 H   0  0  0  0  0  0  0  0  0  0  0  0
    4.1383   -0.0210   -1.0308 H   0  0  0  0  0  0  0  0  0  0  0  0
  1 13  1  0  0  0  0
  1 12  1  0  0  0  0
  2  3  1  0  0  0  0
  2 15  1  0  0  0  0
  3 16  1  0  0  0  0
  4  2  2  0  0  0  0
  5 18  1  0  0  0  0
  5  3  2  0  0  0  0
  6 10  2  0  0  0  0
  6  4  1  0  0  0  0
  7 21  1  0  0  0  0
  7 20  1  0  0  0  0
  8  7  1  0  0  0  0
  8 10  1  0  0  0  0
  9 24  1  6  0  0  0
  9  1  1  0  0  0  0
  9  7  1  0  0  0  0
 10  5  1  0  0  0  0
 11 25  1  0  0  0  0
 11  9  1  0  0  0  0
 14  1  1  0  0  0  0
 17  4  1  0  0  0  0
 19  6  1  0  0  0  0
 22  8  1  0  0  0  0
 23  8  1  0  0  0  0
M  END
>  <HBA>
1

>  <HBD>
1

>  <TPSA>
20.23

>  <cid>
61302

>  <dipole>
1.5

>  <excitation_energy_1>
5.291

>  <excitation_energy_2>
5.864

>  <excitation_energy_3>
5.936

>  <excitation_energy_4>
6.166

>  <homo_energy>
-6.378

>  <homo_lumo_gap>
6.504

>  <logP>
2.0

>  <lumo_energy>
0.125

>  <melting_point>
23.78

>  <molecular_refractivity>
46.99

>  <oscillator_strength_1>
0.0013

>  <oscillator_strength_2>
0.0562

>  <oscillator_strength_3>
0.0019

>  <oscillator_strength_4>
0.0003

>  <open_babel_can_smiles>
C[C@@H](CCc1ccccc1)O

>  <mulliken_charges>
25
1   -0.458317
2   -0.132104
3   -0.127787
4   -0.127896
5   -0.181697
6   -0.180819
7   -0.263976
8   -0.349615
9   0.140047
10   0.173309
11   -0.618492
12   0.144952
13   0.132285
14   0.159121
15   0.126248
16   0.12672
17   0.126405
18   0.120079
19   0.118829
20   0.136133
21   0.123386
22   0.138789
23   0.158315
24   0.135582
25   0.380503

>  <lowdin_charges>
25
1   -0.459333
2   -0.163413
3   -0.157214
4   -0.154268
5   -0.167674
6   -0.170455
7   -0.287208
8   -0.272928
9   0.001617
10   0.001501
11   -0.462857
12   0.154136
13   0.142579
14   0.1595
15   0.156958
16   0.157567
17   0.154503
18   0.151321
19   0.153733
20   0.147181
21   0.136057
22   0.146363
23   0.156662
24   0.140193
25   0.335479

$$$$

