PCCDB-ID:  41052
public computational chemistry database (PCCDB) project, http://pccdb.org

 28 29  0  0  1  0  0  0  0  0999 V2000
    0.9498   -0.1003    0.1962 C   0  0  0  0  0  0  0  0  0  0  0  0
    6.8178    0.2244   -0.0629 C   0  0  0  0  0  0  0  0  0  0  0  0
    5.8172   -2.8126    1.5742 C   0  0  0  0  0  0  0  0  0  0  0  0
    3.1217    1.2069    0.0425 C   0  0  0  0  0  0  0  0  0  0  0  0
    4.5151    1.2771   -0.0240 C   0  0  0  0  0  0  0  0  0  0  0  0
    4.0529   -3.4112   -0.1969 C   0  0  0  0  0  0  0  0  0  0  0  0
    2.7888   -2.6173    0.2145 C   0  0  0  0  0  0  0  0  0  0  0  0
    2.4561   -0.0213    0.1292 C   0  0  0  0  0  0  0  0  0  0  0  0
    5.3114    0.1253    0.0052 C   0  0  0  0  0  0  0  0  0  0  0  0
    5.2563   -2.5007    0.1724 C   0  0  1  0  0  0  0  0  0  0  0  0
    3.2497   -1.1760    0.1430 C   0  0  0  0  0  0  0  0  0  0  0  0
    4.6475   -1.1076    0.0929 C   0  0  0  0  0  0  0  0  0  0  0  0
    0.4981    0.8964    0.1661 H   0  0  0  0  0  0  0  0  0  0  0  0
    0.6112   -0.5923    1.1175 H   0  0  0  0  0  0  0  0  0  0  0  0
    0.5365   -0.6791   -0.6403 H   0  0  0  0  0  0  0  0  0  0  0  0
    7.1329    1.2362   -0.3378 H   0  0  0  0  0  0  0  0  0  0  0  0
    7.2381   -0.4695   -0.8013 H   0  0  0  0  0  0  0  0  0  0  0  0
    7.2879   -0.0147    0.9000 H   0  0  0  0  0  0  0  0  0  0  0  0
    6.2403   -3.8239    1.6063 H   0  0  0  0  0  0  0  0  0  0  0  0
    5.0299   -2.7503    2.3348 H   0  0  0  0  0  0  0  0  0  0  0  0
    6.6071   -2.1090    1.8584 H   0  0  0  0  0  0  0  0  0  0  0  0
    2.5404    2.1263    0.0160 H   0  0  0  0  0  0  0  0  0  0  0  0
    4.9945    2.2505   -0.1052 H   0  0  0  0  0  0  0  0  0  0  0  0
    4.0386   -3.5712   -1.2816 H   0  0  0  0  0  0  0  0  0  0  0  0
    4.1115   -4.3969    0.2777 H   0  0  0  0  0  0  0  0  0  0  0  0
    2.4648   -2.8753    1.2341 H   0  0  0  0  0  0  0  0  0  0  0  0
    1.9340   -2.8282   -0.4396 H   0  0  0  0  0  0  0  0  0  0  0  0
    6.0710   -2.6244   -0.5537 H   0  0  0  0  0  0  0  0  0  0  0  0
  1 14  1  0  0  0  0
  2  9  1  0  0  0  0
  2 18  1  0  0  0  0
  3 19  1  0  0  0  0
  3 21  1  0  0  0  0
  3 20  1  0  0  0  0
  4  8  2  0  0  0  0
  5  9  2  0  0  0  0
  5  4  1  0  0  0  0
  6 10  1  0  0  0  0
  6  7  1  0  0  0  0
  6 25  1  0  0  0  0
  7 26  1  0  0  0  0
  8 11  1  0  0  0  0
  8  1  1  0  0  0  0
  9 12  1  0  0  0  0
 10 28  1  6  0  0  0
 10  3  1  0  0  0  0
 11  7  1  0  0  0  0
 12 11  2  0  0  0  0
 12 10  1  0  0  0  0
 13  1  1  0  0  0  0
 15  1  1  0  0  0  0
 16  2  1  0  0  0  0
 17  2  1  0  0  0  0
 22  4  1  0  0  0  0
 23  5  1  0  0  0  0
 24  6  1  0  0  0  0
 27  7  1  0  0  0  0
M  END
>  <HBA>
0

>  <HBD>
0

>  <TPSA>
0.0

>  <cid>
41052

>  <dipole>
0.46

>  <excitation_energy_1>
5.085

>  <excitation_energy_2>
5.577

>  <excitation_energy_3>
5.649

>  <excitation_energy_4>
5.753

>  <homo_energy>
-6.006

>  <homo_lumo_gap>
6.297

>  <logP>
3.353

>  <lumo_energy>
0.291

>  <melting_point>
42.92

>  <molecular_refractivity>
53.81

>  <oscillator_strength_1>
0.0004

>  <oscillator_strength_2>
0.007

>  <oscillator_strength_3>
0.0064

>  <oscillator_strength_4>
0.0227

>  <open_babel_can_smiles>
Cc1ccc(c2c1CC[C@@H]2C)C

>  <mulliken_charges>
28
1   -0.530404
2   -0.534435
3   -0.445662
4   -0.188065
5   -0.187379
6   -0.28303
7   -0.351974
8   0.124648
9   0.122856
10   -0.160716
11   0.06878
12   0.072044
13   0.151902
14   0.15749
15   0.157569
16   0.152353
17   0.156792
18   0.161228
19   0.141076
20   0.146544
21   0.147293
22   0.114314
23   0.113926
24   0.142263
25   0.132031
26   0.147573
27   0.143637
28   0.127348

>  <lowdin_charges>
28
1   -0.442013
2   -0.443138
3   -0.443633
4   -0.171908
5   -0.171575
6   -0.272601
7   -0.280166
8   -0.011906
9   -0.011335
10   -0.125933
11   -0.022189
12   -0.02353
13   0.15511
14   0.157818
15   0.158055
16   0.155323
17   0.15785
18   0.157504
19   0.146557
20   0.149946
21   0.150766
22   0.151643
23   0.150898
24   0.144978
25   0.143123
26   0.147814
27   0.150365
28   0.142178

$$$$

