PCCDB-ID:  8118
public computational chemistry database (PCCDB) project, http://pccdb.org

 21 20  0  0  0  0  0  0  0  0999 V2000
    3.3061    1.9426    2.2387 C   0  0  0  0  0  0  0  0  0  0  0  0
    5.2023   -4.0385    4.2207 C   0  0  0  0  0  0  0  0  0  0  0  0
    2.8093    0.6060    2.7951 C   0  0  0  0  0  0  0  0  0  0  0  0
    4.6195   -3.3430    2.9839 C   0  0  0  0  0  0  0  0  0  0  0  0
    2.8936   -0.5587    1.7997 C   0  0  0  0  0  0  0  0  0  0  0  0
    5.1913   -1.9354    2.7889 C   0  0  0  0  0  0  0  0  0  0  0  0
    4.5938   -1.0528    1.2897 S   0  0  0  0  0  0  0  0  0  0  0  0
    3.2197    2.7365    2.9890 H   0  0  0  0  0  0  0  0  0  0  0  0
    2.7196    2.2459    1.3624 H   0  0  0  0  0  0  0  0  0  0  0  0
    4.3549    1.8753    1.9323 H   0  0  0  0  0  0  0  0  0  0  0  0
    4.7812   -5.0427    4.3433 H   0  0  0  0  0  0  0  0  0  0  0  0
    4.9873   -3.4733    5.1360 H   0  0  0  0  0  0  0  0  0  0  0  0
    6.2916   -4.1411    4.1428 H   0  0  0  0  0  0  0  0  0  0  0  0
    1.7575    0.7038    3.1014 H   0  0  0  0  0  0  0  0  0  0  0  0
    3.3656    0.3523    3.7073 H   0  0  0  0  0  0  0  0  0  0  0  0
    3.5270   -3.2899    3.0774 H   0  0  0  0  0  0  0  0  0  0  0  0
    4.8235   -3.9380    2.0857 H   0  0  0  0  0  0  0  0  0  0  0  0
    2.3955   -0.2901    0.8607 H   0  0  0  0  0  0  0  0  0  0  0  0
    2.3760   -1.4416    2.1900 H   0  0  0  0  0  0  0  0  0  0  0  0
    6.2792   -1.9828    2.6631 H   0  0  0  0  0  0  0  0  0  0  0  0
    5.0052   -1.3115    3.6711 H   0  0  0  0  0  0  0  0  0  0  0  0
  1  3  1  0  0  0  0
  1  8  1  0  0  0  0
  2 11  1  0  0  0  0
  2 12  1  0  0  0  0
  3 14  1  0  0  0  0
  3 15  1  0  0  0  0
  4 16  1  0  0  0  0
  4  2  1  0  0  0  0
  5 19  1  0  0  0  0
  5  3  1  0  0  0  0
  6  4  1  0  0  0  0
  6 21  1  0  0  0  0
  7  5  1  0  0  0  0
  7  6  1  0  0  0  0
  9  1  1  0  0  0  0
 10  1  1  0  0  0  0
 13  2  1  0  0  0  0
 17  4  1  0  0  0  0
 18  5  1  0  0  0  0
 20  6  1  0  0  0  0
M  END
>  <HBA>
1

>  <HBD>
0

>  <TPSA>
25.3

>  <cid>
8118

>  <dipole>
1.78

>  <excitation_energy_1>
5.245

>  <excitation_energy_2>
5.347

>  <excitation_energy_3>
5.768

>  <excitation_energy_4>
5.948

>  <homo_energy>
-5.826

>  <homo_lumo_gap>
7.176

>  <logP>
2.54

>  <lumo_energy>
1.35

>  <melting_point>
-17.59

>  <molecular_refractivity>
38.55

>  <oscillator_strength_1>
0.0016

>  <oscillator_strength_2>
0.0163

>  <oscillator_strength_3>
0.0247

>  <oscillator_strength_4>
0.0062

>  <open_babel_can_smiles>
CCCSCCC

>  <mulliken_charges>
21
1   -0.442789
2   -0.446071
3   -0.245028
4   -0.242604
5   -0.414421
6   -0.414955
7   0.074775
8   0.14153
9   0.139325
10   0.170608
11   0.149142
12   0.14306
13   0.145518
14   0.137066
15   0.139799
16   0.139219
17   0.152119
18   0.170383
19   0.167243
20   0.170683
21   0.1654

>  <lowdin_charges>
21
1   -0.447807
2   -0.443361
3   -0.275559
4   -0.275834
5   -0.378721
6   -0.376777
7   0.08043
8   0.150295
9   0.146399
10   0.159458
11   0.152666
12   0.147259
13   0.146335
14   0.14334
15   0.142424
16   0.140215
17   0.151317
18   0.165285
19   0.156041
20   0.163211
21   0.153385

$$$$

