PCCDB-ID:  33130
public computational chemistry database (PCCDB) project, http://pccdb.org

 20 20  0  0  0  0  0  0  0  0999 V2000
   -1.4665   -0.1085   -0.0926 C   0  0  0  0  0  0  0  0  0  0  0  0
   -0.8373   -1.3467    0.0589 C   0  0  0  0  0  0  0  0  0  0  0  0
   -0.6975    1.0496   -0.1435 C   0  0  0  0  0  0  0  0  0  0  0  0
    0.5494   -1.4293    0.1580 C   0  0  0  0  0  0  0  0  0  0  0  0
    0.6985    0.9874   -0.0395 C   0  0  0  0  0  0  0  0  0  0  0  0
    1.3220   -0.2654    0.1074 C   0  0  0  0  0  0  0  0  0  0  0  0
    1.5533    2.2089   -0.0871 C   0  0  0  0  0  0  0  0  0  0  0  0
    1.5437    2.9621   -1.4330 N   0  0  0  0  0  0  0  0  0  0  0  0
    1.1126    3.2381    0.9500 N   0  0  0  0  0  0  0  0  0  0  0  0
    2.6843   -0.2874    0.1923 O   0  0  0  0  0  0  0  0  0  0  0  0
    2.3446    3.8856   -1.4982 O   0  0  0  0  0  0  0  0  0  0  0  0
    0.7844    2.5883   -2.3107 O   0  0  0  0  0  0  0  0  0  0  0  0
    0.1879    3.9820    0.6460 O   0  0  0  0  0  0  0  0  0  0  0  0
    1.6947    3.1934    2.0227 O   0  0  0  0  0  0  0  0  0  0  0  0
   -2.5469   -0.0469   -0.1718 H   0  0  0  0  0  0  0  0  0  0  0  0
   -1.4279   -2.2575    0.1005 H   0  0  0  0  0  0  0  0  0  0  0  0
   -1.1735    2.0170   -0.2606 H   0  0  0  0  0  0  0  0  0  0  0  0
    1.0377   -2.3946    0.2744 H   0  0  0  0  0  0  0  0  0  0  0  0
    2.5993    2.0027    0.1187 H   0  0  0  0  0  0  0  0  0  0  0  0
    2.9879   -1.2014    0.3053 H   0  0  0  0  0  0  0  0  0  0  0  0
  1  2  1  0  0  0  0
  2 16  1  0  0  0  0
  2  4  2  0  0  0  0
  3  1  2  0  0  0  0
  3  5  1  0  0  0  0
  4 18  1  0  0  0  0
  5  6  2  0  0  0  0
  6  4  1  0  0  0  0
  6 10  1  0  0  0  0
  7  5  1  0  0  0  0
  7 19  1  0  0  0  0
  7  9  1  0  0  0  0
  8  7  1  0  0  0  0
  9 14  2  0  0  0  0
 10 20  1  0  0  0  0
 11  8  2  0  0  0  0
 12  8  2  0  0  0  0
 13  9  2  0  0  0  0
 15  1  1  0  0  0  0
 17  3  1  0  0  0  0
M  END
>  <HBA>
1

>  <HBD>
1

>  <TPSA>
111.87

>  <cid>
33130

>  <dipole>
6.39

>  <excitation_energy_1>
3.512

>  <excitation_energy_2>
3.635

>  <excitation_energy_3>
3.915

>  <excitation_energy_4>
4.089

>  <homo_energy>
-6.868

>  <homo_lumo_gap>
4.446

>  <logP>
1.991

>  <lumo_energy>
-2.422

>  <melting_point>
109.64

>  <molecular_refractivity>
49.64

>  <oscillator_strength_1>
0.0036

>  <oscillator_strength_2>
0.0171

>  <oscillator_strength_3>
0.0003

>  <oscillator_strength_4>
0.0072

>  <open_babel_can_smiles>
O=N(=O)C(c1ccccc1O)N(=O)=O

>  <mulliken_charges>
20
1   -0.133104
2   -0.123347
3   -0.159742
4   -0.185302
5   0.124335
6   0.318586
7   -0.024213
8   0.47686
9   0.487365
10   -0.644026
11   -0.349673
12   -0.350496
13   -0.354227
14   -0.356705
15   0.147222
16   0.148582
17   0.176072
18   0.133862
19   0.24584
20   0.422112

>  <lowdin_charges>
20
1   -0.165921
2   -0.123598
3   -0.122223
4   -0.207441
5   -0.067587
6   0.115811
7   -0.035936
8   0.289036
9   0.297218
10   -0.372487
11   -0.221562
12   -0.20316
13   -0.225133
14   -0.208236
15   0.166177
16   0.168103
17   0.17985
18   0.161458
19   0.208608
20   0.367022

$$$$

