PCCDB-ID:  6653
public computational chemistry database (PCCDB) project, http://pccdb.org

 21 20  0  0  0  0  0  0  0  0999 V2000
    4.6208   -2.0435    3.4255 C   0  0  0  0  0  0  0  0  0  0  0  0
    7.2131    0.8540    1.0192 C   0  0  0  0  0  0  0  0  0  0  0  0
    6.6846   -0.3603   -1.1546 C   0  0  0  0  0  0  0  0  0  0  0  0
    4.7267   -2.4324    1.9588 C   0  0  0  0  0  0  0  0  0  0  0  0
    5.0489   -0.3972    0.7587 C   0  0  0  0  0  0  0  0  0  0  0  0
    6.1102    0.4423    0.0268 C   0  0  0  0  0  0  0  0  0  0  0  0
    3.8866   -0.1019    0.8955 O   0  0  0  0  0  0  0  0  0  0  0  0
    5.4144    1.5905   -0.4450 O   0  0  0  0  0  0  0  0  0  0  0  0
    5.6078   -1.5372    1.2379 O   0  0  0  0  0  0  0  0  0  0  0  0
    4.0121   -2.7801    3.9625 H   0  0  0  0  0  0  0  0  0  0  0  0
    4.1449   -1.0645    3.5300 H   0  0  0  0  0  0  0  0  0  0  0  0
    5.6106   -2.0099    3.8926 H   0  0  0  0  0  0  0  0  0  0  0  0
    7.7217   -0.0176    1.4397 H   0  0  0  0  0  0  0  0  0  0  0  0
    6.7841    1.4444    1.8351 H   0  0  0  0  0  0  0  0  0  0  0  0
    7.9596    1.4726    0.5048 H   0  0  0  0  0  0  0  0  0  0  0  0
    7.1758   -1.2768   -0.8175 H   0  0  0  0  0  0  0  0  0  0  0  0
    7.4240    0.2493   -1.6899 H   0  0  0  0  0  0  0  0  0  0  0  0
    5.8860   -0.6219   -1.8560 H   0  0  0  0  0  0  0  0  0  0  0  0
    3.7469   -2.4242    1.4753 H   0  0  0  0  0  0  0  0  0  0  0  0
    5.1845   -3.4174    1.8368 H   0  0  0  0  0  0  0  0  0  0  0  0
    6.0665    2.1390   -0.9087 H   0  0  0  0  0  0  0  0  0  0  0  0
  1 11  1  0  0  0  0
  1 12  1  0  0  0  0
  1 10  1  0  0  0  0
  2 13  1  0  0  0  0
  2 14  1  0  0  0  0
  3 16  1  0  0  0  0
  3  6  1  0  0  0  0
  4  1  1  0  0  0  0
  5  7  2  0  0  0  0
  5  9  1  0  0  0  0
  6  5  1  0  0  0  0
  6  2  1  0  0  0  0
  8  6  1  0  0  0  0
  9  4  1  0  0  0  0
 15  2  1  0  0  0  0
 17  3  1  0  0  0  0
 18  3  1  0  0  0  0
 19  4  1  0  0  0  0
 20  4  1  0  0  0  0
 21  8  1  0  0  0  0
M  END
>  <HBA>
3

>  <HBD>
1

>  <TPSA>
46.53

>  <cid>
6653

>  <dipole>
3.1

>  <excitation_energy_1>
5.716

>  <excitation_energy_2>
6.572

>  <excitation_energy_3>
6.686

>  <excitation_energy_4>
6.695

>  <homo_energy>
-7.165

>  <homo_lumo_gap>
7.597

>  <logP>
0.32

>  <lumo_energy>
0.433

>  <melting_point>
15.52

>  <molecular_refractivity>
33.44

>  <oscillator_strength_1>
0.0022

>  <oscillator_strength_2>
0.0187

>  <oscillator_strength_3>
0.0208

>  <oscillator_strength_4>
0.01

>  <open_babel_can_smiles>
CCOC(=O)C(O)(C)C

>  <mulliken_charges>
21
1   -0.462222
2   -0.463625
3   -0.463127
4   -0.044201
5   0.633054
6   0.22702
7   -0.466124
8   -0.618032
9   -0.473468
10   0.150684
11   0.178756
12   0.155291
13   0.164245
14   0.166404
15   0.136609
16   0.16482
17   0.135879
18   0.166574
19   0.172283
20   0.151006
21   0.388173

>  <lowdin_charges>
21
1   -0.455648
2   -0.45735
3   -0.456393
4   -0.127264
5   0.189843
6   0.098998
7   -0.239285
8   -0.439051
9   -0.200334
10   0.160302
11   0.166271
12   0.154668
13   0.16361
14   0.163111
15   0.148769
16   0.163569
17   0.148429
18   0.163154
19   0.159301
20   0.150828
21   0.344474

$$$$

