PCCDB-ID:  66551
public computational chemistry database (PCCDB) project, http://pccdb.org

 27 28  0  0  0  0  0  0  0  0999 V2000
    0.9967    0.4142    0.0680 C   0  0  0  0  0  0  0  0  0  0  0  0
    7.4204   -1.0537    0.3139 C   0  0  0  0  0  0  0  0  0  0  0  0
    6.6812   -2.2587    0.3108 C   0  0  0  0  0  0  0  0  0  0  0  0
    6.7577    0.1511    0.2762 C   0  0  0  0  0  0  0  0  0  0  0  0
    5.3036   -2.2383    0.2750 C   0  0  0  0  0  0  0  0  0  0  0  0
    3.2813    1.4830    0.1305 C   0  0  0  0  0  0  0  0  0  0  0  0
    4.6528    1.4469    0.1825 C   0  0  0  0  0  0  0  0  0  0  0  0
    2.3087   -2.2090    0.1958 C   0  0  0  0  0  0  0  0  0  0  0  0
    2.5046    0.2952    0.1319 C   0  0  0  0  0  0  0  0  0  0  0  0
    5.3394    0.2085    0.2330 C   0  0  0  0  0  0  0  0  0  0  0  0
    4.5777   -1.0097    0.2374 C   0  0  0  0  0  0  0  0  0  0  0  0
    3.1421   -0.9416    0.1957 C   0  0  0  0  0  0  0  0  0  0  0  0
    1.9757   -2.7844   -1.1907 C   0  0  0  0  0  0  0  0  0  0  0  0
    0.9300   -3.3298   -1.4411 O   0  0  0  0  0  0  0  0  0  0  0  0
    2.9454   -2.6867   -2.1323 O   0  0  0  0  0  0  0  0  0  0  0  0
    0.6982    1.4506   -0.1138 H   0  0  0  0  0  0  0  0  0  0  0  0
    0.5246    0.0979    1.0076 H   0  0  0  0  0  0  0  0  0  0  0  0
    0.5644   -0.2016   -0.7286 H   0  0  0  0  0  0  0  0  0  0  0  0
    8.5058   -1.0834    0.3451 H   0  0  0  0  0  0  0  0  0  0  0  0
    7.2030   -3.2113    0.3380 H   0  0  0  0  0  0  0  0  0  0  0  0
    7.3131    1.0860    0.2755 H   0  0  0  0  0  0  0  0  0  0  0  0
    4.7712   -3.1838    0.2714 H   0  0  0  0  0  0  0  0  0  0  0  0
    2.7680    2.4400    0.0831 H   0  0  0  0  0  0  0  0  0  0  0  0
    5.2292    2.3688    0.1796 H   0  0  0  0  0  0  0  0  0  0  0  0
    1.3501   -2.0541    0.6927 H   0  0  0  0  0  0  0  0  0  0  0  0
    2.8094   -3.0065    0.7572 H   0  0  0  0  0  0  0  0  0  0  0  0
    3.6969   -2.1729   -1.7862 H   0  0  0  0  0  0  0  0  0  0  0  0
  1  9  1  0  0  0  0
  1 17  1  0  0  0  0
  2 19  1  0  0  0  0
  3  2  1  0  0  0  0
  3 20  1  0  0  0  0
  4  2  2  0  0  0  0
  5  3  2  0  0  0  0
  6  9  2  0  0  0  0
  6  7  1  0  0  0  0
  7 10  2  0  0  0  0
  8 25  1  0  0  0  0
  8 26  1  0  0  0  0
  9 12  1  0  0  0  0
 10 11  1  0  0  0  0
 10  4  1  0  0  0  0
 11  5  1  0  0  0  0
 12  8  1  0  0  0  0
 12 11  2  0  0  0  0
 13  8  1  0  0  0  0
 14 13  2  0  0  0  0
 15 27  1  0  0  0  0
 15 13  1  0  0  0  0
 16  1  1  0  0  0  0
 18  1  1  0  0  0  0
 21  4  1  0  0  0  0
 22  5  1  0  0  0  0
 23  6  1  0  0  0  0
 24  7  1  0  0  0  0
M  END
>  <HBA>
2

>  <HBD>
1

>  <TPSA>
37.3

>  <cid>
66551

>  <dipole>
4.76

>  <excitation_energy_1>
4.165

>  <excitation_energy_2>
4.343

>  <excitation_energy_3>
5.157

>  <excitation_energy_4>
5.299

>  <homo_energy>
-6.087

>  <homo_lumo_gap>
4.612

>  <logP>
2.775

>  <lumo_energy>
-1.475

>  <melting_point>
133.82

>  <molecular_refractivity>
60.46

>  <oscillator_strength_1>
0.0805

>  <oscillator_strength_2>
0.0055

>  <oscillator_strength_3>
0.018

>  <oscillator_strength_4>
0.0395

>  <open_babel_can_smiles>
OC(=O)Cc1c(C)ccc2c1cccc2

>  <mulliken_charges>
27
1   -0.549207
2   -0.133676
3   -0.130057
4   -0.192271
5   -0.216699
6   -0.182906
7   -0.187371
8   -0.469885
9   0.137328
10   0.144523
11   0.05994
12   0.00306
13   0.599333
14   -0.444953
15   -0.568816
16   0.161216
17   0.170948
18   0.1834
19   0.137403
20   0.13886
21   0.136592
22   0.13674
23   0.131465
24   0.136061
25   0.187836
26   0.190636
27   0.420499

>  <lowdin_charges>
27
1   -0.447037
2   -0.154661
3   -0.150579
4   -0.150206
5   -0.182573
6   -0.1623
7   -0.152085
8   -0.31956
9   0.001638
10   -0.000816
11   -0.020329
12   -0.039953
13   0.189849
14   -0.243164
15   -0.355158
16   0.159917
17   0.164791
18   0.171445
19   0.160351
20   0.163041
21   0.161067
22   0.160542
23   0.159927
24   0.16156
25   0.182058
26   0.179331
27   0.362907

$$$$

