PCCDB-ID:  67075
public computational chemistry database (PCCDB) project, http://pccdb.org

 25 25  0  0  0  0  0  0  0  0999 V2000
    4.5166   -2.6313   -2.7720 C   0  0  0  0  0  0  0  0  0  0  0  0
   -1.2640   -6.9706   -1.5450 C   0  0  0  0  0  0  0  0  0  0  0  0
   -0.0790   -3.5217   -1.3301 C   0  0  0  0  0  0  0  0  0  0  0  0
    1.0745   -2.7978   -1.0967 C   0  0  0  0  0  0  0  0  0  0  0  0
    1.1579   -5.5765   -1.1142 C   0  0  0  0  0  0  0  0  0  0  0  0
    4.3387   -2.2676   -1.3187 C   0  0  0  0  0  0  0  0  0  0  0  0
   -0.0494   -4.9285   -1.3366 C   0  0  0  0  0  0  0  0  0  0  0  0
    2.3306   -3.4162   -0.8966 C   0  0  0  0  0  0  0  0  0  0  0  0
    2.3291   -4.8269   -0.9148 C   0  0  0  0  0  0  0  0  0  0  0  0
    3.4021   -2.6078   -0.5343 N   0  0  0  0  0  0  0  0  0  0  0  0
    3.5512   -5.6075   -0.7093 N   0  0  0  0  0  0  0  0  0  0  0  0
    5.3002   -1.4694   -0.7905 O   0  0  0  0  0  0  0  0  0  0  0  0
    3.4291   -6.7665   -0.3052 O   0  0  0  0  0  0  0  0  0  0  0  0
    4.6390   -5.0840   -0.9651 O   0  0  0  0  0  0  0  0  0  0  0  0
   -1.2408   -5.5505   -1.5637 O   0  0  0  0  0  0  0  0  0  0  0  0
    4.6599   -1.7290   -3.3795 H   0  0  0  0  0  0  0  0  0  0  0  0
    3.6492   -3.1746   -3.1489 H   0  0  0  0  0  0  0  0  0  0  0  0
    5.3972   -3.2734   -2.8841 H   0  0  0  0  0  0  0  0  0  0  0  0
   -2.3009   -7.2549   -1.7313 H   0  0  0  0  0  0  0  0  0  0  0  0
   -0.9467   -7.3646   -0.5708 H   0  0  0  0  0  0  0  0  0  0  0  0
   -0.6237   -7.3934   -2.3304 H   0  0  0  0  0  0  0  0  0  0  0  0
   -1.0277   -3.0209   -1.4963 H   0  0  0  0  0  0  0  0  0  0  0  0
    1.0398   -1.7140   -1.0525 H   0  0  0  0  0  0  0  0  0  0  0  0
    1.2423   -6.6536   -1.0887 H   0  0  0  0  0  0  0  0  0  0  0  0
    5.9777   -1.2953   -1.4620 H   0  0  0  0  0  0  0  0  0  0  0  0
  1  6  1  0  0  0  0
  2 20  1  0  0  0  0
  3  4  1  0  0  0  0
  4 23  1  0  0  0  0
  4  8  2  0  0  0  0
  5 24  1  0  0  0  0
  5  9  2  0  0  0  0
  6 12  1  0  0  0  0
  6 10  2  0  0  0  0
  7  3  2  0  0  0  0
  7  5  1  0  0  0  0
  8 10  1  0  0  0  0
  9  8  1  0  0  0  0
  9 11  1  0  0  0  0
 11 13  2  0  0  0  0
 14 11  2  0  0  0  0
 15  2  1  0  0  0  0
 15  7  1  0  0  0  0
 16  1  1  0  0  0  0
 17  1  1  0  0  0  0
 18  1  1  0  0  0  0
 19  2  1  0  0  0  0
 21  2  1  0  0  0  0
 22  3  1  0  0  0  0
 25 12  1  0  0  0  0
M  END
>  <HBA>
3

>  <HBD>
1

>  <TPSA>
84.15

>  <cid>
67075

>  <dipole>
4.47

>  <excitation_energy_1>
3.061

>  <excitation_energy_2>
3.665

>  <excitation_energy_3>
4.115

>  <excitation_energy_4>
4.572

>  <homo_energy>
-5.853

>  <homo_lumo_gap>
3.752

>  <logP>
2.158

>  <lumo_energy>
-2.101

>  <melting_point>
104.5

>  <molecular_refractivity>
56.07

>  <oscillator_strength_1>
0.0604

>  <oscillator_strength_2>
0.0034

>  <oscillator_strength_3>
0.0057

>  <oscillator_strength_4>
0.0242

>  <open_babel_can_smiles>
COc1ccc(c(c1)N(=O)=O)/N=C(/O)\C

>  <mulliken_charges>
25
1   -0.544516
2   -0.219722
3   -0.1543
4   -0.163396
5   -0.239474
6   0.517323
7   0.377429
8   0.217139
9   0.255017
10   -0.457915
11   0.360167
12   -0.56404
13   -0.398079
14   -0.410517
15   -0.511338
16   0.164323
17   0.187168
18   0.200759
19   0.173959
20   0.161386
21   0.155576
22   0.151999
23   0.147557
24   0.179186
25   0.414309

>  <lowdin_charges>
25
1   -0.479756
2   -0.276346
3   -0.152119
4   -0.159518
5   -0.197335
6   0.169646
7   0.090394
8   0.051967
9   -0.016677
10   -0.166574
11   0.307717
12   -0.346334
13   -0.255348
14   -0.256296
15   -0.197688
16   0.164841
17   0.180212
18   0.184554
19   0.164383
20   0.150275
21   0.148523
22   0.174146
23   0.16903
24   0.186118
25   0.362185

$$$$

