PCCDB-ID:  20896
public computational chemistry database (PCCDB) project, http://pccdb.org

 29 28  0  0  0  0  0  0  0  0999 V2000
    4.4170   -1.5942    1.9663 C   0  0  0  0  0  0  0  0  0  0  0  0
    5.1752   -0.4246    1.3299 C   0  0  0  0  0  0  0  0  0  0  0  0
    4.2455    0.6388    0.7323 C   0  0  0  0  0  0  0  0  0  0  0  0
    4.9929    1.8168    0.0961 C   0  0  0  0  0  0  0  0  0  0  0  0
    4.0451    2.8606   -0.4976 C   0  0  0  0  0  0  0  0  0  0  0  0
    6.2895    5.8585   -2.7047 C   0  0  0  0  0  0  0  0  0  0  0  0
    4.1325    4.9979   -1.6913 C   0  0  0  0  0  0  0  0  0  0  0  0
    7.0061    4.8191   -2.4474 N   0  0  0  0  0  0  0  0  0  0  0  0
    6.7101    7.0034   -3.3930 N   0  0  0  0  0  0  0  0  0  0  0  0
    2.8736    5.2704   -1.7257 N   0  0  0  0  0  0  0  0  0  0  0  0
    4.7854    3.9688   -1.0728 N   0  0  0  0  0  0  0  0  0  0  0  0
    4.9556    5.9376   -2.3551 N   0  0  0  0  0  0  0  0  0  0  0  0
    5.1049   -2.3379    2.3836 H   0  0  0  0  0  0  0  0  0  0  0  0
    3.7833   -2.1030    1.2293 H   0  0  0  0  0  0  0  0  0  0  0  0
    3.7665   -1.2484    2.7790 H   0  0  0  0  0  0  0  0  0  0  0  0
    5.8434   -0.8047    0.5444 H   0  0  0  0  0  0  0  0  0  0  0  0
    5.8261    0.0424    2.0827 H   0  0  0  0  0  0  0  0  0  0  0  0
    3.5754    1.0163    1.5187 H   0  0  0  0  0  0  0  0  0  0  0  0
    3.5969    0.1692   -0.0222 H   0  0  0  0  0  0  0  0  0  0  0  0
    5.6616    1.4453   -0.6935 H   0  0  0  0  0  0  0  0  0  0  0  0
    5.6345    2.3003    0.8455 H   0  0  0  0  0  0  0  0  0  0  0  0
    3.3826    3.2412    0.2936 H   0  0  0  0  0  0  0  0  0  0  0  0
    3.3944    2.3860   -1.2523 H   0  0  0  0  0  0  0  0  0  0  0  0
    7.9809    4.9623   -2.7067 H   0  0  0  0  0  0  0  0  0  0  0  0
    7.7135    7.0628   -3.5122 H   0  0  0  0  0  0  0  0  0  0  0  0
    6.3248    7.8759   -3.0474 H   0  0  0  0  0  0  0  0  0  0  0  0
    2.3309    4.5687   -1.2251 H   0  0  0  0  0  0  0  0  0  0  0  0
    5.7480    3.8213   -1.3820 H   0  0  0  0  0  0  0  0  0  0  0  0
    4.3875    6.6266   -2.8304 H   0  0  0  0  0  0  0  0  0  0  0  0
  1 13  1  0  0  0  0
  1 15  1  0  0  0  0
  2  1  1  0  0  0  0
  2 17  1  0  0  0  0
  3  2  1  0  0  0  0
  3 18  1  0  0  0  0
  4  3  1  0  0  0  0
  4 21  1  0  0  0  0
  5  4  1  0  0  0  0
  5 22  1  0  0  0  0
  6  8  1  0  0  0  0
  6 12  1  0  0  0  0
  7 11  1  0  0  0  0
  9 26  1  0  0  0  0
  9  6  2  0  0  0  0
 10  7  2  0  0  0  0
 10 27  1  0  0  0  0
 11  5  1  0  0  0  0
 12  7  1  0  0  0  0
 14  1  1  0  0  0  0
 16  2  1  0  0  0  0
 19  3  1  0  0  0  0
 20  4  1  0  0  0  0
 23  5  1  0  0  0  0
 24  8  1  0  0  0  0
 25  9  1  0  0  0  0
 28 11  1  0  0  0  0
 29 12  1  0  0  0  0
M  RAD  1   8   2
M  END
>  <HBA>
5

>  <HBD>
3

>  <TPSA>
102.78

>  <cid>
20896

>  <dipole>
3.12

>  <excitation_energy_1>
4.903

>  <excitation_energy_2>
5.554

>  <excitation_energy_3>
5.623

>  <excitation_energy_4>
5.848

>  <homo_energy>
-5.581

>  <homo_lumo_gap>
6.452

>  <logP>
1.866

>  <lumo_energy>
0.871

>  <melting_point>
171.25

>  <molecular_refractivity>
51.26

>  <oscillator_strength_1>
0.0011

>  <oscillator_strength_2>
0.031

>  <oscillator_strength_3>
0.0033

>  <oscillator_strength_4>
0.0782

>  <open_babel_can_smiles>
CCCCCNC(=N)NC(=[NH2])[NH]

>  <mulliken_charges>
29
1   -0.44209
2   -0.247296
3   -0.250471
4   -0.289437
5   -0.105473
6   0.659868
7   0.661893
8   -0.688844
9   -0.757102
10   -0.692885
11   -0.642653
12   -0.666047
13   0.143
14   0.14236
15   0.142287
16   0.132664
17   0.132389
18   0.13087
19   0.131528
20   0.142715
21   0.146018
22   0.143019
23   0.138643
24   0.277175
25   0.325418
26   0.329102
27   0.281274
28   0.378427
29   0.343648

>  <lowdin_charges>
29
1   -0.447561
2   -0.273818
3   -0.275945
4   -0.280986
5   -0.195922
6   0.147754
7   0.137982
8   -0.488688
9   -0.499685
10   -0.50131
11   -0.309797
12   -0.259488
13   0.151171
14   0.148074
15   0.147581
16   0.141106
17   0.141202
18   0.140479
19   0.140881
20   0.14598
21   0.148373
22   0.141491
23   0.134919
24   0.253275
25   0.277655
26   0.28256
27   0.253835
28   0.299321
29   0.29956

$$$$

