PCCDB-ID:  58735
public computational chemistry database (PCCDB) project, http://pccdb.org

 18 19  0  0  0  0  0  0  0  0999 V2000
    0.7349    1.1316    0.1003 C   0  0  0  0  0  0  0  0  0  0  0  0
   -0.7478    0.9707   -0.1225 C   0  0  0  0  0  0  0  0  0  0  0  0
   -4.1462   -1.4786   -0.5495 C   0  0  0  0  0  0  0  0  0  0  0  0
   -3.7601   -2.7846   -0.4247 C   0  0  0  0  0  0  0  0  0  0  0  0
    0.4395   -1.0327    0.1599 C   0  0  0  0  0  0  0  0  0  0  0  0
   -1.9969   -1.1833   -0.2179 C   0  0  0  0  0  0  0  0  0  0  0  0
    1.3875    0.0410    0.2561 N   0  0  0  0  0  0  0  0  0  0  0  0
   -3.1399   -0.5657   -0.4314 N   0  0  0  0  0  0  0  0  0  0  0  0
   -0.8313   -0.4762   -0.0622 N   0  0  0  0  0  0  0  0  0  0  0  0
   -4.5984   -3.9373   -0.5052 N   0  0  0  0  0  0  0  0  0  0  0  0
    0.6700   -2.2155    0.2499 O   0  0  0  0  0  0  0  0  0  0  0  0
   -5.8009   -3.7534   -0.7070 O   0  0  0  0  0  0  0  0  0  0  0  0
   -4.0535   -5.0378   -0.3659 O   0  0  0  0  0  0  0  0  0  0  0  0
   -2.0399   -2.9383   -0.1417 S   0  0  0  0  0  0  0  0  0  0  0  0
    1.2251    2.1023    0.1289 H   0  0  0  0  0  0  0  0  0  0  0  0
   -1.0787    1.3644   -1.0914 H   0  0  0  0  0  0  0  0  0  0  0  0
   -1.3505    1.4527    0.6571 H   0  0  0  0  0  0  0  0  0  0  0  0
   -5.1635   -1.1541   -0.7281 H   0  0  0  0  0  0  0  0  0  0  0  0
  1 15  1  0  0  0  0
  1  7  2  0  0  0  0
  2  9  1  0  0  0  0
  2  1  1  0  0  0  0
  2 17  1  0  0  0  0
  3  8  1  0  0  0  0
  3  4  2  0  0  0  0
  4 14  1  0  0  0  0
  5 11  2  0  0  0  0
  5  7  1  0  0  0  0
  6 14  1  0  0  0  0
  6  9  1  0  0  0  0
  8  6  2  0  0  0  0
  9  5  1  0  0  0  0
 10  4  1  0  0  0  0
 10 13  2  0  0  0  0
 12 10  2  0  0  0  0
 16  2  1  0  0  0  0
 18  3  1  0  0  0  0
M  END
>  <HBA>
5

>  <HBD>
0

>  <TPSA>
119.62

>  <cid>
58735

>  <dipole>
7.56

>  <excitation_energy_1>
3.695

>  <excitation_energy_2>
3.757

>  <excitation_energy_3>
4.113

>  <excitation_energy_4>
4.122

>  <homo_energy>
-7.034

>  <homo_lumo_gap>
4.245

>  <logP>
1.086

>  <lumo_energy>
-2.789

>  <melting_point>
138.7

>  <molecular_refractivity>
58.37

>  <oscillator_strength_1>
0.0

>  <oscillator_strength_2>
0.306

>  <oscillator_strength_3>
0.0005

>  <oscillator_strength_4>
0.0388

>  <open_babel_can_smiles>
O=C1N=CCN1c1ncc(s1)N(=O)=O

>  <mulliken_charges>
18
1   0.083892
2   -0.169164
3   0.081991
4   0.017441
5   0.726776
6   0.322052
7   -0.391841
8   -0.47252
9   -0.527924
10   0.381677
11   -0.454054
12   -0.404662
13   -0.385963
14   0.372794
15   0.189998
16   0.2152
17   0.215019
18   0.199288

>  <lowdin_charges>
18
1   -0.034493
2   -0.202645
3   -0.077428
4   -0.183164
5   0.180336
6   -0.02235
7   -0.132793
8   -0.190539
9   -0.068943
10   0.309932
11   -0.212517
12   -0.248894
13   -0.24702
14   0.376708
15   0.181666
16   0.189631
17   0.190831
18   0.191682

$$$$

