PCCDB-ID:  38321
public computational chemistry database (PCCDB) project, http://pccdb.org

 30 30  0  0  0  0  0  0  0  0999 V2000
    3.8102   -2.3509    0.4681 C   0  0  0  0  0  0  0  0  0  0  0  0
    1.9557   -1.2385   -0.7886 C   0  0  0  0  0  0  0  0  0  0  0  0
    6.0851    3.5762   -2.5562 C   0  0  0  0  0  0  0  0  0  0  0  0
    6.5164    1.8042   -4.1117 C   0  0  0  0  0  0  0  0  0  0  0  0
    5.3479    2.7080   -1.7653 C   0  0  0  0  0  0  0  0  0  0  0  0
    5.7866    0.9153   -3.3213 C   0  0  0  0  0  0  0  0  0  0  0  0
    7.5088    4.0943   -4.5980 C   0  0  0  0  0  0  0  0  0  0  0  0
    4.4132   -0.9262   -1.4678 C   0  0  0  0  0  0  0  0  0  0  0  0
    3.4068   -1.5565   -0.5280 C   0  0  0  0  0  0  0  0  0  0  0  0
    6.6866    3.1480   -3.7532 C   0  0  0  0  0  0  0  0  0  0  0  0
    5.1780    1.3552   -2.1320 C   0  0  0  0  0  0  0  0  0  0  0  0
    9.0005    4.2101   -4.2320 C   0  0  0  0  0  0  0  0  0  0  0  0
    4.3950    0.5286   -1.3351 N   0  0  0  0  0  0  0  0  0  0  0  0
    9.7002    5.1066   -4.6330 O   0  0  0  0  0  0  0  0  0  0  0  0
    9.5067    3.2235   -3.4559 O   0  0  0  0  0  0  0  0  0  0  0  0
    3.1026   -2.8179    1.1485 H   0  0  0  0  0  0  0  0  0  0  0  0
    4.8619   -2.5708    0.6352 H   0  0  0  0  0  0  0  0  0  0  0  0
    1.3040   -1.6797   -0.0288 H   0  0  0  0  0  0  0  0  0  0  0  0
    1.6443   -1.6217   -1.7702 H   0  0  0  0  0  0  0  0  0  0  0  0
    1.7857   -0.1557   -0.8105 H   0  0  0  0  0  0  0  0  0  0  0  0
    6.1946    4.6123   -2.2436 H   0  0  0  0  0  0  0  0  0  0  0  0
    6.9618    1.4371   -5.0345 H   0  0  0  0  0  0  0  0  0  0  0  0
    4.8831    3.0719   -0.8515 H   0  0  0  0  0  0  0  0  0  0  0  0
    5.6899   -0.1167   -3.6395 H   0  0  0  0  0  0  0  0  0  0  0  0
    7.1096    5.1129   -4.5667 H   0  0  0  0  0  0  0  0  0  0  0  0
    7.4824    3.7911   -5.6527 H   0  0  0  0  0  0  0  0  0  0  0  0
    4.1402   -1.1736   -2.5027 H   0  0  0  0  0  0  0  0  0  0  0  0
    5.4167   -1.3452   -1.2884 H   0  0  0  0  0  0  0  0  0  0  0  0
    4.3187    0.8386   -0.3734 H   0  0  0  0  0  0  0  0  0  0  0  0
    8.7828    2.6180   -3.2080 H   0  0  0  0  0  0  0  0  0  0  0  0
  1 17  1  0  0  0  0
  1 16  1  0  0  0  0
  2  9  1  0  0  0  0
  2 18  1  0  0  0  0
  3 21  1  0  0  0  0
  3  5  2  0  0  0  0
  4 10  2  0  0  0  0
  4  6  1  0  0  0  0
  5 23  1  0  0  0  0
  6 11  2  0  0  0  0
  7 25  1  0  0  0  0
  7 12  1  0  0  0  0
  7 10  1  0  0  0  0
  8 13  1  0  0  0  0
  8 28  1  0  0  0  0
  8  9  1  0  0  0  0
  9  1  2  0  0  0  0
 10  3  1  0  0  0  0
 11  5  1  0  0  0  0
 11 13  1  0  0  0  0
 12 15  1  0  0  0  0
 13 29  1  0  0  0  0
 14 12  2  0  0  0  0
 15 30  1  0  0  0  0
 19  2  1  0  0  0  0
 20  2  1  0  0  0  0
 22  4  1  0  0  0  0
 24  6  1  0  0  0  0
 26  7  1  0  0  0  0
 27  8  1  0  0  0  0
M  END
>  <HBA>
3

>  <HBD>
2

>  <TPSA>
49.33

>  <cid>
38321

>  <dipole>
6.73

>  <excitation_energy_1>
4.399

>  <excitation_energy_2>
4.807

>  <excitation_energy_3>
4.909

>  <excitation_energy_4>
5.081

>  <homo_energy>
-5.671

>  <homo_lumo_gap>
5.246

>  <logP>
2.375

>  <lumo_energy>
-0.425

>  <melting_point>
100.03

>  <molecular_refractivity>
61.24

>  <oscillator_strength_1>
0.0288

>  <oscillator_strength_2>
0.01

>  <oscillator_strength_3>
0.0421

>  <oscillator_strength_4>
0.2922

>  <open_babel_can_smiles>
CC(=C)CNc1ccc(cc1)CC(=O)O

>  <mulliken_charges>
30
1   -0.390902
2   -0.503363
3   -0.169785
4   -0.200818
5   -0.184157
6   -0.179116
7   -0.454232
8   -0.173247
9   0.189266
10   0.085571
11   0.366072
12   0.585869
13   -0.666323
14   -0.446667
15   -0.567142
16   0.142606
17   0.141667
18   0.155585
19   0.158661
20   0.168499
21   0.13736
22   0.134663
23   0.126125
24   0.133516
25   0.187466
26   0.18821
27   0.157253
28   0.143429
29   0.318942
30   0.414992

>  <lowdin_charges>
30
1   -0.34962
2   -0.440778
3   -0.149849
4   -0.163695
5   -0.191126
6   -0.206913
7   -0.313386
8   -0.187974
9   -0.00362
10   -0.061232
11   0.06341
12   0.190519
13   -0.294026
14   -0.250591
15   -0.357811
16   0.1607
17   0.156783
18   0.159609
19   0.159522
20   0.16159
21   0.160108
22   0.158908
23   0.156907
24   0.160538
25   0.178875
26   0.177805
27   0.151853
28   0.138383
29   0.274919
30   0.360191

$$$$

