PCCDB-ID:  15269
public computational chemistry database (PCCDB) project, http://pccdb.org

 44 43  0  0  0  0  0  0  0  0999 V2000
    4.0885    1.7299   -4.0346 C   0  0  0  0  0  0  0  0  0  0  0  0
    5.5659    0.5244    6.5765 C   0  0  0  0  0  0  0  0  0  0  0  0
    8.0696    0.6119    6.8917 C   0  0  0  0  0  0  0  0  0  0  0  0
    4.0020    0.9922   -2.6941 C   0  0  0  0  0  0  0  0  0  0  0  0
    5.3775    0.7447   -2.0582 C   0  0  0  0  0  0  0  0  0  0  0  0
    5.3435   -0.0491   -0.7392 C   0  0  0  0  0  0  0  0  0  0  0  0
    4.6925    0.6778    0.4553 C   0  0  0  0  0  0  0  0  0  0  0  0
    5.4782    1.8842    1.0237 C   0  0  0  0  0  0  0  0  0  0  0  0
    6.3941    1.5663    2.2209 C   0  0  0  0  0  0  0  0  0  0  0  0
    7.5852    0.6441    1.9148 C   0  0  0  0  0  0  0  0  0  0  0  0
    8.5976    0.4648    3.0693 C   0  0  0  0  0  0  0  0  0  0  0  0
    8.3260   -0.7039    4.0379 C   0  0  0  0  0  0  0  0  0  0  0  0
    7.0535   -0.6380    4.9015 C   0  0  0  0  0  0  0  0  0  0  0  0
    6.9274    0.5597    5.8652 C   0  0  0  0  0  0  0  0  0  0  0  0
    3.0956    1.8880   -4.4712 H   0  0  0  0  0  0  0  0  0  0  0  0
    4.6856    1.1641   -4.7605 H   0  0  0  0  0  0  0  0  0  0  0  0
    4.5600    2.7134   -3.9161 H   0  0  0  0  0  0  0  0  0  0  0  0
    5.4392    1.3885    7.2395 H   0  0  0  0  0  0  0  0  0  0  0  0
    5.4667   -0.3813    7.1892 H   0  0  0  0  0  0  0  0  0  0  0  0
    4.7385    0.5293    5.8563 H   0  0  0  0  0  0  0  0  0  0  0  0
    7.9385    1.4563    7.5787 H   0  0  0  0  0  0  0  0  0  0  0  0
    9.0494    0.7242    6.4147 H   0  0  0  0  0  0  0  0  0  0  0  0
    8.0950   -0.3058    7.4946 H   0  0  0  0  0  0  0  0  0  0  0  0
    3.4956    0.0270   -2.8390 H   0  0  0  0  0  0  0  0  0  0  0  0
    3.3675    1.5679   -2.0073 H   0  0  0  0  0  0  0  0  0  0  0  0
    5.8830    1.7093   -1.9057 H   0  0  0  0  0  0  0  0  0  0  0  0
    6.0004    0.1947   -2.7782 H   0  0  0  0  0  0  0  0  0  0  0  0
    6.3689   -0.3374   -0.4762 H   0  0  0  0  0  0  0  0  0  0  0  0
    4.8007   -0.9896   -0.9130 H   0  0  0  0  0  0  0  0  0  0  0  0
    4.5298   -0.0482    1.2643 H   0  0  0  0  0  0  0  0  0  0  0  0
    3.6895    1.0080    0.1563 H   0  0  0  0  0  0  0  0  0  0  0  0
    4.7643    2.6514    1.3509 H   0  0  0  0  0  0  0  0  0  0  0  0
    6.0720    2.3560    0.2279 H   0  0  0  0  0  0  0  0  0  0  0  0
    5.7794    1.1394    3.0245 H   0  0  0  0  0  0  0  0  0  0  0  0
    6.7877    2.5150    2.6145 H   0  0  0  0  0  0  0  0  0  0  0  0
    8.1158    1.0610    1.0466 H   0  0  0  0  0  0  0  0  0  0  0  0
    7.2269   -0.3455    1.5994 H   0  0  0  0  0  0  0  0  0  0  0  0
    8.6887    1.4084    3.6254 H   0  0  0  0  0  0  0  0  0  0  0  0
    9.5892    0.2864    2.6321 H   0  0  0  0  0  0  0  0  0  0  0  0
    9.1989   -0.8122    4.6957 H   0  0  0  0  0  0  0  0  0  0  0  0
    8.2863   -1.6319    3.4490 H   0  0  0  0  0  0  0  0  0  0  0  0
    7.0002   -1.5621    5.4972 H   0  0  0  0  0  0  0  0  0  0  0  0
    6.1704   -0.6581    4.2483 H   0  0  0  0  0  0  0  0  0  0  0  0
    6.9663    1.4852    5.2727 H   0  0  0  0  0  0  0  0  0  0  0  0
  1 17  1  0  0  0  0
  1  4  1  0  0  0  0
  2 19  1  0  0  0  0
  2 18  1  0  0  0  0
  3 23  1  0  0  0  0
  3 21  1  0  0  0  0
  4  5  1  0  0  0  0
  4 25  1  0  0  0  0
  5 26  1  0  0  0  0
  5  6  1  0  0  0  0
  6 28  1  0  0  0  0
  6  7  1  0  0  0  0
  7  8  1  0  0  0  0
  7 30  1  0  0  0  0
  8 32  1  0  0  0  0
  8  9  1  0  0  0  0
  9 35  1  0  0  0  0
  9 34  1  0  0  0  0
 10  9  1  0  0  0  0
 10 11  1  0  0  0  0
 11 38  1  0  0  0  0
 11 12  1  0  0  0  0
 12 40  1  0  0  0  0
 12 13  1  0  0  0  0
 13 42  1  0  0  0  0
 13 14  1  0  0  0  0
 14  2  1  0  0  0  0
 14  3  1  0  0  0  0
 15  1  1  0  0  0  0
 16  1  1  0  0  0  0
 20  2  1  0  0  0  0
 22  3  1  0  0  0  0
 24  4  1  0  0  0  0
 27  5  1  0  0  0  0
 29  6  1  0  0  0  0
 31  7  1  0  0  0  0
 33  8  1  0  0  0  0
 36 10  1  0  0  0  0
 37 10  1  0  0  0  0
 39 11  1  0  0  0  0
 41 12  1  0  0  0  0
 43 13  1  0  0  0  0
 44 14  1  0  0  0  0
M  END
>  <HBA>
0

>  <HBD>
0

>  <TPSA>
0.0

>  <cid>
15269

>  <dipole>
0.08

>  <excitation_energy_1>
7.402

>  <excitation_energy_2>
7.568

>  <excitation_energy_3>
7.587

>  <excitation_energy_4>
7.622

>  <homo_energy>
-7.908

>  <homo_lumo_gap>
9.93

>  <logP>
5.563

>  <lumo_energy>
2.022

>  <melting_point>
-31.88

>  <molecular_refractivity>
69.41

>  <oscillator_strength_1>
0.0056

>  <oscillator_strength_2>
0.0015

>  <oscillator_strength_3>
0.0043

>  <oscillator_strength_4>
0.0062

>  <open_babel_can_smiles>
CCCCCCCCCCCC(C)C

>  <mulliken_charges>
44
1   -0.441539
2   -0.443238
3   -0.446313
4   -0.247711
5   -0.249331
6   -0.263987
7   -0.261102
8   -0.262258
9   -0.263927
10   -0.25461
11   -0.262134
12   -0.265385
13   -0.249671
14   -0.06757
15   0.140693
16   0.140564
17   0.140912
18   0.137951
19   0.13749
20   0.138297
21   0.138674
22   0.144559
23   0.13689
24   0.128751
25   0.134307
26   0.129872
27   0.126422
28   0.134997
29   0.124772
30   0.128099
31   0.133119
32   0.127933
33   0.132301
34   0.138657
35   0.125478
36   0.126577
37   0.136139
38   0.131585
39   0.12822
40   0.130514
41   0.12662
42   0.12193
43   0.129273
44   0.127179

>  <lowdin_charges>
44
1   -0.444652
2   -0.444979
3   -0.447097
4   -0.276094
5   -0.279692
6   -0.27887
7   -0.281683
8   -0.282739
9   -0.279057
10   -0.280979
11   -0.280156
12   -0.279055
13   -0.280697
14   -0.12461
15   0.148198
16   0.146901
17   0.145453
18   0.147203
19   0.144808
20   0.146587
21   0.148298
22   0.147802
23   0.144728
24   0.137757
25   0.140878
26   0.137043
27   0.141292
28   0.142039
29   0.139096
30   0.141274
31   0.140888
32   0.143789
33   0.140085
34   0.140875
35   0.137927
36   0.140324
37   0.14004
38   0.138862
39   0.143011
40   0.141056
41   0.140038
42   0.138631
43   0.139045
44   0.136434

$$$$

