PCCDB-ID:  10836
public computational chemistry database (PCCDB) project, http://pccdb.org

 26 26  0  0  1  0  0  0  0  0999 V2000
    2.5354   -1.0951   -0.9616 C   0  0  0  0  0  0  0  0  0  0  0  0
    2.5133    2.5646   -0.1921 C   0  0  0  0  0  0  0  0  0  0  0  0
    1.9701    2.5343    4.5787 C   0  0  0  0  0  0  0  0  0  0  0  0
    0.9134    1.8223    4.0056 C   0  0  0  0  0  0  0  0  0  0  0  0
    3.2744    2.2948    4.1448 C   0  0  0  0  0  0  0  0  0  0  0  0
    1.1623    0.8847    3.0041 C   0  0  0  0  0  0  0  0  0  0  0  0
    3.5173    1.3533    3.1425 C   0  0  0  0  0  0  0  0  0  0  0  0
    2.7243   -0.3663    1.4501 C   0  0  0  0  0  0  0  0  0  0  0  0
    2.3371    0.0790    0.0090 C   0  0  1  0  0  0  0  0  0  0  0  0
    2.4671    0.6395    2.5503 C   0  0  0  0  0  0  0  0  0  0  0  0
    3.0593    1.2468   -0.5061 N   0  0  0  0  0  0  0  0  0  0  0  0
    3.5944   -1.3801   -1.0117 H   0  0  0  0  0  0  0  0  0  0  0  0
    2.2213   -0.8063   -1.9686 H   0  0  0  0  0  0  0  0  0  0  0  0
    1.9654   -1.9789   -0.6506 H   0  0  0  0  0  0  0  0  0  0  0  0
    3.1204    3.3247   -0.6976 H   0  0  0  0  0  0  0  0  0  0  0  0
    2.4635    2.8203    0.8771 H   0  0  0  0  0  0  0  0  0  0  0  0
    1.4982    2.6356   -0.6011 H   0  0  0  0  0  0  0  0  0  0  0  0
    1.7779    3.2647    5.3601 H   0  0  0  0  0  0  0  0  0  0  0  0
   -0.1056    1.9950    4.3427 H   0  0  0  0  0  0  0  0  0  0  0  0
    4.1053    2.8362    4.5899 H   0  0  0  0  0  0  0  0  0  0  0  0
    0.3328    0.3321    2.5672 H   0  0  0  0  0  0  0  0  0  0  0  0
    4.5384    1.1681    2.8152 H   0  0  0  0  0  0  0  0  0  0  0  0
    3.7889   -0.6407    1.4444 H   0  0  0  0  0  0  0  0  0  0  0  0
    2.1743   -1.2912    1.6725 H   0  0  0  0  0  0  0  0  0  0  0  0
    1.2721    0.3482    0.0104 H   0  0  0  0  0  0  0  0  0  0  0  0
    4.0403    1.1966   -0.2388 H   0  0  0  0  0  0  0  0  0  0  0  0
  1 14  1  0  0  0  0
  1  9  1  0  0  0  0
  2 16  1  0  0  0  0
  3 18  1  0  0  0  0
  4 19  1  0  0  0  0
  4  3  2  0  0  0  0
  5  3  1  0  0  0  0
  5 20  1  0  0  0  0
  6  4  1  0  0  0  0
  7  5  2  0  0  0  0
  8 24  1  0  0  0  0
  8 10  1  0  0  0  0
  9 25  1  1  0  0  0
  9  8  1  0  0  0  0
 10  6  2  0  0  0  0
 10  7  1  0  0  0  0
 11 26  1  0  0  0  0
 11  2  1  0  0  0  0
 11  9  1  0  0  0  0
 12  1  1  0  0  0  0
 13  1  1  0  0  0  0
 15  2  1  0  0  0  0
 17  2  1  0  0  0  0
 21  6  1  0  0  0  0
 22  7  1  0  0  0  0
 23  8  1  0  0  0  0
M  END
>  <HBA>
1

>  <HBD>
1

>  <TPSA>
12.03

>  <cid>
10836

>  <dipole>
0.81

>  <excitation_energy_1>
4.637

>  <excitation_energy_2>
4.756

>  <excitation_energy_3>
5.09

>  <excitation_energy_4>
5.374

>  <homo_energy>
-5.502

>  <homo_lumo_gap>
5.502

>  <logP>
2.228

>  <lumo_energy>
0.0

>  <melting_point>
32.34

>  <molecular_refractivity>
48.63

>  <oscillator_strength_1>
0.0087

>  <oscillator_strength_2>
0.0318

>  <oscillator_strength_3>
0.0039

>  <oscillator_strength_4>
0.0045

>  <open_babel_can_smiles>
CN[C@H](Cc1ccccc1)C

>  <mulliken_charges>
26
1   -0.424883
2   -0.306724
3   -0.132521
4   -0.127591
5   -0.126528
6   -0.180631
7   -0.190746
8   -0.361167
9   0.043
10   0.187303
11   -0.544453
12   0.134078
13   0.154784
14   0.131392
15   0.141312
16   0.146437
17   0.145663
18   0.127754
19   0.128283
20   0.127894
21   0.122309
22   0.118033
23   0.130596
24   0.14255
25   0.128281
26   0.285577

>  <lowdin_charges>
26
1   -0.445584
2   -0.361629
3   -0.161984
4   -0.153801
5   -0.157385
6   -0.169138
7   -0.171452
8   -0.288525
9   -0.055838
10   0.001055
11   -0.362243
12   0.143523
13   0.156672
14   0.1443
15   0.148091
16   0.133687
17   0.144431
18   0.157285
19   0.155985
20   0.157853
21   0.154628
22   0.150677
23   0.141761
24   0.152855
25   0.137338
26   0.24744

$$$$

