PCCDB-ID:  7108
public computational chemistry database (PCCDB) project, http://pccdb.org

 23 25  0  0  0  0  0  0  0  0999 V2000
    3.5722    0.8388    0.2990 C   0  0  0  0  0  0  0  0  0  0  0  0
   -3.5710    0.8409    0.2990 C   0  0  0  0  0  0  0  0  0  0  0  0
    3.6985   -0.5457    0.4083 C   0  0  0  0  0  0  0  0  0  0  0  0
   -3.6982   -0.5435    0.4083 C   0  0  0  0  0  0  0  0  0  0  0  0
    2.3430    1.4073   -0.0337 C   0  0  0  0  0  0  0  0  0  0  0  0
   -2.3415    1.4087   -0.0337 C   0  0  0  0  0  0  0  0  0  0  0  0
    2.5880   -1.3587    0.1716 C   0  0  0  0  0  0  0  0  0  0  0  0
   -2.5881   -1.3572    0.1717 C   0  0  0  0  0  0  0  0  0  0  0  0
    1.2312    0.5975   -0.2960 C   0  0  0  0  0  0  0  0  0  0  0  0
   -1.2302    0.5982   -0.2960 C   0  0  0  0  0  0  0  0  0  0  0  0
    1.3652   -0.7991   -0.2005 C   0  0  0  0  0  0  0  0  0  0  0  0
   -1.3650   -0.7983   -0.2004 C   0  0  0  0  0  0  0  0  0  0  0  0
    0.0007    1.1690   -0.6592 N   0  0  0  0  0  0  0  0  0  0  0  0
   -0.0002   -1.8551   -0.6604 S   0  0  0  0  0  0  0  0  0  0  0  0
    4.4261    1.4842    0.4846 H   0  0  0  0  0  0  0  0  0  0  0  0
   -4.4245    1.4868    0.4845 H   0  0  0  0  0  0  0  0  0  0  0  0
    4.6499   -0.9937    0.6788 H   0  0  0  0  0  0  0  0  0  0  0  0
   -4.6499   -0.9909    0.6789 H   0  0  0  0  0  0  0  0  0  0  0  0
    2.2402    2.4887   -0.0977 H   0  0  0  0  0  0  0  0  0  0  0  0
   -2.2381    2.4901   -0.0979 H   0  0  0  0  0  0  0  0  0  0  0  0
    2.6698   -2.4384    0.2609 H   0  0  0  0  0  0  0  0  0  0  0  0
   -2.6706   -2.4368    0.2610 H   0  0  0  0  0  0  0  0  0  0  0  0
    0.0010    2.1812   -0.6597 H   0  0  0  0  0  0  0  0  0  0  0  0
  1  3  1  0  0  0  0
  1 15  1  0  0  0  0
  2  4  1  0  0  0  0
  2 16  1  0  0  0  0
  3 17  1  0  0  0  0
  4 18  1  0  0  0  0
  5  1  2  0  0  0  0
  6  2  2  0  0  0  0
  7 21  1  0  0  0  0
  7  3  2  0  0  0  0
  8 22  1  0  0  0  0
  8  4  2  0  0  0  0
  9 11  2  0  0  0  0
  9  5  1  0  0  0  0
 10 12  2  0  0  0  0
 10  6  1  0  0  0  0
 11  7  1  0  0  0  0
 12  8  1  0  0  0  0
 13 10  1  0  0  0  0
 13  9  1  0  0  0  0
 14 11  1  0  0  0  0
 14 12  1  0  0  0  0
 19  5  1  0  0  0  0
 20  6  1  0  0  0  0
 23 13  1  0  0  0  0
M  END
>  <HBA>
1

>  <HBD>
1

>  <TPSA>
37.33

>  <cid>
7108

>  <dipole>
2.26

>  <excitation_energy_1>
3.631

>  <excitation_energy_2>
3.946

>  <excitation_energy_3>
4.104

>  <excitation_energy_4>
4.369

>  <homo_energy>
-4.999

>  <homo_lumo_gap>
4.588

>  <logP>
4.033

>  <lumo_energy>
-0.411

>  <melting_point>
120.01

>  <molecular_refractivity>
63.04

>  <oscillator_strength_1>
0.0007

>  <oscillator_strength_2>
0.0254

>  <oscillator_strength_3>
0.0999

>  <oscillator_strength_4>
0.0012

>  <open_babel_can_smiles>
c1ccc2c(c1)Sc1c(N2)cccc1

>  <mulliken_charges>
23
1   -0.139555
2   -0.13955
3   -0.121065
4   -0.121058
5   -0.17776
6   -0.177777
7   -0.178446
8   -0.178456
9   0.329964
10   0.329966
11   -0.121757
12   -0.121748
13   -0.736936
14   0.172396
15   0.132104
16   0.132104
17   0.130494
18   0.130493
19   0.122623
20   0.122623
21   0.144061
22   0.14406
23   0.323217

>  <lowdin_charges>
23
1   -0.151647
2   -0.151648
3   -0.17163
4   -0.171628
5   -0.18899
6   -0.188995
7   -0.153011
8   -0.153011
9   0.053474
10   0.053479
11   -0.147031
12   -0.147034
13   -0.245625
14   0.206142
15   0.160838
16   0.16084
17   0.160251
18   0.160248
19   0.153071
20   0.153072
21   0.164805
22   0.164807
23   0.27922

$$$$

