PCCDB-ID:  69121
public computational chemistry database (PCCDB) project, http://pccdb.org

 20 20  0  0  0  0  0  0  0  0999 V2000
   -1.3942   -0.0535    0.1072 C   0  0  0  0  0  0  0  0  0  0  0  0
   -0.7578    1.1793    0.1171 C   0  0  0  0  0  0  0  0  0  0  0  0
    0.7739   -1.1168   -0.1554 C   0  0  0  0  0  0  0  0  0  0  0  0
   -0.6049   -1.1887   -0.0347 C   0  0  0  0  0  0  0  0  0  0  0  0
    0.6375    1.2937   -0.0378 C   0  0  0  0  0  0  0  0  0  0  0  0
    1.4299    0.1218   -0.1746 C   0  0  0  0  0  0  0  0  0  0  0  0
    1.1736    2.6881   -0.0689 C   0  0  0  0  0  0  0  0  0  0  0  0
    2.9559   -0.0403   -0.2664 C   0  0  0  0  0  0  0  0  0  0  0  0
   -1.2578   -2.5162   -0.0449 N   0  0  0  0  0  0  0  0  0  0  0  0
    2.2034    3.0591   -0.6157 O   0  0  0  0  0  0  0  0  0  0  0  0
    0.3744    3.5723    0.5500 O   0  0  0  0  0  0  0  0  0  0  0  0
    3.4490   -1.0957    0.0672 O   0  0  0  0  0  0  0  0  0  0  0  0
    3.7044    0.9455   -0.7494 O   0  0  0  0  0  0  0  0  0  0  0  0
   -2.4792   -2.5405    0.0954 O   0  0  0  0  0  0  0  0  0  0  0  0
   -0.5413   -3.5010   -0.1939 O   0  0  0  0  0  0  0  0  0  0  0  0
   -2.4681   -0.1439    0.2106 H   0  0  0  0  0  0  0  0  0  0  0  0
   -1.3465    2.0798    0.2377 H   0  0  0  0  0  0  0  0  0  0  0  0
    1.3642   -2.0211   -0.2216 H   0  0  0  0  0  0  0  0  0  0  0  0
    0.7893    4.4489    0.4359 H   0  0  0  0  0  0  0  0  0  0  0  0
    3.1794    1.7662   -0.9159 H   0  0  0  0  0  0  0  0  0  0  0  0
  1  2  1  0  0  0  0
  1 16  1  0  0  0  0
  2 17  1  0  0  0  0
  3  4  1  0  0  0  0
  4  1  2  0  0  0  0
  5  2  2  0  0  0  0
  6  3  2  0  0  0  0
  6  5  1  0  0  0  0
  7  5  1  0  0  0  0
  7 11  1  0  0  0  0
  8  6  1  0  0  0  0
  8 12  2  0  0  0  0
  9  4  1  0  0  0  0
  9 14  2  0  0  0  0
 10  7  2  0  0  0  0
 13  8  1  0  0  0  0
 15  9  2  0  0  0  0
 18  3  1  0  0  0  0
 19 11  1  0  0  0  0
 20 13  1  0  0  0  0
M  END
>  <HBA>
4

>  <HBD>
2

>  <TPSA>
120.42

>  <cid>
69121

>  <dipole>
7.32

>  <excitation_energy_1>
3.526

>  <excitation_energy_2>
3.621

>  <excitation_energy_3>
4.084

>  <excitation_energy_4>
4.137

>  <homo_energy>
-7.625

>  <homo_lumo_gap>
4.27

>  <logP>
1.514

>  <lumo_energy>
-3.355

>  <melting_point>
226.77

>  <molecular_refractivity>
49.18

>  <oscillator_strength_1>
0.0092

>  <oscillator_strength_2>
0.0034

>  <oscillator_strength_3>
0.0012

>  <oscillator_strength_4>
0.0255

>  <open_babel_can_smiles>
OC(=O)c1cc(ccc1C(=O)O)N(=O)=O

>  <mulliken_charges>
20
1   -0.140973
2   -0.171118
3   -0.191955
4   0.293762
5   0.034721
6   -0.014336
7   0.565792
8   0.579573
9   0.387784
10   -0.498115
11   -0.552723
12   -0.444491
13   -0.589995
14   -0.383577
15   -0.375135
16   0.198043
17   0.186202
18   0.22991
19   0.432336
20   0.454295

>  <lowdin_charges>
20
1   -0.125253
2   -0.130092
3   -0.110048
4   0.020045
5   -0.035181
6   -0.028601
7   0.213983
8   0.189409
9   0.305576
10   -0.270509
11   -0.322344
12   -0.245028
13   -0.343569
14   -0.233897
15   -0.223087
16   0.194071
17   0.186779
18   0.213989
19   0.376445
20   0.367312

$$$$

