PCCDB-ID:  42463
public computational chemistry database (PCCDB) project, http://pccdb.org

 26 27  0  0  0  0  0  0  0  0999 V2000
    1.1891   -0.2806    0.2474 C   0  0  0  0  0  0  0  0  0  0  0  0
    2.8534   -0.1344   -1.6714 C   0  0  0  0  0  0  0  0  0  0  0  0
    5.1549   -1.1694    4.1477 C   0  0  0  0  0  0  0  0  0  0  0  0
    4.9044   -2.3629    3.4575 C   0  0  0  0  0  0  0  0  0  0  0  0
    4.8183    0.0439    3.5591 C   0  0  0  0  0  0  0  0  0  0  0  0
    4.3143   -2.3524    2.1946 C   0  0  0  0  0  0  0  0  0  0  0  0
    3.8787    1.3003    1.6026 C   0  0  0  0  0  0  0  0  0  0  0  0
    4.2214    0.0792    2.2876 C   0  0  0  0  0  0  0  0  0  0  0  0
    3.9662   -1.1323    1.6117 C   0  0  0  0  0  0  0  0  0  0  0  0
    3.1756    1.2701    0.4539 C   0  0  0  0  0  0  0  0  0  0  0  0
    2.6488   -0.0277   -0.1558 C   0  0  0  0  0  0  0  0  0  0  0  0
    2.7987    2.5474   -0.1370 N   0  0  0  0  0  0  0  0  0  0  0  0
    1.8904    2.5452   -0.9771 O   0  0  0  0  0  0  0  0  0  0  0  0
    3.3809    3.5667    0.2413 O   0  0  0  0  0  0  0  0  0  0  0  0
    3.4542   -1.1442    0.3573 O   0  0  0  0  0  0  0  0  0  0  0  0
    0.5506    0.5211   -0.1319 H   0  0  0  0  0  0  0  0  0  0  0  0
    1.0934   -0.3216    1.3375 H   0  0  0  0  0  0  0  0  0  0  0  0
    0.8521   -1.2355   -0.1690 H   0  0  0  0  0  0  0  0  0  0  0  0
    2.2058    0.5591   -2.2059 H   0  0  0  0  0  0  0  0  0  0  0  0
    2.6196   -1.1585   -1.9770 H   0  0  0  0  0  0  0  0  0  0  0  0
    3.8960    0.0719   -1.9317 H   0  0  0  0  0  0  0  0  0  0  0  0
    5.6131   -1.1919    5.1314 H   0  0  0  0  0  0  0  0  0  0  0  0
    5.1694   -3.3143    3.9106 H   0  0  0  0  0  0  0  0  0  0  0  0
    5.0130    0.9814    4.0739 H   0  0  0  0  0  0  0  0  0  0  0  0
    4.1197   -3.2704    1.6500 H   0  0  0  0  0  0  0  0  0  0  0  0
    4.1789    2.2589    2.0127 H   0  0  0  0  0  0  0  0  0  0  0  0
  1 17  1  0  0  0  0
  2 11  1  0  0  0  0
  3 22  1  0  0  0  0
  4 23  1  0  0  0  0
  4  3  2  0  0  0  0
  5 24  1  0  0  0  0
  5  3  1  0  0  0  0
  6  4  1  0  0  0  0
  7 26  1  0  0  0  0
  7  8  1  0  0  0  0
  8  5  2  0  0  0  0
  9  6  2  0  0  0  0
  9  8  1  0  0  0  0
 10  7  2  0  0  0  0
 11  1  1  0  0  0  0
 11 15  1  0  0  0  0
 11 10  1  0  0  0  0
 12 14  2  0  0  0  0
 12 10  1  0  0  0  0
 13 12  2  0  0  0  0
 15  9  1  0  0  0  0
 16  1  1  0  0  0  0
 18  1  1  0  0  0  0
 19  2  1  0  0  0  0
 20  2  1  0  0  0  0
 21  2  1  0  0  0  0
 25  6  1  0  0  0  0
M  END
>  <HBA>
1

>  <HBD>
0

>  <TPSA>
55.05

>  <cid>
42463

>  <dipole>
4.29

>  <excitation_energy_1>
2.937

>  <excitation_energy_2>
3.574

>  <excitation_energy_3>
3.879

>  <excitation_energy_4>
4.141

>  <homo_energy>
-6.196

>  <homo_lumo_gap>
3.576

>  <logP>
2.998

>  <lumo_energy>
-2.62

>  <melting_point>
99.4

>  <molecular_refractivity>
58.67

>  <oscillator_strength_1>
0.1101

>  <oscillator_strength_2>
0.0104

>  <oscillator_strength_3>
0.2198

>  <oscillator_strength_4>
0.0113

>  <open_babel_can_smiles>
O=N(=O)C1=Cc2ccccc2OC1(C)C

>  <mulliken_charges>
26
1   -0.451448
2   -0.464139
3   -0.140012
4   -0.125179
5   -0.192197
6   -0.182402
7   -0.177837
8   0.119851
9   0.344859
10   0.22737
11   0.257216
12   0.382872
13   -0.400996
14   -0.402381
15   -0.561712
16   0.180929
17   0.153717
18   0.158912
19   0.189666
20   0.160367
21   0.157264
22   0.138731
23   0.142958
24   0.144531
25   0.14771
26   0.191346

>  <lowdin_charges>
26
1   -0.453332
2   -0.449853
3   -0.172914
4   -0.128801
5   -0.137281
6   -0.184185
7   -0.103434
8   -0.053243
9   0.11785
10   -0.026491
11   0.147987
12   0.308104
13   -0.260241
14   -0.257156
15   -0.19005
16   0.173326
17   0.155832
18   0.160494
19   0.176474
20   0.161494
21   0.158648
22   0.162922
23   0.165235
24   0.165082
25   0.17215
26   0.191381

$$$$

