PCCDB-ID:  40635
public computational chemistry database (PCCDB) project, http://pccdb.org

 26 25  0  0  0  0  0  0  0  0999 V2000
    1.0471    1.3568    2.9423 C   0  0  0  0  0  0  0  0  0  0  0  0
    4.4275   -4.2881    2.7255 C   0  0  0  0  0  0  0  0  0  0  0  0
    4.1235   -2.8211    4.7337 C   0  0  0  0  0  0  0  0  0  0  0  0
    2.2208   -3.1240    3.1001 C   0  0  0  0  0  0  0  0  0  0  0  0
    4.2806   -0.4674    2.9225 C   0  0  0  0  0  0  0  0  0  0  0  0
    2.1711    0.5174    3.4984 C   0  0  0  0  0  0  0  0  0  0  0  0
    3.7501   -3.0092    3.2529 C   0  0  0  0  0  0  0  0  0  0  0  0
    4.5481   -2.0864    1.1615 N   0  0  0  0  0  0  0  0  0  0  0  0
    4.2420   -1.8339    2.4579 N   0  0  0  0  0  0  0  0  0  0  0  0
    2.2446    0.1112    4.6393 O   0  0  0  0  0  0  0  0  0  0  0  0
    4.8463   -1.1076    0.4911 O   0  0  0  0  0  0  0  0  0  0  0  0
    3.1041    0.2825    2.5430 O   0  0  0  0  0  0  0  0  0  0  0  0
    0.2670    1.4667    3.6961 H   0  0  0  0  0  0  0  0  0  0  0  0
    0.6400    0.8924    2.0389 H   0  0  0  0  0  0  0  0  0  0  0  0
    1.4283    2.3431    2.6570 H   0  0  0  0  0  0  0  0  0  0  0  0
    4.1248   -5.1287    3.3589 H   0  0  0  0  0  0  0  0  0  0  0  0
    5.5182   -4.2006    2.7668 H   0  0  0  0  0  0  0  0  0  0  0  0
    4.1441   -4.5092    1.6956 H   0  0  0  0  0  0  0  0  0  0  0  0
    3.8380   -3.7235    5.2838 H   0  0  0  0  0  0  0  0  0  0  0  0
    3.5974   -1.9778    5.1887 H   0  0  0  0  0  0  0  0  0  0  0  0
    5.2041   -2.6832    4.8558 H   0  0  0  0  0  0  0  0  0  0  0  0
    1.8592   -4.0175    3.6214 H   0  0  0  0  0  0  0  0  0  0  0  0
    1.9469   -3.2085    2.0433 H   0  0  0  0  0  0  0  0  0  0  0  0
    1.7124   -2.2568    3.5306 H   0  0  0  0  0  0  0  0  0  0  0  0
    5.1011    0.0287    2.4078 H   0  0  0  0  0  0  0  0  0  0  0  0
    4.3954   -0.4388    4.0010 H   0  0  0  0  0  0  0  0  0  0  0  0
  1  6  1  0  0  0  0
  1 13  1  0  0  0  0
  2 17  1  0  0  0  0
  2  7  1  0  0  0  0
  2 16  1  0  0  0  0
  3 21  1  0  0  0  0
  3 20  1  0  0  0  0
  3 19  1  0  0  0  0
  4  7  1  0  0  0  0
  4 24  1  0  0  0  0
  4 22  1  0  0  0  0
  5 26  1  0  0  0  0
  6 10  2  0  0  0  0
  7  3  1  0  0  0  0
  8  9  1  0  0  0  0
  9  5  1  0  0  0  0
  9  7  1  0  0  0  0
 11  8  2  0  0  0  0
 12  5  1  0  0  0  0
 12  6  1  0  0  0  0
 14  1  1  0  0  0  0
 15  1  1  0  0  0  0
 18  2  1  0  0  0  0
 23  4  1  0  0  0  0
 25  5  1  0  0  0  0
M  END
>  <HBA>
5

>  <HBD>
0

>  <TPSA>
58.97

>  <cid>
40635

>  <dipole>
2.14

>  <excitation_energy_1>
3.135

>  <excitation_energy_2>
5.415

>  <excitation_energy_3>
5.647

>  <excitation_energy_4>
5.792

>  <homo_energy>
-6.172

>  <homo_lumo_gap>
4.985

>  <logP>
1.289

>  <lumo_energy>
-1.186

>  <melting_point>
17.92

>  <molecular_refractivity>
44.72

>  <oscillator_strength_1>
0.0009

>  <oscillator_strength_2>
0.0046

>  <oscillator_strength_3>
0.1356

>  <oscillator_strength_4>
0.013

>  <open_babel_can_smiles>
O=NN(C(C)(C)C)COC(=O)C

>  <mulliken_charges>
26
1   -0.524202
2   -0.443155
3   -0.488464
4   -0.444391
5   0.066968
6   0.608339
7   0.20439
8   0.181616
9   -0.266507
10   -0.470962
11   -0.371413
12   -0.439759
13   0.184586
14   0.189389
15   0.18988
16   0.143373
17   0.153177
18   0.175849
19   0.154686
20   0.190951
21   0.149854
22   0.148052
23   0.157649
24   0.163012
25   0.192735
26   0.194346

>  <lowdin_charges>
26
1   -0.464005
2   -0.444225
3   -0.458118
4   -0.451585
5   -0.089449
6   0.203279
7   0.080931
8   0.067465
9   -0.060261
10   -0.268926
11   -0.248791
12   -0.190637
13   0.177571
14   0.182376
15   0.182786
16   0.153446
17   0.154647
18   0.164985
19   0.160868
20   0.170082
21   0.151656
22   0.155651
23   0.156468
24   0.160373
25   0.178757
26   0.174659

$$$$

