PCCDB-ID:  66547
public computational chemistry database (PCCDB) project, http://pccdb.org

 32 33  0  0  0  0  0  0  0  0999 V2000
    1.3213   -1.4290    0.9701 C   0  0  0  0  0  0  0  0  0  0  0  0
    3.4713    1.5318   -1.4084 C   0  0  0  0  0  0  0  0  0  0  0  0
    2.3092   -0.4582    1.6198 C   0  0  0  0  0  0  0  0  0  0  0  0
    2.6293    1.1761   -0.1834 C   0  0  0  0  0  0  0  0  0  0  0  0
    7.3783   -2.5587    1.9951 C   0  0  0  0  0  0  0  0  0  0  0  0
    6.1810   -2.8592    1.3040 C   0  0  0  0  0  0  0  0  0  0  0  0
    6.0531    2.1074    2.2716 C   0  0  0  0  0  0  0  0  0  0  0  0
    7.6308   -1.2688    2.4035 C   0  0  0  0  0  0  0  0  0  0  0  0
    6.9657    1.1166    2.5421 C   0  0  0  0  0  0  0  0  0  0  0  0
    5.2514   -1.8723    1.0582 C   0  0  0  0  0  0  0  0  0  0  0  0
    4.8212    1.8026    1.6460 C   0  0  0  0  0  0  0  0  0  0  0  0
    6.6972   -0.2253    2.1599 C   0  0  0  0  0  0  0  0  0  0  0  0
    5.4667   -0.5373    1.4935 C   0  0  0  0  0  0  0  0  0  0  0  0
    4.5048    0.5089    1.2691 C   0  0  0  0  0  0  0  0  0  0  0  0
    3.2554    0.1577    0.6659 N   0  0  0  0  0  0  0  0  0  0  0  0
    0.6835   -1.8784    1.7403 H   0  0  0  0  0  0  0  0  0  0  0  0
    1.8513   -2.2342    0.4503 H   0  0  0  0  0  0  0  0  0  0  0  0
    0.6613   -0.9380    0.2475 H   0  0  0  0  0  0  0  0  0  0  0  0
    2.9344    2.2512   -2.0370 H   0  0  0  0  0  0  0  0  0  0  0  0
    3.6749    0.6352   -2.0030 H   0  0  0  0  0  0  0  0  0  0  0  0
    4.4302    1.9775   -1.1284 H   0  0  0  0  0  0  0  0  0  0  0  0
    2.9008   -1.0021    2.3609 H   0  0  0  0  0  0  0  0  0  0  0  0
    1.7583    0.3243    2.1741 H   0  0  0  0  0  0  0  0  0  0  0  0
    1.6772    0.7601   -0.5265 H   0  0  0  0  0  0  0  0  0  0  0  0
    2.3692    2.0897    0.3835 H   0  0  0  0  0  0  0  0  0  0  0  0
    8.1039   -3.3448    2.1873 H   0  0  0  0  0  0  0  0  0  0  0  0
    5.9999   -3.8730    0.9566 H   0  0  0  0  0  0  0  0  0  0  0  0
    6.2612    3.1358    2.5558 H   0  0  0  0  0  0  0  0  0  0  0  0
    8.5585   -1.0254    2.9166 H   0  0  0  0  0  0  0  0  0  0  0  0
    7.9058    1.3455    3.0378 H   0  0  0  0  0  0  0  0  0  0  0  0
    4.3473   -2.0914    0.5012 H   0  0  0  0  0  0  0  0  0  0  0  0
    4.1099    2.6048    1.4783 H   0  0  0  0  0  0  0  0  0  0  0  0
  1  3  1  0  0  0  0
  1 16  1  0  0  0  0
  2 21  1  0  0  0  0
  2  4  1  0  0  0  0
  3 23  1  0  0  0  0
  3 22  1  0  0  0  0
  4 25  1  0  0  0  0
  4 15  1  0  0  0  0
  5 26  1  0  0  0  0
  5  8  2  0  0  0  0
  6  5  1  0  0  0  0
  7  9  1  0  0  0  0
  7 28  1  0  0  0  0
  8 29  1  0  0  0  0
  9 30  1  0  0  0  0
 10  6  2  0  0  0  0
 10 13  1  0  0  0  0
 11  7  2  0  0  0  0
 12  8  1  0  0  0  0
 12  9  2  0  0  0  0
 13 12  1  0  0  0  0
 14 13  2  0  0  0  0
 14 11  1  0  0  0  0
 15 14  1  0  0  0  0
 15  3  1  0  0  0  0
 17  1  1  0  0  0  0
 18  1  1  0  0  0  0
 19  2  1  0  0  0  0
 20  2  1  0  0  0  0
 24  4  1  0  0  0  0
 27  6  1  0  0  0  0
 31 10  1  0  0  0  0
 32 11  1  0  0  0  0
M  END
>  <HBA>
1

>  <HBD>
0

>  <TPSA>
3.24

>  <cid>
66547

>  <dipole>
0.93

>  <excitation_energy_1>
3.789

>  <excitation_energy_2>
4.25

>  <excitation_energy_3>
4.608

>  <excitation_energy_4>
4.945

>  <homo_energy>
-5.271

>  <homo_lumo_gap>
4.444

>  <logP>
3.686

>  <lumo_energy>
-0.827

>  <melting_point>
56.67

>  <molecular_refractivity>
67.77

>  <oscillator_strength_1>
0.0922

>  <oscillator_strength_2>
0.0136

>  <oscillator_strength_3>
0.0139

>  <oscillator_strength_4>
0.0776

>  <open_babel_can_smiles>
CCN(c1cccc2c1cccc2)CC

>  <mulliken_charges>
32
1   -0.449776
2   -0.448944
3   -0.124055
4   -0.123848
5   -0.132129
6   -0.137642
7   -0.145924
8   -0.196868
9   -0.188016
10   -0.190797
11   -0.183655
12   0.125252
13   0.096337
14   0.220709
15   -0.474979
16   0.145289
17   0.156659
18   0.14877
19   0.140144
20   0.155808
21   0.160102
22   0.157732
23   0.123898
24   0.141916
25   0.119216
26   0.126913
27   0.125798
28   0.127053
29   0.126809
30   0.124329
31   0.147337
32   0.126562

>  <lowdin_charges>
32
1   -0.4546
2   -0.452437
3   -0.196092
4   -0.196852
5   -0.160734
6   -0.16042
7   -0.155549
8   -0.158208
9   -0.167801
10   -0.15887
11   -0.1939
12   0.001646
13   -0.015663
14   0.0465
15   -0.162284
16   0.155096
17   0.153632
18   0.149837
19   0.152681
20   0.155923
21   0.156604
22   0.158213
23   0.127945
24   0.148048
25   0.119868
26   0.157989
27   0.155572
28   0.155838
29   0.156127
30   0.155826
31   0.166313
32   0.159752

$$$$

