PCCDB-ID:  19305
public computational chemistry database (PCCDB) project, http://pccdb.org

 28 28  0  0  0  0  0  0  0  0999 V2000
    0.6900    0.3092   -0.2485 C   0  0  0  0  0  0  0  0  0  0  0  0
    4.3312    1.3473    0.3153 C   0  0  0  0  0  0  0  0  0  0  0  0
    2.9433    1.4010    0.1797 C   0  0  0  0  0  0  0  0  0  0  0  0
    4.9988    0.1365    0.1501 C   0  0  0  0  0  0  0  0  0  0  0  0
    4.4983   -5.5783   -1.3372 C   0  0  0  0  0  0  0  0  0  0  0  0
    5.3022   -4.3973   -0.7990 C   0  0  0  0  0  0  0  0  0  0  0  0
    2.8740   -0.9577   -0.2914 C   0  0  0  0  0  0  0  0  0  0  0  0
    4.9741   -5.0999   -3.7551 C   0  0  0  0  0  0  0  0  0  0  0  0
    2.9834   -6.3504   -3.1732 C   0  0  0  0  0  0  0  0  0  0  0  0
    2.1955    0.2504   -0.1220 C   0  0  0  0  0  0  0  0  0  0  0  0
    3.9114   -5.2883   -2.7511 C   0  0  0  0  0  0  0  0  0  0  0  0
    4.2684   -1.0166   -0.1602 C   0  0  0  0  0  0  0  0  0  0  0  0
    5.8356   -4.9380   -4.5146 N   0  0  0  0  0  0  0  0  0  0  0  0
    2.2418   -7.1919   -3.4682 N   0  0  0  0  0  0  0  0  0  0  0  0
    4.4229   -3.2165   -0.6841 N   0  0  0  0  0  0  0  0  0  0  0  0
    5.0484   -2.2002   -0.3120 N   0  0  0  0  0  0  0  0  0  0  0  0
    0.3236    1.3394   -0.2035 H   0  0  0  0  0  0  0  0  0  0  0  0
    0.2012   -0.2525    0.5573 H   0  0  0  0  0  0  0  0  0  0  0  0
    0.3515   -0.1260   -1.1961 H   0  0  0  0  0  0  0  0  0  0  0  0
    4.8888    2.2497    0.5493 H   0  0  0  0  0  0  0  0  0  0  0  0
    2.4273    2.3490    0.3124 H   0  0  0  0  0  0  0  0  0  0  0  0
    6.0766    0.0577    0.2507 H   0  0  0  0  0  0  0  0  0  0  0  0
    3.6525   -5.7841   -0.6731 H   0  0  0  0  0  0  0  0  0  0  0  0
    5.1196   -6.4779   -1.3791 H   0  0  0  0  0  0  0  0  0  0  0  0
    6.1565   -4.1603   -1.4457 H   0  0  0  0  0  0  0  0  0  0  0  0
    5.7035   -4.6447    0.1915 H   0  0  0  0  0  0  0  0  0  0  0  0
    2.3330   -1.8696   -0.5246 H   0  0  0  0  0  0  0  0  0  0  0  0
    3.3463   -4.3480   -2.6822 H   0  0  0  0  0  0  0  0  0  0  0  0
  1 17  1  0  0  0  0
  1 10  1  0  0  0  0
  1 18  1  0  0  0  0
  2 20  1  0  0  0  0
  3 21  1  0  0  0  0
  3  2  1  0  0  0  0
  4 22  1  0  0  0  0
  4  2  2  0  0  0  0
  5  6  1  0  0  0  0
  5 23  1  0  0  0  0
  6 15  1  0  0  0  0
  6 26  1  0  0  0  0
  7 12  2  0  0  0  0
  7 10  1  0  0  0  0
  8 11  1  0  0  0  0
  9 11  1  0  0  0  0
 10  3  2  0  0  0  0
 11 28  1  0  0  0  0
 11  5  1  0  0  0  0
 12  4  1  0  0  0  0
 13  8  3  0  0  0  0
 14  9  3  0  0  0  0
 15 16  1  0  0  0  0
 16 12  1  0  0  0  0
 19  1  1  0  0  0  0
 24  5  1  0  0  0  0
 25  6  1  0  0  0  0
 27  7  1  0  0  0  0
M  RAD  2  15   2  16   2
M  END
>  <HBA>
4

>  <HBD>
0

>  <TPSA>
72.3

>  <cid>
19305

>  <dipole>
5.53

>  <excitation_energy_1>
2.848

>  <excitation_energy_2>
3.972

>  <excitation_energy_3>
4.301

>  <excitation_energy_4>
5.282

>  <homo_energy>
-6.593

>  <homo_lumo_gap>
4.316

>  <logP>
3.132

>  <lumo_energy>
-2.278

>  <melting_point>
96.2

>  <molecular_refractivity>
60.51

>  <oscillator_strength_1>
0.0001

>  <oscillator_strength_2>
0.0269

>  <oscillator_strength_3>
0.3841

>  <oscillator_strength_4>
0.0012

>  <open_babel_can_smiles>
N#CC(CC[N][N]c1cccc(c1)C)C#N

>  <mulliken_charges>
28
1   -0.528915
2   -0.135327
3   -0.166332
4   -0.138295
5   -0.27662
6   -0.14438
7   -0.178643
8   0.374119
9   0.369085
10   0.161977
11   -0.230219
12   0.256953
13   -0.450082
14   -0.450904
15   -0.219393
16   -0.279874
17   0.158944
18   0.170023
19   0.167483
20   0.140505
21   0.132959
22   0.147354
23   0.181997
24   0.179591
25   0.18641
26   0.17718
27   0.142705
28   0.251701

>  <lowdin_charges>
28
1   -0.442934
2   -0.153463
3   -0.151297
4   -0.144225
5   -0.264127
6   -0.225735
7   -0.159741
8   -0.010057
9   -0.008267
10   0.007145
11   -0.121443
12   0.006906
13   -0.095546
14   -0.095556
15   -0.116057
16   -0.063878
17   0.158163
18   0.166103
19   0.164072
20   0.164078
21   0.159886
22   0.168599
23   0.170887
24   0.170486
25   0.167795
26   0.168234
27   0.167644
28   0.212328

$$$$

