PCCDB-ID:  14210
public computational chemistry database (PCCDB) project, http://pccdb.org

 24 23  0  0  0  0  0  0  0  0999 V2000
    3.3298   -0.3952    3.4866 C   0  0  0  0  0  0  0  0  0  0  0  0
   -2.4451    3.2525    0.1209 C   0  0  0  0  0  0  0  0  0  0  0  0
   -1.3007    4.0386    4.2908 C   0  0  0  0  0  0  0  0  0  0  0  0
    1.8378    1.6201    1.8323 C   0  0  0  0  0  0  0  0  0  0  0  0
    2.5819    1.8496    3.1394 C   0  0  0  0  0  0  0  0  0  0  0  0
    3.2309    1.0032    3.8258 N   0  0  0  0  0  0  0  0  0  0  0  0
    2.5311    3.1228    3.6006 O   0  0  0  0  0  0  0  0  0  0  0  0
    0.7872    4.5073    1.9417 O   0  0  0  0  0  0  0  0  0  0  0  0
   -1.1949    3.8934    0.4387 O   0  0  0  0  0  0  0  0  0  0  0  0
   -1.6157    3.9249    2.8832 O   0  0  0  0  0  0  0  0  0  0  0  0
   -0.4337    3.6613    1.8251 P   0  0  0  0  0  0  0  0  0  0  0  0
   -0.0156    1.6015    2.0398 S   0  0  0  0  0  0  0  0  0  0  0  0
    2.9915   -0.9914    4.3436 H   0  0  0  0  0  0  0  0  0  0  0  0
    4.3838   -0.6540    3.3223 H   0  0  0  0  0  0  0  0  0  0  0  0
    2.7599   -0.7346    2.6063 H   0  0  0  0  0  0  0  0  0  0  0  0
   -2.7014    3.5814   -0.8867 H   0  0  0  0  0  0  0  0  0  0  0  0
   -3.2197    3.5613    0.8271 H   0  0  0  0  0  0  0  0  0  0  0  0
   -2.3315    2.1633    0.1342 H   0  0  0  0  0  0  0  0  0  0  0  0
   -0.5979    4.8594    4.4503 H   0  0  0  0  0  0  0  0  0  0  0  0
   -0.8747    3.1021    4.6627 H   0  0  0  0  0  0  0  0  0  0  0  0
   -2.2464    4.2456    4.7922 H   0  0  0  0  0  0  0  0  0  0  0  0
    2.0676    0.6495    1.3945 H   0  0  0  0  0  0  0  0  0  0  0  0
    2.0953    2.3929    1.1045 H   0  0  0  0  0  0  0  0  0  0  0  0
    2.0578    3.7061    2.9662 H   0  0  0  0  0  0  0  0  0  0  0  0
  1  6  1  0  0  0  0
  1 13  1  0  0  0  0
  2 18  1  0  0  0  0
  2  9  1  0  0  0  0
  2 17  1  0  0  0  0
  3 19  1  0  0  0  0
  3 20  1  0  0  0  0
  3 21  1  0  0  0  0
  4 12  1  0  0  0  0
  4  5  1  0  0  0  0
  5  7  1  0  0  0  0
  5  6  2  0  0  0  0
  9 11  1  0  0  0  0
 10  3  1  0  0  0  0
 11  8  2  0  0  0  0
 11 12  1  0  0  0  0
 11 10  1  0  0  0  0
 14  1  1  0  0  0  0
 15  1  1  0  0  0  0
 16  2  1  0  0  0  0
 22  4  1  0  0  0  0
 23  4  1  0  0  0  0
 24  7  1  0  0  0  0
M  END
>  <HBA>
6

>  <HBD>
1

>  <TPSA>
99.74

>  <cid>
14210

>  <dipole>
5.18

>  <excitation_energy_1>
4.703

>  <excitation_energy_2>
5.195

>  <excitation_energy_3>
5.31

>  <excitation_energy_4>
5.625

>  <homo_energy>
-6.403

>  <homo_lumo_gap>
5.834

>  <logP>
1.257

>  <lumo_energy>
-0.569

>  <melting_point>
29.17

>  <molecular_refractivity>
47.58

>  <oscillator_strength_1>
0.008

>  <oscillator_strength_2>
0.0321

>  <oscillator_strength_3>
0.0301

>  <oscillator_strength_4>
0.0004

>  <open_babel_can_smiles>
C/N=C(\CSP(=O)(OC)OC)/O

>  <mulliken_charges>
24
1   -0.323073
2   -0.233288
3   -0.233606
4   -0.552505
5   0.513028
6   -0.394243
7   -0.612609
8   -0.584428
9   -0.485932
10   -0.528039
11   1.08278
12   -0.077651
13   0.162031
14   0.160658
15   0.114364
16   0.184986
17   0.18301
18   0.177295
19   0.192081
20   0.189413
21   0.17996
22   0.206969
23   0.226343
24   0.452457

>  <lowdin_charges>
24
1   -0.355062
2   -0.267017
3   -0.268998
4   -0.398481
5   0.119465
6   -0.201014
7   -0.383874
8   -0.587548
9   -0.372833
10   -0.393993
11   0.972279
12   -0.037992
13   0.156871
14   0.153571
15   0.121143
16   0.170285
17   0.166126
18   0.159546
19   0.171948
20   0.168227
21   0.168997
22   0.183969
23   0.191729
24   0.362657

$$$$

