PCCDB-ID:  27742
public computational chemistry database (PCCDB) project, http://pccdb.org

 26 26  0  0  0  0  0  0  0  0999 V2000
    6.9761   -3.4390    3.8571 C   0  0  0  0  0  0  0  0  0  0  0  0
    5.6266   -3.3564    3.5155 C   0  0  0  0  0  0  0  0  0  0  0  0
    7.9060   -2.7004    3.1211 C   0  0  0  0  0  0  0  0  0  0  0  0
    5.1975   -2.5510    2.4596 C   0  0  0  0  0  0  0  0  0  0  0  0
    7.4943   -1.9090    2.0537 C   0  0  0  0  0  0  0  0  0  0  0  0
    2.7843   -2.1829   -1.1395 C   0  0  0  0  0  0  0  0  0  0  0  0
    3.2235   -2.4163   -2.5949 C   0  0  0  0  0  0  0  0  0  0  0  0
    6.1339   -1.8232    1.7050 C   0  0  0  0  0  0  0  0  0  0  0  0
    4.6296   -0.8808   -0.1279 C   0  0  0  0  0  0  0  0  0  0  0  0
    4.4017    0.2548   -0.6893 N   0  0  0  0  0  0  0  0  0  0  0  0
    3.8688   -2.0472   -0.1853 N   0  0  0  0  0  0  0  0  0  0  0  0
    5.7935   -0.9806    0.6326 N   0  0  0  0  0  0  0  0  0  0  0  0
    4.1642   -3.9805   -2.8494 S   0  0  0  0  0  0  0  0  0  0  0  0
    7.2989   -4.0643    4.6843 H   0  0  0  0  0  0  0  0  0  0  0  0
    4.8865   -3.9110    4.0869 H   0  0  0  0  0  0  0  0  0  0  0  0
    8.9625   -2.7467    3.3721 H   0  0  0  0  0  0  0  0  0  0  0  0
    4.1412   -2.4702    2.2329 H   0  0  0  0  0  0  0  0  0  0  0  0
    8.2255   -1.3523    1.4722 H   0  0  0  0  0  0  0  0  0  0  0  0
    2.1478   -3.0107   -0.8070 H   0  0  0  0  0  0  0  0  0  0  0  0
    2.1657   -1.2786   -1.0908 H   0  0  0  0  0  0  0  0  0  0  0  0
    3.9086   -1.6246   -2.9122 H   0  0  0  0  0  0  0  0  0  0  0  0
    2.3597   -2.3989   -3.2670 H   0  0  0  0  0  0  0  0  0  0  0  0
    3.5961    0.2193   -1.3112 H   0  0  0  0  0  0  0  0  0  0  0  0
    4.4048   -2.8985   -0.0536 H   0  0  0  0  0  0  0  0  0  0  0  0
    6.3745   -0.1626    0.5036 H   0  0  0  0  0  0  0  0  0  0  0  0
    3.1214   -4.8212   -2.6672 H   0  0  0  0  0  0  0  0  0  0  0  0
  1 14  1  0  0  0  0
  2  1  1  0  0  0  0
  2 15  1  0  0  0  0
  3 16  1  0  0  0  0
  3  1  2  0  0  0  0
  4  2  2  0  0  0  0
  5  3  1  0  0  0  0
  6 20  1  0  0  0  0
  6 19  1  0  0  0  0
  6 11  1  0  0  0  0
  7  6  1  0  0  0  0
  8  5  2  0  0  0  0
  8  4  1  0  0  0  0
  9 12  1  0  0  0  0
 10  9  2  0  0  0  0
 11  9  1  0  0  0  0
 11 24  1  0  0  0  0
 12  8  1  0  0  0  0
 13 26  1  0  0  0  0
 13  7  1  0  0  0  0
 17  4  1  0  0  0  0
 18  5  1  0  0  0  0
 21  7  1  0  0  0  0
 22  7  1  0  0  0  0
 23 10  1  0  0  0  0
 25 12  1  0  0  0  0
M  END
>  <HBA>
4

>  <HBD>
3

>  <TPSA>
89.21

>  <cid>
27742

>  <dipole>
2.6

>  <excitation_energy_1>
4.624

>  <excitation_energy_2>
4.772

>  <excitation_energy_3>
4.943

>  <excitation_energy_4>
5.204

>  <homo_energy>
-5.521

>  <homo_lumo_gap>
5.505

>  <logP>
2.116

>  <lumo_energy>
-0.016

>  <melting_point>
128.91

>  <molecular_refractivity>
59.68

>  <oscillator_strength_1>
0.0206

>  <oscillator_strength_2>
0.0434

>  <oscillator_strength_3>
0.3169

>  <oscillator_strength_4>
0.0011

>  <open_babel_can_smiles>
SCCNC(=N)Nc1ccccc1

>  <mulliken_charges>
26
1   -0.131979
2   -0.139488
3   -0.133074
4   -0.180002
5   -0.18179
6   -0.147991
7   -0.419424
8   0.336885
9   0.62989
10   -0.664152
11   -0.59292
12   -0.719307
13   -0.079956
14   0.125993
15   0.128905
16   0.130545
17   0.153189
18   0.126971
19   0.156791
20   0.165815
21   0.198776
22   0.180118
23   0.27398
24   0.345426
25   0.341978
26   0.09482

>  <lowdin_charges>
26
1   -0.177359
2   -0.149099
3   -0.144796
4   -0.201365
5   -0.189644
6   -0.207327
7   -0.392049
8   0.055413
9   0.132749
10   -0.4863
11   -0.305655
12   -0.258045
13   -0.081864
14   0.157684
15   0.158827
16   0.157124
17   0.166713
18   0.158364
19   0.155841
20   0.157816
21   0.177924
22   0.166207
23   0.248328
24   0.289224
25   0.298196
26   0.113095

$$$$

