PCCDB-ID:  4522
public computational chemistry database (PCCDB) project, http://pccdb.org

 25 24  0  0  0  0  0  0  0  0999 V2000
    1.9496   -0.9242   -0.2314 C   0  0  0  0  0  0  0  0  0  0  0  0
    4.5294    3.5144   -2.5328 C   0  0  0  0  0  0  0  0  0  0  0  0
    4.0985    1.3472    0.6074 C   0  0  0  0  0  0  0  0  0  0  0  0
    4.1668   -0.1870    0.5657 C   0  0  0  0  0  0  0  0  0  0  0  0
    4.7993    2.0669   -0.5663 C   0  0  0  0  0  0  0  0  0  0  0  0
    3.3863   -0.8035   -0.5276 N   0  0  0  0  0  0  0  0  0  0  0  0
    1.6656    2.2955   -2.3129 N   0  0  0  0  0  0  0  0  0  0  0  0
    3.8658    2.7613   -1.4609 N   0  0  0  0  0  0  0  0  0  0  0  0
    2.9121    1.8790   -1.9635 N   0  0  0  0  0  0  0  0  0  0  0  0
    1.3680    3.4111   -1.9154 O   0  0  0  0  0  0  0  0  0  0  0  0
    3.3639    0.8115   -2.7505 O   0  0  0  0  0  0  0  0  0  0  0  0
    1.4567   -1.4518   -1.0529 H   0  0  0  0  0  0  0  0  0  0  0  0
    1.5034    0.0704   -0.1629 H   0  0  0  0  0  0  0  0  0  0  0  0
    1.7533   -1.4636    0.7090 H   0  0  0  0  0  0  0  0  0  0  0  0
    5.1941    4.2517   -2.0728 H   0  0  0  0  0  0  0  0  0  0  0  0
    3.7669    4.0470   -3.1052 H   0  0  0  0  0  0  0  0  0  0  0  0
    5.1122    2.8685   -3.2059 H   0  0  0  0  0  0  0  0  0  0  0  0
    4.5712    1.6558    1.5478 H   0  0  0  0  0  0  0  0  0  0  0  0
    3.0601    1.6900    0.6672 H   0  0  0  0  0  0  0  0  0  0  0  0
    3.8421   -0.5848    1.5423 H   0  0  0  0  0  0  0  0  0  0  0  0
    5.2116   -0.4922    0.4301 H   0  0  0  0  0  0  0  0  0  0  0  0
    5.4331    1.3577   -1.1272 H   0  0  0  0  0  0  0  0  0  0  0  0
    5.4651    2.8470   -0.1826 H   0  0  0  0  0  0  0  0  0  0  0  0
    3.4384    0.0859   -2.0581 H   0  0  0  0  0  0  0  0  0  0  0  0
    3.7565   -1.7380   -0.6926 H   0  0  0  0  0  0  0  0  0  0  0  0
  1 13  1  0  0  0  0
  1 14  1  0  0  0  0
  2 15  1  0  0  0  0
  2  8  1  0  0  0  0
  3 19  1  0  0  0  0
  3 18  1  0  0  0  0
  4  3  1  0  0  0  0
  4 20  1  0  0  0  0
  5 23  1  0  0  0  0
  5  3  1  0  0  0  0
  6  1  1  0  0  0  0
  6  4  1  0  0  0  0
  7  9  1  0  0  0  0
  7 10  1  0  0  0  0
  8  5  1  0  0  0  0
  9  8  1  0  0  0  0
 11 24  1  0  0  0  0
 11  9  1  0  0  0  0
 12  1  1  0  0  0  0
 16  2  1  0  0  0  0
 17  2  1  0  0  0  0
 21  4  1  0  0  0  0
 22  5  1  0  0  0  0
 25  6  1  0  0  0  0
M  RAD  2   7   2  10   2
M  END
>  <HBA>
5

>  <HBD>
1

>  <TPSA>
75.58

>  <cid>
4522

>  <dipole>
6.0

>  <excitation_energy_1>
3.115

>  <excitation_energy_2>
4.332

>  <excitation_energy_3>
5.091

>  <excitation_energy_4>
5.343

>  <homo_energy>
-5.807

>  <homo_lumo_gap>
4.969

>  <logP>
-1.102

>  <lumo_energy>
-0.838

>  <melting_point>
74.02

>  <molecular_refractivity>
43.05

>  <oscillator_strength_1>
0.0011

>  <oscillator_strength_2>
0.0117

>  <oscillator_strength_3>
0.0347

>  <oscillator_strength_4>
0.0012

>  <open_babel_can_smiles>
CNCCCN(N([N][O])O)C

>  <mulliken_charges>
25
1   -0.31805
2   -0.301346
3   -0.277486
4   -0.137883
5   -0.123327
6   -0.592279
7   0.154934
8   -0.254036
9   0.071069
10   -0.338812
11   -0.531969
12   0.168853
13   0.187848
14   0.140827
15   0.155074
16   0.180862
17   0.153314
18   0.147031
19   0.178709
20   0.1326
21   0.144956
22   0.1331
23   0.151726
24   0.454605
25   0.31968

>  <lowdin_charges>
25
1   -0.366892
2   -0.366723
3   -0.29124
4   -0.2039
5   -0.206463
6   -0.345538
7   0.057545
8   -0.108528
9   0.062595
10   -0.244207
11   -0.413516
12   0.163259
13   0.165169
14   0.13629
15   0.15782
16   0.169596
17   0.143992
18   0.155965
19   0.164179
20   0.132911
21   0.145089
22   0.130335
23   0.155434
24   0.342438
25   0.264388

$$$$

