PCCDB-ID:  11614
public computational chemistry database (PCCDB) project, http://pccdb.org

 17 16  0  0  0  0  0  0  0  0999 V2000
    0.7976   -0.1446   -0.2214 C   0  0  0  0  0  0  0  0  0  0  0  0
    2.3233   -0.0723   -0.1002 C   0  0  0  0  0  0  0  0  0  0  0  0
    2.7843    0.7253    1.1276 C   0  0  0  0  0  0  0  0  0  0  0  0
    4.3040    0.7859    1.2329 C   0  0  0  0  0  0  0  0  0  0  0  0
    4.8202    1.0001    3.5437 C   0  0  0  0  0  0  0  0  0  0  0  0
    4.5909   -0.1617    3.7792 O   0  0  0  0  0  0  0  0  0  0  0  0
    4.7278    1.6088    2.3511 O   0  0  0  0  0  0  0  0  0  0  0  0
    0.4964   -0.7179   -1.1051 H   0  0  0  0  0  0  0  0  0  0  0  0
    0.3590    0.8569   -0.3072 H   0  0  0  0  0  0  0  0  0  0  0  0
    0.3543   -0.6272    0.6577 H   0  0  0  0  0  0  0  0  0  0  0  0
    2.7418    0.3810   -1.0101 H   0  0  0  0  0  0  0  0  0  0  0  0
    2.7341   -1.0901   -0.0479 H   0  0  0  0  0  0  0  0  0  0  0  0
    2.3849    0.2660    2.0399 H   0  0  0  0  0  0  0  0  0  0  0  0
    2.3892    1.7487    1.0800 H   0  0  0  0  0  0  0  0  0  0  0  0
    4.7456    1.2704    0.3580 H   0  0  0  0  0  0  0  0  0  0  0  0
    4.7332   -0.2131    1.3485 H   0  0  0  0  0  0  0  0  0  0  0  0
    5.1501    1.7374    4.2921 H   0  0  0  0  0  0  0  0  0  0  0  0
  1  2  1  0  0  0  0
  1 10  1  0  0  0  0
  2 12  1  0  0  0  0
  2  3  1  0  0  0  0
  3  4  1  0  0  0  0
  3 13  1  0  0  0  0
  4 16  1  0  0  0  0
  4  7  1  0  0  0  0
  5  6  2  0  0  0  0
  5 17  1  0  0  0  0
  7  5  1  0  0  0  0
  8  1  1  0  0  0  0
  9  1  1  0  0  0  0
 11  2  1  0  0  0  0
 14  3  1  0  0  0  0
 15  4  1  0  0  0  0
M  END
>  <HBA>
2

>  <HBD>
0

>  <TPSA>
26.3

>  <cid>
11614

>  <dipole>
1.93

>  <excitation_energy_1>
5.809

>  <excitation_energy_2>
7.467

>  <excitation_energy_3>
7.658

>  <excitation_energy_4>
7.838

>  <homo_energy>
-7.625

>  <homo_lumo_gap>
7.859

>  <logP>
1.595

>  <lumo_energy>
0.234

>  <melting_point>
-41.13

>  <molecular_refractivity>
27.82

>  <oscillator_strength_1>
0.0013

>  <oscillator_strength_2>
0.0509

>  <oscillator_strength_3>
0.0679

>  <oscillator_strength_4>
0.0229

>  <open_babel_can_smiles>
CCCCOC=O

>  <mulliken_charges>
17
1   -0.441526
2   -0.25911
3   -0.27185
4   -0.054197
5   0.388796
6   -0.422452
7   -0.417644
8   0.146325
9   0.144664
10   0.14853
11   0.133698
12   0.141367
13   0.160437
14   0.143987
15   0.153382
16   0.169599
17   0.135994

>  <lowdin_charges>
17
1   -0.443135
2   -0.271382
3   -0.285774
4   -0.134188
5   0.085084
6   -0.255307
7   -0.184862
8   0.152469
9   0.147616
10   0.150813
11   0.140637
12   0.143207
13   0.15593
14   0.146309
15   0.153977
16   0.157365
17   0.14124

$$$$

