PCCDB-ID:  25378
public computational chemistry database (PCCDB) project, http://pccdb.org

 34 33  0  0  0  0  0  0  0  0999 V2000
    3.8810    3.0564   -0.2677 C   0  0  0  0  0  0  0  0  0  0  0  0
    5.4158   -4.8986    0.9866 C   0  0  0  0  0  0  0  0  0  0  0  0
    2.8676    4.2023   -0.2420 C   0  0  0  0  0  0  0  0  0  0  0  0
    5.3957   -4.5202   -0.4945 C   0  0  0  0  0  0  0  0  0  0  0  0
    3.4283    1.8361    0.5359 C   0  0  0  0  0  0  0  0  0  0  0  0
    5.7516   -3.7530    1.9520 C   0  0  0  0  0  0  0  0  0  0  0  0
    4.0409   -0.4246    1.2301 C   0  0  0  0  0  0  0  0  0  0  0  0
    5.1547   -1.4717    1.2034 C   0  0  0  0  0  0  0  0  0  0  0  0
    3.3688    5.3485   -1.0105 N   0  0  0  0  0  0  0  0  0  0  0  0
    5.1856   -5.7191   -1.3199 N   0  0  0  0  0  0  0  0  0  0  0  0
    4.4444    0.7855    0.5190 N   0  0  0  0  0  0  0  0  0  0  0  0
    4.7564   -2.6678    1.9457 N   0  0  0  0  0  0  0  0  0  0  0  0
    4.8421    3.4134    0.1174 H   0  0  0  0  0  0  0  0  0  0  0  0
    4.0540    2.7562   -1.3140 H   0  0  0  0  0  0  0  0  0  0  0  0
    6.1489   -5.7048    1.1226 H   0  0  0  0  0  0  0  0  0  0  0  0
    4.4337   -5.3062    1.2654 H   0  0  0  0  0  0  0  0  0  0  0  0
    2.7271    4.5360    0.7944 H   0  0  0  0  0  0  0  0  0  0  0  0
    1.8847    3.8281   -0.5859 H   0  0  0  0  0  0  0  0  0  0  0  0
    6.3682   -4.0924   -0.7749 H   0  0  0  0  0  0  0  0  0  0  0  0
    4.6383   -3.7342   -0.6570 H   0  0  0  0  0  0  0  0  0  0  0  0
    2.4453    1.4858    0.1604 H   0  0  0  0  0  0  0  0  0  0  0  0
    3.2684    2.1272    1.5837 H   0  0  0  0  0  0  0  0  0  0  0  0
    6.7644   -3.3685    1.7357 H   0  0  0  0  0  0  0  0  0  0  0  0
    5.7952   -4.1734    2.9642 H   0  0  0  0  0  0  0  0  0  0  0  0
    3.8339   -0.1431    2.2733 H   0  0  0  0  0  0  0  0  0  0  0  0
    3.1109   -0.8788    0.8398 H   0  0  0  0  0  0  0  0  0  0  0  0
    6.0876   -1.0136    1.5792 H   0  0  0  0  0  0  0  0  0  0  0  0
    5.3470   -1.7621    0.1624 H   0  0  0  0  0  0  0  0  0  0  0  0
    3.4225    5.0963   -1.9972 H   0  0  0  0  0  0  0  0  0  0  0  0
    2.7016    6.1167   -0.9560 H   0  0  0  0  0  0  0  0  0  0  0  0
    4.2611   -6.1024   -1.1217 H   0  0  0  0  0  0  0  0  0  0  0  0
    5.1698   -5.4579   -2.3050 H   0  0  0  0  0  0  0  0  0  0  0  0
    4.6452    0.5441   -0.4519 H   0  0  0  0  0  0  0  0  0  0  0  0
    4.5657   -2.3901    2.9058 H   0  0  0  0  0  0  0  0  0  0  0  0
  1  3  1  0  0  0  0
  1 13  1  0  0  0  0
  1  5  1  0  0  0  0
  2 15  1  0  0  0  0
  2 16  1  0  0  0  0
  2  6  1  0  0  0  0
  3 17  1  0  0  0  0
  4  2  1  0  0  0  0
  5 22  1  0  0  0  0
  6 24  1  0  0  0  0
  7 25  1  0  0  0  0
  8  7  1  0  0  0  0
  8 27  1  0  0  0  0
  8 12  1  0  0  0  0
  9 30  1  0  0  0  0
  9  3  1  0  0  0  0
 10 31  1  0  0  0  0
 10  4  1  0  0  0  0
 11  5  1  0  0  0  0
 11  7  1  0  0  0  0
 12  6  1  0  0  0  0
 12 34  1  0  0  0  0
 14  1  1  0  0  0  0
 18  3  1  0  0  0  0
 19  4  1  0  0  0  0
 20  4  1  0  0  0  0
 21  5  1  0  0  0  0
 23  6  1  0  0  0  0
 26  7  1  0  0  0  0
 28  8  1  0  0  0  0
 29  9  1  0  0  0  0
 32 10  1  0  0  0  0
 33 11  1  0  0  0  0
M  END
>  <HBA>
4

>  <HBD>
4

>  <TPSA>
76.1

>  <cid>
25378

>  <dipole>
2.49

>  <excitation_energy_1>
5.3

>  <excitation_energy_2>
5.354

>  <excitation_energy_3>
5.486

>  <excitation_energy_4>
5.541

>  <homo_energy>
-5.774

>  <homo_lumo_gap>
7.995

>  <logP>
1.046

>  <lumo_energy>
2.22

>  <melting_point>
134.97

>  <molecular_refractivity>
51.59

>  <oscillator_strength_1>
0.001

>  <oscillator_strength_2>
0.0014

>  <oscillator_strength_3>
0.0146

>  <oscillator_strength_4>
0.0062

>  <open_babel_can_smiles>
NCCCNCCNCCCN

>  <mulliken_charges>
34
1   -0.259346
2   -0.223105
3   -0.135831
4   -0.139346
5   -0.108324
6   -0.144687
7   -0.119748
8   -0.131189
9   -0.714079
10   -0.717957
11   -0.561963
12   -0.557569
13   0.164283
14   0.115979
15   0.139194
16   0.127711
17   0.139749
18   0.110119
19   0.131414
20   0.125949
21   0.105665
22   0.136683
23   0.122214
24   0.130039
25   0.129415
26   0.123066
27   0.129255
28   0.134134
29   0.290321
30   0.294778
31   0.290483
32   0.291971
33   0.287366
34   0.293357

>  <lowdin_charges>
34
1   -0.28068
2   -0.28329
3   -0.202521
4   -0.210109
5   -0.197688
6   -0.200536
7   -0.204786
8   -0.207866
9   -0.556012
10   -0.556889
11   -0.360806
12   -0.369052
13   0.157784
14   0.130854
15   0.148463
16   0.139663
17   0.140296
18   0.114359
19   0.136675
20   0.1235
21   0.112298
22   0.138372
23   0.125964
24   0.142033
25   0.135183
26   0.122527
27   0.125169
28   0.136123
29   0.248448
30   0.254503
31   0.249279
32   0.25057
33   0.246608
34   0.251564

$$$$

