PCCDB-ID:  42033
public computational chemistry database (PCCDB) project, http://pccdb.org

 24 24  0  0  0  0  0  0  0  0999 V2000
    3.7788   -0.5229    1.0023 C   0  0  0  0  0  0  0  0  0  0  0  0
    2.6483    0.0158    0.1027 C   0  0  0  0  0  0  0  0  0  0  0  0
    2.5670    2.5273   -0.1754 C   0  0  0  0  0  0  0  0  0  0  0  0
    3.7352    3.6662   -1.9737 C   0  0  0  0  0  0  0  0  0  0  0  0
    3.0114    1.2910   -0.6335 C   0  0  0  0  0  0  0  0  0  0  0  0
    2.9324    3.6952   -0.8439 C   0  0  0  0  0  0  0  0  0  0  0  0
    4.1977    2.4429   -2.4661 C   0  0  0  0  0  0  0  0  0  0  0  0
    3.8286    1.2664   -1.7833 C   0  0  0  0  0  0  0  0  0  0  0  0
    5.0612    2.5175   -3.7085 C   0  0  0  0  0  0  0  0  0  0  0  0
    2.4480    4.9851   -0.3349 N   0  0  0  0  0  0  0  0  0  0  0  0
    4.2956    0.0756   -2.2782 O   0  0  0  0  0  0  0  0  0  0  0  0
    5.3252    3.5808   -4.2211 O   0  0  0  0  0  0  0  0  0  0  0  0
    5.5301    1.3698   -4.2318 O   0  0  0  0  0  0  0  0  0  0  0  0
    1.7367    4.9676    0.6712 O   0  0  0  0  0  0  0  0  0  0  0  0
    2.7811    6.0009   -0.9412 O   0  0  0  0  0  0  0  0  0  0  0  0
    3.4644   -1.4410    1.5097 H   0  0  0  0  0  0  0  0  0  0  0  0
    4.0467    0.2150    1.7648 H   0  0  0  0  0  0  0  0  0  0  0  0
    4.6886   -0.7462    0.4324 H   0  0  0  0  0  0  0  0  0  0  0  0
    1.7627    0.2103    0.7162 H   0  0  0  0  0  0  0  0  0  0  0  0
    2.3304   -0.7642   -0.6078 H   0  0  0  0  0  0  0  0  0  0  0  0
    1.9344    2.5983    0.7018 H   0  0  0  0  0  0  0  0  0  0  0  0
    4.0122    4.5774   -2.4885 H   0  0  0  0  0  0  0  0  0  0  0  0
    3.9527   -0.6719   -1.7651 H   0  0  0  0  0  0  0  0  0  0  0  0
    5.2274    0.6026   -3.7103 H   0  0  0  0  0  0  0  0  0  0  0  0
  1 16  1  0  0  0  0
  1 17  1  0  0  0  0
  2 19  1  0  0  0  0
  2  1  1  0  0  0  0
  3 21  1  0  0  0  0
  4  6  1  0  0  0  0
  5  3  1  0  0  0  0
  5  2  1  0  0  0  0
  6 10  1  0  0  0  0
  6  3  2  0  0  0  0
  7  4  2  0  0  0  0
  7  8  1  0  0  0  0
  8  5  2  0  0  0  0
  9  7  1  0  0  0  0
 10 14  2  0  0  0  0
 11  8  1  0  0  0  0
 11 23  1  0  0  0  0
 12  9  2  0  0  0  0
 13 24  1  0  0  0  0
 13  9  1  0  0  0  0
 15 10  2  0  0  0  0
 18  1  1  0  0  0  0
 20  2  1  0  0  0  0
 22  4  1  0  0  0  0
M  END
>  <HBA>
3

>  <HBD>
2

>  <TPSA>
103.35

>  <cid>
42033

>  <dipole>
8.8

>  <excitation_energy_1>
3.76

>  <excitation_energy_2>
4.27

>  <excitation_energy_3>
4.312

>  <excitation_energy_4>
4.376

>  <homo_energy>
-7.445

>  <homo_lumo_gap>
4.906

>  <logP>
2.084

>  <lumo_energy>
-2.539

>  <melting_point>
179.59

>  <molecular_refractivity>
54.02

>  <oscillator_strength_1>
0.0

>  <oscillator_strength_2>
0.0004

>  <oscillator_strength_3>
0.0634

>  <oscillator_strength_4>
0.0004

>  <open_babel_can_smiles>
CCc1cc(cc(c1O)C(=O)O)N(=O)=O

>  <mulliken_charges>
24
1   -0.444492
2   -0.397656
3   -0.225186
4   -0.209166
5   0.167602
6   0.29306
7   0.007689
8   0.25149
9   0.592205
10   0.379206
11   -0.685024
12   -0.448376
13   -0.595407
14   -0.399477
15   -0.386273
16   0.165201
17   0.17321
18   0.148115
19   0.178256
20   0.145597
21   0.18566
22   0.22102
23   0.440233
24   0.442515

>  <lowdin_charges>
24
1   -0.447408
2   -0.282295
3   -0.126874
4   -0.09973
5   -0.040927
6   -0.012485
7   -0.080314
8   0.11439
9   0.197971
10   0.309527
11   -0.374354
12   -0.2432
13   -0.354071
14   -0.251547
15   -0.236732
16   0.161278
17   0.165071
18   0.148596
19   0.169788
20   0.145953
21   0.189438
22   0.210729
23   0.375014
24   0.362183

$$$$

