PCCDB-ID:  7975
public computational chemistry database (PCCDB) project, http://pccdb.org

 14 14  0  0  0  0  0  0  0  0999 V2000
    1.0000    0.0822   -0.0117 C   0  0  0  0  0  0  0  0  0  0  0  0
    4.5734   -1.2172   -0.2620 C   0  0  0  0  0  0  0  0  0  0  0  0
    5.2482    0.0014   -0.2873 C   0  0  0  0  0  0  0  0  0  0  0  0
    3.1826   -1.2121   -0.1694 C   0  0  0  0  0  0  0  0  0  0  0  0
    4.4882    1.1702   -0.2190 C   0  0  0  0  0  0  0  0  0  0  0  0
    2.5046    0.0122   -0.1055 C   0  0  0  0  0  0  0  0  0  0  0  0
    3.1546    1.1895   -0.1304 N   0  0  0  0  0  0  0  0  0  0  0  0
    0.5531   -0.9092    0.1094 H   0  0  0  0  0  0  0  0  0  0  0  0
    0.5817    0.5426   -0.9147 H   0  0  0  0  0  0  0  0  0  0  0  0
    0.7008    0.7108    0.8337 H   0  0  0  0  0  0  0  0  0  0  0  0
    5.1184   -2.1563   -0.3131 H   0  0  0  0  0  0  0  0  0  0  0  0
    6.3309    0.0505   -0.3557 H   0  0  0  0  0  0  0  0  0  0  0  0
    2.6245   -2.1439   -0.1459 H   0  0  0  0  0  0  0  0  0  0  0  0
    4.9765    2.1440   -0.2359 H   0  0  0  0  0  0  0  0  0  0  0  0
  1  8  1  0  0  0  0
  1 10  1  0  0  0  0
  2  4  1  0  0  0  0
  3  2  2  0  0  0  0
  3  5  1  0  0  0  0
  4 13  1  0  0  0  0
  4  6  2  0  0  0  0
  5  7  2  0  0  0  0
  6  1  1  0  0  0  0
  7  6  1  0  0  0  0
  9  1  1  0  0  0  0
 11  2  1  0  0  0  0
 12  3  1  0  0  0  0
 14  5  1  0  0  0  0
M  END
>  <HBA>
1

>  <HBD>
0

>  <TPSA>
12.89

>  <cid>
7975

>  <dipole>
1.81

>  <excitation_energy_1>
4.831

>  <excitation_energy_2>
5.196

>  <excitation_energy_3>
5.362

>  <excitation_energy_4>
6.155

>  <homo_energy>
-6.746

>  <homo_lumo_gap>
6.21

>  <logP>
1.39

>  <lumo_energy>
-0.536

>  <melting_point>
22.66

>  <molecular_refractivity>
29.2

>  <oscillator_strength_1>
0.0042

>  <oscillator_strength_2>
0.0001

>  <oscillator_strength_3>
0.0574

>  <oscillator_strength_4>
0.0455

>  <open_babel_can_smiles>
Cc1ccccn1

>  <mulliken_charges>
14
1   -0.501942
2   -0.100604
3   -0.143051
4   -0.168686
5   0.037186
6   0.300791
7   -0.458735
8   0.146703
9   0.171332
10   0.172595
11   0.14051
12   0.134958
13   0.130714
14   0.138229

>  <lowdin_charges>
14
1   -0.445713
2   -0.128162
3   -0.18021
4   -0.186606
5   -0.087254
6   0.058324
7   -0.160606
8   0.152475
9   0.168871
10   0.170064
11   0.162191
12   0.16094
13   0.160721
14   0.154965

$$$$

