PCCDB-ID:  10399
public computational chemistry database (PCCDB) project, http://pccdb.org

 22 22  0  0  0  0  0  0  0  0999 V2000
   -1.5485    0.7712    0.1302 C   0  0  0  0  0  0  0  0  0  0  0  0
   -0.3215    1.5364   -0.3981 C   0  0  0  0  0  0  0  0  0  0  0  0
   -1.5542   -0.7481   -0.0979 C   0  0  0  0  0  0  0  0  0  0  0  0
    0.9698    1.2545    0.3945 C   0  0  0  0  0  0  0  0  0  0  0  0
   -0.3212   -1.5239    0.3993 C   0  0  0  0  0  0  0  0  0  0  0  0
    1.7603   -0.0129    0.0061 C   0  0  0  0  0  0  0  0  0  0  0  0
    0.9534   -1.2536   -0.4210 C   0  0  0  0  0  0  0  0  0  0  0  0
    1.8155   -2.3974   -0.4509 O   0  0  0  0  0  0  0  0  0  0  0  0
   -2.4549    1.1869   -0.3307 H   0  0  0  0  0  0  0  0  0  0  0  0
   -1.6374    0.9737    1.2081 H   0  0  0  0  0  0  0  0  0  0  0  0
   -0.5413    2.6098   -0.3285 H   0  0  0  0  0  0  0  0  0  0  0  0
   -0.1723    1.3295   -1.4679 H   0  0  0  0  0  0  0  0  0  0  0  0
   -1.6713   -0.9496   -1.1732 H   0  0  0  0  0  0  0  0  0  0  0  0
   -2.4495   -1.1630    0.3837 H   0  0  0  0  0  0  0  0  0  0  0  0
    0.7047    1.2093    1.4598 H   0  0  0  0  0  0  0  0  0  0  0  0
    1.6490    2.1109    0.2980 H   0  0  0  0  0  0  0  0  0  0  0  0
   -0.5283   -2.5969    0.3071 H   0  0  0  0  0  0  0  0  0  0  0  0
   -0.1451   -1.3257    1.4681 H   0  0  0  0  0  0  0  0  0  0  0  0
    2.3852   -0.3015    0.8654 H   0  0  0  0  0  0  0  0  0  0  0  0
    2.4618    0.2144   -0.8060 H   0  0  0  0  0  0  0  0  0  0  0  0
    0.6513   -1.1396   -1.4692 H   0  0  0  0  0  0  0  0  0  0  0  0
    2.1504   -2.5263    0.4515 H   0  0  0  0  0  0  0  0  0  0  0  0
  1 10  1  0  0  0  0
  2 11  1  0  0  0  0
  2  1  1  0  0  0  0
  2  4  1  0  0  0  0
  3  1  1  0  0  0  0
  3 14  1  0  0  0  0
  3  5  1  0  0  0  0
  4 15  1  0  0  0  0
  5 18  1  0  0  0  0
  6  4  1  0  0  0  0
  6 19  1  0  0  0  0
  7  6  1  0  0  0  0
  7  5  1  0  0  0  0
  8  7  1  0  0  0  0
  8 22  1  0  0  0  0
  9  1  1  0  0  0  0
 12  2  1  0  0  0  0
 13  3  1  0  0  0  0
 16  4  1  0  0  0  0
 17  5  1  0  0  0  0
 20  6  1  0  0  0  0
 21  7  1  0  0  0  0
M  END
>  <HBA>
1

>  <HBD>
1

>  <TPSA>
20.23

>  <cid>
10399

>  <dipole>
1.71

>  <excitation_energy_1>
6.425

>  <excitation_energy_2>
6.836

>  <excitation_energy_3>
7.085

>  <excitation_energy_4>
7.147

>  <homo_energy>
-6.947

>  <homo_lumo_gap>
9.023

>  <logP>
1.702

>  <lumo_energy>
2.076

>  <melting_point>
13.97

>  <molecular_refractivity>
34.81

>  <oscillator_strength_1>
0.0144

>  <oscillator_strength_2>
0.0041

>  <oscillator_strength_3>
0.0077

>  <oscillator_strength_4>
0.0059

>  <open_babel_can_smiles>
OC1CCCCCC1

>  <mulliken_charges>
22
1   -0.255278
2   -0.257485
3   -0.265246
4   -0.265902
5   -0.284282
6   -0.276284
7   0.14776
8   -0.630702
9   0.130111
10   0.127367
11   0.131974
12   0.131168
13   0.132501
14   0.13264
15   0.130603
16   0.134892
17   0.146642
18   0.119462
19   0.115013
20   0.144506
21   0.131869
22   0.378671

>  <lowdin_charges>
22
1   -0.27655
2   -0.277804
3   -0.275457
4   -0.281645
5   -0.297138
6   -0.295743
7   -0.003804
8   -0.463545
9   0.143756
10   0.134839
11   0.143671
12   0.137643
13   0.137579
14   0.145844
15   0.137006
16   0.147643
17   0.15188
18   0.133368
19   0.137043
20   0.149602
21   0.138334
22   0.333478

$$$$

