PCCDB-ID:  11593
public computational chemistry database (PCCDB) project, http://pccdb.org

 16 15  0  0  0  0  0  0  0  0999 V2000
    2.1427    1.3420    1.5140 C   0  0  0  0  0  0  0  0  0  0  0  0
    0.8251   -2.9042   -2.1439 C   0  0  0  0  0  0  0  0  0  0  0  0
    2.7791   -0.5244   -0.1439 C   0  0  0  0  0  0  0  0  0  0  0  0
    1.7577    0.5313    0.2921 C   0  0  0  0  0  0  0  0  0  0  0  0
    1.3821   -2.2526   -0.9044 C   0  0  0  0  0  0  0  0  0  0  0  0
    0.7154    0.6889   -0.3056 O   0  0  0  0  0  0  0  0  0  0  0  0
    1.0753   -2.5110    0.2368 O   0  0  0  0  0  0  0  0  0  0  0  0
    2.3031   -1.3036   -1.2331 O   0  0  0  0  0  0  0  0  0  0  0  0
    2.0279    0.7196    2.4109 H   0  0  0  0  0  0  0  0  0  0  0  0
    1.4862    2.2100    1.6009 H   0  0  0  0  0  0  0  0  0  0  0  0
    3.1896    1.6659    1.4748 H   0  0  0  0  0  0  0  0  0  0  0  0
    0.2529   -3.7896   -1.8647 H   0  0  0  0  0  0  0  0  0  0  0  0
    1.6276   -3.1698   -2.8381 H   0  0  0  0  0  0  0  0  0  0  0  0
    0.1679   -2.1914   -2.6542 H   0  0  0  0  0  0  0  0  0  0  0  0
    3.0399   -1.1605    0.7092 H   0  0  0  0  0  0  0  0  0  0  0  0
    3.6867   -0.0266   -0.5018 H   0  0  0  0  0  0  0  0  0  0  0  0
  1 10  1  0  0  0  0
  1  9  1  0  0  0  0
  2 12  1  0  0  0  0
  2  5  1  0  0  0  0
  3  4  1  0  0  0  0
  3 15  1  0  0  0  0
  4  1  1  0  0  0  0
  5  7  2  0  0  0  0
  6  4  2  0  0  0  0
  8  5  1  0  0  0  0
  8  3  1  0  0  0  0
 11  1  1  0  0  0  0
 13  2  1  0  0  0  0
 14  2  1  0  0  0  0
 16  3  1  0  0  0  0
M  END
>  <HBA>
3

>  <HBD>
0

>  <TPSA>
43.37

>  <cid>
11593

>  <dipole>
2.65

>  <excitation_energy_1>
4.499

>  <excitation_energy_2>
5.851

>  <excitation_energy_3>
6.028

>  <excitation_energy_4>
6.284

>  <homo_energy>
-6.934

>  <homo_lumo_gap>
6.384

>  <logP>
0.139

>  <lumo_energy>
-0.55

>  <melting_point>
7.93

>  <molecular_refractivity>
27.63

>  <oscillator_strength_1>
0.0001

>  <oscillator_strength_2>
0.0007

>  <oscillator_strength_3>
0.002

>  <oscillator_strength_4>
0.0085

>  <open_babel_can_smiles>
CC(=O)OCC(=O)C

>  <mulliken_charges>
16
1   -0.539462
2   -0.527797
3   -0.129966
4   0.450722
5   0.615351
6   -0.421548
7   -0.468021
8   -0.439086
9   0.189399
10   0.1883
11   0.163339
12   0.182634
13   0.178591
14   0.197143
15   0.184262
16   0.17614

>  <lowdin_charges>
16
1   -0.475576
2   -0.464717
3   -0.175377
4   0.158756
5   0.209491
6   -0.217916
7   -0.260735
8   -0.184348
9   0.181981
10   0.179049
11   0.164908
12   0.176844
13   0.176615
14   0.18787
15   0.171673
16   0.171483

$$$$

