PCCDB-ID:  29096
public computational chemistry database (PCCDB) project, http://pccdb.org

 31 30  0  0  1  0  0  0  0  0999 V2000
    4.4934   -0.5543   -3.3404 C   0  0  0  0  0  0  0  0  0  0  0  0
    3.3972    1.0788   -0.3941 C   0  0  0  0  0  0  0  0  0  0  0  0
    8.0411   -3.5835   -1.5140 C   0  0  0  0  0  0  0  0  0  0  0  0
    9.6211   -1.8978   -0.4988 C   0  0  0  0  0  0  0  0  0  0  0  0
    3.9157   -0.6373   -2.1408 C   0  0  0  0  0  0  0  0  0  0  0  0
    5.7211   -2.0947   -0.0783 C   0  0  0  0  0  0  0  0  0  0  0  0
    4.6711   -1.0178    0.2398 C   0  0  0  0  0  0  0  0  0  0  0  0
    7.1386   -1.5369   -0.2742 C   0  0  0  0  0  0  0  0  0  0  0  0
    4.4095    0.0209   -0.8765 C   0  0  2  0  0  0  0  0  0  0  0  0
    8.2577   -2.5935   -0.3588 C   0  0  0  0  0  0  0  0  0  0  0  0
    8.2129   -3.2968    0.8969 O   0  0  0  0  0  0  0  0  0  0  0  0
    4.0742   -1.0444   -4.2154 H   0  0  0  0  0  0  0  0  0  0  0  0
    5.4085    0.0146   -3.4954 H   0  0  0  0  0  0  0  0  0  0  0  0
    3.2349    1.8478   -1.1570 H   0  0  0  0  0  0  0  0  0  0  0  0
    3.7523    1.5705    0.5195 H   0  0  0  0  0  0  0  0  0  0  0  0
    2.4258    0.6200   -0.1690 H   0  0  0  0  0  0  0  0  0  0  0  0
    7.9918   -3.0678   -2.4801 H   0  0  0  0  0  0  0  0  0  0  0  0
    7.1150   -4.1483   -1.3756 H   0  0  0  0  0  0  0  0  0  0  0  0
    8.8709   -4.3012   -1.5637 H   0  0  0  0  0  0  0  0  0  0  0  0
    9.6849   -1.3199   -1.4283 H   0  0  0  0  0  0  0  0  0  0  0  0
   10.4338   -2.6362   -0.5115 H   0  0  0  0  0  0  0  0  0  0  0  0
    9.7907   -1.2206    0.3449 H   0  0  0  0  0  0  0  0  0  0  0  0
    2.9954   -1.2177   -2.0357 H   0  0  0  0  0  0  0  0  0  0  0  0
    5.4088   -2.6435   -0.9755 H   0  0  0  0  0  0  0  0  0  0  0  0
    5.7456   -2.8180    0.7443 H   0  0  0  0  0  0  0  0  0  0  0  0
    4.9690   -0.4787    1.1508 H   0  0  0  0  0  0  0  0  0  0  0  0
    3.7180   -1.5126    0.4790 H   0  0  0  0  0  0  0  0  0  0  0  0
    7.3812   -0.8739    0.5680 H   0  0  0  0  0  0  0  0  0  0  0  0
    7.1838   -0.9224   -1.1826 H   0  0  0  0  0  0  0  0  0  0  0  0
    5.3513    0.5377   -1.1068 H   0  0  0  0  0  0  0  0  0  0  0  0
    8.8939   -3.9875    0.8656 H   0  0  0  0  0  0  0  0  0  0  0  0
  1  5  2  0  0  0  0
  2 16  1  0  0  0  0
  2 15  1  0  0  0  0
  3 18  1  0  0  0  0
  3 10  1  0  0  0  0
  4 10  1  0  0  0  0
  4 22  1  0  0  0  0
  5 23  1  0  0  0  0
  5  9  1  0  0  0  0
  6  7  1  0  0  0  0
  6 25  1  0  0  0  0
  7 27  1  0  0  0  0
  7 26  1  0  0  0  0
  8  6  1  0  0  0  0
  8 28  1  0  0  0  0
  9 30  1  6  0  0  0
  9  2  1  0  0  0  0
  9  7  1  0  0  0  0
 10  8  1  0  0  0  0
 10 11  1  0  0  0  0
 12  1  1  0  0  0  0
 13  1  1  0  0  0  0
 14  2  1  0  0  0  0
 17  3  1  0  0  0  0
 19  3  1  0  0  0  0
 20  4  1  0  0  0  0
 21  4  1  0  0  0  0
 24  6  1  0  0  0  0
 29  8  1  0  0  0  0
 31 11  1  0  0  0  0
M  END
>  <HBA>
1

>  <HBD>
1

>  <TPSA>
20.23

>  <cid>
29096

>  <dipole>
1.21

>  <excitation_energy_1>
6.353

>  <excitation_energy_2>
6.388

>  <excitation_energy_3>
6.621

>  <excitation_energy_4>
6.788

>  <homo_energy>
-6.781

>  <homo_lumo_gap>
7.464

>  <logP>
2.75

>  <lumo_energy>
0.683

>  <melting_point>
-20.18

>  <molecular_refractivity>
50.91

>  <oscillator_strength_1>
0.0304

>  <oscillator_strength_2>
0.0259

>  <oscillator_strength_3>
0.0218

>  <oscillator_strength_4>
0.014

>  <open_babel_can_smiles>
C=C[C@H](CCCC(O)(C)C)C

>  <mulliken_charges>
31
1   -0.351569
2   -0.445606
3   -0.461894
4   -0.452697
5   -0.031126
6   -0.267561
7   -0.265675
8   -0.25454
9   -0.118629
10   0.304916
11   -0.637744
12   0.136695
13   0.1324
14   0.147742
15   0.14197
16   0.139659
17   0.143581
18   0.160876
19   0.126195
20   0.139292
21   0.12657
22   0.152877
23   0.119251
24   0.135233
25   0.155599
26   0.129244
27   0.124192
28   0.133176
29   0.128559
30   0.126854
31   0.382161

>  <lowdin_charges>
31
1   -0.34997
2   -0.442083
3   -0.459776
4   -0.457024
5   -0.139526
6   -0.283466
7   -0.273945
8   -0.280465
9   -0.124931
10   0.124277
11   -0.466916
12   0.157485
13   0.151836
14   0.152612
15   0.149136
16   0.145933
17   0.152956
18   0.158286
19   0.142831
20   0.150494
21   0.142755
22   0.155881
23   0.146903
24   0.143332
25   0.155621
26   0.140958
27   0.139387
28   0.1459
29   0.142344
30   0.1407
31   0.338473

$$$$

