PCCDB-ID:  42438
public computational chemistry database (PCCDB) project, http://pccdb.org

 19 20  0  0  0  0  0  0  0  0999 V2000
   -2.4706   -0.6353    0.0888 C   0  0  0  0  0  0  0  0  0  0  0  0
   -2.4235    0.7598   -0.0121 C   0  0  0  0  0  0  0  0  0  0  0  0
   -1.2856   -1.3643    0.0873 C   0  0  0  0  0  0  0  0  0  0  0  0
   -1.2023    1.4283   -0.1007 C   0  0  0  0  0  0  0  0  0  0  0  0
    1.2211   -1.4213   -0.0733 C   0  0  0  0  0  0  0  0  0  0  0  0
    3.6563   -1.3666   -0.0583 C   0  0  0  0  0  0  0  0  0  0  0  0
    2.3290    0.7507    0.3315 C   0  0  0  0  0  0  0  0  0  0  0  0
    2.3828   -0.7380    0.0321 C   0  0  0  0  0  0  0  0  0  0  0  0
   -0.0432   -0.7154    0.0058 C   0  0  0  0  0  0  0  0  0  0  0  0
   -0.0178    0.6943   -0.0771 C   0  0  0  0  0  0  0  0  0  0  0  0
    4.7165   -1.8468   -0.1175 N   0  0  0  0  0  0  0  0  0  0  0  0
    1.1619    1.3683   -0.2204 O   0  0  0  0  0  0  0  0  0  0  0  0
   -3.4256   -1.1466    0.1595 H   0  0  0  0  0  0  0  0  0  0  0  0
   -3.3457    1.3340   -0.0189 H   0  0  0  0  0  0  0  0  0  0  0  0
   -1.3080   -2.4498    0.1471 H   0  0  0  0  0  0  0  0  0  0  0  0
   -1.1489    2.5090   -0.1836 H   0  0  0  0  0  0  0  0  0  0  0  0
    1.2186   -2.4941   -0.2446 H   0  0  0  0  0  0  0  0  0  0  0  0
    3.1768    1.2779   -0.1103 H   0  0  0  0  0  0  0  0  0  0  0  0
    2.3492    0.9197    1.4206 H   0  0  0  0  0  0  0  0  0  0  0  0
  1 13  1  0  0  0  0
  2  1  2  0  0  0  0
  3  1  1  0  0  0  0
  3 15  1  0  0  0  0
  4 10  2  0  0  0  0
  4  2  1  0  0  0  0
  5  9  1  0  0  0  0
  5  8  2  0  0  0  0
  6  8  1  0  0  0  0
  7 19  1  0  0  0  0
  8  7  1  0  0  0  0
  9  3  2  0  0  0  0
 10  9  1  0  0  0  0
 11  6  3  0  0  0  0
 12 10  1  0  0  0  0
 12  7  1  0  0  0  0
 14  2  1  0  0  0  0
 16  4  1  0  0  0  0
 17  5  1  0  0  0  0
 18  7  1  0  0  0  0
M  END
>  <HBA>
2

>  <HBD>
0

>  <TPSA>
33.02

>  <cid>
42438

>  <dipole>
4.33

>  <excitation_energy_1>
3.605

>  <excitation_energy_2>
4.4

>  <excitation_energy_3>
5.208

>  <excitation_energy_4>
5.58

>  <homo_energy>
-6.193

>  <homo_lumo_gap>
4.174

>  <logP>
1.986

>  <lumo_energy>
-2.019

>  <melting_point>
92.18

>  <molecular_refractivity>
45.47

>  <oscillator_strength_1>
0.1393

>  <oscillator_strength_2>
0.2503

>  <oscillator_strength_3>
0.2134

>  <oscillator_strength_4>
0.013

>  <open_babel_can_smiles>
N#CC1=Cc2c(OC1)cccc2

>  <mulliken_charges>
19
1   -0.134071
2   -0.129836
3   -0.198733
4   -0.176879
5   -0.1317
6   0.257329
7   -0.079152
8   0.064602
9   0.117726
10   0.322122
11   -0.479748
12   -0.517475
13   0.137953
14   0.142236
15   0.141065
16   0.148995
17   0.165248
18   0.183946
19   0.166371

>  <lowdin_charges>
19
1   -0.171061
2   -0.133998
3   -0.138701
4   -0.177049
5   -0.104618
6   -0.01931
7   -0.107828
8   -0.054672
9   -0.049441
10   0.110178
11   -0.118003
12   -0.192991
13   0.163244
14   0.165124
15   0.16101
16   0.170291
17   0.175808
18   0.17326
19   0.148758

$$$$

