PCCDB-ID:  27690
public computational chemistry database (PCCDB) project, http://pccdb.org

 20 19  0  0  0  0  0  0  0  0999 V2000
    0.6150   -0.3933    0.4092 C   0  0  0  0  0  0  0  0  0  0  0  0
    2.1006   -0.0847    0.6201 C   0  0  0  0  0  0  0  0  0  0  0  0
    2.7556    0.5755   -0.5999 C   0  0  0  0  0  0  0  0  0  0  0  0
    4.2417    0.8815   -0.3725 C   0  0  0  0  0  0  0  0  0  0  0  0
    5.2997    2.7864   -1.5437 C   0  0  0  0  0  0  0  0  0  0  0  0
    5.1656    0.7171   -2.6856 N   0  0  0  0  0  0  0  0  0  0  0  0
    4.9032    1.4742   -1.5307 N   0  0  0  0  0  0  0  0  0  0  0  0
    5.1385    3.5712   -0.6245 O   0  0  0  0  0  0  0  0  0  0  0  0
    0.1762   -0.8621    1.2970 H   0  0  0  0  0  0  0  0  0  0  0  0
    0.4674   -1.0770   -0.4360 H   0  0  0  0  0  0  0  0  0  0  0  0
    0.0464    0.5206    0.1994 H   0  0  0  0  0  0  0  0  0  0  0  0
    2.6365   -1.0137    0.8623 H   0  0  0  0  0  0  0  0  0  0  0  0
    2.2192    0.5725    1.4926 H   0  0  0  0  0  0  0  0  0  0  0  0
    2.2363    1.5116   -0.8428 H   0  0  0  0  0  0  0  0  0  0  0  0
    2.6393   -0.0858   -1.4719 H   0  0  0  0  0  0  0  0  0  0  0  0
    4.7803   -0.0376   -0.0962 H   0  0  0  0  0  0  0  0  0  0  0  0
    4.3618    1.6009    0.4419 H   0  0  0  0  0  0  0  0  0  0  0  0
    5.7878    3.0388   -2.5014 H   0  0  0  0  0  0  0  0  0  0  0  0
    4.2888    0.3641   -3.0684 H   0  0  0  0  0  0  0  0  0  0  0  0
    5.7396   -0.0890   -2.4346 H   0  0  0  0  0  0  0  0  0  0  0  0
  1  2  1  0  0  0  0
  1  9  1  0  0  0  0
  2 12  1  0  0  0  0
  2 13  1  0  0  0  0
  3  4  1  0  0  0  0
  3  2  1  0  0  0  0
  4 16  1  0  0  0  0
  4 17  1  0  0  0  0
  5  7  1  0  0  0  0
  5  8  2  0  0  0  0
  6 20  1  0  0  0  0
  6  7  1  0  0  0  0
  7  4  1  0  0  0  0
 10  1  1  0  0  0  0
 11  1  1  0  0  0  0
 14  3  1  0  0  0  0
 15  3  1  0  0  0  0
 18  5  1  0  0  0  0
 19  6  1  0  0  0  0
M  END
>  <HBA>
3

>  <HBD>
1

>  <TPSA>
46.33

>  <cid>
27690

>  <dipole>
4.43

>  <excitation_energy_1>
5.617

>  <excitation_energy_2>
5.912

>  <excitation_energy_3>
6.227

>  <excitation_energy_4>
6.559

>  <homo_energy>
-6.659

>  <homo_lumo_gap>
7.573

>  <logP>
1.455

>  <lumo_energy>
0.914

>  <melting_point>
52.38

>  <molecular_refractivity>
32.34

>  <oscillator_strength_1>
0.001

>  <oscillator_strength_2>
0.011

>  <oscillator_strength_3>
0.0075

>  <oscillator_strength_4>
0.066

>  <open_babel_can_smiles>
CCCCN(C=O)N

>  <mulliken_charges>
20
1   -0.442583
2   -0.252129
3   -0.255292
4   -0.143452
5   0.369378
6   -0.574566
7   -0.294385
8   -0.470399
9   0.147174
10   0.141269
11   0.14817
12   0.131946
13   0.143679
14   0.153882
15   0.115883
16   0.132683
17   0.188313
18   0.122903
19   0.321512
20   0.316015

>  <lowdin_charges>
20
1   -0.444802
2   -0.272027
3   -0.284198
4   -0.210853
5   0.046131
6   -0.451004
7   -0.069064
8   -0.301836
9   0.152995
10   0.146767
11   0.150204
12   0.139754
13   0.145942
14   0.151838
15   0.131605
16   0.138672
17   0.176079
18   0.131864
19   0.261334
20   0.260599

$$$$

