PCCDB-ID:  9062
public computational chemistry database (PCCDB) project, http://pccdb.org

 23 23  0  0  1  0  0  0  0  0999 V2000
    0.2799    1.3923   -0.5632 C   0  0  0  0  0  0  0  0  0  0  0  0
   -0.2096   -1.2784    2.0749 C   0  0  0  0  0  0  0  0  0  0  0  0
    1.4534    0.4856   -0.1839 C   0  0  2  0  0  0  0  0  0  0  0  0
   -0.2807   -1.2547    0.5442 C   0  0  2  0  0  0  0  0  0  0  0  0
   -0.9756    1.0660    0.2453 C   0  0  1  0  0  0  0  0  0  0  0  0
    1.0213   -0.9970   -0.2274 C   0  0  1  0  0  0  0  0  0  0  0  0
   -1.4865   -1.5788    2.6136 O   0  0  0  0  0  0  0  0  0  0  0  0
    1.8759    0.8785    1.1240 O   0  0  0  0  0  0  0  0  0  0  0  0
   -2.0936    1.7947   -0.1539 O   0  0  0  0  0  0  0  0  0  0  0  0
    0.8680   -1.4055   -1.5864 O   0  0  0  0  0  0  0  0  0  0  0  0
   -1.3004   -0.3301    0.0989 O   0  0  0  0  0  0  0  0  0  0  0  0
    0.5554    2.4404   -0.4101 H   0  0  0  0  0  0  0  0  0  0  0  0
    0.0555    1.2561   -1.6299 H   0  0  0  0  0  0  0  0  0  0  0  0
    0.1910   -0.3363    2.4704 H   0  0  0  0  0  0  0  0  0  0  0  0
    0.4666   -2.0817    2.3900 H   0  0  0  0  0  0  0  0  0  0  0  0
    2.2679    0.6176   -0.9098 H   0  0  0  0  0  0  0  0  0  0  0  0
   -0.6629   -2.2317    0.2275 H   0  0  0  0  0  0  0  0  0  0  0  0
   -0.8302    1.3117    1.3021 H   0  0  0  0  0  0  0  0  0  0  0  0
    1.8236   -1.6217    0.1873 H   0  0  0  0  0  0  0  0  0  0  0  0
   -2.1191   -1.0255    2.1243 H   0  0  0  0  0  0  0  0  0  0  0  0
    2.6762    0.3770    1.3463 H   0  0  0  0  0  0  0  0  0  0  0  0
   -2.2718    1.5684   -1.0824 H   0  0  0  0  0  0  0  0  0  0  0  0
   -0.0360   -1.1614   -1.8456 H   0  0  0  0  0  0  0  0  0  0  0  0
  1 12  1  0  0  0  0
  1  3  1  0  0  0  0
  1  5  1  0  0  0  0
  2 15  1  0  0  0  0
  2 14  1  0  0  0  0
  2  7  1  0  0  0  0
  3 16  1  6  0  0  0
  3  8  1  0  0  0  0
  4 17  1  6  0  0  0
  4  2  1  0  0  0  0
  5 18  1  1  0  0  0
  6  3  1  0  0  0  0
  6 19  1  1  0  0  0
  6  4  1  0  0  0  0
  8 21  1  0  0  0  0
  9  5  1  0  0  0  0
 10  6  1  0  0  0  0
 11  5  1  0  0  0  0
 11  4  1  0  0  0  0
 13  1  1  0  0  0  0
 20  7  1  0  0  0  0
 22  9  1  0  0  0  0
 23 10  1  0  0  0  0
M  END
>  <HBA>
5

>  <HBD>
4

>  <TPSA>
90.15

>  <cid>
9062

>  <dipole>
2.74

>  <excitation_energy_1>
6.1

>  <excitation_energy_2>
6.303

>  <excitation_energy_3>
6.431

>  <excitation_energy_4>
6.717

>  <homo_energy>
-6.89

>  <homo_lumo_gap>
8.234

>  <logP>
-2.192

>  <lumo_energy>
1.344

>  <melting_point>
61.54

>  <molecular_refractivity>
34.57

>  <oscillator_strength_1>
0.0048

>  <oscillator_strength_2>
0.0031

>  <oscillator_strength_3>
0.0023

>  <oscillator_strength_4>
0.0181

>  <open_babel_can_smiles>
OC[C@H]1O[C@H](O)C[C@H]([C@@H]1O)O

>  <mulliken_charges>
23
1   -0.316466
2   -0.048225
3   0.107153
4   0.055608
5   0.33457
6   0.11102
7   -0.624898
8   -0.625366
9   -0.599699
10   -0.632559
11   -0.529651
12   0.171105
13   0.131375
14   0.153371
15   0.139044
16   0.139059
17   0.161591
18   0.157297
19   0.127261
20   0.403076
21   0.397495
22   0.390285
23   0.397553

>  <lowdin_charges>
23
1   -0.310452
2   -0.158994
3   -0.021827
4   -0.038755
5   0.096725
6   -0.034792
7   -0.469425
8   -0.461046
9   -0.418574
10   -0.457796
11   -0.302798
12   0.168501
13   0.146647
14   0.141864
15   0.149657
16   0.142224
17   0.158657
18   0.1448
19   0.145241
20   0.346855
21   0.347975
22   0.343114
23   0.342198

$$$$

