PCCDB-ID:  68521
public computational chemistry database (PCCDB) project, http://pccdb.org

 44 43  0  0  0  0  0  0  0  0999 V2000
    1.1349   -2.3186    4.0093 C   0  0  0  0  0  0  0  0  0  0  0  0
    8.5911    4.2053   -1.1381 C   0  0  0  0  0  0  0  0  0  0  0  0
    7.0283    1.7923    8.4787 C   0  0  0  0  0  0  0  0  0  0  0  0
    2.6378   -2.0639    4.1634 C   0  0  0  0  0  0  0  0  0  0  0  0
    8.1425    3.0372   -0.2546 C   0  0  0  0  0  0  0  0  0  0  0  0
    6.4362    1.5991    7.0790 C   0  0  0  0  0  0  0  0  0  0  0  0
    3.1003   -0.7813    3.4606 C   0  0  0  0  0  0  0  0  0  0  0  0
    6.6215    2.8405   -0.2524 C   0  0  0  0  0  0  0  0  0  0  0  0
    6.8345    2.7130    6.1030 C   0  0  0  0  0  0  0  0  0  0  0  0
    4.5936   -0.5269    3.6186 C   0  0  0  0  0  0  0  0  0  0  0  0
    6.1469    1.6992    0.6380 C   0  0  0  0  0  0  0  0  0  0  0  0
    6.2578    2.5515    4.7026 C   0  0  0  0  0  0  0  0  0  0  0  0
    6.2945    0.9785    2.8983 C   0  0  0  0  0  0  0  0  0  0  0  0
    4.9181    0.6801    2.9299 O   0  0  0  0  0  0  0  0  0  0  0  0
    6.4821    2.0144    1.9912 O   0  0  0  0  0  0  0  0  0  0  0  0
    6.8042    1.3478    4.1342 O   0  0  0  0  0  0  0  0  0  0  0  0
    0.8322   -3.2394    4.5204 H   0  0  0  0  0  0  0  0  0  0  0  0
    0.8559   -2.4155    2.9530 H   0  0  0  0  0  0  0  0  0  0  0  0
    0.5484   -1.4937    4.4318 H   0  0  0  0  0  0  0  0  0  0  0  0
    9.6807    4.3226   -1.1217 H   0  0  0  0  0  0  0  0  0  0  0  0
    8.1500    5.1507   -0.7987 H   0  0  0  0  0  0  0  0  0  0  0  0
    8.2879    4.0561   -2.1821 H   0  0  0  0  0  0  0  0  0  0  0  0
    6.7272    0.9845    9.1556 H   0  0  0  0  0  0  0  0  0  0  0  0
    6.6987    2.7397    8.9235 H   0  0  0  0  0  0  0  0  0  0  0  0
    8.1246    1.8073    8.4457 H   0  0  0  0  0  0  0  0  0  0  0  0
    3.1961   -2.9222    3.7633 H   0  0  0  0  0  0  0  0  0  0  0  0
    2.8909   -2.0068    5.2316 H   0  0  0  0  0  0  0  0  0  0  0  0
    8.4808    3.1964    0.7757 H   0  0  0  0  0  0  0  0  0  0  0  0
    8.6249    2.1107   -0.5986 H   0  0  0  0  0  0  0  0  0  0  0  0
    5.3393    1.5543    7.1474 H   0  0  0  0  0  0  0  0  0  0  0  0
    6.7611    0.6356    6.6688 H   0  0  0  0  0  0  0  0  0  0  0  0
    2.5535    0.0831    3.8603 H   0  0  0  0  0  0  0  0  0  0  0  0
    2.8632   -0.8327    2.3897 H   0  0  0  0  0  0  0  0  0  0  0  0
    6.2684    2.6406   -1.2742 H   0  0  0  0  0  0  0  0  0  0  0  0
    6.1271    3.7654    0.0745 H   0  0  0  0  0  0  0  0  0  0  0  0
    7.9292    2.7643    6.0282 H   0  0  0  0  0  0  0  0  0  0  0  0
    6.5007    3.6856    6.4924 H   0  0  0  0  0  0  0  0  0  0  0  0
    5.1752   -1.3642    3.1973 H   0  0  0  0  0  0  0  0  0  0  0  0
    4.8653   -0.4413    4.6798 H   0  0  0  0  0  0  0  0  0  0  0  0
    6.6379    0.7543    0.3490 H   0  0  0  0  0  0  0  0  0  0  0  0
    5.0639    1.5544    0.5485 H   0  0  0  0  0  0  0  0  0  0  0  0
    6.5257    3.4051    4.0706 H   0  0  0  0  0  0  0  0  0  0  0  0
    5.1630    2.4793    4.7322 H   0  0  0  0  0  0  0  0  0  0  0  0
    6.8628    0.0782    2.6047 H   0  0  0  0  0  0  0  0  0  0  0  0
  1  4  1  0  0  0  0
  1 19  1  0  0  0  0
  1 17  1  0  0  0  0
  2 20  1  0  0  0  0
  2 21  1  0  0  0  0
  2  5  1  0  0  0  0
  3 24  1  0  0  0  0
  3 23  1  0  0  0  0
  4 27  1  0  0  0  0
  5  8  1  0  0  0  0
  5 28  1  0  0  0  0
  6 30  1  0  0  0  0
  6  3  1  0  0  0  0
  7 10  1  0  0  0  0
  7 32  1  0  0  0  0
  7  4  1  0  0  0  0
  8 35  1  0  0  0  0
  8 11  1  0  0  0  0
  9 37  1  0  0  0  0
  9  6  1  0  0  0  0
 10 39  1  0  0  0  0
 11 15  1  0  0  0  0
 12 43  1  0  0  0  0
 12  9  1  0  0  0  0
 13 14  1  0  0  0  0
 13 16  1  0  0  0  0
 14 10  1  0  0  0  0
 15 13  1  0  0  0  0
 16 12  1  0  0  0  0
 18  1  1  0  0  0  0
 22  2  1  0  0  0  0
 25  3  1  0  0  0  0
 26  4  1  0  0  0  0
 29  5  1  0  0  0  0
 31  6  1  0  0  0  0
 33  7  1  0  0  0  0
 34  8  1  0  0  0  0
 36  9  1  0  0  0  0
 38 10  1  0  0  0  0
 40 11  1  0  0  0  0
 41 11  1  0  0  0  0
 42 12  1  0  0  0  0
 44 13  1  0  0  0  0
M  END
>  <HBA>
3

>  <HBD>
0

>  <TPSA>
27.69

>  <cid>
68521

>  <dipole>
1.25

>  <excitation_energy_1>
6.845

>  <excitation_energy_2>
6.986

>  <excitation_energy_3>
7.074

>  <excitation_energy_4>
7.097

>  <homo_energy>
-7.083

>  <homo_lumo_gap>
9.421

>  <logP>
3.72

>  <lumo_energy>
2.337

>  <melting_point>
-58.06

>  <molecular_refractivity>
67.86

>  <oscillator_strength_1>
0.0152

>  <oscillator_strength_2>
0.0034

>  <oscillator_strength_3>
0.0098

>  <oscillator_strength_4>
0.0064

>  <open_babel_can_smiles>
CCCCOC(OCCCC)OCCCC

>  <mulliken_charges>
44
1   -0.44011
2   -0.442523
3   -0.441923
4   -0.257089
5   -0.247576
6   -0.248808
7   -0.26597
8   -0.270135
9   -0.270777
10   -0.021375
11   -0.018854
12   -0.035412
13   0.610569
14   -0.502605
15   -0.501362
16   -0.496045
17   0.143889
18   0.143824
19   0.144352
20   0.14256
21   0.142433
22   0.13835
23   0.140667
24   0.138947
25   0.14295
26   0.133115
27   0.134584
28   0.156228
29   0.125148
30   0.124509
31   0.151982
32   0.144192
33   0.140736
34   0.129979
35   0.144309
36   0.142552
37   0.129359
38   0.119796
39   0.141182
40   0.115152
41   0.147981
42   0.148955
43   0.137235
44   0.10503

>  <lowdin_charges>
44
1   -0.442787
2   -0.440955
3   -0.443126
4   -0.271642
5   -0.273994
6   -0.272748
7   -0.278796
8   -0.28127
9   -0.278517
10   -0.130456
11   -0.123482
12   -0.130218
13   0.170615
14   -0.272684
15   -0.252256
16   -0.253732
17   0.150714
18   0.146368
19   0.148896
20   0.147781
21   0.146741
22   0.143126
23   0.149518
24   0.144783
25   0.144986
26   0.140655
27   0.139071
28   0.150408
29   0.137215
30   0.133971
31   0.148151
32   0.148373
33   0.144257
34   0.143746
35   0.148385
36   0.144945
37   0.143889
38   0.128154
39   0.134764
40   0.126573
41   0.141333
42   0.146053
43   0.135328
44   0.117865

$$$$

