PCCDB-ID:  11597
public computational chemistry database (PCCDB) project, http://pccdb.org

 18 17  0  0  0  0  0  0  0  0999 V2000
    1.7171    0.8849   -0.1595 C   0  0  0  0  0  0  0  0  0  0  0  0
    6.6446   -2.5644   -1.2856 C   0  0  0  0  0  0  0  0  0  0  0  0
    2.5605   -0.0011    0.3715 C   0  0  0  0  0  0  0  0  0  0  0  0
    5.1212   -2.5476   -1.1246 C   0  0  0  0  0  0  0  0  0  0  0  0
    3.0650   -1.2425   -0.3123 C   0  0  0  0  0  0  0  0  0  0  0  0
    4.5968   -1.2606   -0.4757 C   0  0  0  0  0  0  0  0  0  0  0  0
    1.3947    1.7686    0.3849 H   0  0  0  0  0  0  0  0  0  0  0  0
    1.3116    0.7577   -1.1616 H   0  0  0  0  0  0  0  0  0  0  0  0
    6.9871   -3.4940   -1.7543 H   0  0  0  0  0  0  0  0  0  0  0  0
    7.1471   -2.4761   -0.3145 H   0  0  0  0  0  0  0  0  0  0  0  0
    6.9863   -1.7303   -1.9107 H   0  0  0  0  0  0  0  0  0  0  0  0
    2.9429    0.1719    1.3797 H   0  0  0  0  0  0  0  0  0  0  0  0
    4.8064   -3.4113   -0.5215 H   0  0  0  0  0  0  0  0  0  0  0  0
    4.6478   -2.6757   -2.1085 H   0  0  0  0  0  0  0  0  0  0  0  0
    2.5871   -1.3429   -1.2960 H   0  0  0  0  0  0  0  0  0  0  0  0
    2.7659   -2.1273    0.2715 H   0  0  0  0  0  0  0  0  0  0  0  0
    4.9028   -0.3928   -1.0765 H   0  0  0  0  0  0  0  0  0  0  0  0
    5.0687   -1.1313    0.5096 H   0  0  0  0  0  0  0  0  0  0  0  0
  1  3  2  0  0  0  0
  1  7  1  0  0  0  0
  2  4  1  0  0  0  0
  2 10  1  0  0  0  0
  3 12  1  0  0  0  0
  4 13  1  0  0  0  0
  4  6  1  0  0  0  0
  5 16  1  0  0  0  0
  5  3  1  0  0  0  0
  6  5  1  0  0  0  0
  6 18  1  0  0  0  0
  8  1  1  0  0  0  0
  9  2  1  0  0  0  0
 11  2  1  0  0  0  0
 14  4  1  0  0  0  0
 15  5  1  0  0  0  0
 17  6  1  0  0  0  0
M  END
>  <HBA>
0

>  <HBD>
0

>  <TPSA>
0.0

>  <cid>
11597

>  <dipole>
0.38

>  <excitation_energy_1>
6.509

>  <excitation_energy_2>
6.884

>  <excitation_energy_3>
6.928

>  <excitation_energy_4>
7.015

>  <homo_energy>
-6.762

>  <homo_lumo_gap>
7.491

>  <logP>
2.363

>  <lumo_energy>
0.729

>  <melting_point>
-47.16

>  <molecular_refractivity>
30.48

>  <oscillator_strength_1>
0.0391

>  <oscillator_strength_2>
0.0635

>  <oscillator_strength_3>
0.1138

>  <oscillator_strength_4>
0.1343

>  <open_babel_can_smiles>
CCCCC=C

>  <mulliken_charges>
18
1   -0.34199
2   -0.441557
3   -0.040975
4   -0.247052
5   -0.300478
6   -0.247734
7   0.136342
8   0.132873
9   0.142287
10   0.141623
11   0.142652
12   0.121764
13   0.130456
14   0.131498
15   0.135639
16   0.139218
17   0.137041
18   0.128392

>  <lowdin_charges>
18
1   -0.345468
2   -0.445194
3   -0.142388
4   -0.272543
5   -0.272176
6   -0.27357
7   0.157329
8   0.151898
9   0.149855
10   0.146203
11   0.14777
12   0.146734
13   0.139442
14   0.139039
15   0.14456
16   0.147515
17   0.143142
18   0.13785

$$$$

