PCCDB-ID:  36056
public computational chemistry database (PCCDB) project, http://pccdb.org

 29 28  0  0  0  0  0  0  0  0999 V2000
    5.5208    0.6630   -0.7017 C   0  0  0  0  0  0  0  0  0  0  0  0
    2.2846    1.2272    5.7256 C   0  0  0  0  0  0  0  0  0  0  0  0
    5.0704    5.1729    3.9764 C   0  0  0  0  0  0  0  0  0  0  0  0
    4.0618    0.8742   -0.2794 C   0  0  0  0  0  0  0  0  0  0  0  0
    2.2307    1.7739    4.2869 C   0  0  0  0  0  0  0  0  0  0  0  0
    3.8516    1.9942    0.7523 C   0  0  0  0  0  0  0  0  0  0  0  0
    3.2706    2.8305    4.0407 C   0  0  0  0  0  0  0  0  0  0  0  0
    4.5030    1.7164    2.1235 C   0  0  0  0  0  0  0  0  0  0  0  0
    5.2052    3.9861    3.0288 C   0  0  0  0  0  0  0  0  0  0  0  0
    4.2613    2.8249    3.1259 C   0  0  0  0  0  0  0  0  0  0  0  0
    6.0942    3.9854    2.1869 O   0  0  0  0  0  0  0  0  0  0  0  0
    5.5954   -0.0973   -1.4877 H   0  0  0  0  0  0  0  0  0  0  0  0
    6.1457    0.3323    0.1352 H   0  0  0  0  0  0  0  0  0  0  0  0
    5.9564    1.5915   -1.0905 H   0  0  0  0  0  0  0  0  0  0  0  0
    1.4788    0.5053    5.8977 H   0  0  0  0  0  0  0  0  0  0  0  0
    2.1757    2.0334    6.4607 H   0  0  0  0  0  0  0  0  0  0  0  0
    3.2389    0.7255    5.9196 H   0  0  0  0  0  0  0  0  0  0  0  0
    5.1889    4.8659    5.0219 H   0  0  0  0  0  0  0  0  0  0  0  0
    4.0903    5.6539    3.8824 H   0  0  0  0  0  0  0  0  0  0  0  0
    5.8489    5.8955    3.7258 H   0  0  0  0  0  0  0  0  0  0  0  0
    3.6553   -0.0674    0.1182 H   0  0  0  0  0  0  0  0  0  0  0  0
    3.4638    1.1091   -1.1704 H   0  0  0  0  0  0  0  0  0  0  0  0
    1.2385    2.2195    4.1188 H   0  0  0  0  0  0  0  0  0  0  0  0
    2.3237    0.9515    3.5716 H   0  0  0  0  0  0  0  0  0  0  0  0
    2.7734    2.1482    0.8981 H   0  0  0  0  0  0  0  0  0  0  0  0
    4.2528    2.9363    0.3576 H   0  0  0  0  0  0  0  0  0  0  0  0
    3.1913    3.6869    4.7098 H   0  0  0  0  0  0  0  0  0  0  0  0
    5.5838    1.6132    1.9908 H   0  0  0  0  0  0  0  0  0  0  0  0
    4.1303    0.7620    2.5135 H   0  0  0  0  0  0  0  0  0  0  0  0
  1  4  1  0  0  0  0
  1 13  1  0  0  0  0
  2 15  1  0  0  0  0
  2 17  1  0  0  0  0
  2 16  1  0  0  0  0
  3 18  1  0  0  0  0
  4 21  1  0  0  0  0
  4  6  1  0  0  0  0
  5  2  1  0  0  0  0
  6 25  1  0  0  0  0
  6  8  1  0  0  0  0
  7  5  1  0  0  0  0
  7 27  1  0  0  0  0
  8 29  1  0  0  0  0
  8 10  1  0  0  0  0
  9 10  1  0  0  0  0
  9  3  1  0  0  0  0
 10  7  2  0  0  0  0
 11  9  2  0  0  0  0
 12  1  1  0  0  0  0
 14  1  1  0  0  0  0
 19  3  1  0  0  0  0
 20  3  1  0  0  0  0
 22  4  1  0  0  0  0
 23  5  1  0  0  0  0
 24  5  1  0  0  0  0
 26  6  1  0  0  0  0
 28  8  1  0  0  0  0
M  END
>  <HBA>
1

>  <HBD>
0

>  <TPSA>
17.07

>  <cid>
36056

>  <dipole>
3.24

>  <excitation_energy_1>
3.744

>  <excitation_energy_2>
5.334

>  <excitation_energy_3>
6.069

>  <excitation_energy_4>
6.262

>  <homo_energy>
-6.517

>  <homo_lumo_gap>
5.314

>  <logP>
3.102

>  <lumo_energy>
-1.203

>  <melting_point>
5.38

>  <molecular_refractivity>
49.91

>  <oscillator_strength_1>
0.0004

>  <oscillator_strength_2>
0.3223

>  <oscillator_strength_3>
0.012

>  <oscillator_strength_4>
0.0064

>  <open_babel_can_smiles>
CCCC/C(=C\CC)/C(=O)C

>  <mulliken_charges>
29
1   -0.442303
2   -0.444003
3   -0.541742
4   -0.248439
5   -0.299331
6   -0.252088
7   -0.15696
8   -0.335248
9   0.42029
10   0.094765
11   -0.461702
12   0.138428
13   0.147521
14   0.150143
15   0.150835
16   0.146678
17   0.15606
18   0.167657
19   0.167217
20   0.179077
21   0.124382
22   0.130581
23   0.15286
24   0.153113
25   0.12403
26   0.150427
27   0.130454
28   0.167274
29   0.130025

>  <lowdin_charges>
29
1   -0.44846
2   -0.441843
3   -0.476549
4   -0.273267
5   -0.274062
6   -0.271384
7   -0.14019
8   -0.277186
9   0.15656
10   -0.052111
11   -0.2487
12   0.148574
13   0.148978
14   0.151283
15   0.154529
16   0.149732
17   0.153437
18   0.166538
19   0.166993
20   0.174469
21   0.135676
22   0.142366
23   0.155307
24   0.153718
25   0.135699
26   0.149537
27   0.155451
28   0.162003
29   0.1429

$$$$

