PCCDB-ID:  49841
public computational chemistry database (PCCDB) project, http://pccdb.org

 37 37  0  0  1  0  0  0  0  0999 V2000
    2.6310   -1.1557    0.0651 C   0  0  0  0  0  0  0  0  0  0  0  0
    3.9880   -0.6737   -0.4539 C   0  0  0  0  0  0  0  0  0  0  0  0
    7.8361    2.6555   -0.7631 C   0  0  0  0  0  0  0  0  0  0  0  0
    6.6581    3.4042   -0.6661 C   0  0  0  0  0  0  0  0  0  0  0  0
    7.7417    1.2710   -0.8676 C   0  0  0  0  0  0  0  0  0  0  0  0
    5.4153    2.7832   -0.6678 C   0  0  0  0  0  0  0  0  0  0  0  0
    6.4960    0.6360   -0.8844 C   0  0  0  0  0  0  0  0  0  0  0  0
    1.9090    1.2998   -3.9156 C   0  0  0  0  0  0  0  0  0  0  0  0
    2.9847    1.2874   -1.6241 C   0  0  0  0  0  0  0  0  0  0  0  0
    5.3026    1.3796   -0.7792 C   0  0  0  0  0  0  0  0  0  0  0  0
    3.1097    0.8440   -3.0929 C   0  0  2  0  0  0  0  0  0  0  0  0
    1.0720    1.1388   -6.2068 C   0  0  0  0  0  0  0  0  0  0  0  0
   -0.0810    1.5408   -5.8070 N   0  0  0  0  0  0  0  0  0  0  0  0
    1.4824    0.9120   -7.5330 N   0  0  0  0  0  0  0  0  0  0  0  0
    2.0943    0.8971   -5.3014 N   0  0  0  0  0  0  0  0  0  0  0  0
    4.0306    0.7632   -0.7368 N   0  0  0  0  0  0  0  0  0  0  0  0
    4.2622    1.4149   -3.7181 O   0  0  0  0  0  0  0  0  0  0  0  0
    2.7275   -2.1875    0.4200 H   0  0  0  0  0  0  0  0  0  0  0  0
    1.8541   -1.1501   -0.7059 H   0  0  0  0  0  0  0  0  0  0  0  0
    2.2931   -0.5352    0.9020 H   0  0  0  0  0  0  0  0  0  0  0  0
    4.2796   -1.2871   -1.3261 H   0  0  0  0  0  0  0  0  0  0  0  0
    4.7376   -0.8619    0.3209 H   0  0  0  0  0  0  0  0  0  0  0  0
    8.8049    3.1461   -0.7551 H   0  0  0  0  0  0  0  0  0  0  0  0
    6.7077    4.4861   -0.5727 H   0  0  0  0  0  0  0  0  0  0  0  0
    8.6419    0.6665   -0.9472 H   0  0  0  0  0  0  0  0  0  0  0  0
    4.5198    3.3858   -0.5566 H   0  0  0  0  0  0  0  0  0  0  0  0
    6.4607   -0.4430   -0.9861 H   0  0  0  0  0  0  0  0  0  0  0  0
    1.7867    2.3902   -3.8219 H   0  0  0  0  0  0  0  0  0  0  0  0
    0.9909    0.8402   -3.5397 H   0  0  0  0  0  0  0  0  0  0  0  0
    2.0092    0.9822   -1.2327 H   0  0  0  0  0  0  0  0  0  0  0  0
    3.0071    2.3790   -1.5943 H   0  0  0  0  0  0  0  0  0  0  0  0
    3.1662   -0.2557   -3.1450 H   0  0  0  0  0  0  0  0  0  0  0  0
   -0.7441    1.5706   -6.5837 H   0  0  0  0  0  0  0  0  0  0  0  0
    0.7127    0.8647   -8.1897 H   0  0  0  0  0  0  0  0  0  0  0  0
    2.1013    0.1144   -7.6384 H   0  0  0  0  0  0  0  0  0  0  0  0
    3.0227    1.1249   -5.6416 H   0  0  0  0  0  0  0  0  0  0  0  0
    5.0480    1.1673   -3.2049 H   0  0  0  0  0  0  0  0  0  0  0  0
  1 18  1  0  0  0  0
  1 20  1  0  0  0  0
  2  1  1  0  0  0  0
  2 22  1  0  0  0  0
  3 23  1  0  0  0  0
  3  4  2  0  0  0  0
  4 24  1  0  0  0  0
  5  3  1  0  0  0  0
  6  4  1  0  0  0  0
  6 26  1  0  0  0  0
  7  5  2  0  0  0  0
  7 10  1  0  0  0  0
  8 28  1  0  0  0  0
  8 29  1  0  0  0  0
  8 11  1  0  0  0  0
  9 31  1  0  0  0  0
  9 30  1  0  0  0  0
  9 16  1  0  0  0  0
 10 16  1  0  0  0  0
 10  6  2  0  0  0  0
 11 32  1  6  0  0  0
 11  9  1  0  0  0  0
 12 13  1  0  0  0  0
 12 15  1  0  0  0  0
 14 12  2  0  0  0  0
 15  8  1  0  0  0  0
 16  2  1  0  0  0  0
 17 37  1  0  0  0  0
 17 11  1  0  0  0  0
 19  1  1  0  0  0  0
 21  2  1  0  0  0  0
 25  5  1  0  0  0  0
 27  7  1  0  0  0  0
 33 13  1  0  0  0  0
 34 14  1  0  0  0  0
 35 14  1  0  0  0  0
 36 15  1  0  0  0  0
M  RAD  1  13   2
M  END
>  <HBA>
5

>  <HBD>
3

>  <TPSA>
87.87

>  <cid>
49841

>  <dipole>
2.84

>  <excitation_energy_1>
4.369

>  <excitation_energy_2>
4.731

>  <excitation_energy_3>
4.893

>  <excitation_energy_4>
5.039

>  <homo_energy>
-5.304

>  <homo_lumo_gap>
5.29

>  <logP>
1.548

>  <lumo_energy>
-0.014

>  <melting_point>
154.98

>  <molecular_refractivity>
70.14

>  <oscillator_strength_1>
0.0269

>  <oscillator_strength_2>
0.0604

>  <oscillator_strength_3>
0.1531

>  <oscillator_strength_4>
0.0106

>  <open_babel_can_smiles>
CCN(c1ccccc1)C[C@@H](CNC(=[NH2])[NH])O

>  <mulliken_charges>
37
1   -0.464657
2   -0.121048
3   -0.133261
4   -0.136467
5   -0.13598
6   -0.15584
7   -0.204012
8   -0.095529
9   -0.178815
10   0.280039
11   0.113083
12   0.590162
13   -0.652564
14   -0.755189
15   -0.619711
16   -0.476323
17   -0.647682
18   0.151608
19   0.155382
20   0.162248
21   0.127097
22   0.157738
23   0.125508
24   0.130157
25   0.128093
26   0.133704
27   0.128683
28   0.147956
29   0.16619
30   0.151598
31   0.161971
32   0.122847
33   0.260793
34   0.316141
35   0.320219
36   0.337336
37   0.408526

>  <lowdin_charges>
37
1   -0.45224
2   -0.198578
3   -0.179187
4   -0.144916
5   -0.150565
6   -0.183181
7   -0.216273
8   -0.192561
9   -0.214382
10   0.04081
11   -0.016944
12   0.123676
13   -0.485731
14   -0.513996
15   -0.308371
16   -0.142052
17   -0.475727
18   0.157358
19   0.152258
20   0.158831
21   0.12482
22   0.156772
23   0.156791
24   0.156267
25   0.157415
26   0.160969
27   0.157382
28   0.141267
29   0.164415
30   0.154414
31   0.156718
32   0.126327
33   0.244731
34   0.274344
35   0.276776
36   0.281345
37   0.35102

$$$$

