PCCDB-ID:  41576
public computational chemistry database (PCCDB) project, http://pccdb.org

 32 32  0  0  0  0  0  0  0  0999 V2000
    2.3993    2.7555   -1.5502 C   0  0  0  0  0  0  0  0  0  0  0  0
    3.0649    2.1933   -0.2883 C   0  0  0  0  0  0  0  0  0  0  0  0
    4.2427    1.2426   -0.5633 C   0  0  0  0  0  0  0  0  0  0  0  0
    3.8417   -0.0667   -1.2591 C   0  0  0  0  0  0  0  0  0  0  0  0
    4.8190   -3.9177   -5.0756 C   0  0  0  0  0  0  0  0  0  0  0  0
    5.6422   -3.1130   -4.2916 C   0  0  0  0  0  0  0  0  0  0  0  0
    3.7842   -3.3685   -5.8340 C   0  0  0  0  0  0  0  0  0  0  0  0
    4.9832   -1.0997   -1.4120 C   0  0  0  0  0  0  0  0  0  0  0  0
    4.4004   -1.1627   -5.0252 C   0  0  0  0  0  0  0  0  0  0  0  0
    5.4295   -1.7223   -4.2568 C   0  0  0  0  0  0  0  0  0  0  0  0
    3.5832   -1.9843   -5.8053 C   0  0  0  0  0  0  0  0  0  0  0  0
    6.1184   -0.6305   -2.3058 C   0  0  0  0  0  0  0  0  0  0  0  0
    6.2985   -0.8875   -3.5348 N   0  0  0  0  0  0  0  0  0  0  0  0
    2.5910   -1.3711   -6.5237 O   0  0  0  0  0  0  0  0  0  0  0  0
    7.0399    0.1894   -1.7206 O   0  0  0  0  0  0  0  0  0  0  0  0
    1.6087    3.4682   -1.2903 H   0  0  0  0  0  0  0  0  0  0  0  0
    1.9427    1.9673   -2.1588 H   0  0  0  0  0  0  0  0  0  0  0  0
    3.1281    3.2811   -2.1795 H   0  0  0  0  0  0  0  0  0  0  0  0
    2.3148    1.6701    0.3216 H   0  0  0  0  0  0  0  0  0  0  0  0
    3.4283    3.0276    0.3261 H   0  0  0  0  0  0  0  0  0  0  0  0
    4.7243    1.0008    0.3980 H   0  0  0  0  0  0  0  0  0  0  0  0
    4.9934    1.7705   -1.1670 H   0  0  0  0  0  0  0  0  0  0  0  0
    3.4296    0.1420   -2.2527 H   0  0  0  0  0  0  0  0  0  0  0  0
    3.0380   -0.5464   -0.6838 H   0  0  0  0  0  0  0  0  0  0  0  0
    4.9836   -4.9919   -5.0989 H   0  0  0  0  0  0  0  0  0  0  0  0
    6.4584   -3.5395   -3.7170 H   0  0  0  0  0  0  0  0  0  0  0  0
    3.1472   -4.0038   -6.4464 H   0  0  0  0  0  0  0  0  0  0  0  0
    4.5759   -2.0223   -1.8342 H   0  0  0  0  0  0  0  0  0  0  0  0
    5.3872   -1.3519   -0.4205 H   0  0  0  0  0  0  0  0  0  0  0  0
    4.2429   -0.0894   -5.0346 H   0  0  0  0  0  0  0  0  0  0  0  0
    2.1139   -2.0450   -7.0320 H   0  0  0  0  0  0  0  0  0  0  0  0
    6.8052    0.3119   -0.7886 H   0  0  0  0  0  0  0  0  0  0  0  0
  1 16  1  0  0  0  0
  1  2  1  0  0  0  0
  2 19  1  0  0  0  0
  2 20  1  0  0  0  0
  3  2  1  0  0  0  0
  3 21  1  0  0  0  0
  4 24  1  0  0  0  0
  4  3  1  0  0  0  0
  5  6  2  0  0  0  0
  6 10  1  0  0  0  0
  6 26  1  0  0  0  0
  7 11  2  0  0  0  0
  7  5  1  0  0  0  0
  8  4  1  0  0  0  0
  8 29  1  0  0  0  0
  9 10  2  0  0  0  0
 10 13  1  0  0  0  0
 11  9  1  0  0  0  0
 12 15  1  0  0  0  0
 12  8  1  0  0  0  0
 13 12  2  0  0  0  0
 14 11  1  0  0  0  0
 15 32  1  0  0  0  0
 17  1  1  0  0  0  0
 18  1  1  0  0  0  0
 22  3  1  0  0  0  0
 23  4  1  0  0  0  0
 25  5  1  0  0  0  0
 27  7  1  0  0  0  0
 28  8  1  0  0  0  0
 30  9  1  0  0  0  0
 31 14  1  0  0  0  0
M  END
>  <HBA>
3

>  <HBD>
2

>  <TPSA>
49.33

>  <cid>
41576

>  <dipole>
3.97

>  <excitation_energy_1>
4.683

>  <excitation_energy_2>
4.953

>  <excitation_energy_3>
5.047

>  <excitation_energy_4>
5.251

>  <homo_energy>
-5.614

>  <homo_lumo_gap>
5.772

>  <logP>
2.984

>  <lumo_energy>
0.158

>  <melting_point>
96.91

>  <molecular_refractivity>
62.01

>  <oscillator_strength_1>
0.0107

>  <oscillator_strength_2>
0.0297

>  <oscillator_strength_3>
0.0007

>  <oscillator_strength_4>
0.0018

>  <open_babel_can_smiles>
CCCCC/C(=N\c1cccc(c1)O)/O

>  <mulliken_charges>
32
1   -0.446571
2   -0.249948
3   -0.281198
4   -0.252128
5   -0.141464
6   -0.158856
7   -0.200728
8   -0.3685
9   -0.196472
10   0.226515
11   0.350925
12   0.482406
13   -0.46509
14   -0.646513
15   -0.575486
16   0.146108
17   0.150984
18   0.147898
19   0.132779
20   0.135677
21   0.116556
22   0.150401
23   0.163986
24   0.141832
25   0.128429
26   0.124047
27   0.111448
28   0.179779
29   0.140079
30   0.136569
31   0.405697
32   0.410838

>  <lowdin_charges>
32
1   -0.450686
2   -0.273844
3   -0.290672
4   -0.272329
5   -0.138171
6   -0.210218
7   -0.236802
8   -0.310172
9   -0.216554
10   0.06116
11   0.108527
12   0.142958
13   -0.168925
14   -0.382569
15   -0.357146
16   0.152994
17   0.150924
18   0.150979
19   0.141197
20   0.145356
21   0.132499
22   0.147986
23   0.155156
24   0.148714
25   0.15578
26   0.159948
27   0.152327
28   0.17524
29   0.148436
30   0.166645
31   0.357731
32   0.353532

$$$$

