PCCDB-ID:  7166
public computational chemistry database (PCCDB) project, http://pccdb.org

 22 22  0  0  0  0  0  0  0  0999 V2000
    3.4888   -2.3494    1.1102 C   0  0  0  0  0  0  0  0  0  0  0  0
   -2.7561   -1.2104   -1.5955 C   0  0  0  0  0  0  0  0  0  0  0  0
   -1.8635   -0.3988   -2.3035 C   0  0  0  0  0  0  0  0  0  0  0  0
   -2.2762   -2.2658   -0.8180 C   0  0  0  0  0  0  0  0  0  0  0  0
   -0.4967   -0.6449   -2.2333 C   0  0  0  0  0  0  0  0  0  0  0  0
   -0.9072   -2.5261   -0.7569 C   0  0  0  0  0  0  0  0  0  0  0  0
    2.0255   -3.2311   -0.8308 C   0  0  0  0  0  0  0  0  0  0  0  0
    2.2364   -3.0842    0.6843 C   0  0  0  0  0  0  0  0  0  0  0  0
   -0.0063   -1.7158   -1.4669 C   0  0  0  0  0  0  0  0  0  0  0  0
    1.4706   -1.9282   -1.4303 C   0  0  0  0  0  0  0  0  0  0  0  0
    1.4261   -3.5254    1.4759 O   0  0  0  0  0  0  0  0  0  0  0  0
    2.2490   -1.0866   -1.8546 O   0  0  0  0  0  0  0  0  0  0  0  0
    3.6122   -1.4338    0.5208 H   0  0  0  0  0  0  0  0  0  0  0  0
    4.3670   -2.9771    0.9092 H   0  0  0  0  0  0  0  0  0  0  0  0
    3.4474   -2.1211    2.1770 H   0  0  0  0  0  0  0  0  0  0  0  0
   -3.8242   -1.0167   -1.6476 H   0  0  0  0  0  0  0  0  0  0  0  0
   -2.2365    0.4251   -2.9057 H   0  0  0  0  0  0  0  0  0  0  0  0
   -2.9675   -2.8868   -0.2553 H   0  0  0  0  0  0  0  0  0  0  0  0
    0.2151   -0.0224   -2.7655 H   0  0  0  0  0  0  0  0  0  0  0  0
   -0.5426   -3.3302   -0.1259 H   0  0  0  0  0  0  0  0  0  0  0  0
    1.3574   -4.0759   -1.0074 H   0  0  0  0  0  0  0  0  0  0  0  0
    2.9864   -3.4059   -1.3229 H   0  0  0  0  0  0  0  0  0  0  0  0
  1 15  1  0  0  0  0
  2  4  2  0  0  0  0
  3  5  2  0  0  0  0
  3  2  1  0  0  0  0
  4  6  1  0  0  0  0
  4 18  1  0  0  0  0
  5  9  1  0  0  0  0
  6 20  1  0  0  0  0
  7  8  1  0  0  0  0
  8  1  1  0  0  0  0
  8 11  2  0  0  0  0
  9 10  1  0  0  0  0
  9  6  2  0  0  0  0
 10  7  1  0  0  0  0
 12 10  2  0  0  0  0
 13  1  1  0  0  0  0
 14  1  1  0  0  0  0
 16  2  1  0  0  0  0
 17  3  1  0  0  0  0
 19  5  1  0  0  0  0
 21  7  1  0  0  0  0
 22  7  1  0  0  0  0
M  END
>  <HBA>
2

>  <HBD>
0

>  <TPSA>
34.14

>  <cid>
7166

>  <dipole>
1.14

>  <excitation_energy_1>
3.678

>  <excitation_energy_2>
4.12

>  <excitation_energy_3>
4.472

>  <excitation_energy_4>
4.823

>  <homo_energy>
-6.811

>  <homo_lumo_gap>
4.988

>  <logP>
1.848

>  <lumo_energy>
-1.823

>  <melting_point>
58.27

>  <molecular_refractivity>
46.45

>  <oscillator_strength_1>
0.0054

>  <oscillator_strength_2>
0.0168

>  <oscillator_strength_3>
0.0197

>  <oscillator_strength_4>
0.188

>  <open_babel_can_smiles>
O=C(c1ccccc1)CC(=O)C

>  <mulliken_charges>
22
1   -0.530254
2   -0.116513
3   -0.133462
4   -0.137398
5   -0.152798
6   -0.182974
7   -0.432325
8   0.44492
9   0.07366
10   0.381452
11   -0.423599
12   -0.45561
13   0.195023
14   0.176194
15   0.180754
16   0.139621
17   0.139552
18   0.141469
19   0.162785
20   0.170625
21   0.178648
22   0.180228

>  <lowdin_charges>
22
1   -0.474303
2   -0.134126
3   -0.155561
4   -0.156712
5   -0.128776
6   -0.146111
7   -0.33999
8   0.174699
9   -0.052712
10   0.164044
11   -0.232179
12   -0.245871
13   0.182614
14   0.176565
15   0.172315
16   0.160665
17   0.163053
18   0.164811
19   0.177348
20   0.176585
21   0.175208
22   0.178434

$$$$

