PCCDB-ID:  70257
public computational chemistry database (PCCDB) project, http://pccdb.org

 21 21  0  0  0  0  0  0  0  0999 V2000
    1.3229    0.2097   -0.1464 C   0  0  0  0  0  0  0  0  0  0  0  0
    2.4829   -0.6012    0.4406 C   0  0  0  0  0  0  0  0  0  0  0  0
    3.0607   -1.6291   -0.5399 C   0  0  0  0  0  0  0  0  0  0  0  0
    4.2258   -2.4423    0.0432 C   0  0  0  0  0  0  0  0  0  0  0  0
    4.1804   -4.8259   -1.0664 C   0  0  0  0  0  0  0  0  0  0  0  0
    5.5406   -4.6714   -0.4267 C   0  0  0  0  0  0  0  0  0  0  0  0
    4.8007   -3.4555   -0.9280 C   0  0  0  0  0  0  0  0  0  0  0  0
    0.9337    0.9353    0.5770 H   0  0  0  0  0  0  0  0  0  0  0  0
    0.4927   -0.4432   -0.4431 H   0  0  0  0  0  0  0  0  0  0  0  0
    1.6393    0.7653   -1.0380 H   0  0  0  0  0  0  0  0  0  0  0  0
    2.1439   -1.1188    1.3496 H   0  0  0  0  0  0  0  0  0  0  0  0
    3.2817    0.0825    0.7619 H   0  0  0  0  0  0  0  0  0  0  0  0
    3.4004   -1.1110   -1.4493 H   0  0  0  0  0  0  0  0  0  0  0  0
    2.2654   -2.3167   -0.8615 H   0  0  0  0  0  0  0  0  0  0  0  0
    3.8872   -2.9654    0.9499 H   0  0  0  0  0  0  0  0  0  0  0  0
    5.0218   -1.7558    0.3690 H   0  0  0  0  0  0  0  0  0  0  0  0
    3.3408   -5.0690   -0.4188 H   0  0  0  0  0  0  0  0  0  0  0  0
    4.1203   -5.2756   -2.0539 H   0  0  0  0  0  0  0  0  0  0  0  0
    6.4138   -5.0119   -0.9769 H   0  0  0  0  0  0  0  0  0  0  0  0
    5.6141   -4.8128    0.6492 H   0  0  0  0  0  0  0  0  0  0  0  0
    5.1843   -3.0196   -1.8506 H   0  0  0  0  0  0  0  0  0  0  0  0
  1  2  1  0  0  0  0
  1  8  1  0  0  0  0
  2 12  1  0  0  0  0
  2 11  1  0  0  0  0
  3  4  1  0  0  0  0
  3  2  1  0  0  0  0
  4 16  1  0  0  0  0
  4 15  1  0  0  0  0
  5  7  1  0  0  0  0
  5  6  1  0  0  0  0
  5 17  1  0  0  0  0
  6 20  1  0  0  0  0
  7  6  1  0  0  0  0
  7  4  1  0  0  0  0
  9  1  1  0  0  0  0
 10  1  1  0  0  0  0
 13  3  1  0  0  0  0
 14  3  1  0  0  0  0
 18  5  1  0  0  0  0
 19  6  1  0  0  0  0
 21  7  1  0  0  0  0
M  END
>  <HBA>
0

>  <HBD>
0

>  <TPSA>
0.0

>  <cid>
70257

>  <dipole>
0.09

>  <excitation_energy_1>
6.958

>  <excitation_energy_2>
7.217

>  <excitation_energy_3>
7.255

>  <excitation_energy_4>
7.294

>  <homo_energy>
-7.323

>  <homo_lumo_gap>
9.9

>  <logP>
2.587

>  <lumo_energy>
2.577

>  <melting_point>
-4.65

>  <molecular_refractivity>
33.65

>  <oscillator_strength_1>
0.0051

>  <oscillator_strength_2>
0.0049

>  <oscillator_strength_3>
0.0153

>  <oscillator_strength_4>
0.007

>  <open_babel_can_smiles>
CCCCC1CC1

>  <mulliken_charges>
21
1   -0.441174
2   -0.247443
3   -0.243363
4   -0.262596
5   -0.310298
6   -0.319695
7   -0.08427
8   0.140903
9   0.141141
10   0.140912
11   0.128933
12   0.129555
13   0.125382
14   0.131493
15   0.122759
16   0.130783
17   0.145869
18   0.146416
19   0.146338
20   0.146223
21   0.132133

>  <lowdin_charges>
21
1   -0.446555
2   -0.273839
3   -0.276104
4   -0.267737
5   -0.319627
6   -0.316963
7   -0.150298
8   0.14987
9   0.146877
10   0.146438
11   0.138455
12   0.13932
13   0.137375
14   0.141082
15   0.138867
16   0.141993
17   0.155283
18   0.156057
19   0.157227
20   0.153467
21   0.148811

$$$$

