PCCDB-ID:  67050
public computational chemistry database (PCCDB) project, http://pccdb.org

 14 14  0  0  0  0  0  0  0  0999 V2000
   -1.3870   -0.3731    0.0386 C   0  0  0  0  0  0  0  0  0  0  0  0
   -0.4368   -1.3563   -0.0430 C   0  0  0  0  0  0  0  0  0  0  0  0
   -1.0841    1.0743   -0.0282 C   0  0  0  0  0  0  0  0  0  0  0  0
    1.0201   -1.1031    0.0257 C   0  0  0  0  0  0  0  0  0  0  0  0
    0.4039    1.4812   -0.0365 C   0  0  0  0  0  0  0  0  0  0  0  0
    1.4776    0.3700    0.0380 C   0  0  0  0  0  0  0  0  0  0  0  0
   -2.7089   -0.6711    0.0955 O   0  0  0  0  0  0  0  0  0  0  0  0
   -0.7792   -2.6669   -0.1031 O   0  0  0  0  0  0  0  0  0  0  0  0
   -1.9567    1.9167   -0.0596 O   0  0  0  0  0  0  0  0  0  0  0  0
    1.8321   -2.0041    0.0559 O   0  0  0  0  0  0  0  0  0  0  0  0
    0.7218    2.6438   -0.0777 O   0  0  0  0  0  0  0  0  0  0  0  0
    2.6503    0.6479    0.0826 O   0  0  0  0  0  0  0  0  0  0  0  0
   -2.8314   -1.5012    0.5895 H   0  0  0  0  0  0  0  0  0  0  0  0
   -1.6172   -2.7589   -0.5905 H   0  0  0  0  0  0  0  0  0  0  0  0
  1  7  1  0  0  0  0
  2  4  1  0  0  0  0
  2  1  2  0  0  0  0
  3  1  1  0  0  0  0
  4  6  1  0  0  0  0
  4 10  2  0  0  0  0
  5  3  1  0  0  0  0
  5  6  1  0  0  0  0
  6 12  2  0  0  0  0
  7 13  1  0  0  0  0
  8  2  1  0  0  0  0
  9  3  2  0  0  0  0
 11  5  2  0  0  0  0
 14  8  1  0  0  0  0
M  END
>  <HBA>
6

>  <HBD>
2

>  <TPSA>
108.74

>  <cid>
67050

>  <dipole>
5.76

>  <excitation_energy_1>
1.843

>  <excitation_energy_2>
2.274

>  <excitation_energy_3>
3.145

>  <excitation_energy_4>
3.166

>  <homo_energy>
-7.154

>  <homo_lumo_gap>
3.233

>  <logP>
-1.396

>  <lumo_energy>
-3.921

>  <melting_point>
120.79

>  <molecular_refractivity>
32.31

>  <oscillator_strength_1>
0.0

>  <oscillator_strength_2>
0.0

>  <oscillator_strength_3>
0.0111

>  <oscillator_strength_4>
0.0009

>  <open_babel_can_smiles>
OC1=C(O)C(=O)C(=O)C(=O)C1=O

>  <mulliken_charges>
14
1   0.234866
2   0.235255
3   0.369153
4   0.369246
5   0.342599
6   0.342618
7   -0.597934
8   -0.597332
9   -0.404577
10   -0.404339
11   -0.3634
12   -0.363394
13   0.418654
14   0.418584

>  <lowdin_charges>
14
1   0.036478
2   0.036891
3   0.106662
4   0.106814
5   0.096555
6   0.096082
7   -0.336172
8   -0.335247
9   -0.158626
10   -0.15835
11   -0.112237
12   -0.112063
13   0.366685
14   0.366527

$$$$

