PCCDB-ID:  7486
public computational chemistry database (PCCDB) project, http://pccdb.org

 30 30  0  0  0  0  0  0  0  0999 V2000
    1.1232    1.1347    0.1833 C   0  0  0  0  0  0  0  0  0  0  0  0
    3.3438    0.7354   -0.9814 C   0  0  0  0  0  0  0  0  0  0  0  0
    6.4016   -0.4386    5.2674 C   0  0  0  0  0  0  0  0  0  0  0  0
    4.1776   -0.0457    6.4271 C   0  0  0  0  0  0  0  0  0  0  0  0
    3.0616   -1.3260    1.9628 C   0  0  0  0  0  0  0  0  0  0  0  0
    3.5847    1.0035    2.1480 C   0  0  0  0  0  0  0  0  0  0  0  0
    3.6667   -1.5591    3.1997 C   0  0  0  0  0  0  0  0  0  0  0  0
    4.1889    0.7708    3.3811 C   0  0  0  0  0  0  0  0  0  0  0  0
    2.3438    0.2027    0.0622 C   0  0  0  0  0  0  0  0  0  0  0  0
    4.8999   -0.7817    5.2827 C   0  0  0  0  0  0  0  0  0  0  0  0
    3.0071   -0.0420    1.4112 C   0  0  0  0  0  0  0  0  0  0  0  0
    4.2423   -0.5177    3.9346 C   0  0  0  0  0  0  0  0  0  0  0  0
    0.6270    1.2518   -0.7877 H   0  0  0  0  0  0  0  0  0  0  0  0
    1.4178    2.1330    0.5284 H   0  0  0  0  0  0  0  0  0  0  0  0
    0.3919    0.7385    0.8962 H   0  0  0  0  0  0  0  0  0  0  0  0
    2.8603    0.8497   -1.9591 H   0  0  0  0  0  0  0  0  0  0  0  0
    4.1947    0.0554   -1.0975 H   0  0  0  0  0  0  0  0  0  0  0  0
    3.7383    1.7160   -0.6893 H   0  0  0  0  0  0  0  0  0  0  0  0
    6.8671   -0.6931    6.2273 H   0  0  0  0  0  0  0  0  0  0  0  0
    6.5631    0.6320    5.0936 H   0  0  0  0  0  0  0  0  0  0  0  0
    6.9253   -0.9872    4.4770 H   0  0  0  0  0  0  0  0  0  0  0  0
    4.6323   -0.2912    7.3944 H   0  0  0  0  0  0  0  0  0  0  0  0
    3.1178   -0.3197    6.4675 H   0  0  0  0  0  0  0  0  0  0  0  0
    4.2359    1.0419    6.2991 H   0  0  0  0  0  0  0  0  0  0  0  0
    2.6245   -2.1600    1.4171 H   0  0  0  0  0  0  0  0  0  0  0  0
    3.5643    2.0172    1.7544 H   0  0  0  0  0  0  0  0  0  0  0  0
    3.6897   -2.5707    3.6003 H   0  0  0  0  0  0  0  0  0  0  0  0
    4.6249    1.6088    3.9204 H   0  0  0  0  0  0  0  0  0  0  0  0
    1.9797   -0.7695   -0.2977 H   0  0  0  0  0  0  0  0  0  0  0  0
    4.8113   -1.8594    5.4774 H   0  0  0  0  0  0  0  0  0  0  0  0
  1 14  1  0  0  0  0
  1 15  1  0  0  0  0
  2 18  1  0  0  0  0
  2  9  1  0  0  0  0
  3 10  1  0  0  0  0
  3 19  1  0  0  0  0
  4 23  1  0  0  0  0
  4 22  1  0  0  0  0
  5  7  1  0  0  0  0
  6  8  2  0  0  0  0
  7 27  1  0  0  0  0
  7 12  2  0  0  0  0
  8 28  1  0  0  0  0
  8 12  1  0  0  0  0
  9  1  1  0  0  0  0
  9 11  1  0  0  0  0
 10 30  1  0  0  0  0
 10  4  1  0  0  0  0
 11  5  2  0  0  0  0
 11  6  1  0  0  0  0
 12 10  1  0  0  0  0
 13  1  1  0  0  0  0
 16  2  1  0  0  0  0
 17  2  1  0  0  0  0
 20  3  1  0  0  0  0
 21  3  1  0  0  0  0
 24  4  1  0  0  0  0
 25  5  1  0  0  0  0
 26  6  1  0  0  0  0
 29  9  1  0  0  0  0
M  END
>  <HBA>
0

>  <HBD>
0

>  <TPSA>
0.0

>  <cid>
7486

>  <dipole>
0.02

>  <excitation_energy_1>
5.215

>  <excitation_energy_2>
5.728

>  <excitation_energy_3>
5.805

>  <excitation_energy_4>
6.033

>  <homo_energy>
-6.169

>  <homo_lumo_gap>
6.346

>  <logP>
3.933

>  <lumo_energy>
0.177

>  <melting_point>
9.33

>  <molecular_refractivity>
55.6

>  <oscillator_strength_1>
0.0036

>  <oscillator_strength_2>
0.0

>  <oscillator_strength_3>
0.0961

>  <oscillator_strength_4>
0.0186

>  <open_babel_can_smiles>
CC(c1ccc(cc1)C(C)C)C

>  <mulliken_charges>
30
1   -0.438028
2   -0.438012
3   -0.438219
4   -0.437975
5   -0.195369
6   -0.186999
7   -0.195657
8   -0.187101
9   -0.159106
10   -0.159175
11   0.187226
12   0.187491
13   0.139725
14   0.142609
15   0.148972
16   0.139711
17   0.148957
18   0.142558
19   0.13978
20   0.142573
21   0.149051
22   0.139712
23   0.148948
24   0.1426
25   0.119395
26   0.12132
27   0.11941
28   0.121355
29   0.127135
30   0.127112

>  <lowdin_charges>
30
1   -0.442084
2   -0.441485
3   -0.441601
4   -0.438144
5   -0.171275
6   -0.16407
7   -0.169299
8   -0.166055
9   -0.11789
10   -0.116053
11   -0.00342
12   -0.00322
13   0.14734
14   0.146478
15   0.153536
16   0.147158
17   0.152923
18   0.14669
19   0.147533
20   0.145449
21   0.153655
22   0.147256
23   0.15098
24   0.14514
25   0.15344
26   0.151767
27   0.151613
28   0.153614
29   0.140903
30   0.139123

$$$$

