PCCDB-ID:  11524
public computational chemistry database (PCCDB) project, http://pccdb.org

 22 22  0  0  1  0  0  0  0  0999 V2000
    0.9373    0.0095    0.1144 C   0  0  0  0  0  0  0  0  0  0  0  0
    3.0585    1.2051   -0.6202 C   0  0  0  0  0  0  0  0  0  0  0  0
    2.9872   -1.3198   -0.5927 C   0  0  0  0  0  0  0  0  0  0  0  0
    4.5933    1.1618   -0.6886 C   0  0  0  0  0  0  0  0  0  0  0  0
    4.5220   -1.3638   -0.6610 C   0  0  0  0  0  0  0  0  0  0  0  0
    2.4691   -0.0344    0.0792 C   0  0  2  0  0  0  0  0  0  0  0  0
    5.0988   -0.1236   -1.3552 C   0  0  2  0  0  0  0  0  0  0  0  0
    6.5241   -0.1646   -1.4266 O   0  0  0  0  0  0  0  0  0  0  0  0
    0.5757    0.9114    0.6226 H   0  0  0  0  0  0  0  0  0  0  0  0
    0.5253   -0.8598    0.6409 H   0  0  0  0  0  0  0  0  0  0  0  0
    0.5210    0.0109   -0.9014 H   0  0  0  0  0  0  0  0  0  0  0  0
    2.6505    1.2649   -1.6410 H   0  0  0  0  0  0  0  0  0  0  0  0
    2.7315    2.1177   -0.1050 H   0  0  0  0  0  0  0  0  0  0  0  0
    2.6099   -2.2013   -0.0579 H   0  0  0  0  0  0  0  0  0  0  0  0
    2.5760   -1.3789   -1.6122 H   0  0  0  0  0  0  0  0  0  0  0  0
    5.0056    1.2106    0.3324 H   0  0  0  0  0  0  0  0  0  0  0  0
    4.9877    2.0303   -1.2295 H   0  0  0  0  0  0  0  0  0  0  0  0
    4.8670   -2.2645   -1.1825 H   0  0  0  0  0  0  0  0  0  0  0  0
    4.9316   -1.4132    0.3611 H   0  0  0  0  0  0  0  0  0  0  0  0
    2.8342   -0.0334    1.1193 H   0  0  0  0  0  0  0  0  0  0  0  0
    4.7769   -0.1259   -2.4051 H   0  0  0  0  0  0  0  0  0  0  0  0
    6.8553   -0.1649   -0.5138 H   0  0  0  0  0  0  0  0  0  0  0  0
  1  9  1  0  0  0  0
  1 10  1  0  0  0  0
  2 13  1  0  0  0  0
  2  6  1  0  0  0  0
  3 14  1  0  0  0  0
  3  6  1  0  0  0  0
  4  2  1  0  0  0  0
  4 16  1  0  0  0  0
  5  3  1  0  0  0  0
  5 19  1  0  0  0  0
  6  1  1  0  0  0  0
  6 20  1  1  0  0  0
  7 21  1  6  0  0  0
  7  4  1  0  0  0  0
  7  5  1  0  0  0  0
  8  7  1  0  0  0  0
  8 22  1  0  0  0  0
 11  1  1  0  0  0  0
 12  2  1  0  0  0  0
 15  3  1  0  0  0  0
 17  4  1  0  0  0  0
 18  5  1  0  0  0  0
M  END
>  <HBA>
1

>  <HBD>
1

>  <TPSA>
20.23

>  <cid>
11524

>  <dipole>
1.74

>  <excitation_energy_1>
6.395

>  <excitation_energy_2>
6.764

>  <excitation_energy_3>
6.978

>  <excitation_energy_4>
7.146

>  <homo_energy>
-6.904

>  <homo_lumo_gap>
9.012

>  <logP>
1.557

>  <lumo_energy>
2.109

>  <melting_point>
13.97

>  <molecular_refractivity>
34.81

>  <oscillator_strength_1>
0.014

>  <oscillator_strength_2>
0.0029

>  <oscillator_strength_3>
0.009

>  <oscillator_strength_4>
0.0114

>  <open_babel_can_smiles>
C[C@@H]1CC[C@H](CC1)O

>  <mulliken_charges>
22
1   -0.445642
2   -0.262725
3   -0.262714
4   -0.278004
5   -0.27807
6   -0.069154
7   0.144812
8   -0.6278
9   0.140484
10   0.140484
11   0.139718
12   0.128149
13   0.131454
14   0.13147
15   0.128164
16   0.1131
17   0.14357
18   0.143554
19   0.113076
20   0.116448
21   0.129997
22   0.37963

>  <lowdin_charges>
22
1   -0.443996
2   -0.278113
3   -0.278408
4   -0.293715
5   -0.293421
6   -0.124557
7   -0.004111
8   -0.461805
9   0.148841
10   0.149085
11   0.145415
12   0.137636
13   0.144866
14   0.145148
15   0.13766
16   0.131194
17   0.151516
18   0.151237
19   0.131158
20   0.131416
21   0.13819
22   0.334763

$$$$

