PCCDB-ID:  26324
public computational chemistry database (PCCDB) project, http://pccdb.org

 36 36  0  0  0  0  0  0  0  0999 V2000
    3.1984    0.6685    2.4699 C   0  0  0  0  0  0  0  0  0  0  0  0
    4.3531    4.1996    1.7286 C   0  0  0  0  0  0  0  0  0  0  0  0
   10.1262    0.1231   -2.3357 C   0  0  0  0  0  0  0  0  0  0  0  0
    4.6499    1.1418    2.5671 C   0  0  0  0  0  0  0  0  0  0  0  0
    5.5239    3.2358    1.5164 C   0  0  0  0  0  0  0  0  0  0  0  0
    8.9973   -0.2682   -3.2837 C   0  0  0  0  0  0  0  0  0  0  0  0
    5.2290    2.7231   -1.5977 C   0  0  0  0  0  0  0  0  0  0  0  0
    5.6052    3.1601   -2.8706 C   0  0  0  0  0  0  0  0  0  0  0  0
    6.9044    0.9860   -1.7278 C   0  0  0  0  0  0  0  0  0  0  0  0
    5.8854    1.6404   -1.0115 C   0  0  0  0  0  0  0  0  0  0  0  0
    6.6340    2.5320   -3.5666 C   0  0  0  0  0  0  0  0  0  0  0  0
    7.2971    1.4214   -2.9895 C   0  0  0  0  0  0  0  0  0  0  0  0
    5.4869    1.0255    0.3018 C   0  0  0  0  0  0  0  0  0  0  0  0
    5.1119    1.8377    1.3536 N   0  0  0  0  0  0  0  0  0  0  0  0
    7.0442    2.9237   -4.8075 O   0  0  0  0  0  0  0  0  0  0  0  0
    5.4710   -0.2016    0.4161 O   0  0  0  0  0  0  0  0  0  0  0  0
    8.2668    0.8634   -3.7659 O   0  0  0  0  0  0  0  0  0  0  0  0
    2.9029    0.1620    3.3963 H   0  0  0  0  0  0  0  0  0  0  0  0
    3.0877   -0.0393    1.6443 H   0  0  0  0  0  0  0  0  0  0  0  0
    2.5159    1.5098    2.3053 H   0  0  0  0  0  0  0  0  0  0  0  0
    4.7262    5.2215    1.8639 H   0  0  0  0  0  0  0  0  0  0  0  0
    3.7728    3.9353    2.6192 H   0  0  0  0  0  0  0  0  0  0  0  0
    3.6718    4.1931    0.8711 H   0  0  0  0  0  0  0  0  0  0  0  0
   10.7009   -0.7663   -2.0522 H   0  0  0  0  0  0  0  0  0  0  0  0
    9.7465    0.5892   -1.4215 H   0  0  0  0  0  0  0  0  0  0  0  0
   10.8027    0.8307   -2.8256 H   0  0  0  0  0  0  0  0  0  0  0  0
    5.3051    0.2828    2.7441 H   0  0  0  0  0  0  0  0  0  0  0  0
    4.7668    1.8365    3.4049 H   0  0  0  0  0  0  0  0  0  0  0  0
    6.2041    3.2981    2.3791 H   0  0  0  0  0  0  0  0  0  0  0  0
    6.1022    3.5319    0.6410 H   0  0  0  0  0  0  0  0  0  0  0  0
    8.3143   -0.9938   -2.8242 H   0  0  0  0  0  0  0  0  0  0  0  0
    9.4050   -0.7267   -4.1891 H   0  0  0  0  0  0  0  0  0  0  0  0
    4.4072    3.2139   -1.0874 H   0  0  0  0  0  0  0  0  0  0  0  0
    5.0854    3.9964   -3.3353 H   0  0  0  0  0  0  0  0  0  0  0  0
    7.3628    0.1195   -1.2683 H   0  0  0  0  0  0  0  0  0  0  0  0
    6.4971    3.6742   -5.0873 H   0  0  0  0  0  0  0  0  0  0  0  0
  1  4  1  0  0  0  0
  1 18  1  0  0  0  0
  2 21  1  0  0  0  0
  2 22  1  0  0  0  0
  3 24  1  0  0  0  0
  3 25  1  0  0  0  0
  4 27  1  0  0  0  0
  4 28  1  0  0  0  0
  5  2  1  0  0  0  0
  5 29  1  0  0  0  0
  6 31  1  0  0  0  0
  6  3  1  0  0  0  0
  7 33  1  0  0  0  0
  7 10  1  0  0  0  0
  8  7  2  0  0  0  0
  9 35  1  0  0  0  0
  9 10  2  0  0  0  0
 10 13  1  0  0  0  0
 11 12  2  0  0  0  0
 11  8  1  0  0  0  0
 12  9  1  0  0  0  0
 13 16  2  0  0  0  0
 13 14  1  0  0  0  0
 14  5  1  0  0  0  0
 14  4  1  0  0  0  0
 15 11  1  0  0  0  0
 17  6  1  0  0  0  0
 17 12  1  0  0  0  0
 19  1  1  0  0  0  0
 20  1  1  0  0  0  0
 23  2  1  0  0  0  0
 26  3  1  0  0  0  0
 30  5  1  0  0  0  0
 32  6  1  0  0  0  0
 34  8  1  0  0  0  0
 36 15  1  0  0  0  0
M  END
>  <HBA>
4

>  <HBD>
1

>  <TPSA>
49.77

>  <cid>
26324

>  <dipole>
3.35

>  <excitation_energy_1>
4.584

>  <excitation_energy_2>
4.708

>  <excitation_energy_3>
4.864

>  <excitation_energy_4>
5.03

>  <homo_energy>
-5.578

>  <homo_lumo_gap>
5.203

>  <logP>
2.273

>  <lumo_energy>
-0.376

>  <melting_point>
85.28

>  <molecular_refractivity>
67.28

>  <oscillator_strength_1>
0.1009

>  <oscillator_strength_2>
0.0289

>  <oscillator_strength_3>
0.0027

>  <oscillator_strength_4>
0.0485

>  <open_babel_can_smiles>
CCOc1cc(ccc1O)C(=O)N(CC)CC

>  <mulliken_charges>
36
1   -0.444868
2   -0.447764
3   -0.462695
4   -0.132194
5   -0.154644
6   -0.04004
7   -0.18125
8   -0.203997
9   -0.238373
10   0.059943
11   0.308381
12   0.358711
13   0.515925
14   -0.417842
15   -0.627339
16   -0.527415
17   -0.516665
18   0.140419
19   0.180258
20   0.140909
21   0.147801
22   0.154886
23   0.156942
24   0.149288
25   0.162531
26   0.163336
27   0.172543
28   0.133624
29   0.145857
30   0.169722
31   0.152781
32   0.157425
33   0.137744
34   0.119237
35   0.159117
36   0.407706

>  <lowdin_charges>
36
1   -0.451813
2   -0.453466
3   -0.461119
4   -0.19482
5   -0.198729
6   -0.127491
7   -0.171695
8   -0.213169
9   -0.189704
10   -0.045795
11   0.086938
12   0.079023
13   0.154405
14   -0.110799
15   -0.364304
16   -0.317864
17   -0.190972
18   0.151468
19   0.167386
20   0.146663
21   0.15383
22   0.153426
23   0.151705
24   0.158445
25   0.158263
26   0.16097
27   0.162305
28   0.143856
29   0.142188
30   0.164413
31   0.145807
32   0.156069
33   0.162502
34   0.155085
35   0.177798
36   0.359196

$$$$

