PCCDB-ID:  20487
public computational chemistry database (PCCDB) project, http://pccdb.org

 25 26  0  0  1  0  0  0  0  0999 V2000
   -2.5408    0.6919    0.3118 C   0  0  0  0  0  0  0  0  0  0  0  0
   -2.5243   -0.7355   -0.2602 C   0  0  0  0  0  0  0  0  0  0  0  0
   -1.3082    1.4938   -0.1371 C   0  0  0  0  0  0  0  0  0  0  0  0
   -1.2086   -1.4615    0.0651 C   0  0  0  0  0  0  0  0  0  0  0  0
    1.2651    1.4883   -0.2537 C   0  0  0  0  0  0  0  0  0  0  0  0
    2.5027    0.6879    0.1682 C   0  0  0  0  0  0  0  0  0  0  0  0
    0.0002    0.7654    0.2125 C   0  0  2  0  0  0  0  0  0  0  0  0
   -0.0141   -0.6353   -0.4021 C   0  0  1  0  0  0  0  0  0  0  0  0
    2.4102   -0.8255   -0.0084 C   0  0  0  0  0  0  0  0  0  0  0  0
    3.3865   -1.5360    0.0140 O   0  0  0  0  0  0  0  0  0  0  0  0
    1.1805   -1.3987   -0.0996 O   0  0  0  0  0  0  0  0  0  0  0  0
   -2.5571    0.6421    1.4101 H   0  0  0  0  0  0  0  0  0  0  0  0
   -3.4585    1.2108    0.0087 H   0  0  0  0  0  0  0  0  0  0  0  0
   -2.6537   -0.6897   -1.3514 H   0  0  0  0  0  0  0  0  0  0  0  0
   -3.3720   -1.3123    0.1282 H   0  0  0  0  0  0  0  0  0  0  0  0
   -1.3077    2.4889    0.3257 H   0  0  0  0  0  0  0  0  0  0  0  0
   -1.3515    1.6567   -1.2246 H   0  0  0  0  0  0  0  0  0  0  0  0
   -1.1761   -2.4500   -0.4068 H   0  0  0  0  0  0  0  0  0  0  0  0
   -1.1200   -1.6206    1.1483 H   0  0  0  0  0  0  0  0  0  0  0  0
    1.2371    1.5956   -1.3473 H   0  0  0  0  0  0  0  0  0  0  0  0
    1.3143    2.5032    0.1594 H   0  0  0  0  0  0  0  0  0  0  0  0
    2.6939    0.8387    1.2402 H   0  0  0  0  0  0  0  0  0  0  0  0
    3.4092    1.0146   -0.3492 H   0  0  0  0  0  0  0  0  0  0  0  0
    0.0469    0.6459    1.3071 H   0  0  0  0  0  0  0  0  0  0  0  0
   -0.0542   -0.5332   -1.4981 H   0  0  0  0  0  0  0  0  0  0  0  0
  1 12  1  0  0  0  0
  2  4  1  0  0  0  0
  2 15  1  0  0  0  0
  2  1  1  0  0  0  0
  3  7  1  0  0  0  0
  3  1  1  0  0  0  0
  3 16  1  0  0  0  0
  4 19  1  0  0  0  0
  5 21  1  0  0  0  0
  5  6  1  0  0  0  0
  5  7  1  0  0  0  0
  6 22  1  0  0  0  0
  7 24  1  1  0  0  0
  8 25  1  6  0  0  0
  8 11  1  0  0  0  0
  8  4  1  0  0  0  0
  8  7  1  0  0  0  0
  9 10  2  0  0  0  0
  9  6  1  0  0  0  0
 11  9  1  0  0  0  0
 13  1  1  0  0  0  0
 14  2  1  0  0  0  0
 17  3  1  0  0  0  0
 18  4  1  0  0  0  0
 20  5  1  0  0  0  0
 23  6  1  0  0  0  0
M  END
>  <HBA>
2

>  <HBD>
0

>  <TPSA>
26.3

>  <cid>
20487

>  <dipole>
4.8

>  <excitation_energy_1>
5.441

>  <excitation_energy_2>
6.637

>  <excitation_energy_3>
6.813

>  <excitation_energy_4>
6.85

>  <homo_energy>
-6.931

>  <homo_lumo_gap>
7.304

>  <logP>
1.882

>  <lumo_energy>
0.373

>  <melting_point>
29.04

>  <molecular_refractivity>
42.43

>  <oscillator_strength_1>
0.001

>  <oscillator_strength_2>
0.0015

>  <oscillator_strength_3>
0.0028

>  <oscillator_strength_4>
0.0012

>  <open_babel_can_smiles>
O=C1CC[C@@H]2[C@@H](O1)CCCC2

>  <mulliken_charges>
25
1   -0.262565
2   -0.271954
3   -0.269391
4   -0.277601
5   -0.278037
6   -0.372476
7   -0.109902
8   0.150505
9   0.593634
10   -0.453474
11   -0.47157
12   0.134861
13   0.138131
14   0.134863
15   0.142961
16   0.138743
17   0.132275
18   0.154688
19   0.143691
20   0.141972
21   0.143386
22   0.179595
23   0.179428
24   0.128686
25   0.129551

>  <lowdin_charges>
25
1   -0.276453
2   -0.276841
3   -0.273499
4   -0.279782
5   -0.27627
6   -0.311559
7   -0.142115
8   0.005786
9   0.196448
10   -0.249012
11   -0.195405
12   0.139047
13   0.148426
14   0.138895
15   0.151705
16   0.147819
17   0.138715
18   0.156877
19   0.146543
20   0.142602
21   0.149643
22   0.171939
23   0.175049
24   0.13839
25   0.133053

$$$$

