PCCDB-ID:  21348
public computational chemistry database (PCCDB) project, http://pccdb.org

 16 16  0  0  0  0  0  0  0  0999 V2000
    0.9460    0.3331   -0.4946 C   0  0  0  0  0  0  0  0  0  0  0  0
    4.6288    1.5712   -0.2000 C   0  0  0  0  0  0  0  0  0  0  0  0
    4.8548    2.9605   -0.0280 C   0  0  0  0  0  0  0  0  0  0  0  0
    2.4496    0.1783   -0.4543 C   0  0  0  0  0  0  0  0  0  0  0  0
    3.2657    1.3990   -0.2754 C   0  0  0  0  0  0  0  0  0  0  0  0
    3.6066    3.5245   -0.0127 C   0  0  0  0  0  0  0  0  0  0  0  0
    3.2087    4.8944    0.1302 N   0  0  0  0  0  0  0  0  0  0  0  0
    3.0213   -0.8946   -0.5606 O   0  0  0  0  0  0  0  0  0  0  0  0
    4.1282    5.7058    0.2635 O   0  0  0  0  0  0  0  0  0  0  0  0
    2.0071    5.1501    0.1095 O   0  0  0  0  0  0  0  0  0  0  0  0
    2.6316    2.6068   -0.1599 O   0  0  0  0  0  0  0  0  0  0  0  0
    0.6468    1.0056   -1.3070 H   0  0  0  0  0  0  0  0  0  0  0  0
    0.5787    0.7799    0.4368 H   0  0  0  0  0  0  0  0  0  0  0  0
    0.4929   -0.6490   -0.6388 H   0  0  0  0  0  0  0  0  0  0  0  0
    5.3602    0.7789   -0.2627 H   0  0  0  0  0  0  0  0  0  0  0  0
    5.7901    3.4896    0.0716 H   0  0  0  0  0  0  0  0  0  0  0  0
  1  4  1  0  0  0  0
  1 13  1  0  0  0  0
  2  3  1  0  0  0  0
  3  6  2  0  0  0  0
  3 16  1  0  0  0  0
  4  5  1  0  0  0  0
  5  2  2  0  0  0  0
  5 11  1  0  0  0  0
  6  7  1  0  0  0  0
  7  9  2  0  0  0  0
  8  4  2  0  0  0  0
 10  7  2  0  0  0  0
 11  6  1  0  0  0  0
 12  1  1  0  0  0  0
 14  1  1  0  0  0  0
 15  2  1  0  0  0  0
M  END
>  <HBA>
2

>  <HBD>
0

>  <TPSA>
76.03

>  <cid>
21348

>  <dipole>
1.93

>  <excitation_energy_1>
3.333

>  <excitation_energy_2>
3.691

>  <excitation_energy_3>
4.169

>  <excitation_energy_4>
4.182

>  <homo_energy>
-7.546

>  <homo_lumo_gap>
4.452

>  <logP>
1.914

>  <lumo_energy>
-3.094

>  <melting_point>
77.24

>  <molecular_refractivity>
37.72

>  <oscillator_strength_1>
0.0

>  <oscillator_strength_2>
0.0

>  <oscillator_strength_3>
0.3871

>  <oscillator_strength_4>
0.0004

>  <open_babel_can_smiles>
CC(=O)c1ccc(o1)N(=O)=O

>  <mulliken_charges>
16
1   -0.535548
2   -0.177619
3   -0.141698
4   0.395221
5   0.296558
6   0.533037
7   0.33821
8   -0.437595
9   -0.392741
10   -0.381561
11   -0.448391
12   0.188187
13   0.188201
14   0.188316
15   0.191042
16   0.196381

>  <lowdin_charges>
16
1   -0.470005
2   -0.152898
3   -0.153455
4   0.1562
5   0.053299
6   0.080038
7   0.303074
8   -0.22445
9   -0.245048
10   -0.226937
11   -0.05803
12   0.181877
13   0.181456
14   0.17924
15   0.196371
16   0.199269

$$$$

