PCCDB-ID:  38079
public computational chemistry database (PCCDB) project, http://pccdb.org

 25 26  0  0  1  0  0  0  0  0999 V2000
    1.0665   -0.1824   -0.0750 C   0  0  0  0  0  0  0  0  0  0  0  0
    6.7316    0.8047    0.4004 C   0  0  0  0  0  0  0  0  0  0  0  0
    6.4413   -0.4427   -0.4471 C   0  0  0  0  0  0  0  0  0  0  0  0
    6.1066    2.0578   -0.2307 C   0  0  0  0  0  0  0  0  0  0  0  0
    4.9297   -0.6267   -0.6584 C   0  0  0  0  0  0  0  0  0  0  0  0
    2.5236    1.7674    0.5704 C   0  0  0  0  0  0  0  0  0  0  0  0
    2.1243    0.5998   -0.2990 C   0  0  0  0  0  0  0  0  0  0  0  0
    4.6091    1.8940   -0.4966 C   0  0  1  0  0  0  0  0  0  0  0  0
    4.3001    0.6185   -1.2916 C   0  0  2  0  0  0  0  0  0  0  0  0
    3.9338    1.8371    0.7616 O   0  0  0  0  0  0  0  0  0  0  0  0
    2.8721    0.4457   -1.4439 O   0  0  0  0  0  0  0  0  0  0  0  0
    0.4291   -0.0172    0.7867 H   0  0  0  0  0  0  0  0  0  0  0  0
    0.7990   -0.9729   -0.7679 H   0  0  0  0  0  0  0  0  0  0  0  0
    7.8132    0.9485    0.5134 H   0  0  0  0  0  0  0  0  0  0  0  0
    6.3203    0.6666    1.4078 H   0  0  0  0  0  0  0  0  0  0  0  0
    6.8603   -1.3369    0.0303 H   0  0  0  0  0  0  0  0  0  0  0  0
    6.9420   -0.3479   -1.4227 H   0  0  0  0  0  0  0  0  0  0  0  0
    6.6003    2.2770   -1.1880 H   0  0  0  0  0  0  0  0  0  0  0  0
    6.2499    2.9345    0.4114 H   0  0  0  0  0  0  0  0  0  0  0  0
    4.4448   -0.8087    0.3084 H   0  0  0  0  0  0  0  0  0  0  0  0
    4.7188   -1.4944   -1.2940 H   0  0  0  0  0  0  0  0  0  0  0  0
    2.0696    1.6885    1.5608 H   0  0  0  0  0  0  0  0  0  0  0  0
    2.1777    2.7051    0.0996 H   0  0  0  0  0  0  0  0  0  0  0  0
    4.2288    2.7625   -1.0621 H   0  0  0  0  0  0  0  0  0  0  0  0
    4.6660    0.7417   -2.3175 H   0  0  0  0  0  0  0  0  0  0  0  0
  1 12  1  0  0  0  0
  2 14  1  0  0  0  0
  2 15  1  0  0  0  0
  3 16  1  0  0  0  0
  3  2  1  0  0  0  0
  4  2  1  0  0  0  0
  4 19  1  0  0  0  0
  5  3  1  0  0  0  0
  5 20  1  0  0  0  0
  6 10  1  0  0  0  0
  6 22  1  0  0  0  0
  7  1  2  0  0  0  0
  7  6  1  0  0  0  0
  8 24  1  6  0  0  0
  8  4  1  0  0  0  0
  8 10  1  0  0  0  0
  9 25  1  6  0  0  0
  9  5  1  0  0  0  0
  9  8  1  0  0  0  0
 11  9  1  0  0  0  0
 11  7  1  0  0  0  0
 13  1  1  0  0  0  0
 17  3  1  0  0  0  0
 18  4  1  0  0  0  0
 21  5  1  0  0  0  0
 23  6  1  0  0  0  0
M  END
>  <HBA>
2

>  <HBD>
0

>  <TPSA>
18.46

>  <cid>
38079

>  <dipole>
1.08

>  <excitation_energy_1>
5.618

>  <excitation_energy_2>
5.894

>  <excitation_energy_3>
5.998

>  <excitation_energy_4>
6.114

>  <homo_energy>
-6.079

>  <homo_lumo_gap>
6.795

>  <logP>
1.858

>  <lumo_energy>
0.716

>  <melting_point>
-18.48

>  <molecular_refractivity>
42.84

>  <oscillator_strength_1>
0.072

>  <oscillator_strength_2>
0.0253

>  <oscillator_strength_3>
0.0071

>  <oscillator_strength_4>
0.0464

>  <open_babel_can_smiles>
C=C1CO[C@@H]2[C@H](O1)CCCC2

>  <mulliken_charges>
25
1   -0.429799
2   -0.260864
3   -0.271916
4   -0.282599
5   -0.272562
6   -0.090527
7   0.404657
8   0.118178
9   0.12187
10   -0.484801
11   -0.518604
12   0.136819
13   0.146799
14   0.132892
15   0.154104
16   0.138681
17   0.127491
18   0.133301
19   0.150495
20   0.153447
21   0.143788
22   0.157877
23   0.139945
24   0.118406
25   0.132921

>  <lowdin_charges>
25
1   -0.395134
2   -0.276569
3   -0.277934
4   -0.282154
5   -0.291191
6   -0.140761
7   0.084204
8   -0.016703
9   -0.01015
10   -0.273266
11   -0.220193
12   0.163232
13   0.168439
14   0.143975
15   0.150127
16   0.149144
17   0.136509
18   0.145566
19   0.156539
20   0.153887
21   0.152734
22   0.161096
23   0.140223
24   0.131622
25   0.146758

$$$$

