PCCDB-ID:  37109
public computational chemistry database (PCCDB) project, http://pccdb.org

 19 19  0  0  1  0  0  0  0  0999 V2000
    1.2046    0.0691   -1.1370 C   0  0  0  0  0  0  0  0  0  0  0  0
    2.3003   -0.1449   -0.0851 C   0  0  0  0  0  0  0  0  0  0  0  0
    4.4394    1.0186    1.0308 C   0  0  0  0  0  0  0  0  0  0  0  0
    4.2899    2.5620    1.1059 C   0  0  0  0  0  0  0  0  0  0  0  0
    3.3121    0.9953   -0.0416 C   0  0  2  0  0  0  0  0  0  0  0  0
    2.8766    2.3892    0.4926 C   0  0  2  0  0  0  0  0  0  0  0  0
    2.3397    3.3605   -0.3786 O   0  0  0  0  0  0  0  0  0  0  0  0
    0.4630   -0.7373   -1.1105 H   0  0  0  0  0  0  0  0  0  0  0  0
    1.6304    0.0964   -2.1479 H   0  0  0  0  0  0  0  0  0  0  0  0
    0.6832    1.0191   -0.9762 H   0  0  0  0  0  0  0  0  0  0  0  0
    2.8235   -1.0918   -0.2812 H   0  0  0  0  0  0  0  0  0  0  0  0
    1.8431   -0.2508    0.9095 H   0  0  0  0  0  0  0  0  0  0  0  0
    4.1170    0.5348    1.9599 H   0  0  0  0  0  0  0  0  0  0  0  0
    5.4156    0.6136    0.7489 H   0  0  0  0  0  0  0  0  0  0  0  0
    4.9625    3.0628    0.3977 H   0  0  0  0  0  0  0  0  0  0  0  0
    4.3754    3.0550    2.0791 H   0  0  0  0  0  0  0  0  0  0  0  0
    3.7640    1.1326   -1.0372 H   0  0  0  0  0  0  0  0  0  0  0  0
    2.1289    2.2696    1.2854 H   0  0  0  0  0  0  0  0  0  0  0  0
    2.9717    3.4801   -1.1052 H   0  0  0  0  0  0  0  0  0  0  0  0
  1  8  1  0  0  0  0
  1 10  1  0  0  0  0
  1  2  1  0  0  0  0
  2  5  1  0  0  0  0
  2 12  1  0  0  0  0
  3  4  1  0  0  0  0
  3 13  1  0  0  0  0
  4 16  1  0  0  0  0
  5 17  1  6  0  0  0
  5  6  1  0  0  0  0
  5  3  1  0  0  0  0
  6  4  1  0  0  0  0
  6 18  1  1  0  0  0
  7  6  1  0  0  0  0
  9  1  1  0  0  0  0
 11  2  1  0  0  0  0
 14  3  1  0  0  0  0
 15  4  1  0  0  0  0
 19  7  1  0  0  0  0
M  END
>  <HBA>
1

>  <HBD>
1

>  <TPSA>
20.23

>  <cid>
37109

>  <dipole>
1.56

>  <excitation_energy_1>
6.267

>  <excitation_energy_2>
6.767

>  <excitation_energy_3>
6.85

>  <excitation_energy_4>
6.972

>  <homo_energy>
-6.819

>  <homo_lumo_gap>
8.936

>  <logP>
1.167

>  <lumo_energy>
2.117

>  <melting_point>
14.63

>  <molecular_refractivity>
30.0

>  <oscillator_strength_1>
0.0116

>  <oscillator_strength_2>
0.0075

>  <oscillator_strength_3>
0.0063

>  <oscillator_strength_4>
0.0231

>  <open_babel_can_smiles>
CC[C@@H]1CC[C@H]1O

>  <mulliken_charges>
19
1   -0.44882
2   -0.257658
3   -0.294663
4   -0.30203
5   -0.09089
6   0.143732
7   -0.618846
8   0.140014
9   0.136952
10   0.164704
11   0.131438
12   0.126827
13   0.139547
14   0.138978
15   0.127302
16   0.141841
17   0.10739
18   0.132236
19   0.381945

>  <lowdin_charges>
19
1   -0.446662
2   -0.273002
3   -0.287981
4   -0.303759
5   -0.147933
6   -0.016495
7   -0.45006
8   0.149039
9   0.143756
10   0.157284
11   0.141337
12   0.137517
13   0.146611
14   0.145312
15   0.143289
16   0.146369
17   0.132842
18   0.144162
19   0.338373

$$$$

