PCCDB-ID:  31819
public computational chemistry database (PCCDB) project, http://pccdb.org

 28 28  0  0  1  0  0  0  0  0999 V2000
    2.7170    0.5193    1.4312 C   0  0  0  0  0  0  0  0  0  0  0  0
    2.6068   -6.5647   -1.2084 C   0  0  0  0  0  0  0  0  0  0  0  0
    2.3654   -1.5924   -1.6801 C   0  0  0  0  0  0  0  0  0  0  0  0
    2.3621   -2.4705    0.6737 C   0  0  0  0  0  0  0  0  0  0  0  0
    2.9283   -2.9295   -2.1789 C   0  0  0  0  0  0  0  0  0  0  0  0
    2.9355   -3.8063    0.1768 C   0  0  0  0  0  0  0  0  0  0  0  0
    2.7768   -1.2977   -0.2299 C   0  0  2  0  0  0  0  0  0  0  0  0
    2.5234   -4.1032   -1.2750 C   0  0  2  0  0  0  0  0  0  0  0  0
    2.1548   -0.0434    0.2069 N   0  0  0  0  0  0  0  0  0  0  0  0
    3.1550   -5.3320   -1.7664 N   0  0  0  0  0  0  0  0  0  0  0  0
    2.2886    1.5129    1.5997 H   0  0  0  0  0  0  0  0  0  0  0  0
    3.8197    0.6151    1.4210 H   0  0  0  0  0  0  0  0  0  0  0  0
    2.4473   -0.1008    2.2923 H   0  0  0  0  0  0  0  0  0  0  0  0
    3.0431   -7.4213   -1.7327 H   0  0  0  0  0  0  0  0  0  0  0  0
    1.5046   -6.6425   -1.2765 H   0  0  0  0  0  0  0  0  0  0  0  0
    2.8798   -6.6574   -0.1520 H   0  0  0  0  0  0  0  0  0  0  0  0
    1.2679   -1.5992   -1.7324 H   0  0  0  0  0  0  0  0  0  0  0  0
    2.7071   -0.7791   -2.3363 H   0  0  0  0  0  0  0  0  0  0  0  0
    2.6918   -2.2954    1.7048 H   0  0  0  0  0  0  0  0  0  0  0  0
    1.2642   -2.5100    0.6968 H   0  0  0  0  0  0  0  0  0  0  0  0
    4.0257   -2.8877   -2.2169 H   0  0  0  0  0  0  0  0  0  0  0  0
    2.5844   -3.1159   -3.2064 H   0  0  0  0  0  0  0  0  0  0  0  0
    2.6051   -4.6134    0.8416 H   0  0  0  0  0  0  0  0  0  0  0  0
    4.0333   -3.7914    0.2218 H   0  0  0  0  0  0  0  0  0  0  0  0
    3.8850   -1.2267   -0.1995 H   0  0  0  0  0  0  0  0  0  0  0  0
    1.4157   -4.1846   -1.2990 H   0  0  0  0  0  0  0  0  0  0  0  0
    2.2640    0.6409   -0.5401 H   0  0  0  0  0  0  0  0  0  0  0  0
    3.0445   -5.3615   -2.7789 H   0  0  0  0  0  0  0  0  0  0  0  0
  1 11  1  0  0  0  0
  1 13  1  0  0  0  0
  2 16  1  0  0  0  0
  3  7  1  0  0  0  0
  4 20  1  0  0  0  0
  4 19  1  0  0  0  0
  5  3  1  0  0  0  0
  5  8  1  0  0  0  0
  6 24  1  0  0  0  0
  6  4  1  0  0  0  0
  6 23  1  0  0  0  0
  7 25  1  1  0  0  0
  7  9  1  0  0  0  0
  7  4  1  0  0  0  0
  8 26  1  6  0  0  0
  8  6  1  0  0  0  0
  9  1  1  0  0  0  0
 10  8  1  0  0  0  0
 10  2  1  0  0  0  0
 12  1  1  0  0  0  0
 14  2  1  0  0  0  0
 15  2  1  0  0  0  0
 17  3  1  0  0  0  0
 18  3  1  0  0  0  0
 21  5  1  0  0  0  0
 22  5  1  0  0  0  0
 27  9  1  0  0  0  0
 28 10  1  0  0  0  0
M  END
>  <HBA>
2

>  <HBD>
2

>  <TPSA>
24.06

>  <cid>
31819

>  <dipole>
0.74

>  <excitation_energy_1>
5.343

>  <excitation_energy_2>
5.353

>  <excitation_energy_3>
5.775

>  <excitation_energy_4>
5.78

>  <homo_energy>
-5.831

>  <homo_lumo_gap>
8.117

>  <logP>
1.518

>  <lumo_energy>
2.286

>  <melting_point>
49.05

>  <molecular_refractivity>
44.06

>  <oscillator_strength_1>
0.0033

>  <oscillator_strength_2>
0.0014

>  <oscillator_strength_3>
0.002

>  <oscillator_strength_4>
0.0093

>  <open_babel_can_smiles>
CN[C@@H]1CC[C@H](CC1)NC

>  <mulliken_charges>
28
1   -0.30497
2   -0.304865
3   -0.284369
4   -0.264772
5   -0.284332
6   -0.265131
7   0.067446
8   0.06759
9   -0.554507
10   -0.554495
11   0.145538
12   0.118242
13   0.155185
14   0.145558
15   0.118184
16   0.155139
17   0.142984
18   0.123355
19   0.131537
20   0.138633
21   0.143074
22   0.123348
23   0.131515
24   0.138721
25   0.095415
26   0.095404
27   0.290285
28   0.290287

>  <lowdin_charges>
28
1   -0.359169
2   -0.358695
3   -0.280579
4   -0.279635
5   -0.278352
6   -0.281886
7   -0.062178
8   -0.062554
9   -0.364344
10   -0.360543
11   0.149503
12   0.117656
13   0.148678
14   0.150848
15   0.117654
16   0.146664
17   0.143838
18   0.140545
19   0.143575
20   0.142756
21   0.143897
22   0.138606
23   0.145546
24   0.142805
25   0.107869
26   0.107887
27   0.251436
28   0.248173

$$$$

