PCCDB-ID:  19041
public computational chemistry database (PCCDB) project, http://pccdb.org

 29 28  0  0  0  0  0  0  0  0999 V2000
    3.5829    0.4171   -0.9074 C   0  0  0  0  0  0  0  0  0  0  0  0
    1.4684    0.8777    0.3917 C   0  0  0  0  0  0  0  0  0  0  0  0
    3.8643   -2.7666    3.6014 C   0  0  0  0  0  0  0  0  0  0  0  0
    3.8406   -4.0176    1.4167 C   0  0  0  0  0  0  0  0  0  0  0  0
    6.0053   -3.1890    2.3713 C   0  0  0  0  0  0  0  0  0  0  0  0
    2.9705   -1.0212    1.1244 C   0  0  0  0  0  0  0  0  0  0  0  0
    4.3879   -1.5282    1.4318 C   0  0  0  0  0  0  0  0  0  0  0  0
    2.9191    0.3795    0.4780 C   0  0  0  0  0  0  0  0  0  0  0  0
    4.5057   -2.8713    2.2039 C   0  0  0  0  0  0  0  0  0  0  0  0
    3.5061    1.4167   -1.3517 H   0  0  0  0  0  0  0  0  0  0  0  0
    3.0936   -0.2883   -1.5925 H   0  0  0  0  0  0  0  0  0  0  0  0
    4.6456    0.1561   -0.8634 H   0  0  0  0  0  0  0  0  0  0  0  0
    1.4194    1.8911   -0.0242 H   0  0  0  0  0  0  0  0  0  0  0  0
    0.9925    0.8963    1.3797 H   0  0  0  0  0  0  0  0  0  0  0  0
    0.8669    0.2247   -0.2545 H   0  0  0  0  0  0  0  0  0  0  0  0
    4.0128   -3.6954    4.1660 H   0  0  0  0  0  0  0  0  0  0  0  0
    2.7850   -2.5874    3.5452 H   0  0  0  0  0  0  0  0  0  0  0  0
    4.3107   -1.9494    4.1821 H   0  0  0  0  0  0  0  0  0  0  0  0
    3.9981   -4.9782    1.9226 H   0  0  0  0  0  0  0  0  0  0  0  0
    4.2609   -4.1002    0.4064 H   0  0  0  0  0  0  0  0  0  0  0  0
    2.7591   -3.8718    1.3187 H   0  0  0  0  0  0  0  0  0  0  0  0
    6.1510   -4.1317    2.9132 H   0  0  0  0  0  0  0  0  0  0  0  0
    6.5181   -2.3981    2.9330 H   0  0  0  0  0  0  0  0  0  0  0  0
    6.5021   -3.2825    1.3975 H   0  0  0  0  0  0  0  0  0  0  0  0
    2.3858   -0.9860    2.0534 H   0  0  0  0  0  0  0  0  0  0  0  0
    2.4512   -1.7298    0.4630 H   0  0  0  0  0  0  0  0  0  0  0  0
    4.9183   -0.7564    2.0104 H   0  0  0  0  0  0  0  0  0  0  0  0
    4.9454   -1.6363    0.4912 H   0  0  0  0  0  0  0  0  0  0  0  0
    3.4710    1.0692    1.1359 H   0  0  0  0  0  0  0  0  0  0  0  0
  1 12  1  0  0  0  0
  1  8  1  0  0  0  0
  2  8  1  0  0  0  0
  2 14  1  0  0  0  0
  3 16  1  0  0  0  0
  3 18  1  0  0  0  0
  4 19  1  0  0  0  0
  4  9  1  0  0  0  0
  5 22  1  0  0  0  0
  5 23  1  0  0  0  0
  6  7  1  0  0  0  0
  6 25  1  0  0  0  0
  7 27  1  0  0  0  0
  7  9  1  0  0  0  0
  8  6  1  0  0  0  0
  8 29  1  0  0  0  0
  9  5  1  0  0  0  0
  9  3  1  0  0  0  0
 10  1  1  0  0  0  0
 11  1  1  0  0  0  0
 13  2  1  0  0  0  0
 15  2  1  0  0  0  0
 17  3  1  0  0  0  0
 20  4  1  0  0  0  0
 21  4  1  0  0  0  0
 24  5  1  0  0  0  0
 26  6  1  0  0  0  0
 28  7  1  0  0  0  0
M  END
>  <HBA>
0

>  <HBD>
0

>  <TPSA>
0.0

>  <cid>
19041

>  <dipole>
0.05

>  <excitation_energy_1>
7.496

>  <excitation_energy_2>
7.705

>  <excitation_energy_3>
7.868

>  <excitation_energy_4>
7.894

>  <homo_energy>
-7.992

>  <homo_lumo_gap>
10.093

>  <logP>
3.469

>  <lumo_energy>
2.101

>  <melting_point>
-9.87

>  <molecular_refractivity>
45.12

>  <oscillator_strength_1>
0.0045

>  <oscillator_strength_2>
0.0109

>  <oscillator_strength_3>
0.0738

>  <oscillator_strength_4>
0.0574

>  <open_babel_can_smiles>
CC(CCC(C)(C)C)C

>  <mulliken_charges>
29
1   -0.444844
2   -0.442307
3   -0.445113
4   -0.444931
5   -0.440749
6   -0.257995
7   -0.254362
8   -0.065233
9   0.101906
10   0.138758
11   0.136762
12   0.145173
13   0.13836
14   0.138353
15   0.137524
16   0.136592
17   0.142032
18   0.135748
19   0.136304
20   0.135875
21   0.142314
22   0.135846
23   0.136331
24   0.136163
25   0.128429
26   0.127051
27   0.120412
28   0.126789
29   0.11881

>  <lowdin_charges>
29
1   -0.446432
2   -0.444804
3   -0.444036
4   -0.441426
5   -0.442865
6   -0.281545
7   -0.27776
8   -0.120374
9   0.015338
10   0.14719
11   0.14571
12   0.147102
13   0.146177
14   0.146009
15   0.146143
16   0.146894
17   0.145081
18   0.146632
19   0.146337
20   0.144945
21   0.145608
22   0.145515
23   0.146739
24   0.145178
25   0.140525
26   0.139638
27   0.13816
28   0.13936
29   0.13496

$$$$

