PCCDB-ID:  70957
public computational chemistry database (PCCDB) project, http://pccdb.org

 19 19  0  0  0  0  0  0  0  0999 V2000
   -1.4210   -0.8014   -0.0901 C   0  0  0  0  0  0  0  0  0  0  0  0
   -0.2147   -1.4962   -0.0291 C   0  0  0  0  0  0  0  0  0  0  0  0
   -1.4055    0.5918   -0.0604 C   0  0  0  0  0  0  0  0  0  0  0  0
    2.3320   -1.4353    0.1838 C   0  0  0  0  0  0  0  0  0  0  0  0
   -0.0521    2.7593    0.0177 C   0  0  0  0  0  0  0  0  0  0  0  0
    0.9729   -0.7672    0.0629 C   0  0  0  0  0  0  0  0  0  0  0  0
   -0.1743    1.2449    0.0266 C   0  0  0  0  0  0  0  0  0  0  0  0
    0.9845    0.5733    0.0882 N   0  0  0  0  0  0  0  0  0  0  0  0
    3.3769   -0.6315   -0.3140 O   0  0  0  0  0  0  0  0  0  0  0  0
    1.1025    3.2129    0.6865 O   0  0  0  0  0  0  0  0  0  0  0  0
   -2.3626   -1.3394   -0.1599 H   0  0  0  0  0  0  0  0  0  0  0  0
   -0.1896   -2.5818   -0.0573 H   0  0  0  0  0  0  0  0  0  0  0  0
   -2.3274    1.1648   -0.0987 H   0  0  0  0  0  0  0  0  0  0  0  0
    2.3346   -2.3813   -0.3703 H   0  0  0  0  0  0  0  0  0  0  0  0
    2.4974   -1.6878    1.2477 H   0  0  0  0  0  0  0  0  0  0  0  0
   -0.9272    3.2081    0.5023 H   0  0  0  0  0  0  0  0  0  0  0  0
   -0.0605    3.0987   -1.0347 H   0  0  0  0  0  0  0  0  0  0  0  0
    3.0822    0.2865   -0.1772 H   0  0  0  0  0  0  0  0  0  0  0  0
    1.7567    2.4989    0.5818 H   0  0  0  0  0  0  0  0  0  0  0  0
  1  3  2  0  0  0  0
  1  2  1  0  0  0  0
  2  6  2  0  0  0  0
  3  7  1  0  0  0  0
  4 15  1  0  0  0  0
  5  7  1  0  0  0  0
  5 16  1  0  0  0  0
  5 10  1  0  0  0  0
  6  8  1  0  0  0  0
  6  4  1  0  0  0  0
  7  8  2  0  0  0  0
  9 18  1  0  0  0  0
  9  4  1  0  0  0  0
 11  1  1  0  0  0  0
 12  2  1  0  0  0  0
 13  3  1  0  0  0  0
 14  4  1  0  0  0  0
 17  5  1  0  0  0  0
 19 10  1  0  0  0  0
M  END
>  <HBA>
3

>  <HBD>
2

>  <TPSA>
53.35

>  <cid>
70957

>  <dipole>
4.16

>  <excitation_energy_1>
5.01

>  <excitation_energy_2>
5.371

>  <excitation_energy_3>
5.377

>  <excitation_energy_4>
5.438

>  <homo_energy>
-6.885

>  <homo_lumo_gap>
5.796

>  <logP>
0.066

>  <lumo_energy>
-1.088

>  <melting_point>
64.73

>  <molecular_refractivity>
36.49

>  <oscillator_strength_1>
0.0672

>  <oscillator_strength_2>
0.0227

>  <oscillator_strength_3>
0.0129

>  <oscillator_strength_4>
0.0102

>  <open_babel_can_smiles>
OCc1cccc(n1)CO

>  <mulliken_charges>
19
1   -0.094389
2   -0.174512
3   -0.174422
4   -0.065329
5   -0.064968
6   0.293846
7   0.293577
8   -0.599421
9   -0.622072
10   -0.622232
11   0.150817
12   0.142698
13   0.142679
14   0.150042
15   0.144357
16   0.149827
17   0.144383
18   0.402551
19   0.402567

>  <lowdin_charges>
19
1   -0.115397
2   -0.179201
3   -0.182782
4   -0.133191
5   -0.134011
6   0.045497
7   0.046675
8   -0.182629
9   -0.46276
10   -0.465049
11   0.167682
12   0.165152
13   0.167561
14   0.151148
15   0.140392
16   0.151843
17   0.140494
18   0.338548
19   0.340029

$$$$

