PCCDB-ID:  11742
public computational chemistry database (PCCDB) project, http://pccdb.org

 32 33  0  0  0  0  0  0  0  0999 V2000
    1.2867   -0.1294    0.5322 C   0  0  0  0  0  0  0  0  0  0  0  0
    3.5468   -0.8334   -0.2521 C   0  0  0  0  0  0  0  0  0  0  0  0
    1.9408    1.6739   -4.2923 C   0  0  0  0  0  0  0  0  0  0  0  0
    3.1598    1.8933   -3.6454 C   0  0  0  0  0  0  0  0  0  0  0  0
    0.9089    1.0439   -3.6008 C   0  0  0  0  0  0  0  0  0  0  0  0
    3.3358    1.4857   -2.3255 C   0  0  0  0  0  0  0  0  0  0  0  0
    1.0915    0.6335   -2.2762 C   0  0  0  0  0  0  0  0  0  0  0  0
    4.3055    1.4208    1.4391 C   0  0  0  0  0  0  0  0  0  0  0  0
    2.4588    2.7560    0.7068 C   0  0  0  0  0  0  0  0  0  0  0  0
    4.7648    2.4839    2.2228 C   0  0  0  0  0  0  0  0  0  0  0  0
    2.8991    3.8218    1.4811 C   0  0  0  0  0  0  0  0  0  0  0  0
    2.3070    0.8454   -1.6135 C   0  0  0  0  0  0  0  0  0  0  0  0
    3.1455    1.5286    0.6660 C   0  0  0  0  0  0  0  0  0  0  0  0
    4.0620    3.6883    2.2487 C   0  0  0  0  0  0  0  0  0  0  0  0
    2.5730    0.3668   -0.1707 C   0  0  0  0  0  0  0  0  0  0  0  0
    4.4566    4.7673    2.9937 O   0  0  0  0  0  0  0  0  0  0  0  0
    0.8629   -1.0042    0.0255 H   0  0  0  0  0  0  0  0  0  0  0  0
    0.5181    0.6489    0.5753 H   0  0  0  0  0  0  0  0  0  0  0  0
    1.5228   -0.4216    1.5606 H   0  0  0  0  0  0  0  0  0  0  0  0
    3.1152   -1.6133   -0.8879 H   0  0  0  0  0  0  0  0  0  0  0  0
    3.7257   -1.2702    0.7373 H   0  0  0  0  0  0  0  0  0  0  0  0
    4.5120   -0.5491   -0.6834 H   0  0  0  0  0  0  0  0  0  0  0  0
    1.7985    1.9947   -5.3208 H   0  0  0  0  0  0  0  0  0  0  0  0
    3.9736    2.3899   -4.1678 H   0  0  0  0  0  0  0  0  0  0  0  0
   -0.0474    0.8686   -4.0873 H   0  0  0  0  0  0  0  0  0  0  0  0
    4.2835    1.6796   -1.8301 H   0  0  0  0  0  0  0  0  0  0  0  0
    0.2671    0.1467   -1.7660 H   0  0  0  0  0  0  0  0  0  0  0  0
    4.8786    0.4999    1.4437 H   0  0  0  0  0  0  0  0  0  0  0  0
    1.5625    2.8834    0.1054 H   0  0  0  0  0  0  0  0  0  0  0  0
    5.6738    2.3696    2.8116 H   0  0  0  0  0  0  0  0  0  0  0  0
    2.3613    4.7646    1.4990 H   0  0  0  0  0  0  0  0  0  0  0  0
    5.2699    4.5379    3.4695 H   0  0  0  0  0  0  0  0  0  0  0  0
  1 18  1  0  0  0  0
  1 19  1  0  0  0  0
  2 15  1  0  0  0  0
  2 21  1  0  0  0  0
  3  4  2  0  0  0  0
  3  5  1  0  0  0  0
  4  6  1  0  0  0  0
  5  7  2  0  0  0  0
  6 26  1  0  0  0  0
  6 12  2  0  0  0  0
  7 27  1  0  0  0  0
  7 12  1  0  0  0  0
  8 28  1  0  0  0  0
  8 10  2  0  0  0  0
  9 11  1  0  0  0  0
 10 14  1  0  0  0  0
 10 30  1  0  0  0  0
 11 31  1  0  0  0  0
 11 14  2  0  0  0  0
 12 15  1  0  0  0  0
 13  9  2  0  0  0  0
 13  8  1  0  0  0  0
 14 16  1  0  0  0  0
 15  1  1  0  0  0  0
 15 13  1  0  0  0  0
 16 32  1  0  0  0  0
 17  1  1  0  0  0  0
 20  2  1  0  0  0  0
 22  2  1  0  0  0  0
 23  3  1  0  0  0  0
 24  4  1  0  0  0  0
 25  5  1  0  0  0  0
 29  9  1  0  0  0  0
M  END
>  <HBA>
1

>  <HBD>
1

>  <TPSA>
20.23

>  <cid>
11742

>  <dipole>
1.45

>  <excitation_energy_1>
4.886

>  <excitation_energy_2>
5.054

>  <excitation_energy_3>
5.115

>  <excitation_energy_4>
5.166

>  <homo_energy>
-5.744

>  <homo_lumo_gap>
5.714

>  <logP>
3.718

>  <lumo_energy>
-0.03

>  <melting_point>
84.14

>  <molecular_refractivity>
67.42

>  <oscillator_strength_1>
0.0392

>  <oscillator_strength_2>
0.0004

>  <oscillator_strength_3>
0.0082

>  <oscillator_strength_4>
0.0305

>  <open_babel_can_smiles>
Oc1ccc(cc1)C(c1ccccc1)(C)C

>  <mulliken_charges>
32
1   -0.454835
2   -0.455272
3   -0.12965
4   -0.131646
5   -0.129868
6   -0.176921
7   -0.198649
8   -0.205372
9   -0.184392
10   -0.197442
11   -0.16085
12   0.162379
13   0.160698
14   0.352223
15   -0.0504
16   -0.645284
17   0.143057
18   0.150547
19   0.149744
20   0.151139
21   0.14285
22   0.150016
23   0.12592
24   0.127187
25   0.125739
26   0.132135
27   0.125044
28   0.126746
29   0.13594
30   0.114632
31   0.138569
32   0.406019

>  <lowdin_charges>
32
1   -0.441067
2   -0.44032
3   -0.160004
4   -0.157209
5   -0.157281
6   -0.160927
7   -0.177656
8   -0.164462
9   -0.146939
10   -0.216406
11   -0.184339
12   -0.000739
13   -0.022294
14   0.099176
15   0.017075
16   -0.380497
17   0.148194
18   0.15289
19   0.154124
20   0.156728
21   0.147196
22   0.15182
23   0.154886
24   0.157511
25   0.155525
26   0.159447
27   0.159201
28   0.159627
29   0.161784
30   0.151251
31   0.166685
32   0.357023

$$$$

