PCCDB-ID:  34350
public computational chemistry database (PCCDB) project, http://pccdb.org

 29 30  0  0  0  0  0  0  0  0999 V2000
   -1.5220    0.6835   -0.0072 C   0  0  0  0  0  0  0  0  0  0  0  0
   -0.2826    1.3448   -0.6349 C   0  0  0  0  0  0  0  0  0  0  0  0
   -1.4584   -0.8444    0.1412 C   0  0  0  0  0  0  0  0  0  0  0  0
    0.9707    1.2333    0.2544 C   0  0  0  0  0  0  0  0  0  0  0  0
   -0.1604   -1.3852    0.7602 C   0  0  0  0  0  0  0  0  0  0  0  0
    1.7941   -0.0575    0.0828 C   0  0  0  0  0  0  0  0  0  0  0  0
    3.0312   -2.3101   -1.1409 C   0  0  0  0  0  0  0  0  0  0  0  0
    0.9196   -3.5661   -1.0447 C   0  0  0  0  0  0  0  0  0  0  0  0
    1.7522   -2.4980   -0.3046 C   0  0  0  0  0  0  0  0  0  0  0  0
    0.9819   -1.2551   -0.1653 N   0  0  0  0  0  0  0  0  0  0  0  0
    3.7734   -3.9526   -1.5218 S   0  0  0  0  0  0  0  0  0  0  0  0
    1.9475   -5.0652   -1.2746 S   0  0  0  0  0  0  0  0  0  0  0  0
   -2.4107    0.9404   -0.5988 H   0  0  0  0  0  0  0  0  0  0  0  0
   -1.6788    1.1327    0.9850 H   0  0  0  0  0  0  0  0  0  0  0  0
   -0.5077    2.4076   -0.7915 H   0  0  0  0  0  0  0  0  0  0  0  0
   -0.0822    0.9172   -1.6257 H   0  0  0  0  0  0  0  0  0  0  0  0
   -1.5721   -1.3171   -0.8428 H   0  0  0  0  0  0  0  0  0  0  0  0
   -2.3099   -1.1745    0.7530 H   0  0  0  0  0  0  0  0  0  0  0  0
    0.6671    1.3515    1.3027 H   0  0  0  0  0  0  0  0  0  0  0  0
    1.6513    2.0695    0.0504 H   0  0  0  0  0  0  0  0  0  0  0  0
   -0.3018   -2.4423    1.0056 H   0  0  0  0  0  0  0  0  0  0  0  0
    0.0499   -0.8891    1.7219 H   0  0  0  0  0  0  0  0  0  0  0  0
    2.4486   -0.1756    0.9700 H   0  0  0  0  0  0  0  0  0  0  0  0
    2.4536    0.0790   -0.7797 H   0  0  0  0  0  0  0  0  0  0  0  0
    3.7980   -1.7474   -0.6040 H   0  0  0  0  0  0  0  0  0  0  0  0
    2.7932   -1.7940   -2.0760 H   0  0  0  0  0  0  0  0  0  0  0  0
    0.5882   -3.1661   -2.0077 H   0  0  0  0  0  0  0  0  0  0  0  0
    0.0432   -3.8875   -0.4763 H   0  0  0  0  0  0  0  0  0  0  0  0
    2.0514   -2.9102    0.6770 H   0  0  0  0  0  0  0  0  0  0  0  0
  1  3  1  0  0  0  0
  1 14  1  0  0  0  0
  2  1  1  0  0  0  0
  2  4  1  0  0  0  0
  3 18  1  0  0  0  0
  3  5  1  0  0  0  0
  4 19  1  0  0  0  0
  5 21  1  0  0  0  0
  5 22  1  0  0  0  0
  6  4  1  0  0  0  0
  6 23  1  0  0  0  0
  7 25  1  0  0  0  0
  7  9  1  0  0  0  0
  8 28  1  0  0  0  0
  8  9  1  0  0  0  0
  9 10  1  0  0  0  0
  9 29  1  0  0  0  0
 10  6  1  0  0  0  0
 10  5  1  0  0  0  0
 11 12  1  0  0  0  0
 11  7  1  0  0  0  0
 12  8  1  0  0  0  0
 13  1  1  0  0  0  0
 15  2  1  0  0  0  0
 16  2  1  0  0  0  0
 17  3  1  0  0  0  0
 20  4  1  0  0  0  0
 24  6  1  0  0  0  0
 26  7  1  0  0  0  0
 27  8  1  0  0  0  0
M  END
>  <HBA>
3

>  <HBD>
0

>  <TPSA>
53.84

>  <cid>
34350

>  <dipole>
3.77

>  <excitation_energy_1>
2.932

>  <excitation_energy_2>
4.142

>  <excitation_energy_3>
4.181

>  <excitation_energy_4>
4.824

>  <homo_energy>
-5.336

>  <homo_lumo_gap>
4.256

>  <logP>
2.564

>  <lumo_energy>
-1.08

>  <melting_point>
37.18

>  <molecular_refractivity>
63.14

>  <oscillator_strength_1>
0.0012

>  <oscillator_strength_2>
0.002

>  <oscillator_strength_3>
0.0001

>  <oscillator_strength_4>
0.0001

>  <open_babel_can_smiles>
C1CCCN(CC1)C1CSSC1

>  <mulliken_charges>
29
1   -0.262888
2   -0.246321
3   -0.237702
4   -0.291161
5   -0.148306
6   -0.117294
7   -0.445749
8   -0.427417
9   0.047193
10   -0.402119
11   0.011656
12   0.01695
13   0.132959
14   0.127742
15   0.130997
16   0.142238
17   0.137474
18   0.125939
19   0.138016
20   0.140005
21   0.138656
22   0.131217
23   0.114239
24   0.142983
25   0.194019
26   0.188884
27   0.187084
28   0.187301
29   0.143404

>  <lowdin_charges>
29
1   -0.276433
2   -0.275815
3   -0.282385
4   -0.287158
5   -0.200402
6   -0.203022
7   -0.382259
8   -0.382764
9   -0.066451
10   -0.195704
11   0.018067
12   0.023623
13   0.145298
14   0.135959
15   0.143259
16   0.146205
17   0.143656
18   0.143049
19   0.139453
20   0.15183
21   0.145422
22   0.134098
23   0.119842
24   0.145432
25   0.177633
26   0.16437
27   0.164541
28   0.174685
29   0.135973

$$$$

