PCCDB-ID:  12217
public computational chemistry database (PCCDB) project, http://pccdb.org

 26 25  0  0  0  0  0  0  0  0999 V2000
    0.7891    0.2111   -0.4759 C   0  0  0  0  0  0  0  0  0  0  0  0
    9.1472   -1.9266    3.0203 C   0  0  0  0  0  0  0  0  0  0  0  0
    2.3106    0.0432   -0.4168 C   0  0  0  0  0  0  0  0  0  0  0  0
    8.4923   -0.5918    2.6713 C   0  0  0  0  0  0  0  0  0  0  0  0
    2.9067    0.4208    0.9455 C   0  0  0  0  0  0  0  0  0  0  0  0
    4.4295    0.2419    1.0087 C   0  0  0  0  0  0  0  0  0  0  0  0
    4.9993    0.6377    2.3669 C   0  0  0  0  0  0  0  0  0  0  0  0
    6.9763   -0.6557    2.6923 C   0  0  0  0  0  0  0  0  0  0  0  0
    6.3196   -1.6420    2.9505 O   0  0  0  0  0  0  0  0  0  0  0  0
    6.4434    0.5507    2.3855 O   0  0  0  0  0  0  0  0  0  0  0  0
    0.3950   -0.0670   -1.4600 H   0  0  0  0  0  0  0  0  0  0  0  0
    0.4961    1.2502   -0.2814 H   0  0  0  0  0  0  0  0  0  0  0  0
    0.2915   -0.4183    0.2720 H   0  0  0  0  0  0  0  0  0  0  0  0
   10.2380   -1.8373    2.9878 H   0  0  0  0  0  0  0  0  0  0  0  0
    8.8428   -2.7083    2.3182 H   0  0  0  0  0  0  0  0  0  0  0  0
    8.8573   -2.2564    4.0224 H   0  0  0  0  0  0  0  0  0  0  0  0
    2.7784    0.6575   -1.1991 H   0  0  0  0  0  0  0  0  0  0  0  0
    2.5741   -0.9980   -0.6497 H   0  0  0  0  0  0  0  0  0  0  0  0
    8.7975   -0.2441    1.6758 H   0  0  0  0  0  0  0  0  0  0  0  0
    8.8023    0.2011    3.3642 H   0  0  0  0  0  0  0  0  0  0  0  0
    2.4342   -0.1902    1.7285 H   0  0  0  0  0  0  0  0  0  0  0  0
    2.6484    1.4654    1.1758 H   0  0  0  0  0  0  0  0  0  0  0  0
    4.9117    0.8486    0.2305 H   0  0  0  0  0  0  0  0  0  0  0  0
    4.6891   -0.8050    0.8105 H   0  0  0  0  0  0  0  0  0  0  0  0
    4.5964    0.0034    3.1612 H   0  0  0  0  0  0  0  0  0  0  0  0
    4.7844    1.6853    2.5969 H   0  0  0  0  0  0  0  0  0  0  0  0
  1  3  1  0  0  0  0
  1 12  1  0  0  0  0
  1 13  1  0  0  0  0
  2 16  1  0  0  0  0
  3  5  1  0  0  0  0
  4  8  1  0  0  0  0
  4  2  1  0  0  0  0
  4 20  1  0  0  0  0
  5  6  1  0  0  0  0
  5 22  1  0  0  0  0
  5 21  1  0  0  0  0
  6  7  1  0  0  0  0
  7 10  1  0  0  0  0
  7 26  1  0  0  0  0
  7 25  1  0  0  0  0
  8  9  2  0  0  0  0
 10  8  1  0  0  0  0
 11  1  1  0  0  0  0
 14  2  1  0  0  0  0
 15  2  1  0  0  0  0
 17  3  1  0  0  0  0
 18  3  1  0  0  0  0
 19  4  1  0  0  0  0
 23  6  1  0  0  0  0
 24  6  1  0  0  0  0
M  END
>  <HBA>
2

>  <HBD>
0

>  <TPSA>
26.3

>  <cid>
12217

>  <dipole>
1.61

>  <excitation_energy_1>
5.845

>  <excitation_energy_2>
6.976

>  <excitation_energy_3>
7.427

>  <excitation_energy_4>
7.51

>  <homo_energy>
-7.263

>  <homo_lumo_gap>
7.753

>  <logP>
2.13

>  <lumo_energy>
0.49

>  <melting_point>
-15.45

>  <molecular_refractivity>
41.85

>  <oscillator_strength_1>
0.0007

>  <oscillator_strength_2>
0.0241

>  <oscillator_strength_3>
0.0587

>  <oscillator_strength_4>
0.0163

>  <open_babel_can_smiles>
CCCCCOC(=O)CC

>  <mulliken_charges>
26
1   -0.442607
2   -0.434971
3   -0.246922
4   -0.352511
5   -0.257652
6   -0.278071
7   -0.044062
8   0.621933
9   -0.479217
10   -0.468827
11   0.143907
12   0.141599
13   0.143652
14   0.14192
15   0.161679
16   0.161795
17   0.132069
18   0.135951
19   0.171484
20   0.171795
21   0.136677
22   0.128314
23   0.140284
24   0.158751
25   0.166056
26   0.146975

>  <lowdin_charges>
26
1   -0.444475
2   -0.437771
3   -0.270511
4   -0.300498
5   -0.274173
6   -0.287018
7   -0.130696
8   0.198741
9   -0.270176
10   -0.199877
11   0.150263
12   0.145356
13   0.148677
14   0.149359
15   0.159945
16   0.158527
17   0.140897
18   0.140592
19   0.167736
20   0.169173
21   0.143105
22   0.136616
23   0.146518
24   0.153579
25   0.157751
26   0.148359

$$$$

