PCCDB-ID:  7894
public computational chemistry database (PCCDB) project, http://pccdb.org

 19 18  0  0  0  0  0  0  0  0999 V2000
    0.8047   -0.5022   -0.4181 C   0  0  0  0  0  0  0  0  0  0  0  0
    2.5598    0.5778   -1.8757 C   0  0  0  0  0  0  0  0  0  0  0  0
    2.5075    1.1179    0.5926 C   0  0  0  0  0  0  0  0  0  0  0  0
    2.4039    0.6381    2.0432 C   0  0  0  0  0  0  0  0  0  0  0  0
    2.2427    0.0374   -0.4731 C   0  0  0  0  0  0  0  0  0  0  0  0
    2.7203    1.7371    2.9647 N   0  0  0  0  0  0  0  0  0  0  0  0
    0.6414   -1.2607   -1.1929 H   0  0  0  0  0  0  0  0  0  0  0  0
    0.0795    0.3052   -0.5853 H   0  0  0  0  0  0  0  0  0  0  0  0
    0.5719   -0.9639    0.5476 H   0  0  0  0  0  0  0  0  0  0  0  0
    2.4036   -0.1900   -2.6428 H   0  0  0  0  0  0  0  0  0  0  0  0
    3.5998    0.9182   -1.9479 H   0  0  0  0  0  0  0  0  0  0  0  0
    1.9134    1.4302   -2.1225 H   0  0  0  0  0  0  0  0  0  0  0  0
    3.5187    1.5241    0.4350 H   0  0  0  0  0  0  0  0  0  0  0  0
    1.8157    1.9598    0.4531 H   0  0  0  0  0  0  0  0  0  0  0  0
    3.0453   -0.2548    2.1736 H   0  0  0  0  0  0  0  0  0  0  0  0
    1.3777    0.3184    2.2597 H   0  0  0  0  0  0  0  0  0  0  0  0
    2.9262   -0.8038   -0.2768 H   0  0  0  0  0  0  0  0  0  0  0  0
    3.7041    1.9877    2.8682 H   0  0  0  0  0  0  0  0  0  0  0  0
    2.6052    1.4238    3.9275 H   0  0  0  0  0  0  0  0  0  0  0  0
  1  9  1  0  0  0  0
  2  5  1  0  0  0  0
  3  4  1  0  0  0  0
  4 15  1  0  0  0  0
  4 16  1  0  0  0  0
  4  6  1  0  0  0  0
  5  1  1  0  0  0  0
  5 17  1  0  0  0  0
  5  3  1  0  0  0  0
  6 19  1  0  0  0  0
  7  1  1  0  0  0  0
  8  1  1  0  0  0  0
 10  2  1  0  0  0  0
 11  2  1  0  0  0  0
 12  2  1  0  0  0  0
 13  3  1  0  0  0  0
 14  3  1  0  0  0  0
 18  6  1  0  0  0  0
M  END
>  <HBA>
1

>  <HBD>
1

>  <TPSA>
26.02

>  <cid>
7894

>  <dipole>
1.4

>  <excitation_energy_1>
5.567

>  <excitation_energy_2>
6.358

>  <excitation_energy_3>
6.41

>  <excitation_energy_4>
6.706

>  <homo_energy>
-6.215

>  <homo_lumo_gap>
8.498

>  <logP>
1.692

>  <lumo_energy>
2.283

>  <melting_point>
28.35

>  <molecular_refractivity>
28.86

>  <oscillator_strength_1>
0.0115

>  <oscillator_strength_2>
0.0136

>  <oscillator_strength_3>
0.0085

>  <oscillator_strength_4>
0.0342

>  <open_babel_can_smiles>
NCCC(C)C

>  <mulliken_charges>
19
1   -0.444806
2   -0.441105
3   -0.237777
4   -0.139497
5   -0.068816
6   -0.716768
7   0.138949
8   0.140642
9   0.143061
10   0.138142
11   0.13828
12   0.140149
13   0.117911
14   0.141591
15   0.107877
16   0.140946
17   0.117654
18   0.28996
19   0.293606

>  <lowdin_charges>
19
1   -0.448017
2   -0.443804
3   -0.27906
4   -0.205796
5   -0.121142
6   -0.555199
7   0.148468
8   0.147189
9   0.147465
10   0.147471
11   0.145438
12   0.146748
13   0.135015
14   0.147199
15   0.114086
16   0.14064
17   0.1335
18   0.247765
19   0.252035

$$$$

