PCCDB-ID:  33857
public computational chemistry database (PCCDB) project, http://pccdb.org

 28 28  0  0  0  0  0  0  0  0999 V2000
    1.0091   -0.1496    1.7680 C   0  0  0  0  0  0  0  0  0  0  0  0
    8.4608    1.7296   -0.7152 C   0  0  0  0  0  0  0  0  0  0  0  0
    8.1415   -2.5764   -0.8454 C   0  0  0  0  0  0  0  0  0  0  0  0
    3.3982    0.6638    1.9938 C   0  0  0  0  0  0  0  0  0  0  0  0
    2.7478   -0.4163   -0.0556 C   0  0  0  0  0  0  0  0  0  0  0  0
    4.6844    0.8519    1.4955 C   0  0  0  0  0  0  0  0  0  0  0  0
    4.0276   -0.2219   -0.5723 C   0  0  0  0  0  0  0  0  0  0  0  0
    2.4095    0.0267    1.2299 C   0  0  0  0  0  0  0  0  0  0  0  0
    6.9779    1.7909   -0.4049 C   0  0  0  0  0  0  0  0  0  0  0  0
    7.2664   -1.4030   -1.2151 C   0  0  0  0  0  0  0  0  0  0  0  0
    4.9991    0.4088    0.2077 C   0  0  0  0  0  0  0  0  0  0  0  0
    6.3180    0.5690   -0.3237 N   0  0  0  0  0  0  0  0  0  0  0  0
    6.3554    2.8311   -0.2815 O   0  0  0  0  0  0  0  0  0  0  0  0
    6.7401   -1.2015   -2.2769 O   0  0  0  0  0  0  0  0  0  0  0  0
    7.1568   -0.5723   -0.1150 O   0  0  0  0  0  0  0  0  0  0  0  0
    1.0068   -0.2425    2.8592 H   0  0  0  0  0  0  0  0  0  0  0  0
    0.5278   -1.0401    1.3501 H   0  0  0  0  0  0  0  0  0  0  0  0
    0.3770    0.7116    1.5134 H   0  0  0  0  0  0  0  0  0  0  0  0
    8.6436    1.1858   -1.6481 H   0  0  0  0  0  0  0  0  0  0  0  0
    9.0138    1.2235    0.0826 H   0  0  0  0  0  0  0  0  0  0  0  0
    8.8188    2.7549   -0.8161 H   0  0  0  0  0  0  0  0  0  0  0  0
    8.2527   -3.2252   -1.7146 H   0  0  0  0  0  0  0  0  0  0  0  0
    7.6897   -3.1343   -0.0189 H   0  0  0  0  0  0  0  0  0  0  0  0
    9.1238   -2.2292   -0.5095 H   0  0  0  0  0  0  0  0  0  0  0  0
    3.1575    1.0140    2.9948 H   0  0  0  0  0  0  0  0  0  0  0  0
    1.9966   -0.9128   -0.6654 H   0  0  0  0  0  0  0  0  0  0  0  0
    5.4412    1.3490    2.0936 H   0  0  0  0  0  0  0  0  0  0  0  0
    4.2874   -0.5520   -1.5724 H   0  0  0  0  0  0  0  0  0  0  0  0
  1 16  1  0  0  0  0
  2  9  1  0  0  0  0
  2 20  1  0  0  0  0
  3 24  1  0  0  0  0
  3 23  1  0  0  0  0
  4 25  1  0  0  0  0
  5  8  1  0  0  0  0
  6  4  1  0  0  0  0
  6 27  1  0  0  0  0
  7  5  2  0  0  0  0
  7 11  1  0  0  0  0
  8  1  1  0  0  0  0
  8  4  2  0  0  0  0
  9 12  1  0  0  0  0
  9 13  2  0  0  0  0
 10  3  1  0  0  0  0
 10 15  1  0  0  0  0
 11  6  2  0  0  0  0
 12 15  1  0  0  0  0
 12 11  1  0  0  0  0
 14 10  2  0  0  0  0
 17  1  1  0  0  0  0
 18  1  1  0  0  0  0
 19  2  1  0  0  0  0
 21  2  1  0  0  0  0
 22  3  1  0  0  0  0
 26  5  1  0  0  0  0
 28  7  1  0  0  0  0
M  END
>  <HBA>
4

>  <HBD>
0

>  <TPSA>
46.61

>  <cid>
33857

>  <dipole>
4.02

>  <excitation_energy_1>
5.085

>  <excitation_energy_2>
5.152

>  <excitation_energy_3>
5.385

>  <excitation_energy_4>
5.391

>  <homo_energy>
-6.433

>  <homo_lumo_gap>
5.908

>  <logP>
1.826

>  <lumo_energy>
-0.525

>  <melting_point>
52.35

>  <molecular_refractivity>
56.71

>  <oscillator_strength_1>
0.0349

>  <oscillator_strength_2>
0.061

>  <oscillator_strength_3>
0.0029

>  <oscillator_strength_4>
0.0054

>  <open_babel_can_smiles>
CC(=O)ON(c1ccc(cc1)C)C(=O)C

>  <mulliken_charges>
28
1   -0.531424
2   -0.54212
3   -0.53025
4   -0.200167
5   -0.194821
6   -0.105326
7   -0.14278
8   0.190715
9   0.576051
10   0.624623
11   0.274148
12   -0.298432
13   -0.475224
14   -0.435368
15   -0.388033
16   0.158753
17   0.15904
18   0.172265
19   0.181092
20   0.175265
21   0.185998
22   0.192512
23   0.194496
24   0.188499
25   0.129055
26   0.129405
27   0.144501
28   0.167529

>  <lowdin_charges>
28
1   -0.441562
2   -0.473883
3   -0.465943
4   -0.163935
5   -0.167348
6   -0.140444
7   -0.147566
8   0.0113
9   0.170478
10   0.204082
11   0.031501
12   0.013982
13   -0.276059
14   -0.227921
15   -0.149237
16   0.157332
17   0.159982
18   0.166441
19   0.174963
20   0.173092
21   0.177556
22   0.182245
23   0.185644
24   0.181196
25   0.157414
26   0.159568
27   0.170053
28   0.177069

$$$$

