PCCDB-ID:  8880
public computational chemistry database (PCCDB) project, http://pccdb.org

 16 15  0  0  0  0  0  0  0  0999 V2000
    4.6208    1.1013   -0.8619 C   0  0  0  0  0  0  0  0  0  0  0  0
    2.3154    2.5505    0.1821 C   0  0  0  0  0  0  0  0  0  0  0  0
    1.4633    3.4774    1.0554 C   0  0  0  0  0  0  0  0  0  0  0  0
    4.5820    2.5750   -0.5024 C   0  0  0  0  0  0  0  0  0  0  0  0
    3.5888    3.2164   -0.0489 N   0  0  0  0  0  0  0  0  0  0  0  0
    1.3758    4.7647    0.4792 O   0  0  0  0  0  0  0  0  0  0  0  0
    5.7320    3.2845   -0.6965 O   0  0  0  0  0  0  0  0  0  0  0  0
    4.3514    0.4892    0.0057 H   0  0  0  0  0  0  0  0  0  0  0  0
    5.6051    0.7743   -1.2122 H   0  0  0  0  0  0  0  0  0  0  0  0
    3.8904    0.8858   -1.6498 H   0  0  0  0  0  0  0  0  0  0  0  0
    1.7967    2.3930   -0.7761 H   0  0  0  0  0  0  0  0  0  0  0  0
    2.4191    1.5663    0.6681 H   0  0  0  0  0  0  0  0  0  0  0  0
    1.9014    3.5178    2.0674 H   0  0  0  0  0  0  0  0  0  0  0  0
    0.4433    3.0877    1.1457 H   0  0  0  0  0  0  0  0  0  0  0  0
    2.2952    4.9804    0.2348 H   0  0  0  0  0  0  0  0  0  0  0  0
    6.4192    2.6978   -1.0438 H   0  0  0  0  0  0  0  0  0  0  0  0
  1  4  1  0  0  0  0
  1  8  1  0  0  0  0
  2 12  1  0  0  0  0
  2  3  1  0  0  0  0
  3 14  1  0  0  0  0
  3 13  1  0  0  0  0
  4  5  2  0  0  0  0
  5  2  1  0  0  0  0
  6  3  1  0  0  0  0
  7  4  1  0  0  0  0
  9  1  1  0  0  0  0
 10  1  1  0  0  0  0
 11  2  1  0  0  0  0
 15  6  1  0  0  0  0
 16  7  1  0  0  0  0
M  END
>  <HBA>
3

>  <HBD>
2

>  <TPSA>
49.33

>  <cid>
8880

>  <dipole>
5.46

>  <excitation_energy_1>
5.799

>  <excitation_energy_2>
5.854

>  <excitation_energy_3>
6.029

>  <excitation_energy_4>
6.359

>  <homo_energy>
-6.563

>  <homo_lumo_gap>
6.963

>  <logP>
-0.494

>  <lumo_energy>
0.4

>  <melting_point>
41.95

>  <molecular_refractivity>
25.51

>  <oscillator_strength_1>
0.0011

>  <oscillator_strength_2>
0.0035

>  <oscillator_strength_3>
0.0029

>  <oscillator_strength_4>
0.0059

>  <open_babel_can_smiles>
OCC/N=C(/O)\C

>  <mulliken_charges>
16
1   -0.540881
2   -0.159793
3   -0.011153
4   0.479943
5   -0.428939
6   -0.629713
7   -0.570714
8   0.19172
9   0.148187
10   0.192847
11   0.147339
12   0.12006
13   0.118053
14   0.132467
15   0.405487
16   0.40509

>  <lowdin_charges>
16
1   -0.477616
2   -0.219486
3   -0.133779
4   0.136074
5   -0.223666
6   -0.472574
7   -0.363838
8   0.1791
9   0.157047
10   0.18034
11   0.144974
12   0.131233
13   0.123372
14   0.140984
15   0.341669
16   0.356165

$$$$

