PCCDB-ID:  20623
public computational chemistry database (PCCDB) project, http://pccdb.org

 13 12  0  0  0  0  0  0  0  0999 V2000
    2.6994   -0.0863   -0.1228 C   0  0  0  0  0  0  0  0  0  0  0  0
    1.1808   -0.1752   -0.0490 C   0  0  0  0  0  0  0  0  0  0  0  0
    3.2532   -0.9857   -1.1989 N   0  0  0  0  0  0  0  0  0  0  0  0
   -0.5486    0.8124    1.2865 N   0  0  0  0  0  0  0  0  0  0  0  0
    2.4565   -1.6509   -1.8557 O   0  0  0  0  0  0  0  0  0  0  0  0
    4.4692   -0.9796   -1.3324 O   0  0  0  0  0  0  0  0  0  0  0  0
   -1.2797    0.1322    0.5993 O   0  0  0  0  0  0  0  0  0  0  0  0
   -0.8034    1.5727    2.1845 O   0  0  0  0  0  0  0  0  0  0  0  0
    0.8517    0.7310    1.0240 O   0  0  0  0  0  0  0  0  0  0  0  0
    3.1789   -0.3990    0.8072 H   0  0  0  0  0  0  0  0  0  0  0  0
    3.0452    0.9210   -0.3646 H   0  0  0  0  0  0  0  0  0  0  0  0
    0.8441   -1.1868    0.1856 H   0  0  0  0  0  0  0  0  0  0  0  0
    0.7094    0.1453   -0.9802 H   0  0  0  0  0  0  0  0  0  0  0  0
  1  2  1  0  0  0  0
  1 10  1  0  0  0  0
  2 12  1  0  0  0  0
  2  9  1  0  0  0  0
  3  1  1  0  0  0  0
  4  8  2  0  0  0  0
  5  3  2  0  0  0  0
  6  3  2  0  0  0  0
  7  4  2  0  0  0  0
  9  4  1  0  0  0  0
 11  1  1  0  0  0  0
 13  2  1  0  0  0  0
M  END
>  <HBA>
0

>  <HBD>
0

>  <TPSA>
100.87

>  <cid>
20623

>  <dipole>
1.08

>  <excitation_energy_1>
4.178

>  <excitation_energy_2>
4.499

>  <excitation_energy_3>
4.763

>  <excitation_energy_4>
5.591

>  <homo_energy>
-8.599

>  <homo_lumo_gap>
6.191

>  <logP>
0.518

>  <lumo_energy>
-2.408

>  <melting_point>
31.0

>  <molecular_refractivity>
29.02

>  <oscillator_strength_1>
0.0

>  <oscillator_strength_2>
0.0001

>  <oscillator_strength_3>
0.0

>  <oscillator_strength_4>
0.0003

>  <open_babel_can_smiles>
O=N(=O)CCON(=O)=O

>  <mulliken_charges>
13
1   -0.198546
2   -0.041525
3   0.453656
4   0.759109
5   -0.366676
6   -0.355076
7   -0.355216
8   -0.342959
9   -0.396685
10   0.223278
11   0.223169
12   0.199014
13   0.198457

>  <lowdin_charges>
13
1   -0.227474
2   -0.145192
3   0.297753
4   0.381932
5   -0.232904
6   -0.223884
7   -0.206444
8   -0.180936
9   -0.193119
10   0.193494
11   0.192531
12   0.171748
13   0.172495

$$$$

