PCCDB-ID:  14514
public computational chemistry database (PCCDB) project, http://pccdb.org

 17 17  0  0  0  0  0  0  0  0999 V2000
    1.0987    0.1579   -0.0932 C   0  0  0  0  0  0  0  0  0  0  0  0
    7.1499    1.1392   -0.1515 C   0  0  0  0  0  0  0  0  0  0  0  0
    3.3425   -1.1951    0.0635 C   0  0  0  0  0  0  0  0  0  0  0  0
    4.6959   -0.7579    0.0278 C   0  0  0  0  0  0  0  0  0  0  0  0
    2.5693   -0.0689   -0.0611 C   0  0  0  0  0  0  0  0  0  0  0  0
    5.7117    1.6338   -0.2146 C   0  0  0  0  0  0  0  0  0  0  0  0
    4.6663    0.6082   -0.1170 C   0  0  0  0  0  0  0  0  0  0  0  0
    5.4402    2.8188   -0.3389 O   0  0  0  0  0  0  0  0  0  0  0  0
    3.3601    1.0277   -0.1712 O   0  0  0  0  0  0  0  0  0  0  0  0
    0.5705   -0.7977   -0.0421 H   0  0  0  0  0  0  0  0  0  0  0  0
    0.7982    0.6727   -1.0134 H   0  0  0  0  0  0  0  0  0  0  0  0
    0.7739    0.7785    0.7507 H   0  0  0  0  0  0  0  0  0  0  0  0
    7.3589    0.4306   -0.9617 H   0  0  0  0  0  0  0  0  0  0  0  0
    7.3471    0.6238    0.7960 H   0  0  0  0  0  0  0  0  0  0  0  0
    7.8173    1.9981   -0.2412 H   0  0  0  0  0  0  0  0  0  0  0  0
    2.9807   -2.2086    0.1682 H   0  0  0  0  0  0  0  0  0  0  0  0
    5.5818   -1.3736    0.0991 H   0  0  0  0  0  0  0  0  0  0  0  0
  1  5  1  0  0  0  0
  1 10  1  0  0  0  0
  1 12  1  0  0  0  0
  2 14  1  0  0  0  0
  3 16  1  0  0  0  0
  4  3  1  0  0  0  0
  4 17  1  0  0  0  0
  5  3  2  0  0  0  0
  6  2  1  0  0  0  0
  6  7  1  0  0  0  0
  7  4  2  0  0  0  0
  8  6  2  0  0  0  0
  9  7  1  0  0  0  0
  9  5  1  0  0  0  0
 11  1  1  0  0  0  0
 13  2  1  0  0  0  0
 15  2  1  0  0  0  0
M  END
>  <HBA>
2

>  <HBD>
0

>  <TPSA>
30.21

>  <cid>
14514

>  <dipole>
3.9

>  <excitation_energy_1>
3.808

>  <excitation_energy_2>
4.729

>  <excitation_energy_3>
5.722

>  <excitation_energy_4>
5.842

>  <homo_energy>
-6.283

>  <homo_lumo_gap>
5.01

>  <logP>
1.791

>  <lumo_energy>
-1.274

>  <melting_point>
42.28

>  <molecular_refractivity>
33.87

>  <oscillator_strength_1>
0.0001

>  <oscillator_strength_2>
0.3663

>  <oscillator_strength_3>
0.0

>  <oscillator_strength_4>
0.0251

>  <open_babel_can_smiles>
Cc1ccc(o1)C(=O)C

>  <mulliken_charges>
17
1   -0.531844
2   -0.541825
3   -0.217598
4   -0.197455
5   0.371893
6   0.38657
7   0.288659
8   -0.456266
9   -0.448654
10   0.168593
11   0.182513
12   0.182099
13   0.168511
14   0.168832
15   0.182623
16   0.14348
17   0.149871

>  <lowdin_charges>
17
1   -0.442511
2   -0.474233
3   -0.221792
4   -0.179791
5   0.09651
6   0.142335
7   0.022529
8   -0.24075
9   -0.077942
10   0.169738
11   0.174663
12   0.174553
13   0.169148
14   0.168757
15   0.176176
16   0.16916
17   0.17345

$$$$

