PCCDB-ID:  8428
public computational chemistry database (PCCDB) project, http://pccdb.org

 24 24  0  0  0  0  0  0  0  0999 V2000
    1.0026    0.8832   -0.8384 C   0  0  0  0  0  0  0  0  0  0  0  0
    5.5771   -1.0286   -1.2368 C   0  0  0  0  0  0  0  0  0  0  0  0
    2.2755    1.7161   -0.9662 C   0  0  0  0  0  0  0  0  0  0  0  0
    7.1075    0.9819   -1.3266 C   0  0  0  0  0  0  0  0  0  0  0  0
    7.3681    2.3544   -1.2883 C   0  0  0  0  0  0  0  0  0  0  0  0
    4.9900    2.7479   -1.0205 C   0  0  0  0  0  0  0  0  0  0  0  0
    5.8224    0.4601   -1.2106 C   0  0  0  0  0  0  0  0  0  0  0  0
    6.2957    3.2317   -1.1316 C   0  0  0  0  0  0  0  0  0  0  0  0
    4.7402    1.3685   -1.0526 C   0  0  0  0  0  0  0  0  0  0  0  0
    3.4517    0.8619   -0.8950 N   0  0  0  0  0  0  0  0  0  0  0  0
    6.4540    4.5935   -1.0857 O   0  0  0  0  0  0  0  0  0  0  0  0
    0.1183    1.5278   -0.8643 H   0  0  0  0  0  0  0  0  0  0  0  0
    0.9955    0.3249    0.1038 H   0  0  0  0  0  0  0  0  0  0  0  0
    0.9131    0.1648   -1.6634 H   0  0  0  0  0  0  0  0  0  0  0  0
    6.5218   -1.5773   -1.2959 H   0  0  0  0  0  0  0  0  0  0  0  0
    4.9718   -1.3416   -2.1022 H   0  0  0  0  0  0  0  0  0  0  0  0
    5.0477   -1.3706   -0.3369 H   0  0  0  0  0  0  0  0  0  0  0  0
    2.3208    2.4410   -0.1440 H   0  0  0  0  0  0  0  0  0  0  0  0
    2.2514    2.3016   -1.9019 H   0  0  0  0  0  0  0  0  0  0  0  0
    7.9403    0.2921   -1.4466 H   0  0  0  0  0  0  0  0  0  0  0  0
    8.3858    2.7287   -1.3764 H   0  0  0  0  0  0  0  0  0  0  0  0
    4.1873    3.4672   -0.9121 H   0  0  0  0  0  0  0  0  0  0  0  0
    3.3136   -0.0484   -1.3150 H   0  0  0  0  0  0  0  0  0  0  0  0
    7.3967    4.7962   -1.1868 H   0  0  0  0  0  0  0  0  0  0  0  0
  1 13  1  0  0  0  0
  2  7  1  0  0  0  0
  2 17  1  0  0  0  0
  3 10  1  0  0  0  0
  3  1  1  0  0  0  0
  3 18  1  0  0  0  0
  4  5  2  0  0  0  0
  4  7  1  0  0  0  0
  5  8  1  0  0  0  0
  6 22  1  0  0  0  0
  7  9  2  0  0  0  0
  8 11  1  0  0  0  0
  8  6  2  0  0  0  0
  9  6  1  0  0  0  0
  9 10  1  0  0  0  0
 12  1  1  0  0  0  0
 14  1  1  0  0  0  0
 15  2  1  0  0  0  0
 16  2  1  0  0  0  0
 19  3  1  0  0  0  0
 20  4  1  0  0  0  0
 21  5  1  0  0  0  0
 23 10  1  0  0  0  0
 24 11  1  0  0  0  0
M  END
>  <HBA>
2

>  <HBD>
2

>  <TPSA>
32.26

>  <cid>
8428

>  <dipole>
1.21

>  <excitation_energy_1>
4.596

>  <excitation_energy_2>
4.701

>  <excitation_energy_3>
4.727

>  <excitation_energy_4>
5.107

>  <homo_energy>
-5.042

>  <homo_lumo_gap>
5.644

>  <logP>
2.205

>  <lumo_energy>
0.601

>  <melting_point>
83.02

>  <molecular_refractivity>
47.54

>  <oscillator_strength_1>
0.0056

>  <oscillator_strength_2>
0.0269

>  <oscillator_strength_3>
0.0235

>  <oscillator_strength_4>
0.0267

>  <open_babel_can_smiles>
Cc1ccc(cc1NCC)O

>  <mulliken_charges>
24
1   -0.470898
2   -0.554876
3   -0.097809
4   -0.205611
5   -0.203595
6   -0.230283
7   0.151979
8   0.346197
9   0.293858
10   -0.668189
11   -0.650197
12   0.155597
13   0.161689
14   0.144575
15   0.15705
16   0.144462
17   0.161473
18   0.155266
19   0.137386
20   0.116135
21   0.105535
22   0.131539
23   0.314512
24   0.404204

>  <lowdin_charges>
24
1   -0.449852
2   -0.446592
3   -0.192082
4   -0.151774
5   -0.247372
6   -0.242431
7   -0.057432
8   0.109953
9   0.060411
10   -0.300003
11   -0.385101
12   0.159567
13   0.156819
14   0.148089
15   0.159667
16   0.146664
17   0.156364
18   0.149212
19   0.131774
20   0.153211
21   0.148238
22   0.167068
23   0.272196
24   0.353407

$$$$

