PCCDB-ID:  23691
public computational chemistry database (PCCDB) project, http://pccdb.org

 46 45  0  0  0  0  0  0  0  0999 V2000
    0.6498    0.2703   -2.1140 C   0  0  0  0  0  0  0  0  0  0  0  0
    2.3952    1.8534   -1.1743 C   0  0  0  0  0  0  0  0  0  0  0  0
    7.3915   -0.0945   -1.0272 C   0  0  0  0  0  0  0  0  0  0  0  0
   11.3863   -3.1314   -4.7349 C   0  0  0  0  0  0  0  0  0  0  0  0
   14.6665    0.5561   -6.6295 C   0  0  0  0  0  0  0  0  0  0  0  0
    4.5480    0.0035   -2.5525 C   0  0  0  0  0  0  0  0  0  0  0  0
    8.9531   -2.0283   -2.9568 C   0  0  0  0  0  0  0  0  0  0  0  0
    3.0515   -0.1547   -2.5689 C   0  0  0  0  0  0  0  0  0  0  0  0
    5.2569   -1.2082   -1.8930 C   0  0  0  0  0  0  0  0  0  0  0  0
    7.4661   -1.9556   -2.7352 C   0  0  0  0  0  0  0  0  0  0  0  0
    9.3462   -1.6209   -4.4013 C   0  0  0  0  0  0  0  0  0  0  0  0
   11.5578   -0.6117   -4.8725 C   0  0  0  0  0  0  0  0  0  0  0  0
   13.0301   -0.4824   -5.1507 C   0  0  0  0  0  0  0  0  0  0  0  0
    2.1162    0.6114   -1.9858 C   0  0  0  0  0  0  0  0  0  0  0  0
    6.7714   -1.1322   -1.9331 C   0  0  0  0  0  0  0  0  0  0  0  0
   10.8314   -1.7263   -4.6894 C   0  0  0  0  0  0  0  0  0  0  0  0
   13.2550    0.3912   -6.3061 N   0  0  0  0  0  0  0  0  0  0  0  0
    0.1932    0.1072   -1.1273 H   0  0  0  0  0  0  0  0  0  0  0  0
    0.4900   -0.6308   -2.7145 H   0  0  0  0  0  0  0  0  0  0  0  0
    0.0902    1.0935   -2.5808 H   0  0  0  0  0  0  0  0  0  0  0  0
    1.9834    1.7537   -0.1602 H   0  0  0  0  0  0  0  0  0  0  0  0
    1.9026    2.7278   -1.6225 H   0  0  0  0  0  0  0  0  0  0  0  0
    3.4593    2.0823   -1.0811 H   0  0  0  0  0  0  0  0  0  0  0  0
    7.0700   -0.2503    0.0120 H   0  0  0  0  0  0  0  0  0  0  0  0
    7.0701    0.9189   -1.3021 H   0  0  0  0  0  0  0  0  0  0  0  0
    8.4835   -0.1075   -1.0448 H   0  0  0  0  0  0  0  0  0  0  0  0
   10.7675   -3.7678   -5.3820 H   0  0  0  0  0  0  0  0  0  0  0  0
   11.3779   -3.5982   -3.7409 H   0  0  0  0  0  0  0  0  0  0  0  0
   12.4138   -3.1725   -5.1038 H   0  0  0  0  0  0  0  0  0  0  0  0
   14.7664    1.1682   -7.5321 H   0  0  0  0  0  0  0  0  0  0  0  0
   15.2146   -0.3921   -6.7916 H   0  0  0  0  0  0  0  0  0  0  0  0
   15.1662    1.0876   -5.8103 H   0  0  0  0  0  0  0  0  0  0  0  0
    4.8423    0.9272   -2.0445 H   0  0  0  0  0  0  0  0  0  0  0  0
    4.9170    0.0884   -3.5856 H   0  0  0  0  0  0  0  0  0  0  0  0
    9.2908   -3.0579   -2.7702 H   0  0  0  0  0  0  0  0  0  0  0  0
    9.5003   -1.3919   -2.2536 H   0  0  0  0  0  0  0  0  0  0  0  0
    2.7014   -1.0271   -3.1253 H   0  0  0  0  0  0  0  0  0  0  0  0
    4.9221   -2.1245   -2.3956 H   0  0  0  0  0  0  0  0  0  0  0  0
    4.9136   -1.2812   -0.8505 H   0  0  0  0  0  0  0  0  0  0  0  0
    6.8913   -2.6645   -3.3359 H   0  0  0  0  0  0  0  0  0  0  0  0
    9.0072   -0.5929   -4.5738 H   0  0  0  0  0  0  0  0  0  0  0  0
    8.7896   -2.2586   -5.1054 H   0  0  0  0  0  0  0  0  0  0  0  0
   11.0439    0.3492   -4.8270 H   0  0  0  0  0  0  0  0  0  0  0  0
   13.5136   -1.4701   -5.2619 H   0  0  0  0  0  0  0  0  0  0  0  0
   13.5211   -0.0025   -4.2892 H   0  0  0  0  0  0  0  0  0  0  0  0
   12.7661   -0.0030   -7.1082 H   0  0  0  0  0  0  0  0  0  0  0  0
  1 14  1  0  0  0  0
  1 18  1  0  0  0  0
  2 23  1  0  0  0  0
  2 21  1  0  0  0  0
  3 24  1  0  0  0  0
  4 16  1  0  0  0  0
  4 28  1  0  0  0  0
  5 17  1  0  0  0  0
  5 32  1  0  0  0  0
  6 33  1  0  0  0  0
  6  9  1  0  0  0  0
  7 35  1  0  0  0  0
  7 10  1  0  0  0  0
  7 36  1  0  0  0  0
  8  6  1  0  0  0  0
  8 14  2  0  0  0  0
  9 39  1  0  0  0  0
 10 15  2  0  0  0  0
 11  7  1  0  0  0  0
 12 43  1  0  0  0  0
 12 16  2  0  0  0  0
 13 12  1  0  0  0  0
 13 45  1  0  0  0  0
 14  2  1  0  0  0  0
 15  9  1  0  0  0  0
 15  3  1  0  0  0  0
 16 11  1  0  0  0  0
 17 13  1  0  0  0  0
 19  1  1  0  0  0  0
 20  1  1  0  0  0  0
 22  2  1  0  0  0  0
 25  3  1  0  0  0  0
 26  3  1  0  0  0  0
 27  4  1  0  0  0  0
 29  4  1  0  0  0  0
 30  5  1  0  0  0  0
 31  5  1  0  0  0  0
 34  6  1  0  0  0  0
 37  8  1  0  0  0  0
 38  9  1  0  0  0  0
 40 10  1  0  0  0  0
 41 11  1  0  0  0  0
 42 11  1  0  0  0  0
 44 13  1  0  0  0  0
 46 17  1  0  0  0  0
M  END
>  <HBA>
1

>  <HBD>
1

>  <TPSA>
12.03

>  <cid>
23691

>  <dipole>
0.74

>  <excitation_energy_1>
5.276

>  <excitation_energy_2>
5.491

>  <excitation_energy_3>
5.605

>  <excitation_energy_4>
5.662

>  <homo_energy>
-5.84

>  <homo_lumo_gap>
6.441

>  <logP>
5.016

>  <lumo_energy>
0.601

>  <melting_point>
33.61

>  <molecular_refractivity>
80.41

>  <oscillator_strength_1>
0.0025

>  <oscillator_strength_2>
0.0047

>  <oscillator_strength_3>
0.0252

>  <oscillator_strength_4>
0.0099

>  <open_babel_can_smiles>
CNC/C=C(/CC/C=C(/CCC=C(C)C)\C)\C

>  <mulliken_charges>
46
1   -0.50573
2   -0.513136
3   -0.522303
4   -0.522134
5   -0.297234
6   -0.301335
7   -0.302055
8   -0.159032
9   -0.326218
10   -0.169435
11   -0.324064
12   -0.186271
13   -0.162334
14   0.187753
15   0.192311
16   0.192626
17   -0.538244
18   0.148092
19   0.150516
20   0.148197
21   0.150757
22   0.151822
23   0.153489
24   0.151171
25   0.156194
26   0.155869
27   0.149175
28   0.159837
29   0.155066
30   0.147888
31   0.116287
32   0.149832
33   0.138698
34   0.143069
35   0.139446
36   0.142505
37   0.108726
38   0.136246
39   0.136719
40   0.10939
41   0.14492
42   0.131597
43   0.126846
44   0.115467
45   0.145692
46   0.293324

>  <lowdin_charges>
46
1   -0.440322
2   -0.443234
3   -0.442447
4   -0.447822
5   -0.362045
6   -0.273083
7   -0.274668
8   -0.190729
9   -0.268619
10   -0.191403
11   -0.269415
12   -0.196897
13   -0.200666
14   -0.010419
15   -0.012748
16   -0.009818
17   -0.365244
18   0.151448
19   0.154202
20   0.152805
21   0.153662
22   0.155609
23   0.153229
24   0.153683
25   0.15474
26   0.154435
27   0.155014
28   0.157375
29   0.154791
30   0.15057
31   0.118793
32   0.14833
33   0.144706
34   0.148079
35   0.14543
36   0.149016
37   0.144076
38   0.145433
39   0.14345
40   0.144865
41   0.148703
42   0.143391
43   0.153454
44   0.119763
45   0.147544
46   0.252981

$$$$

