PCCDB-ID:  26890
public computational chemistry database (PCCDB) project, http://pccdb.org

 38 38  0  0  0  0  0  0  0  0999 V2000
   12.2493   -7.0079   -5.3499 C   0  0  0  0  0  0  0  0  0  0  0  0
    2.1339   -9.5166   -2.0073 C   0  0  0  0  0  0  0  0  0  0  0  0
    3.9544  -10.9172   -1.0000 C   0  0  0  0  0  0  0  0  0  0  0  0
   11.4704   -5.7300   -5.0218 C   0  0  0  0  0  0  0  0  0  0  0  0
   10.8044   -5.7673   -3.6406 C   0  0  0  0  0  0  0  0  0  0  0  0
   10.0291   -4.4861   -3.3100 C   0  0  0  0  0  0  0  0  0  0  0  0
    4.9006   -6.3513   -2.4762 C   0  0  0  0  0  0  0  0  0  0  0  0
    6.6508   -7.6967   -1.5172 C   0  0  0  0  0  0  0  0  0  0  0  0
    4.0054   -7.3999   -2.3414 C   0  0  0  0  0  0  0  0  0  0  0  0
    5.7662   -8.7554   -1.3747 C   0  0  0  0  0  0  0  0  0  0  0  0
    9.3597   -4.4998   -1.9382 C   0  0  0  0  0  0  0  0  0  0  0  0
    6.2376   -6.4758   -2.0710 C   0  0  0  0  0  0  0  0  0  0  0  0
    4.4161   -8.6401   -1.7905 C   0  0  0  0  0  0  0  0  0  0  0  0
    7.1388   -5.3161   -2.2427 C   0  0  0  0  0  0  0  0  0  0  0  0
    3.5354   -9.6962   -1.6673 N   0  0  0  0  0  0  0  0  0  0  0  0
    6.8030   -4.2423   -2.7118 O   0  0  0  0  0  0  0  0  0  0  0  0
    8.4035   -5.5750   -1.8126 O   0  0  0  0  0  0  0  0  0  0  0  0
   12.7110   -6.9521   -6.3424 H   0  0  0  0  0  0  0  0  0  0  0  0
   11.5925   -7.8864   -5.3368 H   0  0  0  0  0  0  0  0  0  0  0  0
   13.0491   -7.1830   -4.6198 H   0  0  0  0  0  0  0  0  0  0  0  0
    1.6068  -10.4614   -1.8644 H   0  0  0  0  0  0  0  0  0  0  0  0
    2.0124   -9.2213   -3.0574 H   0  0  0  0  0  0  0  0  0  0  0  0
    1.6456   -8.7544   -1.3817 H   0  0  0  0  0  0  0  0  0  0  0  0
    3.1278  -11.6297   -1.0045 H   0  0  0  0  0  0  0  0  0  0  0  0
    4.2488  -10.7418    0.0456 H   0  0  0  0  0  0  0  0  0  0  0  0
    4.8026  -11.3851   -1.5165 H   0  0  0  0  0  0  0  0  0  0  0  0
   10.7014   -5.5622   -5.7890 H   0  0  0  0  0  0  0  0  0  0  0  0
   12.1470   -4.8650   -5.0764 H   0  0  0  0  0  0  0  0  0  0  0  0
   11.5728   -5.9373   -2.8710 H   0  0  0  0  0  0  0  0  0  0  0  0
   10.1225   -6.6261   -3.5867 H   0  0  0  0  0  0  0  0  0  0  0  0
    9.2611   -4.2981   -4.0702 H   0  0  0  0  0  0  0  0  0  0  0  0
   10.7099   -3.6225   -3.3348 H   0  0  0  0  0  0  0  0  0  0  0  0
    4.5748   -5.4066   -2.9000 H   0  0  0  0  0  0  0  0  0  0  0  0
    7.6788   -7.8135   -1.1919 H   0  0  0  0  0  0  0  0  0  0  0  0
    2.9811   -7.2560   -2.6633 H   0  0  0  0  0  0  0  0  0  0  0  0
    6.1266   -9.6792   -0.9383 H   0  0  0  0  0  0  0  0  0  0  0  0
    8.8506   -3.5523   -1.7459 H   0  0  0  0  0  0  0  0  0  0  0  0
   10.0889   -4.6908   -1.1447 H   0  0  0  0  0  0  0  0  0  0  0  0
  1 19  1  0  0  0  0
  1  4  1  0  0  0  0
  1 20  1  0  0  0  0
  2 21  1  0  0  0  0
  2 15  1  0  0  0  0
  2 23  1  0  0  0  0
  3 25  1  0  0  0  0
  4  5  1  0  0  0  0
  5 30  1  0  0  0  0
  5  6  1  0  0  0  0
  5 29  1  0  0  0  0
  6 11  1  0  0  0  0
  7  9  2  0  0  0  0
  7 12  1  0  0  0  0
  8 10  1  0  0  0  0
  8 34  1  0  0  0  0
  9 13  1  0  0  0  0
 10 36  1  0  0  0  0
 11 17  1  0  0  0  0
 11 37  1  0  0  0  0
 11 38  1  0  0  0  0
 12  8  2  0  0  0  0
 13 15  1  0  0  0  0
 13 10  2  0  0  0  0
 14 12  1  0  0  0  0
 14 17  1  0  0  0  0
 15  3  1  0  0  0  0
 16 14  2  0  0  0  0
 18  1  1  0  0  0  0
 22  2  1  0  0  0  0
 24  3  1  0  0  0  0
 26  3  1  0  0  0  0
 27  4  1  0  0  0  0
 28  4  1  0  0  0  0
 31  6  1  0  0  0  0
 32  6  1  0  0  0  0
 33  7  1  0  0  0  0
 35  9  1  0  0  0  0
M  END
>  <HBA>
3

>  <HBD>
0

>  <TPSA>
29.54

>  <cid>
26890

>  <dipole>
4.18

>  <excitation_energy_1>
4.373

>  <excitation_energy_2>
4.541

>  <excitation_energy_3>
4.683

>  <excitation_energy_4>
5.038

>  <homo_energy>
-5.333

>  <homo_lumo_gap>
4.735

>  <logP>
3.1

>  <lumo_energy>
-0.599

>  <melting_point>
36.95

>  <molecular_refractivity>
71.16

>  <oscillator_strength_1>
0.5676

>  <oscillator_strength_2>
0.0228

>  <oscillator_strength_3>
0.0232

>  <oscillator_strength_4>
0.0001

>  <open_babel_can_smiles>
CCCCCOC(=O)c1ccc(cc1)N(C)C

>  <mulliken_charges>
38
1   -0.441346
2   -0.313303
3   -0.313058
4   -0.246986
5   -0.24568
6   -0.280635
7   -0.167006
8   -0.173573
9   -0.20201
10   -0.200685
11   -0.045633
12   0.049497
13   0.38001
14   0.587941
15   -0.47351
16   -0.50767
17   -0.487193
18   0.141033
19   0.142171
20   0.139843
21   0.157429
22   0.166388
23   0.160433
24   0.157608
25   0.160053
26   0.165324
27   0.133714
28   0.12839
29   0.122054
30   0.14379
31   0.161241
32   0.131714
33   0.156532
34   0.15006
35   0.128107
36   0.126296
37   0.167072
38   0.14159

>  <lowdin_charges>
38
1   -0.444629
2   -0.349254
3   -0.349586
4   -0.27288
5   -0.278388
6   -0.288009
7   -0.120528
8   -0.127873
9   -0.21068
10   -0.213345
11   -0.132457
12   -0.078315
13   0.069231
14   0.196921
15   -0.105944
16   -0.288957
17   -0.203478
18   0.148349
19   0.146989
20   0.146079
21   0.15921
22   0.152599
23   0.149291
24   0.159865
25   0.14652
26   0.154076
27   0.141349
28   0.137993
29   0.136077
30   0.145734
31   0.156762
32   0.146865
33   0.174212
34   0.168351
35   0.159982
36   0.160479
37   0.159521
38   0.147869

$$$$

