PCCDB-ID:  964
public computational chemistry database (PCCDB) project, http://pccdb.org

 11 10  0  0  0  0  0  0  0  0999 V2000
    1.2808    0.0033   -0.5274 C   0  0  0  0  0  0  0  0  0  0  0  0
    0.6108    1.3598   -0.5844 C   0  0  0  0  0  0  0  0  0  0  0  0
    1.2491    2.3880   -1.5297 C   0  0  0  0  0  0  0  0  0  0  0  0
    0.6198   -0.8526    0.3609 O   0  0  0  0  0  0  0  0  0  0  0  0
   -0.3724    1.6136    0.0798 O   0  0  0  0  0  0  0  0  0  0  0  0
    0.6019    3.5607   -1.5233 O   0  0  0  0  0  0  0  0  0  0  0  0
    2.2292    2.1360   -2.1952 O   0  0  0  0  0  0  0  0  0  0  0  0
    2.3343    0.1502   -0.2386 H   0  0  0  0  0  0  0  0  0  0  0  0
    1.3055   -0.4129   -1.5477 H   0  0  0  0  0  0  0  0  0  0  0  0
   -0.1276   -0.3433    0.7269 H   0  0  0  0  0  0  0  0  0  0  0  0
    1.0742    4.1454   -2.1470 H   0  0  0  0  0  0  0  0  0  0  0  0
  1  8  1  0  0  0  0
  1  4  1  0  0  0  0
  2  1  1  0  0  0  0
  2  5  2  0  0  0  0
  3  6  1  0  0  0  0
  3  2  1  0  0  0  0
  4 10  1  0  0  0  0
  7  3  2  0  0  0  0
  9  1  1  0  0  0  0
 11  6  1  0  0  0  0
M  END
>  <HBA>
4

>  <HBD>
2

>  <TPSA>
74.6

>  <cid>
964

>  <dipole>
2.35

>  <excitation_energy_1>
3.445

>  <excitation_energy_2>
4.213

>  <excitation_energy_3>
5.023

>  <excitation_energy_4>
6.12

>  <homo_energy>
-7.63

>  <homo_lumo_gap>
4.991

>  <logP>
-1.368

>  <lumo_energy>
-2.64

>  <melting_point>
92.6

>  <molecular_refractivity>
19.67

>  <oscillator_strength_1>
0.0

>  <oscillator_strength_2>
0.0241

>  <oscillator_strength_3>
0.0

>  <oscillator_strength_4>
0.0003

>  <open_babel_can_smiles>
OCC(=O)C(=O)O

>  <mulliken_charges>
11
1   -0.06247
2   0.348403
3   0.539442
4   -0.619805
5   -0.41858
6   -0.534844
7   -0.439396
8   0.176905
9   0.176916
10   0.410623
11   0.422806

>  <lowdin_charges>
11
1   -0.154445
2   0.121972
3   0.161928
4   -0.454173
5   -0.184612
6   -0.314942
7   -0.234672
8   0.167236
9   0.167485
10   0.350888
11   0.373335

$$$$

