PCCDB-ID:  66295
public computational chemistry database (PCCDB) project, http://pccdb.org

 14 13  0  0  0  0  0  0  0  0999 V2000
    1.0495   -0.0247   -0.1169 C   0  0  0  0  0  0  0  0  0  0  0  0
    2.5029   -0.0778    0.0222 C   0  0  0  0  0  0  0  0  0  0  0  0
    3.7056   -0.1310    0.1411 C   0  0  0  0  0  0  0  0  0  0  0  0
    5.1618   -0.1364    0.2846 C   0  0  0  0  0  0  0  0  0  0  0  0
    5.7499    1.2862    0.3776 C   0  0  0  0  0  0  0  0  0  0  0  0
    7.1667    1.2746    0.4695 O   0  0  0  0  0  0  0  0  0  0  0  0
    0.6836    1.0093   -0.0946 H   0  0  0  0  0  0  0  0  0  0  0  0
    0.5498   -0.5693    0.6936 H   0  0  0  0  0  0  0  0  0  0  0  0
    0.7220   -0.4692   -1.0649 H   0  0  0  0  0  0  0  0  0  0  0  0
    5.6344   -0.6484   -0.5638 H   0  0  0  0  0  0  0  0  0  0  0  0
    5.4488   -0.7006    1.1852 H   0  0  0  0  0  0  0  0  0  0  0  0
    5.2894    1.8223    1.2211 H   0  0  0  0  0  0  0  0  0  0  0  0
    5.5100    1.8409   -0.5337 H   0  0  0  0  0  0  0  0  0  0  0  0
    7.4031    0.8855    1.3259 H   0  0  0  0  0  0  0  0  0  0  0  0
  1  7  1  0  0  0  0
  1  2  1  0  0  0  0
  1  8  1  0  0  0  0
  2  3  3  0  0  0  0
  3  4  1  0  0  0  0
  4  5  1  0  0  0  0
  4 11  1  0  0  0  0
  5  6  1  0  0  0  0
  5 12  1  0  0  0  0
  6 14  1  0  0  0  0
  9  1  1  0  0  0  0
 10  4  1  0  0  0  0
 13  5  1  0  0  0  0
M  END
>  <HBA>
1

>  <HBD>
1

>  <TPSA>
20.23

>  <cid>
66295

>  <dipole>
1.69

>  <excitation_energy_1>
6.11

>  <excitation_energy_2>
6.202

>  <excitation_energy_3>
6.371

>  <excitation_energy_4>
6.428

>  <homo_energy>
-6.621

>  <homo_lumo_gap>
8.188

>  <logP>
0.392

>  <lumo_energy>
1.567

>  <melting_point>
10.07

>  <molecular_refractivity>
25.47

>  <oscillator_strength_1>
0.0044

>  <oscillator_strength_2>
0.0039

>  <oscillator_strength_3>
0.0155

>  <oscillator_strength_4>
0.0064

>  <open_babel_can_smiles>
CC#CCCO

>  <mulliken_charges>
14
1   -0.574549
2   0.003844
3   0.081658
4   -0.418755
5   -0.028301
6   -0.607629
7   0.178014
8   0.177819
9   0.178652
10   0.177271
11   0.151292
12   0.132248
13   0.159521
14   0.388915

>  <lowdin_charges>
14
1   -0.424444
2   -0.083094
3   -0.09238
4   -0.277866
5   -0.131374
6   -0.463627
7   0.17147
8   0.17304
9   0.172483
10   0.170361
11   0.156334
12   0.133468
13   0.154052
14   0.341577

$$$$

