PCCDB-ID:  34727
public computational chemistry database (PCCDB) project, http://pccdb.org

 32 32  0  0  1  0  0  0  0  0999 V2000
    1.9266   -0.1481   -0.3569 C   0  0  0  0  0  0  0  0  0  0  0  0
    3.7000    3.9034   -5.4686 C   0  0  0  0  0  0  0  0  0  0  0  0
    6.1305    3.3291   -5.8130 C   0  0  0  0  0  0  0  0  0  0  0  0
    2.6689    1.1922   -0.3742 C   0  0  0  0  0  0  0  0  0  0  0  0
    3.7196    1.2815   -1.4878 C   0  0  0  0  0  0  0  0  0  0  0  0
    4.4712    2.6179   -1.5120 C   0  0  0  0  0  0  0  0  0  0  0  0
    5.4628    4.7918   -3.8310 C   0  0  0  0  0  0  0  0  0  0  0  0
    6.2476    4.0624   -2.7307 C   0  0  2  0  0  0  0  0  0  0  0  0
    5.5081    2.6953   -2.6365 C   0  0  2  0  0  0  0  0  0  0  0  0
    5.0420    3.6572   -4.7792 C   0  0  0  0  0  0  0  0  0  0  0  0
    6.3859    4.7730   -1.5117 O   0  0  0  0  0  0  0  0  0  0  0  0
    4.8705    2.5085   -3.9080 O   0  0  0  0  0  0  0  0  0  0  0  0
    1.1797   -0.1829    0.4447 H   0  0  0  0  0  0  0  0  0  0  0  0
    2.6204   -0.9834   -0.2022 H   0  0  0  0  0  0  0  0  0  0  0  0
    1.4058   -0.3237   -1.3062 H   0  0  0  0  0  0  0  0  0  0  0  0
    3.7579    4.7670   -6.1412 H   0  0  0  0  0  0  0  0  0  0  0  0
    2.9167    4.0903   -4.7267 H   0  0  0  0  0  0  0  0  0  0  0  0
    3.4090    3.0277   -6.0586 H   0  0  0  0  0  0  0  0  0  0  0  0
    6.2449    4.1428   -6.5390 H   0  0  0  0  0  0  0  0  0  0  0  0
    5.8627    2.4165   -6.3556 H   0  0  0  0  0  0  0  0  0  0  0  0
    7.1008    3.1617   -5.3331 H   0  0  0  0  0  0  0  0  0  0  0  0
    3.1528    1.3552    0.5997 H   0  0  0  0  0  0  0  0  0  0  0  0
    1.9440    2.0102   -0.4935 H   0  0  0  0  0  0  0  0  0  0  0  0
    3.2425    1.1274   -2.4634 H   0  0  0  0  0  0  0  0  0  0  0  0
    4.4461    0.4640   -1.3676 H   0  0  0  0  0  0  0  0  0  0  0  0
    4.9872    2.7727   -0.5544 H   0  0  0  0  0  0  0  0  0  0  0  0
    3.7453    3.4382   -1.6260 H   0  0  0  0  0  0  0  0  0  0  0  0
    6.0495    5.5734   -4.3227 H   0  0  0  0  0  0  0  0  0  0  0  0
    4.5747    5.2659   -3.3902 H   0  0  0  0  0  0  0  0  0  0  0  0
    7.2775    3.8922   -3.0580 H   0  0  0  0  0  0  0  0  0  0  0  0
    6.2313    1.8793   -2.4955 H   0  0  0  0  0  0  0  0  0  0  0  0
    5.4953    4.9913   -1.1944 H   0  0  0  0  0  0  0  0  0  0  0  0
  1 14  1  0  0  0  0
  1 13  1  0  0  0  0
  2 10  1  0  0  0  0
  2 17  1  0  0  0  0
  3 21  1  0  0  0  0
  3 10  1  0  0  0  0
  4  1  1  0  0  0  0
  4 22  1  0  0  0  0
  5 25  1  0  0  0  0
  5  4  1  0  0  0  0
  6  5  1  0  0  0  0
  6 26  1  0  0  0  0
  7 29  1  0  0  0  0
  7  8  1  0  0  0  0
  8 30  1  6  0  0  0
  8  9  1  0  0  0  0
  8 11  1  0  0  0  0
  9 31  1  1  0  0  0
  9  6  1  0  0  0  0
 10 12  1  0  0  0  0
 10  7  1  0  0  0  0
 11 32  1  0  0  0  0
 12  9  1  0  0  0  0
 15  1  1  0  0  0  0
 16  2  1  0  0  0  0
 18  2  1  0  0  0  0
 19  3  1  0  0  0  0
 20  3  1  0  0  0  0
 23  4  1  0  0  0  0
 24  5  1  0  0  0  0
 27  6  1  0  0  0  0
 28  7  1  0  0  0  0
M  END
>  <HBA>
2

>  <HBD>
1

>  <TPSA>
29.46

>  <cid>
34727

>  <dipole>
1.22

>  <excitation_energy_1>
6.16

>  <excitation_energy_2>
6.292

>  <excitation_energy_3>
6.439

>  <excitation_energy_4>
6.549

>  <homo_energy>
-6.602

>  <homo_lumo_gap>
8.471

>  <logP>
2.105

>  <lumo_energy>
1.869

>  <melting_point>
14.05

>  <molecular_refractivity>
50.35

>  <oscillator_strength_1>
0.0234

>  <oscillator_strength_2>
0.0032

>  <oscillator_strength_3>
0.0068

>  <oscillator_strength_4>
0.0204

>  <open_babel_can_smiles>
CCCC[C@H]1OC(C[C@H]1O)(C)C

>  <mulliken_charges>
32
1   -0.440911
2   -0.450702
3   -0.453027
4   -0.248159
5   -0.24911
6   -0.289815
7   -0.32493
8   0.100861
9   0.14836
10   0.337306
11   -0.624969
12   -0.531255
13   0.140367
14   0.141862
15   0.14288
16   0.139188
17   0.144464
18   0.1535
19   0.138122
20   0.155235
21   0.144647
22   0.128096
23   0.127286
24   0.152927
25   0.126651
26   0.138301
27   0.114791
28   0.151551
29   0.128118
30   0.143833
31   0.123593
32   0.390939

>  <lowdin_charges>
32
1   -0.44516
2   -0.44741
3   -0.454017
4   -0.272615
5   -0.274994
6   -0.294338
7   -0.307404
8   -0.01769
9   -0.015685
10   0.130585
11   -0.447525
12   -0.284927
13   0.149062
14   0.147134
15   0.147114
16   0.151091
17   0.15251
18   0.157436
19   0.149904
20   0.158273
21   0.149965
22   0.136932
23   0.137776
24   0.150331
25   0.139156
26   0.146259
27   0.132261
28   0.158661
29   0.143846
30   0.147056
31   0.136635
32   0.339778

$$$$

