PCCDB-ID:  31235
public computational chemistry database (PCCDB) project, http://pccdb.org

 21 21  0  0  0  0  0  0  0  0999 V2000
   -3.7829    0.6499    0.3244 C   0  0  0  0  0  0  0  0  0  0  0  0
   -2.9016    1.6085    0.8218 C   0  0  0  0  0  0  0  0  0  0  0  0
   -3.2750   -0.3893   -0.4603 C   0  0  0  0  0  0  0  0  0  0  0  0
   -1.5338    1.5406    0.5505 C   0  0  0  0  0  0  0  0  0  0  0  0
   -1.9153   -0.4640   -0.7419 C   0  0  0  0  0  0  0  0  0  0  0  0
    1.3816    1.1010    0.1543 C   0  0  0  0  0  0  0  0  0  0  0  0
    2.6875    1.0093   -0.6338 C   0  0  0  0  0  0  0  0  0  0  0  0
   -1.0206    0.5019   -0.2436 C   0  0  0  0  0  0  0  0  0  0  0  0
    0.3375    0.4082   -0.5971 N   0  0  0  0  0  0  0  0  0  0  0  0
    2.5642    1.6065   -1.9100 O   0  0  0  0  0  0  0  0  0  0  0  0
   -4.8448    0.7079    0.5439 H   0  0  0  0  0  0  0  0  0  0  0  0
   -3.2747    2.4225    1.4383 H   0  0  0  0  0  0  0  0  0  0  0  0
   -3.9421   -1.1503   -0.8571 H   0  0  0  0  0  0  0  0  0  0  0  0
   -0.8745    2.2974    0.9607 H   0  0  0  0  0  0  0  0  0  0  0  0
   -1.5328   -1.2718   -1.3633 H   0  0  0  0  0  0  0  0  0  0  0  0
    1.1096    2.1572    0.2364 H   0  0  0  0  0  0  0  0  0  0  0  0
    1.5121    0.7044    1.1758 H   0  0  0  0  0  0  0  0  0  0  0  0
    2.9971   -0.0500   -0.7122 H   0  0  0  0  0  0  0  0  0  0  0  0
    3.4836    1.5390   -0.1003 H   0  0  0  0  0  0  0  0  0  0  0  0
    0.6013   -0.5505   -0.8059 H   0  0  0  0  0  0  0  0  0  0  0  0
    1.6883    1.3363   -2.2387 H   0  0  0  0  0  0  0  0  0  0  0  0
  1 11  1  0  0  0  0
  1  2  2  0  0  0  0
  2 12  1  0  0  0  0
  3  1  1  0  0  0  0
  4  2  1  0  0  0  0
  4 14  1  0  0  0  0
  5  3  2  0  0  0  0
  5  8  1  0  0  0  0
  6 16  1  0  0  0  0
  6 17  1  0  0  0  0
  7 19  1  0  0  0  0
  7  6  1  0  0  0  0
  8  4  2  0  0  0  0
  9  8  1  0  0  0  0
  9  6  1  0  0  0  0
 10  7  1  0  0  0  0
 13  3  1  0  0  0  0
 15  5  1  0  0  0  0
 18  7  1  0  0  0  0
 20  9  1  0  0  0  0
 21 10  1  0  0  0  0
M  END
>  <HBA>
2

>  <HBD>
2

>  <TPSA>
32.26

>  <cid>
31235

>  <dipole>
1.94

>  <excitation_energy_1>
4.685

>  <excitation_energy_2>
4.948

>  <excitation_energy_3>
5.316

>  <excitation_energy_4>
5.374

>  <homo_energy>
-5.567

>  <homo_lumo_gap>
5.627

>  <logP>
1.164

>  <lumo_energy>
0.06

>  <melting_point>
55.82

>  <molecular_refractivity>
41.72

>  <oscillator_strength_1>
0.0296

>  <oscillator_strength_2>
0.0126

>  <oscillator_strength_3>
0.1525

>  <oscillator_strength_4>
0.0458

>  <open_babel_can_smiles>
OCCNc1ccccc1

>  <mulliken_charges>
21
1   -0.135387
2   -0.138504
3   -0.133457
4   -0.177609
5   -0.187684
6   -0.144283
7   -0.03026
8   0.348159
9   -0.684065
10   -0.620519
11   0.123719
12   0.12766
13   0.127565
14   0.126254
15   0.116464
16   0.168151
17   0.136569
18   0.113165
19   0.150099
20   0.313496
21   0.400468

>  <lowdin_charges>
21
1   -0.181919
2   -0.145099
3   -0.147439
4   -0.205877
5   -0.198092
6   -0.215747
7   -0.13559
8   0.058092
9   -0.312102
10   -0.46886
11   0.154544
12   0.157663
13   0.158323
14   0.159234
15   0.152389
16   0.155513
17   0.135342
18   0.118376
19   0.152537
20   0.26817
21   0.340541

$$$$

