PCCDB-ID:  21236
public computational chemistry database (PCCDB) project, http://pccdb.org

 22 21  0  0  1  0  0  0  0  0999 V2000
    1.5292   -0.3502   -0.3177 C   0  0  0  0  0  0  0  0  0  0  0  0
    2.2835    0.9790   -0.4423 C   0  0  0  0  0  0  0  0  0  0  0  0
    3.2004    1.3044    0.7499 C   0  0  0  0  0  0  0  0  0  0  0  0
    4.3748    0.3296    0.9149 C   0  0  0  0  0  0  0  0  0  0  0  0
    5.3447    0.6733    2.0603 C   0  0  2  0  0  0  0  0  0  0  0  0
    4.6579    0.5709    3.4433 C   0  0  0  0  0  0  0  0  0  0  0  0
    6.0433    1.9723    1.9768 N   0  0  0  0  0  0  0  0  0  0  0  0
    3.8038   -0.2462    3.6989 O   0  0  0  0  0  0  0  0  0  0  0  0
    5.1299    1.4460    4.3444 O   0  0  0  0  0  0  0  0  0  0  0  0
    2.2100   -1.2080   -0.2914 H   0  0  0  0  0  0  0  0  0  0  0  0
    0.9284   -0.3774    0.5992 H   0  0  0  0  0  0  0  0  0  0  0  0
    0.8518   -0.4951   -1.1670 H   0  0  0  0  0  0  0  0  0  0  0  0
    1.5545    1.7931   -0.5496 H   0  0  0  0  0  0  0  0  0  0  0  0
    2.8779    0.9799   -1.3675 H   0  0  0  0  0  0  0  0  0  0  0  0
    2.6071    1.3092    1.6735 H   0  0  0  0  0  0  0  0  0  0  0  0
    3.5798    2.3287    0.6134 H   0  0  0  0  0  0  0  0  0  0  0  0
    4.9495    0.2791   -0.0211 H   0  0  0  0  0  0  0  0  0  0  0  0
    3.9918   -0.6764    1.1113 H   0  0  0  0  0  0  0  0  0  0  0  0
    6.1285   -0.0962    2.0820 H   0  0  0  0  0  0  0  0  0  0  0  0
    5.4237    2.6887    1.6014 H   0  0  0  0  0  0  0  0  0  0  0  0
    6.8451    1.9175    1.3537 H   0  0  0  0  0  0  0  0  0  0  0  0
    5.7905    1.9891    3.8443 H   0  0  0  0  0  0  0  0  0  0  0  0
  1 10  1  0  0  0  0
  1 11  1  0  0  0  0
  2  1  1  0  0  0  0
  2  3  1  0  0  0  0
  3  4  1  0  0  0  0
  3 15  1  0  0  0  0
  4 18  1  0  0  0  0
  4  5  1  0  0  0  0
  5 19  1  6  0  0  0
  5  6  1  0  0  0  0
  6  8  2  0  0  0  0
  6  9  1  0  0  0  0
  7  5  1  0  0  0  0
 12  1  1  0  0  0  0
 13  2  1  0  0  0  0
 14  2  1  0  0  0  0
 16  3  1  0  0  0  0
 17  4  1  0  0  0  0
 20  7  1  0  0  0  0
 21  7  1  0  0  0  0
 22  9  1  0  0  0  0
M  END
>  <HBA>
3

>  <HBD>
2

>  <TPSA>
63.32

>  <cid>
21236

>  <dipole>
5.16

>  <excitation_energy_1>
5.411

>  <excitation_energy_2>
6.135

>  <excitation_energy_3>
6.651

>  <excitation_energy_4>
6.764

>  <homo_energy>
-6.825

>  <homo_lumo_gap>
7.252

>  <logP>
1.289

>  <lumo_energy>
0.427

>  <melting_point>
104.84

>  <molecular_refractivity>
35.44

>  <oscillator_strength_1>
0.003

>  <oscillator_strength_2>
0.0136

>  <oscillator_strength_3>
0.0153

>  <oscillator_strength_4>
0.0127

>  <open_babel_can_smiles>
CCCC[C@H](C(=O)O)N

>  <mulliken_charges>
22
1   -0.444157
2   -0.251291
3   -0.269771
4   -0.256707
5   -0.098737
6   0.613921
7   -0.773906
8   -0.470692
9   -0.581919
10   0.147779
11   0.153974
12   0.143158
13   0.135241
14   0.127977
15   0.16203
16   0.109521
17   0.123598
18   0.173867
19   0.174579
20   0.326439
21   0.323019
22   0.432078

>  <lowdin_charges>
22
1   -0.447989
2   -0.271461
3   -0.282056
4   -0.284901
5   -0.112066
6   0.172358
7   -0.550401
8   -0.260554
9   -0.356108
10   0.148855
11   0.153078
12   0.151272
13   0.144785
14   0.137339
15   0.154484
16   0.128265
17   0.139199
18   0.166187
19   0.169179
20   0.267497
21   0.272201
22   0.360837

$$$$

