PCCDB-ID:  43
public computational chemistry database (PCCDB) project, http://pccdb.org

 18 17  0  0  1  0  0  0  0  0999 V2000
    1.1382   -0.1612   -0.0442 C   0  0  0  0  0  0  0  0  0  0  0  0
    0.4537   -0.4299    1.3058 C   0  0  0  0  0  0  0  0  0  0  0  0
    2.6686    0.0148   -0.0405 C   0  0  1  0  0  0  0  0  0  0  0  0
    0.7636   -1.7701    1.9494 C   0  0  0  0  0  0  0  0  0  0  0  0
    3.1418    0.9628    1.0827 C   0  0  0  0  0  0  0  0  0  0  0  0
    3.4177   -1.1963   -0.0047 O   0  0  0  0  0  0  0  0  0  0  0  0
    1.6525   -2.5246    1.6072 O   0  0  0  0  0  0  0  0  0  0  0  0
   -0.0176   -2.1208    2.9915 O   0  0  0  0  0  0  0  0  0  0  0  0
    2.5474    1.9700    1.3990 O   0  0  0  0  0  0  0  0  0  0  0  0
    4.2828    0.5675    1.6611 O   0  0  0  0  0  0  0  0  0  0  0  0
    0.7088    0.7673   -0.4321 H   0  0  0  0  0  0  0  0  0  0  0  0
    0.8938   -0.9544   -0.7594 H   0  0  0  0  0  0  0  0  0  0  0  0
   -0.6345   -0.3586    1.1716 H   0  0  0  0  0  0  0  0  0  0  0  0
    0.7238    0.3627    2.0169 H   0  0  0  0  0  0  0  0  0  0  0  0
    2.9408    0.5070   -0.9833 H   0  0  0  0  0  0  0  0  0  0  0  0
    2.9016   -1.8411    0.5301 H   0  0  0  0  0  0  0  0  0  0  0  0
   -0.6787   -1.4306    3.1683 H   0  0  0  0  0  0  0  0  0  0  0  0
    4.5018   -0.2913    1.2273 H   0  0  0  0  0  0  0  0  0  0  0  0
  1  3  1  0  0  0  0
  1  2  1  0  0  0  0
  2  4  1  0  0  0  0
  2 14  1  0  0  0  0
  3 15  1  6  0  0  0
  3  6  1  0  0  0  0
  3  5  1  0  0  0  0
  4  8  1  0  0  0  0
  5  9  2  0  0  0  0
  5 10  1  0  0  0  0
  6 16  1  0  0  0  0
  7  4  2  0  0  0  0
  8 17  1  0  0  0  0
 11  1  1  0  0  0  0
 12  1  1  0  0  0  0
 13  2  1  0  0  0  0
 18 10  1  0  0  0  0
M  END
>  <HBA>
5

>  <HBD>
3

>  <TPSA>
94.83

>  <cid>
43

>  <dipole>
4.22

>  <excitation_energy_1>
5.393

>  <excitation_energy_2>
5.736

>  <excitation_energy_3>
5.834

>  <excitation_energy_4>
6.001

>  <homo_energy>
-6.996

>  <homo_lumo_gap>
6.384

>  <logP>
-0.703

>  <lumo_energy>
-0.612

>  <melting_point>
147.04

>  <molecular_refractivity>
30.85

>  <oscillator_strength_1>
0.0025

>  <oscillator_strength_2>
0.0045

>  <oscillator_strength_3>
0.0006

>  <oscillator_strength_4>
0.0006

>  <open_babel_can_smiles>
OC(=O)CC[C@@H](C(=O)O)O

>  <mulliken_charges>
18
1   -0.28806
2   -0.431677
3   0.030919
4   0.627377
5   0.579482
6   -0.675333
7   -0.466274
8   -0.546921
9   -0.474023
10   -0.571208
11   0.174493
12   0.170368
13   0.169265
14   0.221926
15   0.18097
16   0.444005
17   0.423104
18   0.431587

>  <lowdin_charges>
18
1   -0.282188
2   -0.331405
3   -0.046293
4   0.211963
5   0.165477
6   -0.477904
7   -0.255462
8   -0.332408
9   -0.268401
10   -0.342293
11   0.174422
12   0.16501
13   0.166271
14   0.192241
15   0.170955
16   0.355924
17   0.368499
18   0.365594

$$$$

