PCCDB-ID:  68110
public computational chemistry database (PCCDB) project, http://pccdb.org

 19 20  0  0  0  0  0  0  0  0999 V2000
    2.4379    0.6898    0.0959 C   0  0  0  0  0  0  0  0  0  0  0  0
    2.3974   -0.7096   -0.0069 C   0  0  0  0  0  0  0  0  0  0  0  0
    1.2498    1.4047    0.1171 C   0  0  0  0  0  0  0  0  0  0  0  0
    1.1852   -1.3868   -0.0716 C   0  0  0  0  0  0  0  0  0  0  0  0
   -2.4958    0.6776   -0.2712 C   0  0  0  0  0  0  0  0  0  0  0  0
   -2.3444   -0.6950    0.3728 C   0  0  0  0  0  0  0  0  0  0  0  0
    0.0105    0.7452    0.0442 C   0  0  0  0  0  0  0  0  0  0  0  0
   -1.2491    1.5215   -0.0284 C   0  0  0  0  0  0  0  0  0  0  0  0
   -0.0132   -0.6629   -0.0369 C   0  0  0  0  0  0  0  0  0  0  0  0
   -1.2916    2.7390    0.0553 O   0  0  0  0  0  0  0  0  0  0  0  0
   -1.1717   -1.3772   -0.0976 O   0  0  0  0  0  0  0  0  0  0  0  0
    3.3916    1.2059    0.1512 H   0  0  0  0  0  0  0  0  0  0  0  0
    3.3240   -1.2773   -0.0294 H   0  0  0  0  0  0  0  0  0  0  0  0
    1.2378    2.4887    0.1766 H   0  0  0  0  0  0  0  0  0  0  0  0
    1.1393   -2.4691   -0.1378 H   0  0  0  0  0  0  0  0  0  0  0  0
   -3.3727    1.2055    0.1156 H   0  0  0  0  0  0  0  0  0  0  0  0
   -2.6254    0.5662   -1.3573 H   0  0  0  0  0  0  0  0  0  0  0  0
   -3.1793   -1.3567    0.1328 H   0  0  0  0  0  0  0  0  0  0  0  0
   -2.2758   -0.6001    1.4664 H   0  0  0  0  0  0  0  0  0  0  0  0
  1  3  1  0  0  0  0
  1 12  1  0  0  0  0
  2  1  2  0  0  0  0
  3 14  1  0  0  0  0
  4  9  2  0  0  0  0
  4  2  1  0  0  0  0
  5  8  1  0  0  0  0
  5 16  1  0  0  0  0
  5  6  1  0  0  0  0
  6 19  1  0  0  0  0
  7  3  2  0  0  0  0
  8  7  1  0  0  0  0
  8 10  2  0  0  0  0
  9  7  1  0  0  0  0
 11  9  1  0  0  0  0
 11  6  1  0  0  0  0
 13  2  1  0  0  0  0
 15  4  1  0  0  0  0
 17  5  1  0  0  0  0
 18  6  1  0  0  0  0
M  END
>  <HBA>
2

>  <HBD>
0

>  <TPSA>
26.3

>  <cid>
68110

>  <dipole>
2.28

>  <excitation_energy_1>
3.739

>  <excitation_energy_2>
4.077

>  <excitation_energy_3>
5.061

>  <excitation_energy_4>
5.749

>  <homo_energy>
-6.324

>  <homo_lumo_gap>
4.8

>  <logP>
1.652

>  <lumo_energy>
-1.524

>  <melting_point>
66.9

>  <molecular_refractivity>
41.01

>  <oscillator_strength_1>
0.0003

>  <oscillator_strength_2>
0.058

>  <oscillator_strength_3>
0.137

>  <oscillator_strength_4>
0.0026

>  <open_babel_can_smiles>
O=C1CCOc2c1cccc2

>  <mulliken_charges>
19
1   -0.13626
2   -0.124492
3   -0.171814
4   -0.182376
5   -0.375778
6   -0.057443
7   0.050386
8   0.401127
9   0.321526
10   -0.468531
11   -0.51721
12   0.136211
13   0.140002
14   0.164165
15   0.145049
16   0.174383
17   0.182204
18   0.163747
19   0.155103

>  <lowdin_charges>
19
1   -0.174983
2   -0.128329
3   -0.115083
4   -0.182265
5   -0.316844
6   -0.122571
7   -0.096019
8   0.148454
9   0.110718
10   -0.245243
11   -0.198144
12   0.161869
13   0.163554
14   0.174852
15   0.168155
16   0.175306
17   0.171889
18   0.161694
19   0.14299

$$$$

