PCCDB-ID:  58266
public computational chemistry database (PCCDB) project, http://pccdb.org

 24 25  0  0  0  0  0  0  0  0999 V2000
    1.7332    1.4322    1.2837 C   0  0  0  0  0  0  0  0  0  0  0  0
    2.7395   -0.7705    0.7714 C   0  0  0  0  0  0  0  0  0  0  0  0
    6.5971    0.6902   -4.0665 C   0  0  0  0  0  0  0  0  0  0  0  0
    5.7694    0.2577   -2.9932 C   0  0  0  0  0  0  0  0  0  0  0  0
    6.6326    1.9957   -4.4867 C   0  0  0  0  0  0  0  0  0  0  0  0
    3.3657    1.2206   -0.5247 C   0  0  0  0  0  0  0  0  0  0  0  0
    4.9306    1.1000   -2.2782 C   0  0  0  0  0  0  0  0  0  0  0  0
    5.7997    2.9215   -3.7994 C   0  0  0  0  0  0  0  0  0  0  0  0
    4.9465    2.4911   -2.6959 C   0  0  0  0  0  0  0  0  0  0  0  0
    4.1818    0.5347   -1.2592 N   0  0  0  0  0  0  0  0  0  0  0  0
    5.7071    4.2298   -4.0678 N   0  0  0  0  0  0  0  0  0  0  0  0
    4.2352    3.4913   -2.1635 N   0  0  0  0  0  0  0  0  0  0  0  0
    2.6392    0.6471    0.4701 N   0  0  0  0  0  0  0  0  0  0  0  0
    4.6245    4.8565   -3.0027 S   0  0  0  0  0  0  0  0  0  0  0  0
    0.7045    1.0551    1.2007 H   0  0  0  0  0  0  0  0  0  0  0  0
    1.7478    2.4746    0.9563 H   0  0  0  0  0  0  0  0  0  0  0  0
    2.0236    1.3952    2.3430 H   0  0  0  0  0  0  0  0  0  0  0  0
    1.7614   -1.2568    0.6577 H   0  0  0  0  0  0  0  0  0  0  0  0
    3.0811   -0.9202    1.8043 H   0  0  0  0  0  0  0  0  0  0  0  0
    3.4535   -1.2180    0.0807 H   0  0  0  0  0  0  0  0  0  0  0  0
    7.2185   -0.0501   -4.5635 H   0  0  0  0  0  0  0  0  0  0  0  0
    5.7783   -0.7874   -2.7006 H   0  0  0  0  0  0  0  0  0  0  0  0
    7.2574    2.3350   -5.3049 H   0  0  0  0  0  0  0  0  0  0  0  0
    3.1941    2.2917   -0.6375 H   0  0  0  0  0  0  0  0  0  0  0  0
  1 17  1  0  0  0  0
  2 19  1  0  0  0  0
  3  4  1  0  0  0  0
  4 22  1  0  0  0  0
  4  7  2  0  0  0  0
  5  3  2  0  0  0  0
  5  8  1  0  0  0  0
  6 13  1  0  0  0  0
  7 10  1  0  0  0  0
  8  9  1  0  0  0  0
  9  7  1  0  0  0  0
  9 12  2  0  0  0  0
 10  6  2  0  0  0  0
 11  8  2  0  0  0  0
 11 14  1  0  0  0  0
 13  2  1  0  0  0  0
 13  1  1  0  0  0  0
 14 12  1  0  0  0  0
 15  1  1  0  0  0  0
 16  1  1  0  0  0  0
 18  2  1  0  0  0  0
 20  2  1  0  0  0  0
 21  3  1  0  0  0  0
 23  5  1  0  0  0  0
 24  6  1  0  0  0  0
M  END
>  <HBA>
5

>  <HBD>
0

>  <TPSA>
69.62

>  <cid>
58266

>  <dipole>
3.73

>  <excitation_energy_1>
2.631

>  <excitation_energy_2>
3.757

>  <excitation_energy_3>
4.342

>  <excitation_energy_4>
4.475

>  <homo_energy>
-5.195

>  <homo_lumo_gap>
3.143

>  <logP>
1.913

>  <lumo_energy>
-2.052

>  <melting_point>
105.44

>  <molecular_refractivity>
59.13

>  <oscillator_strength_1>
0.1202

>  <oscillator_strength_2>
0.0

>  <oscillator_strength_3>
0.1102

>  <oscillator_strength_4>
0.0325

>  <open_babel_can_smiles>
CN(/C=N/c1cccc2c1nsn2)C

>  <mulliken_charges>
24
1   -0.311566
2   -0.320928
3   -0.139524
4   -0.191873
5   -0.142486
6   0.263721
7   0.317806
8   0.239537
9   0.229162
10   -0.584883
11   -0.557395
12   -0.597073
13   -0.368448
14   0.551043
15   0.160695
16   0.173621
17   0.160593
18   0.154053
19   0.154056
20   0.209611
21   0.135133
22   0.134331
23   0.143909
24   0.186905

>  <lowdin_charges>
24
1   -0.343089
2   -0.356387
3   -0.143545
4   -0.177504
5   -0.182546
6   -0.02167
7   0.045399
8   0.008453
9   -0.012976
10   -0.233055
11   -0.335423
12   -0.351399
13   -0.074126
14   0.563858
15   0.150388
16   0.164694
17   0.149813
18   0.150511
19   0.149621
20   0.187532
21   0.163383
22   0.164736
23   0.170892
24   0.162438

$$$$

