PCCDB-ID:  9203
public computational chemistry database (PCCDB) project, http://pccdb.org

 27 30  0  0  0  0  0  0  0  0999 V2000
   -4.3033   -1.2318   -0.0008 C   0  0  0  0  0  0  0  0  0  0  0  0
   -4.6324    0.1483    0.0008 C   0  0  0  0  0  0  0  0  0  0  0  0
    3.9962   -1.4803   -0.0026 C   0  0  0  0  0  0  0  0  0  0  0  0
    4.6809   -0.2567   -0.0021 C   0  0  0  0  0  0  0  0  0  0  0  0
   -2.9873   -1.6296   -0.0014 C   0  0  0  0  0  0  0  0  0  0  0  0
   -3.6394    1.0998    0.0016 C   0  0  0  0  0  0  0  0  0  0  0  0
    2.6050   -1.5102   -0.0020 C   0  0  0  0  0  0  0  0  0  0  0  0
    3.9822    0.9494   -0.0007 C   0  0  0  0  0  0  0  0  0  0  0  0
   -0.5716   -1.0618   -0.0011 C   0  0  0  0  0  0  0  0  0  0  0  0
   -1.2278    1.6895    0.0019 C   0  0  0  0  0  0  0  0  0  0  0  0
   -1.9323   -0.6739   -0.0004 C   0  0  0  0  0  0  0  0  0  0  0  0
   -2.2669    0.7252    0.0011 C   0  0  0  0  0  0  0  0  0  0  0  0
    1.8806   -0.3099   -0.0010 C   0  0  0  0  0  0  0  0  0  0  0  0
    0.4360   -0.1141   -0.0001 C   0  0  0  0  0  0  0  0  0  0  0  0
    2.5873    0.9126   -0.0002 C   0  0  0  0  0  0  0  0  0  0  0  0
    0.0846    1.2741    0.0015 C   0  0  0  0  0  0  0  0  0  0  0  0
    1.5131    2.3221    0.0021 S   0  0  0  0  0  0  0  0  0  0  0  0
   -5.0972   -1.9736   -0.0015 H   0  0  0  0  0  0  0  0  0  0  0  0
   -5.6759    0.4514    0.0012 H   0  0  0  0  0  0  0  0  0  0  0  0
    4.5555   -2.4115   -0.0039 H   0  0  0  0  0  0  0  0  0  0  0  0
    5.7673   -0.2449   -0.0031 H   0  0  0  0  0  0  0  0  0  0  0  0
   -2.7313   -2.6866   -0.0026 H   0  0  0  0  0  0  0  0  0  0  0  0
   -3.8907    2.1579    0.0029 H   0  0  0  0  0  0  0  0  0  0  0  0
    2.0799   -2.4617   -0.0023 H   0  0  0  0  0  0  0  0  0  0  0  0
    4.5135    1.8966   -0.0004 H   0  0  0  0  0  0  0  0  0  0  0  0
   -0.3282   -2.1217   -0.0024 H   0  0  0  0  0  0  0  0  0  0  0  0
   -1.4830    2.7460    0.0026 H   0  0  0  0  0  0  0  0  0  0  0  0
  1  2  1  0  0  0  0
  2 19  1  0  0  0  0
  2  6  2  0  0  0  0
  3  4  2  0  0  0  0
  3  7  1  0  0  0  0
  4  8  1  0  0  0  0
  5  1  2  0  0  0  0
  5 11  1  0  0  0  0
  6 23  1  0  0  0  0
  7 13  2  0  0  0  0
  8 25  1  0  0  0  0
  8 15  2  0  0  0  0
  9 11  2  0  0  0  0
  9 14  1  0  0  0  0
 10 27  1  0  0  0  0
 11 12  1  0  0  0  0
 12  6  1  0  0  0  0
 12 10  2  0  0  0  0
 13 15  1  0  0  0  0
 13 14  1  0  0  0  0
 14 16  2  0  0  0  0
 15 17  1  0  0  0  0
 16 10  1  0  0  0  0
 16 17  1  0  0  0  0
 18  1  1  0  0  0  0
 20  3  1  0  0  0  0
 21  4  1  0  0  0  0
 22  5  1  0  0  0  0
 24  7  1  0  0  0  0
 26  9  1  0  0  0  0
M  END
>  <HBA>
1

>  <HBD>
0

>  <TPSA>
28.24

>  <cid>
9203

>  <dipole>
0.99

>  <excitation_energy_1>
3.446

>  <excitation_energy_2>
3.927

>  <excitation_energy_3>
4.388

>  <excitation_energy_4>
4.484

>  <homo_energy>
-5.434

>  <homo_lumo_gap>
4.003

>  <logP>
5.208

>  <lumo_energy>
-1.431

>  <melting_point>
137.56

>  <molecular_refractivity>
76.84

>  <oscillator_strength_1>
0.0319

>  <oscillator_strength_2>
0.0488

>  <oscillator_strength_3>
0.114

>  <oscillator_strength_4>
0.276

>  <open_babel_can_smiles>
c1ccc2c(c1)cc1c(c2)sc2c1cccc2

>  <mulliken_charges>
27
1   -0.139789
2   -0.135459
3   -0.147724
4   -0.1129
5   -0.186417
6   -0.19314
7   -0.162754
8   -0.184721
9   -0.255578
10   -0.264808
11   0.127514
12   0.159944
13   0.109144
14   0.113422
15   -0.144095
16   -0.133853
17   0.207884
18   0.130864
19   0.131255
20   0.133016
21   0.134231
22   0.129648
23   0.130795
24   0.134611
25   0.143025
26   0.134166
27   0.141719

>  <lowdin_charges>
27
1   -0.161907
2   -0.155199
3   -0.161894
4   -0.147648
5   -0.153473
6   -0.156223
7   -0.151359
8   -0.163938
9   -0.153399
10   -0.166652
11   -0.001929
12   0.004343
13   -0.018527
14   -0.016609
15   -0.121591
16   -0.123652
17   0.250618
18   0.160179
19   0.158195
20   0.160421
21   0.159259
22   0.156281
23   0.156784
24   0.160431
25   0.165803
26   0.158211
27   0.163477

$$$$

