PCCDB-ID:  16664
public computational chemistry database (PCCDB) project, http://pccdb.org

 29 28  0  0  1  0  0  0  0  0999 V2000
    1.8371   -0.7353   -1.4099 C   0  0  0  0  0  0  0  0  0  0  0  0
    8.7444   -3.0847    3.8678 C   0  0  0  0  0  0  0  0  0  0  0  0
    7.5726   -0.4938    2.5520 C   0  0  0  0  0  0  0  0  0  0  0  0
    3.3232   -0.6167   -1.0567 C   0  0  0  0  0  0  0  0  0  0  0  0
    7.2725   -2.8368    3.5178 C   0  0  0  0  0  0  0  0  0  0  0  0
    3.6913   -1.3167    0.2579 C   0  0  0  0  0  0  0  0  0  0  0  0
    5.1782   -1.2007    0.6203 C   0  0  0  0  0  0  0  0  0  0  0  0
    5.5334   -1.9030    1.9384 C   0  0  0  0  0  0  0  0  0  0  0  0
    7.0322   -1.9117    2.3060 C   0  0  1  0  0  0  0  0  0  0  0  0
    1.6069   -0.2254   -2.3525 H   0  0  0  0  0  0  0  0  0  0  0  0
    1.2073   -0.2916   -0.6289 H   0  0  0  0  0  0  0  0  0  0  0  0
    1.5380   -1.7852   -1.5179 H   0  0  0  0  0  0  0  0  0  0  0  0
    8.8340   -3.8134    4.6817 H   0  0  0  0  0  0  0  0  0  0  0  0
    9.2525   -2.1701    4.1924 H   0  0  0  0  0  0  0  0  0  0  0  0
    9.2946   -3.4823    3.0055 H   0  0  0  0  0  0  0  0  0  0  0  0
    8.6445   -0.5022    2.7753 H   0  0  0  0  0  0  0  0  0  0  0  0
    7.0582   -0.0243    3.4015 H   0  0  0  0  0  0  0  0  0  0  0  0
    7.4294    0.1515    1.6791 H   0  0  0  0  0  0  0  0  0  0  0  0
    3.6010    0.4451   -0.9912 H   0  0  0  0  0  0  0  0  0  0  0  0
    3.9279   -1.0378   -1.8726 H   0  0  0  0  0  0  0  0  0  0  0  0
    6.7530   -2.4199    4.3936 H   0  0  0  0  0  0  0  0  0  0  0  0
    6.7927   -3.8045    3.3149 H   0  0  0  0  0  0  0  0  0  0  0  0
    3.4134   -2.3794    0.1927 H   0  0  0  0  0  0  0  0  0  0  0  0
    3.0844   -0.8958    1.0736 H   0  0  0  0  0  0  0  0  0  0  0  0
    5.4472   -0.1372    0.6725 H   0  0  0  0  0  0  0  0  0  0  0  0
    5.7827   -1.6284   -0.1938 H   0  0  0  0  0  0  0  0  0  0  0  0
    5.1835   -2.9443    1.8813 H   0  0  0  0  0  0  0  0  0  0  0  0
    4.9662   -1.4395    2.7607 H   0  0  0  0  0  0  0  0  0  0  0  0
    7.5808   -2.3390    1.4505 H   0  0  0  0  0  0  0  0  0  0  0  0
  1  4  1  0  0  0  0
  1 11  1  0  0  0  0
  2 14  1  0  0  0  0
  2 13  1  0  0  0  0
  3 16  1  0  0  0  0
  3 17  1  0  0  0  0
  4 19  1  0  0  0  0
  4  6  1  0  0  0  0
  5  2  1  0  0  0  0
  5 21  1  0  0  0  0
  6  7  1  0  0  0  0
  6 24  1  0  0  0  0
  7 25  1  0  0  0  0
  7  8  1  0  0  0  0
  8  9  1  0  0  0  0
  8 28  1  0  0  0  0
  9 29  1  6  0  0  0
  9  3  1  0  0  0  0
  9  5  1  0  0  0  0
 10  1  1  0  0  0  0
 12  1  1  0  0  0  0
 15  2  1  0  0  0  0
 18  3  1  0  0  0  0
 20  4  1  0  0  0  0
 22  5  1  0  0  0  0
 23  6  1  0  0  0  0
 26  7  1  0  0  0  0
 27  8  1  0  0  0  0
M  END
>  <HBA>
0

>  <HBD>
0

>  <TPSA>
0.0

>  <cid>
16664

>  <dipole>
0.05

>  <excitation_energy_1>
7.609

>  <excitation_energy_2>
7.891

>  <excitation_energy_3>
7.951

>  <excitation_energy_4>
7.99

>  <homo_energy>
-7.938

>  <homo_lumo_gap>
10.294

>  <logP>
3.613

>  <lumo_energy>
2.357

>  <melting_point>
-28.56

>  <molecular_refractivity>
45.38

>  <oscillator_strength_1>
0.0006

>  <oscillator_strength_2>
0.0018

>  <oscillator_strength_3>
0.0236

>  <oscillator_strength_4>
0.0146

>  <open_babel_can_smiles>
CCCCC[C@H](CC)C

>  <mulliken_charges>
29
1   -0.44115
2   -0.448367
3   -0.453865
4   -0.246674
5   -0.246165
6   -0.245992
7   -0.258918
8   -0.252835
9   -0.062591
10   0.140866
11   0.140844
12   0.140869
13   0.141276
14   0.145541
15   0.140217
16   0.143891
17   0.136234
18   0.145037
19   0.129361
20   0.129456
21   0.126068
22   0.127429
23   0.125776
24   0.126231
25   0.131375
26   0.125436
27   0.123791
28   0.122916
29   0.113943

>  <lowdin_charges>
29
1   -0.444519
2   -0.448951
3   -0.448782
4   -0.271625
5   -0.273925
6   -0.273554
7   -0.275979
8   -0.275173
9   -0.124083
10   0.1488
11   0.147063
12   0.144775
13   0.150265
14   0.147642
15   0.146479
16   0.147688
17   0.145166
18   0.149801
19   0.136739
20   0.139364
21   0.138175
22   0.139304
23   0.135072
24   0.138057
25   0.137444
26   0.137806
27   0.13694
28   0.137282
29   0.132728

$$$$

