PCCDB-ID:  20935
public computational chemistry database (PCCDB) project, http://pccdb.org

 18 18  0  0  0  0  0  0  0  0999 V2000
    0.7333    1.2955   -0.2182 C   0  0  0  0  0  0  0  0  0  0  0  0
    1.5044    0.0373    0.2106 C   0  0  0  0  0  0  0  0  0  0  0  0
   -0.7195    1.2285    0.2782 C   0  0  0  0  0  0  0  0  0  0  0  0
    0.7596   -1.2320   -0.2300 C   0  0  0  0  0  0  0  0  0  0  0  0
   -1.3847   -0.0838   -0.1638 C   0  0  0  0  0  0  0  0  0  0  0  0
   -0.6442   -1.3007    0.2114 N   0  0  0  0  0  0  0  0  0  0  0  0
   -0.6145   -1.3301    1.6692 O   0  0  0  0  0  0  0  0  0  0  0  0
    0.7404    1.3709   -1.3165 H   0  0  0  0  0  0  0  0  0  0  0  0
    1.2283    2.1985    0.1602 H   0  0  0  0  0  0  0  0  0  0  0  0
    1.6123    0.0227    1.3017 H   0  0  0  0  0  0  0  0  0  0  0  0
    2.5161    0.0353   -0.2153 H   0  0  0  0  0  0  0  0  0  0  0  0
   -1.3010    2.0798   -0.0989 H   0  0  0  0  0  0  0  0  0  0  0  0
   -0.7394    1.2825    1.3733 H   0  0  0  0  0  0  0  0  0  0  0  0
    1.2599   -2.1344    0.1354 H   0  0  0  0  0  0  0  0  0  0  0  0
    0.7313   -1.2925   -1.3272 H   0  0  0  0  0  0  0  0  0  0  0  0
   -1.4734   -0.1133   -1.2590 H   0  0  0  0  0  0  0  0  0  0  0  0
   -2.3941   -0.1771    0.2493 H   0  0  0  0  0  0  0  0  0  0  0  0
   -1.0606   -2.1712    1.8551 H   0  0  0  0  0  0  0  0  0  0  0  0
  1  9  1  0  0  0  0
  1  2  1  0  0  0  0
  1  3  1  0  0  0  0
  2 10  1  0  0  0  0
  3 13  1  0  0  0  0
  4 14  1  0  0  0  0
  4  2  1  0  0  0  0
  4  6  1  0  0  0  0
  5  6  1  0  0  0  0
  5 17  1  0  0  0  0
  5  3  1  0  0  0  0
  6  7  1  0  0  0  0
  7 18  1  0  0  0  0
  8  1  1  0  0  0  0
 11  2  1  0  0  0  0
 12  3  1  0  0  0  0
 15  4  1  0  0  0  0
 16  5  1  0  0  0  0
M  END
>  <HBA>
2

>  <HBD>
1

>  <TPSA>
23.47

>  <cid>
20935

>  <dipole>
0.47

>  <excitation_energy_1>
5.379

>  <excitation_energy_2>
6.05

>  <excitation_energy_3>
6.121

>  <excitation_energy_4>
6.162

>  <homo_energy>
-5.85

>  <homo_lumo_gap>
7.815

>  <logP>
0.799

>  <lumo_energy>
1.965

>  <melting_point>
53.22

>  <molecular_refractivity>
31.58

>  <oscillator_strength_1>
0.007

>  <oscillator_strength_2>
0.0025

>  <oscillator_strength_3>
0.0001

>  <oscillator_strength_4>
0.0198

>  <open_babel_can_smiles>
ON1CCCCC1

>  <mulliken_charges>
18
1   -0.262563
2   -0.265911
3   -0.265778
4   -0.116801
5   -0.117038
6   -0.223771
7   -0.531667
8   0.123222
9   0.13323
10   0.155037
11   0.128163
12   0.128165
13   0.154966
14   0.140921
15   0.136077
16   0.136138
17   0.140936
18   0.406673

>  <lowdin_charges>
18
1   -0.276373
2   -0.290816
3   -0.292889
4   -0.211489
5   -0.209994
6   -0.080616
7   -0.431862
8   0.132281
9   0.144921
10   0.149704
11   0.143842
12   0.14548
13   0.149591
14   0.149271
15   0.14129
16   0.141343
17   0.147717
18   0.348598

$$$$

