PCCDB-ID:  17282
public computational chemistry database (PCCDB) project, http://pccdb.org

 22 21  0  0  0  0  0  0  0  0999 V2000
    1.9678   -1.2434    3.1578 C   0  0  0  0  0  0  0  0  0  0  0  0
    4.4794   -0.5384   -1.5929 C   0  0  0  0  0  0  0  0  0  0  0  0
    7.5519   -1.1303    2.2073 C   0  0  0  0  0  0  0  0  0  0  0  0
    2.8921   -2.0979    2.3050 C   0  0  0  0  0  0  0  0  0  0  0  0
    4.6593    0.3704   -0.3721 C   0  0  0  0  0  0  0  0  0  0  0  0
    4.8741    0.4433    2.4236 O   0  0  0  0  0  0  0  0  0  0  0  0
    3.3759   -1.3589    1.1529 O   0  0  0  0  0  0  0  0  0  0  0  0
    4.7281   -0.4685    1.2501 P   0  0  1  0  0  0  0  0  0  0  0  0
    6.2564   -1.9590    1.1936 S   0  0  0  0  0  0  0  0  0  0  0  0
    1.5718   -1.8407    3.9879 H   0  0  0  0  0  0  0  0  0  0  0  0
    1.1237   -0.8770    2.5643 H   0  0  0  0  0  0  0  0  0  0  0  0
    2.5079   -0.3856    3.5678 H   0  0  0  0  0  0  0  0  0  0  0  0
    4.4605    0.0625   -2.5086 H   0  0  0  0  0  0  0  0  0  0  0  0
    3.5420   -1.0979   -1.5309 H   0  0  0  0  0  0  0  0  0  0  0  0
    5.3022   -1.2556   -1.6783 H   0  0  0  0  0  0  0  0  0  0  0  0
    8.1425   -1.9227    2.6722 H   0  0  0  0  0  0  0  0  0  0  0  0
    7.0738   -0.5190    2.9741 H   0  0  0  0  0  0  0  0  0  0  0  0
    8.1987   -0.5116    1.5818 H   0  0  0  0  0  0  0  0  0  0  0  0
    2.3690   -2.9610    1.8838 H   0  0  0  0  0  0  0  0  0  0  0  0
    3.7448   -2.4684    2.8846 H   0  0  0  0  0  0  0  0  0  0  0  0
    3.8338    1.0884   -0.2863 H   0  0  0  0  0  0  0  0  0  0  0  0
    5.5833    0.9562   -0.4428 H   0  0  0  0  0  0  0  0  0  0  0  0
  1 12  1  0  0  0  0
  1 10  1  0  0  0  0
  2 14  1  0  0  0  0
  2  5  1  0  0  0  0
  3 16  1  0  0  0  0
  3 17  1  0  0  0  0
  4 20  1  0  0  0  0
  4  1  1  0  0  0  0
  5 21  1  0  0  0  0
  5  8  1  0  0  0  0
  7  8  1  0  0  0  0
  7  4  1  0  0  0  0
  8  6  2  1  0  0  0
  9  8  1  0  0  0  0
  9  3  1  0  0  0  0
 11  1  1  0  0  0  0
 13  2  1  0  0  0  0
 15  2  1  0  0  0  0
 18  3  1  0  0  0  0
 19  4  1  0  0  0  0
 22  5  1  0  0  0  0
M  END
>  <HBA>
3

>  <HBD>
0

>  <TPSA>
61.41

>  <cid>
17282

>  <dipole>
1.25

>  <excitation_energy_1>
5.398

>  <excitation_energy_2>
6.064

>  <excitation_energy_3>
6.386

>  <excitation_energy_4>
6.448

>  <homo_energy>
-6.705

>  <homo_lumo_gap>
7.113

>  <logP>
2.599

>  <lumo_energy>
0.408

>  <melting_point>
-12.79

>  <molecular_refractivity>
43.49

>  <oscillator_strength_1>
0.0027

>  <oscillator_strength_2>
0.0238

>  <oscillator_strength_3>
0.0525

>  <oscillator_strength_4>
0.0037

>  <open_babel_can_smiles>
CCO[P@@](=O)(SC)CC

>  <mulliken_charges>
22
1   -0.459501
2   -0.461179
3   -0.59801
4   -0.040689
5   -0.457635
6   -0.560408
7   -0.549223
8   0.934431
9   -0.107825
10   0.146007
11   0.156491
12   0.193522
13   0.154526
14   0.173587
15   0.17369
16   0.187426
17   0.231681
18   0.185096
19   0.157407
20   0.166977
21   0.191457
22   0.182173

>  <lowdin_charges>
22
1   -0.458447
2   -0.444217
3   -0.540894
4   -0.119801
5   -0.44346
6   -0.599642
7   -0.404169
8   0.893925
9   -0.071559
10   0.157409
11   0.157376
12   0.17522
13   0.156678
14   0.163805
15   0.164125
16   0.176683
17   0.194105
18   0.168402
19   0.15432
20   0.157733
21   0.183994
22   0.178416

$$$$

