PCCDB-ID:  11829
public computational chemistry database (PCCDB) project, http://pccdb.org

 19 20  0  0  0  0  0  0  0  0999 V2000
    2.3851   -0.6632    0.1143 C   0  0  0  0  0  0  0  0  0  0  0  0
   -2.4804    0.5669   -0.1586 C   0  0  0  0  0  0  0  0  0  0  0  0
   -1.3649    1.3680   -0.0944 C   0  0  0  0  0  0  0  0  0  0  0  0
    1.2020   -1.3580    0.0195 C   0  0  0  0  0  0  0  0  0  0  0  0
    2.3731    0.7453    0.1382 C   0  0  0  0  0  0  0  0  0  0  0  0
   -2.3282   -0.8395   -0.1786 C   0  0  0  0  0  0  0  0  0  0  0  0
   -0.0787    0.7626   -0.0444 C   0  0  0  0  0  0  0  0  0  0  0  0
   -0.0406   -0.6742   -0.0523 C   0  0  0  0  0  0  0  0  0  0  0  0
    1.1811    1.4341    0.0497 C   0  0  0  0  0  0  0  0  0  0  0  0
   -1.1623   -1.4477   -0.1246 N   0  0  0  0  0  0  0  0  0  0  0  0
    1.2899    2.9045    0.0489 N   0  0  0  0  0  0  0  0  0  0  0  0
    2.3144    3.3997    0.5180 O   0  0  0  0  0  0  0  0  0  0  0  0
    0.3678    3.5638   -0.4360 O   0  0  0  0  0  0  0  0  0  0  0  0
    3.3335   -1.1882    0.1704 H   0  0  0  0  0  0  0  0  0  0  0  0
   -3.4734    1.0043   -0.1965 H   0  0  0  0  0  0  0  0  0  0  0  0
   -1.4542    2.4445   -0.0851 H   0  0  0  0  0  0  0  0  0  0  0  0
    1.1714   -2.4425    0.0001 H   0  0  0  0  0  0  0  0  0  0  0  0
    3.2944    1.3084    0.2190 H   0  0  0  0  0  0  0  0  0  0  0  0
   -3.2069   -1.4808   -0.2364 H   0  0  0  0  0  0  0  0  0  0  0  0
  1  5  1  0  0  0  0
  1 14  1  0  0  0  0
  2  3  1  0  0  0  0
  3 16  1  0  0  0  0
  3  7  2  0  0  0  0
  4  1  2  0  0  0  0
  5 18  1  0  0  0  0
  6  2  2  0  0  0  0
  6 10  1  0  0  0  0
  7  9  1  0  0  0  0
  8  7  1  0  0  0  0
  8  4  1  0  0  0  0
  9  5  2  0  0  0  0
 10  8  2  0  0  0  0
 11  9  1  0  0  0  0
 11 12  2  0  0  0  0
 13 11  2  0  0  0  0
 15  2  1  0  0  0  0
 17  4  1  0  0  0  0
 19  6  1  0  0  0  0
M  END
>  <HBA>
1

>  <HBD>
0

>  <TPSA>
58.71

>  <cid>
11829

>  <dipole>
2.62

>  <excitation_energy_1>
3.597

>  <excitation_energy_2>
3.681

>  <excitation_energy_3>
3.884

>  <excitation_energy_4>
3.971

>  <homo_energy>
-7.037

>  <homo_lumo_gap>
4.313

>  <logP>
2.666

>  <lumo_energy>
-2.724

>  <melting_point>
102.95

>  <molecular_refractivity>
50.56

>  <oscillator_strength_1>
0.047

>  <oscillator_strength_2>
0.0014

>  <oscillator_strength_3>
0.1041

>  <oscillator_strength_4>
0.0411

>  <open_babel_can_smiles>
O=N(=O)c1cccc2c1cccn2

>  <mulliken_charges>
19
1   -0.147143
2   -0.153682
3   -0.127482
4   -0.112728
5   -0.146699
6   0.054098
7   0.129976
8   0.218871
9   0.196273
10   -0.493908
11   0.361308
12   -0.385043
13   -0.395255
14   0.154826
15   0.150945
16   0.193353
17   0.162562
18   0.188146
19   0.151581

>  <lowdin_charges>
19
1   -0.151202
2   -0.166914
3   -0.123352
4   -0.11941
5   -0.128786
6   -0.07814
7   -0.01137
8   0.045419
9   0.002358
10   -0.144032
11   0.309912
12   -0.244276
13   -0.249315
14   0.171581
15   0.170652
16   0.186925
17   0.177207
18   0.190409
19   0.162332

$$$$

