PCCDB-ID:  36644
public computational chemistry database (PCCDB) project, http://pccdb.org

 25 25  0  0  1  0  0  0  0  0999 V2000
    0.9461   -0.1051    0.0035 C   0  0  0  0  0  0  0  0  0  0  0  0
    2.3816    2.4813   -0.1714 C   0  0  0  0  0  0  0  0  0  0  0  0
    7.1573   -0.0911   -2.0533 C   0  0  0  0  0  0  0  0  0  0  0  0
    3.1930   -1.2426   -0.1681 C   0  0  0  0  0  0  0  0  0  0  0  0
    4.5823   -1.2272   -0.2865 C   0  0  0  0  0  0  0  0  0  0  0  0
    4.5281    1.1731   -0.3421 C   0  0  0  0  0  0  0  0  0  0  0  0
    2.4499   -0.0585   -0.1320 C   0  0  0  0  0  0  0  0  0  0  0  0
    3.1354    1.1724   -0.2173 C   0  0  0  0  0  0  0  0  0  0  0  0
    6.7716    0.0032   -0.5696 C   0  0  2  0  0  0  0  0  0  0  0  0
    5.2667   -0.0140   -0.3803 C   0  0  0  0  0  0  0  0  0  0  0  0
    7.2832    1.2054    0.0094 O   0  0  0  0  0  0  0  0  0  0  0  0
    0.5872   -1.1377    0.0546 H   0  0  0  0  0  0  0  0  0  0  0  0
    0.4449    0.3801   -0.8445 H   0  0  0  0  0  0  0  0  0  0  0  0
    0.6016    0.4122    0.9087 H   0  0  0  0  0  0  0  0  0  0  0  0
    3.0661    3.3318   -0.2435 H   0  0  0  0  0  0  0  0  0  0  0  0
    1.8115    2.5901    0.7607 H   0  0  0  0  0  0  0  0  0  0  0  0
    1.6579    2.5641   -0.9931 H   0  0  0  0  0  0  0  0  0  0  0  0
    6.7708   -1.0116   -2.5037 H   0  0  0  0  0  0  0  0  0  0  0  0
    8.2498   -0.0924   -2.1723 H   0  0  0  0  0  0  0  0  0  0  0  0
    6.7478    0.7627   -2.6035 H   0  0  0  0  0  0  0  0  0  0  0  0
    2.6736   -2.1957   -0.0924 H   0  0  0  0  0  0  0  0  0  0  0  0
    5.1329   -2.1659   -0.3014 H   0  0  0  0  0  0  0  0  0  0  0  0
    5.0601    2.1181   -0.3942 H   0  0  0  0  0  0  0  0  0  0  0  0
    7.1937   -0.8704   -0.0449 H   0  0  0  0  0  0  0  0  0  0  0  0
    8.2218    1.2622   -0.2266 H   0  0  0  0  0  0  0  0  0  0  0  0
  1 12  1  0  0  0  0
  1 14  1  0  0  0  0
  2 16  1  0  0  0  0
  3  9  1  0  0  0  0
  4  7  1  0  0  0  0
  4 21  1  0  0  0  0
  5  4  2  0  0  0  0
  6  8  1  0  0  0  0
  7  1  1  0  0  0  0
  8  2  1  0  0  0  0
  8  7  2  0  0  0  0
  9 10  1  0  0  0  0
  9 24  1  1  0  0  0
  9 11  1  0  0  0  0
 10  6  2  0  0  0  0
 10  5  1  0  0  0  0
 13  1  1  0  0  0  0
 15  2  1  0  0  0  0
 17  2  1  0  0  0  0
 18  3  1  0  0  0  0
 19  3  1  0  0  0  0
 20  3  1  0  0  0  0
 22  5  1  0  0  0  0
 23  6  1  0  0  0  0
 25 11  1  0  0  0  0
M  END
>  <HBA>
1

>  <HBD>
1

>  <TPSA>
20.23

>  <cid>
36644

>  <dipole>
1.22

>  <excitation_energy_1>
5.166

>  <excitation_energy_2>
5.541

>  <excitation_energy_3>
5.701

>  <excitation_energy_4>
5.875

>  <homo_energy>
-6.038

>  <homo_lumo_gap>
6.253

>  <logP>
2.357

>  <lumo_energy>
0.215

>  <melting_point>
34.78

>  <molecular_refractivity>
47.31

>  <oscillator_strength_1>
0.0006

>  <oscillator_strength_2>
0.0217

>  <oscillator_strength_3>
0.0511

>  <oscillator_strength_4>
0.0033

>  <open_babel_can_smiles>
C[C@H](c1ccc(c(c1)C)C)O

>  <mulliken_charges>
25
1   -0.532305
2   -0.531959
3   -0.458666
4   -0.187884
5   -0.184409
6   -0.234217
7   0.134224
8   0.132779
9   0.079801
10   0.151493
11   -0.628248
12   0.152438
13   0.157204
14   0.158225
15   0.156497
16   0.157499
17   0.155709
18   0.152206
19   0.130231
20   0.160405
21   0.117079
22   0.115027
23   0.139199
24   0.11825
25   0.389424

>  <lowdin_charges>
25
1   -0.442159
2   -0.44212
3   -0.457861
4   -0.167666
5   -0.173842
6   -0.168176
7   -0.010476
8   -0.007382
9   0.005427
10   -0.013301
11   -0.460286
12   0.154878
13   0.157916
14   0.157931
15   0.158215
16   0.1574
17   0.156851
18   0.15832
19   0.139876
20   0.158778
21   0.151841
22   0.151366
23   0.163778
24   0.129893
25   0.3408

$$$$

