PCCDB-ID:  13909
public computational chemistry database (PCCDB) project, http://pccdb.org

 26 26  0  0  0  0  0  0  0  0999 V2000
    6.4355    2.1479   -2.2272 C   0  0  0  0  0  0  0  0  0  0  0  0
    1.9775   -0.5221    2.5112 C   0  0  0  0  0  0  0  0  0  0  0  0
    6.2519    2.2802   -0.7243 C   0  0  0  0  0  0  0  0  0  0  0  0
    1.0629   -1.8508   -0.7003 C   0  0  0  0  0  0  0  0  0  0  0  0
    4.2752   -0.6169    0.4921 C   0  0  0  0  0  0  0  0  0  0  0  0
    1.8740   -1.0409    1.1151 C   0  0  0  0  0  0  0  0  0  0  0  0
    2.3952   -1.5931   -0.9424 C   0  0  0  0  0  0  0  0  0  0  0  0
    4.5214    0.7566   -0.1341 C   0  0  0  0  0  0  0  0  0  0  0  0
    0.7503   -1.5061    0.5749 N   0  0  0  0  0  0  0  0  0  0  0  0
    2.9226   -1.0836    0.2392 N   0  0  0  0  0  0  0  0  0  0  0  0
    3.1213   -1.7707   -2.1458 N   0  0  0  0  0  0  0  0  0  0  0  0
    3.6474    1.4979   -0.5184 O   0  0  0  0  0  0  0  0  0  0  0  0
    2.5193   -2.2825   -3.0919 O   0  0  0  0  0  0  0  0  0  0  0  0
    4.3075   -1.4025   -2.1820 O   0  0  0  0  0  0  0  0  0  0  0  0
    5.8369    1.0134   -0.1417 O   0  0  0  0  0  0  0  0  0  0  0  0
    6.8019    3.0955   -2.6384 H   0  0  0  0  0  0  0  0  0  0  0  0
    5.4865    1.9051   -2.7131 H   0  0  0  0  0  0  0  0  0  0  0  0
    7.1615    1.3641   -2.4640 H   0  0  0  0  0  0  0  0  0  0  0  0
    0.9919   -0.6036    2.9727 H   0  0  0  0  0  0  0  0  0  0  0  0
    2.2849    0.5302    2.5286 H   0  0  0  0  0  0  0  0  0  0  0  0
    2.6907   -1.0948    3.1170 H   0  0  0  0  0  0  0  0  0  0  0  0
    5.5066    3.0388   -0.4745 H   0  0  0  0  0  0  0  0  0  0  0  0
    7.1918    2.5110   -0.2178 H   0  0  0  0  0  0  0  0  0  0  0  0
    0.3419   -2.2614   -1.3920 H   0  0  0  0  0  0  0  0  0  0  0  0
    4.4133   -0.5421    1.5741 H   0  0  0  0  0  0  0  0  0  0  0  0
    5.0011   -1.3287    0.1031 H   0  0  0  0  0  0  0  0  0  0  0  0
  1  3  1  0  0  0  0
  2 20  1  0  0  0  0
  2 19  1  0  0  0  0
  2 21  1  0  0  0  0
  3 22  1  0  0  0  0
  3 23  1  0  0  0  0
  3 15  1  0  0  0  0
  4  9  1  0  0  0  0
  5 25  1  0  0  0  0
  6  2  1  0  0  0  0
  7  4  2  0  0  0  0
  7 10  1  0  0  0  0
  8  5  1  0  0  0  0
  9  6  2  0  0  0  0
 10  5  1  0  0  0  0
 10  6  1  0  0  0  0
 11  7  1  0  0  0  0
 12  8  2  0  0  0  0
 13 11  2  0  0  0  0
 14 11  2  0  0  0  0
 15  8  1  0  0  0  0
 16  1  1  0  0  0  0
 17  1  1  0  0  0  0
 18  1  1  0  0  0  0
 24  4  1  0  0  0  0
 26  5  1  0  0  0  0
M  END
>  <HBA>
4

>  <HBD>
0

>  <TPSA>
89.94

>  <cid>
13909

>  <dipole>
5.21

>  <excitation_energy_1>
3.831

>  <excitation_energy_2>
4.181

>  <excitation_energy_3>
4.247

>  <excitation_energy_4>
4.718

>  <homo_energy>
-6.939

>  <homo_lumo_gap>
4.612

>  <logP>
1.186

>  <lumo_energy>
-2.327

>  <melting_point>
76.07

>  <molecular_refractivity>
52.98

>  <oscillator_strength_1>
0.0019

>  <oscillator_strength_2>
0.2234

>  <oscillator_strength_3>
0.0012

>  <oscillator_strength_4>
0.014

>  <open_babel_can_smiles>
CCOC(=O)Cn1c(C)ncc1N(=O)=O

>  <mulliken_charges>
26
1   -0.460136
2   -0.543434
3   -0.05353
4   0.010419
5   -0.262042
6   0.500985
7   0.505534
8   0.647781
9   -0.467154
10   -0.462002
11   0.337553
12   -0.465239
13   -0.400772
14   -0.436292
15   -0.45659
16   0.15334
17   0.185773
18   0.166629
19   0.204889
20   0.185929
21   0.173667
22   0.174793
23   0.158445
24   0.180801
25   0.194637
26   0.226015

>  <lowdin_charges>
26
1   -0.453193
2   -0.450338
3   -0.126357
4   -0.099081
5   -0.225027
6   0.085553
7   -0.007052
8   0.192038
9   -0.180589
10   0.008084
11   0.312374
12   -0.255586
13   -0.248708
14   -0.276635
15   -0.185233
16   0.161007
17   0.170789
18   0.16226
19   0.190207
20   0.173722
21   0.169422
22   0.161707
23   0.155489
24   0.188069
25   0.18015
26   0.196929

$$$$

