PCCDB-ID:  3638
public computational chemistry database (PCCDB) project, http://pccdb.org

 28 30  0  0  1  0  0  0  0  0999 V2000
    0.9681   -0.2355   -0.0216 C   0  0  0  0  0  0  0  0  0  0  0  0
    4.5119   -1.2438    0.6593 C   0  0  0  0  0  0  0  0  0  0  0  0
    3.0067   -1.2007    0.9176 C   0  0  0  0  0  0  0  0  0  0  0  0
    6.5321    0.2352    1.0441 C   0  0  0  0  0  0  0  0  0  0  0  0
    4.9118    2.5618    0.8691 C   0  0  0  0  0  0  0  0  0  0  0  0
    8.3869    3.2925    1.4286 C   0  0  0  0  0  0  0  0  0  0  0  0
    5.1411    0.1233    0.8203 C   0  0  0  0  0  0  0  0  0  0  0  0
    4.3465    1.2731    0.7260 C   0  0  0  0  0  0  0  0  0  0  0  0
    7.0636    1.5000    1.1652 C   0  0  0  0  0  0  0  0  0  0  0  0
    6.2683    2.6421    1.0807 C   0  0  0  0  0  0  0  0  0  0  0  0
    2.8439    1.1936    0.5188 C   0  0  1  0  0  0  0  0  0  0  0  0
    2.4149   -0.1293    0.1214 N   0  0  0  0  0  0  0  0  0  0  0  0
    2.1636    1.7246    1.6793 O   0  0  0  0  0  0  0  0  0  0  0  0
    8.3704    1.8596    1.3874 O   0  0  0  0  0  0  0  0  0  0  0  0
    7.0477    3.7637    1.2473 O   0  0  0  0  0  0  0  0  0  0  0  0
    0.7216   -1.1916   -0.4963 H   0  0  0  0  0  0  0  0  0  0  0  0
    0.6076    0.5705   -0.6702 H   0  0  0  0  0  0  0  0  0  0  0  0
    0.4271   -0.1632    0.9352 H   0  0  0  0  0  0  0  0  0  0  0  0
    4.6779   -1.6055   -0.3653 H   0  0  0  0  0  0  0  0  0  0  0  0
    4.9916   -1.9650    1.3331 H   0  0  0  0  0  0  0  0  0  0  0  0
    2.8034   -1.0864    2.0011 H   0  0  0  0  0  0  0  0  0  0  0  0
    2.5477   -2.1474    0.6129 H   0  0  0  0  0  0  0  0  0  0  0  0
    7.1599   -0.6471    1.1209 H   0  0  0  0  0  0  0  0  0  0  0  0
    4.2898    3.4494    0.8230 H   0  0  0  0  0  0  0  0  0  0  0  0
    9.0220    3.6725    0.6190 H   0  0  0  0  0  0  0  0  0  0  0  0
    8.7629    3.6235    2.4041 H   0  0  0  0  0  0  0  0  0  0  0  0
    2.5368    1.8831   -0.2757 H   0  0  0  0  0  0  0  0  0  0  0  0
    2.6020    1.3579    2.4642 H   0  0  0  0  0  0  0  0  0  0  0  0
  1 12  1  0  0  0  0
  1 18  1  0  0  0  0
  2  7  1  0  0  0  0
  2  3  1  0  0  0  0
  2 20  1  0  0  0  0
  3 21  1  0  0  0  0
  4 23  1  0  0  0  0
  4  9  2  0  0  0  0
  5 10  2  0  0  0  0
  6 26  1  0  0  0  0
  7  4  1  0  0  0  0
  8  7  2  0  0  0  0
  8  5  1  0  0  0  0
  9 14  1  0  0  0  0
 10  9  1  0  0  0  0
 10 15  1  0  0  0  0
 11 27  1  6  0  0  0
 11  8  1  0  0  0  0
 11 13  1  0  0  0  0
 12 11  1  0  0  0  0
 12  3  1  0  0  0  0
 13 28  1  0  0  0  0
 14  6  1  0  0  0  0
 15  6  1  0  0  0  0
 16  1  1  0  0  0  0
 17  1  1  0  0  0  0
 19  2  1  0  0  0  0
 22  3  1  0  0  0  0
 24  5  1  0  0  0  0
 25  6  1  0  0  0  0
M  END
>  <HBA>
4

>  <HBD>
1

>  <TPSA>
41.93

>  <cid>
3638

>  <dipole>
1.72

>  <excitation_energy_1>
4.598

>  <excitation_energy_2>
4.949

>  <excitation_energy_3>
5.082

>  <excitation_energy_4>
5.175

>  <homo_energy>
-5.516

>  <homo_lumo_gap>
5.421

>  <logP>
0.832

>  <lumo_energy>
-0.095

>  <melting_point>
89.95

>  <molecular_refractivity>
57.91

>  <oscillator_strength_1>
0.1127

>  <oscillator_strength_2>
0.0002

>  <oscillator_strength_3>
0.0173

>  <oscillator_strength_4>
0.0111

>  <open_babel_can_smiles>
CN1CCc2c([C@@H]1O)cc1c(c2)OCO1

>  <mulliken_charges>
28
1   -0.289222
2   -0.328198
3   -0.145591
4   -0.253774
5   -0.227467
6   0.19457
7   0.111475
8   0.033375
9   0.345428
10   0.335667
11   0.189195
12   -0.395983
13   -0.624197
14   -0.535626
15   -0.535654
16   0.14294
17   0.148743
18   0.140244
19   0.16274
20   0.141065
21   0.109942
22   0.140502
23   0.137767
24   0.152256
25   0.159663
26   0.159898
27   0.146249
28   0.383991

>  <lowdin_charges>
28
1   -0.355243
2   -0.276544
3   -0.197524
4   -0.196105
5   -0.180953
6   0.019818
7   -0.013315
8   -0.046605
9   0.076069
10   0.066884
11   0.042135
12   -0.183309
13   -0.478292
14   -0.207542
15   -0.206816
16   0.146684
17   0.153416
18   0.134603
19   0.158386
20   0.152392
21   0.112123
22   0.149536
23   0.16823
24   0.176034
25   0.148931
26   0.148161
27   0.150418
28   0.338429

$$$$

