PCCDB-ID:  62765
public computational chemistry database (PCCDB) project, http://pccdb.org

 22 23  0  0  0  0  0  0  0  0999 V2000
    1.0165    0.0906    0.3017 C   0  0  0  0  0  0  0  0  0  0  0  0
    3.0847    0.0862   -1.2051 C   0  0  0  0  0  0  0  0  0  0  0  0
    5.2252    0.0046    3.9168 C   0  0  0  0  0  0  0  0  0  0  0  0
    5.1068   -1.3768    3.7577 C   0  0  0  0  0  0  0  0  0  0  0  0
    4.5928    0.9025    3.0431 C   0  0  0  0  0  0  0  0  0  0  0  0
    4.3441   -1.9270    2.7106 C   0  0  0  0  0  0  0  0  0  0  0  0
    3.8483    0.3395    2.0194 C   0  0  0  0  0  0  0  0  0  0  0  0
    3.7212   -1.0334    1.8498 C   0  0  0  0  0  0  0  0  0  0  0  0
    2.5296   -0.0347    0.2062 C   0  0  0  0  0  0  0  0  0  0  0  0
    4.1876   -3.2685    2.4985 O   0  0  0  0  0  0  0  0  0  0  0  0
    3.1407    0.9883    1.0413 O   0  0  0  0  0  0  0  0  0  0  0  0
    2.9325   -1.3143    0.7631 O   0  0  0  0  0  0  0  0  0  0  0  0
    0.6932    1.0642   -0.0793 H   0  0  0  0  0  0  0  0  0  0  0  0
    0.7031   -0.0039    1.3450 H   0  0  0  0  0  0  0  0  0  0  0  0
    0.5366   -0.6984   -0.2852 H   0  0  0  0  0  0  0  0  0  0  0  0
    2.8257    1.0608   -1.6301 H   0  0  0  0  0  0  0  0  0  0  0  0
    2.6691   -0.7011   -1.8413 H   0  0  0  0  0  0  0  0  0  0  0  0
    4.1734   -0.0137   -1.1837 H   0  0  0  0  0  0  0  0  0  0  0  0
    5.8218    0.3918    4.7374 H   0  0  0  0  0  0  0  0  0  0  0  0
    5.6074   -2.0489    4.4521 H   0  0  0  0  0  0  0  0  0  0  0  0
    4.6788    1.9771    3.1561 H   0  0  0  0  0  0  0  0  0  0  0  0
    4.6814   -3.7457    3.1831 H   0  0  0  0  0  0  0  0  0  0  0  0
  1 14  1  0  0  0  0
  2 18  1  0  0  0  0
  2  9  1  0  0  0  0
  3 19  1  0  0  0  0
  4  3  1  0  0  0  0
  4 20  1  0  0  0  0
  5 21  1  0  0  0  0
  5  3  2  0  0  0  0
  6  4  2  0  0  0  0
  7  5  1  0  0  0  0
  8  7  2  0  0  0  0
  8  6  1  0  0  0  0
  9  1  1  0  0  0  0
  9 12  1  0  0  0  0
  9 11  1  0  0  0  0
 10  6  1  0  0  0  0
 10 22  1  0  0  0  0
 11  7  1  0  0  0  0
 12  8  1  0  0  0  0
 13  1  1  0  0  0  0
 15  1  1  0  0  0  0
 16  2  1  0  0  0  0
 17  2  1  0  0  0  0
M  END
>  <HBA>
3

>  <HBD>
1

>  <TPSA>
38.69

>  <cid>
62765

>  <dipole>
0.47

>  <excitation_energy_1>
4.778

>  <excitation_energy_2>
4.9

>  <excitation_energy_3>
5.173

>  <excitation_energy_4>
5.196

>  <homo_energy>
-5.336

>  <homo_lumo_gap>
5.818

>  <logP>
1.899

>  <lumo_energy>
0.482

>  <melting_point>
88.44

>  <molecular_refractivity>
44.18

>  <oscillator_strength_1>
0.0029

>  <oscillator_strength_2>
0.0191

>  <oscillator_strength_3>
0.0008

>  <oscillator_strength_4>
0.0

>  <open_babel_can_smiles>
Oc1cccc2c1OC(O2)(C)C

>  <mulliken_charges>
22
1   -0.441743
2   -0.442085
3   -0.147057
4   -0.201048
5   -0.194823
6   0.278261
7   0.33926
8   0.309493
9   0.483391
10   -0.639767
11   -0.553292
12   -0.547634
13   0.157272
14   0.166296
15   0.159954
16   0.157396
17   0.159956
18   0.166429
19   0.129083
20   0.114831
21   0.136743
22   0.409083

>  <lowdin_charges>
22
1   -0.451844
2   -0.450979
3   -0.15565
4   -0.227298
5   -0.205521
6   0.078007
7   0.078363
8   0.041977
9   0.246691
10   -0.376391
11   -0.204627
12   -0.201253
13   0.162443
14   0.165736
15   0.165233
16   0.162469
17   0.165149
18   0.165018
19   0.160473
20   0.155075
21   0.165914
22   0.361015

$$$$

