PCCDB-ID:  70301
public computational chemistry database (PCCDB) project, http://pccdb.org

 21 21  0  0  1  0  0  0  0  0999 V2000
   -1.9909    0.4988   -0.2263 C   0  0  0  0  0  0  0  0  0  0  0  0
   -0.9554    0.6196   -1.1568 C   0  0  0  0  0  0  0  0  0  0  0  0
   -1.7098    0.0531    1.0652 C   0  0  0  0  0  0  0  0  0  0  0  0
    0.3524    0.2978   -0.7969 C   0  0  0  0  0  0  0  0  0  0  0  0
   -0.3988   -0.2717    1.4231 C   0  0  0  0  0  0  0  0  0  0  0  0
    2.0765   -0.4757    0.8910 C   0  0  0  0  0  0  0  0  0  0  0  0
    0.6495   -0.1556    0.4976 C   0  0  0  0  0  0  0  0  0  0  0  0
    2.8721    0.7304    1.3764 C   0  0  2  0  0  0  0  0  0  0  0  0
    4.8225   -0.2359    0.7054 N   0  0  0  0  0  0  0  0  0  0  0  0
    4.1387    0.8629    1.3043 N   0  0  0  0  0  0  0  0  0  0  0  0
    2.1890    1.7458    1.9726 O   0  0  0  0  0  0  0  0  0  0  0  0
   -3.0100    0.7485   -0.5083 H   0  0  0  0  0  0  0  0  0  0  0  0
   -1.1677    0.9640   -2.1653 H   0  0  0  0  0  0  0  0  0  0  0  0
   -2.5089   -0.0481    1.7946 H   0  0  0  0  0  0  0  0  0  0  0  0
    1.1555    0.3950   -1.5235 H   0  0  0  0  0  0  0  0  0  0  0  0
   -0.1878   -0.6354    2.4268 H   0  0  0  0  0  0  0  0  0  0  0  0
    2.6339   -0.8963    0.0464 H   0  0  0  0  0  0  0  0  0  0  0  0
    2.0782   -1.2423    1.6798 H   0  0  0  0  0  0  0  0  0  0  0  0
    5.8062    0.0202    0.7391 H   0  0  0  0  0  0  0  0  0  0  0  0
    4.7334   -1.0662    1.2962 H   0  0  0  0  0  0  0  0  0  0  0  0
    1.2398    1.6080    1.8143 H   0  0  0  0  0  0  0  0  0  0  0  0
  1  3  2  0  0  0  0
  2  4  2  0  0  0  0
  2  1  1  0  0  0  0
  3  5  1  0  0  0  0
  3 14  1  0  0  0  0
  4  7  1  0  0  0  0
  5 16  1  0  0  0  0
  6  8  1  0  0  0  0
  6 18  1  0  0  0  0
  7  6  1  0  0  0  0
  7  5  2  0  0  0  0
  8 10  1  1  0  0  0
  8 11  1  0  0  0  0
  9 19  1  0  0  0  0
  9 20  1  0  0  0  0
  9 10  1  0  0  0  0
 12  1  1  0  0  0  0
 13  2  1  0  0  0  0
 15  4  1  0  0  0  0
 17  6  1  0  0  0  0
 21 11  1  0  0  0  0
M  RAD  2   8   2  10   2
M  END
>  <HBA>
3

>  <HBD>
2

>  <TPSA>
55.12

>  <cid>
70301

>  <dipole>
3.38

>  <excitation_energy_1>
4.423

>  <excitation_energy_2>
4.486

>  <excitation_energy_3>
4.965

>  <excitation_energy_4>
5.218

>  <homo_energy>
-5.516

>  <homo_lumo_gap>
5.075

>  <logP>
1.31

>  <lumo_energy>
-0.441

>  <melting_point>
109.31

>  <molecular_refractivity>
41.92

>  <oscillator_strength_1>
0.009

>  <oscillator_strength_2>
0.0126

>  <oscillator_strength_3>
0.0056

>  <oscillator_strength_4>
0.016

>  <open_babel_can_smiles>
N[N][C](Cc1ccccc1)O

>  <mulliken_charges>
21
1   -0.12816
2   -0.127217
3   -0.123158
4   -0.161143
5   -0.195887
6   -0.448145
7   0.098548
8   0.512079
9   -0.590416
10   -0.344684
11   -0.594983
12   0.136995
13   0.139036
14   0.137976
15   0.145398
16   0.136375
17   0.198969
18   0.168173
19   0.325015
20   0.300815
21   0.414413

>  <lowdin_charges>
21
1   -0.153217
2   -0.147318
3   -0.153796
4   -0.159412
5   -0.178674
6   -0.312184
7   -0.020074
8   0.096667
9   -0.463239
10   -0.169217
11   -0.366417
12   0.160548
13   0.161402
14   0.162571
15   0.165754
16   0.158328
17   0.182432
18   0.165582
19   0.264667
20   0.250076
21   0.355521

$$$$

