PCCDB-ID:  7283
public computational chemistry database (PCCDB) project, http://pccdb.org

 19 18  0  0  1  0  0  0  0  0999 V2000
    1.2434   -0.1477   -0.6244 C   0  0  0  0  0  0  0  0  0  0  0  0
    2.3156   -2.5952    1.0231 C   0  0  0  0  0  0  0  0  0  0  0  0
    2.7064   -0.5951   -0.5302 C   0  0  0  0  0  0  0  0  0  0  0  0
    4.6059   -1.5242    0.8501 C   0  0  0  0  0  0  0  0  0  0  0  0
    3.0855   -1.2875    0.7933 C   0  0  2  0  0  0  0  0  0  0  0  0
    5.0248   -2.0338    2.1624 N   0  0  0  0  0  0  0  0  0  0  0  0
    1.0576    0.3887   -1.5621 H   0  0  0  0  0  0  0  0  0  0  0  0
    0.9823    0.5271    0.2007 H   0  0  0  0  0  0  0  0  0  0  0  0
    0.5526   -0.9969   -0.5894 H   0  0  0  0  0  0  0  0  0  0  0  0
    1.2403   -2.4216    1.1371 H   0  0  0  0  0  0  0  0  0  0  0  0
    2.6837   -3.0953    1.9229 H   0  0  0  0  0  0  0  0  0  0  0  0
    2.4563   -3.2799    0.1754 H   0  0  0  0  0  0  0  0  0  0  0  0
    3.3550    0.2816   -0.6686 H   0  0  0  0  0  0  0  0  0  0  0  0
    2.9334   -1.2751   -1.3651 H   0  0  0  0  0  0  0  0  0  0  0  0
    5.1210   -0.5909    0.5559 H   0  0  0  0  0  0  0  0  0  0  0  0
    4.8775   -2.2800    0.1004 H   0  0  0  0  0  0  0  0  0  0  0  0
    2.8343   -0.5938    1.6142 H   0  0  0  0  0  0  0  0  0  0  0  0
    4.9323   -1.2943    2.8584 H   0  0  0  0  0  0  0  0  0  0  0  0
    6.0141   -2.2752    2.1393 H   0  0  0  0  0  0  0  0  0  0  0  0
  1  9  1  0  0  0  0
  1  3  1  0  0  0  0
  1  8  1  0  0  0  0
  2 10  1  0  0  0  0
  2 11  1  0  0  0  0
  3  5  1  0  0  0  0
  4  6  1  0  0  0  0
  5  4  1  0  0  0  0
  5  2  1  0  0  0  0
  5 17  1  1  0  0  0
  6 18  1  0  0  0  0
  7  1  1  0  0  0  0
 12  2  1  0  0  0  0
 13  3  1  0  0  0  0
 14  3  1  0  0  0  0
 15  4  1  0  0  0  0
 16  4  1  0  0  0  0
 19  6  1  0  0  0  0
M  END
>  <HBA>
1

>  <HBD>
1

>  <TPSA>
26.02

>  <cid>
7283

>  <dipole>
1.42

>  <excitation_energy_1>
5.549

>  <excitation_energy_2>
6.385

>  <excitation_energy_3>
6.449

>  <excitation_energy_4>
6.699

>  <homo_energy>
-6.237

>  <homo_lumo_gap>
8.455

>  <logP>
1.692

>  <lumo_energy>
2.218

>  <melting_point>
28.35

>  <molecular_refractivity>
28.86

>  <oscillator_strength_1>
0.0091

>  <oscillator_strength_2>
0.0085

>  <oscillator_strength_3>
0.0172

>  <oscillator_strength_4>
0.0187

>  <open_babel_can_smiles>
CC[C@H](CN)C

>  <mulliken_charges>
19
1   -0.446309
2   -0.447802
3   -0.248234
4   -0.136011
5   -0.061229
6   -0.716793
7   0.140441
8   0.139525
9   0.148368
10   0.136309
11   0.171661
12   0.129753
13   0.124792
14   0.126925
15   0.108798
16   0.13342
17   0.109043
18   0.291354
19   0.295988

>  <lowdin_charges>
19
1   -0.446996
2   -0.44917
3   -0.274762
4   -0.208697
5   -0.127948
6   -0.555299
7   0.149161
8   0.146113
9   0.149505
10   0.143679
11   0.164412
12   0.142291
13   0.138076
14   0.13835
15   0.116895
16   0.140217
17   0.13
18   0.251105
19   0.253066

$$$$

