PCCDB-ID:  26760
public computational chemistry database (PCCDB) project, http://pccdb.org

 27 27  0  0  1  0  0  0  0  0999 V2000
    3.1874    1.8027   -0.0263 C   0  0  0  0  0  0  0  0  0  0  0  0
    1.1855    0.3153   -0.3233 C   0  0  0  0  0  0  0  0  0  0  0  0
    7.6789   -0.4542    0.7500 C   0  0  0  0  0  0  0  0  0  0  0  0
    6.8019   -1.1459    1.5872 C   0  0  0  0  0  0  0  0  0  0  0  0
    7.1953    0.1196   -0.4272 C   0  0  0  0  0  0  0  0  0  0  0  0
    5.4506   -1.2558    1.2545 C   0  0  0  0  0  0  0  0  0  0  0  0
    5.8432    0.0098   -0.7541 C   0  0  0  0  0  0  0  0  0  0  0  0
    4.9489   -0.6659    0.0871 C   0  0  0  0  0  0  0  0  0  0  0  0
    3.4668   -0.7647   -0.2700 C   0  0  2  0  0  0  0  0  0  0  0  0
    2.5930    0.4211    0.2862 C   0  0  0  0  0  0  0  0  0  0  0  0
    2.4743    0.1647    1.7404 N   0  0  0  0  0  0  0  0  0  0  0  0
    2.8985   -1.9819    0.1832 O   0  0  0  0  0  0  0  0  0  0  0  0
    3.3163    1.9516   -1.1057 H   0  0  0  0  0  0  0  0  0  0  0  0
    4.1640    1.9418    0.4477 H   0  0  0  0  0  0  0  0  0  0  0  0
    2.5151    2.5898    0.3370 H   0  0  0  0  0  0  0  0  0  0  0  0
    1.2232    0.4822   -1.4051 H   0  0  0  0  0  0  0  0  0  0  0  0
    0.5196    1.0743    0.1070 H   0  0  0  0  0  0  0  0  0  0  0  0
    0.7565   -0.6732   -0.1438 H   0  0  0  0  0  0  0  0  0  0  0  0
    8.7326   -0.3759    1.0046 H   0  0  0  0  0  0  0  0  0  0  0  0
    7.1722   -1.6137    2.4960 H   0  0  0  0  0  0  0  0  0  0  0  0
    7.8720    0.6444   -1.0968 H   0  0  0  0  0  0  0  0  0  0  0  0
    4.7813   -1.8304    1.8867 H   0  0  0  0  0  0  0  0  0  0  0  0
    5.4787    0.4486   -1.6807 H   0  0  0  0  0  0  0  0  0  0  0  0
    3.3800   -0.7544   -1.3642 H   0  0  0  0  0  0  0  0  0  0  0  0
    1.7149    0.7148    2.1375 H   0  0  0  0  0  0  0  0  0  0  0  0
    3.3295    0.4511    2.2159 H   0  0  0  0  0  0  0  0  0  0  0  0
    2.5508   -1.7548    1.0719 H   0  0  0  0  0  0  0  0  0  0  0  0
  1 10  1  0  0  0  0
  1 15  1  0  0  0  0
  1 14  1  0  0  0  0
  2 18  1  0  0  0  0
  2 17  1  0  0  0  0
  2 10  1  0  0  0  0
  3 19  1  0  0  0  0
  3  4  2  0  0  0  0
  4 20  1  0  0  0  0
  5  3  1  0  0  0  0
  6  4  1  0  0  0  0
  6 22  1  0  0  0  0
  7  5  2  0  0  0  0
  7  8  1  0  0  0  0
  8  6  2  0  0  0  0
  9 24  1  6  0  0  0
  9  8  1  0  0  0  0
  9 12  1  0  0  0  0
  9 10  1  0  0  0  0
 10 11  1  0  0  0  0
 11 25  1  0  0  0  0
 11 26  1  0  0  0  0
 12 27  1  0  0  0  0
 13  1  1  0  0  0  0
 16  2  1  0  0  0  0
 21  5  1  0  0  0  0
 23  7  1  0  0  0  0
M  END
>  <HBA>
2

>  <HBD>
2

>  <TPSA>
46.25

>  <cid>
26760

>  <dipole>
3.06

>  <excitation_energy_1>
5.271

>  <excitation_energy_2>
5.787

>  <excitation_energy_3>
5.865

>  <excitation_energy_4>
5.97

>  <homo_energy>
-6.414

>  <homo_lumo_gap>
6.468

>  <logP>
2.158

>  <lumo_energy>
0.054

>  <melting_point>
89.05

>  <molecular_refractivity>
49.74

>  <oscillator_strength_1>
0.0006

>  <oscillator_strength_2>
0.0279

>  <oscillator_strength_3>
0.0094

>  <oscillator_strength_4>
0.0149

>  <open_babel_can_smiles>
O[C@@H](C(N)(C)C)c1ccccc1

>  <mulliken_charges>
27
1   -0.457102
2   -0.443662
3   -0.130038
4   -0.132264
5   -0.131852
6   -0.187225
7   -0.1826
8   0.155531
9   0.077237
10   0.15693
11   -0.757083
12   -0.645644
13   0.141804
14   0.156446
15   0.136236
16   0.147039
17   0.131725
18   0.168629
19   0.127093
20   0.127936
21   0.127448
22   0.131549
23   0.121668
24   0.129341
25   0.306227
26   0.311617
27   0.413013

>  <lowdin_charges>
27
1   -0.45773
2   -0.446579
3   -0.15987
4   -0.156893
5   -0.159095
6   -0.167763
7   -0.167372
8   -0.019175
9   -0.00632
10   0.048863
11   -0.55077
12   -0.462797
13   0.14865
14   0.156113
15   0.148723
16   0.152424
17   0.145234
18   0.16301
19   0.155035
20   0.156671
21   0.157919
22   0.161934
23   0.152931
24   0.142113
25   0.26258
26   0.262017
27   0.340147

$$$$

