PCCDB-ID:  19335
public computational chemistry database (PCCDB) project, http://pccdb.org

 21 21  0  0  0  0  0  0  0  0999 V2000
   -1.6910   -0.0833   -0.0082 C   0  0  0  0  0  0  0  0  0  0  0  0
   -1.0110    1.0531   -0.4478 C   0  0  0  0  0  0  0  0  0  0  0  0
   -0.9654   -1.2037    0.4096 C   0  0  0  0  0  0  0  0  0  0  0  0
    0.3821    1.0674   -0.4671 C   0  0  0  0  0  0  0  0  0  0  0  0
    0.4252   -1.1890    0.3904 C   0  0  0  0  0  0  0  0  0  0  0  0
    2.5900    0.0264   -0.0815 C   0  0  0  0  0  0  0  0  0  0  0  0
    3.4672   -0.8887    0.3822 C   0  0  0  0  0  0  0  0  0  0  0  0
    1.1279   -0.0487   -0.0453 C   0  0  0  0  0  0  0  0  0  0  0  0
    4.9143   -0.7418    0.2666 C   0  0  0  0  0  0  0  0  0  0  0  0
    5.8073   -1.4072    0.9145 N   0  0  0  0  0  0  0  0  0  0  0  0
    5.4246    0.1967   -0.5907 O   0  0  0  0  0  0  0  0  0  0  0  0
    5.2112   -2.2544    1.8734 O   0  0  0  0  0  0  0  0  0  0  0  0
   -2.7772   -0.0991    0.0078 H   0  0  0  0  0  0  0  0  0  0  0  0
   -1.5647    1.9284   -0.7763 H   0  0  0  0  0  0  0  0  0  0  0  0
   -1.4881   -2.0936    0.7497 H   0  0  0  0  0  0  0  0  0  0  0  0
    0.9077    1.9565   -0.8082 H   0  0  0  0  0  0  0  0  0  0  0  0
    0.9713   -2.0713    0.7104 H   0  0  0  0  0  0  0  0  0  0  0  0
    2.9854    0.9481   -0.5089 H   0  0  0  0  0  0  0  0  0  0  0  0
    3.1372   -1.7901    0.8861 H   0  0  0  0  0  0  0  0  0  0  0  0
    4.8294    0.2530   -1.3553 H   0  0  0  0  0  0  0  0  0  0  0  0
    5.9854   -2.7173    2.2276 H   0  0  0  0  0  0  0  0  0  0  0  0
  1 13  1  0  0  0  0
  1  3  2  0  0  0  0
  2  1  1  0  0  0  0
  3 15  1  0  0  0  0
  4  2  2  0  0  0  0
  4  8  1  0  0  0  0
  5  3  1  0  0  0  0
  5 17  1  0  0  0  0
  6  8  1  0  0  0  0
  6  7  2  0  0  0  0
  7 19  1  0  0  0  0
  8  5  2  0  0  0  0
  9  7  1  0  0  0  0
  9 10  2  0  0  0  0
 10 12  1  0  0  0  0
 11  9  1  0  0  0  0
 12 21  1  0  0  0  0
 14  2  1  0  0  0  0
 16  4  1  0  0  0  0
 18  6  1  0  0  0  0
 20 11  1  0  0  0  0
M  END
>  <HBA>
3

>  <HBD>
2

>  <TPSA>
49.33

>  <cid>
19335

>  <dipole>
2.99

>  <excitation_energy_1>
3.929

>  <excitation_energy_2>
4.504

>  <excitation_energy_3>
4.635

>  <excitation_energy_4>
4.858

>  <homo_energy>
-5.831

>  <homo_lumo_gap>
4.144

>  <logP>
1.596

>  <lumo_energy>
-1.687

>  <melting_point>
128.65

>  <molecular_refractivity>
45.07

>  <oscillator_strength_1>
0.5056

>  <oscillator_strength_2>
0.0039

>  <oscillator_strength_3>
0.1885

>  <oscillator_strength_4>
0.0192

>  <open_babel_can_smiles>
O/N=C(\C=C\c1ccccc1)/O

>  <mulliken_charges>
21
1   -0.125558
2   -0.130772
3   -0.130725
4   -0.191578
5   -0.176043
6   -0.199324
7   -0.154877
8   0.172935
9   0.486626
10   -0.243226
11   -0.60173
12   -0.515302
13   0.135702
14   0.135883
15   0.136521
16   0.132382
17   0.137586
18   0.132407
19   0.171501
20   0.406059
21   0.421531

>  <lowdin_charges>
21
1   -0.147589
2   -0.154468
3   -0.151979
4   -0.156108
5   -0.15059
6   -0.145466
7   -0.191784
8   -0.004985
9   0.09345
10   -0.085673
11   -0.373868
12   -0.385093
13   0.158851
14   0.161629
15   0.161626
16   0.158708
17   0.162298
18   0.155511
19   0.178438
20   0.357963
21   0.359131

$$$$

