PCCDB-ID:  18647
public computational chemistry database (PCCDB) project, http://pccdb.org

 29 28  0  0  1  0  0  0  0  0999 V2000
    6.4364    0.1764    0.6341 C   0  0  0  0  0  0  0  0  0  0  0  0
    6.4185   -2.1681   -6.0815 C   0  0  0  0  0  0  0  0  0  0  0  0
    6.9588    0.2545   -0.8055 C   0  0  0  0  0  0  0  0  0  0  0  0
    6.1947   -2.5851   -4.6242 C   0  0  0  0  0  0  0  0  0  0  0  0
    7.4346   -1.0904   -1.3842 C   0  0  0  0  0  0  0  0  0  0  0  0
    5.4707   -1.5013   -3.8129 C   0  0  0  0  0  0  0  0  0  0  0  0
    6.3753   -2.2026   -1.4722 C   0  0  0  0  0  0  0  0  0  0  0  0
    5.1453   -1.8780   -2.3404 C   0  0  2  0  0  0  0  0  0  0  0  0
    4.1628   -3.0535   -2.3143 C   0  0  0  0  0  0  0  0  0  0  0  0
    4.4334   -4.1758   -1.9663 O   0  0  0  0  0  0  0  0  0  0  0  0
    2.9009   -2.7743   -2.7554 O   0  0  0  0  0  0  0  0  0  0  0  0
    6.1797    1.1721    1.0133 H   0  0  0  0  0  0  0  0  0  0  0  0
    7.1927   -0.2500    1.3048 H   0  0  0  0  0  0  0  0  0  0  0  0
    5.5379   -0.4463    0.7144 H   0  0  0  0  0  0  0  0  0  0  0  0
    6.9407   -2.9514   -6.6416 H   0  0  0  0  0  0  0  0  0  0  0  0
    7.0212   -1.2536   -6.1468 H   0  0  0  0  0  0  0  0  0  0  0  0
    5.4662   -1.9739   -6.5904 H   0  0  0  0  0  0  0  0  0  0  0  0
    7.8011    0.9582   -0.8399 H   0  0  0  0  0  0  0  0  0  0  0  0
    6.1838    0.6905   -1.4518 H   0  0  0  0  0  0  0  0  0  0  0  0
    7.1620   -2.8103   -4.1580 H   0  0  0  0  0  0  0  0  0  0  0  0
    5.6182   -3.5186   -4.5924 H   0  0  0  0  0  0  0  0  0  0  0  0
    8.2597   -1.4649   -0.7625 H   0  0  0  0  0  0  0  0  0  0  0  0
    7.8690   -0.9133   -2.3773 H   0  0  0  0  0  0  0  0  0  0  0  0
    4.5358   -1.2410   -4.3313 H   0  0  0  0  0  0  0  0  0  0  0  0
    6.0705   -0.5825   -3.8124 H   0  0  0  0  0  0  0  0  0  0  0  0
    6.0211   -2.4571   -0.4666 H   0  0  0  0  0  0  0  0  0  0  0  0
    6.8407   -3.1184   -1.8503 H   0  0  0  0  0  0  0  0  0  0  0  0
    4.6221   -1.0158   -1.8988 H   0  0  0  0  0  0  0  0  0  0  0  0
    2.8314   -1.8323   -2.9820 H   0  0  0  0  0  0  0  0  0  0  0  0
  1 14  1  0  0  0  0
  1 12  1  0  0  0  0
  1 13  1  0  0  0  0
  2  4  1  0  0  0  0
  3  1  1  0  0  0  0
  4 21  1  0  0  0  0
  4 20  1  0  0  0  0
  4  6  1  0  0  0  0
  5  3  1  0  0  0  0
  5 22  1  0  0  0  0
  6 25  1  0  0  0  0
  6  8  1  0  0  0  0
  7  5  1  0  0  0  0
  7 26  1  0  0  0  0
  8  9  1  0  0  0  0
  8 28  1  1  0  0  0
  8  7  1  0  0  0  0
  9 10  2  0  0  0  0
 11  9  1  0  0  0  0
 15  2  1  0  0  0  0
 16  2  1  0  0  0  0
 17  2  1  0  0  0  0
 18  3  1  0  0  0  0
 19  3  1  0  0  0  0
 23  5  1  0  0  0  0
 24  6  1  0  0  0  0
 27  7  1  0  0  0  0
 29 11  1  0  0  0  0
M  END
>  <HBA>
2

>  <HBD>
1

>  <TPSA>
37.3

>  <cid>
18647

>  <dipole>
4.14

>  <excitation_energy_1>
5.597

>  <excitation_energy_2>
6.325

>  <excitation_energy_3>
7.078

>  <excitation_energy_4>
7.237

>  <homo_energy>
-7.2

>  <homo_lumo_gap>
7.508

>  <logP>
2.678

>  <lumo_energy>
0.307

>  <melting_point>
48.6

>  <molecular_refractivity>
47.15

>  <oscillator_strength_1>
0.0016

>  <oscillator_strength_2>
0.0094

>  <oscillator_strength_3>
0.0035

>  <oscillator_strength_4>
0.0109

>  <open_babel_can_smiles>
CCCC[C@H](C(=O)O)CCC

>  <mulliken_charges>
29
1   -0.444659
2   -0.444908
3   -0.254315
4   -0.260188
5   -0.268389
6   -0.269786
7   -0.261311
8   -0.218366
9   0.611666
10   -0.447508
11   -0.575931
12   0.144303
13   0.146248
14   0.145684
15   0.150128
16   0.141969
17   0.143697
18   0.135594
19   0.128035
20   0.146325
21   0.158893
22   0.135964
23   0.132626
24   0.118651
25   0.149942
26   0.149338
27   0.161593
28   0.13679
29   0.407917

>  <lowdin_charges>
29
1   -0.448755
2   -0.444526
3   -0.278912
4   -0.278028
5   -0.280963
6   -0.276443
7   -0.277446
8   -0.171574
9   0.193219
10   -0.23854
11   -0.360253
12   0.150691
13   0.150142
14   0.146882
15   0.155193
16   0.146511
17   0.147218
18   0.145203
19   0.136164
20   0.146691
21   0.152643
22   0.146997
23   0.1403
24   0.134662
25   0.148909
26   0.152611
27   0.159568
28   0.148147
29   0.35369

$$$$

