PCCDB-ID:  41742
public computational chemistry database (PCCDB) project, http://pccdb.org

 38 37  0  0  1  0  0  0  0  0999 V2000
    3.2403    4.8671   -1.2916 C   0  0  0  0  0  0  0  0  0  0  0  0
   -1.3768    0.1629    5.6386 C   0  0  0  0  0  0  0  0  0  0  0  0
   -2.1320    2.0020    7.2026 C   0  0  0  0  0  0  0  0  0  0  0  0
   -1.9271    2.6179    2.7005 C   0  0  0  0  0  0  0  0  0  0  0  0
    3.0746    1.3249   -0.5342 C   0  0  0  0  0  0  0  0  0  0  0  0
    3.4707    3.7868   -0.5461 C   0  0  0  0  0  0  0  0  0  0  0  0
    0.9352    1.8171    1.6859 C   0  0  0  0  0  0  0  0  0  0  0  0
    0.5019    2.0581    3.1081 C   0  0  0  0  0  0  0  0  0  0  0  0
    1.9867    2.8473    1.2247 C   0  0  0  0  0  0  0  0  0  0  0  0
   -0.9327    2.6089    5.0582 C   0  0  0  0  0  0  0  0  0  0  0  0
   -1.8952    1.6036    5.7389 C   0  0  0  0  0  0  0  0  0  0  0  0
   -0.7121    2.3985    3.5721 C   0  0  0  0  0  0  0  0  0  0  0  0
    2.4494    2.7031   -0.2440 C   0  0  2  0  0  0  0  0  0  0  0  0
    1.2658    2.8726   -1.0339 O   0  0  0  0  0  0  0  0  0  0  0  0
    4.0127    5.6091   -1.4731 H   0  0  0  0  0  0  0  0  0  0  0  0
    2.2633    5.0500   -1.7307 H   0  0  0  0  0  0  0  0  0  0  0  0
   -2.0822   -0.5428    6.0935 H   0  0  0  0  0  0  0  0  0  0  0  0
   -0.4168    0.0573    6.1619 H   0  0  0  0  0  0  0  0  0  0  0  0
   -1.2181   -0.1358    4.5972 H   0  0  0  0  0  0  0  0  0  0  0  0
   -2.8387    1.3197    7.6898 H   0  0  0  0  0  0  0  0  0  0  0  0
   -2.5369    3.0182    7.2822 H   0  0  0  0  0  0  0  0  0  0  0  0
   -1.1949    1.9718    7.7745 H   0  0  0  0  0  0  0  0  0  0  0  0
   -1.7033    2.5602    1.6331 H   0  0  0  0  0  0  0  0  0  0  0  0
   -2.3657    3.6058    2.8975 H   0  0  0  0  0  0  0  0  0  0  0  0
   -2.7133    1.8814    2.9140 H   0  0  0  0  0  0  0  0  0  0  0  0
    3.9394    1.1320    0.1117 H   0  0  0  0  0  0  0  0  0  0  0  0
    3.4229    1.2773   -1.5738 H   0  0  0  0  0  0  0  0  0  0  0  0
    2.3422    0.5274   -0.3833 H   0  0  0  0  0  0  0  0  0  0  0  0
    4.4546    3.6353   -0.1002 H   0  0  0  0  0  0  0  0  0  0  0  0
    0.0920    1.8435    0.9917 H   0  0  0  0  0  0  0  0  0  0  0  0
    1.3629    0.8061    1.6209 H   0  0  0  0  0  0  0  0  0  0  0  0
    1.3018    1.9501    3.8443 H   0  0  0  0  0  0  0  0  0  0  0  0
    2.8703    2.7976    1.8756 H   0  0  0  0  0  0  0  0  0  0  0  0
    1.5712    3.8553    1.3361 H   0  0  0  0  0  0  0  0  0  0  0  0
    0.0332    2.5711    5.5807 H   0  0  0  0  0  0  0  0  0  0  0  0
   -1.3339    3.6220    5.2193 H   0  0  0  0  0  0  0  0  0  0  0  0
   -2.8647    1.6534    5.2217 H   0  0  0  0  0  0  0  0  0  0  0  0
    1.5288    2.7816   -1.9642 H   0  0  0  0  0  0  0  0  0  0  0  0
  1  6  2  0  0  0  0
  2 11  1  0  0  0  0
  2 17  1  0  0  0  0
  2 18  1  0  0  0  0
  3 21  1  0  0  0  0
  3 20  1  0  0  0  0
  3 22  1  0  0  0  0
  4 24  1  0  0  0  0
  4 25  1  0  0  0  0
  4 12  1  0  0  0  0
  5 28  1  0  0  0  0
  5 13  1  0  0  0  0
  5 26  1  0  0  0  0
  6 13  1  0  0  0  0
  6 29  1  0  0  0  0
  7  8  1  0  0  0  0
  8 12  2  0  0  0  0
  8 32  1  0  0  0  0
  9 34  1  0  0  0  0
  9  7  1  0  0  0  0
  9 33  1  0  0  0  0
 10 36  1  0  0  0  0
 10 35  1  0  0  0  0
 10 11  1  0  0  0  0
 11  3  1  0  0  0  0
 12 10  1  0  0  0  0
 13 14  1  6  0  0  0
 13  9  1  0  0  0  0
 15  1  1  0  0  0  0
 16  1  1  0  0  0  0
 19  2  1  0  0  0  0
 23  4  1  0  0  0  0
 27  5  1  0  0  0  0
 30  7  1  0  0  0  0
 31  7  1  0  0  0  0
 37 11  1  0  0  0  0
 38 14  1  0  0  0  0
M  END
>  <HBA>
1

>  <HBD>
1

>  <TPSA>
20.23

>  <cid>
41742

>  <dipole>
1.28

>  <excitation_energy_1>
5.519

>  <excitation_energy_2>
5.673

>  <excitation_energy_3>
5.865

>  <excitation_energy_4>
6.078

>  <homo_energy>
-6.044

>  <homo_lumo_gap>
6.544

>  <logP>
3.696

>  <lumo_energy>
0.501

>  <melting_point>
-8.96

>  <molecular_refractivity>
64.86

>  <oscillator_strength_1>
0.005

>  <oscillator_strength_2>
0.1014

>  <oscillator_strength_3>
0.0001

>  <oscillator_strength_4>
0.0204

>  <open_babel_can_smiles>
C=C[C@@](CC/C=C(/CC(C)C)\C)(O)C

>  <mulliken_charges>
38
1   -0.351723
2   -0.440413
3   -0.440047
4   -0.525108
5   -0.474476
6   -0.075242
7   -0.315947
8   -0.173658
9   -0.253521
10   -0.320688
11   -0.070464
12   0.194545
13   0.281603
14   -0.642775
15   0.138934
16   0.145039
17   0.13594
18   0.134602
19   0.15
20   0.139201
21   0.138124
22   0.137703
23   0.16195
24   0.149185
25   0.155006
26   0.14304
27   0.138958
28   0.162258
29   0.123178
30   0.16469
31   0.135636
32   0.107581
33   0.125785
34   0.154324
35   0.129232
36   0.128606
37   0.123249
38   0.385695

>  <lowdin_charges>
38
1   -0.345863
2   -0.447215
3   -0.444548
4   -0.445673
5   -0.459096
6   -0.163854
7   -0.277978
8   -0.190373
9   -0.273571
10   -0.27143
11   -0.120349
12   -0.012974
13   0.119901
14   -0.452312
15   0.16027
16   0.160057
17   0.147247
18   0.143671
19   0.152074
20   0.148806
21   0.145586
22   0.144727
23   0.158169
24   0.153675
25   0.155601
26   0.153394
27   0.147397
28   0.159235
29   0.15202
30   0.158082
31   0.144794
32   0.143042
33   0.142896
34   0.155849
35   0.142289
36   0.141658
37   0.134916
38   0.339879

$$$$

