PCCDB-ID:  5827
public computational chemistry database (PCCDB) project, http://pccdb.org

 23 23  0  0  0  0  0  0  0  0999 V2000
    1.0880   -1.1013    0.9368 C   0  0  0  0  0  0  0  0  0  0  0  0
   -0.0909    4.1715    5.4722 C   0  0  0  0  0  0  0  0  0  0  0  0
    2.4377    2.6449    1.6785 C   0  0  0  0  0  0  0  0  0  0  0  0
    1.7598    1.0260    3.3267 C   0  0  0  0  0  0  0  0  0  0  0  0
    1.8118    3.6481    2.4029 C   0  0  0  0  0  0  0  0  0  0  0  0
    1.1395    2.0346    4.0722 C   0  0  0  0  0  0  0  0  0  0  0  0
    2.5495   -0.7066    0.9148 C   0  0  0  0  0  0  0  0  0  0  0  0
    2.4056    1.3070    2.1157 C   0  0  0  0  0  0  0  0  0  0  0  0
    1.1550    3.3523    3.6075 C   0  0  0  0  0  0  0  0  0  0  0  0
    3.1037    0.3362    1.3773 N   0  0  0  0  0  0  0  0  0  0  0  0
    3.3720   -1.5950    0.2816 O   0  0  0  0  0  0  0  0  0  0  0  0
    0.5769    4.4160    4.2476 O   0  0  0  0  0  0  0  0  0  0  0  0
    0.4715   -0.3070    1.3588 H   0  0  0  0  0  0  0  0  0  0  0  0
    0.9381   -2.0109    1.5319 H   0  0  0  0  0  0  0  0  0  0  0  0
    0.7427   -1.3111   -0.0839 H   0  0  0  0  0  0  0  0  0  0  0  0
   -0.4785    5.1373    5.8024 H   0  0  0  0  0  0  0  0  0  0  0  0
    0.5932    3.7763    6.2357 H   0  0  0  0  0  0  0  0  0  0  0  0
   -0.9274    3.4703    5.3457 H   0  0  0  0  0  0  0  0  0  0  0  0
    2.9618    2.8789    0.7567 H   0  0  0  0  0  0  0  0  0  0  0  0
    1.7672    0.0091    3.7101 H   0  0  0  0  0  0  0  0  0  0  0  0
    1.8266    4.6785    2.0608 H   0  0  0  0  0  0  0  0  0  0  0  0
    0.6576    1.7767    5.0086 H   0  0  0  0  0  0  0  0  0  0  0  0
    2.8405   -2.3258   -0.0695 H   0  0  0  0  0  0  0  0  0  0  0  0
  1 13  1  0  0  0  0
  1 14  1  0  0  0  0
  2 16  1  0  0  0  0
  2 17  1  0  0  0  0
  3  8  2  0  0  0  0
  3  5  1  0  0  0  0
  4 20  1  0  0  0  0
  4  6  2  0  0  0  0
  5  9  2  0  0  0  0
  6 22  1  0  0  0  0
  7  1  1  0  0  0  0
  7 10  2  0  0  0  0
  8  4  1  0  0  0  0
  9  6  1  0  0  0  0
  9 12  1  0  0  0  0
 10  8  1  0  0  0  0
 11  7  1  0  0  0  0
 12  2  1  0  0  0  0
 15  1  1  0  0  0  0
 18  2  1  0  0  0  0
 19  3  1  0  0  0  0
 21  5  1  0  0  0  0
 23 11  1  0  0  0  0
M  END
>  <HBA>
3

>  <HBD>
1

>  <TPSA>
38.33

>  <cid>
5827

>  <dipole>
4.3

>  <excitation_energy_1>
4.495

>  <excitation_energy_2>
4.588

>  <excitation_energy_3>
4.632

>  <excitation_energy_4>
4.996

>  <homo_energy>
-5.252

>  <homo_lumo_gap>
5.323

>  <logP>
1.727

>  <lumo_energy>
0.071

>  <melting_point>
64.7

>  <molecular_refractivity>
47.25

>  <oscillator_strength_1>
0.1071

>  <oscillator_strength_2>
0.0034

>  <oscillator_strength_3>
0.1091

>  <oscillator_strength_4>
0.0097

>  <open_babel_can_smiles>
COc1ccc(cc1)/N=C(/O)\C

>  <mulliken_charges>
23
1   -0.555571
2   -0.211683
3   -0.153974
4   -0.169198
5   -0.180138
6   -0.204922
7   0.480629
8   0.238912
9   0.373325
10   -0.469757
11   -0.571351
12   -0.51019
13   0.197905
14   0.174946
15   0.167372
16   0.167208
17   0.149713
18   0.146754
19   0.135018
20   0.123721
21   0.13685
22   0.128306
23   0.406127

>  <lowdin_charges>
23
1   -0.484586
2   -0.278809
3   -0.160527
4   -0.180375
5   -0.17615
6   -0.211614
7   0.142415
8   0.029498
9   0.088919
10   -0.172778
11   -0.36296
12   -0.202575
13   0.184872
14   0.169534
15   0.165071
16   0.161457
17   0.144697
18   0.142363
19   0.164481
20   0.155185
21   0.165117
22   0.160606
23   0.356158

$$$$

