PCCDB-ID:  55256
public computational chemistry database (PCCDB) project, http://pccdb.org

 26 27  0  0  0  0  0  0  0  0999 V2000
    0.3678    0.7516    0.9508 C   0  0  0  0  0  0  0  0  0  0  0  0
   -0.0609   -0.0888    2.1438 C   0  0  0  0  0  0  0  0  0  0  0  0
   -6.1746   -2.9974    1.6538 C   0  0  0  0  0  0  0  0  0  0  0  0
   -4.4494   -0.2494    2.8853 C   0  0  0  0  0  0  0  0  0  0  0  0
   -2.0310   -0.9930    3.1005 C   0  0  0  0  0  0  0  0  0  0  0  0
   -5.3795   -2.0045    2.1388 C   0  0  0  0  0  0  0  0  0  0  0  0
   -3.9998   -2.3622    2.3444 C   0  0  0  0  0  0  0  0  0  0  0  0
   -4.1965   -4.5255    1.6431 C   0  0  0  0  0  0  0  0  0  0  0  0
   -3.7010   -5.6852    1.4084 N   0  0  0  0  0  0  0  0  0  0  0  0
   -5.5864   -4.2051    1.4193 N   0  0  0  0  0  0  0  0  0  0  0  0
   -5.6116   -0.6733    2.4898 N   0  0  0  0  0  0  0  0  0  0  0  0
   -3.4057   -3.4962    2.1370 N   0  0  0  0  0  0  0  0  0  0  0  0
   -3.4286   -1.2013    2.8486 N   0  0  0  0  0  0  0  0  0  0  0  0
   -0.3108    1.9949    0.9214 O   0  0  0  0  0  0  0  0  0  0  0  0
   -1.4627   -0.3125    1.9999 O   0  0  0  0  0  0  0  0  0  0  0  0
    0.1991    0.1761    0.0270 H   0  0  0  0  0  0  0  0  0  0  0  0
    1.4375    0.9730    1.0223 H   0  0  0  0  0  0  0  0  0  0  0  0
    0.1419    0.4559    3.0796 H   0  0  0  0  0  0  0  0  0  0  0  0
    0.4834   -1.0459    2.1704 H   0  0  0  0  0  0  0  0  0  0  0  0
   -7.2341   -2.9000    1.4425 H   0  0  0  0  0  0  0  0  0  0  0  0
   -4.2435    0.7557    3.2337 H   0  0  0  0  0  0  0  0  0  0  0  0
   -1.5761   -1.9818    3.2368 H   0  0  0  0  0  0  0  0  0  0  0  0
   -1.9092   -0.4033    4.0217 H   0  0  0  0  0  0  0  0  0  0  0  0
   -4.4080   -6.3311    1.0497 H   0  0  0  0  0  0  0  0  0  0  0  0
   -6.1604   -4.9558    1.0594 H   0  0  0  0  0  0  0  0  0  0  0  0
   -1.2572    1.7782    0.9464 H   0  0  0  0  0  0  0  0  0  0  0  0
  1 17  1  0  0  0  0
  1  2  1  0  0  0  0
  2 19  1  0  0  0  0
  2 18  1  0  0  0  0
  3  6  1  0  0  0  0
  4 21  1  0  0  0  0
  5 22  1  0  0  0  0
  5 23  1  0  0  0  0
  6  7  2  0  0  0  0
  6 11  1  0  0  0  0
  7 13  1  0  0  0  0
  8 12  2  0  0  0  0
  9  8  1  0  0  0  0
 10  8  1  0  0  0  0
 10  3  1  0  0  0  0
 11  4  2  0  0  0  0
 12  7  1  0  0  0  0
 13  4  1  0  0  0  0
 13  5  1  0  0  0  0
 14 26  1  0  0  0  0
 14  1  1  0  0  0  0
 15  2  1  0  0  0  0
 15  5  1  0  0  0  0
 16  1  1  0  0  0  0
 20  3  1  0  0  0  0
 24  9  1  0  0  0  0
 25 10  1  0  0  0  0
M  RAD  2   3   2   9   2
M  END
>  <HBA>
7

>  <HBD>
2

>  <TPSA>
99.08

>  <cid>
55256

>  <dipole>
2.7

>  <excitation_energy_1>
3.246

>  <excitation_energy_2>
4.274

>  <excitation_energy_3>
4.367

>  <excitation_energy_4>
4.691

>  <homo_energy>
-5.369

>  <homo_lumo_gap>
3.812

>  <logP>
-0.044

>  <lumo_energy>
-1.557

>  <melting_point>
155.83

>  <molecular_refractivity>
52.85

>  <oscillator_strength_1>
0.0477

>  <oscillator_strength_2>
0.0013

>  <oscillator_strength_3>
0.0002

>  <oscillator_strength_4>
0.0

>  <open_babel_can_smiles>
[NH]C1=Nc2c([CH]N1)ncn2COCCO

>  <mulliken_charges>
26
1   -0.04048
2   -0.04085
3   0.086908
4   0.235942
5   0.098872
6   0.178924
7   0.566648
8   0.606895
9   -0.637011
10   -0.637796
11   -0.497904
12   -0.553868
13   -0.511063
14   -0.617569
15   -0.483875
16   0.140328
17   0.150779
18   0.13561
19   0.13844
20   0.187282
21   0.173124
22   0.185049
23   0.142793
24   0.255229
25   0.338455
26   0.399142

>  <lowdin_charges>
26
1   -0.137262
2   -0.14787
3   -0.048002
4   -0.039863
5   -0.059874
6   -0.054096
7   0.089963
8   0.124467
9   -0.446456
10   -0.222852
11   -0.173728
12   -0.1938
13   -0.050344
14   -0.463434
15   -0.283183
16   0.137941
17   0.151627
18   0.135664
19   0.140905
20   0.180638
21   0.174568
22   0.165977
23   0.140341
24   0.241095
25   0.294852
26   0.34273

$$$$

