PCCDB-ID:  37013
public computational chemistry database (PCCDB) project, http://pccdb.org

 21 21  0  0  0  0  0  0  0  0999 V2000
   -2.4569    0.8593    0.1931 C   0  0  0  0  0  0  0  0  0  0  0  0
   -1.6340    1.7384   -0.5119 C   0  0  0  0  0  0  0  0  0  0  0  0
   -1.9034   -0.2650    0.8112 C   0  0  0  0  0  0  0  0  0  0  0  0
   -0.2630    1.4914   -0.6101 C   0  0  0  0  0  0  0  0  0  0  0  0
   -0.5323   -0.5064    0.7311 C   0  0  0  0  0  0  0  0  0  0  0  0
    3.4852   -2.1504   -0.9035 C   0  0  0  0  0  0  0  0  0  0  0  0
    2.1596   -1.4254   -1.1313 C   0  0  0  0  0  0  0  0  0  0  0  0
    0.2950    0.3668    0.0103 C   0  0  0  0  0  0  0  0  0  0  0  0
    3.5147   -2.7763    0.4205 N   0  0  0  0  0  0  0  0  0  0  0  0
    2.0680    0.0962   -0.0741 S   0  0  0  0  0  0  0  0  0  0  0  0
   -3.5243    1.0498    0.2643 H   0  0  0  0  0  0  0  0  0  0  0  0
   -2.0584    2.6152   -0.9939 H   0  0  0  0  0  0  0  0  0  0  0  0
   -2.5386   -0.9490    1.3678 H   0  0  0  0  0  0  0  0  0  0  0  0
    0.3786    2.1664   -1.1685 H   0  0  0  0  0  0  0  0  0  0  0  0
   -0.0972   -1.3676    1.2303 H   0  0  0  0  0  0  0  0  0  0  0  0
    4.3188   -1.4518   -1.1033 H   0  0  0  0  0  0  0  0  0  0  0  0
    3.5606   -2.9465   -1.6555 H   0  0  0  0  0  0  0  0  0  0  0  0
    1.3322   -2.0849   -0.8573 H   0  0  0  0  0  0  0  0  0  0  0  0
    2.0545   -1.1306   -2.1797 H   0  0  0  0  0  0  0  0  0  0  0  0
    3.4536   -2.0511    1.1342 H   0  0  0  0  0  0  0  0  0  0  0  0
    4.4089   -3.2435    0.5597 H   0  0  0  0  0  0  0  0  0  0  0  0
  1 11  1  0  0  0  0
  1  3  2  0  0  0  0
  2  1  1  0  0  0  0
  3 13  1  0  0  0  0
  4  2  2  0  0  0  0
  4  8  1  0  0  0  0
  5  3  1  0  0  0  0
  5 15  1  0  0  0  0
  6  9  1  0  0  0  0
  7  6  1  0  0  0  0
  7 18  1  0  0  0  0
  7 10  1  0  0  0  0
  8  5  2  0  0  0  0
  9 21  1  0  0  0  0
  9 20  1  0  0  0  0
 10  8  1  0  0  0  0
 12  2  1  0  0  0  0
 14  4  1  0  0  0  0
 16  6  1  0  0  0  0
 17  6  1  0  0  0  0
 19  7  1  0  0  0  0
M  END
>  <HBA>
2

>  <HBD>
1

>  <TPSA>
51.32

>  <cid>
37013

>  <dipole>
0.76

>  <excitation_energy_1>
4.499

>  <excitation_energy_2>
4.816

>  <excitation_energy_3>
5.375

>  <excitation_energy_4>
5.386

>  <homo_energy>
-5.951

>  <homo_lumo_gap>
5.538

>  <logP>
2.438

>  <lumo_energy>
-0.414

>  <melting_point>
69.71

>  <molecular_refractivity>
45.68

>  <oscillator_strength_1>
0.0411

>  <oscillator_strength_2>
0.0035

>  <oscillator_strength_3>
0.0031

>  <oscillator_strength_4>
0.0015

>  <open_babel_can_smiles>
NCCSc1ccccc1

>  <mulliken_charges>
21
1   -0.130297
2   -0.120304
3   -0.120704
4   -0.146305
5   -0.146883
6   -0.143081
7   -0.401432
8   -0.085799
9   -0.71923
10   0.062584
11   0.133622
12   0.134129
13   0.134909
14   0.147272
15   0.150828
16   0.130219
17   0.149747
18   0.188166
19   0.171962
20   0.313354
21   0.297242

>  <lowdin_charges>
21
1   -0.15118
2   -0.155188
3   -0.155756
4   -0.157766
5   -0.155976
6   -0.207119
7   -0.370167
8   -0.125379
9   -0.562261
10   0.10375
11   0.157784
12   0.160599
13   0.161791
14   0.168871
15   0.168521
16   0.126141
17   0.150678
18   0.168614
19   0.158136
20   0.260658
21   0.255249

$$$$

