PCCDB-ID:  70838
public computational chemistry database (PCCDB) project, http://pccdb.org

 30 31  0  0  0  0  0  0  0  0999 V2000
    2.1651    2.6181    0.9082 C   0  0  0  0  0  0  0  0  0  0  0  0
    7.7731    0.8054    0.5687 C   0  0  0  0  0  0  0  0  0  0  0  0
    2.6752    2.4852   -0.5187 C   0  0  0  0  0  0  0  0  0  0  0  0
    1.5405   -2.7535   -2.8297 C   0  0  0  0  0  0  0  0  0  0  0  0
    2.2081   -3.4884   -1.8485 C   0  0  0  0  0  0  0  0  0  0  0  0
    2.0295   -1.5021   -3.2104 C   0  0  0  0  0  0  0  0  0  0  0  0
    3.3558   -2.9735   -1.2482 C   0  0  0  0  0  0  0  0  0  0  0  0
    3.1735   -0.9816   -2.6084 C   0  0  0  0  0  0  0  0  0  0  0  0
    6.7717   -0.0961   -0.0641 C   0  0  0  0  0  0  0  0  0  0  0  0
    3.8452   -1.7109   -1.6168 C   0  0  0  0  0  0  0  0  0  0  0  0
    5.4816    0.0847   -0.5112 C   0  0  0  0  0  0  0  0  0  0  0  0
    5.0980   -1.2176   -1.0017 C   0  0  0  0  0  0  0  0  0  0  0  0
    4.7681    1.3599   -0.3491 C   0  0  0  0  0  0  0  0  0  0  0  0
    6.0820   -2.0812   -0.8535 N   0  0  0  0  0  0  0  0  0  0  0  0
    5.3004    2.3761    0.0661 O   0  0  0  0  0  0  0  0  0  0  0  0
    3.4642    1.2818   -0.6866 O   0  0  0  0  0  0  0  0  0  0  0  0
    7.1352   -1.3685   -0.2555 O   0  0  0  0  0  0  0  0  0  0  0  0
    1.5060    3.4904    0.9865 H   0  0  0  0  0  0  0  0  0  0  0  0
    2.9981    2.7536    1.6034 H   0  0  0  0  0  0  0  0  0  0  0  0
    1.5974    1.7293    1.2020 H   0  0  0  0  0  0  0  0  0  0  0  0
    7.9365    1.6903   -0.0522 H   0  0  0  0  0  0  0  0  0  0  0  0
    8.7154    0.2710    0.7119 H   0  0  0  0  0  0  0  0  0  0  0  0
    7.4078    1.1661    1.5358 H   0  0  0  0  0  0  0  0  0  0  0  0
    3.2814    3.3472   -0.8068 H   0  0  0  0  0  0  0  0  0  0  0  0
    1.8531    2.3631   -1.2280 H   0  0  0  0  0  0  0  0  0  0  0  0
    0.6454   -3.1545   -3.2977 H   0  0  0  0  0  0  0  0  0  0  0  0
    1.8360   -4.4645   -1.5492 H   0  0  0  0  0  0  0  0  0  0  0  0
    1.5198   -0.9291   -3.9804 H   0  0  0  0  0  0  0  0  0  0  0  0
    3.8824   -3.5428   -0.4891 H   0  0  0  0  0  0  0  0  0  0  0  0
    3.5511   -0.0115   -2.9107 H   0  0  0  0  0  0  0  0  0  0  0  0
  1 18  1  0  0  0  0
  1 20  1  0  0  0  0
  1 19  1  0  0  0  0
  2 22  1  0  0  0  0
  2 23  1  0  0  0  0
  3  1  1  0  0  0  0
  4  5  1  0  0  0  0
  5 27  1  0  0  0  0
  5  7  2  0  0  0  0
  6  4  2  0  0  0  0
  6  8  1  0  0  0  0
  7 29  1  0  0  0  0
  8 10  2  0  0  0  0
  9  2  1  0  0  0  0
 10  7  1  0  0  0  0
 10 12  1  0  0  0  0
 11 13  1  0  0  0  0
 11  9  2  0  0  0  0
 12 14  2  0  0  0  0
 12 11  1  0  0  0  0
 13 15  2  0  0  0  0
 14 17  1  0  0  0  0
 16  3  1  0  0  0  0
 16 13  1  0  0  0  0
 17  9  1  0  0  0  0
 21  2  1  0  0  0  0
 24  3  1  0  0  0  0
 25  3  1  0  0  0  0
 26  4  1  0  0  0  0
 28  6  1  0  0  0  0
 30  8  1  0  0  0  0
M  END
>  <HBA>
4

>  <HBD>
0

>  <TPSA>
52.33

>  <cid>
70838

>  <dipole>
2.6

>  <excitation_energy_1>
4.995

>  <excitation_energy_2>
5.029

>  <excitation_energy_3>
5.192

>  <excitation_energy_4>
5.256

>  <homo_energy>
-6.631

>  <homo_lumo_gap>
5.744

>  <logP>
2.827

>  <lumo_energy>
-0.887

>  <melting_point>
86.45

>  <molecular_refractivity>
62.99

>  <oscillator_strength_1>
0.0266

>  <oscillator_strength_2>
0.006

>  <oscillator_strength_3>
0.0003

>  <oscillator_strength_4>
0.2061

>  <open_babel_can_smiles>
CCOC(=O)c1c(C)onc1c1ccccc1

>  <mulliken_charges>
30
1   -0.463592
2   -0.514529
3   -0.04244
4   -0.120676
5   -0.138314
6   -0.143655
7   -0.151299
8   -0.13745
9   0.409411
10   0.122973
11   -0.08846
12   0.194941
13   0.581268
14   -0.228315
15   -0.514789
16   -0.472139
17   -0.364621
18   0.151339
19   0.176123
20   0.161962
21   0.19914
22   0.17724
23   0.19403
24   0.171176
25   0.15461
26   0.13242
27   0.13461
28   0.131491
29   0.151755
30   0.135791

>  <lowdin_charges>
30
1   -0.456107
2   -0.442356
3   -0.128592
4   -0.14998
5   -0.155591
6   -0.159759
7   -0.143997
8   -0.143116
9   0.132588
10   -0.007406
11   -0.130309
12   0.035101
13   0.20222
14   -0.082536
15   -0.286451
16   -0.184789
17   -0.057346
18   0.159893
19   0.165996
20   0.159028
21   0.187645
22   0.173935
23   0.184551
24   0.160002
25   0.154272
26   0.159592
27   0.159983
28   0.159887
29   0.171242
30   0.162401

$$$$

