PCCDB-ID:  47168
public computational chemistry database (PCCDB) project, http://pccdb.org

 36 37  0  0  0  0  0  0  0  0999 V2000
    1.3169   -0.0917    0.5459 C   0  0  0  0  0  0  0  0  0  0  0  0
    5.9973   -4.9007    0.5997 C   0  0  0  0  0  0  0  0  0  0  0  0
    3.3132   -0.3139    4.9215 C   0  0  0  0  0  0  0  0  0  0  0  0
    3.6343   -0.3567    3.5675 C   0  0  0  0  0  0  0  0  0  0  0  0
    2.5068   -1.2962    5.4972 C   0  0  0  0  0  0  0  0  0  0  0  0
    5.0374   -1.2808    1.0124 C   0  0  0  0  0  0  0  0  0  0  0  0
    3.0027   -2.6091    0.4457 C   0  0  0  0  0  0  0  0  0  0  0  0
    5.7577   -2.5989    1.2964 C   0  0  0  0  0  0  0  0  0  0  0  0
    3.8158   -3.8854    0.7044 C   0  0  0  0  0  0  0  0  0  0  0  0
    2.3341   -2.3687    3.3267 C   0  0  0  0  0  0  0  0  0  0  0  0
    2.8306   -0.0928    0.6909 C   0  0  0  0  0  0  0  0  0  0  0  0
    3.1577   -1.3979    2.7484 C   0  0  0  0  0  0  0  0  0  0  0  0
    2.0149   -2.3225    4.6891 C   0  0  0  0  0  0  0  0  0  0  0  0
    3.5079   -1.3775    1.2444 C   0  0  0  0  0  0  0  0  0  0  0  0
    5.2369   -3.6705    0.4475 N   0  0  0  0  0  0  0  0  0  0  0  0
    3.4875    0.8863    0.3916 O   0  0  0  0  0  0  0  0  0  0  0  0
    1.2100   -3.3213    5.1672 O   0  0  0  0  0  0  0  0  0  0  0  0
    1.0291   -0.6630   -0.3457 H   0  0  0  0  0  0  0  0  0  0  0  0
    0.9708    0.9367    0.4237 H   0  0  0  0  0  0  0  0  0  0  0  0
    0.8255   -0.5562    1.4063 H   0  0  0  0  0  0  0  0  0  0  0  0
    7.0492   -4.7163    0.3549 H   0  0  0  0  0  0  0  0  0  0  0  0
    5.6152   -5.6600   -0.0921 H   0  0  0  0  0  0  0  0  0  0  0  0
    5.9532   -5.3200    1.6250 H   0  0  0  0  0  0  0  0  0  0  0  0
    3.6899    0.4971    5.5390 H   0  0  0  0  0  0  0  0  0  0  0  0
    4.2412    0.4342    3.1389 H   0  0  0  0  0  0  0  0  0  0  0  0
    2.2592   -1.2618    6.5565 H   0  0  0  0  0  0  0  0  0  0  0  0
    5.2077   -1.0045   -0.0333 H   0  0  0  0  0  0  0  0  0  0  0  0
    5.4711   -0.4826    1.6191 H   0  0  0  0  0  0  0  0  0  0  0  0
    1.9429   -2.8075    0.6376 H   0  0  0  0  0  0  0  0  0  0  0  0
    3.0909   -2.3721   -0.6222 H   0  0  0  0  0  0  0  0  0  0  0  0
    5.6767   -2.8563    2.3724 H   0  0  0  0  0  0  0  0  0  0  0  0
    6.8257   -2.4787    1.0776 H   0  0  0  0  0  0  0  0  0  0  0  0
    3.4586   -4.6734    0.0294 H   0  0  0  0  0  0  0  0  0  0  0  0
    3.6463   -4.2490    1.7366 H   0  0  0  0  0  0  0  0  0  0  0  0
    1.9226   -3.1893    2.7519 H   0  0  0  0  0  0  0  0  0  0  0  0
    1.0660   -3.1817    6.1161 H   0  0  0  0  0  0  0  0  0  0  0  0
  1 11  1  0  0  0  0
  1 20  1  0  0  0  0
  2 23  1  0  0  0  0
  3  5  1  0  0  0  0
  3 24  1  0  0  0  0
  4  3  2  0  0  0  0
  5 26  1  0  0  0  0
  6 14  1  0  0  0  0
  6  8  1  0  0  0  0
  6 28  1  0  0  0  0
  7 29  1  0  0  0  0
  7  9  1  0  0  0  0
  7 14  1  0  0  0  0
  8 31  1  0  0  0  0
  9 34  1  0  0  0  0
 10 13  1  0  0  0  0
 11 14  1  0  0  0  0
 12 10  2  0  0  0  0
 12  4  1  0  0  0  0
 13 17  1  0  0  0  0
 13  5  2  0  0  0  0
 14 12  1  0  0  0  0
 15  2  1  0  0  0  0
 15  9  1  0  0  0  0
 15  8  1  0  0  0  0
 16 11  2  0  0  0  0
 17 36  1  0  0  0  0
 18  1  1  0  0  0  0
 19  1  1  0  0  0  0
 21  2  1  0  0  0  0
 22  2  1  0  0  0  0
 25  4  1  0  0  0  0
 27  6  1  0  0  0  0
 30  7  1  0  0  0  0
 32  8  1  0  0  0  0
 33  9  1  0  0  0  0
 35 10  1  0  0  0  0
M  END
>  <HBA>
3

>  <HBD>
1

>  <TPSA>
40.54

>  <cid>
47168

>  <dipole>
3.26

>  <excitation_energy_1>
4.145

>  <excitation_energy_2>
4.332

>  <excitation_energy_3>
4.679

>  <excitation_energy_4>
5.103

>  <homo_energy>
-5.674

>  <homo_lumo_gap>
5.031

>  <logP>
1.883

>  <lumo_energy>
-0.642

>  <melting_point>
97.03

>  <molecular_refractivity>
71.86

>  <oscillator_strength_1>
0.0128

>  <oscillator_strength_2>
0.0025

>  <oscillator_strength_3>
0.0391

>  <oscillator_strength_4>
0.0162

>  <open_babel_can_smiles>
CN1CCC(CC1)(C(=O)C)c1cccc(c1)O

>  <mulliken_charges>
36
1   -0.535987
2   -0.290331
3   -0.13356
4   -0.191412
5   -0.195817
6   -0.261554
7   -0.304127
8   -0.12909
9   -0.121687
10   -0.231673
11   0.461132
12   0.139315
13   0.35442
14   -0.086372
15   -0.379173
16   -0.448269
17   -0.64289
18   0.17377
19   0.177948
20   0.175377
21   0.148002
22   0.145912
23   0.117412
24   0.134957
25   0.149689
26   0.119463
27   0.153234
28   0.149078
29   0.14274
30   0.151351
31   0.116332
32   0.136888
33   0.137366
34   0.120311
35   0.139331
36   0.407916

>  <lowdin_charges>
36
1   -0.477449
2   -0.354687
3   -0.142357
4   -0.187683
5   -0.215483
6   -0.273462
7   -0.27998
8   -0.198662
9   -0.202159
10   -0.205904
11   0.170485
12   0.005859
13   0.104165
14   -0.025343
15   -0.188397
16   -0.236102
17   -0.377446
18   0.173799
19   0.172662
20   0.172364
21   0.148409
22   0.149625
23   0.119411
24   0.161742
25   0.167568
26   0.152523
27   0.155288
28   0.157055
29   0.147863
30   0.152596
31   0.117336
32   0.144657
33   0.147
34   0.120257
35   0.168254
36   0.356198

$$$$

