PCCDB-ID:  35089
public computational chemistry database (PCCDB) project, http://pccdb.org

 17 17  0  0  0  0  0  0  0  0999 V2000
    3.7028    0.0339    0.8244 C   0  0  0  0  0  0  0  0  0  0  0  0
    2.5374    0.1480   -0.1737 C   0  0  0  0  0  0  0  0  0  0  0  0
    3.3381   -2.3923   -2.6089 C   0  0  0  0  0  0  0  0  0  0  0  0
    2.8652   -0.4765   -1.5039 C   0  0  0  0  0  0  0  0  0  0  0  0
    3.2786   -0.2667   -3.7841 C   0  0  0  0  0  0  0  0  0  0  0  0
    3.3892    0.4585   -4.8301 N   0  0  0  0  0  0  0  0  0  0  0  0
    3.0485   -1.8629   -1.4640 N   0  0  0  0  0  0  0  0  0  0  0  0
    3.4606   -1.6841   -3.7580 N   0  0  0  0  0  0  0  0  0  0  0  0
    2.9620    0.2893   -2.5493 N   0  0  0  0  0  0  0  0  0  0  0  0
    3.4187    0.4630    1.7910 H   0  0  0  0  0  0  0  0  0  0  0  0
    4.5840    0.5734    0.4599 H   0  0  0  0  0  0  0  0  0  0  0  0
    3.9793   -1.0133    0.9801 H   0  0  0  0  0  0  0  0  0  0  0  0
    2.2715    1.1942   -0.3439 H   0  0  0  0  0  0  0  0  0  0  0  0
    1.6613   -0.3705    0.2373 H   0  0  0  0  0  0  0  0  0  0  0  0
    3.4962   -3.4676   -2.6888 H   0  0  0  0  0  0  0  0  0  0  0  0
    3.6262   -0.1043   -5.6515 H   0  0  0  0  0  0  0  0  0  0  0  0
    3.6879   -2.1628   -4.6211 H   0  0  0  0  0  0  0  0  0  0  0  0
  1 12  1  0  0  0  0
  1 10  1  0  0  0  0
  2 14  1  0  0  0  0
  2  1  1  0  0  0  0
  3  7  1  0  0  0  0
  4  7  2  0  0  0  0
  4  2  1  0  0  0  0
  5  8  1  0  0  0  0
  5  9  2  0  0  0  0
  6  5  1  0  0  0  0
  8  3  1  0  0  0  0
  9  4  1  0  0  0  0
 11  1  1  0  0  0  0
 13  2  1  0  0  0  0
 15  3  1  0  0  0  0
 16  6  1  0  0  0  0
 17  8  1  0  0  0  0
M  RAD  1   6   2
M  END
>  <HBA>
4

>  <HBD>
1

>  <TPSA>
64.69

>  <cid>
35089

>  <dipole>
4.66

>  <excitation_energy_1>
4.135

>  <excitation_energy_2>
4.155

>  <excitation_energy_3>
5.068

>  <excitation_energy_4>
5.154

>  <homo_energy>
-6.378

>  <homo_lumo_gap>
4.98

>  <logP>
0.597

>  <lumo_energy>
-1.399

>  <melting_point>
103.16

>  <molecular_refractivity>
34.0

>  <oscillator_strength_1>
0.003

>  <oscillator_strength_2>
0.02

>  <oscillator_strength_3>
0.0003

>  <oscillator_strength_4>
0.0014

>  <open_babel_can_smiles>
CCC1=NCNC(=N1)[NH]

>  <mulliken_charges>
17
1   -0.454071
2   -0.305708
3   0.264766
4   0.417635
5   0.592763
6   -0.603926
7   -0.448966
8   -0.597205
9   -0.440459
10   0.150926
11   0.155606
12   0.166862
13   0.169426
14   0.158133
15   0.172974
16   0.261992
17   0.339248

>  <lowdin_charges>
17
1   -0.439042
2   -0.274097
3   0.005921
4   0.116581
5   0.120963
6   -0.411871
7   -0.216112
8   -0.230369
9   -0.172341
10   0.154345
11   0.153928
12   0.157785
13   0.164106
14   0.162273
15   0.167525
16   0.244699
17   0.295706

$$$$

