PCCDB-ID:  30862
public computational chemistry database (PCCDB) project, http://pccdb.org

 28 28  0  0  0  0  0  0  0  0999 V2000
    0.3510    0.0603    0.8206 C   0  0  0  0  0  0  0  0  0  0  0  0
    1.2768    1.3948   -0.9473 C   0  0  0  0  0  0  0  0  0  0  0  0
    7.4441    2.9264    4.6087 C   0  0  0  0  0  0  0  0  0  0  0  0
    6.5747    2.4432    3.6354 C   0  0  0  0  0  0  0  0  0  0  0  0
    7.7122    4.2966    4.6429 C   0  0  0  0  0  0  0  0  0  0  0  0
    2.4885    1.1439    1.1432 C   0  0  0  0  0  0  0  0  0  0  0  0
    3.9318    1.1203    0.6355 C   0  0  0  0  0  0  0  0  0  0  0  0
    6.3452    4.7083    2.8615 C   0  0  0  0  0  0  0  0  0  0  0  0
    6.0070    3.3530    2.7362 C   0  0  0  0  0  0  0  0  0  0  0  0
    5.0662    2.9544    1.6523 C   0  0  0  0  0  0  0  0  0  0  0  0
    7.1792    5.1830    3.7906 N   0  0  0  0  0  0  0  0  0  0  0  0
    1.5787    0.5217    0.1834 N   0  0  0  0  0  0  0  0  0  0  0  0
    4.5740    3.7313    0.8581 O   0  0  0  0  0  0  0  0  0  0  0  0
    4.8283    1.6217    1.6532 O   0  0  0  0  0  0  0  0  0  0  0  0
   -0.2710   -0.4562    0.0814 H   0  0  0  0  0  0  0  0  0  0  0  0
   -0.2522    0.8804    1.2574 H   0  0  0  0  0  0  0  0  0  0  0  0
    0.5899   -0.6503    1.6189 H   0  0  0  0  0  0  0  0  0  0  0  0
    0.6504    0.8551   -1.6655 H   0  0  0  0  0  0  0  0  0  0  0  0
    2.1947    1.6902   -1.4632 H   0  0  0  0  0  0  0  0  0  0  0  0
    0.7427    2.3178   -0.6484 H   0  0  0  0  0  0  0  0  0  0  0  0
    7.9075    2.2586    5.3285 H   0  0  0  0  0  0  0  0  0  0  0  0
    6.3342    1.3879    3.5669 H   0  0  0  0  0  0  0  0  0  0  0  0
    8.3894    4.7048    5.3915 H   0  0  0  0  0  0  0  0  0  0  0  0
    2.2013    2.1835    1.3875 H   0  0  0  0  0  0  0  0  0  0  0  0
    2.4538    0.5693    2.0754 H   0  0  0  0  0  0  0  0  0  0  0  0
    4.0605    1.7176   -0.2685 H   0  0  0  0  0  0  0  0  0  0  0  0
    4.2498    0.0928    0.4494 H   0  0  0  0  0  0  0  0  0  0  0  0
    5.9136    5.4281    2.1707 H   0  0  0  0  0  0  0  0  0  0  0  0
  1 16  1  0  0  0  0
  1 17  1  0  0  0  0
  2 20  1  0  0  0  0
  2 12  1  0  0  0  0
  3  5  1  0  0  0  0
  3 21  1  0  0  0  0
  4  3  2  0  0  0  0
  5 23  1  0  0  0  0
  6 24  1  0  0  0  0
  6 25  1  0  0  0  0
  7  6  1  0  0  0  0
  7 14  1  0  0  0  0
  8 11  1  0  0  0  0
  9  8  2  0  0  0  0
  9  4  1  0  0  0  0
 10 14  1  0  0  0  0
 10  9  1  0  0  0  0
 11  5  2  0  0  0  0
 12  1  1  0  0  0  0
 12  6  1  0  0  0  0
 13 10  2  0  0  0  0
 15  1  1  0  0  0  0
 18  2  1  0  0  0  0
 19  2  1  0  0  0  0
 22  4  1  0  0  0  0
 26  7  1  0  0  0  0
 27  7  1  0  0  0  0
 28  8  1  0  0  0  0
M  END
>  <HBA>
4

>  <HBD>
0

>  <TPSA>
42.43

>  <cid>
30862

>  <dipole>
3.25

>  <excitation_energy_1>
3.81

>  <excitation_energy_2>
4.277

>  <excitation_energy_3>
4.649

>  <excitation_energy_4>
4.894

>  <homo_energy>
-5.94

>  <homo_lumo_gap>
4.408

>  <logP>
0.8

>  <lumo_energy>
-1.532

>  <melting_point>
45.41

>  <molecular_refractivity>
52.83

>  <oscillator_strength_1>
0.002

>  <oscillator_strength_2>
0.0006

>  <oscillator_strength_3>
0.0005

>  <oscillator_strength_4>
0.0001

>  <open_babel_can_smiles>
CN(CCOC(=O)c1cccnc1)C

>  <mulliken_charges>
28
1   -0.295794
2   -0.304305
3   -0.147536
4   -0.124071
5   0.05039
6   -0.137185
7   -0.05004
8   0.025252
9   0.02617
10   0.598524
11   -0.41299
12   -0.376144
13   -0.486706
14   -0.486422
15   0.150621
16   0.122436
17   0.150075
18   0.151095
19   0.156844
20   0.127148
21   0.145079
22   0.168877
23   0.150269
24   0.13912
25   0.145169
26   0.173978
27   0.163214
28   0.176934

>  <lowdin_charges>
28
1   -0.358621
2   -0.359654
3   -0.177279
4   -0.110815
5   -0.074215
6   -0.209727
7   -0.135503
8   -0.066142
9   -0.063864
10   0.200431
11   -0.143589
12   -0.185173
13   -0.267264
14   -0.191728
15   0.152411
16   0.124097
17   0.150671
18   0.153093
19   0.152995
20   0.125735
21   0.169161
22   0.175623
23   0.161751
24   0.131901
25   0.149931
26   0.160681
27   0.157761
28   0.177331

$$$$

