PCCDB-ID:  10860
public computational chemistry database (PCCDB) project, http://pccdb.org

 30 31  0  0  0  0  0  0  0  0999 V2000
    0.9083    1.6311    2.3882 C   0  0  0  0  0  0  0  0  0  0  0  0
   11.0788    0.1333   -1.4247 C   0  0  0  0  0  0  0  0  0  0  0  0
    2.1354    2.2896    2.2805 C   0  0  0  0  0  0  0  0  0  0  0  0
    0.7841    0.3374    1.8742 C   0  0  0  0  0  0  0  0  0  0  0  0
   10.0206    0.8011   -0.7938 C   0  0  0  0  0  0  0  0  0  0  0  0
   10.8888   -1.1529   -1.9345 C   0  0  0  0  0  0  0  0  0  0  0  0
    3.2217    1.6687    1.6710 C   0  0  0  0  0  0  0  0  0  0  0  0
    1.8595   -0.2997    1.2610 C   0  0  0  0  0  0  0  0  0  0  0  0
    8.7782    0.1923   -0.6704 C   0  0  0  0  0  0  0  0  0  0  0  0
    9.6461   -1.7697   -1.8137 C   0  0  0  0  0  0  0  0  0  0  0  0
    3.0911    0.3674    1.1562 C   0  0  0  0  0  0  0  0  0  0  0  0
    8.5820   -1.1047   -1.1828 C   0  0  0  0  0  0  0  0  0  0  0  0
    5.2316   -1.9482   -0.5037 C   0  0  0  0  0  0  0  0  0  0  0  0
    4.1979   -0.2199    0.5542 N   0  0  0  0  0  0  0  0  0  0  0  0
    7.3795   -1.8350   -1.1247 N   0  0  0  0  0  0  0  0  0  0  0  0
    4.1589   -1.4558    0.0410 N   0  0  0  0  0  0  0  0  0  0  0  0
    6.4092   -1.2315   -0.5627 N   0  0  0  0  0  0  0  0  0  0  0  0
    5.1812   -3.2005   -1.0217 O   0  0  0  0  0  0  0  0  0  0  0  0
    0.0627    2.1180    2.8646 H   0  0  0  0  0  0  0  0  0  0  0  0
   12.0471    0.6178   -1.5162 H   0  0  0  0  0  0  0  0  0  0  0  0
    2.2517    3.2960    2.6740 H   0  0  0  0  0  0  0  0  0  0  0  0
   -0.1648   -0.1873    1.9508 H   0  0  0  0  0  0  0  0  0  0  0  0
   10.1727    1.8018   -0.3980 H   0  0  0  0  0  0  0  0  0  0  0  0
   11.7073   -1.6728   -2.4243 H   0  0  0  0  0  0  0  0  0  0  0  0
    4.1749    2.1870    1.5905 H   0  0  0  0  0  0  0  0  0  0  0  0
    1.7648   -1.3024    0.8620 H   0  0  0  0  0  0  0  0  0  0  0  0
    7.9524    0.6993   -0.1845 H   0  0  0  0  0  0  0  0  0  0  0  0
    9.4659   -2.7686   -2.1985 H   0  0  0  0  0  0  0  0  0  0  0  0
    5.0766    0.2880    0.4983 H   0  0  0  0  0  0  0  0  0  0  0  0
    4.2728   -3.5158   -0.8736 H   0  0  0  0  0  0  0  0  0  0  0  0
  1 19  1  0  0  0  0
  2  5  2  0  0  0  0
  3  1  1  0  0  0  0
  3 21  1  0  0  0  0
  4 22  1  0  0  0  0
  4  1  2  0  0  0  0
  5  9  1  0  0  0  0
  5 23  1  0  0  0  0
  6 10  2  0  0  0  0
  6  2  1  0  0  0  0
  7  3  2  0  0  0  0
  8  4  1  0  0  0  0
  9 27  1  0  0  0  0
 10 12  1  0  0  0  0
 11  8  2  0  0  0  0
 11  7  1  0  0  0  0
 12 15  1  0  0  0  0
 12  9  2  0  0  0  0
 13 16  1  0  0  0  0
 14 11  1  0  0  0  0
 15 17  1  0  0  0  0
 16 14  1  0  0  0  0
 17 13  2  0  0  0  0
 18 30  1  0  0  0  0
 18 13  1  0  0  0  0
 20  2  1  0  0  0  0
 24  6  1  0  0  0  0
 25  7  1  0  0  0  0
 26  8  1  0  0  0  0
 28 10  1  0  0  0  0
 29 14  1  0  0  0  0
M  RAD  2  15   2  16   2
M  END
>  <HBA>
5

>  <HBD>
2

>  <TPSA>
65.85

>  <cid>
10860

>  <dipole>
1.76

>  <excitation_energy_1>
2.3

>  <excitation_energy_2>
2.574

>  <excitation_energy_3>
3.622

>  <excitation_energy_4>
3.781

>  <homo_energy>
-5.059

>  <homo_lumo_gap>
2.514

>  <logP>
3.971

>  <lumo_energy>
-2.544

>  <melting_point>
146.23

>  <molecular_refractivity>
69.04

>  <oscillator_strength_1>
0.5298

>  <oscillator_strength_2>
0.0

>  <oscillator_strength_3>
0.0109

>  <oscillator_strength_4>
0.0148

>  <open_babel_can_smiles>
O/C(=N\[N]c1ccccc1)/[N]Nc1ccccc1

>  <mulliken_charges>
30
1   -0.132745
2   -0.117314
3   -0.136254
4   -0.138569
5   -0.144431
6   -0.13778
7   -0.188671
8   -0.163435
9   -0.119781
10   -0.136132
11   0.394175
12   0.264982
13   0.703322
14   -0.540366
15   -0.297136
16   -0.31671
17   -0.321789
18   -0.590005
19   0.12553
20   0.137841
21   0.129529
22   0.130015
23   0.137418
24   0.139147
25   0.12107
26   0.145921
27   0.142315
28   0.152904
29   0.34243
30   0.414519

>  <lowdin_charges>
30
1   -0.181291
2   -0.142694
3   -0.144906
4   -0.143442
5   -0.150847
6   -0.156737
7   -0.194993
8   -0.186209
9   -0.153143
10   -0.137706
11   0.054986
12   0.009888
13   0.097533
14   -0.158968
15   -0.062861
16   -0.12756
17   -0.123982
18   -0.358367
19   0.158067
20   0.161547
21   0.157308
22   0.158149
23   0.159938
24   0.16371
25   0.153932
26   0.168393
27   0.166901
28   0.172099
29   0.276906
30   0.364347

$$$$

