PCCDB-ID:  61929
public computational chemistry database (PCCDB) project, http://pccdb.org

 15 14  0  0  0  0  0  0  0  0999 V2000
    0.5644    0.3994   -0.4551 C   0  0  0  0  0  0  0  0  0  0  0  0
   -0.4974    1.3285   -1.0472 C   0  0  0  0  0  0  0  0  0  0  0  0
    2.9244   -0.2390   -0.8289 C   0  0  0  0  0  0  0  0  0  0  0  0
    1.8653    0.7379   -1.0442 N   0  0  0  0  0  0  0  0  0  0  0  0
   -0.4961    1.2565   -2.4590 O   0  0  0  0  0  0  0  0  0  0  0  0
    4.0761    0.1194   -1.5539 O   0  0  0  0  0  0  0  0  0  0  0  0
    0.3287   -0.6331   -0.7400 H   0  0  0  0  0  0  0  0  0  0  0  0
    0.5529    0.4504    0.6477 H   0  0  0  0  0  0  0  0  0  0  0  0
   -0.3179    2.3617   -0.6963 H   0  0  0  0  0  0  0  0  0  0  0  0
   -1.4939    1.0348   -0.6999 H   0  0  0  0  0  0  0  0  0  0  0  0
    2.5263   -1.2222   -1.1270 H   0  0  0  0  0  0  0  0  0  0  0  0
    3.2560   -0.3117    0.2184 H   0  0  0  0  0  0  0  0  0  0  0  0
    2.1838    1.6409   -0.6912 H   0  0  0  0  0  0  0  0  0  0  0  0
    0.4494    1.2159   -2.6955 H   0  0  0  0  0  0  0  0  0  0  0  0
    3.7911    0.2400   -2.4750 H   0  0  0  0  0  0  0  0  0  0  0  0
  1  8  1  0  0  0  0
  2 10  1  0  0  0  0
  2  9  1  0  0  0  0
  2  1  1  0  0  0  0
  3 12  1  0  0  0  0
  4  3  1  0  0  0  0
  4 13  1  0  0  0  0
  4  1  1  0  0  0  0
  5  2  1  0  0  0  0
  6  3  1  0  0  0  0
  7  1  1  0  0  0  0
 11  3  1  0  0  0  0
 14  5  1  0  0  0  0
 15  6  1  0  0  0  0
M  END
>  <HBA>
3

>  <HBD>
3

>  <TPSA>
52.49

>  <cid>
61929

>  <dipole>
1.44

>  <excitation_energy_1>
6.072

>  <excitation_energy_2>
6.464

>  <excitation_energy_3>
6.632

>  <excitation_energy_4>
6.654

>  <homo_energy>
-6.74

>  <homo_lumo_gap>
8.735

>  <logP>
-1.091

>  <lumo_energy>
1.995

>  <melting_point>
39.84

>  <molecular_refractivity>
21.66

>  <oscillator_strength_1>
0.0074

>  <oscillator_strength_2>
0.0721

>  <oscillator_strength_3>
0.0075

>  <oscillator_strength_4>
0.0083

>  <open_babel_can_smiles>
OCNCCO

>  <mulliken_charges>
15
1   -0.158534
2   -0.017104
3   0.103129
4   -0.590888
5   -0.624814
6   -0.605946
7   0.155409
8   0.125983
9   0.112529
10   0.144271
11   0.130769
12   0.135549
13   0.306509
14   0.395115
15   0.388023

>  <lowdin_charges>
15
1   -0.219746
2   -0.135041
3   -0.075015
4   -0.378286
5   -0.472534
6   -0.452078
7   0.149296
8   0.127262
9   0.11946
10   0.147577
11   0.127488
12   0.127895
13   0.259205
14   0.333836
15   0.340681

$$$$

