PCCDB-ID:  23388
public computational chemistry database (PCCDB) project, http://pccdb.org

 25 26  0  0  1  0  0  0  0  0999 V2000
   -1.5936   -5.8707    5.1070 C   0  0  0  0  0  0  0  0  0  0  0  0
   -0.7211   -6.3775    4.1019 C   0  0  0  0  0  0  0  0  0  0  0  0
    1.0008   -8.4821    0.1837 C   0  0  0  0  0  0  0  0  0  0  0  0
    3.2940   -9.1472   -0.0345 C   0  0  0  0  0  0  0  0  0  0  0  0
    0.6639   -9.8268    0.0378 C   0  0  0  0  0  0  0  0  0  0  0  0
    2.8461  -10.4622   -0.1572 C   0  0  0  0  0  0  0  0  0  0  0  0
   -1.3729   -4.5232    5.1576 C   0  0  0  0  0  0  0  0  0  0  0  0
    0.9891   -5.1334    2.5995 C   0  0  0  0  0  0  0  0  0  0  0  0
    2.3540   -8.1209    0.1447 C   0  0  0  0  0  0  0  0  0  0  0  0
   -0.0253   -5.3003    3.6069 C   0  0  0  0  0  0  0  0  0  0  0  0
    2.8175   -6.7096    0.2446 C   0  0  1  0  0  0  0  0  0  0  0  0
    1.5557  -10.8133   -0.1285 N   0  0  0  0  0  0  0  0  0  0  0  0
    1.4192   -6.1407    1.9162 N   0  0  0  0  0  0  0  0  0  0  0  0
    2.4024   -5.7630    1.0110 N   0  0  0  0  0  0  0  0  0  0  0  0
    3.8599   -6.3727   -0.5639 O   0  0  0  0  0  0  0  0  0  0  0  0
   -0.4264   -4.1579    4.2572 O   0  0  0  0  0  0  0  0  0  0  0  0
   -2.2916   -6.4303    5.7138 H   0  0  0  0  0  0  0  0  0  0  0  0
   -0.6038   -7.4011    3.7772 H   0  0  0  0  0  0  0  0  0  0  0  0
    0.2337   -7.7315    0.3217 H   0  0  0  0  0  0  0  0  0  0  0  0
    4.3593   -8.9332   -0.0445 H   0  0  0  0  0  0  0  0  0  0  0  0
   -0.3818  -10.1287    0.0548 H   0  0  0  0  0  0  0  0  0  0  0  0
    3.5619  -11.2727   -0.2841 H   0  0  0  0  0  0  0  0  0  0  0  0
   -1.7884   -3.7238    5.7521 H   0  0  0  0  0  0  0  0  0  0  0  0
    1.3812   -4.1256    2.4383 H   0  0  0  0  0  0  0  0  0  0  0  0
    3.9496   -7.0490   -1.2540 H   0  0  0  0  0  0  0  0  0  0  0  0
  1  7  2  0  0  0  0
  1 17  1  0  0  0  0
  2  1  1  0  0  0  0
  3 19  1  0  0  0  0
  4  9  2  0  0  0  0
  5 21  1  0  0  0  0
  5  3  2  0  0  0  0
  6 12  2  0  0  0  0
  6  4  1  0  0  0  0
  7 23  1  0  0  0  0
  8 10  1  0  0  0  0
  9  3  1  0  0  0  0
  9 11  1  0  0  0  0
 10  2  2  0  0  0  0
 10 16  1  0  0  0  0
 11 15  1  1  0  0  0
 11 14  1  0  0  0  0
 12  5  1  0  0  0  0
 13  8  1  0  0  0  0
 14 13  1  0  0  0  0
 16  7  1  0  0  0  0
 18  2  1  0  0  0  0
 20  4  1  0  0  0  0
 22  6  1  0  0  0  0
 24  8  1  0  0  0  0
 25 15  1  0  0  0  0
M  RAD  4   8   2  11   2  13   2  14   2
M  END
>  <HBA>
5

>  <HBD>
1

>  <TPSA>
67.49

>  <cid>
23388

>  <dipole>
1.14

>  <excitation_energy_1>
3.388

>  <excitation_energy_2>
3.529

>  <excitation_energy_3>
4.241

>  <excitation_energy_4>
4.32

>  <homo_energy>
-5.736

>  <homo_lumo_gap>
3.878

>  <logP>
1.829

>  <lumo_energy>
-1.859

>  <melting_point>
128.38

>  <molecular_refractivity>
57.67

>  <oscillator_strength_1>
0.0782

>  <oscillator_strength_2>
0.3305

>  <oscillator_strength_3>
0.1351

>  <oscillator_strength_4>
0.2736

>  <open_babel_can_smiles>
O[C](c1ccncc1)[N][N][CH]c1ccco1

>  <mulliken_charges>
25
1   -0.184832
2   -0.180637
3   -0.137586
4   -0.203311
5   0.028755
6   0.041122
7   0.097844
8   0.032256
9   0.102458
10   0.336902
11   0.447127
12   -0.399777
13   -0.300862
14   -0.316553
15   -0.575672
16   -0.443313
17   0.149249
18   0.160121
19   0.165727
20   0.152025
21   0.149165
22   0.148891
23   0.162856
24   0.155501
25   0.412545

>  <lowdin_charges>
25
1   -0.200603
2   -0.178794
3   -0.154495
4   -0.185055
5   -0.086092
6   -0.088155
7   -0.069544
8   -0.089141
9   -0.013962
10   0.053213
11   0.124109
12   -0.140609
13   -0.117454
14   -0.134293
15   -0.348874
16   -0.088663
17   0.174154
18   0.179284
19   0.181604
20   0.167083
21   0.15945
22   0.1621
23   0.176134
24   0.157855
25   0.360749

$$$$

