PCCDB-ID:  69151
public computational chemistry database (PCCDB) project, http://pccdb.org

 23 23  0  0  0  0  0  0  0  0999 V2000
    1.2784   -0.8620    0.4648 C   0  0  0  0  0  0  0  0  0  0  0  0
    2.4485    3.1336   -1.6900 C   0  0  0  0  0  0  0  0  0  0  0  0
    2.5640   -0.1668   -0.0222 C   0  0  0  0  0  0  0  0  0  0  0  0
    1.6521    2.7371   -0.4327 C   0  0  0  0  0  0  0  0  0  0  0  0
    3.8392    0.7142    1.9661 C   0  0  0  0  0  0  0  0  0  0  0  0
    4.2038    1.7454    2.8276 C   0  0  0  0  0  0  0  0  0  0  0  0
    2.9681    3.2471    1.6502 C   0  0  0  0  0  0  0  0  0  0  0  0
    2.9906    0.9717    0.8826 C   0  0  0  0  0  0  0  0  0  0  0  0
    2.5368    2.2948    0.7158 C   0  0  0  0  0  0  0  0  0  0  0  0
    3.7788    3.0065    2.6850 N   0  0  0  0  0  0  0  0  0  0  0  0
    1.0064   -1.6871   -0.2031 H   0  0  0  0  0  0  0  0  0  0  0  0
    0.4354   -0.1630    0.5013 H   0  0  0  0  0  0  0  0  0  0  0  0
    1.4130   -1.2698    1.4726 H   0  0  0  0  0  0  0  0  0  0  0  0
    1.7757    3.4653   -2.4892 H   0  0  0  0  0  0  0  0  0  0  0  0
    3.0397    2.2936   -2.0719 H   0  0  0  0  0  0  0  0  0  0  0  0
    3.1432    3.9512   -1.4685 H   0  0  0  0  0  0  0  0  0  0  0  0
    2.4184    0.1909   -1.0470 H   0  0  0  0  0  0  0  0  0  0  0  0
    3.3727   -0.9066   -0.0661 H   0  0  0  0  0  0  0  0  0  0  0  0
    0.9325    1.9516   -0.6899 H   0  0  0  0  0  0  0  0  0  0  0  0
    1.0562    3.5986   -0.1065 H   0  0  0  0  0  0  0  0  0  0  0  0
    4.2173   -0.2916    2.1349 H   0  0  0  0  0  0  0  0  0  0  0  0
    4.8670    1.5522    3.6696 H   0  0  0  0  0  0  0  0  0  0  0  0
    2.6264    4.2782    1.5491 H   0  0  0  0  0  0  0  0  0  0  0  0
  1 12  1  0  0  0  0
  1 13  1  0  0  0  0
  2 16  1  0  0  0  0
  2  4  1  0  0  0  0
  3  1  1  0  0  0  0
  3  8  1  0  0  0  0
  4 20  1  0  0  0  0
  4  9  1  0  0  0  0
  5 21  1  0  0  0  0
  5  6  2  0  0  0  0
  6 22  1  0  0  0  0
  7 10  2  0  0  0  0
  8  5  1  0  0  0  0
  9  8  2  0  0  0  0
  9  7  1  0  0  0  0
 10  6  1  0  0  0  0
 11  1  1  0  0  0  0
 14  2  1  0  0  0  0
 15  2  1  0  0  0  0
 17  3  1  0  0  0  0
 18  3  1  0  0  0  0
 19  4  1  0  0  0  0
 23  7  1  0  0  0  0
M  END
>  <HBA>
1

>  <HBD>
0

>  <TPSA>
12.89

>  <cid>
69151

>  <dipole>
2.8

>  <excitation_energy_1>
4.883

>  <excitation_energy_2>
5.155

>  <excitation_energy_3>
5.303

>  <excitation_energy_4>
5.92

>  <homo_energy>
-6.667

>  <homo_lumo_gap>
6.229

>  <logP>
2.206

>  <lumo_energy>
-0.438

>  <melting_point>
26.17

>  <molecular_refractivity>
43.78

>  <oscillator_strength_1>
0.0048

>  <oscillator_strength_2>
0.0002

>  <oscillator_strength_3>
0.039

>  <oscillator_strength_4>
0.0375

>  <open_babel_can_smiles>
CCc1cnccc1CC

>  <mulliken_charges>
23
1   -0.440049
2   -0.438956
3   -0.344234
4   -0.351296
5   -0.189328
6   0.037633
7   -0.013415
8   0.143509
9   0.109746
10   -0.4122
11   0.148749
12   0.154473
13   0.154067
14   0.146794
15   0.150741
16   0.154803
17   0.150839
18   0.148573
19   0.147213
20   0.149598
21   0.125755
22   0.13607
23   0.130913

>  <lowdin_charges>
23
1   -0.440397
2   -0.443906
3   -0.27499
4   -0.275919
5   -0.185866
6   -0.09527
7   -0.102881
8   0.013248
9   -0.02887
10   -0.151601
11   0.153079
12   0.15197
13   0.152588
14   0.152104
15   0.150195
16   0.154289
17   0.151678
18   0.153504
19   0.151118
20   0.153989
21   0.157612
22   0.154545
23   0.149781

$$$$

