PCCDB-ID:  62711
public computational chemistry database (PCCDB) project, http://pccdb.org

 26 25  0  0  0  0  0  0  0  0999 V2000
    2.7502    2.2965   -2.1961 C   0  0  0  0  0  0  0  0  0  0  0  0
    3.8944    4.0152   -0.9829 C   0  0  0  0  0  0  0  0  0  0  0  0
    3.5716    0.5778    4.8842 C   0  0  0  0  0  0  0  0  0  0  0  0
    5.4588    1.7790    3.8697 C   0  0  0  0  0  0  0  0  0  0  0  0
    3.9571    2.0454    1.3618 C   0  0  0  0  0  0  0  0  0  0  0  0
    2.9677    2.0969    0.1937 C   0  0  0  0  0  0  0  0  0  0  0  0
    3.3559    1.3173    2.5674 C   0  0  0  0  0  0  0  0  0  0  0  0
    3.5850    2.5924   -1.0382 N   0  0  0  0  0  0  0  0  0  0  0  0
    4.1212    1.2384    3.7097 N   0  0  0  0  0  0  0  0  0  0  0  0
    2.2323    0.8238    2.5094 O   0  0  0  0  0  0  0  0  0  0  0  0
    3.2648    2.6125   -3.1105 H   0  0  0  0  0  0  0  0  0  0  0  0
    1.7645    2.8024   -2.1682 H   0  0  0  0  0  0  0  0  0  0  0  0
    2.5746    1.2174   -2.2598 H   0  0  0  0  0  0  0  0  0  0  0  0
    4.3639    4.3240   -1.9232 H   0  0  0  0  0  0  0  0  0  0  0  0
    4.6036    4.2257   -0.1763 H   0  0  0  0  0  0  0  0  0  0  0  0
    2.9985    4.6493   -0.8243 H   0  0  0  0  0  0  0  0  0  0  0  0
    4.1912   -0.2835    5.1685 H   0  0  0  0  0  0  0  0  0  0  0  0
    2.5641    0.2390    4.6479 H   0  0  0  0  0  0  0  0  0  0  0  0
    3.5369    1.2718    5.7350 H   0  0  0  0  0  0  0  0  0  0  0  0
    5.4710    2.5880    4.6146 H   0  0  0  0  0  0  0  0  0  0  0  0
    5.8441    2.1708    2.9300 H   0  0  0  0  0  0  0  0  0  0  0  0
    6.1451    0.9946    4.2168 H   0  0  0  0  0  0  0  0  0  0  0  0
    4.2627    3.0552    1.6617 H   0  0  0  0  0  0  0  0  0  0  0  0
    4.8679    1.5333    1.0243 H   0  0  0  0  0  0  0  0  0  0  0  0
    2.0803    2.6911    0.4829 H   0  0  0  0  0  0  0  0  0  0  0  0
    2.6064    1.0816    0.0100 H   0  0  0  0  0  0  0  0  0  0  0  0
  1 12  1  0  0  0  0
  1  8  1  0  0  0  0
  2 16  1  0  0  0  0
  2 15  1  0  0  0  0
  3 17  1  0  0  0  0
  3 19  1  0  0  0  0
  4 22  1  0  0  0  0
  4 20  1  0  0  0  0
  5 23  1  0  0  0  0
  5  7  1  0  0  0  0
  6 25  1  0  0  0  0
  6  5  1  0  0  0  0
  7  9  1  0  0  0  0
  8  2  1  0  0  0  0
  8  6  1  0  0  0  0
  9  4  1  0  0  0  0
  9  3  1  0  0  0  0
 10  7  2  0  0  0  0
 11  1  1  0  0  0  0
 13  1  1  0  0  0  0
 14  2  1  0  0  0  0
 18  3  1  0  0  0  0
 21  4  1  0  0  0  0
 24  5  1  0  0  0  0
 26  6  1  0  0  0  0
M  END
>  <HBA>
3

>  <HBD>
0

>  <TPSA>
23.55

>  <cid>
62711

>  <dipole>
3.14

>  <excitation_energy_1>
5.188

>  <excitation_energy_2>
5.505

>  <excitation_energy_3>
5.591

>  <excitation_energy_4>
5.766

>  <homo_energy>
-5.641

>  <homo_lumo_gap>
6.536

>  <logP>
0.026

>  <lumo_energy>
0.895

>  <melting_point>
-0.56

>  <molecular_refractivity>
41.76

>  <oscillator_strength_1>
0.0037

>  <oscillator_strength_2>
0.0274

>  <oscillator_strength_3>
0.0013

>  <oscillator_strength_4>
0.0202

>  <open_babel_can_smiles>
CN(CCC(=O)N(C)C)C

>  <mulliken_charges>
26
1   -0.292466
2   -0.299085
3   -0.321561
4   -0.316356
5   -0.391838
6   -0.105183
7   0.609242
8   -0.376129
9   -0.41264
10   -0.52356
11   0.144401
12   0.118628
13   0.150819
14   0.147534
15   0.144663
16   0.117501
17   0.149157
18   0.206494
19   0.148204
20   0.15615
21   0.174103
22   0.158159
23   0.157291
24   0.171561
25   0.12468
26   0.16023

>  <lowdin_charges>
26
1   -0.353153
2   -0.360168
3   -0.357474
4   -0.353804
5   -0.3135
6   -0.195571
7   0.158607
8   -0.186732
9   -0.109254
10   -0.316414
11   0.147855
12   0.120252
13   0.148972
14   0.150098
15   0.146408
16   0.12052
17   0.147503
18   0.184861
19   0.147166
20   0.148592
21   0.167526
22   0.152531
23   0.155452
24   0.165123
25   0.127012
26   0.157591

$$$$

