PCCDB-ID:  68133
public computational chemistry database (PCCDB) project, http://pccdb.org

 29 28  0  0  1  0  0  0  0  0999 V2000
    5.9918   -7.1250    0.2160 C   0  0  0  0  0  0  0  0  0  0  0  0
    5.3094   -5.7626   -1.8135 C   0  0  0  0  0  0  0  0  0  0  0  0
    7.5199   -2.1666    1.8362 C   0  0  0  0  0  0  0  0  0  0  0  0
    7.1964   -2.1784   -0.6251 C   0  0  0  0  0  0  0  0  0  0  0  0
    5.0848   -4.8383    0.5324 C   0  0  0  0  0  0  0  0  0  0  0  0
    4.5141   -3.4821    0.2124 C   0  0  0  0  0  0  0  0  0  0  0  0
    4.4928   -0.9810    0.7198 C   0  0  0  0  0  0  0  0  0  0  0  0
    5.4341   -5.8230   -0.3099 C   0  0  0  0  0  0  0  0  0  0  0  0
    6.6825   -2.2316    0.7952 C   0  0  0  0  0  0  0  0  0  0  0  0
    5.1795   -2.3355    1.0135 C   0  0  2  0  0  0  0  0  0  0  0  0
    3.1099   -0.9642    1.0580 O   0  0  0  0  0  0  0  0  0  0  0  0
    6.9981   -7.3138   -0.1840 H   0  0  0  0  0  0  0  0  0  0  0  0
    6.0555   -7.1306    1.3085 H   0  0  0  0  0  0  0  0  0  0  0  0
    5.3704   -7.9776   -0.0932 H   0  0  0  0  0  0  0  0  0  0  0  0
    4.6169   -6.5361   -2.1745 H   0  0  0  0  0  0  0  0  0  0  0  0
    6.2767   -5.9673   -2.2930 H   0  0  0  0  0  0  0  0  0  0  0  0
    4.9483   -4.7992   -2.1819 H   0  0  0  0  0  0  0  0  0  0  0  0
    8.5944   -2.0657    1.7015 H   0  0  0  0  0  0  0  0  0  0  0  0
    7.1635   -2.2160    2.8625 H   0  0  0  0  0  0  0  0  0  0  0  0
    8.2770   -2.0073   -0.6460 H   0  0  0  0  0  0  0  0  0  0  0  0
    6.7188   -1.3795   -1.2073 H   0  0  0  0  0  0  0  0  0  0  0  0
    6.9965   -3.1197   -1.1526 H   0  0  0  0  0  0  0  0  0  0  0  0
    5.2185   -5.0246    1.5995 H   0  0  0  0  0  0  0  0  0  0  0  0
    3.4441   -3.4783    0.4728 H   0  0  0  0  0  0  0  0  0  0  0  0
    4.5719   -3.2677   -0.8616 H   0  0  0  0  0  0  0  0  0  0  0  0
    4.9582   -0.2062    1.3364 H   0  0  0  0  0  0  0  0  0  0  0  0
    4.6408   -0.6957   -0.3342 H   0  0  0  0  0  0  0  0  0  0  0  0
    5.0080   -2.5362    2.0795 H   0  0  0  0  0  0  0  0  0  0  0  0
    2.6321   -1.4689    0.3834 H   0  0  0  0  0  0  0  0  0  0  0  0
  1 13  1  0  0  0  0
  2  8  1  0  0  0  0
  3 19  1  0  0  0  0
  4  9  1  0  0  0  0
  5 23  1  0  0  0  0
  6 24  1  0  0  0  0
  6  5  1  0  0  0  0
  6 10  1  0  0  0  0
  7 10  1  0  0  0  0
  7 11  1  0  0  0  0
  7 26  1  0  0  0  0
  8  1  1  0  0  0  0
  8  5  2  0  0  0  0
  9 10  1  0  0  0  0
  9  3  2  0  0  0  0
 10 28  1  1  0  0  0
 12  1  1  0  0  0  0
 14  1  1  0  0  0  0
 15  2  1  0  0  0  0
 16  2  1  0  0  0  0
 17  2  1  0  0  0  0
 18  3  1  0  0  0  0
 20  4  1  0  0  0  0
 21  4  1  0  0  0  0
 22  4  1  0  0  0  0
 25  6  1  0  0  0  0
 27  7  1  0  0  0  0
 29 11  1  0  0  0  0
M  END
>  <HBA>
1

>  <HBD>
1

>  <TPSA>
20.23

>  <cid>
68133

>  <dipole>
2.08

>  <excitation_energy_1>
5.552

>  <excitation_energy_2>
5.691

>  <excitation_energy_3>
5.895

>  <excitation_energy_4>
6.118

>  <homo_energy>
-6.226

>  <homo_lumo_gap>
6.792

>  <logP>
2.527

>  <lumo_energy>
0.566

>  <melting_point>
-14.57

>  <molecular_refractivity>
50.4

>  <oscillator_strength_1>
0.0168

>  <oscillator_strength_2>
0.0009

>  <oscillator_strength_3>
0.0214

>  <oscillator_strength_4>
0.011

>  <open_babel_can_smiles>
OC[C@H](C(=C)C)CC=C(C)C

>  <mulliken_charges>
29
1   -0.5054
2   -0.513854
3   -0.405862
4   -0.528483
5   -0.148903
6   -0.328206
7   -0.042346
8   0.180704
9   0.248299
10   -0.167576
11   -0.615305
12   0.149584
13   0.15304
14   0.148128
15   0.153694
16   0.15183
17   0.150754
18   0.130874
19   0.13391
20   0.153452
21   0.150443
22   0.165829
23   0.115145
24   0.137054
25   0.132751
26   0.153171
27   0.11708
28   0.137207
29   0.392987

>  <lowdin_charges>
29
1   -0.436809
2   -0.447187
3   -0.358475
4   -0.44555
5   -0.1857
6   -0.279453
7   -0.136256
8   -0.010989
9   0.010402
10   -0.139697
11   -0.467236
12   0.152141
13   0.153377
14   0.152438
15   0.157448
16   0.154489
17   0.153
18   0.151161
19   0.152761
20   0.156247
21   0.152763
22   0.161732
23   0.146895
24   0.145364
25   0.140504
26   0.153556
27   0.123297
28   0.147349
29   0.342428

$$$$

