PCCDB-ID:  17481
public computational chemistry database (PCCDB) project, http://pccdb.org

 29 30  0  0  0  0  0  0  0  0999 V2000
    2.4843   -0.2537   -2.0443 C   0  0  0  0  0  0  0  0  0  0  0  0
    2.6213    1.1236    0.0071 C   0  0  0  0  0  0  0  0  0  0  0  0
    3.6840   -7.0624   -0.8711 C   0  0  0  0  0  0  0  0  0  0  0  0
    2.8041   -6.0045   -1.2060 C   0  0  0  0  0  0  0  0  0  0  0  0
    7.1125   -3.8330    0.3393 C   0  0  0  0  0  0  0  0  0  0  0  0
    4.9525   -6.7878   -0.4141 C   0  0  0  0  0  0  0  0  0  0  0  0
    6.7071   -5.1413    0.2091 C   0  0  0  0  0  0  0  0  0  0  0  0
    3.2077   -4.6942   -1.0804 C   0  0  0  0  0  0  0  0  0  0  0  0
    6.2474   -2.7683   -0.0040 C   0  0  0  0  0  0  0  0  0  0  0  0
    5.4056   -5.4486   -0.2682 C   0  0  0  0  0  0  0  0  0  0  0  0
    4.5114   -4.3814   -0.6110 C   0  0  0  0  0  0  0  0  0  0  0  0
    4.9808   -3.0452   -0.4632 C   0  0  0  0  0  0  0  0  0  0  0  0
    3.8720   -0.9493   -0.0850 C   0  0  0  0  0  0  0  0  0  0  0  0
    3.0645   -0.0530   -0.7250 N   0  0  0  0  0  0  0  0  0  0  0  0
    4.3281   -0.8158    1.0332 O   0  0  0  0  0  0  0  0  0  0  0  0
    4.1123   -2.0455   -0.8916 O   0  0  0  0  0  0  0  0  0  0  0  0
    2.5909    0.6667   -2.6314 H   0  0  0  0  0  0  0  0  0  0  0  0
    1.4130   -0.4914   -1.9746 H   0  0  0  0  0  0  0  0  0  0  0  0
    2.9942   -1.0626   -2.5622 H   0  0  0  0  0  0  0  0  0  0  0  0
    2.8468    2.0312   -0.5667 H   0  0  0  0  0  0  0  0  0  0  0  0
    3.1396    1.1587    0.9640 H   0  0  0  0  0  0  0  0  0  0  0  0
    1.5373    1.0874    0.1831 H   0  0  0  0  0  0  0  0  0  0  0  0
    3.3525   -8.0920   -0.9746 H   0  0  0  0  0  0  0  0  0  0  0  0
    1.8028   -6.2308   -1.5626 H   0  0  0  0  0  0  0  0  0  0  0  0
    8.1084   -3.6028    0.7070 H   0  0  0  0  0  0  0  0  0  0  0  0
    5.6315   -7.5966   -0.1544 H   0  0  0  0  0  0  0  0  0  0  0  0
    7.3775   -5.9567    0.4686 H   0  0  0  0  0  0  0  0  0  0  0  0
    2.5351   -3.8832   -1.3363 H   0  0  0  0  0  0  0  0  0  0  0  0
    6.5707   -1.7409    0.1068 H   0  0  0  0  0  0  0  0  0  0  0  0
  1 18  1  0  0  0  0
  1 14  1  0  0  0  0
  2 22  1  0  0  0  0
  2 21  1  0  0  0  0
  3  6  2  0  0  0  0
  4  8  2  0  0  0  0
  4  3  1  0  0  0  0
  5 25  1  0  0  0  0
  6 10  1  0  0  0  0
  6 26  1  0  0  0  0
  7  5  1  0  0  0  0
  7 27  1  0  0  0  0
  8 11  1  0  0  0  0
  9 29  1  0  0  0  0
  9  5  2  0  0  0  0
 10  7  2  0  0  0  0
 11 12  2  0  0  0  0
 11 10  1  0  0  0  0
 12  9  1  0  0  0  0
 13 15  2  0  0  0  0
 14 13  1  0  0  0  0
 14  2  1  0  0  0  0
 16 12  1  0  0  0  0
 16 13  1  0  0  0  0
 17  1  1  0  0  0  0
 19  1  1  0  0  0  0
 20  2  1  0  0  0  0
 23  3  1  0  0  0  0
 24  4  1  0  0  0  0
 28  8  1  0  0  0  0
M  END
>  <HBA>
3

>  <HBD>
0

>  <TPSA>
29.54

>  <cid>
17481

>  <dipole>
2.58

>  <excitation_energy_1>
4.209

>  <excitation_energy_2>
4.393

>  <excitation_energy_3>
5.094

>  <excitation_energy_4>
5.296

>  <homo_energy>
-5.646

>  <homo_lumo_gap>
4.694

>  <logP>
2.9

>  <lumo_energy>
-0.952

>  <melting_point>
86.79

>  <molecular_refractivity>
63.54

>  <oscillator_strength_1>
0.1093

>  <oscillator_strength_2>
0.0017

>  <oscillator_strength_3>
0.0155

>  <oscillator_strength_4>
0.0055

>  <open_babel_can_smiles>
O=C(N(C)C)Oc1cccc2c1cccc2

>  <mulliken_charges>
29
1   -0.315437
2   -0.318143
3   -0.13069
4   -0.136845
5   -0.150136
6   -0.196619
7   -0.182325
8   -0.177243
9   -0.141797
10   0.125916
11   0.085606
12   0.296751
13   0.783468
14   -0.436469
15   -0.507075
16   -0.564054
17   0.156768
18   0.155561
19   0.198792
20   0.154146
21   0.205861
22   0.154658
23   0.129722
24   0.128636
25   0.134414
26   0.130441
27   0.128608
28   0.136973
29   0.150513

>  <lowdin_charges>
29
1   -0.351463
2   -0.348552
3   -0.157275
4   -0.156576
5   -0.150421
6   -0.156883
7   -0.165847
8   -0.157294
9   -0.168917
10   0.004157
11   -0.015645
12   0.103139
13   0.212424
14   -0.105838
15   -0.300616
16   -0.176927
17   0.153028
18   0.146082
19   0.17967
20   0.15047
21   0.185335
22   0.146547
23   0.157598
24   0.157184
25   0.160498
26   0.159141
27   0.15928
28   0.16427
29   0.17343

$$$$

