PCCDB-ID:  62540
public computational chemistry database (PCCDB) project, http://pccdb.org

 10  9  0  0  0  0  0  0  0  0999 V2000
    1.1060   -0.0007   -0.2263 C   0  0  0  0  0  0  0  0  0  0  0  0
    2.9647    1.0119    0.8011 C   0  0  0  0  0  0  0  0  0  0  0  0
    4.3546    0.9963    0.8362 O   0  0  0  0  0  0  0  0  0  0  0  0
    2.5091   -0.0113   -0.0587 O   0  0  0  0  0  0  0  0  0  0  0  0
    0.8607   -0.8038   -0.9250 H   0  0  0  0  0  0  0  0  0  0  0  0
    0.7493    0.9563   -0.6414 H   0  0  0  0  0  0  0  0  0  0  0  0
    0.5783   -0.1827    0.7235 H   0  0  0  0  0  0  0  0  0  0  0  0
    2.5640    1.9843    0.4510 H   0  0  0  0  0  0  0  0  0  0  0  0
    2.6267    0.8428    1.8341 H   0  0  0  0  0  0  0  0  0  0  0  0
    4.6638    1.0959   -0.0789 H   0  0  0  0  0  0  0  0  0  0  0  0
  1  4  1  0  0  0  0
  1  7  1  0  0  0  0
  2  3  1  0  0  0  0
  2  9  1  0  0  0  0
  4  2  1  0  0  0  0
  5  1  1  0  0  0  0
  6  1  1  0  0  0  0
  8  2  1  0  0  0  0
 10  3  1  0  0  0  0
M  END
>  <HBA>
2

>  <HBD>
1

>  <TPSA>
29.46

>  <cid>
62540

>  <dipole>
2.05

>  <excitation_energy_1>
6.554

>  <excitation_energy_2>
6.82

>  <excitation_energy_3>
7.392

>  <excitation_energy_4>
7.44

>  <homo_energy>
-7.034

>  <homo_lumo_gap>
9.304

>  <logP>
-0.417

>  <lumo_energy>
2.269

>  <melting_point>
-14.24

>  <molecular_refractivity>
13.97

>  <oscillator_strength_1>
0.0118

>  <oscillator_strength_2>
0.0287

>  <oscillator_strength_3>
0.0084

>  <oscillator_strength_4>
0.0093

>  <open_babel_can_smiles>
COCO

>  <mulliken_charges>
10
1   -0.203036
2   0.193085
3   -0.594223
4   -0.459143
5   0.164543
6   0.13139
7   0.13614
8   0.101888
9   0.133426
10   0.395931

>  <lowdin_charges>
10
1   -0.281809
2   -0.015662
3   -0.431871
4   -0.28114
5   0.15991
6   0.131925
7   0.134688
8   0.106841
9   0.130451
10   0.346667

$$$$

