PCCDB-ID:  7953
public computational chemistry database (PCCDB) project, http://pccdb.org

 20 20  0  0  0  0  0  0  0  0999 V2000
    0.8778   -0.0222   -0.0825 C   0  0  0  0  0  0  0  0  0  0  0  0
    5.3412    2.3955   -0.0861 C   0  0  0  0  0  0  0  0  0  0  0  0
    5.3345   -2.4414   -0.0882 C   0  0  0  0  0  0  0  0  0  0  0  0
    3.1168    1.1720   -0.0828 C   0  0  0  0  0  0  0  0  0  0  0  0
    3.1142   -1.2134   -0.0849 C   0  0  0  0  0  0  0  0  0  0  0  0
    2.3872   -0.0181   -0.0837 C   0  0  0  0  0  0  0  0  0  0  0  0
    4.5166    1.1308   -0.0848 C   0  0  0  0  0  0  0  0  0  0  0  0
    4.5112   -1.1760   -0.0862 C   0  0  0  0  0  0  0  0  0  0  0  0
    5.2006   -0.0225   -0.0866 N   0  0  0  0  0  0  0  0  0  0  0  0
    0.4740    0.9947   -0.0856 H   0  0  0  0  0  0  0  0  0  0  0  0
    0.4842   -0.5392    0.8012 H   0  0  0  0  0  0  0  0  0  0  0  0
    0.4829   -0.5452   -0.9621 H   0  0  0  0  0  0  0  0  0  0  0  0
    4.7127    3.2913   -0.0806 H   0  0  0  0  0  0  0  0  0  0  0  0
    5.9884    2.4286   -0.9699 H   0  0  0  0  0  0  0  0  0  0  0  0
    5.9983    2.4242    0.7905 H   0  0  0  0  0  0  0  0  0  0  0  0
    4.7053   -3.3366   -0.0789 H   0  0  0  0  0  0  0  0  0  0  0  0
    5.9948   -2.4688    0.7860 H   0  0  0  0  0  0  0  0  0  0  0  0
    5.9787   -2.4767   -0.9743 H   0  0  0  0  0  0  0  0  0  0  0  0
    2.6019    2.1294   -0.0795 H   0  0  0  0  0  0  0  0  0  0  0  0
    2.5970   -2.1699   -0.0836 H   0  0  0  0  0  0  0  0  0  0  0  0
  1 11  1  0  0  0  0
  2  7  1  0  0  0  0
  2 13  1  0  0  0  0
  2 15  1  0  0  0  0
  3  8  1  0  0  0  0
  3 16  1  0  0  0  0
  3 17  1  0  0  0  0
  4 19  1  0  0  0  0
  5  6  2  0  0  0  0
  5 20  1  0  0  0  0
  6  4  1  0  0  0  0
  6  1  1  0  0  0  0
  7  4  2  0  0  0  0
  8  5  1  0  0  0  0
  9  8  2  0  0  0  0
  9  7  1  0  0  0  0
 10  1  1  0  0  0  0
 12  1  1  0  0  0  0
 14  2  1  0  0  0  0
 18  3  1  0  0  0  0
M  END
>  <HBA>
1

>  <HBD>
0

>  <TPSA>
12.89

>  <cid>
7953

>  <dipole>
1.84

>  <excitation_energy_1>
4.89

>  <excitation_energy_2>
5.2

>  <excitation_energy_3>
5.265

>  <excitation_energy_4>
5.932

>  <homo_energy>
-6.485

>  <homo_lumo_gap>
6.109

>  <logP>
2.007

>  <lumo_energy>
-0.376

>  <melting_point>
32.33

>  <molecular_refractivity>
39.13

>  <oscillator_strength_1>
0.0045

>  <oscillator_strength_2>
0.0684

>  <oscillator_strength_3>
0.0001

>  <oscillator_strength_4>
0.0102

>  <open_babel_can_smiles>
Cc1cc(C)nc(c1)C

>  <mulliken_charges>
20
1   -0.532062
2   -0.505124
3   -0.504554
4   -0.233671
5   -0.226532
6   0.208867
7   0.30941
8   0.304656
9   -0.519157
10   0.158623
11   0.167523
12   0.167452
13   0.145158
14   0.169134
15   0.169134
16   0.144817
17   0.168912
18   0.168832
19   0.119641
20   0.11894

>  <lowdin_charges>
20
1   -0.443308
2   -0.445318
3   -0.445145
4   -0.206906
5   -0.204899
6   0.028855
7   0.060608
8   0.060108
9   -0.177819
10   0.157895
11   0.165241
12   0.165236
13   0.151942
14   0.16764
15   0.16767
16   0.151798
17   0.167523
18   0.167409
19   0.15574
20   0.15573

$$$$

