PCCDB-ID:  38239
public computational chemistry database (PCCDB) project, http://pccdb.org

 15 14  0  0  0  0  0  0  0  0999 V2000
    0.9604    0.2408    0.0432 C   0  0  0  0  0  0  0  0  0  0  0  0
    0.0759    1.3981   -0.4712 C   0  0  0  0  0  0  0  0  0  0  0  0
    2.4512    0.5859    0.1072 C   0  0  0  0  0  0  0  0  0  0  0  0
    0.1655    2.5893    0.3796 C   0  0  0  0  0  0  0  0  0  0  0  0
    3.0803    0.7754   -1.2699 C   0  0  0  0  0  0  0  0  0  0  0  0
    0.2733    3.5159    1.0711 N   0  0  0  0  0  0  0  0  0  0  0  0
    2.5056    0.5917   -2.3150 O   0  0  0  0  0  0  0  0  0  0  0  0
    4.3811    1.1648   -1.2697 O   0  0  0  0  0  0  0  0  0  0  0  0
    0.8153   -0.6110   -0.6279 H   0  0  0  0  0  0  0  0  0  0  0  0
    0.6213   -0.0585    1.0406 H   0  0  0  0  0  0  0  0  0  0  0  0
   -0.9712    1.0766   -0.5134 H   0  0  0  0  0  0  0  0  0  0  0  0
    0.3745    1.6635   -1.4909 H   0  0  0  0  0  0  0  0  0  0  0  0
    2.9978   -0.2185    0.6192 H   0  0  0  0  0  0  0  0  0  0  0  0
    2.6102    1.4942    0.7055 H   0  0  0  0  0  0  0  0  0  0  0  0
    4.6978    1.2845   -0.3587 H   0  0  0  0  0  0  0  0  0  0  0  0
  1  3  1  0  0  0  0
  1 10  1  0  0  0  0
  2  1  1  0  0  0  0
  2  4  1  0  0  0  0
  3 13  1  0  0  0  0
  3 14  1  0  0  0  0
  4  6  3  0  0  0  0
  5  8  1  0  0  0  0
  5  3  1  0  0  0  0
  7  5  2  0  0  0  0
  8 15  1  0  0  0  0
  9  1  1  0  0  0  0
 11  2  1  0  0  0  0
 12  2  1  0  0  0  0
M  END
>  <HBA>
3

>  <HBD>
1

>  <TPSA>
61.09

>  <cid>
38239

>  <dipole>
3.59

>  <excitation_energy_1>
5.733

>  <excitation_energy_2>
6.638

>  <excitation_energy_3>
7.18

>  <excitation_energy_4>
7.543

>  <homo_energy>
-7.78

>  <homo_lumo_gap>
7.655

>  <logP>
0.765

>  <lumo_energy>
-0.125

>  <melting_point>
85.16

>  <molecular_refractivity>
27.67

>  <oscillator_strength_1>
0.0007

>  <oscillator_strength_2>
0.0145

>  <oscillator_strength_3>
0.0035

>  <oscillator_strength_4>
0.0003

>  <open_babel_can_smiles>
N#CCCCC(=O)O

>  <mulliken_charges>
15
1   -0.255207
2   -0.35707
3   -0.418321
4   0.349282
5   0.613856
6   -0.47397
7   -0.441076
8   -0.560148
9   0.177393
10   0.159624
11   0.196042
12   0.226319
13   0.180168
14   0.188837
15   0.414271

>  <lowdin_charges>
15
1   -0.259897
2   -0.278166
3   -0.33093
4   -0.019639
5   0.199843
6   -0.133367
7   -0.243005
8   -0.34944
9   0.16885
10   0.158566
11   0.183957
12   0.195482
13   0.173944
14   0.173283
15   0.36052

$$$$

