PCCDB-ID:  29854
public computational chemistry database (PCCDB) project, http://pccdb.org

 20 20  0  0  1  0  0  0  0  0999 V2000
    6.3713    3.2262    1.1513 C   0  0  0  0  0  0  0  0  0  0  0  0
    9.0202   -1.4580   -1.6778 C   0  0  0  0  0  0  0  0  0  0  0  0
    6.4031    1.9727    0.6939 C   0  0  0  0  0  0  0  0  0  0  0  0
    6.9434   -0.0760   -2.3183 C   0  0  0  0  0  0  0  0  0  0  0  0
    9.2607    0.6866   -3.1268 C   0  0  0  0  0  0  0  0  0  0  0  0
    6.7101    1.6938   -0.7315 C   0  0  0  0  0  0  0  0  0  0  0  0
    8.4195   -0.3645   -2.5318 C   0  0  1  0  0  0  0  0  0  0  0  0
    6.9483    2.5304   -1.5795 O   0  0  0  0  0  0  0  0  0  0  0  0
    6.6792    0.3560   -0.9652 O   0  0  0  0  0  0  0  0  0  0  0  0
    8.7680   -0.4018   -3.9271 O   0  0  0  0  0  0  0  0  0  0  0  0
    6.1466    3.4491    2.1899 H   0  0  0  0  0  0  0  0  0  0  0  0
    6.5707    4.0603    0.4845 H   0  0  0  0  0  0  0  0  0  0  0  0
    8.9161   -1.2185   -0.6140 H   0  0  0  0  0  0  0  0  0  0  0  0
   10.0812   -1.5890   -1.9086 H   0  0  0  0  0  0  0  0  0  0  0  0
    8.5096   -2.4111   -1.8615 H   0  0  0  0  0  0  0  0  0  0  0  0
    6.2080    1.1153    1.3309 H   0  0  0  0  0  0  0  0  0  0  0  0
    6.3555   -0.9904   -2.4396 H   0  0  0  0  0  0  0  0  0  0  0  0
    6.6006    0.6819   -3.0243 H   0  0  0  0  0  0  0  0  0  0  0  0
   10.3354    0.6738   -2.9432 H   0  0  0  0  0  0  0  0  0  0  0  0
    8.8297    1.6630   -3.3396 H   0  0  0  0  0  0  0  0  0  0  0  0
  1 11  1  0  0  0  0
  2 13  1  0  0  0  0
  3  1  2  0  0  0  0
  3 16  1  0  0  0  0
  4  9  1  0  0  0  0
  5 19  1  0  0  0  0
  5  7  1  0  0  0  0
  6  3  1  0  0  0  0
  7  4  1  1  0  0  0
  7  2  1  0  0  0  0
  8  6  2  0  0  0  0
  9  6  1  0  0  0  0
 10  5  1  0  0  0  0
 10  7  1  0  0  0  0
 12  1  1  0  0  0  0
 14  2  1  0  0  0  0
 15  2  1  0  0  0  0
 17  4  1  0  0  0  0
 18  4  1  0  0  0  0
 20  5  1  0  0  0  0
M  END
>  <HBA>
3

>  <HBD>
0

>  <TPSA>
38.83

>  <cid>
29854

>  <dipole>
2.83

>  <excitation_energy_1>
4.755

>  <excitation_energy_2>
5.226

>  <excitation_energy_3>
5.942

>  <excitation_energy_4>
6.189

>  <homo_energy>
-7.222

>  <homo_lumo_gap>
5.84

>  <logP>
0.504

>  <lumo_energy>
-1.382

>  <melting_point>
-10.73

>  <molecular_refractivity>
35.58

>  <oscillator_strength_1>
0.0002

>  <oscillator_strength_2>
0.0332

>  <oscillator_strength_3>
0.005

>  <oscillator_strength_4>
0.2112

>  <open_babel_can_smiles>
C[C@@]1(COC(=O)C=C)CO1

>  <mulliken_charges>
20
1   -0.300831
2   -0.475298
3   -0.134805
4   -0.083052
5   -0.126919
6   0.61026
7   0.298803
8   -0.487864
9   -0.475365
10   -0.466365
11   0.159984
12   0.182339
13   0.16172
14   0.160297
15   0.155671
16   0.155856
17   0.15959
18   0.181795
19   0.147379
20   0.176804

>  <lowdin_charges>
20
1   -0.261843
2   -0.442883
3   -0.187776
4   -0.136709
5   -0.164017
6   0.201744
7   0.094416
8   -0.272382
9   -0.195034
10   -0.286409
11   0.16917
12   0.181189
13   0.161129
14   0.161787
15   0.158095
16   0.171857
17   0.159069
18   0.171547
19   0.150896
20   0.166156

$$$$

