PCCDB-ID:  8706
public computational chemistry database (PCCDB) project, http://pccdb.org

 16 17  0  0  0  0  0  0  0  0999 V2000
    2.1296    0.7528   -0.0309 C   0  0  0  0  0  0  0  0  0  0  0  0
    2.2240   -0.6407    0.0005 C   0  0  0  0  0  0  0  0  0  0  0  0
    0.8847    1.3877   -0.0546 C   0  0  0  0  0  0  0  0  0  0  0  0
    1.0688   -1.4299    0.0094 C   0  0  0  0  0  0  0  0  0  0  0  0
   -0.2645    0.5993   -0.0464 C   0  0  0  0  0  0  0  0  0  0  0  0
   -0.1725   -0.8038   -0.0142 C   0  0  0  0  0  0  0  0  0  0  0  0
   -2.5812    0.0672   -0.0480 C   0  0  0  0  0  0  0  0  0  0  0  0
   -3.8492    0.1737   -0.0543 N   0  0  0  0  0  0  0  0  0  0  0  0
   -1.5846    1.0390   -0.0661 N   0  0  0  0  0  0  0  0  0  0  0  0
   -1.7818   -1.5459   -0.0081 S   0  0  0  0  0  0  0  0  0  0  0  0
    3.0326    1.3563   -0.0370 H   0  0  0  0  0  0  0  0  0  0  0  0
    3.1987   -1.1188    0.0180 H   0  0  0  0  0  0  0  0  0  0  0  0
    0.8121    2.4717   -0.0783 H   0  0  0  0  0  0  0  0  0  0  0  0
    1.1395   -2.5133    0.0341 H   0  0  0  0  0  0  0  0  0  0  0  0
   -4.1519    1.1506   -0.0774 H   0  0  0  0  0  0  0  0  0  0  0  0
   -1.8296    2.0192   -0.0869 H   0  0  0  0  0  0  0  0  0  0  0  0
  1  2  1  0  0  0  0
  2  4  2  0  0  0  0
  2 12  1  0  0  0  0
  3  5  1  0  0  0  0
  3  1  2  0  0  0  0
  4 14  1  0  0  0  0
  5  6  2  0  0  0  0
  6 10  1  0  0  0  0
  6  4  1  0  0  0  0
  7 10  1  0  0  0  0
  8  7  2  0  0  0  0
  9  7  1  0  0  0  0
  9  5  1  0  0  0  0
 11  1  1  0  0  0  0
 13  3  1  0  0  0  0
 15  8  1  0  0  0  0
 16  9  1  0  0  0  0
M  END
>  <HBA>
3

>  <HBD>
1

>  <TPSA>
67.15

>  <cid>
8706

>  <dipole>
3.92

>  <excitation_energy_1>
4.413

>  <excitation_energy_2>
4.46

>  <excitation_energy_3>
4.781

>  <excitation_energy_4>
4.859

>  <homo_energy>
-5.565

>  <homo_lumo_gap>
5.238

>  <logP>
2.46

>  <lumo_energy>
-0.327

>  <melting_point>
112.54

>  <molecular_refractivity>
44.02

>  <oscillator_strength_1>
0.0002

>  <oscillator_strength_2>
0.0904

>  <oscillator_strength_3>
0.0007

>  <oscillator_strength_4>
0.0685

>  <open_babel_can_smiles>
N=c1sc2c([nH]1)cccc2

>  <mulliken_charges>
16
1   -0.147353
2   -0.11913
3   -0.161523
4   -0.189003
5   0.380958
6   -0.146035
7   0.324691
8   -0.633316
9   -0.697548
10   0.235908
11   0.135104
12   0.133523
13   0.129906
14   0.146015
15   0.277988
16   0.329813

>  <lowdin_charges>
16
1   -0.152762
2   -0.167925
3   -0.187516
4   -0.154551
5   0.045507
6   -0.148834
7   -0.011188
8   -0.427987
9   -0.242897
10   0.254854
11   0.162102
12   0.16162
13   0.158308
14   0.165524
15   0.254048
16   0.291696

$$$$

