PCCDB-ID:  49935
public computational chemistry database (PCCDB) project, http://pccdb.org

 18 17  0  0  0  0  0  0  0  0999 V2000
    0.8765    0.0940    0.1336 C   0  0  0  0  0  0  0  0  0  0  0  0
    2.4033   -0.0289    0.1499 C   0  0  0  0  0  0  0  0  0  0  0  0
    3.0743    0.8644   -0.9036 C   0  0  0  0  0  0  0  0  0  0  0  0
    4.5984    0.7184   -0.8806 C   0  0  0  0  0  0  0  0  0  0  0  0
    6.9588    1.4463   -1.7821 O   0  0  0  0  0  0  0  0  0  0  0  0
    5.1248    1.2384   -3.4712 O   0  0  0  0  0  0  0  0  0  0  0  0
    5.1065    3.1661   -1.8136 O   0  0  0  0  0  0  0  0  0  0  0  0
    5.3753    1.7686   -2.1284 S   0  0  0  0  0  0  0  0  0  0  0  0
    0.4209   -0.5499    0.8937 H   0  0  0  0  0  0  0  0  0  0  0  0
    0.4662   -0.1966   -0.8407 H   0  0  0  0  0  0  0  0  0  0  0  0
    0.5598    1.1243    0.3342 H   0  0  0  0  0  0  0  0  0  0  0  0
    2.6905   -1.0755   -0.0223 H   0  0  0  0  0  0  0  0  0  0  0  0
    2.7834    0.2356    1.1464 H   0  0  0  0  0  0  0  0  0  0  0  0
    2.8114    1.9139   -0.7270 H   0  0  0  0  0  0  0  0  0  0  0  0
    2.7037    0.6046   -1.9029 H   0  0  0  0  0  0  0  0  0  0  0  0
    4.9195   -0.3033   -1.1029 H   0  0  0  0  0  0  0  0  0  0  0  0
    5.0273    1.0238    0.0788 H   0  0  0  0  0  0  0  0  0  0  0  0
    7.3801    1.2153   -2.6318 H   0  0  0  0  0  0  0  0  0  0  0  0
  1  2  1  0  0  0  0
  1 11  1  0  0  0  0
  1  9  1  0  0  0  0
  2 13  1  0  0  0  0
  3  4  1  0  0  0  0
  3 14  1  0  0  0  0
  3  2  1  0  0  0  0
  4 17  1  0  0  0  0
  6  8  1  0  0  0  0
  8  7  1  0  0  0  0
  8  5  1  0  0  0  0
  8  4  1  0  0  0  0
 10  1  1  0  0  0  0
 12  2  1  0  0  0  0
 15  3  1  0  0  0  0
 16  4  1  0  0  0  0
 18  5  1  0  0  0  0
M  RAD  2   6   2   7   2
M  END
>  <HBA>
3

>  <HBD>
1

>  <TPSA>
62.75

>  <cid>
49935

>  <dipole>
3.55

>  <excitation_energy_1>
7.176

>  <excitation_energy_2>
7.63

>  <excitation_energy_3>
7.714

>  <excitation_energy_4>
7.889

>  <homo_energy>
-8.248

>  <homo_lumo_gap>
9.149

>  <logP>
1.755

>  <lumo_energy>
0.901

>  <melting_point>
55.75

>  <molecular_refractivity>
31.88

>  <oscillator_strength_1>
0.009

>  <oscillator_strength_2>
0.1096

>  <oscillator_strength_3>
0.0026

>  <oscillator_strength_4>
0.0137

>  <open_babel_can_smiles>
CCCCS([O])([O])O

>  <mulliken_charges>
18
1   -0.443561
2   -0.254882
3   -0.281202
4   -0.465124
5   -0.650568
6   -0.528795
7   -0.489482
8   1.191926
9   0.150324
10   0.150207
11   0.151018
12   0.139152
13   0.140575
14   0.17562
15   0.170311
16   0.198464
17   0.206662
18   0.439354

>  <lowdin_charges>
18
1   -0.442915
2   -0.268441
3   -0.277323
4   -0.415697
5   -0.591834
6   -0.591126
7   -0.562371
8   1.333969
9   0.155524
10   0.151023
11   0.150736
12   0.141694
13   0.143214
14   0.161685
15   0.159703
16   0.183191
17   0.188282
18   0.380688

$$$$

