PCCDB-ID:  44617
public computational chemistry database (PCCDB) project, http://pccdb.org

 34 36  0  0  0  0  0  0  0  0999 V2000
    3.6459   -0.0955   -1.0407 C   0  0  0  0  0  0  0  0  0  0  0  0
    2.5394    0.0026    0.0167 C   0  0  0  0  0  0  0  0  0  0  0  0
    5.0887    0.2200    4.6331 C   0  0  0  0  0  0  0  0  0  0  0  0
    4.2251    1.3624    4.0749 C   0  0  0  0  0  0  0  0  0  0  0  0
    4.3408   -1.1262    4.5877 C   0  0  0  0  0  0  0  0  0  0  0  0
    3.8771    1.1469    2.5873 C   0  0  0  0  0  0  0  0  0  0  0  0
    1.9324   -4.3692    0.9643 C   0  0  0  0  0  0  0  0  0  0  0  0
    2.0216   -3.0500    0.5342 C   0  0  0  0  0  0  0  0  0  0  0  0
    3.0285   -3.8354    3.0679 C   0  0  0  0  0  0  0  0  0  0  0  0
    2.4310   -4.7746    2.2257 C   0  0  0  0  0  0  0  0  0  0  0  0
    3.6709   -1.3097    3.2548 C   0  0  0  0  0  0  0  0  0  0  0  0
    3.1276   -2.4967    2.6552 C   0  0  0  0  0  0  0  0  0  0  0  0
    3.4696   -0.2790    2.3655 C   0  0  0  0  0  0  0  0  0  0  0  0
    2.6153   -2.1151    1.3857 C   0  0  0  0  0  0  0  0  0  0  0  0
    2.2575   -6.1129    2.6407 N   0  0  0  0  0  0  0  0  0  0  0  0
    2.8228   -0.7484    1.2279 N   0  0  0  0  0  0  0  0  0  0  0  0
    3.3688    0.4705   -1.9378 H   0  0  0  0  0  0  0  0  0  0  0  0
    3.8166   -1.1375   -1.3295 H   0  0  0  0  0  0  0  0  0  0  0  0
    4.5894    0.3084   -0.6582 H   0  0  0  0  0  0  0  0  0  0  0  0
    1.5912   -0.3649   -0.3924 H   0  0  0  0  0  0  0  0  0  0  0  0
    2.3745    1.0482    0.2950 H   0  0  0  0  0  0  0  0  0  0  0  0
    5.3928    0.4476    5.6622 H   0  0  0  0  0  0  0  0  0  0  0  0
    6.0106    0.1439    4.0396 H   0  0  0  0  0  0  0  0  0  0  0  0
    4.7376    2.3246    4.1944 H   0  0  0  0  0  0  0  0  0  0  0  0
    3.2942    1.4241    4.6550 H   0  0  0  0  0  0  0  0  0  0  0  0
    3.6004   -1.1618    5.4029 H   0  0  0  0  0  0  0  0  0  0  0  0
    5.0423   -1.9485    4.7858 H   0  0  0  0  0  0  0  0  0  0  0  0
    4.7474    1.4034    1.9621 H   0  0  0  0  0  0  0  0  0  0  0  0
    3.0785    1.8416    2.2920 H   0  0  0  0  0  0  0  0  0  0  0  0
    1.4657   -5.1112    0.3203 H   0  0  0  0  0  0  0  0  0  0  0  0
    1.6362   -2.7699   -0.4425 H   0  0  0  0  0  0  0  0  0  0  0  0
    3.4112   -4.1425    4.0393 H   0  0  0  0  0  0  0  0  0  0  0  0
    2.2596   -6.7752    1.8728 H   0  0  0  0  0  0  0  0  0  0  0  0
    2.9274   -6.4028    3.3447 H   0  0  0  0  0  0  0  0  0  0  0  0
  1 19  1  0  0  0  0
  1  2  1  0  0  0  0
  2 21  1  0  0  0  0
  2 16  1  0  0  0  0
  3 22  1  0  0  0  0
  4 24  1  0  0  0  0
  4  3  1  0  0  0  0
  4 25  1  0  0  0  0
  5  3  1  0  0  0  0
  5 27  1  0  0  0  0
  5 26  1  0  0  0  0
  6  4  1  0  0  0  0
  7 10  1  0  0  0  0
  8  7  2  0  0  0  0
  8 14  1  0  0  0  0
  9 32  1  0  0  0  0
 10 15  1  0  0  0  0
 10  9  2  0  0  0  0
 11  5  1  0  0  0  0
 12  9  1  0  0  0  0
 12 11  1  0  0  0  0
 13  6  1  0  0  0  0
 13 11  2  0  0  0  0
 14 12  2  0  0  0  0
 15 34  1  0  0  0  0
 16 14  1  0  0  0  0
 16 13  1  0  0  0  0
 17  1  1  0  0  0  0
 18  1  1  0  0  0  0
 20  2  1  0  0  0  0
 23  3  1  0  0  0  0
 28  6  1  0  0  0  0
 29  6  1  0  0  0  0
 30  7  1  0  0  0  0
 31  8  1  0  0  0  0
 33 15  1  0  0  0  0
M  END
>  <HBA>
2

>  <HBD>
1

>  <TPSA>
30.95

>  <cid>
44617

>  <dipole>
2.03

>  <excitation_energy_1>
4.058

>  <excitation_energy_2>
4.201

>  <excitation_energy_3>
4.349

>  <excitation_energy_4>
4.425

>  <homo_energy>
-4.634

>  <homo_lumo_gap>
4.789

>  <logP>
3.703

>  <lumo_energy>
0.155

>  <melting_point>
131.24

>  <molecular_refractivity>
69.84

>  <oscillator_strength_1>
0.0554

>  <oscillator_strength_2>
0.0025

>  <oscillator_strength_3>
0.0194

>  <oscillator_strength_4>
0.0711

>  <open_babel_can_smiles>
CCn1c2ccc(cc2c2c1CCCC2)N

>  <mulliken_charges>
34
1   -0.441874
2   -0.15336
3   -0.2661
4   -0.265181
5   -0.333516
6   -0.345533
7   -0.194786
8   -0.181831
9   -0.273449
10   0.298223
11   0.027022
12   0.065777
13   0.292719
14   0.3058
15   -0.788847
16   -0.582385
17   0.144778
18   0.16415
19   0.155628
20   0.156921
21   0.153868
22   0.129862
23   0.135538
24   0.131116
25   0.142204
26   0.139898
27   0.137231
28   0.147465
29   0.145435
30   0.107737
31   0.119061
32   0.10673
33   0.30934
34   0.31036

>  <lowdin_charges>
34
1   -0.452307
2   -0.189967
3   -0.272585
4   -0.270944
5   -0.270864
6   -0.28141
7   -0.205872
8   -0.182496
9   -0.214616
10   0.045761
11   -0.08551
12   -0.02223
13   0.01094
14   0.011898
15   -0.504674
16   -0.040786
17   0.153363
18   0.157856
19   0.154342
20   0.153266
21   0.15258
22   0.142612
23   0.14101
24   0.143973
25   0.144561
26   0.144181
27   0.147635
28   0.148283
29   0.151047
30   0.150938
31   0.153237
32   0.14862
33   0.268952
34   0.269207

$$$$

