PCCDB-ID:  25619
public computational chemistry database (PCCDB) project, http://pccdb.org

 22 21  0  0  0  0  0  0  0  0999 V2000
   -4.3252   -0.2167    2.8456 C   0  0  0  0  0  0  0  0  0  0  0  0
   -1.8703    2.3574   -2.2475 C   0  0  0  0  0  0  0  0  0  0  0  0
   -3.3190    0.9145    2.6474 C   0  0  0  0  0  0  0  0  0  0  0  0
   -3.3098    1.9209   -1.9538 C   0  0  0  0  0  0  0  0  0  0  0  0
   -6.4690    0.9633    2.5605 C   0  0  0  0  0  0  0  0  0  0  0  0
   -1.2900    1.3576   -4.4430 C   0  0  0  0  0  0  0  0  0  0  0  0
   -3.2693    1.3127    0.3233 C   0  0  0  0  0  0  0  0  0  0  0  0
   -5.6583    0.2634    3.1260 N   0  0  0  0  0  0  0  0  0  0  0  0
   -1.5810    2.2271   -3.6553 N   0  0  0  0  0  0  0  0  0  0  0  0
   -7.3562    1.6125    2.1359 O   0  0  0  0  0  0  0  0  0  0  0  0
   -1.0006    0.6200   -5.3162 O   0  0  0  0  0  0  0  0  0  0  0  0
   -2.6642    0.2853    0.1024 O   0  0  0  0  0  0  0  0  0  0  0  0
   -3.6739    1.7499    1.5278 O   0  0  0  0  0  0  0  0  0  0  0  0
   -3.6528    2.2201   -0.5870 O   0  0  0  0  0  0  0  0  0  0  0  0
   -3.9947   -0.8197    3.6974 H   0  0  0  0  0  0  0  0  0  0  0  0
   -4.3284   -0.8660    1.9629 H   0  0  0  0  0  0  0  0  0  0  0  0
   -1.1737    1.7625   -1.6475 H   0  0  0  0  0  0  0  0  0  0  0  0
   -1.7527    3.4086   -1.9698 H   0  0  0  0  0  0  0  0  0  0  0  0
   -2.3187    0.5008    2.4971 H   0  0  0  0  0  0  0  0  0  0  0  0
   -3.3250    1.5898    3.5049 H   0  0  0  0  0  0  0  0  0  0  0  0
   -3.4379    0.8525   -2.1437 H   0  0  0  0  0  0  0  0  0  0  0  0
   -4.0160    2.4949   -2.5557 H   0  0  0  0  0  0  0  0  0  0  0  0
  1  8  1  0  0  0  0
  1 15  1  0  0  0  0
  2 18  1  0  0  0  0
  2  4  1  0  0  0  0
  2 17  1  0  0  0  0
  3  1  1  0  0  0  0
  3 20  1  0  0  0  0
  4 14  1  0  0  0  0
  5  8  2  0  0  0  0
  6  9  2  0  0  0  0
  7 13  1  0  0  0  0
  9  2  1  0  0  0  0
 10  5  2  0  0  0  0
 11  6  2  0  0  0  0
 12  7  2  0  0  0  0
 13  3  1  0  0  0  0
 14  7  1  0  0  0  0
 16  1  1  0  0  0  0
 19  3  1  0  0  0  0
 21  4  1  0  0  0  0
 22  4  1  0  0  0  0
M  END
>  <HBA>
7

>  <HBD>
0

>  <TPSA>
94.39

>  <cid>
25619

>  <dipole>
2.92

>  <excitation_energy_1>
6.124

>  <excitation_energy_2>
6.133

>  <excitation_energy_3>
6.809

>  <excitation_energy_4>
6.874

>  <homo_energy>
-7.685

>  <homo_lumo_gap>
7.927

>  <logP>
-0.189

>  <lumo_energy>
0.242

>  <melting_point>
88.15

>  <molecular_refractivity>
43.04

>  <oscillator_strength_1>
0.0012

>  <oscillator_strength_2>
0.0012

>  <oscillator_strength_3>
0.0082

>  <oscillator_strength_4>
0.0088

>  <open_babel_can_smiles>
O=C=NCCOC(=O)OCCN=C=O

>  <mulliken_charges>
22
1   -0.165118
2   -0.166624
3   -0.058888
4   -0.052896
5   0.631154
6   0.617866
7   0.799904
8   -0.437207
9   -0.431375
10   -0.404173
11   -0.402733
12   -0.491452
13   -0.452177
14   -0.451141
15   0.176226
16   0.19302
17   0.189476
18   0.183604
19   0.179844
20   0.178965
21   0.181211
22   0.182514

>  <lowdin_charges>
22
1   -0.182364
2   -0.180391
3   -0.133305
4   -0.130144
5   0.184367
6   0.181904
7   0.230818
8   -0.191748
9   -0.182857
10   -0.151718
11   -0.152828
12   -0.293062
13   -0.172485
14   -0.167211
15   0.16935
16   0.169677
17   0.168704
18   0.16548
19   0.166977
20   0.167926
21   0.162632
22   0.170278

$$$$

