PCCDB-ID:  15807
public computational chemistry database (PCCDB) project, http://pccdb.org

 21 22  0  0  0  0  0  0  0  0999 V2000
    1.3401    0.7907    0.6517 C   0  0  0  0  0  0  0  0  0  0  0  0
    2.4612   -0.0157   -0.0299 C   0  0  0  0  0  0  0  0  0  0  0  0
    3.7131   -5.1989    2.6860 C   0  0  0  0  0  0  0  0  0  0  0  0
    4.3583   -4.3809    3.6346 C   0  0  0  0  0  0  0  0  0  0  0  0
    3.0808   -4.6556    1.5715 C   0  0  0  0  0  0  0  0  0  0  0  0
    4.3904   -2.9945    3.4983 C   0  0  0  0  0  0  0  0  0  0  0  0
    3.1007   -3.2646    1.4136 C   0  0  0  0  0  0  0  0  0  0  0  0
    3.7527   -2.4589    2.3786 C   0  0  0  0  0  0  0  0  0  0  0  0
    2.8603   -1.2397    0.7363 C   0  0  0  0  0  0  0  0  0  0  0  0
    2.5578   -2.4737    0.4084 N   0  0  0  0  0  0  0  0  0  0  0  0
    3.5796   -1.1651    1.9164 N   0  0  0  0  0  0  0  0  0  0  0  0
    1.0747    1.6655    0.0483 H   0  0  0  0  0  0  0  0  0  0  0  0
    1.6429    1.1477    1.6431 H   0  0  0  0  0  0  0  0  0  0  0  0
    0.4436    0.1752    0.7770 H   0  0  0  0  0  0  0  0  0  0  0  0
    3.3382    0.6284   -0.1834 H   0  0  0  0  0  0  0  0  0  0  0  0
    2.1319   -0.3535   -1.0164 H   0  0  0  0  0  0  0  0  0  0  0  0
    3.7126   -6.2757    2.8303 H   0  0  0  0  0  0  0  0  0  0  0  0
    4.8414   -4.8405    4.4925 H   0  0  0  0  0  0  0  0  0  0  0  0
    2.5835   -5.2812    0.8365 H   0  0  0  0  0  0  0  0  0  0  0  0
    4.8896   -2.3673    4.2320 H   0  0  0  0  0  0  0  0  0  0  0  0
    3.9245   -0.3215    2.3498 H   0  0  0  0  0  0  0  0  0  0  0  0
  1 14  1  0  0  0  0
  1 13  1  0  0  0  0
  2  1  1  0  0  0  0
  2  9  1  0  0  0  0
  3 17  1  0  0  0  0
  3  4  2  0  0  0  0
  4 18  1  0  0  0  0
  5  3  1  0  0  0  0
  6  4  1  0  0  0  0
  6 20  1  0  0  0  0
  7  5  2  0  0  0  0
  7  8  1  0  0  0  0
  8  6  2  0  0  0  0
  9 11  1  0  0  0  0
 10  9  2  0  0  0  0
 10  7  1  0  0  0  0
 11 21  1  0  0  0  0
 11  8  1  0  0  0  0
 12  1  1  0  0  0  0
 15  2  1  0  0  0  0
 16  2  1  0  0  0  0
 19  5  1  0  0  0  0
M  END
>  <HBA>
1

>  <HBD>
1

>  <TPSA>
28.68

>  <cid>
15807

>  <dipole>
3.46

>  <excitation_energy_1>
4.928

>  <excitation_energy_2>
5.137

>  <excitation_energy_3>
5.296

>  <excitation_energy_4>
5.378

>  <homo_energy>
-5.875

>  <homo_lumo_gap>
5.644

>  <logP>
2.125

>  <lumo_energy>
-0.231

>  <melting_point>
114.6

>  <molecular_refractivity>
45.87

>  <oscillator_strength_1>
0.0962

>  <oscillator_strength_2>
0.118

>  <oscillator_strength_3>
0.0079

>  <oscillator_strength_4>
0.003

>  <open_babel_can_smiles>
CCc1nc2c([nH]1)cccc2

>  <mulliken_charges>
21
1   -0.442429
2   -0.342323
3   -0.143201
4   -0.150325
5   -0.182639
6   -0.173067
7   0.22705
8   0.348839
9   0.505772
10   -0.539896
11   -0.731004
12   0.153414
13   0.138551
14   0.169088
15   0.146579
16   0.181012
17   0.123508
18   0.124354
19   0.136717
20   0.123374
21   0.326626

>  <lowdin_charges>
21
1   -0.440545
2   -0.279274
3   -0.170662
4   -0.163107
5   -0.15971
6   -0.19105
7   0.009481
8   0.019613
9   0.081573
10   -0.206319
11   -0.215524
12   0.155502
13   0.144244
14   0.161207
15   0.152468
16   0.173635
17   0.154343
18   0.157041
19   0.166608
20   0.157562
21   0.292913

$$$$

