PCCDB-ID:  8084
public computational chemistry database (PCCDB) project, http://pccdb.org

 27 26  0  0  0  0  0  0  0  0999 V2000
    0.8816    0.1264    2.3067 C   0  0  0  0  0  0  0  0  0  0  0  0
    2.5851   -1.5507    2.1345 C   0  0  0  0  0  0  0  0  0  0  0  0
    6.8414    2.2486    3.8106 C   0  0  0  0  0  0  0  0  0  0  0  0
    7.2750    0.3150    2.4665 C   0  0  0  0  0  0  0  0  0  0  0  0
    4.4904    0.6932    1.2888 C   0  0  0  0  0  0  0  0  0  0  0  0
    2.9584    0.6691    1.2144 C   0  0  0  0  0  0  0  0  0  0  0  0
    5.0169    1.2080    2.6334 C   0  0  0  0  0  0  0  0  0  0  0  0
    2.3157   -0.1248    2.2646 N   0  0  0  0  0  0  0  0  0  0  0  0
    6.4520    1.5074    2.6188 N   0  0  0  0  0  0  0  0  0  0  0  0
    0.4336   -0.4289    3.1382 H   0  0  0  0  0  0  0  0  0  0  0  0
    0.3569   -0.1721    1.3766 H   0  0  0  0  0  0  0  0  0  0  0  0
    0.6961    1.1933    2.4717 H   0  0  0  0  0  0  0  0  0  0  0  0
    2.0881   -2.0906    2.9476 H   0  0  0  0  0  0  0  0  0  0  0  0
    3.6582   -1.7478    2.2136 H   0  0  0  0  0  0  0  0  0  0  0  0
    2.2278   -1.9744    1.1739 H   0  0  0  0  0  0  0  0  0  0  0  0
    7.9023    2.5161    3.7484 H   0  0  0  0  0  0  0  0  0  0  0  0
    6.6886    1.6815    4.7512 H   0  0  0  0  0  0  0  0  0  0  0  0
    6.2609    3.1753    3.8775 H   0  0  0  0  0  0  0  0  0  0  0  0
    8.3324    0.6012    2.4561 H   0  0  0  0  0  0  0  0  0  0  0  0
    7.0587   -0.1838    1.5174 H   0  0  0  0  0  0  0  0  0  0  0  0
    7.1297   -0.4223    3.2829 H   0  0  0  0  0  0  0  0  0  0  0  0
    4.8589    1.3529    0.4929 H   0  0  0  0  0  0  0  0  0  0  0  0
    4.8923   -0.3032    1.0702 H   0  0  0  0  0  0  0  0  0  0  0  0
    2.6494    0.3265    0.2045 H   0  0  0  0  0  0  0  0  0  0  0  0
    2.5905    1.6981    1.3194 H   0  0  0  0  0  0  0  0  0  0  0  0
    4.7546    0.4935    3.4371 H   0  0  0  0  0  0  0  0  0  0  0  0
    4.4933    2.1427    2.8725 H   0  0  0  0  0  0  0  0  0  0  0  0
  1 12  1  0  0  0  0
  1 10  1  0  0  0  0
  2 14  1  0  0  0  0
  2  8  1  0  0  0  0
  2 13  1  0  0  0  0
  3 18  1  0  0  0  0
  3 17  1  0  0  0  0
  4  9  1  0  0  0  0
  4 21  1  0  0  0  0
  5  7  1  0  0  0  0
  6  5  1  0  0  0  0
  6 25  1  0  0  0  0
  6  8  1  0  0  0  0
  7 27  1  0  0  0  0
  7 26  1  0  0  0  0
  8  1  1  0  0  0  0
  9  7  1  0  0  0  0
  9  3  1  0  0  0  0
 11  1  1  0  0  0  0
 15  2  1  0  0  0  0
 16  3  1  0  0  0  0
 19  4  1  0  0  0  0
 20  4  1  0  0  0  0
 22  5  1  0  0  0  0
 23  5  1  0  0  0  0
 24  6  1  0  0  0  0
M  END
>  <HBA>
2

>  <HBD>
0

>  <TPSA>
6.48

>  <cid>
8084

>  <dipole>
0.69

>  <excitation_energy_1>
5.131

>  <excitation_energy_2>
5.34

>  <excitation_energy_3>
5.494

>  <excitation_energy_4>
5.557

>  <homo_energy>
-5.448

>  <homo_lumo_gap>
7.622

>  <logP>
0.5

>  <lumo_energy>
2.174

>  <melting_point>
-21.95

>  <molecular_refractivity>
41.55

>  <oscillator_strength_1>
0.0206

>  <oscillator_strength_2>
0.0155

>  <oscillator_strength_3>
0.0007

>  <oscillator_strength_4>
0.0114

>  <open_babel_can_smiles>
CN(CCCN(C)C)C

>  <mulliken_charges>
27
1   -0.292184
2   -0.2999
3   -0.290875
4   -0.29954
5   -0.288924
6   -0.11813
7   -0.097819
8   -0.362525
9   -0.370533
10   0.146769
11   0.115668
12   0.147752
13   0.147562
14   0.152849
15   0.115381
16   0.144231
17   0.114975
18   0.146295
19   0.145765
20   0.151207
21   0.113057
22   0.146363
23   0.137421
24   0.107625
25   0.133735
26   0.124812
27   0.128966

>  <lowdin_charges>
27
1   -0.355357
2   -0.358466
3   -0.353943
4   -0.358348
5   -0.289052
6   -0.196253
7   -0.199885
8   -0.184657
9   -0.185883
10   0.149876
11   0.119432
12   0.147402
13   0.151502
14   0.148627
15   0.119231
16   0.145899
17   0.118469
18   0.148099
19   0.147632
20   0.149553
21   0.118122
22   0.153986
23   0.140319
24   0.115515
25   0.140849
26   0.125022
27   0.142308

$$$$

