PCCDB-ID:  15461
public computational chemistry database (PCCDB) project, http://pccdb.org

 26 26  0  0  0  0  0  0  0  0999 V2000
    0.9864   -0.0695   -0.0421 C   0  0  0  0  0  0  0  0  0  0  0  0
    5.4072    2.3497    0.1059 C   0  0  0  0  0  0  0  0  0  0  0  0
    5.2259   -2.7654    0.2685 C   0  0  0  0  0  0  0  0  0  0  0  0
    7.5921   -0.8298   -0.9371 C   0  0  0  0  0  0  0  0  0  0  0  0
    3.2536    1.0568   -0.0024 C   0  0  0  0  0  0  0  0  0  0  0  0
    3.1738   -1.3356    0.0918 C   0  0  0  0  0  0  0  0  0  0  0  0
    2.4956   -0.1189    0.0048 C   0  0  0  0  0  0  0  0  0  0  0  0
    4.6473    1.0408    0.0824 C   0  0  0  0  0  0  0  0  0  0  0  0
    4.5703   -1.4033    0.1538 C   0  0  0  0  0  0  0  0  0  0  0  0
    6.8198   -0.2164    0.2201 C   0  0  0  0  0  0  0  0  0  0  0  0
    5.3106   -0.2053    0.1399 C   0  0  0  0  0  0  0  0  0  0  0  0
    7.4056    0.3261    1.1416 O   0  0  0  0  0  0  0  0  0  0  0  0
    0.6315    0.7891   -0.6223 H   0  0  0  0  0  0  0  0  0  0  0  0
    0.5610    0.0225    0.9662 H   0  0  0  0  0  0  0  0  0  0  0  0
    0.5687   -0.9779   -0.4889 H   0  0  0  0  0  0  0  0  0  0  0  0
    4.7323    3.1899   -0.0830 H   0  0  0  0  0  0  0  0  0  0  0  0
    6.2005    2.3812   -0.6506 H   0  0  0  0  0  0  0  0  0  0  0  0
    5.8923    2.5052    1.0745 H   0  0  0  0  0  0  0  0  0  0  0  0
    4.5513   -3.4716    0.7631 H   0  0  0  0  0  0  0  0  0  0  0  0
    6.1533   -2.7360    0.8488 H   0  0  0  0  0  0  0  0  0  0  0  0
    5.4647   -3.1902   -0.7158 H   0  0  0  0  0  0  0  0  0  0  0  0
    7.1461   -1.7568   -1.3054 H   0  0  0  0  0  0  0  0  0  0  0  0
    8.6315   -0.9952   -0.6431 H   0  0  0  0  0  0  0  0  0  0  0  0
    7.5740   -0.1154   -1.7722 H   0  0  0  0  0  0  0  0  0  0  0  0
    2.7436    2.0163   -0.0644 H   0  0  0  0  0  0  0  0  0  0  0  0
    2.6029   -2.2622    0.1193 H   0  0  0  0  0  0  0  0  0  0  0  0
  1  7  1  0  0  0  0
  1 14  1  0  0  0  0
  2 18  1  0  0  0  0
  3 19  1  0  0  0  0
  3 20  1  0  0  0  0
  4 23  1  0  0  0  0
  4 10  1  0  0  0  0
  5  7  2  0  0  0  0
  5  8  1  0  0  0  0
  6 26  1  0  0  0  0
  6  9  2  0  0  0  0
  7  6  1  0  0  0  0
  8  2  1  0  0  0  0
  8 11  2  0  0  0  0
  9  3  1  0  0  0  0
 10 12  2  0  0  0  0
 11  9  1  0  0  0  0
 11 10  1  0  0  0  0
 13  1  1  0  0  0  0
 15  1  1  0  0  0  0
 16  2  1  0  0  0  0
 17  2  1  0  0  0  0
 21  3  1  0  0  0  0
 22  4  1  0  0  0  0
 24  4  1  0  0  0  0
 25  5  1  0  0  0  0
M  END
>  <HBA>
1

>  <HBD>
0

>  <TPSA>
17.07

>  <cid>
15461

>  <dipole>
2.74

>  <excitation_energy_1>
4.04

>  <excitation_energy_2>
4.616

>  <excitation_energy_3>
4.749

>  <excitation_energy_4>
5.448

>  <homo_energy>
-6.343

>  <homo_lumo_gap>
5.453

>  <logP>
2.814

>  <lumo_energy>
-0.89

>  <melting_point>
52.73

>  <molecular_refractivity>
51.53

>  <oscillator_strength_1>
0.006

>  <oscillator_strength_2>
0.0237

>  <oscillator_strength_3>
0.0817

>  <oscillator_strength_4>
0.0321

>  <open_babel_can_smiles>
Cc1cc(C)c(c(c1)C)C(=O)C

>  <mulliken_charges>
26
1   -0.532263
2   -0.528136
3   -0.544015
4   -0.530118
5   -0.254049
6   -0.251944
7   0.207348
8   0.157102
9   0.154417
10   0.357016
11   -0.025505
12   -0.434158
13   0.1583
14   0.168309
15   0.156842
16   0.149199
17   0.152886
18   0.190862
19   0.163294
20   0.167649
21   0.16506
22   0.167814
23   0.176477
24   0.176454
25   0.116513
26   0.11465

>  <lowdin_charges>
26
1   -0.442615
2   -0.444924
3   -0.44739
4   -0.474346
5   -0.181844
6   -0.182628
7   0.010233
8   0.015076
9   0.004293
10   0.167264
11   -0.064186
12   -0.231007
13   0.159671
14   0.163056
15   0.15855
16   0.154923
17   0.157323
18   0.17562
19   0.163544
20   0.162457
21   0.159151
22   0.167512
23   0.169759
24   0.175744
25   0.152667
26   0.152098

$$$$

