PCCDB-ID:  13198
public computational chemistry database (PCCDB) project, http://pccdb.org

 17 17  0  0  1  0  0  0  0  0999 V2000
   -1.0281    1.0656   -0.1484 C   0  0  0  0  0  0  0  0  0  0  0  0
   -1.3552   -0.4044   -0.0558 C   0  0  0  0  0  0  0  0  0  0  0  0
    0.4139    1.3589    0.2914 C   0  0  0  0  0  0  0  0  0  0  0  0
   -0.4291   -1.3662    0.0408 C   0  0  0  0  0  0  0  0  0  0  0  0
    1.3840    0.3509   -0.3375 C   0  0  0  0  0  0  0  0  0  0  0  0
    1.0551   -1.0911    0.0840 C   0  0  1  0  0  0  0  0  0  0  0  0
    1.5853   -1.4124    1.3822 O   0  0  0  0  0  0  0  0  0  0  0  0
   -1.7406    1.6433    0.4558 H   0  0  0  0  0  0  0  0  0  0  0  0
   -1.1798    1.4050   -1.1859 H   0  0  0  0  0  0  0  0  0  0  0  0
   -2.4098   -0.6784   -0.0752 H   0  0  0  0  0  0  0  0  0  0  0  0
    0.4803    1.2906    1.3871 H   0  0  0  0  0  0  0  0  0  0  0  0
    0.6939    2.3855    0.0282 H   0  0  0  0  0  0  0  0  0  0  0  0
   -0.7292   -2.4088    0.1332 H   0  0  0  0  0  0  0  0  0  0  0  0
    2.4207    0.5668   -0.0568 H   0  0  0  0  0  0  0  0  0  0  0  0
    1.3198    0.4233   -1.4329 H   0  0  0  0  0  0  0  0  0  0  0  0
    1.5762   -1.7842   -0.5873 H   0  0  0  0  0  0  0  0  0  0  0  0
    1.0022   -0.9926    2.0343 H   0  0  0  0  0  0  0  0  0  0  0  0
  1  2  1  0  0  0  0
  1  3  1  0  0  0  0
  1  8  1  0  0  0  0
  2  4  2  0  0  0  0
  3 11  1  0  0  0  0
  4  6  1  0  0  0  0
  4 13  1  0  0  0  0
  5 14  1  0  0  0  0
  5  6  1  0  0  0  0
  5  3  1  0  0  0  0
  6 16  1  6  0  0  0
  6  7  1  0  0  0  0
  7 17  1  0  0  0  0
  9  1  1  0  0  0  0
 10  2  1  0  0  0  0
 12  3  1  0  0  0  0
 15  5  1  0  0  0  0
M  END
>  <HBA>
1

>  <HBD>
1

>  <TPSA>
20.23

>  <cid>
13198

>  <dipole>
1.95

>  <excitation_energy_1>
6.138

>  <excitation_energy_2>
6.223

>  <excitation_energy_3>
6.676

>  <excitation_energy_4>
6.771

>  <homo_energy>
-6.702

>  <homo_lumo_gap>
7.097

>  <logP>
1.087

>  <lumo_energy>
0.395

>  <melting_point>
24.42

>  <molecular_refractivity>
29.53

>  <oscillator_strength_1>
0.0363

>  <oscillator_strength_2>
0.0175

>  <oscillator_strength_3>
0.0096

>  <oscillator_strength_4>
0.0884

>  <open_babel_can_smiles>
O[C@@H]1CCCC=C1

>  <mulliken_charges>
17
1   -0.296405
2   -0.106925
3   -0.277197
4   -0.141541
5   -0.273079
6   0.107387
7   -0.626244
8   0.143531
9   0.149962
10   0.127317
11   0.126664
12   0.13743
13   0.130658
14   0.146566
15   0.13091
16   0.13754
17   0.383425

>  <lowdin_charges>
17
1   -0.278886
2   -0.161577
3   -0.274435
4   -0.197263
5   -0.289201
6   -0.002009
7   -0.469664
8   0.152837
9   0.150984
10   0.151948
11   0.133603
12   0.14678
13   0.154999
14   0.152291
15   0.141908
16   0.149508
17   0.338177

$$$$

