PCCDB-ID:  10903
public computational chemistry database (PCCDB) project, http://pccdb.org

 12 11  0  0  0  0  0  0  0  0999 V2000
    1.0172   -0.1648    0.0161 C   0  0  0  0  0  0  0  0  0  0  0  0
    4.3525    1.3720   -0.0099 C   0  0  0  0  0  0  0  0  0  0  0  0
    2.5365   -0.1248    0.0067 C   0  0  0  0  0  0  0  0  0  0  0  0
    2.9501    1.2301   -0.0002 O   0  0  0  0  0  0  0  0  0  0  0  0
    0.6608   -1.2008    0.0218 H   0  0  0  0  0  0  0  0  0  0  0  0
    0.6153    0.3368   -0.8702 H   0  0  0  0  0  0  0  0  0  0  0  0
    0.6261    0.3428    0.9038 H   0  0  0  0  0  0  0  0  0  0  0  0
    4.5706    2.4434   -0.0145 H   0  0  0  0  0  0  0  0  0  0  0  0
    4.8055    0.9124   -0.9042 H   0  0  0  0  0  0  0  0  0  0  0  0
    4.8174    0.9177    0.8810 H   0  0  0  0  0  0  0  0  0  0  0  0
    2.9332   -0.6478   -0.8813 H   0  0  0  0  0  0  0  0  0  0  0  0
    2.9440   -0.6420    0.8933 H   0  0  0  0  0  0  0  0  0  0  0  0
  1  5  1  0  0  0  0
  1  7  1  0  0  0  0
  2  4  1  0  0  0  0
  2 10  1  0  0  0  0
  3  1  1  0  0  0  0
  3 12  1  0  0  0  0
  4  3  1  0  0  0  0
  6  1  1  0  0  0  0
  8  2  1  0  0  0  0
  9  2  1  0  0  0  0
 11  3  1  0  0  0  0
M  END
>  <HBA>
1

>  <HBD>
0

>  <TPSA>
9.23

>  <cid>
10903

>  <dipole>
1.14

>  <excitation_energy_1>
6.519

>  <excitation_energy_2>
6.947

>  <excitation_energy_3>
7.243

>  <excitation_energy_4>
7.368

>  <homo_energy>
-6.797

>  <homo_lumo_gap>
9.347

>  <logP>
0.653

>  <lumo_energy>
2.55

>  <melting_point>
-33.52

>  <molecular_refractivity>
17.62

>  <oscillator_strength_1>
0.0297

>  <oscillator_strength_2>
0.0025

>  <oscillator_strength_3>
0.0128

>  <oscillator_strength_4>
0.0304

>  <open_babel_can_smiles>
COCC

>  <mulliken_charges>
12
1   -0.451836
2   -0.189945
3   -0.00445
4   -0.454691
5   0.141449
6   0.158128
7   0.158139
8   0.156542
9   0.127044
10   0.127037
11   0.116287
12   0.116294

>  <lowdin_charges>
12
1   -0.448633
2   -0.278928
3   -0.126594
4   -0.274401
5   0.152204
6   0.1575
7   0.157489
8   0.152506
9   0.130382
10   0.130417
11   0.124021
12   0.124036

$$$$

