PCCDB-ID:  22566
public computational chemistry database (PCCDB) project, http://pccdb.org

 25 26  0  0  1  0  0  0  0  0999 V2000
    0.9611    0.5543   -2.2616 C   0  0  0  0  0  0  0  0  0  0  0  0
    2.4387    0.9537   -2.1880 C   0  0  0  0  0  0  0  0  0  0  0  0
    2.9326    1.1554   -0.7497 C   0  0  0  0  0  0  0  0  0  0  0  0
    4.4171    1.5374   -0.6168 C   0  0  0  0  0  0  0  0  0  0  0  0
    5.6019    2.2048   -3.7901 C   0  0  0  0  0  0  0  0  0  0  0  0
    5.1673    3.6685   -3.8629 C   0  0  0  0  0  0  0  0  0  0  0  0
    6.2443    3.3030   -1.3432 C   0  0  0  0  0  0  0  0  0  0  0  0
    4.7774    2.8842   -1.2248 C   0  0  1  0  0  0  0  0  0  0  0  0
    5.4353    3.0166   -2.5560 C   0  0  0  0  0  0  0  0  0  0  0  0
    0.6331    0.4190   -3.2986 H   0  0  0  0  0  0  0  0  0  0  0  0
    0.3208    1.3207   -1.8074 H   0  0  0  0  0  0  0  0  0  0  0  0
    0.7767   -0.3867   -1.7285 H   0  0  0  0  0  0  0  0  0  0  0  0
    2.5954    1.8753   -2.7640 H   0  0  0  0  0  0  0  0  0  0  0  0
    3.0508    0.1804   -2.6739 H   0  0  0  0  0  0  0  0  0  0  0  0
    2.7559    0.2313   -0.1807 H   0  0  0  0  0  0  0  0  0  0  0  0
    2.3189    1.9294   -0.2642 H   0  0  0  0  0  0  0  0  0  0  0  0
    5.0426    0.7570   -1.0727 H   0  0  0  0  0  0  0  0  0  0  0  0
    4.6752    1.5530    0.4520 H   0  0  0  0  0  0  0  0  0  0  0  0
    6.6098    1.9587   -4.1181 H   0  0  0  0  0  0  0  0  0  0  0  0
    4.8590    1.4451   -4.0226 H   0  0  0  0  0  0  0  0  0  0  0  0
    4.1358    3.8757   -4.1422 H   0  0  0  0  0  0  0  0  0  0  0  0
    5.8849    4.3941   -4.2411 H   0  0  0  0  0  0  0  0  0  0  0  0
    6.9972    2.5751   -1.0440 H   0  0  0  0  0  0  0  0  0  0  0  0
    6.5038    4.3344   -1.1114 H   0  0  0  0  0  0  0  0  0  0  0  0
    4.0938    3.6912   -0.9532 H   0  0  0  0  0  0  0  0  0  0  0  0
  1  2  1  0  0  0  0
  1 11  1  0  0  0  0
  1 12  1  0  0  0  0
  2  3  1  0  0  0  0
  3  4  1  0  0  0  0
  3 16  1  0  0  0  0
  3 15  1  0  0  0  0
  4 18  1  0  0  0  0
  5  9  1  0  0  0  0
  6  5  1  0  0  0  0
  6  9  1  0  0  0  0
  7  8  1  0  0  0  0
  7 24  1  0  0  0  0
  7 23  1  0  0  0  0
  8 25  1  1  0  0  0
  8  4  1  0  0  0  0
  9  7  1  0  0  0  0
  9  8  1  0  0  0  0
 10  1  1  0  0  0  0
 13  2  1  0  0  0  0
 14  2  1  0  0  0  0
 17  4  1  0  0  0  0
 19  5  1  0  0  0  0
 20  5  1  0  0  0  0
 21  6  1  0  0  0  0
 22  6  1  0  0  0  0
M  END
>  <HBA>
0

>  <HBD>
0

>  <TPSA>
0.0

>  <cid>
22566

>  <dipole>
0.1

>  <excitation_energy_1>
6.61

>  <excitation_energy_2>
6.794

>  <excitation_energy_3>
6.859

>  <excitation_energy_4>
6.929

>  <homo_energy>
-6.944

>  <homo_lumo_gap>
9.298

>  <logP>
2.977

>  <lumo_energy>
2.354

>  <melting_point>
35.29

>  <molecular_refractivity>
40.89

>  <oscillator_strength_1>
0.0011

>  <oscillator_strength_2>
0.0068

>  <oscillator_strength_3>
0.016

>  <oscillator_strength_4>
0.0483

>  <open_babel_can_smiles>
CCCC[C@H]1CC21CC2

>  <mulliken_charges>
25
1   -0.442052
2   -0.249153
3   -0.252437
4   -0.262145
5   -0.334966
6   -0.333875
7   -0.347912
8   -0.120285
9   0.115912
10   0.140942
11   0.140872
12   0.140943
13   0.139874
14   0.130764
15   0.126172
16   0.126054
17   0.130752
18   0.131846
19   0.148397
20   0.1523
21   0.14874
22   0.148385
23   0.144806
24   0.145123
25   0.130946

>  <lowdin_charges>
25
1   -0.444871
2   -0.275664
3   -0.275828
4   -0.267808
5   -0.308788
6   -0.306243
7   -0.312408
8   -0.145661
9   -0.039857
10   0.147795
11   0.147176
12   0.145851
13   0.142974
14   0.139323
15   0.14002
16   0.138017
17   0.144227
18   0.142017
19   0.156095
20   0.158529
21   0.154814
22   0.158131
23   0.156496
24   0.155821
25   0.149841

$$$$

