PCCDB-ID:  17354
public computational chemistry database (PCCDB) project, http://pccdb.org

 28 28  0  0  1  0  0  0  0  0999 V2000
    0.7600    1.2064   -0.4129 C   0  0  0  0  0  0  0  0  0  0  0  0
    1.4504    0.0565    0.3342 C   0  0  0  0  0  0  0  0  0  0  0  0
   -1.4275   -0.0514   -0.3305 C   0  0  0  0  0  0  0  0  0  0  0  0
   -0.7342   -1.2077    0.4064 C   0  0  0  0  0  0  0  0  0  0  0  0
   -1.4436    2.4367   -0.8217 C   0  0  0  0  0  0  0  0  0  0  0  0
    1.4340   -2.4535    0.8239 C   0  0  0  0  0  0  0  0  0  0  0  0
   -0.7372    1.2994   -0.0710 C   0  0  2  0  0  0  0  0  0  0  0  0
    0.7654   -1.2954    0.0704 C   0  0  2  0  0  0  0  0  0  0  0  0
   -0.8642    3.7448   -0.4881 N   0  0  0  0  0  0  0  0  0  0  0  0
    2.8352   -2.6242    0.4168 N   0  0  0  0  0  0  0  0  0  0  0  0
    0.8608    1.0480   -1.4986 H   0  0  0  0  0  0  0  0  0  0  0  0
    1.2468    2.1623   -0.1951 H   0  0  0  0  0  0  0  0  0  0  0  0
    1.4231    0.2568    1.4172 H   0  0  0  0  0  0  0  0  0  0  0  0
    2.5082   -0.0082    0.0602 H   0  0  0  0  0  0  0  0  0  0  0  0
   -2.4847   -0.0003   -0.0354 H   0  0  0  0  0  0  0  0  0  0  0  0
   -1.4167   -0.2547   -1.4127 H   0  0  0  0  0  0  0  0  0  0  0  0
   -1.2329   -2.1569    0.1668 H   0  0  0  0  0  0  0  0  0  0  0  0
   -0.8475   -1.0625    1.4921 H   0  0  0  0  0  0  0  0  0  0  0  0
   -2.5302    2.3714   -0.6227 H   0  0  0  0  0  0  0  0  0  0  0  0
   -1.3156    2.2850   -1.9023 H   0  0  0  0  0  0  0  0  0  0  0  0
    0.8210   -3.3648    0.6888 H   0  0  0  0  0  0  0  0  0  0  0  0
    1.4276   -2.2311    1.8998 H   0  0  0  0  0  0  0  0  0  0  0  0
   -0.8236    1.5125    1.0093 H   0  0  0  0  0  0  0  0  0  0  0  0
    0.8498   -1.5109   -1.0096 H   0  0  0  0  0  0  0  0  0  0  0  0
   -1.0764    3.9710    0.4834 H   0  0  0  0  0  0  0  0  0  0  0  0
   -1.3076    4.4712   -1.0481 H   0  0  0  0  0  0  0  0  0  0  0  0
    2.8690   -2.9550   -0.5473 H   0  0  0  0  0  0  0  0  0  0  0  0
    3.2711   -3.3536    0.9786 H   0  0  0  0  0  0  0  0  0  0  0  0
  1 12  1  0  0  0  0
  1  7  1  0  0  0  0
  1  2  1  0  0  0  0
  2 13  1  0  0  0  0
  3  7  1  0  0  0  0
  3 15  1  0  0  0  0
  3  4  1  0  0  0  0
  4 18  1  0  0  0  0
  5 19  1  0  0  0  0
  5  9  1  0  0  0  0
  5  7  1  0  0  0  0
  6 22  1  0  0  0  0
  7 23  1  1  0  0  0
  8 24  1  6  0  0  0
  8  2  1  0  0  0  0
  8  4  1  0  0  0  0
  8  6  1  0  0  0  0
  9 25  1  0  0  0  0
 10  6  1  0  0  0  0
 10 28  1  0  0  0  0
 11  1  1  0  0  0  0
 14  2  1  0  0  0  0
 16  3  1  0  0  0  0
 17  4  1  0  0  0  0
 20  5  1  0  0  0  0
 21  6  1  0  0  0  0
 26  9  1  0  0  0  0
 27 10  1  0  0  0  0
M  END
>  <HBA>
2

>  <HBD>
2

>  <TPSA>
52.04

>  <cid>
17354

>  <dipole>
1.89

>  <excitation_energy_1>
5.502

>  <excitation_energy_2>
5.506

>  <excitation_energy_3>
6.159

>  <excitation_energy_4>
6.166

>  <homo_energy>
-6.112

>  <homo_lumo_gap>
8.387

>  <logP>
2.111

>  <lumo_energy>
2.275

>  <melting_point>
103.18

>  <molecular_refractivity>
43.87

>  <oscillator_strength_1>
0.0017

>  <oscillator_strength_2>
0.0152

>  <oscillator_strength_3>
0.0001

>  <oscillator_strength_4>
0.0023

>  <open_babel_can_smiles>
NC[C@@H]1CC[C@H](CC1)CN

>  <mulliken_charges>
28
1   -0.254537
2   -0.254619
3   -0.26446
4   -0.26474
5   -0.136716
6   -0.136673
7   -0.074398
8   -0.074104
9   -0.716242
10   -0.716221
11   0.11508
12   0.153965
13   0.115079
14   0.153854
15   0.123247
16   0.123336
17   0.123279
18   0.123321
19   0.10676
20   0.132597
21   0.106713
22   0.132577
23   0.105782
24   0.105839
25   0.290573
26   0.29511
27   0.290535
28   0.295063

>  <lowdin_charges>
28
1   -0.276178
2   -0.27464
3   -0.273567
4   -0.275466
5   -0.200823
6   -0.204025
7   -0.131258
8   -0.130839
9   -0.557801
10   -0.557164
11   0.13127
12   0.155576
13   0.131313
14   0.154045
15   0.137834
16   0.134042
17   0.139378
18   0.133949
19   0.11331
20   0.136793
21   0.115898
22   0.136856
23   0.125862
24   0.125921
25   0.249135
26   0.255872
27   0.249218
28   0.255489

$$$$

