PCCDB-ID:  56247
public computational chemistry database (PCCDB) project, http://pccdb.org

 29 30  0  0  0  0  0  0  0  0999 V2000
    0.9719    0.3275   -0.1027 C   0  0  0  0  0  0  0  0  0  0  0  0
    1.3813   -2.9068   -0.3329 C   0  0  0  0  0  0  0  0  0  0  0  0
    7.9706    3.3940    0.2809 C   0  0  0  0  0  0  0  0  0  0  0  0
    6.6730    3.8474    0.5214 C   0  0  0  0  0  0  0  0  0  0  0  0
    8.1713    2.0497   -0.0426 C   0  0  0  0  0  0  0  0  0  0  0  0
    5.5933    2.9712    0.4364 C   0  0  0  0  0  0  0  0  0  0  0  0
    7.0968    1.1697   -0.1343 C   0  0  0  0  0  0  0  0  0  0  0  0
    2.4475    0.0788   -0.0889 C   0  0  0  0  0  0  0  0  0  0  0  0
    2.8391   -2.4903   -0.2942 C   0  0  0  0  0  0  0  0  0  0  0  0
    5.7792    1.6155    0.1004 C   0  0  0  0  0  0  0  0  0  0  0  0
    3.2161   -1.0949   -0.1807 C   0  0  0  0  0  0  0  0  0  0  0  0
    4.6585    0.6907   -0.0082 C   0  0  0  0  0  0  0  0  0  0  0  0
    4.5982   -0.6896   -0.1332 C   0  0  0  0  0  0  0  0  0  0  0  0
    3.3215    1.1079    0.0202 N   0  0  0  0  0  0  0  0  0  0  0  0
    3.7194   -3.3654   -0.3594 O   0  0  0  0  0  0  0  0  0  0  0  0
    5.6439   -1.5361   -0.1909 O   0  0  0  0  0  0  0  0  0  0  0  0
    0.4615   -0.1832    0.7222 H   0  0  0  0  0  0  0  0  0  0  0  0
    0.5057   -0.0153   -1.0341 H   0  0  0  0  0  0  0  0  0  0  0  0
    0.7620    1.3982   -0.0047 H   0  0  0  0  0  0  0  0  0  0  0  0
    0.8642   -2.4533   -1.1866 H   0  0  0  0  0  0  0  0  0  0  0  0
    0.8567   -2.5876    0.5752 H   0  0  0  0  0  0  0  0  0  0  0  0
    1.3291   -3.9940   -0.4162 H   0  0  0  0  0  0  0  0  0  0  0  0
    8.8128    4.0769    0.3487 H   0  0  0  0  0  0  0  0  0  0  0  0
    6.4974    4.8878    0.7832 H   0  0  0  0  0  0  0  0  0  0  0  0
    9.1765    1.6803   -0.2291 H   0  0  0  0  0  0  0  0  0  0  0  0
    4.5994    3.3536    0.6599 H   0  0  0  0  0  0  0  0  0  0  0  0
    7.2650    0.1296   -0.3882 H   0  0  0  0  0  0  0  0  0  0  0  0
    3.0404    2.0768    0.0345 H   0  0  0  0  0  0  0  0  0  0  0  0
    5.2352   -2.4358   -0.2672 H   0  0  0  0  0  0  0  0  0  0  0  0
  1  8  1  0  0  0  0
  1 19  1  0  0  0  0
  1 17  1  0  0  0  0
  2  9  1  0  0  0  0
  2 21  1  0  0  0  0
  3 23  1  0  0  0  0
  3  4  2  0  0  0  0
  4 24  1  0  0  0  0
  5  3  1  0  0  0  0
  6  4  1  0  0  0  0
  6 26  1  0  0  0  0
  7  5  2  0  0  0  0
  7 10  1  0  0  0  0
  8 14  1  0  0  0  0
  9 11  1  0  0  0  0
 10  6  2  0  0  0  0
 11 13  1  0  0  0  0
 11  8  2  0  0  0  0
 12 14  1  0  0  0  0
 12 10  1  0  0  0  0
 13 12  2  0  0  0  0
 14 28  1  0  0  0  0
 15  9  2  0  0  0  0
 16 13  1  0  0  0  0
 18  1  1  0  0  0  0
 20  2  1  0  0  0  0
 22  2  1  0  0  0  0
 25  5  1  0  0  0  0
 27  7  1  0  0  0  0
 29 16  1  0  0  0  0
M  END
>  <HBA>
2

>  <HBD>
2

>  <TPSA>
53.09

>  <cid>
56247

>  <dipole>
5.25

>  <excitation_energy_1>
3.388

>  <excitation_energy_2>
4.15

>  <excitation_energy_3>
4.249

>  <excitation_energy_4>
4.36

>  <homo_energy>
-4.996

>  <homo_lumo_gap>
4.019

>  <logP>
2.898

>  <lumo_energy>
-0.977

>  <melting_point>
169.58

>  <molecular_refractivity>
63.41

>  <oscillator_strength_1>
0.028

>  <oscillator_strength_2>
0.0129

>  <oscillator_strength_3>
0.4421

>  <oscillator_strength_4>
0.0011

>  <open_babel_can_smiles>
CC(=O)c1c(C)[nH]c(c1O)c1ccccc1

>  <mulliken_charges>
29
1   -0.532063
2   -0.539442
3   -0.130543
4   -0.132639
5   -0.139521
6   -0.194741
7   -0.190618
8   0.324886
9   0.426489
10   0.163373
11   -0.045429
12   0.228101
13   0.225861
14   -0.719657
15   -0.528007
16   -0.670598
17   0.179403
18   0.179199
19   0.156538
20   0.16842
21   0.168602
22   0.183093
23   0.124713
24   0.124113
25   0.129266
26   0.097533
27   0.169955
28   0.33364
29   0.440075

>  <lowdin_charges>
29
1   -0.442251
2   -0.46761
3   -0.17004
4   -0.152566
5   -0.1507
6   -0.182916
7   -0.160103
8   0.039424
9   0.172919
10   0.001016
11   -0.148162
12   -0.040522
13   0.083231
14   -0.157638
15   -0.299247
16   -0.376047
17   0.170492
18   0.169423
19   0.159787
20   0.169091
21   0.168703
22   0.174045
23   0.15695
24   0.153934
25   0.156967
26   0.140301
27   0.175909
28   0.28891
29   0.3667

$$$$

