PCCDB-ID:  11374
public computational chemistry database (PCCDB) project, http://pccdb.org

 18 19  0  0  0  0  0  0  0  0999 V2000
    2.4281   -0.6588    0.0135 C   0  0  0  0  0  0  0  0  0  0  0  0
    1.2782   -1.4110    0.0156 C   0  0  0  0  0  0  0  0  0  0  0  0
   -2.4002    0.6699   -0.0288 C   0  0  0  0  0  0  0  0  0  0  0  0
   -1.2130    1.3634   -0.0311 C   0  0  0  0  0  0  0  0  0  0  0  0
    2.3229    0.7559   -0.0048 C   0  0  0  0  0  0  0  0  0  0  0  0
   -1.2152   -1.4511    0.0016 C   0  0  0  0  0  0  0  0  0  0  0  0
    0.0178   -0.7565    0.0001 C   0  0  0  0  0  0  0  0  0  0  0  0
   -2.4040   -0.7502   -0.0122 C   0  0  0  0  0  0  0  0  0  0  0  0
    0.0289    0.6765   -0.0166 C   0  0  0  0  0  0  0  0  0  0  0  0
    1.1795    1.4105   -0.0193 N   0  0  0  0  0  0  0  0  0  0  0  0
   -3.5726   -1.4596   -0.0105 O   0  0  0  0  0  0  0  0  0  0  0  0
    3.4080   -1.1269    0.0251 H   0  0  0  0  0  0  0  0  0  0  0  0
    1.3160   -2.4978    0.0281 H   0  0  0  0  0  0  0  0  0  0  0  0
   -3.3482    1.2056   -0.0399 H   0  0  0  0  0  0  0  0  0  0  0  0
   -1.1917    2.4484   -0.0451 H   0  0  0  0  0  0  0  0  0  0  0  0
    3.2279    1.3628   -0.0082 H   0  0  0  0  0  0  0  0  0  0  0  0
   -1.2360   -2.5369    0.0119 H   0  0  0  0  0  0  0  0  0  0  0  0
   -4.3192   -0.8413   -0.0284 H   0  0  0  0  0  0  0  0  0  0  0  0
  1  2  1  0  0  0  0
  1 12  1  0  0  0  0
  2 13  1  0  0  0  0
  3  8  1  0  0  0  0
  4  3  2  0  0  0  0
  4  9  1  0  0  0  0
  5  1  2  0  0  0  0
  6 17  1  0  0  0  0
  7  6  1  0  0  0  0
  7  2  2  0  0  0  0
  8 11  1  0  0  0  0
  8  6  2  0  0  0  0
  9  7  1  0  0  0  0
 10  9  2  0  0  0  0
 10  5  1  0  0  0  0
 14  3  1  0  0  0  0
 15  4  1  0  0  0  0
 16  5  1  0  0  0  0
 18 11  1  0  0  0  0
M  END
>  <HBA>
2

>  <HBD>
1

>  <TPSA>
33.12

>  <cid>
11374

>  <dipole>
1.33

>  <excitation_energy_1>
4.02

>  <excitation_energy_2>
4.307

>  <excitation_energy_3>
4.52

>  <excitation_energy_4>
5.141

>  <homo_energy>
-5.894

>  <homo_lumo_gap>
4.563

>  <logP>
1.94

>  <lumo_energy>
-1.331

>  <melting_point>
104.13

>  <molecular_refractivity>
43.77

>  <oscillator_strength_1>
0.0618

>  <oscillator_strength_2>
0.0015

>  <oscillator_strength_3>
0.0104

>  <oscillator_strength_4>
0.0001

>  <open_babel_can_smiles>
Oc1ccc2c(c1)cccn2

>  <mulliken_charges>
18
1   -0.153059
2   -0.151163
3   -0.196936
4   -0.144051
5   0.039187
6   -0.249886
7   0.162827
8   0.35933
9   0.232831
10   -0.497198
11   -0.642252
12   0.136473
13   0.141104
14   0.125898
15   0.148818
16   0.13795
17   0.140486
18   0.409641

>  <lowdin_charges>
18
1   -0.17802
2   -0.130345
3   -0.199191
4   -0.136616
5   -0.094199
6   -0.195158
7   -0.00523
8   0.102989
9   0.028127
10   -0.148576
11   -0.376014
12   0.16376
13   0.160368
14   0.156921
15   0.170177
16   0.155527
17   0.165907
18   0.359573

$$$$

