PCCDB-ID:  17292
public computational chemistry database (PCCDB) project, http://pccdb.org

 19 19  0  0  1  0  0  0  0  0999 V2000
    2.2359    1.3735    0.4697 C   0  0  0  0  0  0  0  0  0  0  0  0
    2.6676   -0.0255    0.0201 C   0  0  0  0  0  0  0  0  0  0  0  0
    3.1047   -0.1202   -1.4752 C   0  0  2  0  0  0  0  0  0  0  0  0
    3.4014   -1.5635   -1.8472 C   0  0  0  0  0  0  0  0  0  0  0  0
    4.3582    0.6832   -1.7747 C   0  0  0  0  0  0  0  0  0  0  0  0
    5.6740   -1.2114   -1.6692 C   0  0  0  0  0  0  0  0  0  0  0  0
    4.5654   -2.0672   -1.9273 N   0  0  0  0  0  0  0  0  0  0  0  0
    5.5285    0.1925   -1.8502 N   0  0  0  0  0  0  0  0  0  0  0  0
    2.3395   -2.3736   -2.0535 O   0  0  0  0  0  0  0  0  0  0  0  0
    4.2162    2.0158   -1.9526 O   0  0  0  0  0  0  0  0  0  0  0  0
    6.7400   -1.6774   -1.3428 O   0  0  0  0  0  0  0  0  0  0  0  0
    1.8800    1.3431    1.5044 H   0  0  0  0  0  0  0  0  0  0  0  0
    1.4111    1.7585   -0.1453 H   0  0  0  0  0  0  0  0  0  0  0  0
    3.0638    2.0884    0.4299 H   0  0  0  0  0  0  0  0  0  0  0  0
    1.8427   -0.7326    0.1719 H   0  0  0  0  0  0  0  0  0  0  0  0
    3.4983   -0.3814    0.6397 H   0  0  0  0  0  0  0  0  0  0  0  0
    2.2813    0.2523   -2.1058 H   0  0  0  0  0  0  0  0  0  0  0  0
    1.5159   -1.8614   -2.0168 H   0  0  0  0  0  0  0  0  0  0  0  0
    3.2794    2.2612   -1.8917 H   0  0  0  0  0  0  0  0  0  0  0  0
  1 12  1  0  0  0  0
  2 15  1  0  0  0  0
  2  1  1  0  0  0  0
  2 16  1  0  0  0  0
  3 17  1  6  0  0  0
  3  2  1  0  0  0  0
  4  3  1  0  0  0  0
  5  3  1  0  0  0  0
  6 11  2  0  0  0  0
  7  4  2  0  0  0  0
  7  6  2  0  0  0  0
  8  5  2  0  0  0  0
  8  6  1  0  0  0  0
  9 18  1  0  0  0  0
  9  4  1  0  0  0  0
 10 19  1  0  0  0  0
 10  5  1  0  0  0  0
 13  1  1  0  0  0  0
 14  1  1  0  0  0  0
M  END
>  <HBA>
5

>  <HBD>
2

>  <TPSA>
75.27

>  <cid>
17292

>  <dipole>
9.71

>  <excitation_energy_1>
3.996

>  <excitation_energy_2>
4.32

>  <excitation_energy_3>
5.408

>  <excitation_energy_4>
5.5

>  <homo_energy>
-7.018

>  <homo_lumo_gap>
5.391

>  <logP>
0.036

>  <lumo_energy>
-1.627

>  <melting_point>
124.88

>  <molecular_refractivity>
43.26

>  <oscillator_strength_1>
0.0006

>  <oscillator_strength_2>
0.0009

>  <oscillator_strength_3>
0.009

>  <oscillator_strength_4>
0.0228

>  <open_babel_can_smiles>
CC[C@H]1C(=N[C](=[N]=C1O)=O)O

>  <mulliken_charges>
19
1   -0.479833
2   -0.243953
3   -0.324481
4   0.536535
5   0.532708
6   0.606206
7   -0.442797
8   -0.441177
9   -0.566232
10   -0.565008
11   -0.423449
12   0.176074
13   0.141518
14   0.176584
15   0.152737
16   0.18597
17   0.148286
18   0.414449
19   0.415864

>  <lowdin_charges>
19
1   -0.457404
2   -0.263575
3   -0.199599
4   0.146379
5   0.146129
6   0.176862
7   -0.180391
8   -0.180275
9   -0.328441
10   -0.327771
11   -0.207388
12   0.168561
13   0.146447
14   0.16306
15   0.152314
16   0.169976
17   0.156238
18   0.360976
19   0.357901

$$$$

