PCCDB-ID:  27682
public computational chemistry database (PCCDB) project, http://pccdb.org

 16 16  0  0  1  0  0  0  0  0999 V2000
    0.7803    1.3057   -0.3256 C   0  0  0  0  0  0  0  0  0  0  0  0
   -0.8154   -1.3821    0.2209 C   0  0  0  0  0  0  0  0  0  0  0  0
    1.3895   -0.0045    0.1900 C   0  0  2  0  0  0  0  0  0  0  0  0
    0.6532   -1.2974   -0.2300 C   0  0  1  0  0  0  0  0  0  0  0  0
    1.5503    0.0082    1.6092 O   0  0  0  0  0  0  0  0  0  0  0  0
    1.3625   -2.4048    0.3013 O   0  0  0  0  0  0  0  0  0  0  0  0
   -0.8984    1.6013    0.3704 S   0  0  0  0  0  0  0  0  0  0  0  0
   -1.8710   -0.0487   -0.4851 S   0  0  0  0  0  0  0  0  0  0  0  0
    0.7197    1.3143   -1.4179 H   0  0  0  0  0  0  0  0  0  0  0  0
    1.3957    2.1501    0.0037 H   0  0  0  0  0  0  0  0  0  0  0  0
   -0.8927   -1.3644    1.3130 H   0  0  0  0  0  0  0  0  0  0  0  0
   -1.2426   -2.3260   -0.1324 H   0  0  0  0  0  0  0  0  0  0  0  0
    2.4075   -0.0848   -0.2094 H   0  0  0  0  0  0  0  0  0  0  0  0
    0.6890   -1.3865   -1.3222 H   0  0  0  0  0  0  0  0  0  0  0  0
    0.7208    0.3560    1.9856 H   0  0  0  0  0  0  0  0  0  0  0  0
    1.6194   -2.1318    1.2015 H   0  0  0  0  0  0  0  0  0  0  0  0
  1 10  1  0  0  0  0
  1  3  1  0  0  0  0
  1  7  1  0  0  0  0
  2 11  1  0  0  0  0
  3 13  1  6  0  0  0
  3  5  1  0  0  0  0
  4 14  1  6  0  0  0
  4  3  1  0  0  0  0
  4  2  1  0  0  0  0
  4  6  1  0  0  0  0
  5 15  1  0  0  0  0
  6 16  1  0  0  0  0
  8  2  1  0  0  0  0
  8  7  1  0  0  0  0
  9  1  1  0  0  0  0
 12  2  1  0  0  0  0
M  END
>  <HBA>
4

>  <HBD>
2

>  <TPSA>
91.06

>  <cid>
27682

>  <dipole>
0.89

>  <excitation_energy_1>
3.977

>  <excitation_energy_2>
4.943

>  <excitation_energy_3>
5.445

>  <excitation_energy_4>
5.677

>  <homo_energy>
-6.403

>  <homo_lumo_gap>
5.249

>  <logP>
0.103

>  <lumo_energy>
-1.154

>  <melting_point>
52.52

>  <molecular_refractivity>
36.73

>  <oscillator_strength_1>
0.0048

>  <oscillator_strength_2>
0.0008

>  <oscillator_strength_3>
0.002

>  <oscillator_strength_4>
0.0082

>  <open_babel_can_smiles>
O[C@@H]1CSSC[C@@H]1O

>  <mulliken_charges>
16
1   -0.45818
2   -0.457011
3   0.095947
4   0.152664
5   -0.637735
6   -0.627071
7   0.000313
8   0.038017
9   0.195847
10   0.196488
11   0.174993
12   0.200178
13   0.164462
14   0.145846
15   0.410695
16   0.404547

>  <lowdin_charges>
16
1   -0.397597
2   -0.400025
3   -0.027992
4   -0.025034
5   -0.465126
6   -0.45299
7   0.032184
8   0.043105
9   0.172644
10   0.180278
11   0.159387
12   0.183576
13   0.159352
14   0.148756
15   0.344242
16   0.345239

$$$$

