PCCDB-ID:  56036
public computational chemistry database (PCCDB) project, http://pccdb.org

 26 26  0  0  0  0  0  0  0  0999 V2000
    0.5108   -2.0187    1.5570 C   0  0  0  0  0  0  0  0  0  0  0  0
    6.3279    3.6881    0.6878 C   0  0  0  0  0  0  0  0  0  0  0  0
    6.9531    1.3789    0.2912 C   0  0  0  0  0  0  0  0  0  0  0  0
    2.1548   -0.9095   -0.1138 C   0  0  0  0  0  0  0  0  0  0  0  0
    4.6620    2.0796   -0.1013 C   0  0  0  0  0  0  0  0  0  0  0  0
    1.0218   -0.8517    0.7559 C   0  0  0  0  0  0  0  0  0  0  0  0
    4.3205    1.3977   -1.4332 C   0  0  0  0  0  0  0  0  0  0  0  0
    2.3980    0.3053   -0.7105 C   0  0  0  0  0  0  0  0  0  0  0  0
    3.3396    0.6177   -1.6707 N   0  0  0  0  0  0  0  0  0  0  0  0
    0.3913    0.3051    0.8429 N   0  0  0  0  0  0  0  0  0  0  0  0
    6.0719    2.4832   -0.1029 N   0  0  0  0  0  0  0  0  0  0  0  0
    5.1725    1.6979   -2.4190 O   0  0  0  0  0  0  0  0  0  0  0  0
    1.1610    1.4273   -0.1583 S   0  0  0  0  0  0  0  0  0  0  0  0
   -0.3411   -1.7072    2.1657 H   0  0  0  0  0  0  0  0  0  0  0  0
    1.2904   -2.4163    2.2183 H   0  0  0  0  0  0  0  0  0  0  0  0
    0.1917   -2.8369    0.8998 H   0  0  0  0  0  0  0  0  0  0  0  0
    7.3748    3.9831    0.5655 H   0  0  0  0  0  0  0  0  0  0  0  0
    6.1346    3.5419    1.7642 H   0  0  0  0  0  0  0  0  0  0  0  0
    5.6972    4.5067    0.3286 H   0  0  0  0  0  0  0  0  0  0  0  0
    7.9970    1.6839    0.1702 H   0  0  0  0  0  0  0  0  0  0  0  0
    6.7731    0.5138   -0.3543 H   0  0  0  0  0  0  0  0  0  0  0  0
    6.7965    1.0716    1.3394 H   0  0  0  0  0  0  0  0  0  0  0  0
    2.7526   -1.7952   -0.2946 H   0  0  0  0  0  0  0  0  0  0  0  0
    4.3964    1.4167    0.7349 H   0  0  0  0  0  0  0  0  0  0  0  0
    4.0375    2.9749   -0.0084 H   0  0  0  0  0  0  0  0  0  0  0  0
    5.8668    2.2519   -1.9789 H   0  0  0  0  0  0  0  0  0  0  0  0
  1 14  1  0  0  0  0
  1 15  1  0  0  0  0
  2 18  1  0  0  0  0
  3 22  1  0  0  0  0
  4  6  1  0  0  0  0
  5 25  1  0  0  0  0
  5 24  1  0  0  0  0
  6 10  2  0  0  0  0
  6  1  1  0  0  0  0
  7  5  1  0  0  0  0
  8 13  1  0  0  0  0
  8  4  2  0  0  0  0
  9  7  2  0  0  0  0
  9  8  1  0  0  0  0
 11  5  1  0  0  0  0
 11  3  1  0  0  0  0
 11  2  1  0  0  0  0
 12 26  1  0  0  0  0
 12  7  1  0  0  0  0
 13 10  1  0  0  0  0
 16  1  1  0  0  0  0
 17  2  1  0  0  0  0
 19  2  1  0  0  0  0
 20  3  1  0  0  0  0
 21  3  1  0  0  0  0
 23  4  1  0  0  0  0
M  END
>  <HBA>
5

>  <HBD>
1

>  <TPSA>
73.47

>  <cid>
56036

>  <dipole>
5.93

>  <excitation_energy_1>
4.49

>  <excitation_energy_2>
5.108

>  <excitation_energy_3>
5.176

>  <excitation_energy_4>
5.332

>  <homo_energy>
-5.938

>  <homo_lumo_gap>
5.445

>  <logP>
1.025

>  <lumo_energy>
-0.493

>  <melting_point>
79.48

>  <molecular_refractivity>
53.9

>  <oscillator_strength_1>
0.0538

>  <oscillator_strength_2>
0.0032

>  <oscillator_strength_3>
0.0349

>  <oscillator_strength_4>
0.0078

>  <open_babel_can_smiles>
CN(C/C(=N\c1snc(c1)C)/O)C

>  <mulliken_charges>
26
1   -0.514015
2   -0.30259
3   -0.312801
4   -0.139096
5   -0.220373
6   0.274443
7   0.499092
8   -0.009383
9   -0.453416
10   -0.53776
11   -0.435032
12   -0.574525
13   0.334773
14   0.177402
15   0.157696
16   0.165121
17   0.162799
18   0.143981
19   0.165051
20   0.165199
21   0.173309
22   0.146063
23   0.135767
24   0.178213
25   0.193169
26   0.426914

>  <lowdin_charges>
26
1   -0.44619
2   -0.353076
3   -0.359764
4   -0.253793
5   -0.240223
6   0.034798
7   0.139268
8   -0.087926
9   -0.175224
10   -0.353803
11   -0.187185
12   -0.342521
13   0.351518
14   0.17258
15   0.161262
16   0.164786
17   0.156449
18   0.135173
19   0.159092
20   0.157422
21   0.16233
22   0.13688
23   0.169157
24   0.163832
25   0.178212
26   0.356945

$$$$

