PCCDB-ID:  21729
public computational chemistry database (PCCDB) project, http://pccdb.org

 34 35  0  0  1  0  0  0  0  0999 V2000
    3.2547   -0.1244   -1.3216 C   0  0  0  0  0  0  0  0  0  0  0  0
   -0.8643    1.2129   -1.0086 C   0  0  0  0  0  0  0  0  0  0  0  0
    2.9361   -6.2375   -2.6493 C   0  0  0  0  0  0  0  0  0  0  0  0
    2.7825   -5.5324    0.8139 C   0  0  0  0  0  0  0  0  0  0  0  0
    3.3527   -4.8146    1.8556 C   0  0  0  0  0  0  0  0  0  0  0  0
    2.2181   -3.4841   -0.3865 C   0  0  0  0  0  0  0  0  0  0  0  0
    0.9988   -0.0808   -0.1220 C   0  0  0  0  0  0  0  0  0  0  0  0
    3.5895   -1.2108    2.1133 C   0  0  0  0  0  0  0  0  0  0  0  0
    2.5339   -0.1420    0.0398 C   0  0  1  0  0  0  0  0  0  0  0  0
    2.2221   -4.8756   -0.3076 C   0  0  0  0  0  0  0  0  0  0  0  0
    2.7844   -2.7261    0.6545 C   0  0  0  0  0  0  0  0  0  0  0  0
    2.9516   -1.3084    0.9028 C   0  0  0  0  0  0  0  0  0  0  0  0
    3.3483   -3.4184    1.7642 C   0  0  0  0  0  0  0  0  0  0  0  0
    0.5779    1.1408   -0.8037 N   0  0  0  0  0  0  0  0  0  0  0  0
    3.8317   -2.4692    2.6357 N   0  0  0  0  0  0  0  0  0  0  0  0
    1.4676   -5.8444   -1.6200 S   0  0  0  0  0  0  0  0  0  0  0  0
    2.9170    0.7284   -1.9167 H   0  0  0  0  0  0  0  0  0  0  0  0
    3.0457   -1.0364   -1.8922 H   0  0  0  0  0  0  0  0  0  0  0  0
    4.3397   -0.0607   -1.1846 H   0  0  0  0  0  0  0  0  0  0  0  0
   -1.1221    2.1763   -1.4613 H   0  0  0  0  0  0  0  0  0  0  0  0
   -1.4634    1.0933   -0.0858 H   0  0  0  0  0  0  0  0  0  0  0  0
   -1.1718    0.4238   -1.7049 H   0  0  0  0  0  0  0  0  0  0  0  0
    2.5809   -6.8442   -3.4874 H   0  0  0  0  0  0  0  0  0  0  0  0
    3.6727   -6.8114   -2.0806 H   0  0  0  0  0  0  0  0  0  0  0  0
    3.3977   -5.3255   -3.0368 H   0  0  0  0  0  0  0  0  0  0  0  0
    2.7553   -6.6168    0.8555 H   0  0  0  0  0  0  0  0  0  0  0  0
    3.7806   -5.3229    2.7160 H   0  0  0  0  0  0  0  0  0  0  0  0
    1.7738   -3.0028   -1.2515 H   0  0  0  0  0  0  0  0  0  0  0  0
    0.5294   -0.2006    0.8735 H   0  0  0  0  0  0  0  0  0  0  0  0
    0.6569   -0.9315   -0.7261 H   0  0  0  0  0  0  0  0  0  0  0  0
    3.8992   -0.3260    2.6536 H   0  0  0  0  0  0  0  0  0  0  0  0
    2.8295    0.7714    0.5809 H   0  0  0  0  0  0  0  0  0  0  0  0
    0.8743    1.9433   -0.2490 H   0  0  0  0  0  0  0  0  0  0  0  0
    4.2866   -2.6591    3.5147 H   0  0  0  0  0  0  0  0  0  0  0  0
  1 19  1  0  0  0  0
  1  9  1  0  0  0  0
  2 14  1  0  0  0  0
  2 21  1  0  0  0  0
  3 24  1  0  0  0  0
  3 16  1  0  0  0  0
  4 26  1  0  0  0  0
  4  5  2  0  0  0  0
  5 27  1  0  0  0  0
  6 10  2  0  0  0  0
  6 11  1  0  0  0  0
  7  9  1  0  0  0  0
  7 29  1  0  0  0  0
  8 15  1  0  0  0  0
  8 31  1  0  0  0  0
  9 32  1  1  0  0  0
  9 12  1  0  0  0  0
 10  4  1  0  0  0  0
 11 12  1  0  0  0  0
 11 13  2  0  0  0  0
 12  8  2  0  0  0  0
 13  5  1  0  0  0  0
 13 15  1  0  0  0  0
 14 33  1  0  0  0  0
 14  7  1  0  0  0  0
 15 34  1  0  0  0  0
 16 10  1  0  0  0  0
 17  1  1  0  0  0  0
 18  1  1  0  0  0  0
 20  2  1  0  0  0  0
 22  2  1  0  0  0  0
 23  3  1  0  0  0  0
 25  3  1  0  0  0  0
 28  6  1  0  0  0  0
 30  7  1  0  0  0  0
M  END
>  <HBA>
2

>  <HBD>
2

>  <TPSA>
53.12

>  <cid>
21729

>  <dipole>
4.17

>  <excitation_energy_1>
4.471

>  <excitation_energy_2>
4.497

>  <excitation_energy_3>
4.698

>  <excitation_energy_4>
4.759

>  <homo_energy>
-5.483

>  <homo_lumo_gap>
5.181

>  <logP>
3.604

>  <lumo_energy>
-0.302

>  <melting_point>
138.77

>  <molecular_refractivity>
72.21

>  <oscillator_strength_1>
0.007

>  <oscillator_strength_2>
0.0416

>  <oscillator_strength_3>
0.0024

>  <oscillator_strength_4>
0.0014

>  <open_babel_can_smiles>
CNC[C@@H](c1c[nH]c2c1cc(SC)cc2)C

>  <mulliken_charges>
34
1   -0.439888
2   -0.298791
3   -0.572813
4   -0.164881
5   -0.15153
6   -0.231184
7   -0.115901
8   -0.012403
9   -0.171961
10   -0.102109
11   0.084788
12   0.085671
13   0.312482
14   -0.54047
15   -0.689265
16   0.064584
17   0.163935
18   0.143123
19   0.138098
20   0.146312
21   0.119252
22   0.154501
23   0.175726
24   0.17738
25   0.179564
26   0.139635
27   0.124226
28   0.148652
29   0.114101
30   0.143454
31   0.146314
32   0.112974
33   0.28912
34   0.327304

>  <lowdin_charges>
34
1   -0.444872
2   -0.360148
3   -0.545433
4   -0.160122
5   -0.186788
6   -0.161257
7   -0.204452
8   -0.139611
9   -0.118172
10   -0.146422
11   -0.035467
12   -0.053968
13   0.034729
14   -0.363144
15   -0.197154
16   0.114097
17   0.160489
18   0.148687
19   0.146012
20   0.149416
21   0.120941
22   0.150529
23   0.171862
24   0.163074
25   0.163505
26   0.162863
27   0.157918
28   0.166899
29   0.11969
30   0.144434
31   0.16428
32   0.136834
33   0.249309
34   0.291441

$$$$

