PCCDB-ID:  56488
public computational chemistry database (PCCDB) project, http://pccdb.org

 32 33  0  0  0  0  0  0  0  0999 V2000
    3.8654   -0.6143   -0.5569 C   0  0  0  0  0  0  0  0  0  0  0  0
    3.3973    3.6197   -3.8210 C   0  0  0  0  0  0  0  0  0  0  0  0
    2.5796    0.0710   -0.0591 C   0  0  0  0  0  0  0  0  0  0  0  0
    2.5668    3.9255   -2.5769 C   0  0  0  0  0  0  0  0  0  0  0  0
    3.7015    4.2754    4.1556 C   0  0  0  0  0  0  0  0  0  0  0  0
    4.0697    3.1065    4.8462 C   0  0  0  0  0  0  0  0  0  0  0  0
    3.2273    4.2246    2.8467 C   0  0  0  0  0  0  0  0  0  0  0  0
    3.9730    1.8519    4.2432 C   0  0  0  0  0  0  0  0  0  0  0  0
    2.2050    3.3373   -0.2308 C   0  0  0  0  0  0  0  0  0  0  0  0
    3.1218    2.9740    2.2192 C   0  0  0  0  0  0  0  0  0  0  0  0
    2.6931    2.4996    0.9193 C   0  0  0  0  0  0  0  0  0  0  0  0
    2.8351    1.1417    0.9471 C   0  0  0  0  0  0  0  0  0  0  0  0
    3.4985    1.8254    2.9384 C   0  0  0  0  0  0  0  0  0  0  0  0
    2.9529    3.0609   -1.4625 N   0  0  0  0  0  0  0  0  0  0  0  0
    3.3267    0.7097    2.1655 O   0  0  0  0  0  0  0  0  0  0  0  0
    3.6225   -1.4261   -1.2513 H   0  0  0  0  0  0  0  0  0  0  0  0
    4.4361   -1.0364    0.2765 H   0  0  0  0  0  0  0  0  0  0  0  0
    4.5019    0.1059   -1.0814 H   0  0  0  0  0  0  0  0  0  0  0  0
    3.0754    4.2373   -4.6665 H   0  0  0  0  0  0  0  0  0  0  0  0
    3.2980    2.5656   -4.0997 H   0  0  0  0  0  0  0  0  0  0  0  0
    4.4613    3.8245   -3.6465 H   0  0  0  0  0  0  0  0  0  0  0  0
    1.9135   -0.6818    0.3849 H   0  0  0  0  0  0  0  0  0  0  0  0
    2.0571    0.5236   -0.9058 H   0  0  0  0  0  0  0  0  0  0  0  0
    1.5045    3.7410   -2.7870 H   0  0  0  0  0  0  0  0  0  0  0  0
    2.6495    5.0018   -2.3271 H   0  0  0  0  0  0  0  0  0  0  0  0
    3.7896    5.2365    4.6549 H   0  0  0  0  0  0  0  0  0  0  0  0
    4.4354    3.1804    5.8664 H   0  0  0  0  0  0  0  0  0  0  0  0
    2.9423    5.1359    2.3275 H   0  0  0  0  0  0  0  0  0  0  0  0
    4.2515    0.9393    4.7603 H   0  0  0  0  0  0  0  0  0  0  0  0
    2.2480    4.4040    0.0604 H   0  0  0  0  0  0  0  0  0  0  0  0
    1.1459    3.1288   -0.4397 H   0  0  0  0  0  0  0  0  0  0  0  0
    3.9466    3.1854   -1.2693 H   0  0  0  0  0  0  0  0  0  0  0  0
  1  3  1  0  0  0  0
  1 17  1  0  0  0  0
  2 21  1  0  0  0  0
  2  4  1  0  0  0  0
  3 22  1  0  0  0  0
  3 12  1  0  0  0  0
  4 25  1  0  0  0  0
  4 14  1  0  0  0  0
  5 26  1  0  0  0  0
  5  6  2  0  0  0  0
  6 27  1  0  0  0  0
  7  5  1  0  0  0  0
  8 29  1  0  0  0  0
  8  6  1  0  0  0  0
  9 30  1  0  0  0  0
  9 11  1  0  0  0  0
 10  7  2  0  0  0  0
 10 13  1  0  0  0  0
 11 12  2  0  0  0  0
 11 10  1  0  0  0  0
 12 15  1  0  0  0  0
 13  8  2  0  0  0  0
 14 32  1  0  0  0  0
 14  9  1  0  0  0  0
 15 13  1  0  0  0  0
 16  1  1  0  0  0  0
 18  1  1  0  0  0  0
 19  2  1  0  0  0  0
 20  2  1  0  0  0  0
 23  3  1  0  0  0  0
 24  4  1  0  0  0  0
 28  7  1  0  0  0  0
 31  9  1  0  0  0  0
M  END
>  <HBA>
2

>  <HBD>
1

>  <TPSA>
25.17

>  <cid>
56488

>  <dipole>
1.43

>  <excitation_energy_1>
4.744

>  <excitation_energy_2>
4.94

>  <excitation_energy_3>
5.104

>  <excitation_energy_4>
5.226

>  <homo_energy>
-5.584

>  <homo_lumo_gap>
5.271

>  <logP>
3.496

>  <lumo_energy>
-0.313

>  <melting_point>
81.74

>  <molecular_refractivity>
63.37

>  <oscillator_strength_1>
0.1612

>  <oscillator_strength_2>
0.024

>  <oscillator_strength_3>
0.0571

>  <oscillator_strength_4>
0.0004

>  <open_babel_can_smiles>
CCNCc1c(CC)oc2c1cccc2

>  <mulliken_charges>
32
1   -0.444468
2   -0.450368
3   -0.333797
4   -0.105651
5   -0.139184
6   -0.146252
7   -0.212256
8   -0.189778
9   -0.191784
10   0.089229
11   0.016654
12   0.300166
13   0.312551
14   -0.549952
15   -0.52217
16   0.14432
17   0.158752
18   0.153906
19   0.1458
20   0.158599
21   0.140669
22   0.152222
23   0.17163
24   0.139861
25   0.111919
26   0.124126
27   0.127326
28   0.127575
29   0.139775
30   0.124175
31   0.151854
32   0.294551

>  <lowdin_charges>
32
1   -0.442643
2   -0.445752
3   -0.278538
4   -0.194867
5   -0.168821
6   -0.161409
7   -0.169548
8   -0.178136
9   -0.189389
10   -0.033905
11   -0.08282
12   0.091556
13   0.081756
14   -0.36245
15   -0.122926
16   0.15155
17   0.155665
18   0.154536
19   0.15435
20   0.154673
21   0.144712
22   0.157634
23   0.170717
24   0.139372
25   0.114179
26   0.156095
27   0.156795
28   0.156476
29   0.167613
30   0.124883
31   0.147695
32   0.250947

$$$$

