PCCDB-ID:  69357
public computational chemistry database (PCCDB) project, http://pccdb.org

 11 10  0  0  0  0  0  0  0  0999 V2000
    0.9234   -0.0613    0.0292 C   0  0  0  0  0  0  0  0  0  0  0  0
    2.4430   -0.0291    0.0811 C   0  0  0  0  0  0  0  0  0  0  0  0
    4.3500   -1.2471   -0.4744 N   0  0  0  0  0  0  0  0  0  0  0  0
    2.9066   -1.2427   -0.5057 O   0  0  0  0  0  0  0  0  0  0  0  0
    0.5109    0.8529    0.4701 H   0  0  0  0  0  0  0  0  0  0  0  0
    0.5340   -0.9199    0.5861 H   0  0  0  0  0  0  0  0  0  0  0  0
    0.5719   -0.1354   -1.0052 H   0  0  0  0  0  0  0  0  0  0  0  0
    2.8028    0.0502    1.1172 H   0  0  0  0  0  0  0  0  0  0  0  0
    2.8406    0.8335   -0.4731 H   0  0  0  0  0  0  0  0  0  0  0  0
    4.6022   -1.4087   -1.4525 H   0  0  0  0  0  0  0  0  0  0  0  0
    4.5685   -2.1246    0.0035 H   0  0  0  0  0  0  0  0  0  0  0  0
  1  2  1  0  0  0  0
  1  5  1  0  0  0  0
  1  6  1  0  0  0  0
  2  8  1  0  0  0  0
  3 11  1  0  0  0  0
  4  3  1  0  0  0  0
  4  2  1  0  0  0  0
  7  1  1  0  0  0  0
  9  2  1  0  0  0  0
 10  3  1  0  0  0  0
M  END
>  <HBA>
2

>  <HBD>
1

>  <TPSA>
35.25

>  <cid>
69357

>  <dipole>
0.53

>  <excitation_energy_1>
6.44

>  <excitation_energy_2>
6.6

>  <excitation_energy_3>
6.979

>  <excitation_energy_4>
7.028

>  <homo_energy>
-6.841

>  <homo_lumo_gap>
9.105

>  <logP>
0.597

>  <lumo_energy>
2.264

>  <melting_point>
23.74

>  <molecular_refractivity>
15.52

>  <oscillator_strength_1>
0.0336

>  <oscillator_strength_2>
0.0077

>  <oscillator_strength_3>
0.0003

>  <oscillator_strength_4>
0.02

>  <open_babel_can_smiles>
CCON

>  <mulliken_charges>
11
1   -0.462358
2   0.030635
3   -0.476261
4   -0.424915
5   0.145758
6   0.156015
7   0.156017
8   0.12447
9   0.124477
10   0.313089
11   0.313073

>  <lowdin_charges>
11
1   -0.452438
2   -0.1256
3   -0.401643
4   -0.258228
5   0.156063
6   0.156228
7   0.154498
8   0.128557
9   0.130735
10   0.255494
11   0.256336

$$$$

