PCCDB-ID:  5395
public computational chemistry database (PCCDB) project, http://pccdb.org

 31 31  0  0  0  0  0  0  0  0999 V2000
    0.8854    0.1080   -0.1104 C   0  0  0  0  0  0  0  0  0  0  0  0
    2.5935    0.2514    1.6917 C   0  0  0  0  0  0  0  0  0  0  0  0
    4.6343   -2.4981   -1.5269 C   0  0  0  0  0  0  0  0  0  0  0  0
    5.2006   -1.5650    0.7063 C   0  0  0  0  0  0  0  0  0  0  0  0
    2.9997    1.3439   -0.6078 C   0  0  0  0  0  0  0  0  0  0  0  0
    4.9719   -0.0287   -1.3542 C   0  0  0  0  0  0  0  0  0  0  0  0
    4.5228    1.3358   -0.8095 C   0  0  0  0  0  0  0  0  0  0  0  0
    2.4040    0.1385    0.1599 C   0  0  0  0  0  0  0  0  0  0  0  0
    4.4357   -1.2743   -0.6075 C   0  0  0  0  0  0  0  0  0  0  0  0
    2.9646   -1.0953   -0.4595 N   0  0  0  0  0  0  0  0  0  0  0  0
    5.2666    1.7848    0.3258 O   0  0  0  0  0  0  0  0  0  0  0  0
    2.4515   -2.2338    0.2740 O   0  0  0  0  0  0  0  0  0  0  0  0
    0.4265    1.0574    0.1879 H   0  0  0  0  0  0  0  0  0  0  0  0
    0.4031   -0.6943    0.4557 H   0  0  0  0  0  0  0  0  0  0  0  0
    0.6913   -0.0503   -1.1768 H   0  0  0  0  0  0  0  0  0  0  0  0
    1.9950    1.0845    2.0773 H   0  0  0  0  0  0  0  0  0  0  0  0
    3.6242    0.4331    2.0011 H   0  0  0  0  0  0  0  0  0  0  0  0
    2.2562   -0.6681    2.1775 H   0  0  0  0  0  0  0  0  0  0  0  0
    5.6897   -2.5988   -1.8042 H   0  0  0  0  0  0  0  0  0  0  0  0
    4.0447   -2.3851   -2.4431 H   0  0  0  0  0  0  0  0  0  0  0  0
    4.3266   -3.4198   -1.0247 H   0  0  0  0  0  0  0  0  0  0  0  0
    6.2288   -1.8654    0.4751 H   0  0  0  0  0  0  0  0  0  0  0  0
    4.7159   -2.3841    1.2439 H   0  0  0  0  0  0  0  0  0  0  0  0
    5.2657   -0.7132    1.3862 H   0  0  0  0  0  0  0  0  0  0  0  0
    2.5427    1.3607   -1.6058 H   0  0  0  0  0  0  0  0  0  0  0  0
    2.7065    2.2722   -0.1043 H   0  0  0  0  0  0  0  0  0  0  0  0
    6.0671   -0.0668   -1.3781 H   0  0  0  0  0  0  0  0  0  0  0  0
    4.6246   -0.0907   -2.3939 H   0  0  0  0  0  0  0  0  0  0  0  0
    4.7599    2.0902   -1.5685 H   0  0  0  0  0  0  0  0  0  0  0  0
    5.1320    1.1632    1.0533 H   0  0  0  0  0  0  0  0  0  0  0  0
    1.8917   -2.6721   -0.3856 H   0  0  0  0  0  0  0  0  0  0  0  0
  1  8  1  0  0  0  0
  1 13  1  0  0  0  0
  1 14  1  0  0  0  0
  2 17  1  0  0  0  0
  2 16  1  0  0  0  0
  2 18  1  0  0  0  0
  3 21  1  0  0  0  0
  3  9  1  0  0  0  0
  4 23  1  0  0  0  0
  4 24  1  0  0  0  0
  5 26  1  0  0  0  0
  5  8  1  0  0  0  0
  6  7  1  0  0  0  0
  6  9  1  0  0  0  0
  7  5  1  0  0  0  0
  7 11  1  0  0  0  0
  8  2  1  0  0  0  0
  9 10  1  0  0  0  0
  9  4  1  0  0  0  0
 10  8  1  0  0  0  0
 10 12  1  0  0  0  0
 11 30  1  0  0  0  0
 15  1  1  0  0  0  0
 19  3  1  0  0  0  0
 20  3  1  0  0  0  0
 22  4  1  0  0  0  0
 25  5  1  0  0  0  0
 27  6  1  0  0  0  0
 28  6  1  0  0  0  0
 29  7  1  0  0  0  0
 31 12  1  0  0  0  0
M  END
>  <HBA>
3

>  <HBD>
2

>  <TPSA>
43.7

>  <cid>
5395

>  <dipole>
1.85

>  <excitation_energy_1>
5.318

>  <excitation_energy_2>
5.685

>  <excitation_energy_3>
5.945

>  <excitation_energy_4>
6.035

>  <homo_energy>
-5.919

>  <homo_lumo_gap>
7.44

>  <logP>
1.327

>  <lumo_energy>
1.521

>  <melting_point>
91.23

>  <molecular_refractivity>
52.04

>  <oscillator_strength_1>
0.014

>  <oscillator_strength_2>
0.0107

>  <oscillator_strength_3>
0.0031

>  <oscillator_strength_4>
0.0002

>  <open_babel_can_smiles>
OC1CC(C)(C)N(C(C1)(C)C)O

>  <mulliken_charges>
31
1   -0.456278
2   -0.454818
3   -0.456355
4   -0.455928
5   -0.288395
6   -0.289828
7   0.116715
8   0.237803
9   0.237952
10   -0.264121
11   -0.639968
12   -0.524165
13   0.140647
14   0.149631
15   0.142237
16   0.143652
17   0.114628
18   0.171089
19   0.140569
20   0.142364
21   0.14998
22   0.143909
23   0.17186
24   0.114538
25   0.135897
26   0.145968
27   0.145831
28   0.13637
29   0.135852
30   0.401384
31   0.41098

>  <lowdin_charges>
31
1   -0.447854
2   -0.459635
3   -0.446734
4   -0.459693
5   -0.295151
6   -0.292294
7   -0.00566
8   0.062233
9   0.062336
10   -0.088455
11   -0.470129
12   -0.413329
13   0.150055
14   0.153613
15   0.147673
16   0.154185
17   0.135509
18   0.164452
19   0.148577
20   0.149308
21   0.152885
22   0.152466
23   0.165512
24   0.136702
25   0.150632
26   0.155587
27   0.153037
28   0.150239
29   0.148049
30   0.333579
31   0.352305

$$$$

