PCCDB-ID:  46249
public computational chemistry database (PCCDB) project, http://pccdb.org

 31 31  0  0  1  0  0  0  0  0999 V2000
    0.5723   -0.1229   -2.1238 C   0  0  0  0  0  0  0  0  0  0  0  0
    4.7429   -1.5265   -4.8871 C   0  0  0  0  0  0  0  0  0  0  0  0
    5.0158   -1.6255   -3.5210 C   0  0  0  0  0  0  0  0  0  0  0  0
    3.8514   -0.5543   -5.3425 C   0  0  0  0  0  0  0  0  0  0  0  0
    4.3979   -0.7575   -2.6212 C   0  0  0  0  0  0  0  0  0  0  0  0
    3.2285    0.3105   -4.4403 C   0  0  0  0  0  0  0  0  0  0  0  0
    0.1922    0.9838    0.6824 C   0  0  0  0  0  0  0  0  0  0  0  0
   -0.2524    2.1810    1.5220 C   0  0  0  0  0  0  0  0  0  0  0  0
    1.7008    0.4149   -1.2425 C   0  0  1  0  0  0  0  0  0  0  0  0
    3.4922    0.2130   -3.0698 C   0  0  0  0  0  0  0  0  0  0  0  0
    2.8104    1.1254   -2.0693 C   0  0  1  0  0  0  0  0  0  0  0  0
    1.2039    1.4299   -0.2864 N   0  0  0  0  0  0  0  0  0  0  0  0
   -0.8029    3.2037    0.7136 O   0  0  0  0  0  0  0  0  0  0  0  0
    2.2657    2.2534   -2.7335 O   0  0  0  0  0  0  0  0  0  0  0  0
    0.9825   -0.7936   -2.8837 H   0  0  0  0  0  0  0  0  0  0  0  0
    0.0554    0.6963   -2.6328 H   0  0  0  0  0  0  0  0  0  0  0  0
   -0.1609   -0.6896   -1.5425 H   0  0  0  0  0  0  0  0  0  0  0  0
    5.2272   -2.1982   -5.5910 H   0  0  0  0  0  0  0  0  0  0  0  0
    5.7166   -2.3722   -3.1566 H   0  0  0  0  0  0  0  0  0  0  0  0
    3.6395   -0.4655   -6.4050 H   0  0  0  0  0  0  0  0  0  0  0  0
    4.6271   -0.8316   -1.5596 H   0  0  0  0  0  0  0  0  0  0  0  0
    2.5430    1.0747   -4.7891 H   0  0  0  0  0  0  0  0  0  0  0  0
   -0.6747    0.6049    0.1347 H   0  0  0  0  0  0  0  0  0  0  0  0
    0.5576    0.1719    1.3367 H   0  0  0  0  0  0  0  0  0  0  0  0
    0.6032    2.5546    2.1156 H   0  0  0  0  0  0  0  0  0  0  0  0
   -1.0283    1.8737    2.2311 H   0  0  0  0  0  0  0  0  0  0  0  0
    2.1696   -0.4327   -0.7118 H   0  0  0  0  0  0  0  0  0  0  0  0
    3.5783    1.4562   -1.3426 H   0  0  0  0  0  0  0  0  0  0  0  0
    2.0099    1.7626    0.2479 H   0  0  0  0  0  0  0  0  0  0  0  0
   -0.2195    3.2511   -0.0635 H   0  0  0  0  0  0  0  0  0  0  0  0
    1.6215    2.6243   -2.1031 H   0  0  0  0  0  0  0  0  0  0  0  0
  1 17  1  0  0  0  0
  1  9  1  0  0  0  0
  2  3  1  0  0  0  0
  3 19  1  0  0  0  0
  3  5  2  0  0  0  0
  4  2  2  0  0  0  0
  4  6  1  0  0  0  0
  5 21  1  0  0  0  0
  6 10  2  0  0  0  0
  7 24  1  0  0  0  0
  7  8  1  0  0  0  0
  8 25  1  0  0  0  0
  8 26  1  0  0  0  0
  9 27  1  1  0  0  0
  9 12  1  0  0  0  0
 10  5  1  0  0  0  0
 10 11  1  0  0  0  0
 11 28  1  1  0  0  0
 11  9  1  0  0  0  0
 12 29  1  0  0  0  0
 12  7  1  0  0  0  0
 13  8  1  0  0  0  0
 14 31  1  0  0  0  0
 14 11  1  0  0  0  0
 15  1  1  0  0  0  0
 16  1  1  0  0  0  0
 18  2  1  0  0  0  0
 20  4  1  0  0  0  0
 22  6  1  0  0  0  0
 23  7  1  0  0  0  0
 30 13  1  0  0  0  0
M  END
>  <HBA>
3

>  <HBD>
3

>  <TPSA>
52.49

>  <cid>
46249

>  <dipole>
2.92

>  <excitation_energy_1>
5.283

>  <excitation_energy_2>
5.696

>  <excitation_energy_3>
5.882

>  <excitation_energy_4>
5.9

>  <homo_energy>
-6.49

>  <homo_lumo_gap>
6.446

>  <logP>
1.081

>  <lumo_energy>
-0.044

>  <melting_point>
68.91

>  <molecular_refractivity>
55.76

>  <oscillator_strength_1>
0.0013

>  <oscillator_strength_2>
0.0508

>  <oscillator_strength_3>
0.01

>  <oscillator_strength_4>
0.0065

>  <open_babel_can_smiles>
OCCN[C@H]([C@@H](c1ccccc1)O)C

>  <mulliken_charges>
31
1   -0.455782
2   -0.126786
3   -0.133562
4   -0.133647
5   -0.179214
6   -0.1671
7   -0.148507
8   -0.025193
9   0.029956
10   0.126226
11   0.081389
12   -0.609586
13   -0.620542
14   -0.64489
15   0.168775
16   0.156982
17   0.147833
18   0.128152
19   0.128143
20   0.130147
21   0.118148
22   0.155338
23   0.166532
24   0.122402
25   0.112167
26   0.147921
27   0.118662
28   0.112211
29   0.302045
30   0.392806
31   0.398974

>  <lowdin_charges>
31
1   -0.458007
2   -0.161118
3   -0.156761
4   -0.153051
5   -0.167883
6   -0.158109
7   -0.226666
8   -0.138375
9   -0.07918
10   -0.014321
11   -0.004019
12   -0.371988
13   -0.469939
14   -0.460641
15   0.168311
16   0.158404
17   0.153774
18   0.158481
19   0.157691
20   0.156009
21   0.149853
22   0.172558
23   0.156945
24   0.129999
25   0.120556
26   0.151466
27   0.129263
28   0.126675
29   0.254941
30   0.335761
31   0.339371

$$$$

