PCCDB-ID:  18675
public computational chemistry database (PCCDB) project, http://pccdb.org

 34 34  0  0  0  0  0  0  0  0999 V2000
    0.9864    0.3536    0.4005 C   0  0  0  0  0  0  0  0  0  0  0  0
    5.9944   -3.1946   -0.6561 C   0  0  0  0  0  0  0  0  0  0  0  0
    6.8180    0.4511    2.3579 C   0  0  0  0  0  0  0  0  0  0  0  0
    5.4696    0.8264    2.3376 C   0  0  0  0  0  0  0  0  0  0  0  0
    7.2601   -0.6382    1.6192 C   0  0  0  0  0  0  0  0  0  0  0  0
    2.7213    1.0570   -2.1024 C   0  0  0  0  0  0  0  0  0  0  0  0
    2.9105    1.4204   -0.6268 C   0  0  0  0  0  0  0  0  0  0  0  0
    4.9956   -1.0034    0.8270 C   0  0  0  0  0  0  0  0  0  0  0  0
    3.0771    0.4504    1.5952 C   0  0  0  0  0  0  0  0  0  0  0  0
    4.5542    0.0979    1.5770 C   0  0  0  0  0  0  0  0  0  0  0  0
    6.3439   -1.3691    0.8457 C   0  0  0  0  0  0  0  0  0  0  0  0
    3.1564    1.7027   -4.3544 N   0  0  0  0  0  0  0  0  0  0  0  0
    3.2174    2.1505   -2.9435 N   0  0  0  0  0  0  0  0  0  0  0  0
    2.4400    0.3670    0.2785 N   0  0  0  0  0  0  0  0  0  0  0  0
    6.8693   -2.4202    0.1481 O   0  0  0  0  0  0  0  0  0  0  0  0
    0.5241    0.2224   -0.5820 H   0  0  0  0  0  0  0  0  0  0  0  0
    0.5792    1.2827    0.8457 H   0  0  0  0  0  0  0  0  0  0  0  0
    0.6776   -0.4890    1.0285 H   0  0  0  0  0  0  0  0  0  0  0  0
    6.6149   -3.9663   -1.1158 H   0  0  0  0  0  0  0  0  0  0  0  0
    5.5257   -2.5891   -1.4431 H   0  0  0  0  0  0  0  0  0  0  0  0
    5.2083   -3.6711   -0.0554 H   0  0  0  0  0  0  0  0  0  0  0  0
    7.5294    1.0204    2.9506 H   0  0  0  0  0  0  0  0  0  0  0  0
    5.1330    1.6839    2.9150 H   0  0  0  0  0  0  0  0  0  0  0  0
    8.3022   -0.9423    1.6177 H   0  0  0  0  0  0  0  0  0  0  0  0
    1.6542    0.9289   -2.3298 H   0  0  0  0  0  0  0  0  0  0  0  0
    3.2144    0.0948   -2.3156 H   0  0  0  0  0  0  0  0  0  0  0  0
    2.4203    2.3901   -0.4200 H   0  0  0  0  0  0  0  0  0  0  0  0
    3.9818    1.5600   -0.4421 H   0  0  0  0  0  0  0  0  0  0  0  0
    4.2688   -1.5415    0.2304 H   0  0  0  0  0  0  0  0  0  0  0  0
    2.9447    1.4474    2.0598 H   0  0  0  0  0  0  0  0  0  0  0  0
    2.5533   -0.2613    2.2480 H   0  0  0  0  0  0  0  0  0  0  0  0
    3.3831    2.5500   -4.8827 H   0  0  0  0  0  0  0  0  0  0  0  0
    2.1528    1.5928   -4.5275 H   0  0  0  0  0  0  0  0  0  0  0  0
    4.2239    2.2042   -2.7703 H   0  0  0  0  0  0  0  0  0  0  0  0
  1 17  1  0  0  0  0
  1 18  1  0  0  0  0
  2 21  1  0  0  0  0
  2 15  1  0  0  0  0
  3 22  1  0  0  0  0
  4  3  1  0  0  0  0
  4 23  1  0  0  0  0
  5  3  2  0  0  0  0
  6  7  1  0  0  0  0
  7 28  1  0  0  0  0
  7 27  1  0  0  0  0
  7 14  1  0  0  0  0
  8 11  2  0  0  0  0
  8 10  1  0  0  0  0
  9 30  1  0  0  0  0
  9 31  1  0  0  0  0
 10  9  1  0  0  0  0
 10  4  2  0  0  0  0
 11  5  1  0  0  0  0
 12 13  1  0  0  0  0
 13 34  1  0  0  0  0
 13  6  1  0  0  0  0
 14  1  1  0  0  0  0
 14  9  1  0  0  0  0
 15 11  1  0  0  0  0
 16  1  1  0  0  0  0
 19  2  1  0  0  0  0
 20  2  1  0  0  0  0
 24  5  1  0  0  0  0
 25  6  1  0  0  0  0
 26  6  1  0  0  0  0
 29  8  1  0  0  0  0
 32 12  1  0  0  0  0
 33 12  1  0  0  0  0
M  END
>  <HBA>
4

>  <HBD>
2

>  <TPSA>
50.52

>  <cid>
18675

>  <dipole>
1.57

>  <excitation_energy_1>
4.702

>  <excitation_energy_2>
4.775

>  <excitation_energy_3>
4.919

>  <excitation_energy_4>
4.998

>  <homo_energy>
-5.279

>  <homo_lumo_gap>
5.323

>  <logP>
1.681

>  <lumo_energy>
0.044

>  <melting_point>
95.33

>  <molecular_refractivity>
60.73

>  <oscillator_strength_1>
0.0035

>  <oscillator_strength_2>
0.0023

>  <oscillator_strength_3>
0.0409

>  <oscillator_strength_4>
0.0047

>  <open_babel_can_smiles>
NNCCN(Cc1cccc(c1)OC)C

>  <mulliken_charges>
34
1   -0.301888
2   -0.214121
3   -0.132515
4   -0.19446
5   -0.171123
6   -0.116283
7   -0.13362
8   -0.239948
9   -0.192593
10   0.132877
11   0.378132
12   -0.593559
13   -0.476079
14   -0.38496
15   -0.509521
16   0.152996
17   0.121314
18   0.149588
19   0.166915
20   0.155474
21   0.151103
22   0.1279
23   0.118322
24   0.1346
25   0.130813
26   0.137712
27   0.127482
28   0.148262
29   0.14359
30   0.118975
31   0.151062
32   0.304024
33   0.301591
34   0.307936

>  <lowdin_charges>
34
1   -0.358638
2   -0.282104
3   -0.149223
4   -0.192622
5   -0.185099
6   -0.211812
7   -0.205156
8   -0.221291
9   -0.196353
10   -0.005904
11   0.103277
12   -0.494141
13   -0.319609
14   -0.183493
15   -0.20007
16   0.150434
17   0.122886
18   0.151019
19   0.162571
20   0.147939
21   0.146153
22   0.15902
23   0.153819
24   0.163909
25   0.133222
26   0.131131
27   0.127326
28   0.150259
29   0.170094
30   0.124126
31   0.155111
32   0.253841
33   0.249102
34   0.250278

$$$$

