PCCDB-ID:  26136
public computational chemistry database (PCCDB) project, http://pccdb.org

 24 25  0  0  1  0  0  0  0  0999 V2000
   -2.2820    0.7124    0.2012 C   0  0  0  0  0  0  0  0  0  0  0  0
   -2.2046   -0.7078   -0.3817 C   0  0  0  0  0  0  0  0  0  0  0  0
    2.5141    0.0216   -0.1361 C   0  0  0  0  0  0  0  0  0  0  0  0
   -1.0046    1.5091   -0.1152 C   0  0  0  0  0  0  0  0  0  0  0  0
    1.6037    1.2809   -0.0550 C   0  0  0  0  0  0  0  0  0  0  0  0
   -0.9163   -1.4185    0.0553 C   0  0  0  0  0  0  0  0  0  0  0  0
    1.5425   -1.1709    0.0332 C   0  0  0  0  0  0  0  0  0  0  0  0
    0.2258    0.7217    0.3338 C   0  0  2  0  0  0  0  0  0  0  0  0
    0.2380   -0.6049   -0.2904 N   0  0  2  0  0  0  0  0  0  0  0  0
   -2.4034    0.6485    1.2926 H   0  0  0  0  0  0  0  0  0  0  0  0
   -3.1671    1.2353   -0.1821 H   0  0  0  0  0  0  0  0  0  0  0  0
   -2.2186   -0.6549   -1.4782 H   0  0  0  0  0  0  0  0  0  0  0  0
   -3.0759   -1.2983   -0.0721 H   0  0  0  0  0  0  0  0  0  0  0  0
    3.2831    0.0157    0.6429 H   0  0  0  0  0  0  0  0  0  0  0  0
    3.0294   -0.0247   -1.1001 H   0  0  0  0  0  0  0  0  0  0  0  0
   -1.0280    2.4890    0.3788 H   0  0  0  0  0  0  0  0  0  0  0  0
   -0.9325    1.6865   -1.1968 H   0  0  0  0  0  0  0  0  0  0  0  0
    1.5407    1.7740   -1.0314 H   0  0  0  0  0  0  0  0  0  0  0  0
    1.9638    2.0207    0.6670 H   0  0  0  0  0  0  0  0  0  0  0  0
   -0.8278   -2.3903   -0.4469 H   0  0  0  0  0  0  0  0  0  0  0  0
   -0.9546   -1.6222    1.1477 H   0  0  0  0  0  0  0  0  0  0  0  0
    1.5757   -1.5461    1.0766 H   0  0  0  0  0  0  0  0  0  0  0  0
    1.7726   -2.0165   -0.6257 H   0  0  0  0  0  0  0  0  0  0  0  0
    0.1842    0.6190    1.4421 H   0  0  0  0  0  0  0  0  0  0  0  0
  1 10  1  0  0  0  0
  2 13  1  0  0  0  0
  2  6  1  0  0  0  0
  2  1  1  0  0  0  0
  3  5  1  0  0  0  0
  3  7  1  0  0  0  0
  3 14  1  0  0  0  0
  4  1  1  0  0  0  0
  4  8  1  0  0  0  0
  4 16  1  0  0  0  0
  5  8  1  0  0  0  0
  5 19  1  0  0  0  0
  6 21  1  0  0  0  0
  7 22  1  0  0  0  0
  8 24  1  1  0  0  0
  9  7  1  1  0  0  0
  9  6  1  0  0  0  0
  9  8  1  0  0  0  0
 11  1  1  0  0  0  0
 12  2  1  0  0  0  0
 15  3  1  0  0  0  0
 17  4  1  0  0  0  0
 18  5  1  0  0  0  0
 20  6  1  0  0  0  0
 23  7  1  0  0  0  0
M  END
>  <HBA>
1

>  <HBD>
0

>  <TPSA>
3.24

>  <cid>
26136

>  <dipole>
0.39

>  <excitation_energy_1>
5.386

>  <excitation_energy_2>
5.649

>  <excitation_energy_3>
5.711

>  <excitation_energy_4>
5.784

>  <homo_energy>
-5.595

>  <homo_lumo_gap>
8.014

>  <logP>
1.573

>  <lumo_energy>
2.419

>  <melting_point>
19.9

>  <molecular_refractivity>
43.15

>  <oscillator_strength_1>
0.0201

>  <oscillator_strength_2>
0.0256

>  <oscillator_strength_3>
0.0842

>  <oscillator_strength_4>
0.0254

>  <open_babel_can_smiles>
C1CC[C@H]2N(C1)CCC2

>  <mulliken_charges>
24
1   -0.268775
2   -0.260537
3   -0.291037
4   -0.259084
5   -0.274793
6   -0.110178
7   -0.105312
8   0.06529
9   -0.40718
10   0.128063
11   0.132536
12   0.139542
13   0.128885
14   0.136495
15   0.144376
16   0.127878
17   0.133969
18   0.140243
19   0.132705
20   0.133509
21   0.101961
22   0.106098
23   0.135123
24   0.090222

>  <lowdin_charges>
24
1   -0.2772
2   -0.279529
3   -0.285989
4   -0.27794
5   -0.284027
6   -0.197069
7   -0.200133
8   -0.058572
9   -0.192234
10   0.135618
11   0.145007
12   0.142629
13   0.145046
14   0.146222
15   0.149079
16   0.14353
17   0.141415
18   0.146772
19   0.146374
20   0.143001
21   0.109194
22   0.112199
23   0.143007
24   0.1036

$$$$

