PCCDB-ID:  19001
public computational chemistry database (PCCDB) project, http://pccdb.org

 18 17  0  0  1  0  0  0  0  0999 V2000
    0.0597   -1.1251    0.6461 C   0  0  0  0  0  0  0  0  0  0  0  0
    0.8776    1.1270   -1.3098 C   0  0  0  0  0  0  0  0  0  0  0  0
    0.6463    0.2178    1.1107 C   0  0  1  0  0  0  0  0  0  0  0  0
    0.4964    1.4197    0.1424 C   0  0  2  0  0  0  0  0  0  0  0  0
    0.1079    0.5873    2.3704 O   0  0  0  0  0  0  0  0  0  0  0  0
   -0.8233    1.9661    0.2492 O   0  0  0  0  0  0  0  0  0  0  0  0
   -1.7650   -1.1446    0.3530 S   0  0  0  0  0  0  0  0  0  0  0  0
    0.9635    2.6503   -2.3402 S   0  0  0  0  0  0  0  0  0  0  0  0
    0.2883   -1.8875    1.3952 H   0  0  0  0  0  0  0  0  0  0  0  0
    0.5053   -1.4470   -0.3005 H   0  0  0  0  0  0  0  0  0  0  0  0
    0.1745    0.4209   -1.7641 H   0  0  0  0  0  0  0  0  0  0  0  0
    1.8769    0.6805   -1.3587 H   0  0  0  0  0  0  0  0  0  0  0  0
    1.7225    0.0403    1.2548 H   0  0  0  0  0  0  0  0  0  0  0  0
    1.1503    2.2120    0.5206 H   0  0  0  0  0  0  0  0  0  0  0  0
   -0.5497    1.2800    2.1698 H   0  0  0  0  0  0  0  0  0  0  0  0
   -1.4448    1.2681   -0.0401 H   0  0  0  0  0  0  0  0  0  0  0  0
   -2.1108   -0.8647    1.6281 H   0  0  0  0  0  0  0  0  0  0  0  0
   -0.2231    3.1337   -1.9157 H   0  0  0  0  0  0  0  0  0  0  0  0
  1  3  1  0  0  0  0
  1  9  1  0  0  0  0
  2  4  1  0  0  0  0
  3 13  1  1  0  0  0
  3  5  1  0  0  0  0
  4  6  1  0  0  0  0
  4 14  1  1  0  0  0
  4  3  1  0  0  0  0
  7  1  1  0  0  0  0
  7 17  1  0  0  0  0
  8 18  1  0  0  0  0
  8  2  1  0  0  0  0
 10  1  1  0  0  0  0
 11  2  1  0  0  0  0
 12  2  1  0  0  0  0
 15  5  1  0  0  0  0
 16  6  1  0  0  0  0
M  END
>  <HBA>
4

>  <HBD>
4

>  <TPSA>
118.06

>  <cid>
19001

>  <dipole>
1.66

>  <excitation_energy_1>
5.274

>  <excitation_energy_2>
5.533

>  <excitation_energy_3>
5.812

>  <excitation_energy_4>
5.935

>  <homo_energy>
-6.528

>  <homo_lumo_gap>
6.757

>  <logP>
-0.432

>  <lumo_energy>
0.229

>  <melting_point>
52.52

>  <molecular_refractivity>
39.52

>  <oscillator_strength_1>
0.005

>  <oscillator_strength_2>
0.0091

>  <oscillator_strength_3>
0.0145

>  <oscillator_strength_4>
0.0145

>  <open_babel_can_smiles>
SC[C@H]([C@H](CS)O)O

>  <mulliken_charges>
18
1   -0.430565
2   -0.437069
3   0.137082
4   0.091855
5   -0.637143
6   -0.642326
7   -0.128603
8   -0.082614
9   0.199497
10   0.178353
11   0.180804
12   0.179001
13   0.14212
14   0.174114
15   0.408652
16   0.417167
17   0.130512
18   0.119164

>  <lowdin_charges>
18
1   -0.390547
2   -0.390676
3   -0.023491
4   -0.028021
5   -0.465427
6   -0.468758
7   -0.085762
8   -0.084
9   0.176215
10   0.170054
11   0.162945
12   0.17089
13   0.147517
14   0.163831
15   0.347771
16   0.340019
17   0.129038
18   0.128402

$$$$

