PCCDB-ID:  17797
public computational chemistry database (PCCDB) project, http://pccdb.org

 20 20  0  0  0  0  0  0  0  0999 V2000
   -0.3526    1.4151    0.0681 C   0  0  0  0  0  0  0  0  0  0  0  0
   -1.0445    0.2034    0.0475 C   0  0  0  0  0  0  0  0  0  0  0  0
    1.0387    1.4334   -0.0053 C   0  0  0  0  0  0  0  0  0  0  0  0
   -1.0876   -2.3014   -0.0553 C   0  0  0  0  0  0  0  0  0  0  0  0
    1.0469   -1.0042   -0.1242 C   0  0  0  0  0  0  0  0  0  0  0  0
   -1.3111   -2.3975   -2.4888 C   0  0  0  0  0  0  0  0  0  0  0  0
   -2.2320   -4.1795   -1.0855 C   0  0  0  0  0  0  0  0  0  0  0  0
   -0.3497   -1.0120   -0.0523 C   0  0  0  0  0  0  0  0  0  0  0  0
   -1.5223   -2.9315   -1.1702 C   0  0  0  0  0  0  0  0  0  0  0  0
    1.7120    0.2185   -0.0990 C   0  0  0  0  0  0  0  0  0  0  0  0
   -1.1515   -1.9754   -3.5597 N   0  0  0  0  0  0  0  0  0  0  0  0
   -2.8070   -5.1868   -1.0119 N   0  0  0  0  0  0  0  0  0  0  0  0
    3.1853    0.2202   -0.1737 N   0  0  0  0  0  0  0  0  0  0  0  0
    3.7521    1.3107   -0.1626 O   0  0  0  0  0  0  0  0  0  0  0  0
    3.7514   -0.8691   -0.2393 O   0  0  0  0  0  0  0  0  0  0  0  0
   -0.9016    2.3487    0.1396 H   0  0  0  0  0  0  0  0  0  0  0  0
   -2.1292    0.1983    0.1016 H   0  0  0  0  0  0  0  0  0  0  0  0
    1.6019    2.3583    0.0069 H   0  0  0  0  0  0  0  0  0  0  0  0
   -1.2968   -2.7752    0.9026 H   0  0  0  0  0  0  0  0  0  0  0  0
    1.6189   -1.9210   -0.2007 H   0  0  0  0  0  0  0  0  0  0  0  0
  1 16  1  0  0  0  0
  2  1  1  0  0  0  0
  2 17  1  0  0  0  0
  3 18  1  0  0  0  0
  3  1  2  0  0  0  0
  4  8  1  0  0  0  0
  4 19  1  0  0  0  0
  5 10  2  0  0  0  0
  5  8  1  0  0  0  0
  6  9  1  0  0  0  0
  7 12  3  0  0  0  0
  8  2  2  0  0  0  0
  9  7  1  0  0  0  0
  9  4  2  0  0  0  0
 10  3  1  0  0  0  0
 11  6  3  0  0  0  0
 13 14  2  0  0  0  0
 13 10  1  0  0  0  0
 15 13  2  0  0  0  0
 20  5  1  0  0  0  0
M  END
>  <HBA>
2

>  <HBD>
0

>  <TPSA>
93.4

>  <cid>
17797

>  <dipole>
5.27

>  <excitation_energy_1>
3.733

>  <excitation_energy_2>
4.223

>  <excitation_energy_3>
4.229

>  <excitation_energy_4>
4.41

>  <homo_energy>
-8.174

>  <homo_lumo_gap>
5.178

>  <logP>
2.549

>  <lumo_energy>
-2.996

>  <melting_point>
136.53

>  <molecular_refractivity>
54.47

>  <oscillator_strength_1>
0.0

>  <oscillator_strength_2>
0.0013

>  <oscillator_strength_3>
0.0039

>  <oscillator_strength_4>
0.0156

>  <open_babel_can_smiles>
N#CC(=Cc1cccc(c1)N(=O)=O)C#N

>  <mulliken_charges>
20
1   -0.138476
2   -0.129486
3   -0.138289
4   -0.193191
5   -0.172469
6   0.302118
7   0.308586
8   0.076168
9   0.163954
10   0.276661
11   -0.448737
12   -0.44497
13   0.385868
14   -0.385194
15   -0.386044
16   0.164405
17   0.161737
18   0.19448
19   0.206262
20   0.196616

>  <lowdin_charges>
20
1   -0.138001
2   -0.125699
3   -0.127912
4   -0.070556
5   -0.133581
6   -0.005032
7   -0.004768
8   -0.011831
9   -0.017316
10   0.012105
11   -0.070688
12   -0.074574
13   0.309539
14   -0.235859
15   -0.237267
16   0.176086
17   0.172295
18   0.19418
19   0.193728
20   0.195152

$$$$

