PCCDB-ID:  33827
public computational chemistry database (PCCDB) project, http://pccdb.org

 25 25  0  0  0  0  0  0  0  0999 V2000
    1.2068    0.1015    0.3747 C   0  0  0  0  0  0  0  0  0  0  0  0
    4.6214   -3.5989   -0.2110 C   0  0  0  0  0  0  0  0  0  0  0  0
    6.8536    2.2506   -0.1080 C   0  0  0  0  0  0  0  0  0  0  0  0
    4.7623    3.5999    0.1343 C   0  0  0  0  0  0  0  0  0  0  0  0
    2.7000    0.0082    0.2116 C   0  0  0  0  0  0  0  0  0  0  0  0
    4.5985   -1.2711   -0.0612 C   0  0  0  0  0  0  0  0  0  0  0  0
    4.6649    1.1547    0.0707 C   0  0  0  0  0  0  0  0  0  0  0  0
    5.3144   -2.3193   -0.2060 N   0  0  0  0  0  0  0  0  0  0  0  0
    3.2278   -1.1874    0.0919 N   0  0  0  0  0  0  0  0  0  0  0  0
    3.3477    1.2127    0.2080 N   0  0  0  0  0  0  0  0  0  0  0  0
    5.3045   -0.0351   -0.0587 N   0  0  0  0  0  0  0  0  0  0  0  0
    5.4091    2.2935    0.0632 N   0  0  0  0  0  0  0  0  0  0  0  0
    0.7602   -0.8937    0.3617 H   0  0  0  0  0  0  0  0  0  0  0  0
    0.7792    0.7105   -0.4301 H   0  0  0  0  0  0  0  0  0  0  0  0
    0.9635    0.6044    1.3178 H   0  0  0  0  0  0  0  0  0  0  0  0
    5.3610   -4.3988   -0.3196 H   0  0  0  0  0  0  0  0  0  0  0  0
    3.9029   -3.6799   -1.0388 H   0  0  0  0  0  0  0  0  0  0  0  0
    4.0572   -3.7730    0.7159 H   0  0  0  0  0  0  0  0  0  0  0  0
    7.2437    3.2646   -0.0074 H   0  0  0  0  0  0  0  0  0  0  0  0
    7.1434    1.8734   -1.0988 H   0  0  0  0  0  0  0  0  0  0  0  0
    7.3341    1.6332    0.6618 H   0  0  0  0  0  0  0  0  0  0  0  0
    5.1623    4.1735    0.9787 H   0  0  0  0  0  0  0  0  0  0  0  0
    3.6937    3.4470    0.2711 H   0  0  0  0  0  0  0  0  0  0  0  0
    4.9340    4.1660   -0.7900 H   0  0  0  0  0  0  0  0  0  0  0  0
    6.3038   -0.1214   -0.1850 H   0  0  0  0  0  0  0  0  0  0  0  0
  1 15  1  0  0  0  0
  2  8  1  0  0  0  0
  2 18  1  0  0  0  0
  3 19  1  0  0  0  0
  3 12  1  0  0  0  0
  3 21  1  0  0  0  0
  4 23  1  0  0  0  0
  4 22  1  0  0  0  0
  5  1  1  0  0  0  0
  6 11  1  0  0  0  0
  6  9  2  0  0  0  0
  7 10  2  0  0  0  0
  8  6  1  0  0  0  0
  9  5  2  0  0  0  0
 10  5  1  0  0  0  0
 11  7  1  0  0  0  0
 12  7  1  0  0  0  0
 12  4  1  0  0  0  0
 13  1  1  0  0  0  0
 14  1  1  0  0  0  0
 16  2  1  0  0  0  0
 17  2  1  0  0  0  0
 20  3  1  0  0  0  0
 24  4  1  0  0  0  0
 25 11  1  0  0  0  0
M  RAD  1   8   2
M  END
>  <HBA>
5

>  <HBD>
1

>  <TPSA>
53.94

>  <cid>
33827

>  <dipole>
5.34

>  <excitation_energy_1>
4.203

>  <excitation_energy_2>
4.767

>  <excitation_energy_3>
4.78

>  <excitation_energy_4>
5.014

>  <homo_energy>
-5.448

>  <homo_lumo_gap>
5.012

>  <logP>
0.361

>  <lumo_energy>
-0.435

>  <melting_point>
99.57

>  <molecular_refractivity>
48.31

>  <oscillator_strength_1>
0.0825

>  <oscillator_strength_2>
0.0022

>  <oscillator_strength_3>
0.0002

>  <oscillator_strength_4>
0.0001

>  <open_babel_can_smiles>
C[N]C1=[N]=C(N=C(N1)N(C)C)C

>  <mulliken_charges>
25
1   -0.502329
2   -0.30112
3   -0.345846
4   -0.327231
5   0.4349
6   0.657131
7   0.810291
8   -0.518819
9   -0.515845
10   -0.57186
11   -0.700079
12   -0.4616
13   0.172662
14   0.1657
15   0.166056
16   0.136088
17   0.143014
18   0.143925
19   0.181596
20   0.175167
21   0.176155
22   0.158906
23   0.221366
24   0.159201
25   0.342571

>  <lowdin_charges>
25
1   -0.446164
2   -0.355172
3   -0.357227
4   -0.352905
5   0.120743
6   0.111931
7   0.163164
8   -0.269697
9   -0.236623
10   -0.279502
11   -0.226081
12   -0.092362
13   0.167962
14   0.168737
15   0.168019
16   0.142736
17   0.143849
18   0.143789
19   0.172673
20   0.156857
21   0.161154
22   0.153512
23   0.191357
24   0.151764
25   0.297484

$$$$

