PCCDB-ID:  69829
public computational chemistry database (PCCDB) project, http://pccdb.org

 19 19  0  0  0  0  0  0  0  0999 V2000
    0.9241   -0.1640    0.2205 C   0  0  0  0  0  0  0  0  0  0  0  0
    2.7394    2.4775    0.0064 C   0  0  0  0  0  0  0  0  0  0  0  0
    4.6991   -0.8218   -0.0023 C   0  0  0  0  0  0  0  0  0  0  0  0
    3.2412   -1.3221   -0.1334 C   0  0  0  0  0  0  0  0  0  0  0  0
    4.6251    0.6938   -0.3018 C   0  0  0  0  0  0  0  0  0  0  0  0
    2.4091   -0.0640    0.0360 C   0  0  0  0  0  0  0  0  0  0  0  0
    3.1685    1.0419   -0.0549 C   0  0  0  0  0  0  0  0  0  0  0  0
    0.6763   -0.7417    1.1221 H   0  0  0  0  0  0  0  0  0  0  0  0
    0.4578   -0.6927   -0.6233 H   0  0  0  0  0  0  0  0  0  0  0  0
    0.4411    0.8139    0.3073 H   0  0  0  0  0  0  0  0  0  0  0  0
    3.2538    3.0082    0.8201 H   0  0  0  0  0  0  0  0  0  0  0  0
    1.6624    2.5924    0.1611 H   0  0  0  0  0  0  0  0  0  0  0  0
    3.0021    3.0065   -0.9210 H   0  0  0  0  0  0  0  0  0  0  0  0
    5.3947   -1.3546   -0.6586 H   0  0  0  0  0  0  0  0  0  0  0  0
    5.0446   -0.9729    1.0269 H   0  0  0  0  0  0  0  0  0  0  0  0
    2.9931   -2.0952    0.6070 H   0  0  0  0  0  0  0  0  0  0  0  0
    3.0508   -1.7756   -1.1197 H   0  0  0  0  0  0  0  0  0  0  0  0
    4.8995    0.9191   -1.3452 H   0  0  0  0  0  0  0  0  0  0  0  0
    5.3117    1.2806    0.3240 H   0  0  0  0  0  0  0  0  0  0  0  0
  1 10  1  0  0  0  0
  1  8  1  0  0  0  0
  2 12  1  0  0  0  0
  2 11  1  0  0  0  0
  3 15  1  0  0  0  0
  4  3  1  0  0  0  0
  4  6  1  0  0  0  0
  4 16  1  0  0  0  0
  5  7  1  0  0  0  0
  5  3  1  0  0  0  0
  5 19  1  0  0  0  0
  6  1  1  0  0  0  0
  7  2  1  0  0  0  0
  7  6  2  0  0  0  0
  9  1  1  0  0  0  0
 13  2  1  0  0  0  0
 14  3  1  0  0  0  0
 17  4  1  0  0  0  0
 18  5  1  0  0  0  0
M  END
>  <HBA>
0

>  <HBD>
0

>  <TPSA>
0.0

>  <cid>
69829

>  <dipole>
0.14

>  <excitation_energy_1>
5.495

>  <excitation_energy_2>
5.887

>  <excitation_energy_3>
5.948

>  <excitation_energy_4>
6.218

>  <homo_energy>
-5.831

>  <homo_lumo_gap>
6.912

>  <logP>
2.507

>  <lumo_energy>
1.08

>  <melting_point>
11.98

>  <molecular_refractivity>
33.17

>  <oscillator_strength_1>
0.0048

>  <oscillator_strength_2>
0.0021

>  <oscillator_strength_3>
0.0003

>  <oscillator_strength_4>
0.0122

>  <open_babel_can_smiles>
CC1=C(C)CCC1

>  <mulliken_charges>
19
1   -0.521933
2   -0.522118
3   -0.276706
4   -0.323404
5   -0.323318
6   0.123591
7   0.123943
8   0.15113
9   0.151384
10   0.15155
11   0.151255
12   0.151612
13   0.151335
14   0.131689
15   0.141134
16   0.132722
17   0.13672
18   0.136797
19   0.132618

>  <lowdin_charges>
19
1   -0.443381
2   -0.441917
3   -0.275635
4   -0.278323
5   -0.278727
6   -0.033439
7   -0.033609
8   0.154959
9   0.155735
10   0.154019
11   0.155684
12   0.152614
13   0.155024
14   0.14454
15   0.144181
16   0.14254
17   0.141696
18   0.140977
19   0.14306

$$$$

