PCCDB-ID:  8901
public computational chemistry database (PCCDB) project, http://pccdb.org

 15 14  0  0  0  0  0  0  0  0999 V2000
    0.6047    0.1815   -0.1447 C   0  0  0  0  0  0  0  0  0  0  0  0
    2.0686   -0.1217   -0.2113 C   0  0  0  0  0  0  0  0  0  0  0  0
    3.0440    0.7891   -0.3900 C   0  0  0  0  0  0  0  0  0  0  0  0
    4.4496    0.4515   -0.4482 C   0  0  0  0  0  0  0  0  0  0  0  0
    5.4588    1.3334   -0.6255 C   0  0  0  0  0  0  0  0  0  0  0  0
    6.8537    0.8938   -0.6697 C   0  0  0  0  0  0  0  0  0  0  0  0
    7.8098    1.6341   -0.8250 O   0  0  0  0  0  0  0  0  0  0  0  0
    0.1786   -0.1465    0.8133 H   0  0  0  0  0  0  0  0  0  0  0  0
    0.0556   -0.3573   -0.9289 H   0  0  0  0  0  0  0  0  0  0  0  0
    0.4055    1.2515   -0.2602 H   0  0  0  0  0  0  0  0  0  0  0  0
    2.3505   -1.1706   -0.1052 H   0  0  0  0  0  0  0  0  0  0  0  0
    2.7819    1.8416   -0.4982 H   0  0  0  0  0  0  0  0  0  0  0  0
    4.7013   -0.6054   -0.3386 H   0  0  0  0  0  0  0  0  0  0  0  0
    5.2747    2.3997   -0.7405 H   0  0  0  0  0  0  0  0  0  0  0  0
    6.9973   -0.2050   -0.5475 H   0  0  0  0  0  0  0  0  0  0  0  0
  1  8  1  0  0  0  0
  2  1  1  0  0  0  0
  2 11  1  0  0  0  0
  3  2  2  0  0  0  0
  4  3  1  0  0  0  0
  4 13  1  0  0  0  0
  5  4  2  0  0  0  0
  6  5  1  0  0  0  0
  6 15  1  0  0  0  0
  7  6  2  0  0  0  0
  9  1  1  0  0  0  0
 10  1  1  0  0  0  0
 12  3  1  0  0  0  0
 14  5  1  0  0  0  0
M  END
>  <HBA>
1

>  <HBD>
0

>  <TPSA>
17.07

>  <cid>
8901

>  <dipole>
4.94

>  <excitation_energy_1>
3.431

>  <excitation_energy_2>
4.761

>  <excitation_energy_3>
6.101

>  <excitation_energy_4>
6.119

>  <homo_energy>
-6.566

>  <homo_lumo_gap>
4.631

>  <logP>
1.318

>  <lumo_energy>
-1.935

>  <melting_point>
24.74

>  <molecular_refractivity>
30.21

>  <oscillator_strength_1>
0.0001

>  <oscillator_strength_2>
0.9078

>  <oscillator_strength_3>
0.0005

>  <oscillator_strength_4>
0.0001

>  <open_babel_can_smiles>
C/C=C/C=C/C=O

>  <mulliken_charges>
15
1   -0.495412
2   -0.091952
3   -0.101442
4   -0.098649
5   -0.170293
6   0.227551
7   -0.421894
8   0.168741
9   0.168725
10   0.163295
11   0.138222
12   0.133921
13   0.138827
14   0.146989
15   0.093372

>  <lowdin_charges>
15
1   -0.438727
2   -0.122203
3   -0.166869
4   -0.107113
5   -0.20045
6   0.041116
7   -0.238179
8   0.165792
9   0.166902
10   0.159063
11   0.154026
12   0.156532
13   0.157055
14   0.165493
15   0.107562

$$$$

