PCCDB-ID:  8103
public computational chemistry database (PCCDB) project, http://pccdb.org

 21 20  0  0  0  0  0  0  0  0999 V2000
    1.5434    1.8037   -4.0449 C   0  0  0  0  0  0  0  0  0  0  0  0
    2.9572    1.4221   -3.5943 C   0  0  0  0  0  0  0  0  0  0  0  0
    3.1875    1.6463   -2.0930 C   0  0  0  0  0  0  0  0  0  0  0  0
    4.5727    1.2100   -1.5820 C   0  0  0  0  0  0  0  0  0  0  0  0
    5.7785    1.9822   -2.1476 C   0  0  0  0  0  0  0  0  0  0  0  0
    5.7906    3.4805   -1.8251 C   0  0  0  0  0  0  0  0  0  0  0  0
    5.8213    3.7565   -0.4270 O   0  0  0  0  0  0  0  0  0  0  0  0
    1.4058    1.6333   -5.1187 H   0  0  0  0  0  0  0  0  0  0  0  0
    1.3366    2.8629   -3.8473 H   0  0  0  0  0  0  0  0  0  0  0  0
    0.7850    1.2149   -3.5143 H   0  0  0  0  0  0  0  0  0  0  0  0
    3.6884    1.9994   -4.1757 H   0  0  0  0  0  0  0  0  0  0  0  0
    3.1459    0.3653   -3.8324 H   0  0  0  0  0  0  0  0  0  0  0  0
    2.4215    1.0909   -1.5334 H   0  0  0  0  0  0  0  0  0  0  0  0
    3.0129    2.7073   -1.8592 H   0  0  0  0  0  0  0  0  0  0  0  0
    4.7094    0.1417   -1.7984 H   0  0  0  0  0  0  0  0  0  0  0  0
    4.5908    1.2893   -0.4856 H   0  0  0  0  0  0  0  0  0  0  0  0
    5.8285    1.8635   -3.2387 H   0  0  0  0  0  0  0  0  0  0  0  0
    6.6973    1.5390   -1.7429 H   0  0  0  0  0  0  0  0  0  0  0  0
    4.9381    3.9875   -2.3051 H   0  0  0  0  0  0  0  0  0  0  0  0
    6.7006    3.9348   -2.2305 H   0  0  0  0  0  0  0  0  0  0  0  0
    4.9647    3.4954   -0.0571 H   0  0  0  0  0  0  0  0  0  0  0  0
  1  9  1  0  0  0  0
  1  2  1  0  0  0  0
  1 10  1  0  0  0  0
  2  3  1  0  0  0  0
  3 14  1  0  0  0  0
  3  4  1  0  0  0  0
  3 13  1  0  0  0  0
  4 16  1  0  0  0  0
  5  6  1  0  0  0  0
  5 18  1  0  0  0  0
  5  4  1  0  0  0  0
  6  7  1  0  0  0  0
  7 21  1  0  0  0  0
  8  1  1  0  0  0  0
 11  2  1  0  0  0  0
 12  2  1  0  0  0  0
 15  4  1  0  0  0  0
 17  5  1  0  0  0  0
 19  6  1  0  0  0  0
 20  6  1  0  0  0  0
M  END
>  <HBA>
1

>  <HBD>
1

>  <TPSA>
20.23

>  <cid>
8103

>  <dipole>
1.77

>  <excitation_energy_1>
6.393

>  <excitation_energy_2>
7.029

>  <excitation_energy_3>
7.222

>  <excitation_energy_4>
7.431

>  <homo_energy>
-7.08

>  <homo_lumo_gap>
8.71

>  <logP>
1.559

>  <lumo_energy>
1.63

>  <melting_point>
-7.94

>  <molecular_refractivity>
32.12

>  <oscillator_strength_1>
0.0061

>  <oscillator_strength_2>
0.0137

>  <oscillator_strength_3>
0.0094

>  <oscillator_strength_4>
0.0041

>  <open_babel_can_smiles>
CCCCCCO

>  <mulliken_charges>
21
1   -0.442163
2   -0.247943
3   -0.253723
4   -0.275238
5   -0.265664
6   -0.040538
7   -0.617254
8   0.143454
9   0.14178
10   0.142265
11   0.135433
12   0.132141
13   0.131117
14   0.122905
15   0.135824
16   0.124875
17   0.130695
18   0.142849
19   0.121507
20   0.145479
21   0.392199

>  <lowdin_charges>
21
1   -0.442291
2   -0.274448
3   -0.280432
4   -0.279598
5   -0.2954
6   -0.137919
7   -0.472254
8   0.148504
9   0.145084
10   0.147744
11   0.141261
12   0.138473
13   0.143549
14   0.131999
15   0.143814
16   0.135184
17   0.142024
18   0.150133
19   0.125481
20   0.148828
21   0.340266

$$$$

