PCCDB-ID:  32292
public computational chemistry database (PCCDB) project, http://pccdb.org

 36 35  0  0  0  0  0  0  0  0999 V2000
    6.8523    2.5014    0.5413 C   0  0  0  0  0  0  0  0  0  0  0  0
    4.9448   -6.3381    2.8854 C   0  0  0  0  0  0  0  0  0  0  0  0
    4.7449   -4.9730   -3.2792 C   0  0  0  0  0  0  0  0  0  0  0  0
    7.5327    1.2003    0.1041 C   0  0  0  0  0  0  0  0  0  0  0  0
    4.9305   -6.5205    1.3778 C   0  0  0  0  0  0  0  0  0  0  0  0
    4.4703   -5.0311   -1.7699 C   0  0  0  0  0  0  0  0  0  0  0  0
    6.5915   -0.0112    0.1255 C   0  0  0  0  0  0  0  0  0  0  0  0
    7.2629   -1.3162   -0.3203 C   0  0  0  0  0  0  0  0  0  0  0  0
    6.3125   -2.5224   -0.3079 C   0  0  0  0  0  0  0  0  0  0  0  0
    6.9966   -3.8159   -0.7792 C   0  0  0  0  0  0  0  0  0  0  0  0
    6.7077   -6.5800   -1.1808 O   0  0  0  0  0  0  0  0  0  0  0  0
    5.4458   -5.3127    0.7759 O   0  0  0  0  0  0  0  0  0  0  0  0
    5.9815   -5.3384   -0.7727 P   0  0  2  0  0  0  0  0  0  0  0  0
    7.5502    3.3460    0.5167 H   0  0  0  0  0  0  0  0  0  0  0  0
    6.4626    2.4206    1.5635 H   0  0  0  0  0  0  0  0  0  0  0  0
    6.0081    2.7468   -0.1148 H   0  0  0  0  0  0  0  0  0  0  0  0
    4.5465   -7.2329    3.3767 H   0  0  0  0  0  0  0  0  0  0  0  0
    4.3322   -5.4796    3.1795 H   0  0  0  0  0  0  0  0  0  0  0  0
    5.9666   -6.1714    3.2405 H   0  0  0  0  0  0  0  0  0  0  0  0
    3.8111   -4.8570   -3.8400 H   0  0  0  0  0  0  0  0  0  0  0  0
    5.2385   -5.8890   -3.6173 H   0  0  0  0  0  0  0  0  0  0  0  0
    5.3932   -4.1280   -3.5390 H   0  0  0  0  0  0  0  0  0  0  0  0
    8.3953    0.9992    0.7552 H   0  0  0  0  0  0  0  0  0  0  0  0
    7.9410    1.3230   -0.9093 H   0  0  0  0  0  0  0  0  0  0  0  0
    3.9078   -6.6921    1.0157 H   0  0  0  0  0  0  0  0  0  0  0  0
    5.5500   -7.3690    1.0707 H   0  0  0  0  0  0  0  0  0  0  0  0
    3.7883   -5.8608   -1.5446 H   0  0  0  0  0  0  0  0  0  0  0  0
    3.9847   -4.1154   -1.4128 H   0  0  0  0  0  0  0  0  0  0  0  0
    5.7242    0.1931   -0.5201 H   0  0  0  0  0  0  0  0  0  0  0  0
    6.1889   -0.1389    1.1415 H   0  0  0  0  0  0  0  0  0  0  0  0
    8.1221   -1.5272    0.3328 H   0  0  0  0  0  0  0  0  0  0  0  0
    7.6753   -1.1874   -1.3321 H   0  0  0  0  0  0  0  0  0  0  0  0
    5.4479   -2.3011   -0.9485 H   0  0  0  0  0  0  0  0  0  0  0  0
    5.9194   -2.6717    0.7049 H   0  0  0  0  0  0  0  0  0  0  0  0
    7.8638   -4.0475   -0.1478 H   0  0  0  0  0  0  0  0  0  0  0  0
    7.3820   -3.7035   -1.8011 H   0  0  0  0  0  0  0  0  0  0  0  0
  1 15  1  0  0  0  0
  2 18  1  0  0  0  0
  2 19  1  0  0  0  0
  2 17  1  0  0  0  0
  3  6  1  0  0  0  0
  4  7  1  0  0  0  0
  4  1  1  0  0  0  0
  4 23  1  0  0  0  0
  5  2  1  0  0  0  0
  6 27  1  0  0  0  0
  6 28  1  0  0  0  0
  6 13  1  0  0  0  0
  7 30  1  0  0  0  0
  8  9  1  0  0  0  0
  8  7  1  0  0  0  0
  8 31  1  0  0  0  0
  9 34  1  0  0  0  0
 10 13  1  0  0  0  0
 10  9  1  0  0  0  0
 10 35  1  0  0  0  0
 12  5  1  0  0  0  0
 13 11  2  6  0  0  0
 13 12  1  0  0  0  0
 14  1  1  0  0  0  0
 16  1  1  0  0  0  0
 20  3  1  0  0  0  0
 21  3  1  0  0  0  0
 22  3  1  0  0  0  0
 24  4  1  0  0  0  0
 25  5  1  0  0  0  0
 26  5  1  0  0  0  0
 29  7  1  0  0  0  0
 32  8  1  0  0  0  0
 33  9  1  0  0  0  0
 36 10  1  0  0  0  0
M  END
>  <HBA>
2

>  <HBD>
0

>  <TPSA>
36.11

>  <cid>
32292

>  <dipole>
3.23

>  <excitation_energy_1>
6.308

>  <excitation_energy_2>
6.738

>  <excitation_energy_3>
6.847

>  <excitation_energy_4>
6.865

>  <homo_energy>
-6.841

>  <homo_lumo_gap>
8.667

>  <logP>
3.901

>  <lumo_energy>
1.826

>  <melting_point>
-25.08

>  <molecular_refractivity>
59.93

>  <oscillator_strength_1>
0.0189

>  <oscillator_strength_2>
0.003

>  <oscillator_strength_3>
0.007

>  <oscillator_strength_4>
0.0214

>  <open_babel_can_smiles>
CCCCCC[P@@](=O)(OCC)CC

>  <mulliken_charges>
36
1   -0.441675
2   -0.452554
3   -0.461864
4   -0.247195
5   -0.033841
6   -0.478307
7   -0.246849
8   -0.25573
9   -0.272504
10   -0.485823
11   -0.571099
12   -0.567932
13   1.046537
14   0.14311
15   0.142049
16   0.141385
17   0.147821
18   0.156821
19   0.163394
20   0.151754
21   0.185492
22   0.149069
23   0.131988
24   0.13094
25   0.136209
26   0.176186
27   0.173937
28   0.167472
29   0.126518
30   0.129521
31   0.133263
32   0.129063
33   0.134405
34   0.161062
35   0.184881
36   0.172497

>  <lowdin_charges>
36
1   -0.444489
2   -0.448029
3   -0.442858
4   -0.27167
5   -0.119702
6   -0.462193
7   -0.27438
8   -0.273911
9   -0.273868
10   -0.454173
11   -0.617262
12   -0.423595
13   0.992677
14   0.150501
15   0.145735
16   0.146918
17   0.157418
18   0.156717
19   0.158848
20   0.154429
21   0.170263
22   0.150872
23   0.14017
24   0.138328
25   0.135968
26   0.161921
27   0.17432
28   0.168099
29   0.13762
30   0.138029
31   0.141253
32   0.137647
33   0.141374
34   0.154199
35   0.181467
36   0.171357

$$$$

