PCCDB-ID:  754
public computational chemistry database (PCCDB) project, http://pccdb.org

 19 18  0  0  1  0  0  0  0  0999 V2000
   -1.1876   -1.1000   -1.7805 C   0  0  0  0  0  0  0  0  0  0  0  0
    1.3053   -1.2294   -1.2487 C   0  0  0  0  0  0  0  0  0  0  0  0
    0.0321   -0.3842   -1.1963 C   0  0  1  0  0  0  0  0  0  0  0  0
   -2.3331   -0.2772   -1.7094 O   0  0  0  0  0  0  0  0  0  0  0  0
    0.2009    0.8770   -1.8821 O   0  0  0  0  0  0  0  0  0  0  0  0
    2.5710    2.0251   -0.9096 O   0  0  0  0  0  0  0  0  0  0  0  0
    4.6194    0.6938   -1.1344 O   0  0  0  0  0  0  0  0  0  0  0  0
    2.8402    0.5105   -3.0588 O   0  0  0  0  0  0  0  0  0  0  0  0
    2.4442   -0.5270   -0.7178 O   0  0  0  0  0  0  0  0  0  0  0  0
    3.0859    0.6768   -1.5996 P   0  0  0  0  0  0  0  0  0  0  0  0
   -1.4055   -2.0083   -1.2082 H   0  0  0  0  0  0  0  0  0  0  0  0
   -0.9692   -1.4024   -2.8205 H   0  0  0  0  0  0  0  0  0  0  0  0
    1.5182   -1.5455   -2.2765 H   0  0  0  0  0  0  0  0  0  0  0  0
    1.1923   -2.1181   -0.6226 H   0  0  0  0  0  0  0  0  0  0  0  0
   -0.1829   -0.1045   -0.1601 H   0  0  0  0  0  0  0  0  0  0  0  0
   -2.0574    0.5883   -2.0571 H   0  0  0  0  0  0  0  0  0  0  0  0
    0.6752    0.7162   -2.7240 H   0  0  0  0  0  0  0  0  0  0  0  0
    1.5955    2.0413   -1.0301 H   0  0  0  0  0  0  0  0  0  0  0  0
    5.1806    0.3326   -1.8397 H   0  0  0  0  0  0  0  0  0  0  0  0
  1  4  1  0  0  0  0
  1 11  1  0  0  0  0
  1  3  1  0  0  0  0
  2  3  1  0  0  0  0
  2  9  1  0  0  0  0
  2 14  1  0  0  0  0
  3 15  1  1  0  0  0
  5  3  1  0  0  0  0
  8 10  2  0  0  0  0
 10  7  1  0  0  0  0
 10  6  1  0  0  0  0
 10  9  1  0  0  0  0
 12  1  1  0  0  0  0
 13  2  1  0  0  0  0
 16  4  1  0  0  0  0
 17  5  1  0  0  0  0
 18  6  1  0  0  0  0
 19  7  1  0  0  0  0
M  END
>  <HBA>
6

>  <HBD>
4

>  <TPSA>
117.03

>  <cid>
754

>  <dipole>
2.11

>  <excitation_energy_1>
6.557

>  <excitation_energy_2>
6.975

>  <excitation_energy_3>
7.108

>  <excitation_energy_4>
7.146

>  <homo_energy>
-7.486

>  <homo_lumo_gap>
8.245

>  <logP>
-1.551

>  <lumo_energy>
0.759

>  <melting_point>
92.39

>  <molecular_refractivity>
30.93

>  <oscillator_strength_1>
0.002

>  <oscillator_strength_2>
0.0089

>  <oscillator_strength_3>
0.0112

>  <oscillator_strength_4>
0.0082

>  <open_babel_can_smiles>
OC[C@@H](COP(=O)(O)O)O

>  <mulliken_charges>
19
1   -0.026312
2   -0.077464
3   0.077322
4   -0.613757
5   -0.66709
6   -0.638705
7   -0.612547
8   -0.611444
9   -0.523381
10   1.181463
11   0.151077
12   0.122863
13   0.170906
14   0.170854
15   0.170675
16   0.402425
17   0.422653
18   0.454444
19   0.446017

>  <lowdin_charges>
19
1   -0.146582
2   -0.141627
3   -0.03378
4   -0.45742
5   -0.468339
6   -0.551944
7   -0.542801
8   -0.620191
9   -0.39005
10   1.11407
11   0.154016
12   0.127364
13   0.159145
14   0.16742
15   0.158465
16   0.346048
17   0.358189
18   0.376673
19   0.391343

$$$$

