PCCDB-ID:  71030
public computational chemistry database (PCCDB) project, http://pccdb.org

 26 28  0  0  0  0  0  0  0  0999 V2000
   -1.3574   -0.1318   -0.1149 C   0  0  0  0  0  0  0  0  0  0  0  0
    7.1633    1.2204   -0.2162 C   0  0  0  0  0  0  0  0  0  0  0  0
    7.2288   -0.2030   -0.2876 C   0  0  0  0  0  0  0  0  0  0  0  0
   -0.5323   -1.2087   -0.4600 C   0  0  0  0  0  0  0  0  0  0  0  0
   -0.8042    1.0898    0.2334 C   0  0  0  0  0  0  0  0  0  0  0  0
    5.9615    1.8926   -0.1431 C   0  0  0  0  0  0  0  0  0  0  0  0
    6.0940   -0.9859   -0.2885 C   0  0  0  0  0  0  0  0  0  0  0  0
    0.8434   -1.0337   -0.4518 C   0  0  0  0  0  0  0  0  0  0  0  0
    0.5923    1.3014    0.2577 C   0  0  0  0  0  0  0  0  0  0  0  0
    4.7881    1.1057   -0.1438 C   0  0  0  0  0  0  0  0  0  0  0  0
    4.8521   -0.3152   -0.2156 C   0  0  0  0  0  0  0  0  0  0  0  0
    1.4121    0.1987   -0.1003 C   0  0  0  0  0  0  0  0  0  0  0  0
    1.0868    2.5179    0.6722 N   0  0  0  0  0  0  0  0  0  0  0  0
    3.4871    1.4640   -0.0838 N   0  0  0  0  0  0  0  0  0  0  0  0
    3.5934   -0.8039   -0.1911 N   0  0  0  0  0  0  0  0  0  0  0  0
    2.8379    0.2923   -0.1141 N   0  0  0  0  0  0  0  0  0  0  0  0
   -2.4380   -0.2461   -0.1187 H   0  0  0  0  0  0  0  0  0  0  0  0
    8.0919    1.7844   -0.2186 H   0  0  0  0  0  0  0  0  0  0  0  0
    8.2052   -0.6762   -0.3424 H   0  0  0  0  0  0  0  0  0  0  0  0
   -0.9561   -2.1684   -0.7375 H   0  0  0  0  0  0  0  0  0  0  0  0
   -1.4490    1.9214    0.5080 H   0  0  0  0  0  0  0  0  0  0  0  0
    5.9096    2.9752   -0.0891 H   0  0  0  0  0  0  0  0  0  0  0  0
    6.1402   -2.0687   -0.3424 H   0  0  0  0  0  0  0  0  0  0  0  0
    1.5116   -1.8436   -0.7166 H   0  0  0  0  0  0  0  0  0  0  0  0
    0.4376    3.2916    0.6566 H   0  0  0  0  0  0  0  0  0  0  0  0
    2.0456    2.7249    0.4184 H   0  0  0  0  0  0  0  0  0  0  0  0
  1  5  2  0  0  0  0
  2  6  2  0  0  0  0
  3  2  1  0  0  0  0
  4  8  2  0  0  0  0
  4  1  1  0  0  0  0
  5  9  1  0  0  0  0
  5 21  1  0  0  0  0
  6 22  1  0  0  0  0
  7  3  2  0  0  0  0
  7 11  1  0  0  0  0
  8 12  1  0  0  0  0
  9 13  1  0  0  0  0
 10  6  1  0  0  0  0
 10 14  2  0  0  0  0
 11 15  2  0  0  0  0
 11 10  1  0  0  0  0
 12  9  2  0  0  0  0
 15 16  1  0  0  0  0
 16 12  1  0  0  0  0
 16 14  1  0  0  0  0
 17  1  1  0  0  0  0
 18  2  1  0  0  0  0
 19  3  1  0  0  0  0
 20  4  1  0  0  0  0
 23  7  1  0  0  0  0
 24  8  1  0  0  0  0
 25 13  1  0  0  0  0
 26 13  1  0  0  0  0
M  END
>  <HBA>
4

>  <HBD>
1

>  <TPSA>
56.73

>  <cid>
71030

>  <dipole>
1.58

>  <excitation_energy_1>
3.334

>  <excitation_energy_2>
4.164

>  <excitation_energy_3>
4.247

>  <excitation_energy_4>
4.757

>  <homo_energy>
-5.456

>  <homo_lumo_gap>
3.829

>  <logP>
2.584

>  <lumo_energy>
-1.627

>  <melting_point>
164.23

>  <molecular_refractivity>
63.27

>  <oscillator_strength_1>
0.259

>  <oscillator_strength_2>
0.0767

>  <oscillator_strength_3>
0.291

>  <oscillator_strength_4>
0.0371

>  <open_babel_can_smiles>
Nc1ccccc1n1nc2c(n1)cccc2

>  <mulliken_charges>
26
1   -0.119952
2   -0.146413
3   -0.145045
4   -0.154411
5   -0.194507
6   -0.15194
7   -0.154683
8   -0.165492
9   0.320753
10   0.310115
11   0.2845
12   0.329065
13   -0.814251
14   -0.442154
15   -0.385278
16   -0.17447
17   0.131505
18   0.134207
19   0.134379
20   0.130435
21   0.122447
22   0.14156
23   0.146378
24   0.174081
25   0.322276
26   0.366893

>  <lowdin_charges>
26
1   -0.137409
2   -0.156885
3   -0.157562
4   -0.18453
5   -0.198537
6   -0.159179
7   -0.154823
8   -0.147803
9   0.070009
10   -0.003412
11   -0.003482
12   -0.003216
13   -0.481031
14   -0.162536
15   -0.145475
16   0.140644
17   0.158072
18   0.161305
19   0.160912
20   0.160241
21   0.156581
22   0.164907
23   0.167485
24   0.183104
25   0.279656
26   0.292965

$$$$

