PCCDB-ID:  26608
public computational chemistry database (PCCDB) project, http://pccdb.org

 20 19  0  0  1  0  0  0  0  0999 V2000
    1.1376   -0.0687   -0.3182 C   0  0  0  0  0  0  0  0  0  0  0  0
    2.8598    1.7769   -0.1747 C   0  0  0  0  0  0  0  0  0  0  0  0
    4.3782    0.0097    1.9198 C   0  0  0  0  0  0  0  0  0  0  0  0
    2.5722    0.2927    0.0993 C   0  0  0  0  0  0  0  0  0  0  0  0
    2.8921   -0.1372    1.5687 C   0  0  2  0  0  0  0  0  0  0  0  0
    2.0421    0.6483    2.5725 C   0  0  0  0  0  0  0  0  0  0  0  0
    2.3929    1.6711    3.1076 O   0  0  0  0  0  0  0  0  0  0  0  0
    0.7992    0.1484    2.8320 O   0  0  0  0  0  0  0  0  0  0  0  0
    0.9897    0.1230   -1.3866 H   0  0  0  0  0  0  0  0  0  0  0  0
    0.3937    0.5253    0.2254 H   0  0  0  0  0  0  0  0  0  0  0  0
    0.9219   -1.1325   -0.1478 H   0  0  0  0  0  0  0  0  0  0  0  0
    2.6522    2.0125   -1.2247 H   0  0  0  0  0  0  0  0  0  0  0  0
    3.9052    2.0342    0.0212 H   0  0  0  0  0  0  0  0  0  0  0  0
    2.2362    2.4279    0.4476 H   0  0  0  0  0  0  0  0  0  0  0  0
    5.0005   -0.4865    1.1670 H   0  0  0  0  0  0  0  0  0  0  0  0
    4.5947   -0.4414    2.8937 H   0  0  0  0  0  0  0  0  0  0  0  0
    4.6617    1.0630    1.9776 H   0  0  0  0  0  0  0  0  0  0  0  0
    3.2546   -0.3036   -0.5236 H   0  0  0  0  0  0  0  0  0  0  0  0
    2.6224   -1.2016    1.6503 H   0  0  0  0  0  0  0  0  0  0  0  0
    0.6651   -0.6727    2.3318 H   0  0  0  0  0  0  0  0  0  0  0  0
  1 11  1  0  0  0  0
  1  4  1  0  0  0  0
  1 10  1  0  0  0  0
  2 13  1  0  0  0  0
  2  4  1  0  0  0  0
  2 14  1  0  0  0  0
  3 17  1  0  0  0  0
  3 16  1  0  0  0  0
  4  5  1  0  0  0  0
  5 19  1  1  0  0  0
  5  3  1  0  0  0  0
  5  6  1  0  0  0  0
  6  8  1  0  0  0  0
  6  7  2  0  0  0  0
  9  1  1  0  0  0  0
 12  2  1  0  0  0  0
 15  3  1  0  0  0  0
 18  4  1  0  0  0  0
 20  8  1  0  0  0  0
M  END
>  <HBA>
2

>  <HBD>
1

>  <TPSA>
37.3

>  <cid>
26608

>  <dipole>
4.1

>  <excitation_energy_1>
5.575

>  <excitation_energy_2>
6.431

>  <excitation_energy_3>
7.161

>  <excitation_energy_4>
7.381

>  <homo_energy>
-7.23

>  <homo_lumo_gap>
7.472

>  <logP>
1.363

>  <lumo_energy>
0.242

>  <melting_point>
50.6

>  <molecular_refractivity>
32.73

>  <oscillator_strength_1>
0.0017

>  <oscillator_strength_2>
0.0067

>  <oscillator_strength_3>
0.0087

>  <oscillator_strength_4>
0.0024

>  <open_babel_can_smiles>
C[C@@H](C(=O)O)C(C)C

>  <mulliken_charges>
20
1   -0.476384
2   -0.452396
3   -0.451473
4   -0.069414
5   -0.192029
6   0.606321
7   -0.448711
8   -0.571004
9   0.15608
10   0.161331
11   0.130476
12   0.1429
13   0.15367
14   0.167733
15   0.141624
16   0.15417
17   0.181581
18   0.134736
19   0.122312
20   0.408477

>  <lowdin_charges>
20
1   -0.456084
2   -0.448378
3   -0.440087
4   -0.116651
5   -0.165404
6   0.194457
7   -0.240835
8   -0.358407
9   0.156156
10   0.155584
11   0.139543
12   0.150033
13   0.154155
14   0.161431
15   0.151473
16   0.157138
17   0.166867
18   0.144742
19   0.138863
20   0.355401

$$$$

