PCCDB-ID:  35701
public computational chemistry database (PCCDB) project, http://pccdb.org

 30 32  0  0  0  0  0  0  0  0999 V2000
    1.0984   -0.5236    0.0683 C   0  0  0  0  0  0  0  0  0  0  0  0
    2.5753   -0.0901    0.0081 C   0  0  0  0  0  0  0  0  0  0  0  0
    1.9910    7.4125    1.2884 C   0  0  0  0  0  0  0  0  0  0  0  0
    2.6230    7.0074    2.4792 C   0  0  0  0  0  0  0  0  0  0  0  0
    3.8962    1.4574    3.2295 C   0  0  0  0  0  0  0  0  0  0  0  0
    1.6897    6.4702    0.3260 C   0  0  0  0  0  0  0  0  0  0  0  0
    3.5703    0.5407    2.2168 C   0  0  0  0  0  0  0  0  0  0  0  0
    2.9410    5.6776    2.6870 C   0  0  0  0  0  0  0  0  0  0  0  0
    3.5974    2.7963    3.0772 C   0  0  0  0  0  0  0  0  0  0  0  0
    1.6934    4.1317   -0.4857 C   0  0  0  0  0  0  0  0  0  0  0  0
    1.9916    2.8156   -0.3140 C   0  0  0  0  0  0  0  0  0  0  0  0
    2.9426    0.9497    1.0504 C   0  0  0  0  0  0  0  0  0  0  0  0
    2.0054    5.1046    0.5177 C   0  0  0  0  0  0  0  0  0  0  0  0
    2.6454    4.6857    1.7211 C   0  0  0  0  0  0  0  0  0  0  0  0
    2.6327    2.3344    0.8796 C   0  0  0  0  0  0  0  0  0  0  0  0
    2.9647    3.2739    1.9063 C   0  0  0  0  0  0  0  0  0  0  0  0
    0.8875   -1.2916   -0.6849 H   0  0  0  0  0  0  0  0  0  0  0  0
    0.4240    0.3208   -0.1092 H   0  0  0  0  0  0  0  0  0  0  0  0
    0.8566   -0.9373    1.0535 H   0  0  0  0  0  0  0  0  0  0  0  0
    2.8098    0.2729   -1.0000 H   0  0  0  0  0  0  0  0  0  0  0  0
    3.2074   -0.9727    0.1623 H   0  0  0  0  0  0  0  0  0  0  0  0
    1.7436    8.4586    1.1303 H   0  0  0  0  0  0  0  0  0  0  0  0
    2.8637    7.7431    3.2420 H   0  0  0  0  0  0  0  0  0  0  0  0
    4.3867    1.1105    4.1351 H   0  0  0  0  0  0  0  0  0  0  0  0
    1.2022    6.7654   -0.6003 H   0  0  0  0  0  0  0  0  0  0  0  0
    3.8139   -0.5112    2.3484 H   0  0  0  0  0  0  0  0  0  0  0  0
    3.4280    5.4026    3.6159 H   0  0  0  0  0  0  0  0  0  0  0  0
    3.8578    3.4835    3.8742 H   0  0  0  0  0  0  0  0  0  0  0  0
    1.2086    4.4690   -1.3989 H   0  0  0  0  0  0  0  0  0  0  0  0
    1.7395    2.1105   -1.0983 H   0  0  0  0  0  0  0  0  0  0  0  0
  1 19  1  0  0  0  0
  2  1  1  0  0  0  0
  2 21  1  0  0  0  0
  2 12  1  0  0  0  0
  3  4  2  0  0  0  0
  4  8  1  0  0  0  0
  4 23  1  0  0  0  0
  5 24  1  0  0  0  0
  6 13  2  0  0  0  0
  6  3  1  0  0  0  0
  7 26  1  0  0  0  0
  7  5  2  0  0  0  0
  8 27  1  0  0  0  0
  9  5  1  0  0  0  0
  9 28  1  0  0  0  0
 10 11  2  0  0  0  0
 10 13  1  0  0  0  0
 11 15  1  0  0  0  0
 12  7  1  0  0  0  0
 13 14  1  0  0  0  0
 14 16  1  0  0  0  0
 14  8  2  0  0  0  0
 15 12  2  0  0  0  0
 15 16  1  0  0  0  0
 16  9  2  0  0  0  0
 17  1  1  0  0  0  0
 18  1  1  0  0  0  0
 20  2  1  0  0  0  0
 22  3  1  0  0  0  0
 25  6  1  0  0  0  0
 29 10  1  0  0  0  0
 30 11  1  0  0  0  0
M  END
>  <HBA>
0

>  <HBD>
0

>  <TPSA>
0.0

>  <cid>
35701

>  <dipole>
0.29

>  <excitation_energy_1>
3.917

>  <excitation_energy_2>
4.129

>  <excitation_energy_3>
4.653

>  <excitation_energy_4>
4.838

>  <homo_energy>
-5.641

>  <homo_lumo_gap>
4.65

>  <logP>
4.555

>  <lumo_energy>
-0.991

>  <melting_point>
97.16

>  <molecular_refractivity>
71.23

>  <oscillator_strength_1>
0.0029

>  <oscillator_strength_2>
0.1085

>  <oscillator_strength_3>
0.1399

>  <oscillator_strength_4>
0.5947

>  <open_babel_can_smiles>
CCc1cccc2c1ccc1c2cccc1

>  <mulliken_charges>
30
1   -0.438396
2   -0.344534
3   -0.128649
4   -0.13849
5   -0.132048
6   -0.206483
7   -0.195259
8   -0.187251
9   -0.191044
10   -0.1973
11   -0.199567
12   0.110374
13   0.147955
14   0.05399
15   0.083399
16   0.064676
17   0.143532
18   0.153853
19   0.151125
20   0.146977
21   0.143571
22   0.129335
23   0.128665
24   0.127688
25   0.12879
26   0.121299
27   0.133345
28   0.131313
29   0.127983
30   0.131152

>  <lowdin_charges>
30
1   -0.444066
2   -0.273646
3   -0.156317
4   -0.15883
5   -0.156417
6   -0.15712
7   -0.167981
8   -0.157131
9   -0.163323
10   -0.158266
11   -0.165376
12   -0.001314
13   -0.002195
14   -0.002088
15   -0.009543
16   -0.000433
17   0.150292
18   0.152571
19   0.151916
20   0.148287
21   0.150939
22   0.157072
23   0.159003
24   0.157898
25   0.156906
26   0.152881
27   0.157939
28   0.15845
29   0.157643
30   0.162249

$$$$

