PCCDB-ID:  67978
public computational chemistry database (PCCDB) project, http://pccdb.org

 31 32  0  0  0  0  0  0  0  0999 V2000
   -0.9726   -3.4561    0.4367 C   0  0  0  0  0  0  0  0  0  0  0  0
   -0.5669   -3.0895   -0.8482 C   0  0  0  0  0  0  0  0  0  0  0  0
   -0.3253   -2.9059    1.5443 C   0  0  0  0  0  0  0  0  0  0  0  0
    0.4780   -2.1809   -1.0202 C   0  0  0  0  0  0  0  0  0  0  0  0
    0.7194   -1.9976    1.3653 C   0  0  0  0  0  0  0  0  0  0  0  0
    2.2984   -0.6682   -0.1096 C   0  0  0  0  0  0  0  0  0  0  0  0
    6.7989    0.5056   -0.9374 C   0  0  0  0  0  0  0  0  0  0  0  0
    8.0829    0.4295   -1.3609 C   0  0  0  0  0  0  0  0  0  0  0  0
    3.6481   -1.3953   -0.2857 C   0  0  0  0  0  0  0  0  0  0  0  0
    7.8901   -1.9358   -1.5517 C   0  0  0  0  0  0  0  0  0  0  0  0
    1.1389   -1.6196    0.0821 C   0  0  0  0  0  0  0  0  0  0  0  0
    6.5837   -1.9332   -1.1563 C   0  0  0  0  0  0  0  0  0  0  0  0
    5.9134   -0.6506   -0.8153 C   0  0  0  0  0  0  0  0  0  0  0  0
    5.8586   -3.1428   -1.1437 N   0  0  0  0  0  0  0  0  0  0  0  0
    8.6359   -0.7812   -1.6852 N   0  0  0  0  0  0  0  0  0  0  0  0
    4.6989   -0.4060   -0.4314 N   0  0  0  0  0  0  0  0  0  0  0  0
   -1.7895   -4.1600    0.5733 H   0  0  0  0  0  0  0  0  0  0  0  0
   -1.0681   -3.5076   -1.7177 H   0  0  0  0  0  0  0  0  0  0  0  0
   -0.6372   -3.1797    2.5493 H   0  0  0  0  0  0  0  0  0  0  0  0
    0.7843   -1.8954   -2.0245 H   0  0  0  0  0  0  0  0  0  0  0  0
    1.2146   -1.5676    2.2336 H   0  0  0  0  0  0  0  0  0  0  0  0
    2.1375   -0.0389   -0.9932 H   0  0  0  0  0  0  0  0  0  0  0  0
    2.3871    0.0104    0.7465 H   0  0  0  0  0  0  0  0  0  0  0  0
    6.3630    1.4664   -0.6901 H   0  0  0  0  0  0  0  0  0  0  0  0
    8.7271    1.2950   -1.4687 H   0  0  0  0  0  0  0  0  0  0  0  0
    3.5696   -2.0782   -1.1435 H   0  0  0  0  0  0  0  0  0  0  0  0
    3.8006   -2.0230    0.6122 H   0  0  0  0  0  0  0  0  0  0  0  0
    8.4070   -2.8567   -1.8032 H   0  0  0  0  0  0  0  0  0  0  0  0
    6.4563   -3.9600   -1.2206 H   0  0  0  0  0  0  0  0  0  0  0  0
    5.2500   -3.2424   -0.3411 H   0  0  0  0  0  0  0  0  0  0  0  0
    9.5959   -0.8428   -1.9839 H   0  0  0  0  0  0  0  0  0  0  0  0
  1 17  1  0  0  0  0
  1  3  2  0  0  0  0
  2  1  1  0  0  0  0
  3 19  1  0  0  0  0
  4  2  2  0  0  0  0
  4 11  1  0  0  0  0
  5  3  1  0  0  0  0
  5 21  1  0  0  0  0
  6 11  1  0  0  0  0
  6 23  1  0  0  0  0
  7 13  1  0  0  0  0
  7 24  1  0  0  0  0
  8  7  2  0  0  0  0
  9  6  1  0  0  0  0
  9 27  1  0  0  0  0
 10 12  2  0  0  0  0
 11  5  2  0  0  0  0
 12 14  1  0  0  0  0
 12 13  1  0  0  0  0
 13 16  2  0  0  0  0
 14 30  1  0  0  0  0
 15 10  1  0  0  0  0
 15  8  1  0  0  0  0
 16  9  1  0  0  0  0
 18  2  1  0  0  0  0
 20  4  1  0  0  0  0
 22  6  1  0  0  0  0
 25  8  1  0  0  0  0
 26  9  1  0  0  0  0
 28 10  1  0  0  0  0
 29 14  1  0  0  0  0
 31 15  1  0  0  0  0
M  END
>  <HBA>
3

>  <HBD>
2

>  <TPSA>
50.94

>  <cid>
67978

>  <dipole>
5.57

>  <excitation_energy_1>
3.609

>  <excitation_energy_2>
4.041

>  <excitation_energy_3>
4.162

>  <excitation_energy_4>
4.272

>  <homo_energy>
-4.561

>  <homo_lumo_gap>
4.561

>  <logP>
2.973

>  <lumo_energy>
0.0

>  <melting_point>
133.26

>  <molecular_refractivity>
67.24

>  <oscillator_strength_1>
0.0013

>  <oscillator_strength_2>
0.0699

>  <oscillator_strength_3>
0.0954

>  <oscillator_strength_4>
0.1179

>  <open_babel_can_smiles>
Nc1c[nH]cc/c/1=N/CCc1ccccc1

>  <mulliken_charges>
31
1   -0.133169
2   -0.128845
3   -0.128576
4   -0.180395
5   -0.183991
6   -0.345198
7   -0.204429
8   0.078191
9   -0.148538
10   0.00326
11   0.16662
12   0.225693
13   0.337525
14   -0.786757
15   -0.607036
16   -0.540051
17   0.122284
18   0.123395
19   0.122749
20   0.123232
21   0.120914
22   0.145736
23   0.144705
24   0.139872
25   0.153168
26   0.152379
27   0.11406
28   0.139186
29   0.308992
30   0.330527
31   0.334495

>  <lowdin_charges>
31
1   -0.16461
2   -0.159196
3   -0.158285
4   -0.167629
5   -0.171265
6   -0.278668
7   -0.202365
8   -0.111375
9   -0.210098
10   -0.162593
11   0.001666
12   0.004825
13   0.045006
14   -0.49355
15   -0.192105
16   -0.259198
17   0.154385
18   0.155312
19   0.153519
20   0.153723
21   0.154043
22   0.152838
23   0.152138
24   0.173276
25   0.166357
26   0.14256
27   0.124591
28   0.158412
29   0.267241
30   0.278446
31   0.292598

$$$$

