PCCDB-ID:  20537
public computational chemistry database (PCCDB) project, http://pccdb.org

 36 38  0  0  0  0  0  0  0  0999 V2000
    0.8387   -0.0906   -0.1987 C   0  0  0  0  0  0  0  0  0  0  0  0
    2.2563   -2.5732    0.0020 C   0  0  0  0  0  0  0  0  0  0  0  0
    2.3752    2.5014   -0.2080 C   0  0  0  0  0  0  0  0  0  0  0  0
    5.0843   -2.6409    0.5265 C   0  0  0  0  0  0  0  0  0  0  0  0
    9.5053    0.1249   -0.2793 C   0  0  0  0  0  0  0  0  0  0  0  0
    8.8472   -1.0818   -0.5711 C   0  0  0  0  0  0  0  0  0  0  0  0
    8.7519    1.2411    0.0240 C   0  0  0  0  0  0  0  0  0  0  0  0
    7.4673   -1.1691   -0.4931 C   0  0  0  0  0  0  0  0  0  0  0  0
    6.5749    2.3751    0.2497 C   0  0  0  0  0  0  0  0  0  0  0  0
    5.2210    2.3524    0.1445 C   0  0  0  0  0  0  0  0  0  0  0  0
    2.3536   -0.0472   -0.1227 C   0  0  0  0  0  0  0  0  0  0  0  0
    3.0537   -1.2814   -0.0033 C   0  0  0  0  0  0  0  0  0  0  0  0
    3.0633    1.1525   -0.1064 C   0  0  0  0  0  0  0  0  0  0  0  0
    4.4458   -1.3223    0.1203 C   0  0  0  0  0  0  0  0  0  0  0  0
    7.3404    1.1798    0.0787 C   0  0  0  0  0  0  0  0  0  0  0  0
    4.4869    1.1238   -0.0084 C   0  0  0  0  0  0  0  0  0  0  0  0
    6.6630   -0.0645   -0.1114 C   0  0  0  0  0  0  0  0  0  0  0  0
    5.2012   -0.1142   -0.0008 C   0  0  0  0  0  0  0  0  0  0  0  0
    0.4881   -0.4138   -1.1889 H   0  0  0  0  0  0  0  0  0  0  0  0
    0.3769    0.8743    0.0095 H   0  0  0  0  0  0  0  0  0  0  0  0
    0.4272   -0.7987    0.5280 H   0  0  0  0  0  0  0  0  0  0  0  0
    1.4018   -2.5133   -0.6775 H   0  0  0  0  0  0  0  0  0  0  0  0
    1.8542   -2.8119    0.9979 H   0  0  0  0  0  0  0  0  0  0  0  0
    2.8568   -3.4269   -0.3176 H   0  0  0  0  0  0  0  0  0  0  0  0
    1.3408    2.4190   -0.5405 H   0  0  0  0  0  0  0  0  0  0  0  0
    2.8829    3.1498   -0.9297 H   0  0  0  0  0  0  0  0  0  0  0  0
    2.3676    3.0336    0.7530 H   0  0  0  0  0  0  0  0  0  0  0  0
    4.4185   -3.1880    1.2000 H   0  0  0  0  0  0  0  0  0  0  0  0
    6.0198   -2.4800    1.0646 H   0  0  0  0  0  0  0  0  0  0  0  0
    5.2986   -3.3105   -0.3182 H   0  0  0  0  0  0  0  0  0  0  0  0
   10.5891    0.1864   -0.3275 H   0  0  0  0  0  0  0  0  0  0  0  0
    9.4205   -1.9535   -0.8758 H   0  0  0  0  0  0  0  0  0  0  0  0
    9.2339    2.2007    0.1970 H   0  0  0  0  0  0  0  0  0  0  0  0
    7.0022   -2.1000   -0.7833 H   0  0  0  0  0  0  0  0  0  0  0  0
    7.1013    3.3134    0.4080 H   0  0  0  0  0  0  0  0  0  0  0  0
    4.6739    3.2842    0.2218 H   0  0  0  0  0  0  0  0  0  0  0  0
  1 11  1  0  0  0  0
  1 20  1  0  0  0  0
  1 21  1  0  0  0  0
  2 23  1  0  0  0  0
  3 13  1  0  0  0  0
  3 27  1  0  0  0  0
  4 29  1  0  0  0  0
  4 28  1  0  0  0  0
  5  7  2  0  0  0  0
  6  8  2  0  0  0  0
  6  5  1  0  0  0  0
  7 15  1  0  0  0  0
  7 33  1  0  0  0  0
  8 17  1  0  0  0  0
  9 35  1  0  0  0  0
 10 36  1  0  0  0  0
 10  9  1  0  0  0  0
 11 13  2  0  0  0  0
 11 12  1  0  0  0  0
 12  2  1  0  0  0  0
 12 14  2  0  0  0  0
 13 16  1  0  0  0  0
 14  4  1  0  0  0  0
 15  9  2  0  0  0  0
 16 18  1  0  0  0  0
 16 10  2  0  0  0  0
 17 18  2  0  0  0  0
 17 15  1  0  0  0  0
 18 14  1  0  0  0  0
 19  1  1  0  0  0  0
 22  2  1  0  0  0  0
 24  2  1  0  0  0  0
 25  3  1  0  0  0  0
 26  3  1  0  0  0  0
 30  4  1  0  0  0  0
 31  5  1  0  0  0  0
 32  6  1  0  0  0  0
 34  8  1  0  0  0  0
M  END
>  <HBA>
0

>  <HBD>
0

>  <TPSA>
0.0

>  <cid>
20537

>  <dipole>
0.99

>  <excitation_energy_1>
3.786

>  <excitation_energy_2>
3.939

>  <excitation_energy_3>
4.486

>  <excitation_energy_4>
4.743

>  <homo_energy>
-5.355

>  <homo_lumo_gap>
4.438

>  <logP>
5.227

>  <lumo_energy>
-0.917

>  <melting_point>
112.34

>  <molecular_refractivity>
81.32

>  <oscillator_strength_1>
0.0051

>  <oscillator_strength_2>
0.1279

>  <oscillator_strength_3>
0.1609

>  <oscillator_strength_4>
0.6051

>  <open_babel_can_smiles>
Cc1c(C)c(C)c2c(c1C)c1ccccc1cc2

>  <mulliken_charges>
36
1   -0.546644
2   -0.543981
3   -0.544086
4   -0.55726
5   -0.13135
6   -0.140534
7   -0.202981
8   -0.197954
9   -0.19205
10   -0.200165
11   0.078367
12   0.068766
13   0.056773
14   0.065038
15   0.139818
16   0.085571
17   0.050578
18   0.010517
19   0.160976
20   0.157469
21   0.160244
22   0.159151
23   0.159408
24   0.159918
25   0.156585
26   0.163328
27   0.16069
28   0.158964
29   0.17621
30   0.157827
31   0.127034
32   0.125614
33   0.126482
34   0.139364
35   0.124777
36   0.12754

>  <lowdin_charges>
36
1   -0.449296
2   -0.449047
3   -0.450009
4   -0.45266
5   -0.157231
6   -0.164135
7   -0.159676
8   -0.163966
9   -0.161892
10   -0.16596
11   -0.016689
12   -0.017044
13   -0.016678
14   -0.015571
15   -0.001516
16   -0.011038
17   -0.004167
18   -0.01081
19   0.158157
20   0.158452
21   0.160867
22   0.16087
23   0.157061
24   0.160927
25   0.157669
26   0.161562
27   0.158447
28   0.160028
29   0.167518
30   0.154032
31   0.15514
32   0.15729
33   0.155858
34   0.165558
35   0.156301
36   0.161647

$$$$

