PCCDB-ID:  16157
public computational chemistry database (PCCDB) project, http://pccdb.org

 19 19  0  0  0  0  0  0  0  0999 V2000
   -2.0802    0.4510    0.1900 C   0  0  0  0  0  0  0  0  0  0  0  0
   -1.2268    1.4976   -0.1577 C   0  0  0  0  0  0  0  0  0  0  0  0
   -1.5528   -0.8366    0.3174 C   0  0  0  0  0  0  0  0  0  0  0  0
    0.1342    1.2781   -0.3760 C   0  0  0  0  0  0  0  0  0  0  0  0
   -0.2021   -1.0736    0.0841 C   0  0  0  0  0  0  0  0  0  0  0  0
    0.6621   -0.0205   -0.2689 C   0  0  0  0  0  0  0  0  0  0  0  0
    3.0476    0.3647   -1.0849 C   0  0  0  0  0  0  0  0  0  0  0  0
    4.2506    0.0343   -0.7778 N   0  0  0  0  0  0  0  0  0  0  0  0
    2.6459    1.3602   -1.9791 N   0  0  0  0  0  0  0  0  0  0  0  0
    2.0171   -0.3339   -0.4640 N   0  0  0  0  0  0  0  0  0  0  0  0
   -3.1363    0.6340    0.3646 H   0  0  0  0  0  0  0  0  0  0  0  0
   -1.6149    2.5094   -0.2438 H   0  0  0  0  0  0  0  0  0  0  0  0
   -2.1985   -1.6669    0.5916 H   0  0  0  0  0  0  0  0  0  0  0  0
    0.7884    2.1106   -0.6055 H   0  0  0  0  0  0  0  0  0  0  0  0
    0.1977   -2.0816    0.1668 H   0  0  0  0  0  0  0  0  0  0  0  0
    4.9278    0.5384   -1.3519 H   0  0  0  0  0  0  0  0  0  0  0  0
    3.3849    1.6596   -2.6027 H   0  0  0  0  0  0  0  0  0  0  0  0
    1.7799    1.1756   -2.4742 H   0  0  0  0  0  0  0  0  0  0  0  0
    2.3799   -1.1168    0.0637 H   0  0  0  0  0  0  0  0  0  0  0  0
  1  3  1  0  0  0  0
  1 11  1  0  0  0  0
  2  1  2  0  0  0  0
  3 13  1  0  0  0  0
  4  6  2  0  0  0  0
  4  2  1  0  0  0  0
  5 15  1  0  0  0  0
  5  3  2  0  0  0  0
  6  5  1  0  0  0  0
  7  8  1  0  0  0  0
  7 10  1  0  0  0  0
  9  7  2  0  0  0  0
 10  6  1  0  0  0  0
 10 19  1  0  0  0  0
 12  2  1  0  0  0  0
 14  4  1  0  0  0  0
 16  8  1  0  0  0  0
 17  9  1  0  0  0  0
 18  9  1  0  0  0  0
M  RAD  1   8   2
M  END
>  <HBA>
3

>  <HBD>
2

>  <TPSA>
64.4

>  <cid>
16157

>  <dipole>
2.62

>  <excitation_energy_1>
4.601

>  <excitation_energy_2>
4.825

>  <excitation_energy_3>
4.986

>  <excitation_energy_4>
5.363

>  <homo_energy>
-5.51

>  <homo_lumo_gap>
5.456

>  <logP>
1.992

>  <lumo_energy>
-0.054

>  <melting_point>
137.05

>  <molecular_refractivity>
41.07

>  <oscillator_strength_1>
0.0228

>  <oscillator_strength_2>
0.0717

>  <oscillator_strength_3>
0.3076

>  <oscillator_strength_4>
0.0062

>  <open_babel_can_smiles>
[NH]C(=[NH2])Nc1ccccc1

>  <mulliken_charges>
19
1   -0.132721
2   -0.139829
3   -0.132641
4   -0.186537
5   -0.1844
6   0.339035
7   0.585346
8   -0.644508
9   -0.749284
10   -0.700354
11   0.126263
12   0.130003
13   0.130506
14   0.163194
15   0.126246
16   0.267095
17   0.326257
18   0.333749
19   0.34258

>  <lowdin_charges>
19
1   -0.175782
2   -0.146534
3   -0.147795
4   -0.204699
5   -0.18904
6   0.055489
7   0.13166
8   -0.480685
9   -0.500948
10   -0.256973
11   0.155674
12   0.15712
13   0.159614
14   0.173111
15   0.15583
16   0.249061
17   0.281152
18   0.284824
19   0.29892

$$$$

