PCCDB-ID:  5526
public computational chemistry database (PCCDB) project, http://pccdb.org

 26 26  0  0  1  0  0  0  0  0999 V2000
    0.7415    1.2481   -0.2712 C   0  0  0  0  0  0  0  0  0  0  0  0
   -1.4406   -0.0211   -0.3108 C   0  0  0  0  0  0  0  0  0  0  0  0
    1.4586    0.0139    0.2925 C   0  0  0  0  0  0  0  0  0  0  0  0
   -0.7359   -1.2658    0.2468 C   0  0  0  0  0  0  0  0  0  0  0  0
   -1.4633    2.5147   -0.4478 C   0  0  0  0  0  0  0  0  0  0  0  0
   -0.7454    1.2818    0.1193 C   0  0  2  0  0  0  0  0  0  0  0  0
    0.7516   -1.2977   -0.1340 C   0  0  2  0  0  0  0  0  0  0  0  0
    1.4488   -2.5160    0.4691 C   0  0  0  0  0  0  0  0  0  0  0  0
   -0.8647    3.7596    0.0506 N   0  0  0  0  0  0  0  0  0  0  0  0
    0.9694   -3.2470    1.2996 O   0  0  0  0  0  0  0  0  0  0  0  0
    2.7168   -2.7483    0.0198 O   0  0  0  0  0  0  0  0  0  0  0  0
    0.8180    1.2415   -1.3699 H   0  0  0  0  0  0  0  0  0  0  0  0
    1.2325    2.1651    0.0685 H   0  0  0  0  0  0  0  0  0  0  0  0
   -2.4888   -0.0158    0.0157 H   0  0  0  0  0  0  0  0  0  0  0  0
   -1.4597   -0.0708   -1.4108 H   0  0  0  0  0  0  0  0  0  0  0  0
    1.4754    0.0615    1.3903 H   0  0  0  0  0  0  0  0  0  0  0  0
    2.5086    0.0139   -0.0308 H   0  0  0  0  0  0  0  0  0  0  0  0
   -1.2270   -2.1784   -0.1087 H   0  0  0  0  0  0  0  0  0  0  0  0
   -0.8134   -1.2859    1.3408 H   0  0  0  0  0  0  0  0  0  0  0  0
   -2.5440    2.4242   -0.2316 H   0  0  0  0  0  0  0  0  0  0  0  0
   -1.3634    2.5143   -1.5419 H   0  0  0  0  0  0  0  0  0  0  0  0
   -0.8033    1.3405    1.2201 H   0  0  0  0  0  0  0  0  0  0  0  0
    0.8342   -1.3813   -1.2308 H   0  0  0  0  0  0  0  0  0  0  0  0
   -1.0726    3.8628    1.0436 H   0  0  0  0  0  0  0  0  0  0  0  0
   -1.2951    4.5592   -0.4106 H   0  0  0  0  0  0  0  0  0  0  0  0
    2.9578   -2.0825   -0.6452 H   0  0  0  0  0  0  0  0  0  0  0  0
  1 13  1  0  0  0  0
  1  6  1  0  0  0  0
  1  3  1  0  0  0  0
  2 14  1  0  0  0  0
  2  6  1  0  0  0  0
  2  4  1  0  0  0  0
  3 16  1  0  0  0  0
  4 19  1  0  0  0  0
  5 20  1  0  0  0  0
  5  9  1  0  0  0  0
  5  6  1  0  0  0  0
  6 22  1  1  0  0  0
  7 23  1  6  0  0  0
  7  4  1  0  0  0  0
  7  3  1  0  0  0  0
  7  8  1  0  0  0  0
  8 10  2  0  0  0  0
  9 24  1  0  0  0  0
 11  8  1  0  0  0  0
 12  1  1  0  0  0  0
 15  2  1  0  0  0  0
 17  3  1  0  0  0  0
 18  4  1  0  0  0  0
 21  5  1  0  0  0  0
 25  9  1  0  0  0  0
 26 11  1  0  0  0  0
M  END
>  <HBA>
3

>  <HBD>
2

>  <TPSA>
63.32

>  <cid>
5526

>  <dipole>
4.71

>  <excitation_energy_1>
5.598

>  <excitation_energy_2>
5.631

>  <excitation_energy_3>
5.931

>  <excitation_energy_4>
6.331

>  <homo_energy>
-6.474

>  <homo_lumo_gap>
6.876

>  <logP>
1.536

>  <lumo_energy>
0.403

>  <melting_point>
126.09

>  <molecular_refractivity>
42.94

>  <oscillator_strength_1>
0.0101

>  <oscillator_strength_2>
0.0009

>  <oscillator_strength_3>
0.0028

>  <oscillator_strength_4>
0.011

>  <open_babel_can_smiles>
NC[C@@H]1CC[C@H](CC1)C(=O)O

>  <mulliken_charges>
26
1   -0.25047
2   -0.274407
3   -0.276583
4   -0.256263
5   -0.139035
6   -0.07754
7   -0.219953
8   0.612745
9   -0.718751
10   -0.445185
11   -0.576505
12   0.120048
13   0.165473
14   0.134593
15   0.124961
16   0.152679
17   0.121815
18   0.147894
19   0.15465
20   0.113974
21   0.134585
22   0.114391
23   0.135528
24   0.293908
25   0.299122
26   0.408326

>  <lowdin_charges>
26
1   -0.275462
2   -0.275088
3   -0.272728
4   -0.269877
5   -0.200705
6   -0.130908
7   -0.171239
8   0.196794
9   -0.556841
10   -0.239361
11   -0.363232
12   0.133598
13   0.162086
14   0.144444
15   0.13434
16   0.148051
17   0.136055
18   0.154842
19   0.151904
20   0.117517
21   0.137608
22   0.129753
23   0.14343
24   0.250618
25   0.257892
26   0.356507

$$$$

