PCCDB-ID:  47376
public computational chemistry database (PCCDB) project, http://pccdb.org

 30 29  0  0  1  0  0  0  0  0999 V2000
    0.8785    0.1001   -0.1297 C   0  0  0  0  0  0  0  0  0  0  0  0
    1.3394   -4.6193    3.9581 C   0  0  0  0  0  0  0  0  0  0  0  0
    5.0956    0.6518    4.0896 C   0  0  0  0  0  0  0  0  0  0  0  0
    2.4164    0.0626   -0.0560 C   0  0  0  0  0  0  0  0  0  0  0  0
    2.3355   -3.6890    3.2570 C   0  0  0  0  0  0  0  0  0  0  0  0
    4.0415   -0.3716    4.5185 C   0  0  0  0  0  0  0  0  0  0  0  0
    2.9184   -0.5101    1.1962 C   0  0  0  0  0  0  0  0  0  0  0  0
    2.7443   -2.5022    4.1348 C   0  0  0  0  0  0  0  0  0  0  0  0
    3.3049   -0.9916    2.2377 C   0  0  0  0  0  0  0  0  0  0  0  0
    3.7980   -1.5423    3.5151 C   0  0  1  0  0  0  0  0  0  0  0  0
    5.0204   -2.3328    3.2356 N   0  0  0  0  0  0  0  0  0  0  0  0
    0.5534    0.5422   -1.0780 H   0  0  0  0  0  0  0  0  0  0  0  0
    0.4632    0.6968    0.6888 H   0  0  0  0  0  0  0  0  0  0  0  0
    0.4604   -0.9089   -0.0584 H   0  0  0  0  0  0  0  0  0  0  0  0
    1.0636   -5.4620    3.3138 H   0  0  0  0  0  0  0  0  0  0  0  0
    0.4161   -4.0905    4.2273 H   0  0  0  0  0  0  0  0  0  0  0  0
    1.7628   -5.0329    4.8823 H   0  0  0  0  0  0  0  0  0  0  0  0
    5.1935    1.4401    4.8438 H   0  0  0  0  0  0  0  0  0  0  0  0
    4.8242    1.1240    3.1392 H   0  0  0  0  0  0  0  0  0  0  0  0
    6.0830    0.1905    3.9686 H   0  0  0  0  0  0  0  0  0  0  0  0
    2.8126    1.0804   -0.1773 H   0  0  0  0  0  0  0  0  0  0  0  0
    2.8085   -0.5169   -0.9033 H   0  0  0  0  0  0  0  0  0  0  0  0
    1.8967   -3.3110    2.3253 H   0  0  0  0  0  0  0  0  0  0  0  0
    3.2345   -4.2452    2.9708 H   0  0  0  0  0  0  0  0  0  0  0  0
    3.0870    0.1415    4.6930 H   0  0  0  0  0  0  0  0  0  0  0  0
    4.3333   -0.8207    5.4793 H   0  0  0  0  0  0  0  0  0  0  0  0
    3.1630   -2.8743    5.0826 H   0  0  0  0  0  0  0  0  0  0  0  0
    1.8575   -1.9117    4.4006 H   0  0  0  0  0  0  0  0  0  0  0  0
    5.4490   -2.5954    4.1246 H   0  0  0  0  0  0  0  0  0  0  0  0
    5.6980   -1.7503    2.7469 H   0  0  0  0  0  0  0  0  0  0  0  0
  1 14  1  0  0  0  0
  1  4  1  0  0  0  0
  1 13  1  0  0  0  0
  2 16  1  0  0  0  0
  2 17  1  0  0  0  0
  3  6  1  0  0  0  0
  3 18  1  0  0  0  0
  4  7  1  0  0  0  0
  5  2  1  0  0  0  0
  5  8  1  0  0  0  0
  6 25  1  0  0  0  0
  6 26  1  0  0  0  0
  7  9  3  0  0  0  0
  8 28  1  0  0  0  0
  8 27  1  0  0  0  0
 10  9  1  6  0  0  0
 10  8  1  0  0  0  0
 10  6  1  0  0  0  0
 11 10  1  0  0  0  0
 11 29  1  0  0  0  0
 12  1  1  0  0  0  0
 15  2  1  0  0  0  0
 19  3  1  0  0  0  0
 20  3  1  0  0  0  0
 21  4  1  0  0  0  0
 22  4  1  0  0  0  0
 23  5  1  0  0  0  0
 24  5  1  0  0  0  0
 30 11  1  0  0  0  0
M  END
>  <HBA>
1

>  <HBD>
1

>  <TPSA>
26.02

>  <cid>
47376

>  <dipole>
1.31

>  <excitation_energy_1>
5.647

>  <excitation_energy_2>
6.025

>  <excitation_energy_3>
6.209

>  <excitation_energy_4>
6.225

>  <homo_energy>
-6.264

>  <homo_lumo_gap>
7.693

>  <logP>
3.008

>  <lumo_energy>
1.429

>  <melting_point>
53.4

>  <molecular_refractivity>
51.09

>  <oscillator_strength_1>
0.0276

>  <oscillator_strength_2>
0.0011

>  <oscillator_strength_3>
0.0265

>  <oscillator_strength_4>
0.0153

>  <open_babel_can_smiles>
CCC#C[C@](CCC)(CC)N

>  <mulliken_charges>
30
1   -0.435107
2   -0.444688
3   -0.452207
4   -0.389124
5   -0.247308
6   -0.248712
7   -0.007048
8   -0.243973
9   0.100012
10   0.038038
11   -0.710188
12   0.145678
13   0.155907
14   0.158709
15   0.140671
16   0.136534
17   0.136255
18   0.144779
19   0.158046
20   0.128355
21   0.164233
22   0.168728
23   0.138995
24   0.157379
25   0.137672
26   0.122942
27   0.119174
28   0.131725
29   0.291014
30   0.30351

>  <lowdin_charges>
30
1   -0.435862
2   -0.445495
3   -0.451772
4   -0.257245
5   -0.277179
6   -0.280533
7   -0.087037
8   -0.269154
9   -0.080709
10   0.071987
11   -0.538517
12   0.150847
13   0.155832
14   0.155376
15   0.149377
16   0.143285
17   0.143228
18   0.153283
19   0.156238
20   0.139691
21   0.161117
22   0.165338
23   0.146788
24   0.154327
25   0.14767
26   0.137246
27   0.136237
28   0.144821
29   0.250834
30   0.259977

$$$$

