PCCDB-ID:  47844
public computational chemistry database (PCCDB) project, http://pccdb.org

 38 38  0  0  1  0  0  0  0  0999 V2000
    6.6624    3.6871    1.8810 C   0  0  0  0  0  0  0  0  0  0  0  0
    9.1130    0.2837   -3.1332 C   0  0  0  0  0  0  0  0  0  0  0  0
    7.6690   -2.6229    0.1130 C   0  0  0  0  0  0  0  0  0  0  0  0
    6.0111   -3.7573   -1.4410 C   0  0  0  0  0  0  0  0  0  0  0  0
    6.1311    2.1443   -0.0641 C   0  0  0  0  0  0  0  0  0  0  0  0
    6.2317    1.2029    2.1384 C   0  0  0  0  0  0  0  0  0  0  0  0
    5.8176    0.8900   -0.5883 C   0  0  0  0  0  0  0  0  0  0  0  0
    5.9182   -0.0508    1.6153 C   0  0  0  0  0  0  0  0  0  0  0  0
    5.3688   -1.5966   -0.3246 C   0  0  0  0  0  0  0  0  0  0  0  0
    6.3448    2.3253    1.3079 C   0  0  0  0  0  0  0  0  0  0  0  0
    8.3813   -0.8697   -3.8394 C   0  0  2  0  0  0  0  0  0  0  0  0
    5.7103   -0.2339    0.2413 C   0  0  0  0  0  0  0  0  0  0  0  0
    8.0507   -1.9669   -2.8132 C   0  0  0  0  0  0  0  0  0  0  0  0
    6.5446   -2.4234   -0.9059 C   0  0  0  0  0  0  0  0  0  0  0  0
    9.1816   -1.3590   -4.9574 N   0  0  0  0  0  0  0  0  0  0  0  0
    8.6684   -3.0100   -2.7285 O   0  0  0  0  0  0  0  0  0  0  0  0
    7.0191   -1.5963   -2.0309 O   0  0  0  0  0  0  0  0  0  0  0  0
    6.9229    4.4015    1.0935 H   0  0  0  0  0  0  0  0  0  0  0  0
    7.5022    3.6409    2.5843 H   0  0  0  0  0  0  0  0  0  0  0  0
    5.8060    4.1001    2.4302 H   0  0  0  0  0  0  0  0  0  0  0  0
    8.5084    0.6980   -2.3213 H   0  0  0  0  0  0  0  0  0  0  0  0
    9.3345    1.0694   -3.8609 H   0  0  0  0  0  0  0  0  0  0  0  0
   10.0624   -0.0678   -2.7108 H   0  0  0  0  0  0  0  0  0  0  0  0
    7.2762   -3.1460    0.9927 H   0  0  0  0  0  0  0  0  0  0  0  0
    8.0695   -1.6599    0.4416 H   0  0  0  0  0  0  0  0  0  0  0  0
    8.4765   -3.2195   -0.3138 H   0  0  0  0  0  0  0  0  0  0  0  0
    5.5585   -4.3291   -0.6231 H   0  0  0  0  0  0  0  0  0  0  0  0
    6.8150   -4.3511   -1.8788 H   0  0  0  0  0  0  0  0  0  0  0  0
    5.2420   -3.5853   -2.2022 H   0  0  0  0  0  0  0  0  0  0  0  0
    6.2059    2.9991   -0.7329 H   0  0  0  0  0  0  0  0  0  0  0  0
    6.3873    1.3110    3.2099 H   0  0  0  0  0  0  0  0  0  0  0  0
    5.6531    0.7806   -1.6565 H   0  0  0  0  0  0  0  0  0  0  0  0
    5.8287   -0.9011    2.2884 H   0  0  0  0  0  0  0  0  0  0  0  0
    4.6233   -1.4879   -1.1216 H   0  0  0  0  0  0  0  0  0  0  0  0
    4.9058   -2.2108    0.4574 H   0  0  0  0  0  0  0  0  0  0  0  0
    7.4320   -0.4889   -4.2342 H   0  0  0  0  0  0  0  0  0  0  0  0
    9.9889   -1.8528   -4.5746 H   0  0  0  0  0  0  0  0  0  0  0  0
    8.6557   -2.0759   -5.4572 H   0  0  0  0  0  0  0  0  0  0  0  0
  1 20  1  0  0  0  0
  1 19  1  0  0  0  0
  2 23  1  0  0  0  0
  2 21  1  0  0  0  0
  3 25  1  0  0  0  0
  3 24  1  0  0  0  0
  4 14  1  0  0  0  0
  4 27  1  0  0  0  0
  5 10  1  0  0  0  0
  6 31  1  0  0  0  0
  7  5  2  0  0  0  0
  7 12  1  0  0  0  0
  8  6  1  0  0  0  0
  8 33  1  0  0  0  0
  9 12  1  0  0  0  0
  9 35  1  0  0  0  0
 10  1  1  0  0  0  0
 10  6  2  0  0  0  0
 11 36  1  6  0  0  0
 11  2  1  0  0  0  0
 11 13  1  0  0  0  0
 12  8  2  0  0  0  0
 13 16  2  0  0  0  0
 13 17  1  0  0  0  0
 14  9  1  0  0  0  0
 14  3  1  0  0  0  0
 15 37  1  0  0  0  0
 15 11  1  0  0  0  0
 17 14  1  0  0  0  0
 18  1  1  0  0  0  0
 22  2  1  0  0  0  0
 26  3  1  0  0  0  0
 28  4  1  0  0  0  0
 29  4  1  0  0  0  0
 30  5  1  0  0  0  0
 32  7  1  0  0  0  0
 34  9  1  0  0  0  0
 38 15  1  0  0  0  0
M  END
>  <HBA>
3

>  <HBD>
1

>  <TPSA>
52.32

>  <cid>
47844

>  <dipole>
2.27

>  <excitation_energy_1>
5.173

>  <excitation_energy_2>
5.499

>  <excitation_energy_3>
5.65

>  <excitation_energy_4>
5.792

>  <homo_energy>
-6.319

>  <homo_lumo_gap>
6.27

>  <logP>
2.907

>  <lumo_energy>
-0.049

>  <melting_point>
85.72

>  <molecular_refractivity>
69.25

>  <oscillator_strength_1>
0.0016

>  <oscillator_strength_2>
0.0034

>  <oscillator_strength_3>
0.091

>  <oscillator_strength_4>
0.0109

>  <open_babel_can_smiles>
O=C([C@H](N)C)OC(Cc1ccc(cc1)C)(C)C

>  <mulliken_charges>
38
1   -0.530321
2   -0.449056
3   -0.477208
4   -0.46839
5   -0.18689
6   -0.17746
7   -0.169151
8   -0.18363
9   -0.368793
10   0.177943
11   -0.064363
12   0.169064
13   0.614067
14   0.317783
15   -0.689334
16   -0.492167
17   -0.497304
18   0.155462
19   0.159637
20   0.164312
21   0.1669
22   0.166639
23   0.147907
24   0.140152
25   0.165203
26   0.184732
27   0.144135
28   0.187028
29   0.146436
30   0.121813
31   0.12104
32   0.130873
33   0.121116
34   0.150947
35   0.14396
36   0.153857
37   0.304502
38   0.298558

>  <lowdin_charges>
38
1   -0.444342
2   -0.445469
3   -0.461931
4   -0.458953
5   -0.171165
6   -0.16464
7   -0.158429
8   -0.166814
9   -0.278788
10   -0.000346
11   -0.091721
12   -0.010049
13   0.181407
14   0.143259
15   -0.536822
16   -0.279184
17   -0.19365
18   0.157835
19   0.159871
20   0.162093
21   0.163065
22   0.163947
23   0.151769
24   0.15439
25   0.162982
26   0.172914
27   0.156142
28   0.1739
29   0.153798
30   0.154853
31   0.152193
32   0.156701
33   0.153655
34   0.157612
35   0.155786
36   0.155729
37   0.260414
38   0.257989

$$$$

