PCCDB-ID:  26613
public computational chemistry database (PCCDB) project, http://pccdb.org

 27 26  0  0  1  0  0  0  0  0999 V2000
    3.5584   -1.8724    0.2121 C   0  0  0  0  0  0  0  0  0  0  0  0
    2.8796   -0.5807    0.6829 C   0  0  0  0  0  0  0  0  0  0  0  0
    3.8465    0.4927    1.2104 C   0  0  0  0  0  0  0  0  0  0  0  0
    4.8015    1.0661    0.1549 C   0  0  0  0  0  0  0  0  0  0  0  0
    5.7076    2.1715    0.7141 C   0  0  0  0  0  0  0  0  0  0  0  0
    7.5334    3.8994    0.2643 C   0  0  0  0  0  0  0  0  0  0  0  0
    6.6915    2.7463   -0.3060 C   0  0  1  0  0  0  0  0  0  0  0  0
    8.4692    4.5998   -0.7299 C   0  0  0  0  0  0  0  0  0  0  0  0
    7.5542    1.7117   -0.8412 O   0  0  0  0  0  0  0  0  0  0  0  0
    8.7016    5.7836   -0.6751 O   0  0  0  0  0  0  0  0  0  0  0  0
    9.0482    3.8087   -1.6548 O   0  0  0  0  0  0  0  0  0  0  0  0
    2.8152   -2.6148   -0.1002 H   0  0  0  0  0  0  0  0  0  0  0  0
    4.1560   -2.3192    1.0169 H   0  0  0  0  0  0  0  0  0  0  0  0
    4.2253   -1.6997   -0.6397 H   0  0  0  0  0  0  0  0  0  0  0  0
    2.1635   -0.8243    1.4790 H   0  0  0  0  0  0  0  0  0  0  0  0
    2.2859   -0.1582   -0.1404 H   0  0  0  0  0  0  0  0  0  0  0  0
    4.4343    0.0713    2.0402 H   0  0  0  0  0  0  0  0  0  0  0  0
    3.2590    1.3162    1.6411 H   0  0  0  0  0  0  0  0  0  0  0  0
    4.2162    1.4715   -0.6837 H   0  0  0  0  0  0  0  0  0  0  0  0
    5.4270    0.2716   -0.2677 H   0  0  0  0  0  0  0  0  0  0  0  0
    6.2781    1.7901    1.5772 H   0  0  0  0  0  0  0  0  0  0  0  0
    5.0934    2.9959    1.1012 H   0  0  0  0  0  0  0  0  0  0  0  0
    8.1491    3.5166    1.0931 H   0  0  0  0  0  0  0  0  0  0  0  0
    6.8877    4.6734    0.6877 H   0  0  0  0  0  0  0  0  0  0  0  0
    6.1394    3.0980   -1.1852 H   0  0  0  0  0  0  0  0  0  0  0  0
    7.9694    1.2565   -0.0885 H   0  0  0  0  0  0  0  0  0  0  0  0
    8.7064    2.8897   -1.5528 H   0  0  0  0  0  0  0  0  0  0  0  0
  1  2  1  0  0  0  0
  1 13  1  0  0  0  0
  2  3  1  0  0  0  0
  2 15  1  0  0  0  0
  3 18  1  0  0  0  0
  3 17  1  0  0  0  0
  4  5  1  0  0  0  0
  4  3  1  0  0  0  0
  5 22  1  0  0  0  0
  5 21  1  0  0  0  0
  6 24  1  0  0  0  0
  6 23  1  0  0  0  0
  7 25  1  6  0  0  0
  7  6  1  0  0  0  0
  7  5  1  0  0  0  0
  8 10  2  0  0  0  0
  8  6  1  0  0  0  0
  9  7  1  0  0  0  0
  9 26  1  0  0  0  0
 11 27  1  0  0  0  0
 11  8  1  0  0  0  0
 12  1  1  0  0  0  0
 14  1  1  0  0  0  0
 16  2  1  0  0  0  0
 19  4  1  0  0  0  0
 20  4  1  0  0  0  0
M  END
>  <HBA>
3

>  <HBD>
2

>  <TPSA>
57.53

>  <cid>
26613

>  <dipole>
5.89

>  <excitation_energy_1>
5.581

>  <excitation_energy_2>
6.378

>  <excitation_energy_3>
6.92

>  <excitation_energy_4>
7.093

>  <homo_energy>
-6.961

>  <homo_lumo_gap>
7.459

>  <logP>
1.402

>  <lumo_energy>
0.498

>  <melting_point>
67.89

>  <molecular_refractivity>
43.5

>  <oscillator_strength_1>
0.0011

>  <oscillator_strength_2>
0.0052

>  <oscillator_strength_3>
0.0053

>  <oscillator_strength_4>
0.0081

>  <open_babel_can_smiles>
CCCCC[C@@H](CC(=O)O)O

>  <mulliken_charges>
27
1   -0.445727
2   -0.249772
3   -0.251991
4   -0.255842
5   -0.281091
6   -0.39241
7   0.100675
8   0.592475
9   -0.631866
10   -0.454279
11   -0.58853
12   0.146845
13   0.140295
14   0.148312
15   0.134932
16   0.13333
17   0.126323
18   0.130692
19   0.135655
20   0.147885
21   0.124723
22   0.14864
23   0.161196
24   0.181695
25   0.164593
26   0.400237
27   0.433007

>  <lowdin_charges>
27
1   -0.450247
2   -0.274479
3   -0.277485
4   -0.280704
5   -0.289294
6   -0.335378
7   -0.005986
8   0.182753
9   -0.457287
10   -0.251723
11   -0.367259
12   0.153355
13   0.146756
14   0.148604
15   0.144921
16   0.141563
17   0.137932
18   0.142313
19   0.143952
20   0.148533
21   0.138667
22   0.15519
23   0.164574
24   0.179346
25   0.156077
26   0.349271
27   0.356036

$$$$

