PCCDB-ID:  22213
public computational chemistry database (PCCDB) project, http://pccdb.org

 29 29  0  0  1  0  0  0  0  0999 V2000
    3.3396    1.5514   -1.7828 C   0  0  0  0  0  0  0  0  0  0  0  0
    4.5400    0.7575   -1.2575 C   0  0  0  0  0  0  0  0  0  0  0  0
    4.2550    0.0374    0.0666 C   0  0  0  0  0  0  0  0  0  0  0  0
    5.4558   -0.7501    0.6066 C   0  0  0  0  0  0  0  0  0  0  0  0
    5.1560   -1.4817    1.9210 C   0  0  0  0  0  0  0  0  0  0  0  0
    6.3610   -2.2379    2.4655 C   0  0  0  0  0  0  0  0  0  0  0  0
    7.0279   -3.6532    4.2381 C   0  0  0  0  0  0  0  0  0  0  0  0
    6.6457   -3.8905    6.8007 C   0  0  0  0  0  0  0  0  0  0  0  0
    6.4732   -4.3919    5.4322 C   0  0  2  0  0  0  0  0  0  0  0  0
    5.9789   -2.9039    3.6587 O   0  0  0  0  0  0  0  0  0  0  0  0
    7.4531   -4.9677    6.3036 O   0  0  0  0  0  0  0  0  0  0  0  0
    3.5722    2.0489   -2.7313 H   0  0  0  0  0  0  0  0  0  0  0  0
    3.0316    2.3244   -1.0679 H   0  0  0  0  0  0  0  0  0  0  0  0
    2.4757    0.8971   -1.9530 H   0  0  0  0  0  0  0  0  0  0  0  0
    5.3972    1.4332   -1.1257 H   0  0  0  0  0  0  0  0  0  0  0  0
    4.8490    0.0195   -2.0114 H   0  0  0  0  0  0  0  0  0  0  0  0
    3.4037   -0.6462   -0.0685 H   0  0  0  0  0  0  0  0  0  0  0  0
    3.9356    0.7737    0.8190 H   0  0  0  0  0  0  0  0  0  0  0  0
    6.3029   -0.0634    0.7522 H   0  0  0  0  0  0  0  0  0  0  0  0
    5.7816   -1.4780   -0.1512 H   0  0  0  0  0  0  0  0  0  0  0  0
    4.3344   -2.1953    1.7759 H   0  0  0  0  0  0  0  0  0  0  0  0
    4.8183   -0.7664    2.6824 H   0  0  0  0  0  0  0  0  0  0  0  0
    7.1940   -1.5423    2.6688 H   0  0  0  0  0  0  0  0  0  0  0  0
    6.7261   -2.9703    1.7240 H   0  0  0  0  0  0  0  0  0  0  0  0
    7.4376   -4.3783    3.5134 H   0  0  0  0  0  0  0  0  0  0  0  0
    7.8613   -3.0050    4.5572 H   0  0  0  0  0  0  0  0  0  0  0  0
    5.9259   -4.1634    7.5726 H   0  0  0  0  0  0  0  0  0  0  0  0
    7.1725   -2.9501    6.9660 H   0  0  0  0  0  0  0  0  0  0  0  0
    5.6163   -5.0332    5.2177 H   0  0  0  0  0  0  0  0  0  0  0  0
  1  2  1  0  0  0  0
  1 13  1  0  0  0  0
  2 15  1  0  0  0  0
  2  3  1  0  0  0  0
  3  4  1  0  0  0  0
  3 18  1  0  0  0  0
  4 19  1  0  0  0  0
  4  5  1  0  0  0  0
  5  6  1  0  0  0  0
  5 22  1  0  0  0  0
  6 23  1  0  0  0  0
  6 10  1  0  0  0  0
  7 26  1  0  0  0  0
  7  9  1  0  0  0  0
  8 28  1  0  0  0  0
  8 27  1  0  0  0  0
  9 29  1  6  0  0  0
  9 11  1  0  0  0  0
  9  8  1  0  0  0  0
 10  7  1  0  0  0  0
 11  8  1  0  0  0  0
 12  1  1  0  0  0  0
 14  1  1  0  0  0  0
 16  2  1  0  0  0  0
 17  3  1  0  0  0  0
 20  4  1  0  0  0  0
 21  5  1  0  0  0  0
 24  6  1  0  0  0  0
 25  7  1  0  0  0  0
M  END
>  <HBA>
2

>  <HBD>
0

>  <TPSA>
21.76

>  <cid>
22213

>  <dipole>
1.86

>  <excitation_energy_1>
6.696

>  <excitation_energy_2>
6.979

>  <excitation_energy_3>
7.111

>  <excitation_energy_4>
7.135

>  <homo_energy>
-7.007

>  <homo_lumo_gap>
9.244

>  <logP>
1.982

>  <lumo_energy>
2.237

>  <melting_point>
-23.88

>  <molecular_refractivity>
45.43

>  <oscillator_strength_1>
0.0176

>  <oscillator_strength_2>
0.0154

>  <oscillator_strength_3>
0.0165

>  <oscillator_strength_4>
0.0158

>  <open_babel_can_smiles>
CCCCCCOC[C@@H]1CO1

>  <mulliken_charges>
29
1   -0.441795
2   -0.247726
3   -0.244739
4   -0.263226
5   -0.273127
6   -0.001513
7   -0.026435
8   -0.103311
9   0.091676
10   -0.48375
11   -0.448081
12   0.142437
13   0.14195
14   0.14203
15   0.130462
16   0.130677
17   0.129396
18   0.129131
19   0.129727
20   0.1303
21   0.144478
22   0.143804
23   0.117554
24   0.117931
25   0.130023
26   0.12667
27   0.152518
28   0.150918
29   0.152018

>  <lowdin_charges>
29
1   -0.445578
2   -0.273885
3   -0.274831
4   -0.2761
5   -0.281557
6   -0.128967
7   -0.135367
8   -0.162281
9   -0.025508
10   -0.273046
11   -0.285564
12   0.149635
13   0.147447
14   0.147076
15   0.139304
16   0.139964
17   0.139294
18   0.139686
19   0.139005
20   0.139858
21   0.148706
22   0.148734
23   0.125355
24   0.126304
25   0.135149
26   0.134342
27   0.155991
28   0.152796
29   0.154038

$$$$

