PCCDB-ID:  62472
public computational chemistry database (PCCDB) project, http://pccdb.org

 10  9  0  0  0  0  0  0  0  0999 V2000
    0.9240   -0.0469   -0.1074 C   0  0  0  0  0  0  0  0  0  0  0  0
    2.4461   -0.0445   -0.0781 C   0  0  0  0  0  0  0  0  0  0  0  0
    4.2877   -1.2454    0.6330 O   0  0  0  0  0  0  0  0  0  0  0  0
    2.8368   -1.2749    0.5258 O   0  0  0  0  0  0  0  0  0  0  0  0
    0.5615    0.8811   -0.5624 H   0  0  0  0  0  0  0  0  0  0  0  0
    0.5174   -0.1192    0.9060 H   0  0  0  0  0  0  0  0  0  0  0  0
    0.5447   -0.8899   -0.6939 H   0  0  0  0  0  0  0  0  0  0  0  0
    2.8324    0.7954    0.5137 H   0  0  0  0  0  0  0  0  0  0  0  0
    2.8659    0.0276   -1.0923 H   0  0  0  0  0  0  0  0  0  0  0  0
    4.5169   -1.9449   -0.0053 H   0  0  0  0  0  0  0  0  0  0  0  0
  1  2  1  0  0  0  0
  1  6  1  0  0  0  0
  2  8  1  0  0  0  0
  2  4  1  0  0  0  0
  4  3  1  0  0  0  0
  5  1  1  0  0  0  0
  7  1  1  0  0  0  0
  9  2  1  0  0  0  0
 10  3  1  0  0  0  0
M  END
>  <HBA>
2

>  <HBD>
1

>  <TPSA>
29.46

>  <cid>
62472

>  <dipole>
1.81

>  <excitation_energy_1>
5.643

>  <excitation_energy_2>
6.64

>  <excitation_energy_3>
6.747

>  <excitation_energy_4>
7.302

>  <homo_energy>
-6.996

>  <homo_lumo_gap>
7.832

>  <logP>
0.496

>  <lumo_energy>
0.835

>  <melting_point>
5.61

>  <molecular_refractivity>
14.38

>  <oscillator_strength_1>
0.0009

>  <oscillator_strength_2>
0.013

>  <oscillator_strength_3>
0.0074

>  <oscillator_strength_4>
0.002

>  <open_babel_can_smiles>
CCOO

>  <mulliken_charges>
10
1   -0.471812
2   0.016312
3   -0.407359
4   -0.297399
5   0.154381
6   0.167773
7   0.160881
8   0.14401
9   0.123089
10   0.410125

>  <lowdin_charges>
10
1   -0.451673
2   -0.131525
3   -0.345344
4   -0.171372
5   0.161306
6   0.160917
7   0.158743
8   0.141391
9   0.127952
10   0.349605

$$$$

