PCCDB-ID:  40175
public computational chemistry database (PCCDB) project, http://pccdb.org

 28 28  0  0  1  0  0  0  0  0999 V2000
    3.1485   -1.6267    0.4309 C   0  0  0  0  0  0  0  0  0  0  0  0
   -1.1956    0.3070   -1.8413 C   0  0  0  0  0  0  0  0  0  0  0  0
   -2.4096    0.5418   -2.4957 C   0  0  0  0  0  0  0  0  0  0  0  0
    1.0130   -0.9053   -1.6081 C   0  0  0  0  0  0  0  0  0  0  0  0
   -0.6536   -1.3695   -3.4763 C   0  0  0  0  0  0  0  0  0  0  0  0
   -0.3012   -0.6510   -2.3224 C   0  0  0  0  0  0  0  0  0  0  0  0
    1.0573   -2.2270   -0.7918 C   0  0  1  0  0  0  0  0  0  0  0  0
   -2.7543   -0.1720   -3.6401 C   0  0  0  0  0  0  0  0  0  0  0  0
   -1.8593   -1.1429   -4.1333 C   0  0  0  0  0  0  0  0  0  0  0  0
    1.5897   -3.4279   -1.6095 C   0  0  0  0  0  0  0  0  0  0  0  0
    1.7993   -2.2028    0.4850 N   0  0  0  0  0  0  0  0  0  0  0  0
   -3.9222    0.0121   -4.3272 O   0  0  0  0  0  0  0  0  0  0  0  0
   -2.2343   -1.8218   -5.2579 O   0  0  0  0  0  0  0  0  0  0  0  0
    1.5714   -3.5008   -2.8172 O   0  0  0  0  0  0  0  0  0  0  0  0
    2.0568   -4.4208   -0.8357 O   0  0  0  0  0  0  0  0  0  0  0  0
    3.6002   -1.6959    1.4249 H   0  0  0  0  0  0  0  0  0  0  0  0
    3.1791   -0.5764    0.1069 H   0  0  0  0  0  0  0  0  0  0  0  0
    3.7638   -2.2145   -0.2585 H   0  0  0  0  0  0  0  0  0  0  0  0
   -0.9502    0.8877   -0.9553 H   0  0  0  0  0  0  0  0  0  0  0  0
   -3.0966    1.2957   -2.1141 H   0  0  0  0  0  0  0  0  0  0  0  0
    1.1850   -0.0782   -0.9089 H   0  0  0  0  0  0  0  0  0  0  0  0
    1.8429   -0.8954   -2.3233 H   0  0  0  0  0  0  0  0  0  0  0  0
    0.0274   -2.1283   -3.8540 H   0  0  0  0  0  0  0  0  0  0  0  0
    0.0259   -2.4955   -0.5259 H   0  0  0  0  0  0  0  0  0  0  0  0
    1.2466   -1.7289    1.1948 H   0  0  0  0  0  0  0  0  0  0  0  0
   -4.4331    0.7046   -3.8802 H   0  0  0  0  0  0  0  0  0  0  0  0
   -1.5321   -2.4547   -5.4762 H   0  0  0  0  0  0  0  0  0  0  0  0
    2.0262   -4.0544    0.0842 H   0  0  0  0  0  0  0  0  0  0  0  0
  1 11  1  0  0  0  0
  1 16  1  0  0  0  0
  2 19  1  0  0  0  0
  3 20  1  0  0  0  0
  3  2  2  0  0  0  0
  4 21  1  0  0  0  0
  4  7  1  0  0  0  0
  5  6  2  0  0  0  0
  6  2  1  0  0  0  0
  6  4  1  0  0  0  0
  7 24  1  1  0  0  0
  7 11  1  0  0  0  0
  8  3  1  0  0  0  0
  9  8  2  0  0  0  0
  9  5  1  0  0  0  0
 10 15  1  0  0  0  0
 10  7  1  0  0  0  0
 11 25  1  0  0  0  0
 12 26  1  0  0  0  0
 12  8  1  0  0  0  0
 13  9  1  0  0  0  0
 14 10  2  0  0  0  0
 15 28  1  0  0  0  0
 17  1  1  0  0  0  0
 18  1  1  0  0  0  0
 22  4  1  0  0  0  0
 23  5  1  0  0  0  0
 27 13  1  0  0  0  0
M  END
>  <HBA>
5

>  <HBD>
4

>  <TPSA>
89.79

>  <cid>
40175

>  <dipole>
5.72

>  <excitation_energy_1>
4.56

>  <excitation_energy_2>
4.803

>  <excitation_energy_3>
4.843

>  <excitation_energy_4>
5.147

>  <homo_energy>
-5.45

>  <homo_lumo_gap>
5.616

>  <logP>
0.704

>  <lumo_energy>
0.166

>  <melting_point>
191.45

>  <molecular_refractivity>
54.45

>  <oscillator_strength_1>
0.0079

>  <oscillator_strength_2>
0.0529

>  <oscillator_strength_3>
0.0034

>  <oscillator_strength_4>
0.0106

>  <open_babel_can_smiles>
CN[C@H](C(=O)O)Cc1ccc(c(c1)O)O

>  <mulliken_charges>
28
1   -0.317714
2   -0.203317
3   -0.197012
4   -0.362145
5   -0.268743
6   0.139884
7   -0.077513
8   0.318915
9   0.32909
10   0.613245
11   -0.60651
12   -0.632229
13   -0.63568
14   -0.462283
15   -0.57952
16   0.163756
17   0.153045
18   0.17387
19   0.110717
20   0.114938
21   0.139626
22   0.171241
23   0.166813
24   0.183469
25   0.317593
26   0.405395
27   0.411702
28   0.42937

>  <lowdin_charges>
28
1   -0.366576
2   -0.187254
3   -0.210412
4   -0.280973
5   -0.218664
6   -0.018943
7   -0.11031
8   0.075607
9   0.080223
10   0.176993
11   -0.365152
12   -0.371753
13   -0.370579
14   -0.255474
15   -0.350818
16   0.159131
17   0.138986
18   0.161077
19   0.1501
20   0.153384
21   0.150722
22   0.165614
23   0.175893
24   0.171408
25   0.268488
26   0.358477
27   0.36181
28   0.358998

$$$$

