PCCDB-ID:  7600
public computational chemistry database (PCCDB) project, http://pccdb.org

 33 33  0  0  0  0  0  0  0  0999 V2000
    2.0780   -2.3570   -0.8053 C   0  0  0  0  0  0  0  0  0  0  0  0
    2.1169   -4.5296    0.4828 C   0  0  0  0  0  0  0  0  0  0  0  0
    9.0670   -3.9856   -6.9869 C   0  0  0  0  0  0  0  0  0  0  0  0
    9.2018   -2.7540   -6.3434 C   0  0  0  0  0  0  0  0  0  0  0  0
    8.6233   -5.0953   -6.2663 C   0  0  0  0  0  0  0  0  0  0  0  0
    8.8952   -2.6362   -4.9880 C   0  0  0  0  0  0  0  0  0  0  0  0
    8.3158   -4.9717   -4.9108 C   0  0  0  0  0  0  0  0  0  0  0  0
    4.2615   -3.6668   -0.5325 C   0  0  0  0  0  0  0  0  0  0  0  0
    5.2004   -2.4870   -0.7692 C   0  0  0  0  0  0  0  0  0  0  0  0
    8.1093   -3.6067   -2.7903 C   0  0  0  0  0  0  0  0  0  0  0  0
    2.9137   -3.2720    0.1045 C   0  0  0  0  0  0  0  0  0  0  0  0
    8.4469   -3.7421   -4.2558 C   0  0  0  0  0  0  0  0  0  0  0  0
    6.6846   -3.1268   -2.5239 C   0  0  0  0  0  0  0  0  0  0  0  0
    5.8285   -2.9389   -3.3578 O   0  0  0  0  0  0  0  0  0  0  0  0
    6.5098   -2.9372   -1.1943 O   0  0  0  0  0  0  0  0  0  0  0  0
    1.1154   -2.1189   -0.3377 H   0  0  0  0  0  0  0  0  0  0  0  0
    1.8710   -2.8463   -1.7656 H   0  0  0  0  0  0  0  0  0  0  0  0
    2.5825   -1.4083   -1.0186 H   0  0  0  0  0  0  0  0  0  0  0  0
    1.1780   -4.2662    0.9837 H   0  0  0  0  0  0  0  0  0  0  0  0
    2.6880   -5.1784    1.1573 H   0  0  0  0  0  0  0  0  0  0  0  0
    1.8639   -5.1158   -0.4100 H   0  0  0  0  0  0  0  0  0  0  0  0
    9.3086   -4.0802   -8.0423 H   0  0  0  0  0  0  0  0  0  0  0  0
    9.5481   -1.8846   -6.8962 H   0  0  0  0  0  0  0  0  0  0  0  0
    8.5176   -6.0587   -6.7581 H   0  0  0  0  0  0  0  0  0  0  0  0
    9.0025   -1.6737   -4.4926 H   0  0  0  0  0  0  0  0  0  0  0  0
    7.9700   -5.8405   -4.3550 H   0  0  0  0  0  0  0  0  0  0  0  0
    4.7748   -4.3842    0.1214 H   0  0  0  0  0  0  0  0  0  0  0  0
    4.0817   -4.1736   -1.4894 H   0  0  0  0  0  0  0  0  0  0  0  0
    5.3887   -1.9409    0.1600 H   0  0  0  0  0  0  0  0  0  0  0  0
    4.8086   -1.7998   -1.5217 H   0  0  0  0  0  0  0  0  0  0  0  0
    8.7886   -2.9080   -2.2872 H   0  0  0  0  0  0  0  0  0  0  0  0
    8.2295   -4.5640   -2.2677 H   0  0  0  0  0  0  0  0  0  0  0  0
    3.1296   -2.7214    1.0339 H   0  0  0  0  0  0  0  0  0  0  0  0
  1 16  1  0  0  0  0
  1 11  1  0  0  0  0
  2 19  1  0  0  0  0
  2 20  1  0  0  0  0
  3  4  2  0  0  0  0
  3  5  1  0  0  0  0
  4  6  1  0  0  0  0
  5  7  2  0  0  0  0
  6 25  1  0  0  0  0
  6 12  2  0  0  0  0
  7 26  1  0  0  0  0
  7 12  1  0  0  0  0
  8 11  1  0  0  0  0
  8 27  1  0  0  0  0
  9  8  1  0  0  0  0
  9 29  1  0  0  0  0
 10 13  1  0  0  0  0
 10 31  1  0  0  0  0
 10 32  1  0  0  0  0
 11  2  1  0  0  0  0
 11 33  1  0  0  0  0
 12 10  1  0  0  0  0
 13 15  1  0  0  0  0
 14 13  2  0  0  0  0
 15  9  1  0  0  0  0
 17  1  1  0  0  0  0
 18  1  1  0  0  0  0
 21  2  1  0  0  0  0
 22  3  1  0  0  0  0
 23  4  1  0  0  0  0
 24  5  1  0  0  0  0
 28  8  1  0  0  0  0
 30  9  1  0  0  0  0
M  END
>  <HBA>
2

>  <HBD>
0

>  <TPSA>
26.3

>  <cid>
7600

>  <dipole>
1.57

>  <excitation_energy_1>
5.296

>  <excitation_energy_2>
5.768

>  <excitation_energy_3>
5.87

>  <excitation_energy_4>
6.017

>  <homo_energy>
-6.539

>  <homo_lumo_gap>
6.566

>  <logP>
2.818

>  <lumo_energy>
0.027

>  <melting_point>
15.61

>  <molecular_refractivity>
61.53

>  <oscillator_strength_1>
0.0

>  <oscillator_strength_2>
0.0018

>  <oscillator_strength_3>
0.016

>  <oscillator_strength_4>
0.0073

>  <open_babel_can_smiles>
CC(CCOC(=O)Cc1ccccc1)C

>  <mulliken_charges>
33
1   -0.446095
2   -0.441769
3   -0.128348
4   -0.127964
5   -0.127075
6   -0.168156
7   -0.17355
8   -0.272844
9   -0.048889
10   -0.473267
11   -0.076429
12   0.201667
13   0.620259
14   -0.464097
15   -0.467045
16   0.142099
17   0.149568
18   0.144671
19   0.14201
20   0.140869
21   0.143365
22   0.128527
23   0.129289
24   0.129012
25   0.123912
26   0.123312
27   0.138619
28   0.155153
29   0.146761
30   0.171265
31   0.182012
32   0.182401
33   0.120759

>  <lowdin_charges>
33
1   -0.446672
2   -0.444838
3   -0.154887
4   -0.154378
5   -0.153873
6   -0.157914
7   -0.160591
8   -0.290183
9   -0.134584
10   -0.303145
11   -0.119542
12   0.005169
13   0.199636
14   -0.258979
15   -0.201262
16   0.149564
17   0.151071
18   0.14842
19   0.149151
20   0.149338
21   0.148448
22   0.155767
23   0.15848
24   0.157417
25   0.15484
26   0.155379
27   0.148129
28   0.153394
29   0.149765
30   0.160103
31   0.176799
32   0.175664
33   0.134314

$$$$

