PCCDB-ID:  8792
public computational chemistry database (PCCDB) project, http://pccdb.org

 33 33  0  0  0  0  0  0  0  0999 V2000
    1.1509    2.3447   -0.5657 C   0  0  0  0  0  0  0  0  0  0  0  0
    3.0683    1.1507   -1.7105 C   0  0  0  0  0  0  0  0  0  0  0  0
   11.6232    3.3097    1.9431 C   0  0  0  0  0  0  0  0  0  0  0  0
   10.7153    3.3273    3.0031 C   0  0  0  0  0  0  0  0  0  0  0  0
   11.1688    3.5351    0.6421 C   0  0  0  0  0  0  0  0  0  0  0  0
    9.3619    3.5680    2.7613 C   0  0  0  0  0  0  0  0  0  0  0  0
    9.8154    3.7763    0.4050 C   0  0  0  0  0  0  0  0  0  0  0  0
    7.4208    4.0197    1.1896 C   0  0  0  0  0  0  0  0  0  0  0  0
    6.7190    2.7099    0.8097 C   0  0  0  0  0  0  0  0  0  0  0  0
    3.4105    3.4663   -0.6988 C   0  0  0  0  0  0  0  0  0  0  0  0
    2.6679    2.1133   -0.5833 C   0  0  0  0  0  0  0  0  0  0  0  0
    8.8932    3.7964    1.4609 C   0  0  0  0  0  0  0  0  0  0  0  0
    4.9174    3.3346   -0.6206 C   0  0  0  0  0  0  0  0  0  0  0  0
    5.6918    3.5597   -1.5266 O   0  0  0  0  0  0  0  0  0  0  0  0
    5.3022    2.9082    0.6091 O   0  0  0  0  0  0  0  0  0  0  0  0
    0.6127    1.3965   -0.4525 H   0  0  0  0  0  0  0  0  0  0  0  0
    0.8125    2.8090   -1.5010 H   0  0  0  0  0  0  0  0  0  0  0  0
    0.8538    3.0009    0.2609 H   0  0  0  0  0  0  0  0  0  0  0  0
    2.5489    0.1914   -1.6046 H   0  0  0  0  0  0  0  0  0  0  0  0
    4.1454    0.9495   -1.7130 H   0  0  0  0  0  0  0  0  0  0  0  0
    2.8074    1.5665   -2.6920 H   0  0  0  0  0  0  0  0  0  0  0  0
   12.6779    3.1264    2.1298 H   0  0  0  0  0  0  0  0  0  0  0  0
   11.0606    3.1579    4.0198 H   0  0  0  0  0  0  0  0  0  0  0  0
   11.8695    3.5283   -0.1888 H   0  0  0  0  0  0  0  0  0  0  0  0
    8.6603    3.5864    3.5929 H   0  0  0  0  0  0  0  0  0  0  0  0
    9.4668    3.9563   -0.6097 H   0  0  0  0  0  0  0  0  0  0  0  0
    6.9261    4.4393    2.0734 H   0  0  0  0  0  0  0  0  0  0  0  0
    7.2891    4.7300    0.3666 H   0  0  0  0  0  0  0  0  0  0  0  0
    6.7886    1.9790    1.6192 H   0  0  0  0  0  0  0  0  0  0  0  0
    7.1548    2.2879   -0.0992 H   0  0  0  0  0  0  0  0  0  0  0  0
    3.0806    4.1289    0.1110 H   0  0  0  0  0  0  0  0  0  0  0  0
    3.1763    3.9487   -1.6531 H   0  0  0  0  0  0  0  0  0  0  0  0
    2.9582    1.6633    0.3752 H   0  0  0  0  0  0  0  0  0  0  0  0
  1 16  1  0  0  0  0
  1 18  1  0  0  0  0
  2 19  1  0  0  0  0
  2 11  1  0  0  0  0
  3 22  1  0  0  0  0
  3  4  2  0  0  0  0
  4 23  1  0  0  0  0
  5  3  1  0  0  0  0
  6  4  1  0  0  0  0
  6 25  1  0  0  0  0
  7  5  2  0  0  0  0
  7 12  1  0  0  0  0
  8 12  1  0  0  0  0
  8 27  1  0  0  0  0
  9  8  1  0  0  0  0
  9 29  1  0  0  0  0
 10 13  1  0  0  0  0
 10 11  1  0  0  0  0
 10 31  1  0  0  0  0
 11  1  1  0  0  0  0
 11 33  1  0  0  0  0
 12  6  2  0  0  0  0
 13 15  1  0  0  0  0
 14 13  2  0  0  0  0
 15  9  1  0  0  0  0
 17  1  1  0  0  0  0
 20  2  1  0  0  0  0
 21  2  1  0  0  0  0
 24  5  1  0  0  0  0
 26  7  1  0  0  0  0
 28  8  1  0  0  0  0
 30  9  1  0  0  0  0
 32 10  1  0  0  0  0
M  END
>  <HBA>
2

>  <HBD>
0

>  <TPSA>
26.3

>  <cid>
8792

>  <dipole>
1.73

>  <excitation_energy_1>
5.308

>  <excitation_energy_2>
5.679

>  <excitation_energy_3>
5.898

>  <excitation_energy_4>
6.08

>  <homo_energy>
-6.569

>  <homo_lumo_gap>
6.525

>  <logP>
2.818

>  <lumo_energy>
-0.044

>  <melting_point>
15.61

>  <molecular_refractivity>
61.53

>  <oscillator_strength_1>
0.0003

>  <oscillator_strength_2>
0.0024

>  <oscillator_strength_3>
0.0619

>  <oscillator_strength_4>
0.0029

>  <open_babel_can_smiles>
CC(CC(=O)OCCc1ccccc1)C

>  <mulliken_charges>
33
1   -0.443166
2   -0.448069
3   -0.1302
4   -0.127502
5   -0.127953
6   -0.181711
7   -0.181233
8   -0.36862
9   -0.039918
10   -0.328037
11   -0.081603
12   0.154143
13   0.606434
14   -0.482763
15   -0.460893
16   0.145843
17   0.14311
18   0.142486
19   0.143787
20   0.154577
21   0.145951
22   0.129219
23   0.129273
24   0.131149
25   0.123503
26   0.138894
27   0.15075
28   0.172477
29   0.154363
30   0.170502
31   0.158673
32   0.161052
33   0.145482

>  <lowdin_charges>
33
1   -0.445005
2   -0.444657
3   -0.157112
4   -0.154315
5   -0.155252
6   -0.169463
7   -0.163873
8   -0.286086
9   -0.131615
10   -0.298282
11   -0.116068
12   -0.003561
13   0.199658
14   -0.270588
15   -0.200777
16   0.151542
17   0.147891
18   0.14961
19   0.150477
20   0.152409
21   0.149309
22   0.156087
23   0.156632
24   0.159166
25   0.155162
26   0.160374
27   0.154271
28   0.165351
29   0.15438
30   0.159513
31   0.165703
32   0.162909
33   0.146209

$$$$

