PCCDB-ID:  51668
public computational chemistry database (PCCDB) project, http://pccdb.org

 28 29  0  0  0  0  0  0  0  0999 V2000
    2.8894    3.4352    0.3586 C   0  0  0  0  0  0  0  0  0  0  0  0
    4.2663    3.2389    0.9756 C   0  0  0  0  0  0  0  0  0  0  0  0
    6.3448   -3.5155   -0.9064 C   0  0  0  0  0  0  0  0  0  0  0  0
    7.1138   -4.3569   -1.6813 C   0  0  0  0  0  0  0  0  0  0  0  0
    5.6723   -1.1770   -0.2933 C   0  0  0  0  0  0  0  0  0  0  0  0
    8.1086   -2.4325   -2.8002 C   0  0  0  0  0  0  0  0  0  0  0  0
    6.4281   -2.1129   -1.0480 C   0  0  0  0  0  0  0  0  0  0  0  0
    8.0108   -3.8235   -2.6440 C   0  0  0  0  0  0  0  0  0  0  0  0
    5.7903    0.1756   -0.4676 C   0  0  0  0  0  0  0  0  0  0  0  0
    7.3251   -1.5993   -2.0106 C   0  0  0  0  0  0  0  0  0  0  0  0
    4.9271    1.0360    0.3939 C   0  0  0  0  0  0  0  0  0  0  0  0
    6.7298    0.7121   -1.4586 C   0  0  0  0  0  0  0  0  0  0  0  0
    8.7399   -4.6728   -3.4495 N   0  0  0  0  0  0  0  0  0  0  0  0
    4.1590    0.5688    1.2197 O   0  0  0  0  0  0  0  0  0  0  0  0
    6.9718    1.8584   -1.7328 O   0  0  0  0  0  0  0  0  0  0  0  0
    5.0796    2.3502    0.1740 O   0  0  0  0  0  0  0  0  0  0  0  0
    7.4512   -0.2618   -2.1919 O   0  0  0  0  0  0  0  0  0  0  0  0
    2.3258    4.1770    0.9364 H   0  0  0  0  0  0  0  0  0  0  0  0
    2.3280    2.4967    0.3639 H   0  0  0  0  0  0  0  0  0  0  0  0
    2.9747    3.7932   -0.6724 H   0  0  0  0  0  0  0  0  0  0  0  0
    4.1937    2.8363    1.9888 H   0  0  0  0  0  0  0  0  0  0  0  0
    4.8341    4.1720    0.9921 H   0  0  0  0  0  0  0  0  0  0  0  0
    5.6595   -3.9283   -0.1708 H   0  0  0  0  0  0  0  0  0  0  0  0
    7.0346   -5.4347   -1.5672 H   0  0  0  0  0  0  0  0  0  0  0  0
    4.9664   -1.5287    0.4547 H   0  0  0  0  0  0  0  0  0  0  0  0
    8.7814   -1.9920   -3.5292 H   0  0  0  0  0  0  0  0  0  0  0  0
    8.8689   -5.6220   -3.1278 H   0  0  0  0  0  0  0  0  0  0  0  0
    9.5449   -4.2883   -3.9246 H   0  0  0  0  0  0  0  0  0  0  0  0
  1 19  1  0  0  0  0
  1 18  1  0  0  0  0
  1  2  1  0  0  0  0
  2 22  1  0  0  0  0
  2 21  1  0  0  0  0
  3 23  1  0  0  0  0
  4 24  1  0  0  0  0
  4  3  2  0  0  0  0
  5 25  1  0  0  0  0
  6  8  2  0  0  0  0
  6 10  1  0  0  0  0
  7  3  1  0  0  0  0
  7  5  1  0  0  0  0
  8  4  1  0  0  0  0
  9  5  2  0  0  0  0
  9 11  1  0  0  0  0
 10  7  2  0  0  0  0
 11 14  2  0  0  0  0
 12  9  1  0  0  0  0
 13 27  1  0  0  0  0
 13  8  1  0  0  0  0
 15 12  2  0  0  0  0
 16 11  1  0  0  0  0
 16  2  1  0  0  0  0
 17 10  1  0  0  0  0
 17 12  1  0  0  0  0
 20  1  1  0  0  0  0
 26  6  1  0  0  0  0
 28 13  1  0  0  0  0
M  END
>  <HBA>
5

>  <HBD>
1

>  <TPSA>
82.53

>  <cid>
51668

>  <dipole>
5.99

>  <excitation_energy_1>
3.675

>  <excitation_energy_2>
4.12

>  <excitation_energy_3>
4.279

>  <excitation_energy_4>
4.372

>  <homo_energy>
-5.899

>  <homo_lumo_gap>
3.951

>  <logP>
2.133

>  <lumo_energy>
-1.948

>  <melting_point>
158.77

>  <molecular_refractivity>
62.97

>  <oscillator_strength_1>
0.56

>  <oscillator_strength_2>
0.0247

>  <oscillator_strength_3>
0.0001

>  <oscillator_strength_4>
0.0003

>  <open_babel_can_smiles>
CCOC(=O)c1cc2ccc(cc2oc1=O)N

>  <mulliken_charges>
28
1   -0.463635
2   -0.042284
3   -0.194506
4   -0.179998
5   -0.17338
6   -0.240077
7   0.126416
8   0.353413
9   -0.070221
10   0.333981
11   0.61886
12   0.562752
13   -0.795768
14   -0.510206
15   -0.437834
16   -0.449504
17   -0.531489
18   0.147239
19   0.17393
20   0.162685
21   0.167217
22   0.157203
23   0.14939
24   0.130975
25   0.184707
26   0.146434
27   0.335563
28   0.338139

>  <lowdin_charges>
28
1   -0.455358
2   -0.125822
3   -0.124509
4   -0.20533
5   -0.073609
6   -0.227674
7   -0.070431
8   0.089619
9   -0.113964
10   0.133315
11   0.200861
12   0.200516
13   -0.459989
14   -0.294538
15   -0.220245
16   -0.164883
17   -0.141293
18   0.158488
19   0.164178
20   0.157726
21   0.156228
22   0.155124
23   0.169147
24   0.158555
25   0.187743
26   0.173383
27   0.28513
28   0.287629

$$$$

