PCCDB-ID:  23089
public computational chemistry database (PCCDB) project, http://pccdb.org

 26 25  0  0  0  0  0  0  0  0999 V2000
    1.6974    0.1837    1.5178 C   0  0  0  0  0  0  0  0  0  0  0  0
    8.7029    3.7391   -2.9255 C   0  0  0  0  0  0  0  0  0  0  0  0
    2.8265    0.6116    0.5752 C   0  0  0  0  0  0  0  0  0  0  0  0
    8.2183    3.2801   -4.0835 C   0  0  0  0  0  0  0  0  0  0  0  0
    2.3112    1.0451   -0.8041 C   0  0  0  0  0  0  0  0  0  0  0  0
    6.5537    1.8774   -3.1268 C   0  0  0  0  0  0  0  0  0  0  0  0
    3.3968    1.5272   -1.7734 C   0  0  0  0  0  0  0  0  0  0  0  0
    5.4648    0.9285   -3.6128 C   0  0  0  0  0  0  0  0  0  0  0  0
    7.2089    2.3931   -4.2852 O   0  0  0  0  0  0  0  0  0  0  0  0
    4.5242    0.1458   -2.2508 S   0  0  0  0  0  0  0  0  0  0  0  0
    2.0882   -0.1158    2.4966 H   0  0  0  0  0  0  0  0  0  0  0  0
    1.1403   -0.6674    1.1074 H   0  0  0  0  0  0  0  0  0  0  0  0
    0.9824    1.0001    1.6798 H   0  0  0  0  0  0  0  0  0  0  0  0
    9.5195    4.4514   -2.9447 H   0  0  0  0  0  0  0  0  0  0  0  0
    8.3282    3.4385   -1.9541 H   0  0  0  0  0  0  0  0  0  0  0  0
    3.5407   -0.2136    0.4603 H   0  0  0  0  0  0  0  0  0  0  0  0
    3.3893    1.4414    1.0259 H   0  0  0  0  0  0  0  0  0  0  0  0
    8.6191    3.5984   -5.0423 H   0  0  0  0  0  0  0  0  0  0  0  0
    1.5951    1.8698   -0.6761 H   0  0  0  0  0  0  0  0  0  0  0  0
    1.7528    0.2208   -1.2676 H   0  0  0  0  0  0  0  0  0  0  0  0
    7.2735    1.3462   -2.4905 H   0  0  0  0  0  0  0  0  0  0  0  0
    6.1316    2.7068   -2.5428 H   0  0  0  0  0  0  0  0  0  0  0  0
    3.9765    2.3372   -1.3165 H   0  0  0  0  0  0  0  0  0  0  0  0
    2.9370    1.9132   -2.6902 H   0  0  0  0  0  0  0  0  0  0  0  0
    5.9182    0.1082   -4.1777 H   0  0  0  0  0  0  0  0  0  0  0  0
    4.7766    1.4505   -4.2862 H   0  0  0  0  0  0  0  0  0  0  0  0
  1 13  1  0  0  0  0
  1 11  1  0  0  0  0
  2 15  1  0  0  0  0
  3 17  1  0  0  0  0
  3  1  1  0  0  0  0
  4  2  2  0  0  0  0
  5 19  1  0  0  0  0
  5  3  1  0  0  0  0
  6 22  1  0  0  0  0
  6 21  1  0  0  0  0
  7 23  1  0  0  0  0
  7  5  1  0  0  0  0
  8  6  1  0  0  0  0
  8 10  1  0  0  0  0
  9  4  1  0  0  0  0
  9  6  1  0  0  0  0
 10  7  1  0  0  0  0
 12  1  1  0  0  0  0
 14  2  1  0  0  0  0
 16  3  1  0  0  0  0
 18  4  1  0  0  0  0
 20  5  1  0  0  0  0
 24  7  1  0  0  0  0
 25  8  1  0  0  0  0
 26  8  1  0  0  0  0
M  END
>  <HBA>
2

>  <HBD>
0

>  <TPSA>
34.53

>  <cid>
23089

>  <dipole>
1.45

>  <excitation_energy_1>
5.26

>  <excitation_energy_2>
5.581

>  <excitation_energy_3>
5.843

>  <excitation_energy_4>
5.932

>  <homo_energy>
-6.074

>  <homo_lumo_gap>
7.029

>  <logP>
2.68

>  <lumo_energy>
0.955

>  <melting_point>
-48.47

>  <molecular_refractivity>
48.77

>  <oscillator_strength_1>
0.0001

>  <oscillator_strength_2>
0.0129

>  <oscillator_strength_3>
0.0379

>  <oscillator_strength_4>
0.0187

>  <open_babel_can_smiles>
CCCCSCCOC=C

>  <mulliken_charges>
26
1   -0.443102
2   -0.401443
3   -0.252458
4   0.157564
5   -0.263714
6   -0.025395
7   -0.405118
8   -0.439328
9   -0.453293
10   0.084113
11   0.145804
12   0.145377
13   0.140847
14   0.142166
15   0.143146
16   0.158931
17   0.13195
18   0.142597
19   0.139841
20   0.151481
21   0.156582
22   0.144953
23   0.165978
24   0.165857
25   0.188231
26   0.178433

>  <lowdin_charges>
26
1   -0.445183
2   -0.428938
3   -0.276271
4   -0.035015
5   -0.27841
6   -0.137032
7   -0.372158
8   -0.383757
9   -0.201805
10   0.085242
11   0.151348
12   0.14916
13   0.146531
14   0.169087
15   0.161952
16   0.153069
17   0.141034
18   0.158679
19   0.147834
20   0.151178
21   0.1505
22   0.142917
23   0.152272
24   0.156498
25   0.176597
26   0.164672

$$$$

