PCCDB-ID:  16846
public computational chemistry database (PCCDB) project, http://pccdb.org

 24 24  0  0  0  0  0  0  0  0999 V2000
    5.0455    0.9595    3.5634 C   0  0  0  0  0  0  0  0  0  0  0  0
    4.1516   -0.1364    2.9724 C   0  0  0  0  0  0  0  0  0  0  0  0
    1.2796   -5.7913   -0.1947 C   0  0  0  0  0  0  0  0  0  0  0  0
    1.3080   -4.4667   -0.6378 C   0  0  0  0  0  0  0  0  0  0  0  0
    2.1200   -6.2000    0.8444 C   0  0  0  0  0  0  0  0  0  0  0  0
    2.1738   -3.5488   -0.0457 C   0  0  0  0  0  0  0  0  0  0  0  0
    2.9860   -5.2861    1.4390 C   0  0  0  0  0  0  0  0  0  0  0  0
    4.7880   -0.7902    1.7494 C   0  0  0  0  0  0  0  0  0  0  0  0
    3.0176   -3.9564    0.9972 C   0  0  0  0  0  0  0  0  0  0  0  0
    3.9636   -3.0223    1.6726 C   0  0  0  0  0  0  0  0  0  0  0  0
    4.7033   -3.3416    2.5843 O   0  0  0  0  0  0  0  0  0  0  0  0
    3.9116   -1.7729    1.1541 O   0  0  0  0  0  0  0  0  0  0  0  0
    4.5723    1.4174    4.4382 H   0  0  0  0  0  0  0  0  0  0  0  0
    5.2396    1.7566    2.8351 H   0  0  0  0  0  0  0  0  0  0  0  0
    6.0136    0.5555    3.8825 H   0  0  0  0  0  0  0  0  0  0  0  0
    3.1794    0.2826    2.6841 H   0  0  0  0  0  0  0  0  0  0  0  0
    3.9617   -0.9110    3.7234 H   0  0  0  0  0  0  0  0  0  0  0  0
    0.6029   -6.5044   -0.6580 H   0  0  0  0  0  0  0  0  0  0  0  0
    0.6549   -4.1488   -1.4459 H   0  0  0  0  0  0  0  0  0  0  0  0
    2.0991   -7.2301    1.1892 H   0  0  0  0  0  0  0  0  0  0  0  0
    2.2010   -2.5193   -0.3844 H   0  0  0  0  0  0  0  0  0  0  0  0
    3.6470   -5.5802    2.2476 H   0  0  0  0  0  0  0  0  0  0  0  0
    5.7346   -1.2713    2.0101 H   0  0  0  0  0  0  0  0  0  0  0  0
    4.9602   -0.0593    0.9539 H   0  0  0  0  0  0  0  0  0  0  0  0
  1 15  1  0  0  0  0
  1 13  1  0  0  0  0
  2  1  1  0  0  0  0
  2 17  1  0  0  0  0
  3  5  1  0  0  0  0
  4  3  2  0  0  0  0
  4  6  1  0  0  0  0
  5 20  1  0  0  0  0
  5  7  2  0  0  0  0
  6  9  2  0  0  0  0
  7 22  1  0  0  0  0
  8 23  1  0  0  0  0
  8  2  1  0  0  0  0
  9  7  1  0  0  0  0
  9 10  1  0  0  0  0
 10 11  2  0  0  0  0
 12 10  1  0  0  0  0
 12  8  1  0  0  0  0
 14  1  1  0  0  0  0
 16  2  1  0  0  0  0
 18  3  1  0  0  0  0
 19  4  1  0  0  0  0
 21  6  1  0  0  0  0
 24  8  1  0  0  0  0
M  END
>  <HBA>
2

>  <HBD>
0

>  <TPSA>
26.3

>  <cid>
16846

>  <dipole>
1.78

>  <excitation_energy_1>
4.858

>  <excitation_energy_2>
4.92

>  <excitation_energy_3>
5.388

>  <excitation_energy_4>
6.134

>  <homo_energy>
-6.969

>  <homo_lumo_gap>
5.812

>  <logP>
2.253

>  <lumo_energy>
-1.156

>  <melting_point>
27.93

>  <molecular_refractivity>
47.34

>  <oscillator_strength_1>
0.0004

>  <oscillator_strength_2>
0.0177

>  <oscillator_strength_3>
0.2855

>  <oscillator_strength_4>
0.0133

>  <open_babel_can_smiles>
CCCOC(=O)c1ccccc1

>  <mulliken_charges>
24
1   -0.453772
2   -0.272756
3   -0.117026
4   -0.137043
5   -0.138757
6   -0.158124
7   -0.151824
8   -0.037301
9   0.047723
10   0.594932
11   -0.494672
12   -0.483136
13   0.153192
14   0.143774
15   0.152774
16   0.144105
17   0.164859
18   0.136353
19   0.135721
20   0.137415
21   0.155638
22   0.162978
23   0.167807
24   0.14714

>  <lowdin_charges>
24
1   -0.44527
2   -0.285376
3   -0.142111
4   -0.157721
5   -0.155553
6   -0.138279
7   -0.130634
8   -0.132976
9   -0.045841
10   0.198314
11   -0.275147
12   -0.192046
13   0.157152
14   0.14814
15   0.151736
16   0.146694
17   0.158472
18   0.162158
19   0.161204
20   0.160291
21   0.170781
22   0.177348
23   0.157805
24   0.150858

$$$$

