PCCDB-ID:  11092
public computational chemistry database (PCCDB) project, http://pccdb.org

 22 22  0  0  0  0  0  0  0  0999 V2000
    2.9440    2.1584   -0.3127 C   0  0  0  0  0  0  0  0  0  0  0  0
    4.0489   -5.1634   -2.3068 C   0  0  0  0  0  0  0  0  0  0  0  0
    3.0992   -2.8793   -0.9151 C   0  0  0  0  0  0  0  0  0  0  0  0
    2.6874   -1.7049   -0.3001 C   0  0  0  0  0  0  0  0  0  0  0  0
    4.3949   -1.5404   -2.4648 C   0  0  0  0  0  0  0  0  0  0  0  0
    2.5584    0.7373    0.0514 C   0  0  0  0  0  0  0  0  0  0  0  0
    3.9671   -2.7939   -2.0143 C   0  0  0  0  0  0  0  0  0  0  0  0
    3.0944   -0.4292   -0.7224 C   0  0  0  0  0  0  0  0  0  0  0  0
    3.9688   -0.3729   -1.8335 C   0  0  0  0  0  0  0  0  0  0  0  0
    1.7981    0.5391    0.9917 O   0  0  0  0  0  0  0  0  0  0  0  0
    4.3934    0.8432   -2.2901 O   0  0  0  0  0  0  0  0  0  0  0  0
    4.4484   -3.8587   -2.7078 O   0  0  0  0  0  0  0  0  0  0  0  0
    4.0293    2.2968   -0.2749 H   0  0  0  0  0  0  0  0  0  0  0  0
    2.4538    2.8330    0.3921 H   0  0  0  0  0  0  0  0  0  0  0  0
    2.6391    2.3984   -1.3367 H   0  0  0  0  0  0  0  0  0  0  0  0
    4.5423   -5.8496   -2.9970 H   0  0  0  0  0  0  0  0  0  0  0  0
    2.9618   -5.2906   -2.3819 H   0  0  0  0  0  0  0  0  0  0  0  0
    4.3712   -5.3839   -1.2815 H   0  0  0  0  0  0  0  0  0  0  0  0
    2.7505   -3.8353   -0.5440 H   0  0  0  0  0  0  0  0  0  0  0  0
    2.0171   -1.7405    0.5524 H   0  0  0  0  0  0  0  0  0  0  0  0
    5.0657   -1.4985   -3.3195 H   0  0  0  0  0  0  0  0  0  0  0  0
    4.9843    0.7005   -3.0462 H   0  0  0  0  0  0  0  0  0  0  0  0
  1 13  1  0  0  0  0
  1  6  1  0  0  0  0
  1 14  1  0  0  0  0
  2 18  1  0  0  0  0
  3 19  1  0  0  0  0
  3  4  2  0  0  0  0
  4 20  1  0  0  0  0
  5  7  2  0  0  0  0
  5  9  1  0  0  0  0
  6 10  2  0  0  0  0
  7  3  1  0  0  0  0
  8  4  1  0  0  0  0
  8  6  1  0  0  0  0
  9  8  2  0  0  0  0
 11  9  1  0  0  0  0
 12  2  1  0  0  0  0
 12  7  1  0  0  0  0
 15  1  1  0  0  0  0
 16  2  1  0  0  0  0
 17  2  1  0  0  0  0
 21  5  1  0  0  0  0
 22 11  1  0  0  0  0
M  END
>  <HBA>
3

>  <HBD>
1

>  <TPSA>
46.53

>  <cid>
11092

>  <dipole>
4.55

>  <excitation_energy_1>
3.886

>  <excitation_energy_2>
4.51

>  <excitation_energy_3>
4.83

>  <excitation_energy_4>
5.388

>  <homo_energy>
-6.133

>  <homo_lumo_gap>
5.11

>  <logP>
1.603

>  <lumo_energy>
-1.023

>  <melting_point>
85.3

>  <molecular_refractivity>
45.15

>  <oscillator_strength_1>
0.0001

>  <oscillator_strength_2>
0.1087

>  <oscillator_strength_3>
0.2491

>  <oscillator_strength_4>
0.0012

>  <open_babel_can_smiles>
COc1ccc(c(c1)O)C(=O)C

>  <mulliken_charges>
22
1   -0.5157
2   -0.219148
3   -0.195843
4   -0.186753
5   -0.257951
6   0.406892
7   0.390261
8   0.052039
9   0.296677
10   -0.468171
11   -0.646598
12   -0.506824
13   0.171253
14   0.165338
15   0.171685
16   0.173894
17   0.159394
18   0.15935
19   0.135943
20   0.170404
21   0.129429
22   0.414429

>  <lowdin_charges>
22
1   -0.469323
2   -0.274412
3   -0.233143
4   -0.105516
5   -0.245585
6   0.163807
7   0.12344
8   -0.101775
9   0.119061
10   -0.262
11   -0.366091
12   -0.190757
13   0.169716
14   0.167094
15   0.171106
16   0.166638
17   0.14766
18   0.14867
19   0.165298
20   0.180985
21   0.163558
22   0.36157

$$$$

