PCCDB-ID:  71
public computational chemistry database (PCCDB) project, http://pccdb.org

 19 18  0  0  0  0  0  0  0  0999 V2000
    1.8214   -0.7097    0.2556 C   0  0  0  0  0  0  0  0  0  0  0  0
    1.9414   -1.3649    1.6354 C   0  0  0  0  0  0  0  0  0  0  0  0
    2.9963    0.1972   -0.1322 C   0  0  0  0  0  0  0  0  0  0  0  0
    1.8542   -0.3995    2.7926 C   0  0  0  0  0  0  0  0  0  0  0  0
    4.3132   -0.5478   -0.3104 C   0  0  0  0  0  0  0  0  0  0  0  0
    1.8673   -1.0625    4.1913 C   0  0  0  0  0  0  0  0  0  0  0  0
    1.7700    0.8066    2.6921 O   0  0  0  0  0  0  0  0  0  0  0  0
    4.4488   -1.7445   -0.2350 O   0  0  0  0  0  0  0  0  0  0  0  0
    5.3906    0.2380   -0.5846 O   0  0  0  0  0  0  0  0  0  0  0  0
    1.9075   -0.1565    5.1813 O   0  0  0  0  0  0  0  0  0  0  0  0
    1.8401   -2.2616    4.3590 O   0  0  0  0  0  0  0  0  0  0  0  0
    0.9031   -0.1134    0.2151 H   0  0  0  0  0  0  0  0  0  0  0  0
    1.7289   -1.5046   -0.4913 H   0  0  0  0  0  0  0  0  0  0  0  0
    2.8788   -1.9306    1.7196 H   0  0  0  0  0  0  0  0  0  0  0  0
    1.1571   -2.1202    1.7789 H   0  0  0  0  0  0  0  0  0  0  0  0
    3.1250    0.9918    0.6130 H   0  0  0  0  0  0  0  0  0  0  0  0
    2.7725    0.7032   -1.0826 H   0  0  0  0  0  0  0  0  0  0  0  0
    5.1243    1.1725   -0.6029 H   0  0  0  0  0  0  0  0  0  0  0  0
    1.9104   -0.6623    6.0164 H   0  0  0  0  0  0  0  0  0  0  0  0
  1  2  1  0  0  0  0
  2 14  1  0  0  0  0
  2 15  1  0  0  0  0
  2  4  1  0  0  0  0
  3  1  1  0  0  0  0
  3 16  1  0  0  0  0
  4  6  1  0  0  0  0
  5  8  2  0  0  0  0
  5  3  1  0  0  0  0
  6 11  2  0  0  0  0
  6 10  1  0  0  0  0
  7  4  2  0  0  0  0
  9  5  1  0  0  0  0
 10 19  1  0  0  0  0
 12  1  1  0  0  0  0
 13  1  1  0  0  0  0
 17  3  1  0  0  0  0
 18  9  1  0  0  0  0
M  END
>  <HBA>
5

>  <HBD>
2

>  <TPSA>
91.67

>  <cid>
71

>  <dipole>
2.98

>  <excitation_energy_1>
3.266

>  <excitation_energy_2>
4.608

>  <excitation_energy_3>
5.046

>  <excitation_energy_4>
5.724

>  <homo_energy>
-7.143

>  <homo_lumo_gap>
4.882

>  <logP>
-0.105

>  <lumo_energy>
-2.261

>  <melting_point>
149.15

>  <molecular_refractivity>
34.7

>  <oscillator_strength_1>
0.0001

>  <oscillator_strength_2>
0.0067

>  <oscillator_strength_3>
0.0

>  <oscillator_strength_4>
0.0006

>  <open_babel_can_smiles>
OC(=O)CCCC(=O)C(=O)O

>  <mulliken_charges>
19
1   -0.250212
2   -0.368899
3   -0.416855
4   0.399637
5   0.606753
6   0.528002
7   -0.423332
8   -0.442288
9   -0.564824
10   -0.539211
11   -0.440949
12   0.15172
13   0.164127
14   0.214736
15   0.188443
16   0.191361
17   0.172234
18   0.411497
19   0.41806

>  <lowdin_charges>
19
1   -0.266698
2   -0.308731
3   -0.329277
4   0.137339
5   0.190884
6   0.156769
7   -0.194054
8   -0.242192
9   -0.353015
10   -0.319025
11   -0.239144
12   0.156913
13   0.164023
14   0.192394
15   0.183675
16   0.174015
17   0.168949
18   0.358448
19   0.368725

$$$$

