PCCDB-ID:  9948
public computational chemistry database (PCCDB) project, http://pccdb.org

 27 28  0  0  0  0  0  0  0  0999 V2000
   -1.7063    0.3514    0.2046 C   0  0  0  0  0  0  0  0  0  0  0  0
    3.6142   -2.1228   -4.4761 C   0  0  0  0  0  0  0  0  0  0  0  0
   -1.0804   -0.7382    0.8147 C   0  0  0  0  0  0  0  0  0  0  0  0
   -0.9305    1.3384   -0.4037 C   0  0  0  0  0  0  0  0  0  0  0  0
    3.0628   -0.9034   -4.0793 C   0  0  0  0  0  0  0  0  0  0  0  0
    3.9902   -3.0656   -3.5141 C   0  0  0  0  0  0  0  0  0  0  0  0
    0.3102   -0.8411    0.8153 C   0  0  0  0  0  0  0  0  0  0  0  0
    0.4619    1.2329   -0.4040 C   0  0  0  0  0  0  0  0  0  0  0  0
    2.8933   -0.6211   -2.7241 C   0  0  0  0  0  0  0  0  0  0  0  0
    3.8150   -2.7874   -2.1627 C   0  0  0  0  0  0  0  0  0  0  0  0
    2.6173    0.0369    0.2256 C   0  0  0  0  0  0  0  0  0  0  0  0
    1.0985    0.1447    0.2046 C   0  0  0  0  0  0  0  0  0  0  0  0
    3.2686   -1.5603   -1.7516 C   0  0  0  0  0  0  0  0  0  0  0  0
    3.1124   -1.3215   -0.2814 C   0  0  0  0  0  0  0  0  0  0  0  0
    3.3598   -2.2080    0.5243 O   0  0  0  0  0  0  0  0  0  0  0  0
   -2.7901    0.4308    0.2054 H   0  0  0  0  0  0  0  0  0  0  0  0
    3.7499   -2.3396   -5.5324 H   0  0  0  0  0  0  0  0  0  0  0  0
   -1.6767   -1.5111    1.2927 H   0  0  0  0  0  0  0  0  0  0  0  0
   -1.4064    2.1926   -0.8782 H   0  0  0  0  0  0  0  0  0  0  0  0
    2.7636   -0.1719   -4.8250 H   0  0  0  0  0  0  0  0  0  0  0  0
    4.4178   -4.0160   -3.8219 H   0  0  0  0  0  0  0  0  0  0  0  0
    0.7941   -1.6902    1.2905 H   0  0  0  0  0  0  0  0  0  0  0  0
    1.0601    2.0106   -0.8745 H   0  0  0  0  0  0  0  0  0  0  0  0
    2.4507    0.3248   -2.4307 H   0  0  0  0  0  0  0  0  0  0  0  0
    4.0956   -3.5049   -1.3986 H   0  0  0  0  0  0  0  0  0  0  0  0
    2.9832    0.1202    1.2546 H   0  0  0  0  0  0  0  0  0  0  0  0
    3.0576    0.8565   -0.3513 H   0  0  0  0  0  0  0  0  0  0  0  0
  1 16  1  0  0  0  0
  1  3  2  0  0  0  0
  2  5  2  0  0  0  0
  2  6  1  0  0  0  0
  3  7  1  0  0  0  0
  3 18  1  0  0  0  0
  4  1  1  0  0  0  0
  5  9  1  0  0  0  0
  6 10  2  0  0  0  0
  7 22  1  0  0  0  0
  8  4  2  0  0  0  0
  8 12  1  0  0  0  0
  9 24  1  0  0  0  0
  9 13  2  0  0  0  0
 10 13  1  0  0  0  0
 10 25  1  0  0  0  0
 11 26  1  0  0  0  0
 12 11  1  0  0  0  0
 12  7  2  0  0  0  0
 13 14  1  0  0  0  0
 14 11  1  0  0  0  0
 14 15  2  0  0  0  0
 17  2  1  0  0  0  0
 19  4  1  0  0  0  0
 20  5  1  0  0  0  0
 21  6  1  0  0  0  0
 23  8  1  0  0  0  0
 27 11  1  0  0  0  0
M  END
>  <HBA>
1

>  <HBD>
0

>  <TPSA>
17.07

>  <cid>
9948

>  <dipole>
2.81

>  <excitation_energy_1>
3.599

>  <excitation_energy_2>
4.39

>  <excitation_energy_3>
4.527

>  <excitation_energy_4>
4.658

>  <homo_energy>
-6.427

>  <homo_lumo_gap>
4.871

>  <logP>
3.112

>  <lumo_energy>
-1.557

>  <melting_point>
68.6

>  <molecular_refractivity>
61.12

>  <oscillator_strength_1>
0.0055

>  <oscillator_strength_2>
0.0357

>  <oscillator_strength_3>
0.0015

>  <oscillator_strength_4>
0.0262

>  <open_babel_can_smiles>
O=C(c1ccccc1)Cc1ccccc1

>  <mulliken_charges>
27
1   -0.129346
2   -0.118423
3   -0.12714
4   -0.127685
5   -0.136237
6   -0.131988
7   -0.175496
8   -0.191028
9   -0.171305
10   -0.154799
11   -0.430299
12   0.159819
13   0.07871
14   0.403596
15   -0.467739
16   0.130372
17   0.137751
18   0.13332
19   0.130024
20   0.136267
21   0.138258
22   0.15414
23   0.121999
24   0.139985
25   0.163957
26   0.182409
27   0.150879

>  <lowdin_charges>
27
1   -0.15613
2   -0.136823
3   -0.151869
4   -0.154934
5   -0.158753
6   -0.154533
7   -0.16265
8   -0.173636
9   -0.145061
10   -0.128378
11   -0.303637
12   -0.001738
13   -0.04915
14   0.166477
15   -0.248523
16   0.156195
17   0.159999
18   0.160622
19   0.158726
20   0.162026
21   0.16154
22   0.169638
23   0.153844
24   0.163908
25   0.177833
26   0.175757
27   0.159251

$$$$

