PCCDB-ID:  41480
public computational chemistry database (PCCDB) project, http://pccdb.org

 34 35  0  0  0  0  0  0  0  0999 V2000
    2.8286    1.7201    3.3038 C   0  0  0  0  0  0  0  0  0  0  0  0
    8.8587    0.4808   -2.9052 C   0  0  0  0  0  0  0  0  0  0  0  0
   10.3529   -0.2308   -1.0057 C   0  0  0  0  0  0  0  0  0  0  0  0
    2.5208    1.2529    1.8886 C   0  0  0  0  0  0  0  0  0  0  0  0
    6.3863   -2.1752   -0.1730 C   0  0  0  0  0  0  0  0  0  0  0  0
    5.4356   -1.2898    0.3266 C   0  0  0  0  0  0  0  0  0  0  0  0
    7.5745   -1.6925   -0.7315 C   0  0  0  0  0  0  0  0  0  0  0  0
    7.3433    2.0045   -0.4270 C   0  0  0  0  0  0  0  0  0  0  0  0
    8.8481    1.8282   -0.7361 C   0  0  0  0  0  0  0  0  0  0  0  0
    6.8545    0.5805   -0.2660 C   0  0  0  0  0  0  0  0  0  0  0  0
    5.6520    0.0997    0.2797 C   0  0  0  0  0  0  0  0  0  0  0  0
    7.8049   -0.3193   -0.7718 C   0  0  0  0  0  0  0  0  0  0  0  0
    4.6283    1.0511    0.7931 C   0  0  0  0  0  0  0  0  0  0  0  0
    9.0060    0.4134   -1.3677 C   0  0  0  0  0  0  0  0  0  0  0  0
    4.7012    2.2642    0.7096 O   0  0  0  0  0  0  0  0  0  0  0  0
    3.5765    0.4148    1.3670 O   0  0  0  0  0  0  0  0  0  0  0  0
    1.9768    2.2827    3.7034 H   0  0  0  0  0  0  0  0  0  0  0  0
    3.7056    2.3730    3.3105 H   0  0  0  0  0  0  0  0  0  0  0  0
    3.0169    0.8663    3.9631 H   0  0  0  0  0  0  0  0  0  0  0  0
    9.6941    1.0369   -3.3485 H   0  0  0  0  0  0  0  0  0  0  0  0
    7.9268    0.9782   -3.1969 H   0  0  0  0  0  0  0  0  0  0  0  0
    8.8500   -0.5238   -3.3446 H   0  0  0  0  0  0  0  0  0  0  0  0
   11.1836    0.3812   -1.3779 H   0  0  0  0  0  0  0  0  0  0  0  0
   10.4575   -1.2283   -1.4498 H   0  0  0  0  0  0  0  0  0  0  0  0
   10.4654   -0.3313    0.0797 H   0  0  0  0  0  0  0  0  0  0  0  0
    2.3787    2.1015    1.2151 H   0  0  0  0  0  0  0  0  0  0  0  0
    1.6331    0.6156    1.8627 H   0  0  0  0  0  0  0  0  0  0  0  0
    6.2021   -3.2451   -0.1283 H   0  0  0  0  0  0  0  0  0  0  0  0
    4.5157   -1.6642    0.7601 H   0  0  0  0  0  0  0  0  0  0  0  0
    8.3113   -2.3893   -1.1245 H   0  0  0  0  0  0  0  0  0  0  0  0
    6.8077    2.4982   -1.2491 H   0  0  0  0  0  0  0  0  0  0  0  0
    7.1540    2.6184    0.4563 H   0  0  0  0  0  0  0  0  0  0  0  0
    9.4135    1.8651    0.2038 H   0  0  0  0  0  0  0  0  0  0  0  0
    9.2458    2.6168   -1.3842 H   0  0  0  0  0  0  0  0  0  0  0  0
  1 18  1  0  0  0  0
  1 17  1  0  0  0  0
  1 19  1  0  0  0  0
  2 14  1  0  0  0  0
  3 25  1  0  0  0  0
  4  1  1  0  0  0  0
  5 28  1  0  0  0  0
  5  6  2  0  0  0  0
  6 29  1  0  0  0  0
  7  5  1  0  0  0  0
  8 10  1  0  0  0  0
  8 32  1  0  0  0  0
  9  8  1  0  0  0  0
  9 33  1  0  0  0  0
 10 11  2  0  0  0  0
 11  6  1  0  0  0  0
 11 13  1  0  0  0  0
 12  7  2  0  0  0  0
 12 10  1  0  0  0  0
 13 16  1  0  0  0  0
 14  3  1  0  0  0  0
 14 12  1  0  0  0  0
 14  9  1  0  0  0  0
 15 13  2  0  0  0  0
 16  4  1  0  0  0  0
 20  2  1  0  0  0  0
 21  2  1  0  0  0  0
 22  2  1  0  0  0  0
 23  3  1  0  0  0  0
 24  3  1  0  0  0  0
 26  4  1  0  0  0  0
 27  4  1  0  0  0  0
 30  7  1  0  0  0  0
 31  8  1  0  0  0  0
 34  9  1  0  0  0  0
M  END
>  <HBA>
2

>  <HBD>
0

>  <TPSA>
26.3

>  <cid>
41480

>  <dipole>
1.23

>  <excitation_energy_1>
4.559

>  <excitation_energy_2>
4.81

>  <excitation_energy_3>
5.272

>  <excitation_energy_4>
6.001

>  <homo_energy>
-6.414

>  <homo_lumo_gap>
5.339

>  <logP>
3.087

>  <lumo_energy>
-1.075

>  <melting_point>
65.81

>  <molecular_refractivity>
64.65

>  <oscillator_strength_1>
0.0588

>  <oscillator_strength_2>
0.0013

>  <oscillator_strength_3>
0.2068

>  <oscillator_strength_4>
0.0302

>  <open_babel_can_smiles>
CCOC(=O)c1cccc2c1CCC2(C)C

>  <mulliken_charges>
34
1   -0.461762
2   -0.442968
3   -0.455644
4   -0.038906
5   -0.137882
6   -0.167523
7   -0.18754
8   -0.331779
9   -0.297213
10   0.077132
11   -0.001004
12   0.119603
13   0.598821
14   0.02929
15   -0.501587
16   -0.480407
17   0.14847
18   0.176564
19   0.156281
20   0.141512
21   0.148941
22   0.141848
23   0.143624
24   0.139268
25   0.146883
26   0.169518
27   0.150065
28   0.130537
29   0.152355
30   0.129417
31   0.160014
32   0.170182
33   0.139858
34   0.134031

>  <lowdin_charges>
34
1   -0.456817
2   -0.440285
3   -0.439895
4   -0.128835
5   -0.159854
6   -0.143628
7   -0.151989
8   -0.280016
9   -0.279848
10   0.014871
11   -0.055396
12   -0.012093
13   0.197534
14   0.011602
15   -0.273918
16   -0.194786
17   0.158602
18   0.165815
19   0.156188
20   0.1486
21   0.152256
22   0.148096
23   0.151252
24   0.145664
25   0.149087
26   0.159196
27   0.151261
28   0.156778
29   0.171162
30   0.159076
31   0.160276
32   0.167394
33   0.145786
34   0.146861

$$$$

