PCCDB-ID:  58292
public computational chemistry database (PCCDB) project, http://pccdb.org

 31 32  0  0  0  0  0  0  0  0999 V2000
    0.8861   -0.4539   -0.3266 C   0  0  0  0  0  0  0  0  0  0  0  0
    5.4540    5.0839   -1.5878 C   0  0  0  0  0  0  0  0  0  0  0  0
    6.6323    4.3027    0.4487 C   0  0  0  0  0  0  0  0  0  0  0  0
    7.1122   -1.9815    0.3020 C   0  0  0  0  0  0  0  0  0  0  0  0
    6.2970   -3.1355    0.2313 C   0  0  0  0  0  0  0  0  0  0  0  0
    6.5465   -0.7260    0.2268 C   0  0  0  0  0  0  0  0  0  0  0  0
    4.9314   -3.0169    0.0899 C   0  0  0  0  0  0  0  0  0  0  0  0
    3.1226    0.7195   -0.1304 C   0  0  0  0  0  0  0  0  0  0  0  0
    5.0143    2.8573   -0.6790 C   0  0  0  0  0  0  0  0  0  0  0  0
    2.3901   -0.4960   -0.1915 C   0  0  0  0  0  0  0  0  0  0  0  0
    5.1458   -0.5771    0.0808 C   0  0  0  0  0  0  0  0  0  0  0  0
    4.3184   -1.7392    0.0114 C   0  0  0  0  0  0  0  0  0  0  0  0
    4.5032    0.7042   -0.0120 C   0  0  0  0  0  0  0  0  0  0  0  0
    5.2897    1.8502    0.0753 N   0  0  0  0  0  0  0  0  0  0  0  0
    2.9578   -1.6871   -0.1281 N   0  0  0  0  0  0  0  0  0  0  0  0
    5.6125    4.0711   -0.5615 N   0  0  0  0  0  0  0  0  0  0  0  0
    0.5807    0.1034   -1.2213 H   0  0  0  0  0  0  0  0  0  0  0  0
    0.4252    0.0447    0.5360 H   0  0  0  0  0  0  0  0  0  0  0  0
    0.4952   -1.4714   -0.3935 H   0  0  0  0  0  0  0  0  0  0  0  0
    5.2275    6.0558   -1.1323 H   0  0  0  0  0  0  0  0  0  0  0  0
    4.6290    4.8131   -2.2519 H   0  0  0  0  0  0  0  0  0  0  0  0
    6.3655    5.1932   -2.1935 H   0  0  0  0  0  0  0  0  0  0  0  0
    6.4890    5.2930    0.8964 H   0  0  0  0  0  0  0  0  0  0  0  0
    7.6408    4.2602    0.0132 H   0  0  0  0  0  0  0  0  0  0  0  0
    6.5465    3.5323    1.2146 H   0  0  0  0  0  0  0  0  0  0  0  0
    8.1878   -2.0877    0.4164 H   0  0  0  0  0  0  0  0  0  0  0  0
    6.7535   -4.1203    0.2926 H   0  0  0  0  0  0  0  0  0  0  0  0
    7.1568    0.1693    0.2829 H   0  0  0  0  0  0  0  0  0  0  0  0
    4.2833   -3.8862    0.0349 H   0  0  0  0  0  0  0  0  0  0  0  0
    2.5877    1.6656   -0.1414 H   0  0  0  0  0  0  0  0  0  0  0  0
    4.2690    2.8108   -1.4834 H   0  0  0  0  0  0  0  0  0  0  0  0
  1 10  1  0  0  0  0
  1 18  1  0  0  0  0
  2 20  1  0  0  0  0
  2 16  1  0  0  0  0
  3 23  1  0  0  0  0
  3 25  1  0  0  0  0
  4 26  1  0  0  0  0
  5 27  1  0  0  0  0
  5  4  1  0  0  0  0
  6 28  1  0  0  0  0
  6  4  2  0  0  0  0
  7  5  2  0  0  0  0
  8 13  1  0  0  0  0
  9 16  1  0  0  0  0
  9 14  2  0  0  0  0
 10  8  2  0  0  0  0
 10 15  1  0  0  0  0
 11  6  1  0  0  0  0
 12 11  1  0  0  0  0
 12  7  1  0  0  0  0
 13 14  1  0  0  0  0
 13 11  2  0  0  0  0
 15 12  2  0  0  0  0
 16  3  1  0  0  0  0
 17  1  1  0  0  0  0
 19  1  1  0  0  0  0
 21  2  1  0  0  0  0
 22  2  1  0  0  0  0
 24  3  1  0  0  0  0
 29  7  1  0  0  0  0
 30  8  1  0  0  0  0
 31  9  1  0  0  0  0
M  END
>  <HBA>
3

>  <HBD>
0

>  <TPSA>
28.49

>  <cid>
58292

>  <dipole>
5.93

>  <excitation_energy_1>
4.038

>  <excitation_energy_2>
4.348

>  <excitation_energy_3>
4.39

>  <excitation_energy_4>
4.695

>  <homo_energy>
-5.448

>  <homo_lumo_gap>
4.547

>  <logP>
2.765

>  <lumo_energy>
-0.901

>  <melting_point>
95.54

>  <molecular_refractivity>
68.43

>  <oscillator_strength_1>
0.2778

>  <oscillator_strength_2>
0.0069

>  <oscillator_strength_3>
0.0015

>  <oscillator_strength_4>
0.0437

>  <open_babel_can_smiles>
CN(/C=N/c1cc(C)nc2c1cccc2)C

>  <mulliken_charges>
31
1   -0.522945
2   -0.312044
3   -0.317388
4   -0.136708
5   -0.134801
6   -0.183344
7   -0.153919
8   -0.230558
9   0.268841
10   0.314223
11   0.100859
12   0.228003
13   0.275166
14   -0.536035
15   -0.564722
16   -0.368198
17   0.151697
18   0.156949
19   0.174481
20   0.164395
21   0.168542
22   0.16284
23   0.155429
24   0.158177
25   0.207555
26   0.123009
27   0.125471
28   0.139317
29   0.134813
30   0.11418
31   0.136714

>  <lowdin_charges>
31
1   -0.450122
2   -0.347172
3   -0.353152
4   -0.162846
5   -0.156071
6   -0.153679
7   -0.158732
8   -0.235088
9   -0.015484
10   0.059192
11   -0.033245
12   0.041957
13   0.068923
14   -0.222204
15   -0.181525
16   -0.081134
17   0.157019
18   0.160275
19   0.168774
20   0.154917
21   0.164037
22   0.15097
23   0.153157
24   0.150306
25   0.185575
26   0.152986
27   0.156063
28   0.165646
29   0.165947
30   0.154567
31   0.140143

$$$$

