PCCDB-ID:  70311
public computational chemistry database (PCCDB) project, http://pccdb.org

 24 24  0  0  0  0  0  0  0  0999 V2000
    3.3493    1.8055    0.2745 C   0  0  0  0  0  0  0  0  0  0  0  0
    1.1673   -4.4175    3.8814 C   0  0  0  0  0  0  0  0  0  0  0  0
    2.4101    1.3595    1.3936 C   0  0  0  0  0  0  0  0  0  0  0  0
    0.1023   -2.2255    4.5944 C   0  0  0  0  0  0  0  0  0  0  0  0
   -0.0404   -0.8468    4.4958 C   0  0  0  0  0  0  0  0  0  0  0  0
    1.7067   -2.1783    2.8262 C   0  0  0  0  0  0  0  0  0  0  0  0
    0.9866   -2.9220    3.7577 C   0  0  0  0  0  0  0  0  0  0  0  0
    1.5912   -0.7829    2.6934 C   0  0  0  0  0  0  0  0  0  0  0  0
    2.4453   -0.1442    1.6277 C   0  0  0  0  0  0  0  0  0  0  0  0
    0.6961   -0.1159    3.5551 C   0  0  0  0  0  0  0  0  0  0  0  0
    3.1756   -0.8521    0.9463 O   0  0  0  0  0  0  0  0  0  0  0  0
    0.5459    1.2416    3.4660 O   0  0  0  0  0  0  0  0  0  0  0  0
    3.2932    2.8914    0.1420 H   0  0  0  0  0  0  0  0  0  0  0  0
    3.0890    1.3264   -0.6740 H   0  0  0  0  0  0  0  0  0  0  0  0
    4.3860    1.5363    0.4977 H   0  0  0  0  0  0  0  0  0  0  0  0
    0.2309   -4.9134    4.1605 H   0  0  0  0  0  0  0  0  0  0  0  0
    1.9101   -4.6704    4.6499 H   0  0  0  0  0  0  0  0  0  0  0  0
    1.5126   -4.8553    2.9395 H   0  0  0  0  0  0  0  0  0  0  0  0
    1.3735    1.6532    1.1845 H   0  0  0  0  0  0  0  0  0  0  0  0
    2.6488    1.8631    2.3392 H   0  0  0  0  0  0  0  0  0  0  0  0
   -0.4854   -2.7673    5.3322 H   0  0  0  0  0  0  0  0  0  0  0  0
   -0.7337   -0.3229    5.1525 H   0  0  0  0  0  0  0  0  0  0  0  0
    2.4002   -2.6683    2.1497 H   0  0  0  0  0  0  0  0  0  0  0  0
   -0.1040    1.5233    4.1292 H   0  0  0  0  0  0  0  0  0  0  0  0
  1 15  1  0  0  0  0
  1  3  1  0  0  0  0
  2 16  1  0  0  0  0
  2 17  1  0  0  0  0
  3  9  1  0  0  0  0
  3 20  1  0  0  0  0
  4 21  1  0  0  0  0
  5  4  1  0  0  0  0
  5 22  1  0  0  0  0
  6  7  1  0  0  0  0
  7  2  1  0  0  0  0
  7  4  2  0  0  0  0
  8  6  2  0  0  0  0
  8 10  1  0  0  0  0
  9  8  1  0  0  0  0
 10  5  2  0  0  0  0
 11  9  2  0  0  0  0
 12 10  1  0  0  0  0
 12 24  1  0  0  0  0
 13  1  1  0  0  0  0
 14  1  1  0  0  0  0
 18  2  1  0  0  0  0
 19  3  1  0  0  0  0
 23  6  1  0  0  0  0
M  END
>  <HBA>
2

>  <HBD>
1

>  <TPSA>
37.3

>  <cid>
70311

>  <dipole>
4.31

>  <excitation_energy_1>
3.819

>  <excitation_energy_2>
4.238

>  <excitation_energy_3>
5.18

>  <excitation_energy_4>
5.186

>  <homo_energy>
-6.142

>  <homo_lumo_gap>
4.917

>  <logP>
2.293

>  <lumo_energy>
-1.225

>  <melting_point>
83.36

>  <molecular_refractivity>
48.43

>  <oscillator_strength_1>
0.0

>  <oscillator_strength_2>
0.0735

>  <oscillator_strength_3>
0.1572

>  <oscillator_strength_4>
0.0001

>  <open_babel_can_smiles>
CCC(=O)c1cc(C)ccc1O

>  <mulliken_charges>
24
1   -0.433647
2   -0.529474
3   -0.34033
4   -0.176129
5   -0.188966
6   -0.239617
7   0.184036
8   0.064835
9   0.407923
10   0.277644
11   -0.470018
12   -0.644723
13   0.133379
14   0.156666
15   0.156665
16   0.154334
17   0.165669
18   0.164109
19   0.167158
20   0.16684
21   0.130081
22   0.120247
23   0.16104
24   0.412278

>  <lowdin_charges>
24
1   -0.438283
2   -0.442387
3   -0.305324
4   -0.140524
5   -0.21444
6   -0.129652
7   -0.018643
8   -0.082806
9   0.166298
10   0.107927
11   -0.253523
12   -0.371448
13   0.14483
14   0.156583
15   0.15552
16   0.156958
17   0.162075
18   0.162077
19   0.164955
20   0.165866
21   0.160125
22   0.155127
23   0.178024
24   0.360666

$$$$

