PCCDB-ID:  13026
public computational chemistry database (PCCDB) project, http://pccdb.org

 18 18  0  0  0  0  0  0  0  0999 V2000
    0.9209   -0.0141   -0.0812 C   0  0  0  0  0  0  0  0  0  0  0  0
    3.1419    1.2067   -0.0814 C   0  0  0  0  0  0  0  0  0  0  0  0
    5.2365    0.0024   -0.0873 C   0  0  0  0  0  0  0  0  0  0  0  0
    2.4325   -0.0048   -0.0829 C   0  0  0  0  0  0  0  0  0  0  0  0
    4.5344    1.2109   -0.0848 C   0  0  0  0  0  0  0  0  0  0  0  0
    4.5426   -1.2048   -0.0873 C   0  0  0  0  0  0  0  0  0  0  0  0
    3.1349   -1.2140   -0.0854 C   0  0  0  0  0  0  0  0  0  0  0  0
    5.2784    2.3649   -0.0845 O   0  0  0  0  0  0  0  0  0  0  0  0
    5.1700   -2.4184   -0.0904 O   0  0  0  0  0  0  0  0  0  0  0  0
    2.5244   -2.4445   -0.0869 O   0  0  0  0  0  0  0  0  0  0  0  0
    0.5239    1.0047   -0.0739 H   0  0  0  0  0  0  0  0  0  0  0  0
    0.5116   -0.5245    0.8026 H   0  0  0  0  0  0  0  0  0  0  0  0
    0.5098   -0.5132   -0.9705 H   0  0  0  0  0  0  0  0  0  0  0  0
    2.5923    2.1462   -0.0785 H   0  0  0  0  0  0  0  0  0  0  0  0
    6.3233    0.0191   -0.0899 H   0  0  0  0  0  0  0  0  0  0  0  0
    4.6730    3.1218   -0.0949 H   0  0  0  0  0  0  0  0  0  0  0  0
    6.1277   -2.2666   -0.0906 H   0  0  0  0  0  0  0  0  0  0  0  0
    1.5650   -2.3137   -0.0812 H   0  0  0  0  0  0  0  0  0  0  0  0
  1 11  1  0  0  0  0
  1 12  1  0  0  0  0
  2 14  1  0  0  0  0
  3  5  1  0  0  0  0
  4  2  1  0  0  0  0
  4  1  1  0  0  0  0
  5  8  1  0  0  0  0
  5  2  2  0  0  0  0
  6  3  2  0  0  0  0
  6  7  1  0  0  0  0
  7  4  2  0  0  0  0
  9  6  1  0  0  0  0
 10  7  1  0  0  0  0
 10 18  1  0  0  0  0
 13  1  1  0  0  0  0
 15  3  1  0  0  0  0
 16  8  1  0  0  0  0
 17  9  1  0  0  0  0
M  END
>  <HBA>
3

>  <HBD>
3

>  <TPSA>
60.69

>  <cid>
13026

>  <dipole>
2.4

>  <excitation_energy_1>
4.481

>  <excitation_energy_2>
4.659

>  <excitation_energy_3>
4.668

>  <excitation_energy_4>
4.892

>  <homo_energy>
-5.138

>  <homo_lumo_gap>
5.421

>  <logP>
1.112

>  <lumo_energy>
0.283

>  <melting_point>
130.08

>  <molecular_refractivity>
37.48

>  <oscillator_strength_1>
0.0022

>  <oscillator_strength_2>
0.0098

>  <oscillator_strength_3>
0.061

>  <oscillator_strength_4>
0.0

>  <open_babel_can_smiles>
Oc1cc(C)c(c(c1)O)O

>  <mulliken_charges>
18
1   -0.578133
2   -0.276489
3   -0.249575
4   0.157655
5   0.364308
6   0.334337
7   0.228122
8   -0.656214
9   -0.634776
10   -0.642762
11   0.168166
12   0.16352
13   0.164098
14   0.105801
15   0.126968
16   0.405639
17   0.40814
18   0.411196

>  <lowdin_charges>
18
1   -0.451717
2   -0.241255
3   -0.238501
4   -0.033754
5   0.096756
6   0.089675
7   0.050451
8   -0.388309
9   -0.365018
10   -0.378752
11   0.165174
12   0.157656
13   0.157932
14   0.149618
15   0.161335
16   0.357146
17   0.3566
18   0.354963

$$$$

