PCCDB-ID:  39356
public computational chemistry database (PCCDB) project, http://pccdb.org

 25 26  0  0  0  0  0  0  0  0999 V2000
    1.7784   -0.2776    1.1333 C   0  0  0  0  0  0  0  0  0  0  0  0
    4.5211   -1.7836   -2.5046 C   0  0  0  0  0  0  0  0  0  0  0  0
    4.0186   -0.7687   -1.7045 C   0  0  0  0  0  0  0  0  0  0  0  0
    2.8573   -4.8731   -1.0206 C   0  0  0  0  0  0  0  0  0  0  0  0
    3.1429   -5.7619   -2.2330 C   0  0  0  0  0  0  0  0  0  0  0  0
    2.7483   -2.4096   -0.4633 C   0  0  0  0  0  0  0  0  0  0  0  0
    4.6942   -4.2015   -3.2303 C   0  0  0  0  0  0  0  0  0  0  0  0
    3.2605   -3.4331   -1.2770 C   0  0  0  0  0  0  0  0  0  0  0  0
    4.1560   -3.1239   -2.3077 C   0  0  0  0  0  0  0  0  0  0  0  0
    3.1226   -1.0814   -0.6710 C   0  0  0  0  0  0  0  0  0  0  0  0
    4.5256   -5.5346   -2.6520 N   0  0  0  0  0  0  0  0  0  0  0  0
    2.6762   -0.0200    0.0680 O   0  0  0  0  0  0  0  0  0  0  0  0
    1.5622    0.6923    1.5856 H   0  0  0  0  0  0  0  0  0  0  0  0
    2.2248   -0.9382    1.8890 H   0  0  0  0  0  0  0  0  0  0  0  0
    0.8418   -0.7263    0.7751 H   0  0  0  0  0  0  0  0  0  0  0  0
    5.2179   -1.5338   -3.3026 H   0  0  0  0  0  0  0  0  0  0  0  0
    4.3040    0.2679   -1.8537 H   0  0  0  0  0  0  0  0  0  0  0  0
    3.4249   -5.2609   -0.1637 H   0  0  0  0  0  0  0  0  0  0  0  0
    1.7944   -4.9279   -0.7517 H   0  0  0  0  0  0  0  0  0  0  0  0
    2.4094   -5.5417   -3.0341 H   0  0  0  0  0  0  0  0  0  0  0  0
    3.0250   -6.8169   -1.9626 H   0  0  0  0  0  0  0  0  0  0  0  0
    2.0543   -2.6735    0.3284 H   0  0  0  0  0  0  0  0  0  0  0  0
    5.7638   -4.0340   -3.4104 H   0  0  0  0  0  0  0  0  0  0  0  0
    4.1906   -4.1042   -4.2148 H   0  0  0  0  0  0  0  0  0  0  0  0
    4.8016   -6.2332   -3.3383 H   0  0  0  0  0  0  0  0  0  0  0  0
  1 13  1  0  0  0  0
  1 14  1  0  0  0  0
  2  9  2  0  0  0  0
  2  3  1  0  0  0  0
  3 10  2  0  0  0  0
  4 19  1  0  0  0  0
  4 18  1  0  0  0  0
  5 21  1  0  0  0  0
  5  4  1  0  0  0  0
  6 22  1  0  0  0  0
  7 11  1  0  0  0  0
  7  9  1  0  0  0  0
  8  4  1  0  0  0  0
  8  6  2  0  0  0  0
  9  8  1  0  0  0  0
 10  6  1  0  0  0  0
 10 12  1  0  0  0  0
 11  5  1  0  0  0  0
 12  1  1  0  0  0  0
 15  1  1  0  0  0  0
 16  2  1  0  0  0  0
 17  3  1  0  0  0  0
 20  5  1  0  0  0  0
 23  7  1  0  0  0  0
 24  7  1  0  0  0  0
 25 11  1  0  0  0  0
M  END
>  <HBA>
2

>  <HBD>
1

>  <TPSA>
21.26

>  <cid>
39356

>  <dipole>
1.54

>  <excitation_energy_1>
4.8

>  <excitation_energy_2>
5.107

>  <excitation_energy_3>
5.235

>  <excitation_energy_4>
5.307

>  <homo_energy>
-5.554

>  <homo_lumo_gap>
5.709

>  <logP>
1.67

>  <lumo_energy>
0.155

>  <melting_point>
67.19

>  <molecular_refractivity>
52.28

>  <oscillator_strength_1>
0.0325

>  <oscillator_strength_2>
0.0239

>  <oscillator_strength_3>
0.0133

>  <oscillator_strength_4>
0.0041

>  <open_babel_can_smiles>
COc1ccc2c(c1)CCNC2

>  <mulliken_charges>
25
1   -0.210916
2   -0.188547
3   -0.172755
4   -0.319517
5   -0.14835
6   -0.265735
7   -0.198743
8   0.117856
9   0.11321
10   0.380215
11   -0.552131
12   -0.511904
13   0.166844
14   0.150145
15   0.148926
16   0.119802
17   0.13287
18   0.161296
19   0.135953
20   0.115908
21   0.135234
22   0.12038
23   0.147744
24   0.124692
25   0.297522

>  <lowdin_charges>
25
1   -0.278592
2   -0.153715
3   -0.184531
4   -0.276748
5   -0.202221
6   -0.222397
7   -0.198689
8   -0.001555
9   -0.036926
10   0.098456
11   -0.364824
12   -0.200855
13   0.161198
14   0.14513
15   0.143259
16   0.154608
17   0.163507
18   0.159236
19   0.146699
20   0.118028
21   0.144145
22   0.158129
23   0.149111
24   0.123191
25   0.256356

$$$$

