PCCDB-ID:  11472
public computational chemistry database (PCCDB) project, http://pccdb.org

 15 15  0  0  0  0  0  0  0  0999 V2000
   -0.6847    1.1432    0.2455 C   0  0  0  0  0  0  0  0  0  0  0  0
    1.3562   -0.0332   -0.1551 C   0  0  0  0  0  0  0  0  0  0  0  0
   -1.3354   -0.0905    0.2130 C   0  0  0  0  0  0  0  0  0  0  0  0
    0.6108   -1.2119   -0.1742 C   0  0  0  0  0  0  0  0  0  0  0  0
    1.4553    2.4982    0.0564 C   0  0  0  0  0  0  0  0  0  0  0  0
    0.6995    1.1829    0.0560 C   0  0  0  0  0  0  0  0  0  0  0  0
   -0.7152   -1.2595    0.0074 N   0  0  0  0  0  0  0  0  0  0  0  0
    0.8254    3.5222    0.8105 O   0  0  0  0  0  0  0  0  0  0  0  0
   -1.2380    2.0610    0.4167 H   0  0  0  0  0  0  0  0  0  0  0  0
    2.4338   -0.0677   -0.2983 H   0  0  0  0  0  0  0  0  0  0  0  0
   -2.4133   -0.1426    0.3597 H   0  0  0  0  0  0  0  0  0  0  0  0
    1.1050   -2.1686   -0.3375 H   0  0  0  0  0  0  0  0  0  0  0  0
    1.5116    2.8902   -0.9662 H   0  0  0  0  0  0  0  0  0  0  0  0
    2.4919    2.3285    0.3888 H   0  0  0  0  0  0  0  0  0  0  0  0
    0.7778    3.2199    1.7315 H   0  0  0  0  0  0  0  0  0  0  0  0
  1  9  1  0  0  0  0
  2  6  1  0  0  0  0
  3  1  1  0  0  0  0
  3 11  1  0  0  0  0
  4  2  2  0  0  0  0
  4  7  1  0  0  0  0
  5 14  1  0  0  0  0
  5  8  1  0  0  0  0
  6  5  1  0  0  0  0
  6  1  2  0  0  0  0
  7  3  2  0  0  0  0
  8 15  1  0  0  0  0
 10  2  1  0  0  0  0
 12  4  1  0  0  0  0
 13  5  1  0  0  0  0
M  END
>  <HBA>
2

>  <HBD>
1

>  <TPSA>
33.12

>  <cid>
11472

>  <dipole>
1.95

>  <excitation_energy_1>
4.843

>  <excitation_energy_2>
5.118

>  <excitation_energy_3>
5.424

>  <excitation_energy_4>
5.962

>  <homo_energy>
-6.906

>  <homo_lumo_gap>
6.204

>  <logP>
0.574

>  <lumo_energy>
-0.702

>  <melting_point>
41.27

>  <molecular_refractivity>
30.36

>  <oscillator_strength_1>
0.0042

>  <oscillator_strength_2>
0.0

>  <oscillator_strength_3>
0.0293

>  <oscillator_strength_4>
0.0243

>  <open_babel_can_smiles>
OCc1ccncc1

>  <mulliken_charges>
15
1   -0.180792
2   -0.184839
3   0.039277
4   0.038986
5   -0.091131
6   0.12025
7   -0.407987
8   -0.604632
9   0.149521
10   0.130893
11   0.1423
12   0.141746
13   0.175388
14   0.137711
15   0.393311

>  <lowdin_charges>
15
1   -0.185896
2   -0.184135
3   -0.084198
4   -0.088107
5   -0.13202
6   -0.007086
7   -0.151974
8   -0.452918
9   0.170733
10   0.158811
11   0.154743
12   0.157087
13   0.163681
14   0.136721
15   0.344556

$$$$

