PCCDB-ID:  18572
public computational chemistry database (PCCDB) project, http://pccdb.org

 33 33  0  0  0  0  0  0  0  0999 V2000
    1.2787   -1.1914    0.0104 C   0  0  0  0  0  0  0  0  0  0  0  0
    1.1037   -0.7496   -4.2645 C   0  0  0  0  0  0  0  0  0  0  0  0
    1.6176   -0.2983   -1.1828 C   0  0  0  0  0  0  0  0  0  0  0  0
    2.3806   -0.3593   -3.5215 C   0  0  0  0  0  0  0  0  0  0  0  0
    8.7999    0.1510   -1.3915 C   0  0  0  0  0  0  0  0  0  0  0  0
    8.4706   -0.0425   -2.7356 C   0  0  0  0  0  0  0  0  0  0  0  0
    8.1011   -0.5541   -0.4100 C   0  0  0  0  0  0  0  0  0  0  0  0
    7.4560   -0.9270   -3.0969 C   0  0  0  0  0  0  0  0  0  0  0  0
    7.0783   -1.4344   -0.7633 C   0  0  0  0  0  0  0  0  0  0  0  0
    3.8835   -1.0586   -1.7453 C   0  0  0  0  0  0  0  0  0  0  0  0
    6.7340   -1.6245   -2.1130 C   0  0  0  0  0  0  0  0  0  0  0  0
    4.5215   -2.3312   -2.3236 C   0  0  0  0  0  0  0  0  0  0  0  0
    5.7590   -2.5617   -2.4975 N   0  0  0  0  0  0  0  0  0  0  0  0
    2.4819   -0.9626   -2.1756 N   0  0  0  0  0  0  0  0  0  0  0  0
    3.6171   -3.2697   -2.6551 O   0  0  0  0  0  0  0  0  0  0  0  0
    0.6176   -0.6579    0.7023 H   0  0  0  0  0  0  0  0  0  0  0  0
    2.1686   -1.4910    0.5747 H   0  0  0  0  0  0  0  0  0  0  0  0
    0.7684   -2.1014   -0.3225 H   0  0  0  0  0  0  0  0  0  0  0  0
    1.0996   -0.2953   -5.2614 H   0  0  0  0  0  0  0  0  0  0  0  0
    0.1980   -0.4146   -3.7481 H   0  0  0  0  0  0  0  0  0  0  0  0
    1.0449   -1.8367   -4.3843 H   0  0  0  0  0  0  0  0  0  0  0  0
    2.0745    0.6465   -0.8388 H   0  0  0  0  0  0  0  0  0  0  0  0
    0.6868   -0.0255   -1.6883 H   0  0  0  0  0  0  0  0  0  0  0  0
    2.4717    0.7396   -3.4589 H   0  0  0  0  0  0  0  0  0  0  0  0
    3.2417   -0.7106   -4.1003 H   0  0  0  0  0  0  0  0  0  0  0  0
    9.5976    0.8345   -1.1143 H   0  0  0  0  0  0  0  0  0  0  0  0
    9.0127    0.4939   -3.5107 H   0  0  0  0  0  0  0  0  0  0  0  0
    8.3540   -0.4220    0.6393 H   0  0  0  0  0  0  0  0  0  0  0  0
    7.2085   -1.0936   -4.1414 H   0  0  0  0  0  0  0  0  0  0  0  0
    6.5507   -2.0006    0.0000 H   0  0  0  0  0  0  0  0  0  0  0  0
    4.4815   -0.1805   -2.0268 H   0  0  0  0  0  0  0  0  0  0  0  0
    3.9182   -1.1262   -0.6535 H   0  0  0  0  0  0  0  0  0  0  0  0
    2.7455   -2.8247   -2.5110 H   0  0  0  0  0  0  0  0  0  0  0  0
  1 17  1  0  0  0  0
  1 16  1  0  0  0  0
  2 20  1  0  0  0  0
  2  4  1  0  0  0  0
  3 22  1  0  0  0  0
  3  1  1  0  0  0  0
  4 24  1  0  0  0  0
  4 14  1  0  0  0  0
  5 26  1  0  0  0  0
  5  7  2  0  0  0  0
  6  5  1  0  0  0  0
  7 28  1  0  0  0  0
  8  6  2  0  0  0  0
  8 11  1  0  0  0  0
  9  7  1  0  0  0  0
  9 30  1  0  0  0  0
 10 32  1  0  0  0  0
 11  9  2  0  0  0  0
 12 10  1  0  0  0  0
 13 12  2  0  0  0  0
 13 11  1  0  0  0  0
 14 10  1  0  0  0  0
 14  3  1  0  0  0  0
 15 33  1  0  0  0  0
 15 12  1  0  0  0  0
 18  1  1  0  0  0  0
 19  2  1  0  0  0  0
 21  2  1  0  0  0  0
 23  3  1  0  0  0  0
 25  4  1  0  0  0  0
 27  6  1  0  0  0  0
 29  8  1  0  0  0  0
 31 10  1  0  0  0  0
M  END
>  <HBA>
3

>  <HBD>
1

>  <TPSA>
32.34

>  <cid>
18572

>  <dipole>
5.19

>  <excitation_energy_1>
4.701

>  <excitation_energy_2>
4.936

>  <excitation_energy_3>
5.155

>  <excitation_energy_4>
5.458

>  <homo_energy>
-5.565

>  <homo_lumo_gap>
5.698

>  <logP>
2.04

>  <lumo_energy>
0.133

>  <melting_point>
58.57

>  <molecular_refractivity>
62.88

>  <oscillator_strength_1>
0.051

>  <oscillator_strength_2>
0.0546

>  <oscillator_strength_3>
0.0144

>  <oscillator_strength_4>
0.0268

>  <open_babel_can_smiles>
CCN(C/C(=N\c1ccccc1)/O)CC

>  <mulliken_charges>
33
1   -0.451644
2   -0.450512
3   -0.124536
4   -0.129996
5   -0.132755
6   -0.138219
7   -0.137706
8   -0.153885
9   -0.158258
10   -0.224384
11   0.228118
12   0.488795
13   -0.484285
14   -0.442425
15   -0.590206
16   0.152822
17   0.154217
18   0.15853
19   0.15464
20   0.151915
21   0.160249
22   0.13229
23   0.149514
24   0.134531
25   0.162502
26   0.121488
27   0.125283
28   0.124324
29   0.126712
30   0.121185
31   0.17162
32   0.179891
33   0.420186

>  <lowdin_charges>
33
1   -0.452857
2   -0.44827
3   -0.19879
4   -0.198823
5   -0.177669
6   -0.15413
7   -0.15203
8   -0.181529
9   -0.193207
10   -0.239645
11   0.050541
12   0.124889
13   -0.18353
14   -0.193764
15   -0.359456
16   0.159245
17   0.151776
18   0.156373
19   0.158535
20   0.150755
21   0.154644
22   0.130315
23   0.151498
24   0.130092
25   0.157098
26   0.155128
27   0.156813
28   0.153574
29   0.158257
30   0.156375
31   0.160788
32   0.168228
33   0.348773

$$$$

