PCCDB-ID:  62056
public computational chemistry database (PCCDB) project, http://pccdb.org

 23 22  0  0  0  0  0  0  0  0999 V2000
    1.5588   -1.0976    2.1229 C   0  0  0  0  0  0  0  0  0  0  0  0
    1.7882    1.2437    3.1127 C   0  0  0  0  0  0  0  0  0  0  0  0
    5.9759    0.3473   -1.0684 C   0  0  0  0  0  0  0  0  0  0  0  0
    5.4069    0.1404    0.3495 C   0  0  0  0  0  0  0  0  0  0  0  0
    2.0115    0.3417    1.9084 C   0  0  0  0  0  0  0  0  0  0  0  0
    5.9758   -0.8989   -1.9619 C   0  0  0  0  0  0  0  0  0  0  0  0
    3.8921    0.1344    0.4230 C   0  0  0  0  0  0  0  0  0  0  0  0
    6.9955   -1.3935   -2.3828 O   0  0  0  0  0  0  0  0  0  0  0  0
    4.7704   -1.4146   -2.2641 O   0  0  0  0  0  0  0  0  0  0  0  0
    3.1486   -0.0531   -0.5316 O   0  0  0  0  0  0  0  0  0  0  0  0
    3.4603    0.3591    1.6645 O   0  0  0  0  0  0  0  0  0  0  0  0
    0.4831   -1.1220    2.3284 H   0  0  0  0  0  0  0  0  0  0  0  0
    2.0822   -1.5446    2.9751 H   0  0  0  0  0  0  0  0  0  0  0  0
    1.7481   -1.7030    1.2321 H   0  0  0  0  0  0  0  0  0  0  0  0
    0.7188    1.2991    3.3419 H   0  0  0  0  0  0  0  0  0  0  0  0
    2.1513    2.2571    2.9154 H   0  0  0  0  0  0  0  0  0  0  0  0
    2.3097    0.8537    3.9934 H   0  0  0  0  0  0  0  0  0  0  0  0
    7.0181    0.6617   -0.9890 H   0  0  0  0  0  0  0  0  0  0  0  0
    5.4210    1.1503   -1.5701 H   0  0  0  0  0  0  0  0  0  0  0  0
    5.7671    0.9275    1.0198 H   0  0  0  0  0  0  0  0  0  0  0  0
    5.7657   -0.8041    0.7808 H   0  0  0  0  0  0  0  0  0  0  0  0
    1.5331    0.7559    1.0171 H   0  0  0  0  0  0  0  0  0  0  0  0
    4.0598   -0.8989   -1.8166 H   0  0  0  0  0  0  0  0  0  0  0  0
  1 12  1  0  0  0  0
  1 13  1  0  0  0  0
  2 15  1  0  0  0  0
  2 17  1  0  0  0  0
  3 18  1  0  0  0  0
  3  4  1  0  0  0  0
  4  7  1  0  0  0  0
  4 21  1  0  0  0  0
  4 20  1  0  0  0  0
  5  1  1  0  0  0  0
  5  2  1  0  0  0  0
  6  3  1  0  0  0  0
  7 11  1  0  0  0  0
  8  6  2  0  0  0  0
  9  6  1  0  0  0  0
  9 23  1  0  0  0  0
 10  7  2  0  0  0  0
 11  5  1  0  0  0  0
 14  1  1  0  0  0  0
 16  2  1  0  0  0  0
 19  3  1  0  0  0  0
 22  5  1  0  0  0  0
M  END
>  <HBA>
4

>  <HBD>
1

>  <TPSA>
63.6

>  <cid>
62056

>  <dipole>
6.84

>  <excitation_energy_1>
5.559

>  <excitation_energy_2>
5.729

>  <excitation_energy_3>
5.97

>  <excitation_energy_4>
6.495

>  <homo_energy>
-6.882

>  <homo_lumo_gap>
6.387

>  <logP>
0.803

>  <lumo_energy>
-0.495

>  <melting_point>
62.37

>  <molecular_refractivity>
38.82

>  <oscillator_strength_1>
0.0014

>  <oscillator_strength_2>
0.0019

>  <oscillator_strength_3>
0.0009

>  <oscillator_strength_4>
0.0057

>  <open_babel_can_smiles>
CC(OC(=O)CCC(=O)O)C

>  <mulliken_charges>
23
1   -0.460868
2   -0.453331
3   -0.378705
4   -0.377344
5   0.117129
6   0.576312
7   0.648267
8   -0.449358
9   -0.588695
10   -0.509572
11   -0.457708
12   0.157818
13   0.158375
14   0.175718
15   0.157607
16   0.161722
17   0.161434
18   0.181829
19   0.174683
20   0.188716
21   0.202508
22   0.170839
23   0.442623

>  <lowdin_charges>
23
1   -0.45273
2   -0.445193
3   -0.316188
4   -0.302031
5   0.015073
6   0.18729
7   0.211442
8   -0.256291
9   -0.371278
10   -0.290731
11   -0.176698
12   0.161123
13   0.158657
14   0.1676
15   0.160316
16   0.160315
17   0.160087
18   0.176069
19   0.169187
20   0.180064
21   0.184183
22   0.159177
23   0.360558

$$$$

