PCCDB-ID:  16900
public computational chemistry database (PCCDB) project, http://pccdb.org

 23 22  0  0  0  0  0  0  0  0999 V2000
    2.7358    3.5321   -0.4364 C   0  0  0  0  0  0  0  0  0  0  0  0
    2.3376    2.6526    0.7551 C   0  0  0  0  0  0  0  0  0  0  0  0
    3.4951    2.3025    1.7052 C   0  0  0  0  0  0  0  0  0  0  0  0
    4.5693    1.3941    1.0869 C   0  0  0  0  0  0  0  0  0  0  0  0
    5.6895    0.9986    2.0616 C   0  0  0  0  0  0  0  0  0  0  0  0
    6.6953    2.0504    2.4316 C   0  0  0  0  0  0  0  0  0  0  0  0
    6.8562    3.2684    1.8882 C   0  0  0  0  0  0  0  0  0  0  0  0
    7.9294    4.1741    2.3483 C   0  0  0  0  0  0  0  0  0  0  0  0
    8.7295    3.9193    3.2317 O   0  0  0  0  0  0  0  0  0  0  0  0
    1.8625    3.7834   -1.0488 H   0  0  0  0  0  0  0  0  0  0  0  0
    3.4606    3.0340   -1.0904 H   0  0  0  0  0  0  0  0  0  0  0  0
    3.1849    4.4747   -0.0981 H   0  0  0  0  0  0  0  0  0  0  0  0
    1.8781    1.7239    0.3871 H   0  0  0  0  0  0  0  0  0  0  0  0
    1.5580    3.1679    1.3318 H   0  0  0  0  0  0  0  0  0  0  0  0
    3.0840    1.7968    2.5907 H   0  0  0  0  0  0  0  0  0  0  0  0
    3.9541    3.2296    2.0739 H   0  0  0  0  0  0  0  0  0  0  0  0
    5.0106    1.8634    0.1985 H   0  0  0  0  0  0  0  0  0  0  0  0
    4.0870    0.4732    0.7316 H   0  0  0  0  0  0  0  0  0  0  0  0
    6.2562    0.1491    1.6466 H   0  0  0  0  0  0  0  0  0  0  0  0
    5.2491    0.6054    2.9911 H   0  0  0  0  0  0  0  0  0  0  0  0
    7.3974    1.7790    3.2211 H   0  0  0  0  0  0  0  0  0  0  0  0
    6.2106    3.6366    1.0943 H   0  0  0  0  0  0  0  0  0  0  0  0
    7.9739    5.1518    1.8200 H   0  0  0  0  0  0  0  0  0  0  0  0
  1 12  1  0  0  0  0
  1  2  1  0  0  0  0
  2 14  1  0  0  0  0
  2  3  1  0  0  0  0
  3 16  1  0  0  0  0
  3 15  1  0  0  0  0
  4  3  1  0  0  0  0
  4  5  1  0  0  0  0
  5  6  1  0  0  0  0
  5 20  1  0  0  0  0
  6 21  1  0  0  0  0
  7  8  1  0  0  0  0
  7  6  2  0  0  0  0
  8  9  2  0  0  0  0
 10  1  1  0  0  0  0
 11  1  1  0  0  0  0
 13  2  1  0  0  0  0
 17  4  1  0  0  0  0
 18  4  1  0  0  0  0
 19  5  1  0  0  0  0
 22  7  1  0  0  0  0
 23  8  1  0  0  0  0
M  END
>  <HBA>
1

>  <HBD>
0

>  <TPSA>
17.07

>  <cid>
16900

>  <dipole>
3.35

>  <excitation_energy_1>
3.565

>  <excitation_energy_2>
5.384

>  <excitation_energy_3>
6.194

>  <excitation_energy_4>
6.417

>  <homo_energy>
-6.743

>  <homo_lumo_gap>
5.222

>  <logP>
2.322

>  <lumo_energy>
-1.521

>  <melting_point>
13.62

>  <molecular_refractivity>
40.3

>  <oscillator_strength_1>
0.0002

>  <oscillator_strength_2>
0.3187

>  <oscillator_strength_3>
0.0009

>  <oscillator_strength_4>
0.0003

>  <open_babel_can_smiles>
CCCCC/C=C/C=O

>  <mulliken_charges>
23
1   -0.446038
2   -0.249296
3   -0.25309
4   -0.263087
5   -0.316121
6   -0.063909
7   -0.177377
8   0.217929
9   -0.409961
10   0.146134
11   0.14509
12   0.141339
13   0.13083
14   0.134699
15   0.129739
16   0.138066
17   0.142104
18   0.135281
19   0.162185
20   0.155446
21   0.167248
22   0.134106
23   0.098681

>  <lowdin_charges>
23
1   -0.449873
2   -0.274357
3   -0.280068
4   -0.280155
5   -0.276987
6   -0.083511
7   -0.237861
8   0.045211
9   -0.238929
10   0.152571
11   0.147713
12   0.145866
13   0.139365
14   0.145208
15   0.141994
16   0.143012
17   0.144534
18   0.14639
19   0.165428
20   0.158223
21   0.172786
22   0.158929
23   0.11451

$$$$

