PCCDB-ID:  18649
public computational chemistry database (PCCDB) project, http://pccdb.org

 27 27  0  0  0  0  0  0  0  0999 V2000
    3.3909    0.6703    3.6895 C   0  0  0  0  0  0  0  0  0  0  0  0
    4.2012   -0.3405    2.8950 C   0  0  0  0  0  0  0  0  0  0  0  0
    5.2231   -6.0889    2.5435 C   0  0  0  0  0  0  0  0  0  0  0  0
    5.7350   -5.1940    1.4032 C   0  0  0  0  0  0  0  0  0  0  0  0
    4.0878   -5.3943    3.3123 C   0  0  0  0  0  0  0  0  0  0  0  0
    6.1075   -3.7993    1.9424 C   0  0  0  0  0  0  0  0  0  0  0  0
    4.5233   -3.9930    3.7801 C   0  0  0  0  0  0  0  0  0  0  0  0
    4.0046   -2.4997    1.9114 C   0  0  0  0  0  0  0  0  0  0  0  0
    5.0382   -3.1455    2.6974 N   0  0  0  0  0  0  0  0  0  0  0  0
    3.3639   -1.4609    2.6216 O   0  0  0  0  0  0  0  0  0  0  0  0
    3.9971    1.5554    3.9135 H   0  0  0  0  0  0  0  0  0  0  0  0
    3.0540    0.2331    4.6353 H   0  0  0  0  0  0  0  0  0  0  0  0
    2.5071    0.9877    3.1265 H   0  0  0  0  0  0  0  0  0  0  0  0
    5.0904   -0.6623    3.4519 H   0  0  0  0  0  0  0  0  0  0  0  0
    4.5486    0.1005    1.9445 H   0  0  0  0  0  0  0  0  0  0  0  0
    6.0533   -6.2960    3.2359 H   0  0  0  0  0  0  0  0  0  0  0  0
    4.8912   -7.0599    2.1551 H   0  0  0  0  0  0  0  0  0  0  0  0
    4.9579   -5.0957    0.6318 H   0  0  0  0  0  0  0  0  0  0  0  0
    6.6076   -5.6489    0.9160 H   0  0  0  0  0  0  0  0  0  0  0  0
    3.7812   -5.9949    4.1785 H   0  0  0  0  0  0  0  0  0  0  0  0
    3.2044   -5.3093    2.6633 H   0  0  0  0  0  0  0  0  0  0  0  0
    6.4153   -3.1344    1.1267 H   0  0  0  0  0  0  0  0  0  0  0  0
    6.9742   -3.9010    2.6136 H   0  0  0  0  0  0  0  0  0  0  0  0
    5.3177   -4.0953    4.5339 H   0  0  0  0  0  0  0  0  0  0  0  0
    3.6958   -3.4583    4.2566 H   0  0  0  0  0  0  0  0  0  0  0  0
    3.1775   -3.1663    1.6192 H   0  0  0  0  0  0  0  0  0  0  0  0
    4.4768   -2.1126    0.9938 H   0  0  0  0  0  0  0  0  0  0  0  0
  1 11  1  0  0  0  0
  1 12  1  0  0  0  0
  2 14  1  0  0  0  0
  2  1  1  0  0  0  0
  3 16  1  0  0  0  0
  3  5  1  0  0  0  0
  4  6  1  0  0  0  0
  4  3  1  0  0  0  0
  5  7  1  0  0  0  0
  5 20  1  0  0  0  0
  6 23  1  0  0  0  0
  6  9  1  0  0  0  0
  7 25  1  0  0  0  0
  7 24  1  0  0  0  0
  8 10  1  0  0  0  0
  8  9  1  0  0  0  0
  9  7  1  0  0  0  0
 10  2  1  0  0  0  0
 13  1  1  0  0  0  0
 15  2  1  0  0  0  0
 17  3  1  0  0  0  0
 18  4  1  0  0  0  0
 19  4  1  0  0  0  0
 21  5  1  0  0  0  0
 22  6  1  0  0  0  0
 26  8  1  0  0  0  0
 27  8  1  0  0  0  0
M  END
>  <HBA>
2

>  <HBD>
0

>  <TPSA>
12.47

>  <cid>
18649

>  <dipole>
1.26

>  <excitation_energy_1>
5.073

>  <excitation_energy_2>
5.404

>  <excitation_energy_3>
5.519

>  <excitation_energy_4>
5.682

>  <homo_energy>
-5.554

>  <homo_lumo_gap>
7.766

>  <logP>
1.404

>  <lumo_energy>
2.212

>  <melting_point>
-11.63

>  <molecular_refractivity>
46.35

>  <oscillator_strength_1>
0.0203

>  <oscillator_strength_2>
0.0024

>  <oscillator_strength_3>
0.0113

>  <oscillator_strength_4>
0.0048

>  <open_babel_can_smiles>
CCOCN1CCCCC1

>  <mulliken_charges>
27
1   -0.452532
2   -0.010499
3   -0.257759
4   -0.262531
5   -0.267144
6   -0.146576
7   -0.150326
8   0.106947
9   -0.376461
10   -0.473664
11   0.13972
12   0.154598
13   0.153986
14   0.141398
15   0.110574
16   0.127574
17   0.13332
18   0.131698
19   0.130067
20   0.131623
21   0.134493
22   0.136437
23   0.134697
24   0.132445
25   0.156702
26   0.125939
27   0.115277

>  <lowdin_charges>
27
1   -0.44927
2   -0.131338
3   -0.279097
4   -0.296109
5   -0.294784
6   -0.206167
7   -0.20997
8   -0.078707
9   -0.190921
10   -0.273662
11   0.152362
12   0.154901
13   0.154785
14   0.137762
15   0.122258
16   0.137785
17   0.143749
18   0.139341
19   0.145549
20   0.146668
21   0.1403
22   0.145465
23   0.13906
24   0.139764
25   0.156272
26   0.127363
27   0.126642

$$$$

