PCCDB-ID:  61284
public computational chemistry database (PCCDB) project, http://pccdb.org

 29 29  0  0  1  0  0  0  0  0999 V2000
    0.8309    0.0757    0.2361 C   0  0  0  0  0  0  0  0  0  0  0  0
    3.3886    1.8071    1.4757 C   0  0  0  0  0  0  0  0  0  0  0  0
    2.5332    2.4547   -0.7848 C   0  0  0  0  0  0  0  0  0  0  0  0
    3.0785   -1.0525   -0.0613 C   0  0  0  0  0  0  0  0  0  0  0  0
    4.5439   -0.7340   -0.2079 C   0  0  0  0  0  0  0  0  0  0  0  0
    4.7561    1.0165   -2.0592 C   0  0  0  0  0  0  0  0  0  0  0  0
    6.1800    0.7160   -2.5387 C   0  0  0  0  0  0  0  0  0  0  0  0
    2.3191    0.0429    0.0435 C   0  0  0  0  0  0  0  0  0  0  0  0
    4.5514    0.7870   -0.5496 C   0  0  1  0  0  0  0  0  0  0  0  0
    3.1776    1.3138    0.0225 C   0  0  0  0  0  0  0  0  0  0  0  0
    6.3585    1.0019   -3.9233 O   0  0  0  0  0  0  0  0  0  0  0  0
    0.4182   -0.9363    0.3015 H   0  0  0  0  0  0  0  0  0  0  0  0
    0.3252    0.5919   -0.5906 H   0  0  0  0  0  0  0  0  0  0  0  0
    0.5524    0.6105    1.1544 H   0  0  0  0  0  0  0  0  0  0  0  0
    2.4341    2.0494    1.9583 H   0  0  0  0  0  0  0  0  0  0  0  0
    4.0065    2.7137    1.4919 H   0  0  0  0  0  0  0  0  0  0  0  0
    3.8862    1.0451    2.0859 H   0  0  0  0  0  0  0  0  0  0  0  0
    1.6039    2.7829   -0.3047 H   0  0  0  0  0  0  0  0  0  0  0  0
    2.2884    2.1541   -1.8088 H   0  0  0  0  0  0  0  0  0  0  0  0
    3.1963    3.3265   -0.8376 H   0  0  0  0  0  0  0  0  0  0  0  0
    2.7006   -2.0714   -0.0136 H   0  0  0  0  0  0  0  0  0  0  0  0
    5.0293   -1.3388   -0.9846 H   0  0  0  0  0  0  0  0  0  0  0  0
    5.0912   -0.9469    0.7231 H   0  0  0  0  0  0  0  0  0  0  0  0
    4.0439    0.3968   -2.6266 H   0  0  0  0  0  0  0  0  0  0  0  0
    4.5482    2.0580   -2.3269 H   0  0  0  0  0  0  0  0  0  0  0  0
    6.4657   -0.3243   -2.3158 H   0  0  0  0  0  0  0  0  0  0  0  0
    6.8929    1.3631   -2.0153 H   0  0  0  0  0  0  0  0  0  0  0  0
    5.3716    1.2968   -0.0261 H   0  0  0  0  0  0  0  0  0  0  0  0
    5.7617    0.4182   -4.4171 H   0  0  0  0  0  0  0  0  0  0  0  0
  1 12  1  0  0  0  0
  1 14  1  0  0  0  0
  2 16  1  0  0  0  0
  2 15  1  0  0  0  0
  2 17  1  0  0  0  0
  3 18  1  0  0  0  0
  3 10  1  0  0  0  0
  4 21  1  0  0  0  0
  4  8  2  0  0  0  0
  5  4  1  0  0  0  0
  5 23  1  0  0  0  0
  6  9  1  0  0  0  0
  7 26  1  0  0  0  0
  7  6  1  0  0  0  0
  7 27  1  0  0  0  0
  8  1  1  0  0  0  0
  9  5  1  0  0  0  0
  9 28  1  1  0  0  0
  9 10  1  0  0  0  0
 10  8  1  0  0  0  0
 10  2  1  0  0  0  0
 11  7  1  0  0  0  0
 13  1  1  0  0  0  0
 19  3  1  0  0  0  0
 20  3  1  0  0  0  0
 22  5  1  0  0  0  0
 24  6  1  0  0  0  0
 25  6  1  0  0  0  0
 29 11  1  0  0  0  0
M  END
>  <HBA>
1

>  <HBD>
1

>  <TPSA>
20.23

>  <cid>
61284

>  <dipole>
1.84

>  <excitation_energy_1>
5.627

>  <excitation_energy_2>
5.907

>  <excitation_energy_3>
6.019

>  <excitation_energy_4>
6.145

>  <homo_energy>
-6.172

>  <homo_lumo_gap>
7.029

>  <logP>
2.361

>  <lumo_energy>
0.857

>  <melting_point>
43.87

>  <molecular_refractivity>
48.5

>  <oscillator_strength_1>
0.0025

>  <oscillator_strength_2>
0.0037

>  <oscillator_strength_3>
0.0044

>  <oscillator_strength_4>
0.0032

>  <open_babel_can_smiles>
OCC[C@@H]1CC=C(C1(C)C)C

>  <mulliken_charges>
29
1   -0.528699
2   -0.452352
3   -0.467165
4   -0.176518
5   -0.314442
6   -0.29221
7   -0.030689
8   0.193028
9   -0.112961
10   0.044995
11   -0.617322
12   0.153743
13   0.156961
14   0.154267
15   0.139065
16   0.140375
17   0.146045
18   0.140946
19   0.148319
20   0.143904
21   0.113551
22   0.135571
23   0.142458
24   0.122638
25   0.150289
26   0.121651
27   0.143078
28   0.116741
29   0.384733

>  <lowdin_charges>
29
1   -0.442987
2   -0.443464
3   -0.446086
4   -0.194426
5   -0.281419
6   -0.297278
7   -0.136054
8   -0.013783
9   -0.124851
10   0.010542
11   -0.471814
12   0.157472
13   0.158279
14   0.155599
15   0.14622
16   0.146904
17   0.151662
18   0.149598
19   0.149851
20   0.15014
21   0.147562
22   0.144825
23   0.146884
24   0.137262
25   0.150972
26   0.123034
27   0.145887
28   0.138728
29   0.34074

$$$$

