PCCDB-ID:  48807
public computational chemistry database (PCCDB) project, http://pccdb.org

 37 37  0  0  1  0  0  0  0  0999 V2000
    4.5404    1.0509    1.0695 C   0  0  0  0  0  0  0  0  0  0  0  0
    9.8877   -3.2054    0.0295 C   0  0  0  0  0  0  0  0  0  0  0  0
    5.4512   -3.7155    1.1077 C   0  0  0  0  0  0  0  0  0  0  0  0
    3.8618   -0.2561    1.4986 C   0  0  0  0  0  0  0  0  0  0  0  0
    8.4845   -3.1781    0.6476 C   0  0  0  0  0  0  0  0  0  0  0  0
    3.6489   -1.2690    0.3589 C   0  0  0  0  0  0  0  0  0  0  0  0
    4.9206   -1.7262   -0.3834 C   0  0  0  0  0  0  0  0  0  0  0  0
    5.9923   -2.4108    0.4957 C   0  0  2  0  0  0  0  0  0  0  0  0
    7.8304   -1.1723   -0.7200 C   0  0  0  0  0  0  0  0  0  0  0  0
    7.2360   -3.4031   -1.5405 C   0  0  0  0  0  0  0  0  0  0  0  0
    7.5836   -1.6157   -2.9830 C   0  0  0  0  0  0  0  0  0  0  0  0
    7.3765   -2.5635   -0.2709 C   0  0  1  0  0  0  0  0  0  0  0  0
    7.9390   -0.7504   -1.9143 N   0  0  0  0  0  0  0  0  0  0  0  0
    7.3207   -2.9873   -2.7403 N   0  0  0  0  0  0  0  0  0  0  0  0
    8.1390   -0.2899    0.2619 O   0  0  0  0  0  0  0  0  0  0  0  0
    7.0086   -4.7282   -1.3806 O   0  0  0  0  0  0  0  0  0  0  0  0
    7.5199   -1.1803   -4.1101 O   0  0  0  0  0  0  0  0  0  0  0  0
    4.5812    1.7612    1.9029 H   0  0  0  0  0  0  0  0  0  0  0  0
    3.9891    1.5309    0.2518 H   0  0  0  0  0  0  0  0  0  0  0  0
    5.5677    0.8917    0.7229 H   0  0  0  0  0  0  0  0  0  0  0  0
   10.5967   -3.6589    0.7296 H   0  0  0  0  0  0  0  0  0  0  0  0
   10.2463   -2.1984   -0.2061 H   0  0  0  0  0  0  0  0  0  0  0  0
    9.9054   -3.7943   -0.8935 H   0  0  0  0  0  0  0  0  0  0  0  0
    4.6086   -3.4898    1.7677 H   0  0  0  0  0  0  0  0  0  0  0  0
    6.1914   -4.2398    1.7221 H   0  0  0  0  0  0  0  0  0  0  0  0
    5.0732   -4.3994    0.3389 H   0  0  0  0  0  0  0  0  0  0  0  0
    2.8795   -0.0254    1.9314 H   0  0  0  0  0  0  0  0  0  0  0  0
    4.4378   -0.7188    2.3135 H   0  0  0  0  0  0  0  0  0  0  0  0
    8.5058   -2.6263    1.5982 H   0  0  0  0  0  0  0  0  0  0  0  0
    8.2037   -4.1975    0.9335 H   0  0  0  0  0  0  0  0  0  0  0  0
    2.9828   -0.8185   -0.3892 H   0  0  0  0  0  0  0  0  0  0  0  0
    3.1069   -2.1398    0.7501 H   0  0  0  0  0  0  0  0  0  0  0  0
    5.3599   -0.8571   -0.8844 H   0  0  0  0  0  0  0  0  0  0  0  0
    4.6273   -2.4176   -1.1847 H   0  0  0  0  0  0  0  0  0  0  0  0
    6.2153   -1.7424    1.3397 H   0  0  0  0  0  0  0  0  0  0  0  0
    8.0428   -0.7079    1.1316 H   0  0  0  0  0  0  0  0  0  0  0  0
    6.9412   -4.9460   -0.4390 H   0  0  0  0  0  0  0  0  0  0  0  0
  1  4  1  0  0  0  0
  1 18  1  0  0  0  0
  2  5  1  0  0  0  0
  2 21  1  0  0  0  0
  3 25  1  0  0  0  0
  3 24  1  0  0  0  0
  4 27  1  0  0  0  0
  4 28  1  0  0  0  0
  5 30  1  0  0  0  0
  5 29  1  0  0  0  0
  6 32  1  0  0  0  0
  6  4  1  0  0  0  0
  7  6  1  0  0  0  0
  7  8  1  0  0  0  0
  8  3  1  0  0  0  0
  8 35  1  1  0  0  0
  9 12  1  0  0  0  0
  9 15  1  0  0  0  0
 10 16  1  0  0  0  0
 10 12  1  0  0  0  0
 11 14  1  0  0  0  0
 11 13  2  0  0  0  0
 12  8  1  0  0  0  0
 12  5  1  1  0  0  0
 13  9  2  0  0  0  0
 14 10  2  0  0  0  0
 15 36  1  0  0  0  0
 16 37  1  0  0  0  0
 17 11  2  0  0  0  0
 19  1  1  0  0  0  0
 20  1  1  0  0  0  0
 22  2  1  0  0  0  0
 23  2  1  0  0  0  0
 26  3  1  0  0  0  0
 31  6  1  0  0  0  0
 33  7  1  0  0  0  0
 34  7  1  0  0  0  0
M  END
>  <HBA>
5

>  <HBD>
2

>  <TPSA>
75.27

>  <cid>
48807

>  <dipole>
9.88

>  <excitation_energy_1>
3.99

>  <excitation_energy_2>
4.178

>  <excitation_energy_3>
5.225

>  <excitation_energy_4>
5.525

>  <homo_energy>
-6.86

>  <homo_lumo_gap>
5.377

>  <logP>
2.233

>  <lumo_energy>
-1.483

>  <melting_point>
139.58

>  <molecular_refractivity>
71.85

>  <oscillator_strength_1>
0.0001

>  <oscillator_strength_2>
0.0001

>  <oscillator_strength_3>
0.0003

>  <oscillator_strength_4>
0.021

>  <open_babel_can_smiles>
CCCC[C@H]([C@@]1(CC)C(=N[C](=[N]=C1O)=O)O)C

>  <mulliken_charges>
37
1   -0.456564
2   -0.46726
3   -0.509846
4   -0.256713
5   -0.297382
6   -0.265122
7   -0.296724
8   -0.07247
9   0.54419
10   0.537006
11   0.618131
12   -0.133605
13   -0.470195
14   -0.467168
15   -0.582627
16   -0.581366
17   -0.431968
18   0.145652
19   0.152514
20   0.15654
21   0.160999
22   0.181631
23   0.181087
24   0.177844
25   0.148375
26   0.167619
27   0.140521
28   0.122886
29   0.135878
30   0.143616
31   0.146834
32   0.1334
33   0.174189
34   0.158551
35   0.120323
36   0.418712
37   0.42251

>  <lowdin_charges>
37
1   -0.453085
2   -0.453934
3   -0.468453
4   -0.278527
5   -0.274684
6   -0.280459
7   -0.292738
8   -0.120629
9   0.145968
10   0.147714
11   0.17161
12   -0.064614
13   -0.184093
14   -0.184037
15   -0.332407
16   -0.33118
17   -0.210332
18   0.152897
19   0.153679
20   0.149934
21   0.163223
22   0.166071
23   0.167066
24   0.169768
25   0.150981
26   0.159097
27   0.147085
28   0.132896
29   0.141883
30   0.145621
31   0.153027
32   0.141913
33   0.162132
34   0.157173
35   0.137871
36   0.356465
37   0.355095

$$$$

