PCCDB-ID:  22187
public computational chemistry database (PCCDB) project, http://pccdb.org

 27 27  0  0  1  0  0  0  0  0999 V2000
    5.2933    3.3666   -0.6076 C   0  0  0  0  0  0  0  0  0  0  0  0
    4.7168    3.2599    0.8076 C   0  0  0  0  0  0  0  0  0  0  0  0
    1.7058    5.3816    4.5934 C   0  0  0  0  0  0  0  0  0  0  0  0
    3.0517    5.0158    4.6693 C   0  0  0  0  0  0  0  0  0  0  0  0
    0.8294    4.6245    3.8149 C   0  0  0  0  0  0  0  0  0  0  0  0
    3.5150    3.9031    3.9674 C   0  0  0  0  0  0  0  0  0  0  0  0
    1.2961    3.5128    3.1104 C   0  0  0  0  0  0  0  0  0  0  0  0
    2.6473    3.1403    3.1730 C   0  0  0  0  0  0  0  0  0  0  0  0
    3.5567    2.2605    0.9113 C   0  0  1  0  0  0  0  0  0  0  0  0
    3.1651    1.9480    2.3881 C   0  0  2  0  0  0  0  0  0  0  0  0
    2.4401    2.6871    0.0690 N   0  0  0  0  0  0  0  0  0  0  0  0
    2.1862    0.9081    2.2920 O   0  0  0  0  0  0  0  0  0  0  0  0
    6.1029    4.1045   -0.6475 H   0  0  0  0  0  0  0  0  0  0  0  0
    4.5170    3.6600   -1.3194 H   0  0  0  0  0  0  0  0  0  0  0  0
    5.7012    2.4039   -0.9398 H   0  0  0  0  0  0  0  0  0  0  0  0
    4.3710    4.2479    1.1421 H   0  0  0  0  0  0  0  0  0  0  0  0
    5.5095    2.9610    1.5077 H   0  0  0  0  0  0  0  0  0  0  0  0
    1.3424    6.2454    5.1435 H   0  0  0  0  0  0  0  0  0  0  0  0
    3.7396    5.5926    5.2820 H   0  0  0  0  0  0  0  0  0  0  0  0
   -0.2215    4.8966    3.7572 H   0  0  0  0  0  0  0  0  0  0  0  0
    4.5621    3.6175    4.0409 H   0  0  0  0  0  0  0  0  0  0  0  0
    0.6098    2.9136    2.5199 H   0  0  0  0  0  0  0  0  0  0  0  0
    3.8965    1.2953    0.5099 H   0  0  0  0  0  0  0  0  0  0  0  0
    4.0685    1.5660    2.8918 H   0  0  0  0  0  0  0  0  0  0  0  0
    2.0531    3.5600    0.4294 H   0  0  0  0  0  0  0  0  0  0  0  0
    1.6973    1.9931    0.1371 H   0  0  0  0  0  0  0  0  0  0  0  0
    1.8535    0.7342    3.1866 H   0  0  0  0  0  0  0  0  0  0  0  0
  1  2  1  0  0  0  0
  2  9  1  0  0  0  0
  2 16  1  0  0  0  0
  2 17  1  0  0  0  0
  3  4  1  0  0  0  0
  3 18  1  0  0  0  0
  4 19  1  0  0  0  0
  5  3  2  0  0  0  0
  6 21  1  0  0  0  0
  6  4  2  0  0  0  0
  7  8  2  0  0  0  0
  7  5  1  0  0  0  0
  8  6  1  0  0  0  0
  9 23  1  6  0  0  0
  9 10  1  0  0  0  0
 10 24  1  1  0  0  0
 10  8  1  0  0  0  0
 11 26  1  0  0  0  0
 11 25  1  0  0  0  0
 11  9  1  0  0  0  0
 12 10  1  0  0  0  0
 12 27  1  0  0  0  0
 13  1  1  0  0  0  0
 14  1  1  0  0  0  0
 15  1  1  0  0  0  0
 20  5  1  0  0  0  0
 22  7  1  0  0  0  0
M  END
>  <HBA>
2

>  <HBD>
2

>  <TPSA>
46.25

>  <cid>
22187

>  <dipole>
2.57

>  <excitation_energy_1>
5.097

>  <excitation_energy_2>
5.146

>  <excitation_energy_3>
5.455

>  <excitation_energy_4>
5.575

>  <homo_energy>
-6.112

>  <homo_lumo_gap>
5.897

>  <logP>
2.158

>  <lumo_energy>
-0.215

>  <melting_point>
78.02

>  <molecular_refractivity>
49.7

>  <oscillator_strength_1>
0.0516

>  <oscillator_strength_2>
0.004

>  <oscillator_strength_3>
0.0405

>  <oscillator_strength_4>
0.0048

>  <open_babel_can_smiles>
CC[C@@H]([C@@H](c1ccccc1)O)N

>  <mulliken_charges>
27
1   -0.437565
2   -0.260375
3   -0.128633
4   -0.130632
5   -0.128804
6   -0.179989
7   -0.197201
8   0.114819
9   0.025384
10   0.065009
11   -0.718206
12   -0.639129
13   0.133593
14   0.170616
15   0.13698
16   0.136651
17   0.12357
18   0.131522
19   0.13212
20   0.131948
21   0.129091
22   0.135902
23   0.14105
24   0.113358
25   0.294282
26   0.31221
27   0.392429

>  <lowdin_charges>
27
1   -0.444761
2   -0.279773
3   -0.157809
4   -0.156318
5   -0.154174
6   -0.163371
7   -0.178561
8   -0.029506
9   -0.069433
10   -0.023203
11   -0.546402
12   -0.463028
13   0.14586
14   0.162387
15   0.144999
16   0.143173
17   0.138927
18   0.159138
19   0.160222
20   0.156926
21   0.155208
22   0.161962
23   0.146541
24   0.131874
25   0.252923
26   0.262181
27   0.344017

$$$$

