PCCDB-ID:  50920
public computational chemistry database (PCCDB) project, http://pccdb.org

 23 24  0  0  0  0  0  0  0  0999 V2000
    2.1561    0.3690   -1.2997 C   0  0  0  0  0  0  0  0  0  0  0  0
    4.0664    0.3330    1.8097 C   0  0  0  0  0  0  0  0  0  0  0  0
    4.5017    1.1842    2.8215 C   0  0  0  0  0  0  0  0  0  0  0  0
    2.9813    2.1942    0.6864 C   0  0  0  0  0  0  0  0  0  0  0  0
    4.8108    4.7170    3.4431 C   0  0  0  0  0  0  0  0  0  0  0  0
    3.3093    0.8343    0.7411 C   0  0  0  0  0  0  0  0  0  0  0  0
    3.4185    3.0303    1.7161 C   0  0  0  0  0  0  0  0  0  0  0  0
    4.1786    2.5367    2.7847 C   0  0  0  0  0  0  0  0  0  0  0  0
    3.7454    5.3112    2.5337 C   0  0  0  0  0  0  0  0  0  0  0  0
    3.1079    4.3953    1.7609 N   0  0  0  0  0  0  0  0  0  0  0  0
    3.4919    6.5122    2.4344 O   0  0  0  0  0  0  0  0  0  0  0  0
    2.2025    4.8916    0.8243 O   0  0  0  0  0  0  0  0  0  0  0  0
    2.9361   -0.0789   -0.2024 O   0  0  0  0  0  0  0  0  0  0  0  0
    4.5440    3.3697    3.8211 O   0  0  0  0  0  0  0  0  0  0  0  0
    1.9712   -0.5134   -1.9148 H   0  0  0  0  0  0  0  0  0  0  0  0
    2.6912    1.1205   -1.8955 H   0  0  0  0  0  0  0  0  0  0  0  0
    1.1968    0.7882   -0.9687 H   0  0  0  0  0  0  0  0  0  0  0  0
    4.3071   -0.7245    1.8263 H   0  0  0  0  0  0  0  0  0  0  0  0
    5.0865    0.8104    3.6558 H   0  0  0  0  0  0  0  0  0  0  0  0
    2.3938    2.6169   -0.1165 H   0  0  0  0  0  0  0  0  0  0  0  0
    4.8491    5.3035    4.3621 H   0  0  0  0  0  0  0  0  0  0  0  0
    5.7863    4.7958    2.9360 H   0  0  0  0  0  0  0  0  0  0  0  0
    2.2850    5.8602    0.9960 H   0  0  0  0  0  0  0  0  0  0  0  0
  1 17  1  0  0  0  0
  1 13  1  0  0  0  0
  2 18  1  0  0  0  0
  2  3  2  0  0  0  0
  3 19  1  0  0  0  0
  4  6  2  0  0  0  0
  4  7  1  0  0  0  0
  5 14  1  0  0  0  0
  5 21  1  0  0  0  0
  6  2  1  0  0  0  0
  7 10  1  0  0  0  0
  7  8  2  0  0  0  0
  8  3  1  0  0  0  0
  8 14  1  0  0  0  0
  9  5  1  0  0  0  0
 10  9  1  0  0  0  0
 11  9  2  0  0  0  0
 12 23  1  0  0  0  0
 12 10  1  0  0  0  0
 13  6  1  0  0  0  0
 15  1  1  0  0  0  0
 16  1  1  0  0  0  0
 20  4  1  0  0  0  0
 22  5  1  0  0  0  0
M  END
>  <HBA>
5

>  <HBD>
1

>  <TPSA>
59.0

>  <cid>
50920

>  <dipole>
1.83

>  <excitation_energy_1>
4.158

>  <excitation_energy_2>
4.776

>  <excitation_energy_3>
5.015

>  <excitation_energy_4>
5.228

>  <homo_energy>
-5.513

>  <homo_lumo_gap>
4.795

>  <logP>
0.875

>  <lumo_energy>
-0.718

>  <melting_point>
123.42

>  <molecular_refractivity>
50.58

>  <oscillator_strength_1>
0.114

>  <oscillator_strength_2>
0.0063

>  <oscillator_strength_3>
0.0039

>  <oscillator_strength_4>
0.134

>  <open_babel_can_smiles>
COc1ccc2c(c1)N(O)C(=O)CO2

>  <mulliken_charges>
23
1   -0.215755
2   -0.178142
3   -0.188769
4   -0.256191
5   -0.128567
6   0.384705
7   0.342688
8   0.302945
9   0.568784
10   -0.289186
11   -0.533742
12   -0.518992
13   -0.511739
14   -0.524582
15   0.17211
16   0.153715
17   0.156043
18   0.143447
19   0.148478
20   0.167772
21   0.195954
22   0.174125
23   0.434898

>  <lowdin_charges>
23
1   -0.279369
2   -0.183379
3   -0.162076
4   -0.227295
5   -0.140628
6   0.101541
7   0.026373
8   0.058219
9   0.123959
10   0.063734
11   -0.308978
12   -0.362063
13   -0.196924
14   -0.206884
15   0.164916
16   0.147475
17   0.147089
18   0.16972
19   0.173759
20   0.183217
21   0.182775
22   0.159823
23   0.364995

$$$$

