PCCDB-ID:  13606
public computational chemistry database (PCCDB) project, http://pccdb.org

 13 13  0  0  0  0  0  0  0  0999 V2000
    0.9912   -0.0004    0.2579 C   0  0  0  0  0  0  0  0  0  0  0  0
    6.3284    0.0364   -0.1449 C   0  0  0  0  0  0  0  0  0  0  0  0
    5.6395   -1.1777   -0.0949 C   0  0  0  0  0  0  0  0  0  0  0  0
    5.6231    1.2408   -0.0917 C   0  0  0  0  0  0  0  0  0  0  0  0
    4.2504   -1.1953    0.0085 C   0  0  0  0  0  0  0  0  0  0  0  0
    4.2340    1.2394    0.0129 C   0  0  0  0  0  0  0  0  0  0  0  0
    3.5507    0.0173    0.0626 C   0  0  0  0  0  0  0  0  0  0  0  0
    2.1691    0.0078    0.1677 N   0  0  0  0  0  0  0  0  0  0  0  0
    7.4115    0.0438   -0.2265 H   0  0  0  0  0  0  0  0  0  0  0  0
    6.1843   -2.1164   -0.1363 H   0  0  0  0  0  0  0  0  0  0  0  0
    6.1552    2.1869   -0.1297 H   0  0  0  0  0  0  0  0  0  0  0  0
    3.7002   -2.1294    0.0500 H   0  0  0  0  0  0  0  0  0  0  0  0
    3.6711    2.1659    0.0567 H   0  0  0  0  0  0  0  0  0  0  0  0
  2  3  2  0  0  0  0
  2  4  1  0  0  0  0
  3  5  1  0  0  0  0
  4  6  2  0  0  0  0
  5 12  1  0  0  0  0
  5  7  2  0  0  0  0
  6 13  1  0  0  0  0
  6  7  1  0  0  0  0
  7  8  1  0  0  0  0
  8  1  3  0  0  0  0
  9  2  1  0  0  0  0
 10  3  1  0  0  0  0
 11  4  1  0  0  0  0
M  RAD  1   1   2
M  END
>  <HBA>
0

>  <HBD>
0

>  <TPSA>
0.0

>  <cid>
13606

>  <dipole>
3.87

>  <excitation_energy_1>
5.096

>  <excitation_energy_2>
5.491

>  <excitation_energy_3>
6.326

>  <excitation_energy_4>
6.351

>  <homo_energy>
-7.023

>  <homo_lumo_gap>
5.894

>  <logP>
1.468

>  <lumo_energy>
-1.129

>  <melting_point>
56.86

>  <molecular_refractivity>
31.48

>  <oscillator_strength_1>
0.0015

>  <oscillator_strength_2>
0.2515

>  <oscillator_strength_3>
0.0

>  <oscillator_strength_4>
0.0253

>  <open_babel_can_smiles>
[C]#[N]c1ccccc1

>  <mulliken_charges>
13
1   -0.075048
2   -0.116928
3   -0.142082
4   -0.141971
5   -0.118696
6   -0.118749
7   0.282574
8   -0.317796
9   0.141998
10   0.145273
11   0.145245
12   0.158084
13   0.158096

>  <lowdin_charges>
13
1   -0.090742
2   -0.146102
3   -0.146691
4   -0.146591
5   -0.151472
6   -0.151561
7   0.045638
8   -0.056483
9   0.162444
10   0.166174
11   0.166095
12   0.174609
13   0.174681

$$$$

