PCCDB-ID:  42652
public computational chemistry database (PCCDB) project, http://pccdb.org

 22 23  0  0  0  0  0  0  0  0999 V2000
   -1.3269   -0.1851    0.3251 C   0  0  0  0  0  0  0  0  0  0  0  0
    0.8826   -0.3530   -0.2405 C   0  0  0  0  0  0  0  0  0  0  0  0
   -2.6924    2.7314    0.5676 C   0  0  0  0  0  0  0  0  0  0  0  0
    0.4832    6.0809   -0.3889 C   0  0  0  0  0  0  0  0  0  0  0  0
   -0.2533   -1.0790    0.0818 C   0  0  0  0  0  0  0  0  0  0  0  0
   -0.8161    1.0859    0.1444 C   0  0  0  0  0  0  0  0  0  0  0  0
   -1.3955    2.4171    0.2433 C   0  0  0  0  0  0  0  0  0  0  0  0
   -1.2177    4.6274    0.1137 C   0  0  0  0  0  0  0  0  0  0  0  0
    0.5209    0.9532   -0.1967 N   0  0  0  0  0  0  0  0  0  0  0  0
   -0.7407    5.9129   -0.0596 N   0  0  0  0  0  0  0  0  0  0  0  0
   -0.5707    3.4973   -0.0113 N   0  0  0  0  0  0  0  0  0  0  0  0
   -0.3077   -2.5068    0.1504 N   0  0  0  0  0  0  0  0  0  0  0  0
    0.9962    7.2992   -0.5697 O   0  0  0  0  0  0  0  0  0  0  0  0
   -1.3898   -3.0222    0.4450 O   0  0  0  0  0  0  0  0  0  0  0  0
    0.7308   -3.1329   -0.0894 O   0  0  0  0  0  0  0  0  0  0  0  0
   -2.9089    4.4478    0.5593 S   0  0  0  0  0  0  0  0  0  0  0  0
   -2.3336   -0.4632    0.5962 H   0  0  0  0  0  0  0  0  0  0  0  0
    1.8779   -0.6875   -0.4849 H   0  0  0  0  0  0  0  0  0  0  0  0
   -3.5052    2.0597    0.8038 H   0  0  0  0  0  0  0  0  0  0  0  0
    1.2198    5.2949   -0.5537 H   0  0  0  0  0  0  0  0  0  0  0  0
    1.1077    1.7555   -0.3812 H   0  0  0  0  0  0  0  0  0  0  0  0
    0.2773    7.9412   -0.4067 H   0  0  0  0  0  0  0  0  0  0  0  0
  1 17  1  0  0  0  0
  2  9  1  0  0  0  0
  2  5  2  0  0  0  0
  3 19  1  0  0  0  0
  4 10  2  0  0  0  0
  5 12  1  0  0  0  0
  5  1  1  0  0  0  0
  6  7  1  0  0  0  0
  6  1  2  0  0  0  0
  7  3  2  0  0  0  0
  8 16  1  0  0  0  0
  9  6  1  0  0  0  0
 10  8  1  0  0  0  0
 11  8  2  0  0  0  0
 11  7  1  0  0  0  0
 12 14  2  0  0  0  0
 13 22  1  0  0  0  0
 13  4  1  0  0  0  0
 15 12  2  0  0  0  0
 16  3  1  0  0  0  0
 18  2  1  0  0  0  0
 20  4  1  0  0  0  0
 21  9  1  0  0  0  0
M  END
>  <HBA>
4

>  <HBD>
2

>  <TPSA>
131.84

>  <cid>
42652

>  <dipole>
7.13

>  <excitation_energy_1>
3.321

>  <excitation_energy_2>
3.649

>  <excitation_energy_3>
3.848

>  <excitation_energy_4>
4.381

>  <homo_energy>
-5.875

>  <homo_lumo_gap>
4.019

>  <logP>
2.847

>  <lumo_energy>
-1.856

>  <melting_point>
199.34

>  <molecular_refractivity>
60.62

>  <oscillator_strength_1>
0.0352

>  <oscillator_strength_2>
0.117

>  <oscillator_strength_3>
0.0

>  <oscillator_strength_4>
0.0004

>  <open_babel_can_smiles>
O/C=N/c1scc(n1)c1[nH]cc(c1)N(=O)=O

>  <mulliken_charges>
22
1   -0.217435
2   0.087914
3   -0.404837
4   0.315571
5   0.236843
6   0.293395
7   0.324396
8   0.275067
9   -0.638889
10   -0.489513
11   -0.533036
12   0.331884
13   -0.532816
14   -0.408209
15   -0.419275
16   0.276443
17   0.165547
18   0.192571
19   0.186847
20   0.182478
21   0.352856
22   0.4222

>  <lowdin_charges>
22
1   -0.193521
2   -0.109134
3   -0.347386
4   0.055588
5   -0.037233
6   0.014064
7   0.021218
8   -0.039902
9   -0.144445
10   -0.212131
11   -0.212644
12   0.315574
13   -0.31943
14   -0.261081
15   -0.270078
16   0.333185
17   0.183862
18   0.19082
19   0.193854
20   0.165533
21   0.304589
22   0.368699

$$$$

