PCCDB-ID:  7590
public computational chemistry database (PCCDB) project, http://pccdb.org

 24 24  0  0  0  0  0  0  0  0999 V2000
    4.6321    2.8684   -3.1501 C   0  0  0  0  0  0  0  0  0  0  0  0
    3.6295    2.3267   -2.1429 C   0  0  0  0  0  0  0  0  0  0  0  0
    2.4482   -2.3427    2.5143 C   0  0  0  0  0  0  0  0  0  0  0  0
    2.8046   -2.7865    1.2385 C   0  0  0  0  0  0  0  0  0  0  0  0
    3.0098   -1.1690    3.0177 C   0  0  0  0  0  0  0  0  0  0  0  0
    3.7194   -2.0641    0.4737 C   0  0  0  0  0  0  0  0  0  0  0  0
    3.9241   -0.4446    2.2497 C   0  0  0  0  0  0  0  0  0  0  0  0
    5.2931   -0.1039    0.1378 C   0  0  0  0  0  0  0  0  0  0  0  0
    4.2908   -0.8859    0.9740 C   0  0  0  0  0  0  0  0  0  0  0  0
    4.6578    0.4224   -1.1407 C   0  0  0  0  0  0  0  0  0  0  0  0
    4.4700   -0.2424   -2.1379 O   0  0  0  0  0  0  0  0  0  0  0  0
    4.2978    1.7172   -1.0101 O   0  0  0  0  0  0  0  0  0  0  0  0
    4.1046    3.3906   -3.9567 H   0  0  0  0  0  0  0  0  0  0  0  0
    5.2121    2.0532   -3.5917 H   0  0  0  0  0  0  0  0  0  0  0  0
    5.3190    3.5760   -2.6742 H   0  0  0  0  0  0  0  0  0  0  0  0
    2.9680    1.5868   -2.6000 H   0  0  0  0  0  0  0  0  0  0  0  0
    3.0304    3.1273   -1.7020 H   0  0  0  0  0  0  0  0  0  0  0  0
    1.7372   -2.9083    3.1107 H   0  0  0  0  0  0  0  0  0  0  0  0
    2.3702   -3.6987    0.8378 H   0  0  0  0  0  0  0  0  0  0  0  0
    2.7386   -0.8154    4.0090 H   0  0  0  0  0  0  0  0  0  0  0  0
    3.9878   -2.4027   -0.5230 H   0  0  0  0  0  0  0  0  0  0  0  0
    4.3579    0.4705    2.6459 H   0  0  0  0  0  0  0  0  0  0  0  0
    6.1206   -0.7555   -0.1637 H   0  0  0  0  0  0  0  0  0  0  0  0
    5.6996    0.7307    0.7144 H   0  0  0  0  0  0  0  0  0  0  0  0
  1 15  1  0  0  0  0
  1  2  1  0  0  0  0
  2 17  1  0  0  0  0
  2 12  1  0  0  0  0
  3  5  1  0  0  0  0
  3 18  1  0  0  0  0
  4  3  2  0  0  0  0
  5 20  1  0  0  0  0
  6  9  2  0  0  0  0
  6  4  1  0  0  0  0
  7 22  1  0  0  0  0
  7  5  2  0  0  0  0
  8 24  1  0  0  0  0
  8  9  1  0  0  0  0
  9  7  1  0  0  0  0
 10 12  1  0  0  0  0
 10  8  1  0  0  0  0
 11 10  2  0  0  0  0
 13  1  1  0  0  0  0
 14  1  1  0  0  0  0
 16  2  1  0  0  0  0
 19  4  1  0  0  0  0
 21  6  1  0  0  0  0
 23  8  1  0  0  0  0
M  END
>  <HBA>
2

>  <HBD>
0

>  <TPSA>
26.3

>  <cid>
7590

>  <dipole>
1.59

>  <excitation_energy_1>
5.256

>  <excitation_energy_2>
5.439

>  <excitation_energy_3>
5.859

>  <excitation_energy_4>
6.061

>  <homo_energy>
-6.544

>  <homo_lumo_gap>
6.343

>  <logP>
1.792

>  <lumo_energy>
-0.201

>  <melting_point>
17.6

>  <molecular_refractivity>
47.11

>  <oscillator_strength_1>
0.0002

>  <oscillator_strength_2>
0.0611

>  <oscillator_strength_3>
0.0138

>  <oscillator_strength_4>
0.0247

>  <open_babel_can_smiles>
CCOC(=O)Cc1ccccc1

>  <mulliken_charges>
24
1   -0.461969
2   -0.046123
3   -0.12877
4   -0.12971
5   -0.128633
6   -0.16953
7   -0.180038
8   -0.421541
9   0.147694
10   0.622672
11   -0.476106
12   -0.454777
13   0.150843
14   0.176714
15   0.156768
16   0.171838
17   0.153688
18   0.129262
19   0.131799
20   0.129625
21   0.15144
22   0.126637
23   0.180684
24   0.167534

>  <lowdin_charges>
24
1   -0.45811
2   -0.130969
3   -0.159677
4   -0.153065
5   -0.154831
6   -0.160092
7   -0.165551
8   -0.294162
9   -0.002395
10   0.204075
11   -0.274463
12   -0.19291
13   0.160152
14   0.166669
15   0.157074
16   0.160978
17   0.154292
18   0.158968
19   0.158834
20   0.157212
21   0.167553
22   0.156376
23   0.175967
24   0.168075

$$$$

