PCCDB-ID:  39409
public computational chemistry database (PCCDB) project, http://pccdb.org

 28 28  0  0  0  0  0  0  0  0999 V2000
    0.5165    0.0638    0.5669 C   0  0  0  0  0  0  0  0  0  0  0  0
   -1.3472    1.2820   -0.3710 C   0  0  0  0  0  0  0  0  0  0  0  0
   -0.2859   -1.0583    0.7309 C   0  0  0  0  0  0  0  0  0  0  0  0
   -2.1582    0.1681   -0.2136 C   0  0  0  0  0  0  0  0  0  0  0  0
    0.9013    2.4080   -0.1155 C   0  0  0  0  0  0  0  0  0  0  0  0
    0.5582    3.6735   -0.4306 C   0  0  0  0  0  0  0  0  0  0  0  0
    0.0022    6.5216    0.0388 C   0  0  0  0  0  0  0  0  0  0  0  0
    0.2454    7.8557    0.7574 C   0  0  0  0  0  0  0  0  0  0  0  0
   -2.4712   -2.1655    0.5033 C   0  0  0  0  0  0  0  0  0  0  0  0
    0.0054    1.2568    0.0225 C   0  0  0  0  0  0  0  0  0  0  0  0
   -1.6342   -1.0138    0.3419 C   0  0  0  0  0  0  0  0  0  0  0  0
    1.5295    4.7810   -0.5499 C   0  0  0  0  0  0  0  0  0  0  0  0
   -3.1515   -3.1002    0.6342 N   0  0  0  0  0  0  0  0  0  0  0  0
    1.2981    6.0212   -0.3946 N   0  0  0  0  0  0  0  0  0  0  0  0
    0.9824    8.7371   -0.0631 O   0  0  0  0  0  0  0  0  0  0  0  0
    2.8221    4.4322   -0.8399 O   0  0  0  0  0  0  0  0  0  0  0  0
    1.5587    0.0222    0.8724 H   0  0  0  0  0  0  0  0  0  0  0  0
   -1.7676    2.1782   -0.8160 H   0  0  0  0  0  0  0  0  0  0  0  0
    0.1214   -1.9694    1.1567 H   0  0  0  0  0  0  0  0  0  0  0  0
   -3.1981    0.1990   -0.5218 H   0  0  0  0  0  0  0  0  0  0  0  0
    1.9480    2.1967    0.1031 H   0  0  0  0  0  0  0  0  0  0  0  0
   -0.4830    3.9407   -0.5818 H   0  0  0  0  0  0  0  0  0  0  0  0
   -0.6192    6.7176   -0.8475 H   0  0  0  0  0  0  0  0  0  0  0  0
   -0.5464    5.8330    0.6991 H   0  0  0  0  0  0  0  0  0  0  0  0
    0.7646    7.6588    1.7107 H   0  0  0  0  0  0  0  0  0  0  0  0
   -0.7090    8.3415    0.9879 H   0  0  0  0  0  0  0  0  0  0  0  0
    1.7211    8.1968   -0.3994 H   0  0  0  0  0  0  0  0  0  0  0  0
    2.8197    3.5649   -1.2743 H   0  0  0  0  0  0  0  0  0  0  0  0
  1  3  1  0  0  0  0
  1 17  1  0  0  0  0
  2  4  2  0  0  0  0
  2 10  1  0  0  0  0
  3 19  1  0  0  0  0
  4 11  1  0  0  0  0
  5 10  1  0  0  0  0
  5 21  1  0  0  0  0
  6  5  2  0  0  0  0
  7 24  1  0  0  0  0
  7  8  1  0  0  0  0
  8 26  1  0  0  0  0
  8 25  1  0  0  0  0
  9 13  3  0  0  0  0
 10  1  2  0  0  0  0
 11  9  1  0  0  0  0
 11  3  2  0  0  0  0
 12  6  1  0  0  0  0
 12 14  2  0  0  0  0
 14  7  1  0  0  0  0
 15  8  1  0  0  0  0
 16 12  1  0  0  0  0
 18  2  1  0  0  0  0
 20  4  1  0  0  0  0
 22  6  1  0  0  0  0
 23  7  1  0  0  0  0
 27 15  1  0  0  0  0
 28 16  1  0  0  0  0
M  END
>  <HBA>
4

>  <HBD>
2

>  <TPSA>
73.12

>  <cid>
39409

>  <dipole>
2.15

>  <excitation_energy_1>
3.593

>  <excitation_energy_2>
3.892

>  <excitation_energy_3>
4.123

>  <excitation_energy_4>
4.468

>  <homo_energy>
-6.716

>  <homo_lumo_gap>
4.041

>  <logP>
1.071

>  <lumo_energy>
-2.675

>  <melting_point>
130.77

>  <molecular_refractivity>
59.83

>  <oscillator_strength_1>
0.0843

>  <oscillator_strength_2>
0.4849

>  <oscillator_strength_3>
0.1692

>  <oscillator_strength_4>
0.0096

>  <open_babel_can_smiles>
OCC/N=C(\C=C\c1ccc(cc1)C#N)/O

>  <mulliken_charges>
28
1   -0.196377
2   -0.182391
3   -0.136206
4   -0.136047
5   -0.193535
6   -0.183577
7   -0.164133
8   -0.012665
9   0.240844
10   0.18217
11   0.133083
12   0.484962
13   -0.469409
14   -0.447791
15   -0.626339
16   -0.586417
17   0.151024
18   0.149415
19   0.167877
20   0.167613
21   0.147124
22   0.161036
23   0.155021
24   0.125834
25   0.121222
26   0.13649
27   0.407249
28   0.403924

>  <lowdin_charges>
28
1   -0.146853
2   -0.145691
3   -0.128191
4   -0.125647
5   -0.141761
6   -0.18757
7   -0.226799
8   -0.135169
9   -0.013635
10   0.007448
11   -0.014651
12   0.125373
13   -0.107801
14   -0.19885
15   -0.470746
16   -0.368128
17   0.16653
18   0.168277
19   0.179029
20   0.176982
21   0.161205
22   0.170106
23   0.15177
24   0.135668
25   0.125801
26   0.143808
27   0.345144
28   0.354351

$$$$

