PCCDB-ID:  73249
public computational chemistry database (PCCDB) project, http://pccdb.org

 31 33  0  0  0  0  0  0  0  0999 V2000
    2.0388    0.5234   -3.5034 C   0  0  0  0  0  0  0  0  0  0  0  0
    4.3826    2.3649    0.6089 C   0  0  0  0  0  0  0  0  0  0  0  0
    2.8620   -7.7507   -1.8222 C   0  0  0  0  0  0  0  0  0  0  0  0
    2.2382   -7.1433   -2.9276 C   0  0  0  0  0  0  0  0  0  0  0  0
    3.4511   -6.9927   -0.8123 C   0  0  0  0  0  0  0  0  0  0  0  0
    2.1844   -5.7551   -3.0583 C   0  0  0  0  0  0  0  0  0  0  0  0
    3.2166    1.4817   -1.4692 C   0  0  0  0  0  0  0  0  0  0  0  0
    2.7785    0.3809   -2.2003 C   0  0  0  0  0  0  0  0  0  0  0  0
    3.8969    1.2395   -0.2657 C   0  0  0  0  0  0  0  0  0  0  0  0
    3.4087   -5.5986   -0.9223 C   0  0  0  0  0  0  0  0  0  0  0  0
    2.7751   -5.0045   -2.0444 C   0  0  0  0  0  0  0  0  0  0  0  0
    3.6596   -1.0003   -0.6098 C   0  0  0  0  0  0  0  0  0  0  0  0
    3.5903   -3.4934   -0.6608 C   0  0  0  0  0  0  0  0  0  0  0  0
    2.9987   -0.8754   -1.7721 N   0  0  0  0  0  0  0  0  0  0  0  0
    4.1231   -0.0027    0.1671 N   0  0  0  0  0  0  0  0  0  0  0  0
    3.9111   -4.6226   -0.0709 N   0  0  0  0  0  0  0  0  0  0  0  0
    2.9118   -3.6380   -1.8421 N   0  0  0  0  0  0  0  0  0  0  0  0
    3.9154   -2.2610   -0.1245 N   0  0  0  0  0  0  0  0  0  0  0  0
    1.9200    1.5722   -3.7878 H   0  0  0  0  0  0  0  0  0  0  0  0
    1.0457    0.0658   -3.4275 H   0  0  0  0  0  0  0  0  0  0  0  0
    2.5756    0.0009   -4.3033 H   0  0  0  0  0  0  0  0  0  0  0  0
    4.6351    3.2518    0.0197 H   0  0  0  0  0  0  0  0  0  0  0  0
    5.2548    2.0460    1.1845 H   0  0  0  0  0  0  0  0  0  0  0  0
    3.5995    2.6516    1.3228 H   0  0  0  0  0  0  0  0  0  0  0  0
    2.8818   -8.8352   -1.7563 H   0  0  0  0  0  0  0  0  0  0  0  0
    1.7897   -7.7665   -3.6964 H   0  0  0  0  0  0  0  0  0  0  0  0
    3.9352   -7.4586    0.0406 H   0  0  0  0  0  0  0  0  0  0  0  0
    1.7035   -5.2864   -3.9124 H   0  0  0  0  0  0  0  0  0  0  0  0
    3.0402    2.4929   -1.8191 H   0  0  0  0  0  0  0  0  0  0  0  0
    2.6073   -2.8432   -2.3927 H   0  0  0  0  0  0  0  0  0  0  0  0
    4.4163   -2.2996    0.7538 H   0  0  0  0  0  0  0  0  0  0  0  0
  1 20  1  0  0  0  0
  1  8  1  0  0  0  0
  2 23  1  0  0  0  0
  2 24  1  0  0  0  0
  3 25  1  0  0  0  0
  3  5  2  0  0  0  0
  4  3  1  0  0  0  0
  5 27  1  0  0  0  0
  6  4  2  0  0  0  0
  6 11  1  0  0  0  0
  7  9  1  0  0  0  0
  8 14  1  0  0  0  0
  8  7  2  0  0  0  0
  9 15  2  0  0  0  0
  9  2  1  0  0  0  0
 10  5  1  0  0  0  0
 10 16  1  0  0  0  0
 11 17  1  0  0  0  0
 11 10  2  0  0  0  0
 12 18  1  0  0  0  0
 12 15  1  0  0  0  0
 13 18  1  0  0  0  0
 13 16  2  0  0  0  0
 14 12  2  0  0  0  0
 17 13  1  0  0  0  0
 18 31  1  0  0  0  0
 19  1  1  0  0  0  0
 21  1  1  0  0  0  0
 22  2  1  0  0  0  0
 26  4  1  0  0  0  0
 28  6  1  0  0  0  0
 29  7  1  0  0  0  0
 30 17  1  0  0  0  0
M  END
>  <HBA>
3

>  <HBD>
2

>  <TPSA>
66.49

>  <cid>
73249

>  <dipole>
5.67

>  <excitation_energy_1>
3.542

>  <excitation_energy_2>
4.144

>  <excitation_energy_3>
4.203

>  <excitation_energy_4>
4.6

>  <homo_energy>
-5.298

>  <homo_lumo_gap>
4.114

>  <logP>
2.786

>  <lumo_energy>
-1.184

>  <melting_point>
226.25

>  <molecular_refractivity>
71.16

>  <oscillator_strength_1>
0.0124

>  <oscillator_strength_2>
0.2796

>  <oscillator_strength_3>
0.3689

>  <oscillator_strength_4>
0.014

>  <open_babel_can_smiles>
Cc1cc(C)nc(n1)Nc1nc2c([nH]1)cccc2

>  <mulliken_charges>
31
1   -0.518162
2   -0.518921
3   -0.141609
4   -0.153662
5   -0.194046
6   -0.175311
7   -0.240245
8   0.352055
9   0.342873
10   0.247975
11   0.355585
12   0.700501
13   0.742071
14   -0.572384
15   -0.537346
16   -0.582858
17   -0.742957
18   -0.749901
19   0.16161
20   0.178416
21   0.178157
22   0.161318
23   0.182202
24   0.179816
25   0.119974
26   0.120405
27   0.13225
28   0.122219
29   0.134842
30   0.352884
31   0.362249

>  <lowdin_charges>
31
1   -0.445331
2   -0.447648
3   -0.170229
4   -0.170412
5   -0.167266
6   -0.189253
7   -0.243343
8   0.093951
9   0.094911
10   0.016832
11   0.019519
12   0.138116
13   0.125773
14   -0.219563
15   -0.20033
16   -0.237202
17   -0.220553
18   -0.208728
19   0.160181
20   0.172629
21   0.17401
22   0.162639
23   0.175557
24   0.17519
25   0.152544
26   0.155839
27   0.163921
28   0.156806
29   0.165502
30   0.302405
31   0.313533

$$$$

