PCCDB-ID:  7140
public computational chemistry database (PCCDB) project, http://pccdb.org

 28 29  0  0  1  0  0  0  0  0999 V2000
    2.2051    0.2677   -2.0278 C   0  0  0  0  0  0  0  0  0  0  0  0
    4.9024    7.8839    2.4697 C   0  0  0  0  0  0  0  0  0  0  0  0
    5.5092    6.8027    3.1549 C   0  0  0  0  0  0  0  0  0  0  0  0
    4.0129    7.6451    1.4464 C   0  0  0  0  0  0  0  0  0  0  0  0
    5.2167    5.5037    2.8049 C   0  0  0  0  0  0  0  0  0  0  0  0
    2.7778    6.0338    0.0064 C   0  0  0  0  0  0  0  0  0  0  0  0
    2.4768    4.7411   -0.3531 C   0  0  0  0  0  0  0  0  0  0  0  0
    3.9762    3.8964    1.3709 C   0  0  0  0  0  0  0  0  0  0  0  0
    1.6251    0.3983   -0.6115 C   0  0  1  0  0  0  0  0  0  0  0  0
    3.6882    6.3174    1.0602 C   0  0  0  0  0  0  0  0  0  0  0  0
    4.3024    5.2240    1.7540 C   0  0  0  0  0  0  0  0  0  0  0  0
    3.0865    3.6763    0.3498 C   0  0  0  0  0  0  0  0  0  0  0  0
    1.6205    1.8531   -0.1526 C   0  0  0  0  0  0  0  0  0  0  0  0
    0.3099   -0.1079   -0.5543 O   0  0  0  0  0  0  0  0  0  0  0  0
    0.6030    2.4752    0.0609 O   0  0  0  0  0  0  0  0  0  0  0  0
    2.8773    2.3420   -0.0317 O   0  0  0  0  0  0  0  0  0  0  0  0
    3.2524    0.5831   -2.0599 H   0  0  0  0  0  0  0  0  0  0  0  0
    1.6257    0.8721   -2.7340 H   0  0  0  0  0  0  0  0  0  0  0  0
    2.1379   -0.7783   -2.3400 H   0  0  0  0  0  0  0  0  0  0  0  0
    5.1425    8.9041    2.7561 H   0  0  0  0  0  0  0  0  0  0  0  0
    6.2095    7.0034    3.9611 H   0  0  0  0  0  0  0  0  0  0  0  0
    3.5454    8.4723    0.9177 H   0  0  0  0  0  0  0  0  0  0  0  0
    5.6807    4.6729    3.3308 H   0  0  0  0  0  0  0  0  0  0  0  0
    2.3144    6.8625   -0.5228 H   0  0  0  0  0  0  0  0  0  0  0  0
    1.7816    4.5314   -1.1568 H   0  0  0  0  0  0  0  0  0  0  0  0
    4.4321    3.0519    1.8789 H   0  0  0  0  0  0  0  0  0  0  0  0
    2.2603   -0.1653    0.0877 H   0  0  0  0  0  0  0  0  0  0  0  0
   -0.2663    0.6550   -0.3619 H   0  0  0  0  0  0  0  0  0  0  0  0
  1  9  1  0  0  0  0
  2 20  1  0  0  0  0
  2  3  2  0  0  0  0
  3 21  1  0  0  0  0
  4  2  1  0  0  0  0
  5  3  1  0  0  0  0
  5 23  1  0  0  0  0
  6 10  1  0  0  0  0
  7  6  2  0  0  0  0
  7 12  1  0  0  0  0
  8 11  1  0  0  0  0
  8 26  1  0  0  0  0
  9 14  1  0  0  0  0
  9 13  1  0  0  0  0
  9 27  1  1  0  0  0
 10  4  2  0  0  0  0
 10 11  1  0  0  0  0
 11  5  2  0  0  0  0
 12  8  2  0  0  0  0
 13 16  1  0  0  0  0
 13 15  2  0  0  0  0
 14 28  1  0  0  0  0
 16 12  1  0  0  0  0
 17  1  1  0  0  0  0
 18  1  1  0  0  0  0
 19  1  1  0  0  0  0
 22  4  1  0  0  0  0
 24  6  1  0  0  0  0
 25  7  1  0  0  0  0
M  END
>  <HBA>
3

>  <HBD>
1

>  <TPSA>
46.53

>  <cid>
7140

>  <dipole>
2.92

>  <excitation_energy_1>
4.332

>  <excitation_energy_2>
4.384

>  <excitation_energy_3>
5.055

>  <excitation_energy_4>
5.479

>  <homo_energy>
-6.052

>  <homo_lumo_gap>
4.787

>  <logP>
2.126

>  <lumo_energy>
-1.265

>  <melting_point>
92.44

>  <molecular_refractivity>
61.42

>  <oscillator_strength_1>
0.0469

>  <oscillator_strength_2>
0.0093

>  <oscillator_strength_3>
0.1826

>  <oscillator_strength_4>
0.2392

>  <open_babel_can_smiles>
O=C([C@@H](O)C)Oc1ccc2c(c1)cccc2

>  <mulliken_charges>
28
1   -0.452083
2   -0.133813
3   -0.135757
4   -0.19199
5   -0.188092
6   -0.209008
7   -0.136581
8   -0.239309
9   0.083697
10   0.147313
11   0.128936
12   0.343395
13   0.586091
14   -0.63439
15   -0.473015
16   -0.518182
17   0.15814
18   0.153192
19   0.171472
20   0.133974
21   0.134489
22   0.133978
23   0.134013
24   0.140574
25   0.152724
26   0.143876
27   0.156426
28   0.409932

>  <lowdin_charges>
28
1   -0.448779
2   -0.156625
3   -0.153042
4   -0.154696
5   -0.158164
6   -0.14754
7   -0.165155
8   -0.172897
9   -0.022044
10   -0.001987
11   0.006061
12   0.100474
13   0.193365
14   -0.460307
15   -0.251376
16   -0.148461
17   0.158563
18   0.157115
19   0.165432
20   0.159888
21   0.161233
22   0.160827
23   0.160759
24   0.16436
25   0.174866
26   0.170682
27   0.156299
28   0.351149

$$$$

