PCCDB-ID:  30657
public computational chemistry database (PCCDB) project, http://pccdb.org

 32 33  0  0  1  0  0  0  0  0999 V2000
    2.2952    2.0484    0.4098 C   0  0  0  0  0  0  0  0  0  0  0  0
    1.7280   -2.0292   -0.7825 C   0  0  0  0  0  0  0  0  0  0  0  0
    4.2504    1.4691   -3.2889 C   0  0  0  0  0  0  0  0  0  0  0  0
    4.8317   -2.4831   -4.8193 C   0  0  0  0  0  0  0  0  0  0  0  0
    4.4257   -2.3478   -3.3458 C   0  0  0  0  0  0  0  0  0  0  0  0
    3.5808    1.7063   -2.0884 C   0  0  0  0  0  0  0  0  0  0  0  0
    5.2412   -0.0282   -5.0586 C   0  0  0  0  0  0  0  0  0  0  0  0
    4.5307    0.1753   -3.7320 C   0  0  0  0  0  0  0  0  0  0  0  0
    5.8655   -1.4182   -5.2188 C   0  0  2  0  0  0  0  0  0  0  0  0
    4.1176   -0.9170   -2.9431 C   0  0  0  0  0  0  0  0  0  0  0  0
    3.1799    0.6289   -1.2954 C   0  0  0  0  0  0  0  0  0  0  0  0
    3.4458   -0.6834   -1.7354 C   0  0  0  0  0  0  0  0  0  0  0  0
    6.4096   -1.5450   -6.5769 N   0  0  0  0  0  0  0  0  0  0  0  0
    2.5483    0.7446   -0.0856 O   0  0  0  0  0  0  0  0  0  0  0  0
    3.1232   -1.7684   -0.9482 O   0  0  0  0  0  0  0  0  0  0  0  0
    1.8100    1.9114    1.3782 H   0  0  0  0  0  0  0  0  0  0  0  0
    1.6267    2.6131   -0.2541 H   0  0  0  0  0  0  0  0  0  0  0  0
    3.2256    2.6149    0.5479 H   0  0  0  0  0  0  0  0  0  0  0  0
    1.2393   -2.1870   -1.7537 H   0  0  0  0  0  0  0  0  0  0  0  0
    1.2284   -1.2143   -0.2509 H   0  0  0  0  0  0  0  0  0  0  0  0
    1.6609   -2.9470   -0.1929 H   0  0  0  0  0  0  0  0  0  0  0  0
    4.5658    2.3178   -3.8918 H   0  0  0  0  0  0  0  0  0  0  0  0
    3.9482   -2.3741   -5.4672 H   0  0  0  0  0  0  0  0  0  0  0  0
    5.2343   -3.4888   -5.0005 H   0  0  0  0  0  0  0  0  0  0  0  0
    5.2396   -2.7239   -2.7084 H   0  0  0  0  0  0  0  0  0  0  0  0
    3.5685   -2.9916   -3.1221 H   0  0  0  0  0  0  0  0  0  0  0  0
    3.3909    2.7264   -1.7746 H   0  0  0  0  0  0  0  0  0  0  0  0
    6.0139    0.7362   -5.1996 H   0  0  0  0  0  0  0  0  0  0  0  0
    4.5220    0.1172   -5.8823 H   0  0  0  0  0  0  0  0  0  0  0  0
    6.7205   -1.4960   -4.5310 H   0  0  0  0  0  0  0  0  0  0  0  0
    5.6409   -1.5245   -7.2490 H   0  0  0  0  0  0  0  0  0  0  0  0
    6.8459   -2.4608   -6.6838 H   0  0  0  0  0  0  0  0  0  0  0  0
  1 18  1  0  0  0  0
  1 16  1  0  0  0  0
  2 20  1  0  0  0  0
  2 21  1  0  0  0  0
  3  6  1  0  0  0  0
  4  5  1  0  0  0  0
  5 26  1  0  0  0  0
  5 10  1  0  0  0  0
  5 25  1  0  0  0  0
  6 27  1  0  0  0  0
  6 11  2  0  0  0  0
  7  8  1  0  0  0  0
  8  3  2  0  0  0  0
  8 10  1  0  0  0  0
  9  7  1  0  0  0  0
  9  4  1  0  0  0  0
  9 30  1  1  0  0  0
 10 12  2  0  0  0  0
 11 14  1  0  0  0  0
 12 11  1  0  0  0  0
 12 15  1  0  0  0  0
 13  9  1  0  0  0  0
 14  1  1  0  0  0  0
 15  2  1  0  0  0  0
 17  1  1  0  0  0  0
 19  2  1  0  0  0  0
 22  3  1  0  0  0  0
 23  4  1  0  0  0  0
 24  4  1  0  0  0  0
 28  7  1  0  0  0  0
 29  7  1  0  0  0  0
 31 13  1  0  0  0  0
 32 13  1  0  0  0  0
M  END
>  <HBA>
3

>  <HBD>
1

>  <TPSA>
44.48

>  <cid>
30657

>  <dipole>
2.02

>  <excitation_energy_1>
4.84

>  <excitation_energy_2>
5.169

>  <excitation_energy_3>
5.278

>  <excitation_energy_4>
5.455

>  <homo_energy>
-5.516

>  <homo_lumo_gap>
5.739

>  <logP>
2.22

>  <lumo_energy>
0.223

>  <melting_point>
99.71

>  <molecular_refractivity>
59.57

>  <oscillator_strength_1>
0.0279

>  <oscillator_strength_2>
0.0217

>  <oscillator_strength_3>
0.0128

>  <oscillator_strength_4>
0.026

>  <open_babel_can_smiles>
COc1c(OC)ccc2c1CC[C@H](C2)N

>  <mulliken_charges>
32
1   -0.213127
2   -0.209175
3   -0.200889
4   -0.275145
5   -0.329198
6   -0.207196
7   -0.334893
8   0.115753
9   0.016187
10   0.065513
11   0.355499
12   0.23479
13   -0.712629
14   -0.512665
15   -0.521654
16   0.167897
17   0.149655
18   0.153383
19   0.134687
20   0.163707
21   0.155008
22   0.118674
23   0.123807
24   0.122412
25   0.156555
26   0.150109
27   0.128877
28   0.157377
29   0.135406
30   0.133588
31   0.285926
32   0.29176

>  <lowdin_charges>
32
1   -0.27832
2   -0.277
3   -0.167283
4   -0.294158
5   -0.273921
6   -0.212129
7   -0.276511
8   -0.027396
9   -0.070539
10   -0.029721
11   0.075921
12   0.060214
13   -0.547597
14   -0.198892
15   -0.226143
16   0.161214
17   0.145006
18   0.146409
19   0.135825
20   0.151661
21   0.154083
22   0.155029
23   0.136198
24   0.139126
25   0.156603
26   0.157669
27   0.160441
28   0.159376
29   0.145044
30   0.139941
31   0.248741
32   0.251107

$$$$

