PCCDB-ID:  66524
public computational chemistry database (PCCDB) project, http://pccdb.org

 24 25  0  0  0  0  0  0  0  0999 V2000
    0.9126   -0.0207    0.0240 C   0  0  0  0  0  0  0  0  0  0  0  0
    7.3792   -1.2118   -0.1024 C   0  0  0  0  0  0  0  0  0  0  0  0
    6.6818   -2.4399   -0.1482 C   0  0  0  0  0  0  0  0  0  0  0  0
    6.6809   -0.0255   -0.0567 C   0  0  0  0  0  0  0  0  0  0  0  0
    5.3036   -2.4598   -0.1272 C   0  0  0  0  0  0  0  0  0  0  0  0
    3.1469    1.1683   -0.0170 C   0  0  0  0  0  0  0  0  0  0  0  0
    2.4230   -0.0510    0.0012 C   0  0  0  0  0  0  0  0  0  0  0  0
    5.2625   -0.0174   -0.0395 C   0  0  0  0  0  0  0  0  0  0  0  0
    4.5472   -1.2586   -0.0540 C   0  0  0  0  0  0  0  0  0  0  0  0
    4.5216    1.1986   -0.0196 C   0  0  0  0  0  0  0  0  0  0  0  0
    3.1131   -1.2575   -0.0022 C   0  0  0  0  0  0  0  0  0  0  0  0
    2.4251   -2.4886   -0.0174 N   0  0  0  0  0  0  0  0  0  0  0  0
    5.2481    2.3655   -0.0123 O   0  0  0  0  0  0  0  0  0  0  0  0
    0.5398    1.0077    0.0319 H   0  0  0  0  0  0  0  0  0  0  0  0
    0.5018   -0.5172    0.9161 H   0  0  0  0  0  0  0  0  0  0  0  0
    0.4781   -0.5212   -0.8519 H   0  0  0  0  0  0  0  0  0  0  0  0
    8.4657   -1.2049   -0.1162 H   0  0  0  0  0  0  0  0  0  0  0  0
    7.2344   -3.3737   -0.2103 H   0  0  0  0  0  0  0  0  0  0  0  0
    7.2030    0.9249   -0.0381 H   0  0  0  0  0  0  0  0  0  0  0  0
    4.7890   -3.4124   -0.2060 H   0  0  0  0  0  0  0  0  0  0  0  0
    2.5876    2.1033   -0.0100 H   0  0  0  0  0  0  0  0  0  0  0  0
    1.4533   -2.4065    0.2561 H   0  0  0  0  0  0  0  0  0  0  0  0
    2.8706   -3.2063    0.5434 H   0  0  0  0  0  0  0  0  0  0  0  0
    4.6294    3.1114    0.0029 H   0  0  0  0  0  0  0  0  0  0  0  0
  1 14  1  0  0  0  0
  1 15  1  0  0  0  0
  2  4  2  0  0  0  0
  3  5  2  0  0  0  0
  3  2  1  0  0  0  0
  4  8  1  0  0  0  0
  4 19  1  0  0  0  0
  5  9  1  0  0  0  0
  6 21  1  0  0  0  0
  6  7  1  0  0  0  0
  7  1  1  0  0  0  0
  8 10  1  0  0  0  0
  9  8  2  0  0  0  0
  9 11  1  0  0  0  0
 10  6  2  0  0  0  0
 10 13  1  0  0  0  0
 11  7  2  0  0  0  0
 12 11  1  0  0  0  0
 12 22  1  0  0  0  0
 12 23  1  0  0  0  0
 13 24  1  0  0  0  0
 16  1  1  0  0  0  0
 17  2  1  0  0  0  0
 18  3  1  0  0  0  0
 20  5  1  0  0  0  0
M  END
>  <HBA>
2

>  <HBD>
2

>  <TPSA>
46.25

>  <cid>
66524

>  <dipole>
2.3

>  <excitation_energy_1>
3.533

>  <excitation_energy_2>
3.991

>  <excitation_energy_3>
4.125

>  <excitation_energy_4>
4.297

>  <homo_energy>
-4.705

>  <homo_lumo_gap>
4.125

>  <logP>
3.017

>  <lumo_energy>
-0.58

>  <melting_point>
143.62

>  <molecular_refractivity>
55.34

>  <oscillator_strength_1>
0.074

>  <oscillator_strength_2>
0.0797

>  <oscillator_strength_3>
0.0069

>  <oscillator_strength_4>
0.004

>  <open_babel_can_smiles>
Cc1cc(O)c2c(c1N)cccc2

>  <mulliken_charges>
24
1   -0.561322
2   -0.137032
3   -0.130553
4   -0.177544
5   -0.209201
6   -0.278405
7   0.166379
8   0.072095
9   0.115397
10   0.29816
11   0.143232
12   -0.794366
13   -0.65578
14   0.158427
15   0.150956
16   0.168464
17   0.125984
18   0.124783
19   0.150513
20   0.125711
21   0.103794
22   0.318321
23   0.316072
24   0.405915

>  <lowdin_charges>
24
1   -0.446339
2   -0.160468
3   -0.158636
4   -0.148388
5   -0.167678
6   -0.22385
7   -0.038405
8   -0.02011
9   -0.015643
10   0.082439
11   0.025494
12   -0.497969
13   -0.388165
14   0.158719
15   0.151589
16   0.160573
17   0.154574
18   0.156416
19   0.169759
20   0.155972
21   0.148417
22   0.270987
23   0.272765
24   0.357947

$$$$

