PCCDB-ID:  64956
public computational chemistry database (PCCDB) project, http://pccdb.org

 16 15  0  0  1  0  0  0  0  0999 V2000
    1.1147   -0.3681    0.2453 C   0  0  0  0  0  0  0  0  0  0  0  0
    2.7710   -0.2824   -1.7093 C   0  0  0  0  0  0  0  0  0  0  0  0
    2.4413    0.2098   -0.2868 C   0  0  1  0  0  0  0  0  0  0  0  0
    2.4216    1.7451   -0.1516 C   0  0  0  0  0  0  0  0  0  0  0  0
    1.7622    0.1814   -2.6865 N   0  0  0  0  0  0  0  0  0  0  0  0
    2.8028    2.3018    0.8532 O   0  0  0  0  0  0  0  0  0  0  0  0
    1.9124    2.4269   -1.1920 O   0  0  0  0  0  0  0  0  0  0  0  0
    1.1270   -1.4644    0.2114 H   0  0  0  0  0  0  0  0  0  0  0  0
    0.2547   -0.0135   -0.3346 H   0  0  0  0  0  0  0  0  0  0  0  0
    0.9595   -0.0600    1.2833 H   0  0  0  0  0  0  0  0  0  0  0  0
    2.8759   -1.3781   -1.6967 H   0  0  0  0  0  0  0  0  0  0  0  0
    3.7364    0.1308   -2.0217 H   0  0  0  0  0  0  0  0  0  0  0  0
    3.2470   -0.1263    0.3739 H   0  0  0  0  0  0  0  0  0  0  0  0
    0.9092   -0.3700   -2.6166 H   0  0  0  0  0  0  0  0  0  0  0  0
    2.1059    0.0781   -3.6385 H   0  0  0  0  0  0  0  0  0  0  0  0
    1.6900    1.7818   -1.9221 H   0  0  0  0  0  0  0  0  0  0  0  0
  1 10  1  0  0  0  0
  2 11  1  0  0  0  0
  2  3  1  0  0  0  0
  3  4  1  0  0  0  0
  3  1  1  0  0  0  0
  3 13  1  1  0  0  0
  4  6  2  0  0  0  0
  5 14  1  0  0  0  0
  5  2  1  0  0  0  0
  7  4  1  0  0  0  0
  8  1  1  0  0  0  0
  9  1  1  0  0  0  0
 12  2  1  0  0  0  0
 15  5  1  0  0  0  0
 16  7  1  0  0  0  0
M  END
>  <HBA>
3

>  <HBD>
2

>  <TPSA>
63.32

>  <cid>
64956

>  <dipole>
6.54

>  <excitation_energy_1>
5.604

>  <excitation_energy_2>
5.905

>  <excitation_energy_3>
6.362

>  <excitation_energy_4>
6.637

>  <homo_energy>
-6.651

>  <homo_lumo_gap>
7.486

>  <logP>
0.366

>  <lumo_energy>
0.835

>  <melting_point>
106.17

>  <molecular_refractivity>
25.82

>  <oscillator_strength_1>
0.0022

>  <oscillator_strength_2>
0.003

>  <oscillator_strength_3>
0.0189

>  <oscillator_strength_4>
0.0005

>  <open_babel_can_smiles>
C[C@H](C(=O)O)CN

>  <mulliken_charges>
16
1   -0.464266
2   -0.166835
3   -0.177078
4   0.584196
5   -0.766416
6   -0.466529
7   -0.597042
8   0.146804
9   0.149067
10   0.182709
11   0.143674
12   0.167024
13   0.165205
14   0.326244
15   0.32857
16   0.444674

>  <lowdin_charges>
16
1   -0.442123
2   -0.210086
3   -0.170711
4   0.183473
5   -0.539924
6   -0.266298
7   -0.379281
8   0.14836
9   0.150055
10   0.169751
11   0.136636
12   0.156205
13   0.16847
14   0.269579
15   0.272843
16   0.353049

$$$$

