PCCDB-ID:  46299
public computational chemistry database (PCCDB) project, http://pccdb.org

 25 25  0  0  1  0  0  0  0  0999 V2000
    1.1195   -0.2076    0.0430 C   0  0  0  0  0  0  0  0  0  0  0  0
    2.6455   -0.3209   -0.0031 C   0  0  0  0  0  0  0  0  0  0  0  0
    1.9826   -4.7240    2.4995 C   0  0  0  0  0  0  0  0  0  0  0  0
    1.4813   -3.6010    3.1580 C   0  0  0  0  0  0  0  0  0  0  0  0
    2.9194   -4.5622    1.4750 C   0  0  0  0  0  0  0  0  0  0  0  0
    1.9138   -2.3244    2.7909 C   0  0  0  0  0  0  0  0  0  0  0  0
    3.3460   -3.2864    1.1082 C   0  0  0  0  0  0  0  0  0  0  0  0
    2.8436   -2.1494    1.7589 C   0  0  0  0  0  0  0  0  0  0  0  0
    3.2865   -0.7545    1.3333 C   0  0  1  0  0  0  0  0  0  0  0  0
    5.3826   -0.7287    2.5056 N   0  0  0  0  0  0  0  0  0  0  0  0
    4.7492   -0.7199    1.1684 N   0  0  0  0  0  0  0  0  0  0  0  0
    0.7275    0.1193   -0.9263 H   0  0  0  0  0  0  0  0  0  0  0  0
    0.7966    0.5223    0.7955 H   0  0  0  0  0  0  0  0  0  0  0  0
    0.6533   -1.1674    0.2876 H   0  0  0  0  0  0  0  0  0  0  0  0
    3.0692    0.6545   -0.2835 H   0  0  0  0  0  0  0  0  0  0  0  0
    2.9494   -1.0299   -0.7830 H   0  0  0  0  0  0  0  0  0  0  0  0
    1.6521   -5.7190    2.7859 H   0  0  0  0  0  0  0  0  0  0  0  0
    0.7580   -3.7161    3.9611 H   0  0  0  0  0  0  0  0  0  0  0  0
    3.3206   -5.4334    0.9631 H   0  0  0  0  0  0  0  0  0  0  0  0
    1.5275   -1.4521    3.3138 H   0  0  0  0  0  0  0  0  0  0  0  0
    4.0873   -3.1563    0.3251 H   0  0  0  0  0  0  0  0  0  0  0  0
    2.9674   -0.0442    2.1178 H   0  0  0  0  0  0  0  0  0  0  0  0
    6.3464   -1.0138    2.3131 H   0  0  0  0  0  0  0  0  0  0  0  0
    4.9846   -1.5554    2.9589 H   0  0  0  0  0  0  0  0  0  0  0  0
    4.9672    0.2150    0.8194 H   0  0  0  0  0  0  0  0  0  0  0  0
  1 14  1  0  0  0  0
  1 13  1  0  0  0  0
  2  1  1  0  0  0  0
  2  9  1  0  0  0  0
  3 17  1  0  0  0  0
  3  4  2  0  0  0  0
  4 18  1  0  0  0  0
  5  3  1  0  0  0  0
  6  4  1  0  0  0  0
  6 20  1  0  0  0  0
  7  5  2  0  0  0  0
  7  8  1  0  0  0  0
  8  6  2  0  0  0  0
  9  8  1  0  0  0  0
  9 22  1  1  0  0  0
 10 24  1  0  0  0  0
 11  9  1  0  0  0  0
 11 10  1  0  0  0  0
 12  1  1  0  0  0  0
 15  2  1  0  0  0  0
 16  2  1  0  0  0  0
 19  5  1  0  0  0  0
 21  7  1  0  0  0  0
 23 10  1  0  0  0  0
 25 11  1  0  0  0  0
M  END
>  <HBA>
2

>  <HBD>
2

>  <TPSA>
38.05

>  <cid>
46299

>  <dipole>
0.55

>  <excitation_energy_1>
4.468

>  <excitation_energy_2>
4.611

>  <excitation_energy_3>
4.948

>  <excitation_energy_4>
5.314

>  <homo_energy>
-5.325

>  <homo_lumo_gap>
5.295

>  <logP>
2.692

>  <lumo_energy>
-0.03

>  <melting_point>
87.25

>  <molecular_refractivity>
46.53

>  <oscillator_strength_1>
0.0015

>  <oscillator_strength_2>
0.0004

>  <oscillator_strength_3>
0.0036

>  <oscillator_strength_4>
0.0

>  <open_babel_can_smiles>
CC[C@@H](c1ccccc1)NN

>  <mulliken_charges>
25
1   -0.450095
2   -0.259931
3   -0.129646
4   -0.129385
5   -0.131157
6   -0.187707
7   -0.170313
8   0.136901
9   -0.026786
10   -0.602819
11   -0.476508
12   0.145133
13   0.141598
14   0.16044
15   0.127813
16   0.149031
17   0.128347
18   0.129036
19   0.128792
20   0.128105
21   0.145729
22   0.120462
23   0.30459
24   0.309943
25   0.308427

>  <lowdin_charges>
25
1   -0.447355
2   -0.273009
3   -0.159144
4   -0.156988
5   -0.158097
6   -0.170419
7   -0.160152
8   -0.018429
9   -0.071841
10   -0.499915
11   -0.316474
12   0.152103
13   0.147595
14   0.156587
15   0.139267
16   0.15038
17   0.156465
18   0.157495
19   0.157624
20   0.15697
21   0.165848
22   0.129058
23   0.25291
24   0.256969
25   0.25255

$$$$

