PCCDB-ID:  68142
public computational chemistry database (PCCDB) project, http://pccdb.org

 35 35  0  0  0  0  0  0  0  0999 V2000
    4.6277   -1.7673    4.6901 C   0  0  0  0  0  0  0  0  0  0  0  0
    5.3326   -2.2574    3.4209 C   0  0  0  0  0  0  0  0  0  0  0  0
    4.4327   -2.2031    2.1780 C   0  0  0  0  0  0  0  0  0  0  0  0
    5.1174   -2.6241    0.8669 C   0  0  0  0  0  0  0  0  0  0  0  0
    5.5297   -4.1018    0.8038 C   0  0  0  0  0  0  0  0  0  0  0  0
    6.1340   -4.4951   -0.5497 C   0  0  0  0  0  0  0  0  0  0  0  0
    6.5461   -5.9795   -0.6539 C   0  0  0  0  0  0  0  0  0  0  0  0
    7.4029   -7.1926    1.4006 C   0  0  0  0  0  0  0  0  0  0  0  0
    8.9698   -5.9417    0.0526 C   0  0  0  0  0  0  0  0  0  0  0  0
    9.7437   -7.1085    2.0400 C   0  0  0  0  0  0  0  0  0  0  0  0
    7.6647   -6.3837    0.2870 C   0  0  0  0  0  0  0  0  0  0  0  0
    8.4392   -7.5505    2.2681 C   0  0  0  0  0  0  0  0  0  0  0  0
    9.9987   -6.3041    0.9275 C   0  0  0  0  0  0  0  0  0  0  0  0
    8.2355   -8.3400    3.3674 O   0  0  0  0  0  0  0  0  0  0  0  0
   11.2539   -5.8408    0.6419 O   0  0  0  0  0  0  0  0  0  0  0  0
    5.2951   -1.8030    5.5588 H   0  0  0  0  0  0  0  0  0  0  0  0
    3.7495   -2.3837    4.9198 H   0  0  0  0  0  0  0  0  0  0  0  0
    4.2823   -0.7320    4.5776 H   0  0  0  0  0  0  0  0  0  0  0  0
    5.6904   -3.2830    3.5802 H   0  0  0  0  0  0  0  0  0  0  0  0
    6.2295   -1.6471    3.2412 H   0  0  0  0  0  0  0  0  0  0  0  0
    4.0546   -1.1769    2.0643 H   0  0  0  0  0  0  0  0  0  0  0  0
    3.5465   -2.8345    2.3436 H   0  0  0  0  0  0  0  0  0  0  0  0
    6.0042   -1.9933    0.7038 H   0  0  0  0  0  0  0  0  0  0  0  0
    4.4371   -2.4107    0.0299 H   0  0  0  0  0  0  0  0  0  0  0  0
    4.6480   -4.7305    1.0037 H   0  0  0  0  0  0  0  0  0  0  0  0
    6.2517   -4.3256    1.5984 H   0  0  0  0  0  0  0  0  0  0  0  0
    7.0093   -3.8633   -0.7548 H   0  0  0  0  0  0  0  0  0  0  0  0
    5.4077   -4.2823   -1.3469 H   0  0  0  0  0  0  0  0  0  0  0  0
    6.8577   -6.1819   -1.6871 H   0  0  0  0  0  0  0  0  0  0  0  0
    5.6663   -6.6089   -0.4668 H   0  0  0  0  0  0  0  0  0  0  0  0
    6.3913   -7.5483    1.5887 H   0  0  0  0  0  0  0  0  0  0  0  0
    9.2083   -5.3216   -0.8061 H   0  0  0  0  0  0  0  0  0  0  0  0
   10.5335   -7.4009    2.7270 H   0  0  0  0  0  0  0  0  0  0  0  0
    7.2954   -8.5737    3.4109 H   0  0  0  0  0  0  0  0  0  0  0  0
   11.8688   -6.1655    1.3178 H   0  0  0  0  0  0  0  0  0  0  0  0
  1 17  1  0  0  0  0
  1 16  1  0  0  0  0
  2 19  1  0  0  0  0
  2  1  1  0  0  0  0
  3 22  1  0  0  0  0
  3  2  1  0  0  0  0
  4  3  1  0  0  0  0
  5  4  1  0  0  0  0
  5 25  1  0  0  0  0
  5 26  1  0  0  0  0
  6  5  1  0  0  0  0
  7  6  1  0  0  0  0
  7 30  1  0  0  0  0
  7 11  1  0  0  0  0
  8 31  1  0  0  0  0
  8 12  2  0  0  0  0
  9 11  2  0  0  0  0
  9 13  1  0  0  0  0
 10 12  1  0  0  0  0
 10 33  1  0  0  0  0
 11  8  1  0  0  0  0
 12 14  1  0  0  0  0
 13 10  2  0  0  0  0
 14 34  1  0  0  0  0
 15 13  1  0  0  0  0
 15 35  1  0  0  0  0
 18  1  1  0  0  0  0
 20  2  1  0  0  0  0
 21  3  1  0  0  0  0
 23  4  1  0  0  0  0
 24  4  1  0  0  0  0
 27  6  1  0  0  0  0
 28  6  1  0  0  0  0
 29  7  1  0  0  0  0
 32  9  1  0  0  0  0
M  END
>  <HBA>
2

>  <HBD>
2

>  <TPSA>
40.46

>  <cid>
68142

>  <dipole>
1.22

>  <excitation_energy_1>
4.929

>  <excitation_energy_2>
5.012

>  <excitation_energy_3>
5.248

>  <excitation_energy_4>
5.458

>  <homo_energy>
-5.714

>  <homo_lumo_gap>
5.935

>  <logP>
3.611

>  <lumo_energy>
0.22

>  <melting_point>
85.12

>  <molecular_refractivity>
64.3

>  <oscillator_strength_1>
0.0229

>  <oscillator_strength_2>
0.0024

>  <oscillator_strength_3>
0.0001

>  <oscillator_strength_4>
0.0017

>  <open_babel_can_smiles>
CCCCCCCc1cc(O)cc(c1)O

>  <mulliken_charges>
35
1   -0.441409
2   -0.24872
3   -0.24751
4   -0.254983
5   -0.255438
6   -0.252415
7   -0.351869
8   -0.268762
9   -0.225179
10   -0.245206
11   0.175265
12   0.363379
13   0.362055
14   -0.648847
15   -0.646763
16   0.141146
17   0.139558
18   0.140383
19   0.13704
20   0.130403
21   0.125666
22   0.123535
23   0.12822
24   0.124911
25   0.11897
26   0.149561
27   0.138023
28   0.128853
29   0.146661
30   0.134929
31   0.107573
32   0.129232
33   0.125592
34   0.40814
35   0.408005

>  <lowdin_charges>
35
1   -0.443948
2   -0.274129
3   -0.274557
4   -0.276028
5   -0.281697
6   -0.272005
7   -0.272268
8   -0.251664
9   -0.221681
10   -0.254579
11   0.02211
12   0.115393
13   0.11695
14   -0.378428
15   -0.38043
16   0.149172
17   0.145741
18   0.144418
19   0.140175
20   0.139215
21   0.138506
22   0.136108
23   0.138706
24   0.139393
25   0.134268
26   0.148519
27   0.143216
28   0.140839
29   0.152753
30   0.14522
31   0.148834
32   0.163937
33   0.163106
34   0.355989
35   0.358847

$$$$

