PCCDB-ID:  68333
public computational chemistry database (PCCDB) project, http://pccdb.org

 30 29  0  0  0  0  0  0  0  0999 V2000
   10.9177   -5.9251    2.8106 C   0  0  0  0  0  0  0  0  0  0  0  0
    1.5156   -4.9379    4.5850 C   0  0  0  0  0  0  0  0  0  0  0  0
    9.7852   -5.3660    1.9395 C   0  0  0  0  0  0  0  0  0  0  0  0
    2.6773   -4.4758    3.6976 C   0  0  0  0  0  0  0  0  0  0  0  0
    8.3826   -5.4779    2.5610 C   0  0  0  0  0  0  0  0  0  0  0  0
    2.8186   -5.2560    2.3800 C   0  0  0  0  0  0  0  0  0  0  0  0
    7.9046   -6.9189    2.7132 C   0  0  0  0  0  0  0  0  0  0  0  0
    3.1880   -6.7283    2.5390 C   0  0  0  0  0  0  0  0  0  0  0  0
    5.5515   -6.8223    2.5112 C   0  0  0  0  0  0  0  0  0  0  0  0
    5.6026   -6.6558    1.3099 O   0  0  0  0  0  0  0  0  0  0  0  0
    6.5990   -6.9789    3.3347 O   0  0  0  0  0  0  0  0  0  0  0  0
    4.4365   -6.8961    3.2543 O   0  0  0  0  0  0  0  0  0  0  0  0
   11.8928   -5.7537    2.3410 H   0  0  0  0  0  0  0  0  0  0  0  0
   10.8211   -7.0048    2.9731 H   0  0  0  0  0  0  0  0  0  0  0  0
   10.9337   -5.4417    3.7953 H   0  0  0  0  0  0  0  0  0  0  0  0
    1.4338   -4.3105    5.4797 H   0  0  0  0  0  0  0  0  0  0  0  0
    1.6455   -5.9716    4.9253 H   0  0  0  0  0  0  0  0  0  0  0  0
    0.5589   -4.8801    4.0503 H   0  0  0  0  0  0  0  0  0  0  0  0
    9.7903   -5.8675    0.9615 H   0  0  0  0  0  0  0  0  0  0  0  0
    9.9836   -4.3064    1.7344 H   0  0  0  0  0  0  0  0  0  0  0  0
    3.6175   -4.5462    4.2586 H   0  0  0  0  0  0  0  0  0  0  0  0
    2.5427   -3.4141    3.4536 H   0  0  0  0  0  0  0  0  0  0  0  0
    7.6624   -4.9463    1.9288 H   0  0  0  0  0  0  0  0  0  0  0  0
    8.3702   -4.9943    3.5470 H   0  0  0  0  0  0  0  0  0  0  0  0
    3.5753   -4.7823    1.7436 H   0  0  0  0  0  0  0  0  0  0  0  0
    1.8720   -5.2158    1.8215 H   0  0  0  0  0  0  0  0  0  0  0  0
    8.5425   -7.4918    3.3895 H   0  0  0  0  0  0  0  0  0  0  0  0
    7.8603   -7.4215    1.7428 H   0  0  0  0  0  0  0  0  0  0  0  0
    3.2718   -7.2144    1.5641 H   0  0  0  0  0  0  0  0  0  0  0  0
    2.4608   -7.2688    3.1494 H   0  0  0  0  0  0  0  0  0  0  0  0
  1 14  1  0  0  0  0
  1 15  1  0  0  0  0
  2 17  1  0  0  0  0
  2 16  1  0  0  0  0
  3  5  1  0  0  0  0
  3  1  1  0  0  0  0
  4 21  1  0  0  0  0
  4  2  1  0  0  0  0
  5  7  1  0  0  0  0
  5 24  1  0  0  0  0
  6  8  1  0  0  0  0
  6  4  1  0  0  0  0
  7 11  1  0  0  0  0
  7 27  1  0  0  0  0
  8 30  1  0  0  0  0
  8 12  1  0  0  0  0
  9 12  1  0  0  0  0
  9 11  1  0  0  0  0
 10  9  2  0  0  0  0
 13  1  1  0  0  0  0
 18  2  1  0  0  0  0
 19  3  1  0  0  0  0
 20  3  1  0  0  0  0
 22  4  1  0  0  0  0
 23  5  1  0  0  0  0
 25  6  1  0  0  0  0
 26  6  1  0  0  0  0
 28  7  1  0  0  0  0
 29  8  1  0  0  0  0
M  END
>  <HBA>
3

>  <HBD>
0

>  <TPSA>
35.53

>  <cid>
68333

>  <dipole>
0.62

>  <excitation_energy_1>
6.902

>  <excitation_energy_2>
7.364

>  <excitation_energy_3>
7.585

>  <excitation_energy_4>
7.617

>  <homo_energy>
-7.603

>  <homo_lumo_gap>
8.849

>  <logP>
2.74

>  <lumo_energy>
1.246

>  <melting_point>
-14.73

>  <molecular_refractivity>
48.14

>  <oscillator_strength_1>
0.0

>  <oscillator_strength_2>
0.0033

>  <oscillator_strength_3>
0.0034

>  <oscillator_strength_4>
0.057

>  <open_babel_can_smiles>
CCCCOC(=O)OCCCC

>  <mulliken_charges>
30
1   -0.447114
2   -0.448175
3   -0.261548
4   -0.250826
5   -0.2757
6   -0.281112
7   -0.04451
8   -0.052756
9   0.797433
10   -0.500385
11   -0.4623
12   -0.459931
13   0.147744
14   0.145069
15   0.145746
16   0.146699
17   0.148615
18   0.139757
19   0.139984
20   0.141161
21   0.150602
22   0.134918
23   0.159434
24   0.142626
25   0.160215
26   0.135568
27   0.156036
28   0.166668
29   0.170406
30   0.155678

>  <lowdin_charges>
30
1   -0.445502
2   -0.446942
3   -0.270637
4   -0.275022
5   -0.290507
6   -0.290418
7   -0.129018
8   -0.129758
9   0.226645
10   -0.299782
11   -0.178065
12   -0.180655
13   0.15248
14   0.144545
15   0.1479
16   0.152795
17   0.147113
18   0.144843
19   0.14308
20   0.146546
21   0.148715
22   0.14285
23   0.158947
24   0.14597
25   0.158508
26   0.148605
27   0.155419
28   0.156347
29   0.16028
30   0.154719

$$$$

