PCCDB-ID:  7962
public computational chemistry database (PCCDB) project, http://pccdb.org

 21 21  0  0  0  0  0  0  0  0999 V2000
    1.0369    0.0135   -0.2029 C   0  0  0  0  0  0  0  0  0  0  0  0
    3.2312   -0.3594    2.9039 C   0  0  0  0  0  0  0  0  0  0  0  0
    2.7125   -1.5373    2.0641 C   0  0  0  0  0  0  0  0  0  0  0  0
    2.7158    0.9832    2.3623 C   0  0  0  0  0  0  0  0  0  0  0  0
    3.0574   -1.3578    0.5759 C   0  0  0  0  0  0  0  0  0  0  0  0
    3.0627    1.1560    0.8737 C   0  0  0  0  0  0  0  0  0  0  0  0
    2.5613   -0.0136   -0.0037 C   0  0  0  0  0  0  0  0  0  0  0  0
    0.7156   -0.7977   -0.8677 H   0  0  0  0  0  0  0  0  0  0  0  0
    0.7194    0.9608   -0.6555 H   0  0  0  0  0  0  0  0  0  0  0  0
    0.4882   -0.0989    0.7386 H   0  0  0  0  0  0  0  0  0  0  0  0
    4.3315   -0.3580    2.8810 H   0  0  0  0  0  0  0  0  0  0  0  0
    2.9420   -0.4835    3.9556 H   0  0  0  0  0  0  0  0  0  0  0  0
    1.6239   -1.6214    2.1902 H   0  0  0  0  0  0  0  0  0  0  0  0
    3.1358   -2.4812    2.4313 H   0  0  0  0  0  0  0  0  0  0  0  0
    3.1393    1.8143    2.9410 H   0  0  0  0  0  0  0  0  0  0  0  0
    1.6270    1.0371    2.5017 H   0  0  0  0  0  0  0  0  0  0  0  0
    2.6496   -2.1913   -0.0118 H   0  0  0  0  0  0  0  0  0  0  0  0
    4.1507   -1.4050    0.4639 H   0  0  0  0  0  0  0  0  0  0  0  0
    4.1562    1.2239    0.7756 H   0  0  0  0  0  0  0  0  0  0  0  0
    2.6584    2.1054    0.4973 H   0  0  0  0  0  0  0  0  0  0  0  0
    3.0140    0.1033   -0.9991 H   0  0  0  0  0  0  0  0  0  0  0  0
  1  7  1  0  0  0  0
  1 10  1  0  0  0  0
  2 12  1  0  0  0  0
  3 13  1  0  0  0  0
  3 14  1  0  0  0  0
  3  2  1  0  0  0  0
  4 16  1  0  0  0  0
  4  2  1  0  0  0  0
  4 15  1  0  0  0  0
  5  3  1  0  0  0  0
  6  4  1  0  0  0  0
  7  5  1  0  0  0  0
  7  6  1  0  0  0  0
  8  1  1  0  0  0  0
  9  1  1  0  0  0  0
 11  2  1  0  0  0  0
 17  5  1  0  0  0  0
 18  5  1  0  0  0  0
 19  6  1  0  0  0  0
 20  6  1  0  0  0  0
 21  7  1  0  0  0  0
M  END
>  <HBA>
0

>  <HBD>
0

>  <TPSA>
0.0

>  <cid>
7962

>  <dipole>
0.04

>  <excitation_energy_1>
7.278

>  <excitation_energy_2>
7.29

>  <excitation_energy_3>
7.691

>  <excitation_energy_4>
7.693

>  <homo_energy>
-7.834

>  <homo_lumo_gap>
9.987

>  <logP>
2.587

>  <lumo_energy>
2.152

>  <melting_point>
-4.65

>  <molecular_refractivity>
33.65

>  <oscillator_strength_1>
0.0036

>  <oscillator_strength_2>
0.0

>  <oscillator_strength_3>
0.015

>  <oscillator_strength_4>
0.0018

>  <open_babel_can_smiles>
CC1CCCCC1

>  <mulliken_charges>
21
1   -0.450487
2   -0.253748
3   -0.259576
4   -0.259423
5   -0.258562
6   -0.258583
7   -0.068141
8   0.138947
9   0.138921
10   0.144375
11   0.125185
12   0.127428
13   0.13016
14   0.128553
15   0.128487
16   0.130187
17   0.125099
18   0.124541
19   0.124546
20   0.1251
21   0.116989

>  <lowdin_charges>
21
1   -0.450809
2   -0.273806
3   -0.278187
4   -0.279163
5   -0.278738
6   -0.277693
7   -0.125218
8   0.148372
9   0.147598
10   0.145686
11   0.133704
12   0.140322
13   0.135768
14   0.142815
15   0.143667
16   0.135804
17   0.141368
18   0.135734
19   0.135711
20   0.14046
21   0.136605

$$$$

