PCCDB-ID:  11254
public computational chemistry database (PCCDB) project, http://pccdb.org

 12 13  0  0  1  0  0  0  0  0999 V2000
    0.5534    0.7458   -0.2241 C   0  0  0  0  0  0  0  0  0  0  0  0
    2.5482   -1.5278    1.1928 C   0  0  0  0  0  0  0  0  0  0  0  0
    0.2984   -0.6371    0.2123 C   0  0  1  0  0  0  0  0  0  0  0  0
    1.0980   -1.2992    1.3048 C   0  0  1  0  0  0  0  0  0  0  0  0
   -0.5491    0.4364    0.6356 O   0  0  0  0  0  0  0  0  0  0  0  0
    1.6164   -2.5955    0.9878 O   0  0  0  0  0  0  0  0  0  0  0  0
    0.2873    1.0552   -1.2353 H   0  0  0  0  0  0  0  0  0  0  0  0
    1.3610    1.3127    0.2400 H   0  0  0  0  0  0  0  0  0  0  0  0
    3.1581   -1.6040    2.0935 H   0  0  0  0  0  0  0  0  0  0  0  0
    3.0751   -1.1915    0.2995 H   0  0  0  0  0  0  0  0  0  0  0  0
   -0.1612   -1.3332   -0.4921 H   0  0  0  0  0  0  0  0  0  0  0  0
    0.6557   -1.2132    2.2992 H   0  0  0  0  0  0  0  0  0  0  0  0
  1  3  1  0  0  0  0
  1  8  1  0  0  0  0
  1  5  1  0  0  0  0
  2  4  1  0  0  0  0
  2  9  1  0  0  0  0
  3 11  1  6  0  0  0
  3  5  1  0  0  0  0
  3  4  1  0  0  0  0
  4 12  1  1  0  0  0
  6  2  1  0  0  0  0
  6  4  1  0  0  0  0
  7  1  1  0  0  0  0
 10  2  1  0  0  0  0
M  END
>  <HBA>
2

>  <HBD>
0

>  <TPSA>
25.06

>  <cid>
11254

>  <dipole>
2.25

>  <excitation_energy_1>
7.017

>  <excitation_energy_2>
7.088

>  <excitation_energy_3>
7.129

>  <excitation_energy_4>
7.207

>  <homo_energy>
-7.391

>  <homo_lumo_gap>
9.309

>  <logP>
-0.216

>  <lumo_energy>
1.918

>  <melting_point>
2.02

>  <molecular_refractivity>
19.28

>  <oscillator_strength_1>
0.0024

>  <oscillator_strength_2>
0.0234

>  <oscillator_strength_3>
0.0178

>  <oscillator_strength_4>
0.0029

>  <open_babel_can_smiles>
O1C[C@H]1[C@H]1OC1

>  <mulliken_charges>
12
1   -0.101245
2   -0.101143
3   0.065095
4   0.065061
5   -0.440198
6   -0.440225
7   0.155317
8   0.152785
9   0.155303
10   0.152786
11   0.168234
12   0.16823

>  <lowdin_charges>
12
1   -0.160244
2   -0.163834
3   -0.032562
4   -0.029233
5   -0.279321
6   -0.279288
7   0.154965
8   0.154712
9   0.156362
10   0.154568
11   0.162948
12   0.160928

$$$$

