PCCDB-ID:  20267
public computational chemistry database (PCCDB) project, http://pccdb.org

 24 26  0  0  0  0  0  0  0  0999 V2000
   -3.0623   -1.1512   -0.1070 C   0  0  0  0  0  0  0  0  0  0  0  0
   -3.4833    0.1760   -0.0083 C   0  0  0  0  0  0  0  0  0  0  0  0
    3.4555    0.1455   -0.0912 C   0  0  0  0  0  0  0  0  0  0  0  0
   -1.6991   -1.4891   -0.1238 C   0  0  0  0  0  0  0  0  0  0  0  0
   -2.5361    1.2071    0.0603 C   0  0  0  0  0  0  0  0  0  0  0  0
    2.5282    1.1955   -0.0393 C   0  0  0  0  0  0  0  0  0  0  0  0
    3.0291   -1.1796   -0.0796 C   0  0  0  0  0  0  0  0  0  0  0  0
   -0.7531   -0.4701   -0.0313 C   0  0  0  0  0  0  0  0  0  0  0  0
   -1.1925    0.8708    0.0453 C   0  0  0  0  0  0  0  0  0  0  0  0
    1.1855    0.8588   -0.0072 C   0  0  0  0  0  0  0  0  0  0  0  0
    1.6596   -1.5255   -0.0331 C   0  0  0  0  0  0  0  0  0  0  0  0
    0.7305   -0.4756   -0.0286 C   0  0  0  0  0  0  0  0  0  0  0  0
    0.0001    1.7737    0.0591 C   0  0  0  0  0  0  0  0  0  0  0  0
    1.2637   -2.8674   -0.0333 N   0  0  0  0  0  0  0  0  0  0  0  0
    0.0075    2.9917    0.1097 O   0  0  0  0  0  0  0  0  0  0  0  0
   -3.8029   -1.9434   -0.1803 H   0  0  0  0  0  0  0  0  0  0  0  0
   -4.5444    0.4082    0.0033 H   0  0  0  0  0  0  0  0  0  0  0  0
    4.5203    0.3587   -0.1244 H   0  0  0  0  0  0  0  0  0  0  0  0
   -1.4097   -2.5276   -0.2482 H   0  0  0  0  0  0  0  0  0  0  0  0
   -2.8330    2.2507    0.1172 H   0  0  0  0  0  0  0  0  0  0  0  0
    2.8366    2.2362   -0.0269 H   0  0  0  0  0  0  0  0  0  0  0  0
    3.7662   -1.9802   -0.0982 H   0  0  0  0  0  0  0  0  0  0  0  0
    2.0122   -3.5154    0.1844 H   0  0  0  0  0  0  0  0  0  0  0  0
    0.4479   -3.0625    0.5344 H   0  0  0  0  0  0  0  0  0  0  0  0
  1  2  1  0  0  0  0
  2 17  1  0  0  0  0
  2  5  2  0  0  0  0
  3  7  2  0  0  0  0
  3  6  1  0  0  0  0
  4  1  2  0  0  0  0
  4  8  1  0  0  0  0
  5 20  1  0  0  0  0
  6 21  1  0  0  0  0
  6 10  2  0  0  0  0
  7 11  1  0  0  0  0
  8 12  1  0  0  0  0
  8  9  2  0  0  0  0
  9 13  1  0  0  0  0
  9  5  1  0  0  0  0
 10 13  1  0  0  0  0
 11 12  2  0  0  0  0
 12 10  1  0  0  0  0
 13 15  2  0  0  0  0
 14 11  1  0  0  0  0
 14 23  1  0  0  0  0
 14 24  1  0  0  0  0
 16  1  1  0  0  0  0
 18  3  1  0  0  0  0
 19  4  1  0  0  0  0
 22  7  1  0  0  0  0
M  END
>  <HBA>
2

>  <HBD>
1

>  <TPSA>
43.09

>  <cid>
20267

>  <dipole>
4.58

>  <excitation_energy_1>
2.84

>  <excitation_energy_2>
3.145

>  <excitation_energy_3>
3.536

>  <excitation_energy_4>
4.197

>  <homo_energy>
-5.723

>  <homo_lumo_gap>
3.584

>  <logP>
3.061

>  <lumo_energy>
-2.139

>  <melting_point>
149.87

>  <molecular_refractivity>
59.71

>  <oscillator_strength_1>
0.0344

>  <oscillator_strength_2>
0.0

>  <oscillator_strength_3>
0.038

>  <oscillator_strength_4>
0.026

>  <open_babel_can_smiles>
Nc1cccc2c1c1ccccc1C2=O

>  <mulliken_charges>
24
1   -0.126906
2   -0.136991
3   -0.139484
4   -0.21404
5   -0.177092
6   -0.184739
7   -0.167339
8   0.094111
9   0.043497
10   0.033812
11   0.23903
12   0.036436
13   0.337642
14   -0.796292
15   -0.466791
16   0.135837
17   0.136374
18   0.135875
19   0.135739
20   0.156147
21   0.151426
22   0.12361
23   0.323155
24   0.326982

>  <lowdin_charges>
24
1   -0.139386
2   -0.158241
3   -0.143054
4   -0.174746
5   -0.123448
6   -0.14984
7   -0.182086
8   0.007861
9   -0.049952
10   -0.038745
11   0.056447
12   -0.037674
13   0.150138
14   -0.487058
15   -0.225053
16   0.161953
17   0.16
18   0.160074
19   0.15791
20   0.171538
21   0.170895
22   0.156936
23   0.277048
24   0.278485

$$$$

