PCCDB-ID:  21507
public computational chemistry database (PCCDB) project, http://pccdb.org

 19 19  0  0  0  0  0  0  0  0999 V2000
    0.9972    0.0257   -0.0557 C   0  0  0  0  0  0  0  0  0  0  0  0
    5.4613    2.4370   -0.0681 C   0  0  0  0  0  0  0  0  0  0  0  0
    3.2361    1.2216   -0.0629 C   0  0  0  0  0  0  0  0  0  0  0  0
    3.2187   -1.1709   -0.1322 C   0  0  0  0  0  0  0  0  0  0  0  0
    2.5071    0.0239   -0.0828 C   0  0  0  0  0  0  0  0  0  0  0  0
    4.6312    1.1768   -0.0893 C   0  0  0  0  0  0  0  0  0  0  0  0
    4.6248   -1.1239   -0.1529 C   0  0  0  0  0  0  0  0  0  0  0  0
    5.3781   -2.2856   -0.2534 N   0  0  0  0  0  0  0  0  0  0  0  0
    5.3178    0.0230   -0.1267 N   0  0  0  0  0  0  0  0  0  0  0  0
    0.5990    1.0443   -0.0221 H   0  0  0  0  0  0  0  0  0  0  0  0
    0.6157   -0.5146    0.8194 H   0  0  0  0  0  0  0  0  0  0  0  0
    0.5848   -0.4687   -0.9436 H   0  0  0  0  0  0  0  0  0  0  0  0
    4.8359    3.3344   -0.0463 H   0  0  0  0  0  0  0  0  0  0  0  0
    6.1087    2.4825   -0.9513 H   0  0  0  0  0  0  0  0  0  0  0  0
    6.1187    2.4480    0.8092 H   0  0  0  0  0  0  0  0  0  0  0  0
    2.7202    2.1767   -0.0248 H   0  0  0  0  0  0  0  0  0  0  0  0
    2.7018   -2.1273   -0.1653 H   0  0  0  0  0  0  0  0  0  0  0  0
    4.9722   -3.1223    0.1439 H   0  0  0  0  0  0  0  0  0  0  0  0
    6.3520   -2.1495   -0.0120 H   0  0  0  0  0  0  0  0  0  0  0  0
  1 10  1  0  0  0  0
  1 11  1  0  0  0  0
  2 13  1  0  0  0  0
  2 15  1  0  0  0  0
  3 16  1  0  0  0  0
  4  5  1  0  0  0  0
  5  3  2  0  0  0  0
  5  1  1  0  0  0  0
  6  2  1  0  0  0  0
  6  3  1  0  0  0  0
  7  4  2  0  0  0  0
  7  9  1  0  0  0  0
  8  7  1  0  0  0  0
  8 19  1  0  0  0  0
  8 18  1  0  0  0  0
  9  6  2  0  0  0  0
 12  1  1  0  0  0  0
 14  2  1  0  0  0  0
 17  4  1  0  0  0  0
M  END
>  <HBA>
2

>  <HBD>
1

>  <TPSA>
38.91

>  <cid>
21507

>  <dipole>
1.85

>  <excitation_energy_1>
4.591

>  <excitation_energy_2>
5.015

>  <excitation_energy_3>
5.204

>  <excitation_energy_4>
5.517

>  <homo_energy>
-5.557

>  <homo_lumo_gap>
5.377

>  <logP>
1.862

>  <lumo_energy>
-0.18

>  <melting_point>
77.65

>  <molecular_refractivity>
38.57

>  <oscillator_strength_1>
0.0768

>  <oscillator_strength_2>
0.0043

>  <oscillator_strength_3>
0.0046

>  <oscillator_strength_4>
0.0699

>  <open_babel_can_smiles>
Cc1cc(C)nc(c1)N

>  <mulliken_charges>
19
1   -0.532963
2   -0.506867
3   -0.246312
4   -0.227419
5   0.205866
6   0.318731
7   0.465997
8   -0.768284
9   -0.54972
10   0.158121
11   0.164237
12   0.16647
13   0.145577
14   0.167636
15   0.165202
16   0.11419
17   0.111965
18   0.318818
19   0.328754

>  <lowdin_charges>
19
1   -0.443072
2   -0.444547
3   -0.232341
4   -0.234326
5   0.034637
6   0.067252
7   0.10533
8   -0.479614
9   -0.208769
10   0.157598
11   0.163467
12   0.164552
13   0.152264
14   0.166684
15   0.165436
16   0.154348
17   0.15305
18   0.276842
19   0.281207

$$$$

