PCCDB-ID:  20129
public computational chemistry database (PCCDB) project, http://pccdb.org

 23 23  0  0  1  0  0  0  0  0999 V2000
    1.5030    0.6386   -0.3227 C   0  0  0  0  0  0  0  0  0  0  0  0
    7.2113   -0.1794   -2.0125 C   0  0  0  0  0  0  0  0  0  0  0  0
    6.1780   -0.7538   -2.7567 C   0  0  0  0  0  0  0  0  0  0  0  0
    6.9755    0.2000   -0.6901 C   0  0  0  0  0  0  0  0  0  0  0  0
    4.9164   -0.9340   -2.1912 C   0  0  0  0  0  0  0  0  0  0  0  0
    5.7206    0.0131   -0.1071 C   0  0  0  0  0  0  0  0  0  0  0  0
    2.4843   -0.3597    1.8047 C   0  0  0  0  0  0  0  0  0  0  0  0
    2.7677    0.2246    0.4211 C   0  0  1  0  0  0  0  0  0  0  0  0
    4.6862   -0.5476   -0.8669 C   0  0  0  0  0  0  0  0  0  0  0  0
    3.6692   -0.7965    2.4497 O   0  0  0  0  0  0  0  0  0  0  0  0
    3.4360   -0.8058   -0.3471 O   0  0  0  0  0  0  0  0  0  0  0  0
    0.9556    1.4050    0.2387 H   0  0  0  0  0  0  0  0  0  0  0  0
    0.8432   -0.2235   -0.4683 H   0  0  0  0  0  0  0  0  0  0  0  0
    1.7541    1.0482   -1.3059 H   0  0  0  0  0  0  0  0  0  0  0  0
    8.1919   -0.0349   -2.4569 H   0  0  0  0  0  0  0  0  0  0  0  0
    6.3498   -1.0547   -3.7869 H   0  0  0  0  0  0  0  0  0  0  0  0
    7.7767    0.6331   -0.0968 H   0  0  0  0  0  0  0  0  0  0  0  0
    4.0991   -1.3711   -2.7565 H   0  0  0  0  0  0  0  0  0  0  0  0
    5.5473    0.2716    0.9329 H   0  0  0  0  0  0  0  0  0  0  0  0
    1.7540   -1.1796    1.7088 H   0  0  0  0  0  0  0  0  0  0  0  0
    2.0435    0.4091    2.4478 H   0  0  0  0  0  0  0  0  0  0  0  0
    3.4434    1.0803    0.5283 H   0  0  0  0  0  0  0  0  0  0  0  0
    4.0515   -1.4757    1.8697 H   0  0  0  0  0  0  0  0  0  0  0  0
  1 12  1  0  0  0  0
  1  8  1  0  0  0  0
  2  4  2  0  0  0  0
  3  5  2  0  0  0  0
  3  2  1  0  0  0  0
  4  6  1  0  0  0  0
  4 17  1  0  0  0  0
  5  9  1  0  0  0  0
  6 19  1  0  0  0  0
  7 21  1  0  0  0  0
  7 10  1  0  0  0  0
  8 22  1  1  0  0  0
  8  7  1  0  0  0  0
  9 11  1  0  0  0  0
  9  6  2  0  0  0  0
 11  8  1  0  0  0  0
 13  1  1  0  0  0  0
 14  1  1  0  0  0  0
 15  2  1  0  0  0  0
 16  3  1  0  0  0  0
 18  5  1  0  0  0  0
 20  7  1  0  0  0  0
 23 10  1  0  0  0  0
M  END
>  <HBA>
2

>  <HBD>
1

>  <TPSA>
29.46

>  <cid>
20129

>  <dipole>
1.38

>  <excitation_energy_1>
5.084

>  <excitation_energy_2>
5.693

>  <excitation_energy_3>
5.823

>  <excitation_energy_4>
6.098

>  <homo_energy>
-6.117

>  <homo_lumo_gap>
6.071

>  <logP>
1.446

>  <lumo_energy>
-0.046

>  <melting_point>
25.71

>  <molecular_refractivity>
43.71

>  <oscillator_strength_1>
0.0168

>  <oscillator_strength_2>
0.0755

>  <oscillator_strength_3>
0.0012

>  <oscillator_strength_4>
0.0029

>  <open_babel_can_smiles>
OC[C@@H](Oc1ccccc1)C

>  <mulliken_charges>
23
1   -0.454401
2   -0.129248
3   -0.136769
4   -0.139626
5   -0.17068
6   -0.189598
7   -0.033331
8   0.109874
9   0.348798
10   -0.617007
11   -0.555066
12   0.146961
13   0.157677
14   0.161223
15   0.127441
16   0.131123
17   0.132873
18   0.134434
19   0.153051
20   0.128564
21   0.146332
22   0.144345
23   0.403029

>  <lowdin_charges>
23
1   -0.452903
2   -0.172268
3   -0.147333
4   -0.149538
5   -0.184241
6   -0.203824
7   -0.14823
8   -0.008
9   0.094754
10   -0.463477
11   -0.23155
12   0.156892
13   0.158077
14   0.161491
15   0.157185
16   0.15739
17   0.160178
18   0.165882
19   0.167691
20   0.133436
21   0.152794
22   0.147256
23   0.348338

$$$$

