PCCDB-ID:  3762
public computational chemistry database (PCCDB) project, http://pccdb.org

 38 38  0  0  1  0  0  0  0  0999 V2000
    0.5741   -0.6792    1.8337 C   0  0  0  0  0  0  0  0  0  0  0  0
    0.7265   -3.1487   -3.9464 C   0  0  0  0  0  0  0  0  0  0  0  0
    2.2865   -1.3226   -3.1720 C   0  0  0  0  0  0  0  0  0  0  0  0
    0.1063   -1.1334    0.4454 C   0  0  0  0  0  0  0  0  0  0  0  0
    1.5520   -4.2880    2.6972 C   0  0  0  0  0  0  0  0  0  0  0  0
    2.3401   -4.3808    3.8500 C   0  0  0  0  0  0  0  0  0  0  0  0
    3.3044   -3.0443    1.6264 C   0  0  0  0  0  0  0  0  0  0  0  0
    1.4812   -2.5591   -2.7513 C   0  0  0  0  0  0  0  0  0  0  0  0
    2.0163   -3.6043    1.5742 C   0  0  0  0  0  0  0  0  0  0  0  0
    1.0303   -2.0952   -0.3343 C   0  0  1  0  0  0  0  0  0  0  0  0
    3.6080   -3.8111    3.9030 C   0  0  0  0  0  0  0  0  0  0  0  0
    4.0985   -3.1378    2.7654 C   0  0  0  0  0  0  0  0  0  0  0  0
    1.1870   -3.5163    0.2963 C   0  0  2  0  0  0  0  0  0  0  0  0
    0.5100   -2.2011   -1.7069 N   0  0  0  0  0  0  0  0  0  0  0  0
    4.4254   -3.8687    4.9970 O   0  0  0  0  0  0  0  0  0  0  0  0
    5.3541   -2.6056    2.8528 O   0  0  0  0  0  0  0  0  0  0  0  0
   -0.0980   -4.1289    0.4316 O   0  0  0  0  0  0  0  0  0  0  0  0
   -0.0975    0.0959    2.2212 H   0  0  0  0  0  0  0  0  0  0  0  0
    1.5831   -0.2521    1.7934 H   0  0  0  0  0  0  0  0  0  0  0  0
    0.5983   -1.4945    2.5624 H   0  0  0  0  0  0  0  0  0  0  0  0
    1.4138   -3.3854   -4.7655 H   0  0  0  0  0  0  0  0  0  0  0  0
   -0.0172   -2.4329   -4.3162 H   0  0  0  0  0  0  0  0  0  0  0  0
    0.2031   -4.0720   -3.6686 H   0  0  0  0  0  0  0  0  0  0  0  0
    3.0367   -1.5866   -3.9267 H   0  0  0  0  0  0  0  0  0  0  0  0
    2.8146   -0.8726   -2.3236 H   0  0  0  0  0  0  0  0  0  0  0  0
    1.6177   -0.5621   -3.5901 H   0  0  0  0  0  0  0  0  0  0  0  0
   -0.0186   -0.2590   -0.2018 H   0  0  0  0  0  0  0  0  0  0  0  0
   -0.8974   -1.5798    0.5144 H   0  0  0  0  0  0  0  0  0  0  0  0
    0.5845   -4.7765    2.6697 H   0  0  0  0  0  0  0  0  0  0  0  0
    1.9637   -4.9161    4.7206 H   0  0  0  0  0  0  0  0  0  0  0  0
    3.7097   -2.5251    0.7589 H   0  0  0  0  0  0  0  0  0  0  0  0
    2.1989   -3.3264   -2.3986 H   0  0  0  0  0  0  0  0  0  0  0  0
    2.0228   -1.6332   -0.3890 H   0  0  0  0  0  0  0  0  0  0  0  0
    1.6854   -4.1355   -0.4603 H   0  0  0  0  0  0  0  0  0  0  0  0
   -0.2378   -2.8943   -1.6897 H   0  0  0  0  0  0  0  0  0  0  0  0
    3.9684   -4.3658    5.6930 H   0  0  0  0  0  0  0  0  0  0  0  0
    5.5676   -2.1820    2.0070 H   0  0  0  0  0  0  0  0  0  0  0  0
   -0.5951   -3.6182    1.0914 H   0  0  0  0  0  0  0  0  0  0  0  0
  1 18  1  0  0  0  0
  1 20  1  0  0  0  0
  2 23  1  0  0  0  0
  2  8  1  0  0  0  0
  3  8  1  0  0  0  0
  3 25  1  0  0  0  0
  4 28  1  0  0  0  0
  4  1  1  0  0  0  0
  5  6  2  0  0  0  0
  6 11  1  0  0  0  0
  6 30  1  0  0  0  0
  7 12  1  0  0  0  0
  8 32  1  0  0  0  0
  8 14  1  0  0  0  0
  9  7  2  0  0  0  0
  9  5  1  0  0  0  0
 10 33  1  6  0  0  0
 10 13  1  0  0  0  0
 10  4  1  0  0  0  0
 11 15  1  0  0  0  0
 12 16  1  0  0  0  0
 12 11  2  0  0  0  0
 13 34  1  6  0  0  0
 13 17  1  0  0  0  0
 13  9  1  0  0  0  0
 14 35  1  0  0  0  0
 14 10  1  0  0  0  0
 15 36  1  0  0  0  0
 17 38  1  0  0  0  0
 19  1  1  0  0  0  0
 21  2  1  0  0  0  0
 22  2  1  0  0  0  0
 24  3  1  0  0  0  0
 26  3  1  0  0  0  0
 27  4  1  0  0  0  0
 29  5  1  0  0  0  0
 31  7  1  0  0  0  0
 37 16  1  0  0  0  0
M  END
>  <HBA>
4

>  <HBD>
4

>  <TPSA>
72.72

>  <cid>
3762

>  <dipole>
0.49

>  <excitation_energy_1>
4.694

>  <excitation_energy_2>
4.759

>  <excitation_energy_3>
4.972

>  <excitation_energy_4>
5.043

>  <homo_energy>
-5.505

>  <homo_lumo_gap>
5.54

>  <logP>
2.299

>  <lumo_energy>
0.035

>  <melting_point>
130.91

>  <molecular_refractivity>
68.26

>  <oscillator_strength_1>
0.0764

>  <oscillator_strength_2>
0.003

>  <oscillator_strength_3>
0.0001

>  <oscillator_strength_4>
0.003

>  <open_babel_can_smiles>
CC[C@@H]([C@@H](c1ccc(c(c1)O)O)O)NC(C)C

>  <mulliken_charges>
38
1   -0.452217
2   -0.463562
3   -0.428965
4   -0.26476
5   -0.207951
6   -0.197212
7   -0.259667
8   0.06554
9   0.135902
10   0.016667
11   0.320741
12   0.325914
13   0.042277
14   -0.566516
15   -0.632861
16   -0.633016
17   -0.631725
18   0.1416
19   0.143224
20   0.152552
21   0.144897
22   0.154188
23   0.144322
24   0.134419
25   0.135089
26   0.150994
27   0.155572
28   0.116235
29   0.128843
30   0.118959
31   0.113865
32   0.10217
33   0.125357
34   0.157729
35   0.302538
36   0.40722
37   0.407135
38   0.394501

>  <lowdin_charges>
38
1   -0.454273
2   -0.450719
3   -0.451731
4   -0.283024
5   -0.185697
6   -0.204972
7   -0.220103
8   -0.057383
9   -0.030317
10   -0.082798
11   0.074566
12   0.082949
13   -0.01726
14   -0.360433
15   -0.370825
16   -0.368965
17   -0.456418
18   0.150909
19   0.147599
20   0.152933
21   0.153599
22   0.154527
23   0.149395
24   0.147225
25   0.145018
26   0.154317
27   0.157824
28   0.131935
29   0.160189
30   0.154611
31   0.151217
32   0.112797
33   0.139869
34   0.156376
35   0.256887
36   0.359964
37   0.357635
38   0.342579

$$$$

