PCCDB-ID:  22217
public computational chemistry database (PCCDB) project, http://pccdb.org

 30 29  0  0  1  0  0  0  0  0999 V2000
    2.3409    1.7858    2.4049 C   0  0  0  0  0  0  0  0  0  0  0  0
    8.6422    5.1056   -2.1015 C   0  0  0  0  0  0  0  0  0  0  0  0
    3.4445    1.6979    1.3455 C   0  0  0  0  0  0  0  0  0  0  0  0
    7.7511    3.9225   -1.7071 C   0  0  0  0  0  0  0  0  0  0  0  0
    4.5953    0.7673    1.7555 C   0  0  0  0  0  0  0  0  0  0  0  0
    5.6928    0.5876    0.6951 C   0  0  0  0  0  0  0  0  0  0  0  0
    8.5010    2.8679   -0.8808 C   0  0  0  0  0  0  0  0  0  0  0  0
    6.5167    1.8509    0.4079 C   0  0  0  0  0  0  0  0  0  0  0  0
    7.7017    1.6008   -0.5370 C   0  0  2  0  0  0  0  0  0  0  0  0
    8.5775    0.5949   -0.0109 O   0  0  0  0  0  0  0  0  0  0  0  0
    1.5302    2.4511    2.0862 H   0  0  0  0  0  0  0  0  0  0  0  0
    2.7329    2.1702    3.3547 H   0  0  0  0  0  0  0  0  0  0  0  0
    1.9039    0.7994    2.6042 H   0  0  0  0  0  0  0  0  0  0  0  0
    8.0883    5.8424   -2.6942 H   0  0  0  0  0  0  0  0  0  0  0  0
    9.5001    4.7730   -2.6983 H   0  0  0  0  0  0  0  0  0  0  0  0
    9.0351    5.6185   -1.2150 H   0  0  0  0  0  0  0  0  0  0  0  0
    3.8311    2.7060    1.1440 H   0  0  0  0  0  0  0  0  0  0  0  0
    3.0146    1.3413    0.3982 H   0  0  0  0  0  0  0  0  0  0  0  0
    7.3489    3.4508   -2.6151 H   0  0  0  0  0  0  0  0  0  0  0  0
    6.8845    4.2957   -1.1465 H   0  0  0  0  0  0  0  0  0  0  0  0
    4.1768   -0.2200    1.9985 H   0  0  0  0  0  0  0  0  0  0  0  0
    5.0470    1.1409    2.6873 H   0  0  0  0  0  0  0  0  0  0  0  0
    5.2363    0.2361   -0.2424 H   0  0  0  0  0  0  0  0  0  0  0  0
    6.3807   -0.2041    1.0131 H   0  0  0  0  0  0  0  0  0  0  0  0
    8.8609    3.3264    0.0549 H   0  0  0  0  0  0  0  0  0  0  0  0
    9.3949    2.5452   -1.4307 H   0  0  0  0  0  0  0  0  0  0  0  0
    6.9079    2.2600    1.3548 H   0  0  0  0  0  0  0  0  0  0  0  0
    5.8764    2.6331   -0.0187 H   0  0  0  0  0  0  0  0  0  0  0  0
    7.3242    1.1593   -1.4690 H   0  0  0  0  0  0  0  0  0  0  0  0
    8.9616    0.9525    0.8067 H   0  0  0  0  0  0  0  0  0  0  0  0
  1 13  1  0  0  0  0
  1 12  1  0  0  0  0
  2  4  1  0  0  0  0
  2 16  1  0  0  0  0
  3  5  1  0  0  0  0
  3  1  1  0  0  0  0
  4 20  1  0  0  0  0
  4  7  1  0  0  0  0
  5 21  1  0  0  0  0
  5 22  1  0  0  0  0
  6 24  1  0  0  0  0
  6  5  1  0  0  0  0
  7  9  1  0  0  0  0
  7 25  1  0  0  0  0
  8  6  1  0  0  0  0
  8 27  1  0  0  0  0
  9 29  1  6  0  0  0
  9 10  1  0  0  0  0
  9  8  1  0  0  0  0
 10 30  1  0  0  0  0
 11  1  1  0  0  0  0
 14  2  1  0  0  0  0
 15  2  1  0  0  0  0
 17  3  1  0  0  0  0
 18  3  1  0  0  0  0
 19  4  1  0  0  0  0
 23  6  1  0  0  0  0
 26  7  1  0  0  0  0
 28  8  1  0  0  0  0
M  END
>  <HBA>
1

>  <HBD>
1

>  <TPSA>
20.23

>  <cid>
22217

>  <dipole>
1.55

>  <excitation_energy_1>
6.467

>  <excitation_energy_2>
6.94

>  <excitation_energy_3>
7.151

>  <excitation_energy_4>
7.238

>  <homo_energy>
-7.018

>  <homo_lumo_gap>
9.094

>  <logP>
2.728

>  <lumo_energy>
2.076

>  <melting_point>
-9.94

>  <molecular_refractivity>
46.54

>  <oscillator_strength_1>
0.0175

>  <oscillator_strength_2>
0.0048

>  <oscillator_strength_3>
0.0007

>  <oscillator_strength_4>
0.0011

>  <open_babel_can_smiles>
CCCCC[C@@H](CCC)O

>  <mulliken_charges>
30
1   -0.441027
2   -0.441557
3   -0.248182
4   -0.258058
5   -0.249437
6   -0.254718
7   -0.269371
8   -0.277826
9   0.136986
10   -0.624478
11   0.140649
12   0.140444
13   0.141563
14   0.143272
15   0.144644
16   0.142017
17   0.132466
18   0.129211
19   0.134404
20   0.137261
21   0.127832
22   0.122454
23   0.125326
24   0.147748
25   0.113462
26   0.14389
27   0.112056
28   0.139098
29   0.12995
30   0.379921

>  <lowdin_charges>
30
1   -0.444612
2   -0.445744
3   -0.274537
4   -0.275764
5   -0.275206
6   -0.278934
7   -0.293313
8   -0.29597
9   -0.00322
10   -0.463376
11   0.149363
12   0.145779
13   0.145859
14   0.151335
15   0.14848
16   0.147328
17   0.137636
18   0.138196
19   0.141483
20   0.141412
21   0.140154
22   0.135442
23   0.138225
24   0.151695
25   0.132621
26   0.149689
27   0.132023
28   0.146943
29   0.140235
30   0.336776

$$$$

