PCCDB-ID:  45694
public computational chemistry database (PCCDB) project, http://pccdb.org

 23 23  0  0  0  0  0  0  0  0999 V2000
    5.6252   -2.2193    0.7685 C   0  0  0  0  0  0  0  0  0  0  0  0
    4.7380   -1.2106    1.5062 C   0  0  0  0  0  0  0  0  0  0  0  0
    3.8394    5.3940    4.6599 C   0  0  0  0  0  0  0  0  0  0  0  0
    4.4332    4.1962    4.1296 C   0  0  0  0  0  0  0  0  0  0  0  0
    5.1130   -1.1016    2.9802 C   0  0  0  0  0  0  0  0  0  0  0  0
    2.7176    5.0229    5.3268 C   0  0  0  0  0  0  0  0  0  0  0  0
    3.6079    3.1859    4.5263 C   0  0  0  0  0  0  0  0  0  0  0  0
    4.5378    1.1009    3.6560 C   0  0  0  0  0  0  0  0  0  0  0  0
    3.5932    1.8065    4.3590 N   0  0  0  0  0  0  0  0  0  0  0  0
    5.5021    1.5838    3.0947 O   0  0  0  0  0  0  0  0  0  0  0  0
    2.5594    3.6550    5.2531 O   0  0  0  0  0  0  0  0  0  0  0  0
    4.2205   -0.2183    3.6960 O   0  0  0  0  0  0  0  0  0  0  0  0
    5.3428   -2.2878   -0.2871 H   0  0  0  0  0  0  0  0  0  0  0  0
    5.5378   -3.2235    1.2015 H   0  0  0  0  0  0  0  0  0  0  0  0
    6.6813   -1.9276    0.8113 H   0  0  0  0  0  0  0  0  0  0  0  0
    3.6838   -1.5053    1.4294 H   0  0  0  0  0  0  0  0  0  0  0  0
    4.8333   -0.2201    1.0472 H   0  0  0  0  0  0  0  0  0  0  0  0
    4.2145    6.4021    4.5495 H   0  0  0  0  0  0  0  0  0  0  0  0
    5.3323    4.0901    3.5457 H   0  0  0  0  0  0  0  0  0  0  0  0
    6.1384   -0.7414    3.0996 H   0  0  0  0  0  0  0  0  0  0  0  0
    5.0070   -2.0639    3.4892 H   0  0  0  0  0  0  0  0  0  0  0  0
    1.9537    5.5457    5.8795 H   0  0  0  0  0  0  0  0  0  0  0  0
    2.8352    1.2943    4.7890 H   0  0  0  0  0  0  0  0  0  0  0  0
  1 15  1  0  0  0  0
  1 14  1  0  0  0  0
  1  2  1  0  0  0  0
  2  5  1  0  0  0  0
  3  6  2  0  0  0  0
  4  7  2  0  0  0  0
  4  3  1  0  0  0  0
  5 20  1  0  0  0  0
  5 21  1  0  0  0  0
  5 12  1  0  0  0  0
  6 22  1  0  0  0  0
  7 11  1  0  0  0  0
  8 12  1  0  0  0  0
  8  9  1  0  0  0  0
  9  7  1  0  0  0  0
  9 23  1  0  0  0  0
 10  8  2  0  0  0  0
 11  6  1  0  0  0  0
 13  1  1  0  0  0  0
 16  2  1  0  0  0  0
 17  2  1  0  0  0  0
 18  3  1  0  0  0  0
 19  4  1  0  0  0  0
M  END
>  <HBA>
4

>  <HBD>
1

>  <TPSA>
51.47

>  <cid>
45694

>  <dipole>
1.81

>  <excitation_energy_1>
5.014

>  <excitation_energy_2>
5.217

>  <excitation_energy_3>
5.435

>  <excitation_energy_4>
5.635

>  <homo_energy>
-5.393

>  <homo_lumo_gap>
5.761

>  <logP>
2.311

>  <lumo_energy>
0.367

>  <melting_point>
57.88

>  <molecular_refractivity>
44.11

>  <oscillator_strength_1>
0.0025

>  <oscillator_strength_2>
0.4801

>  <oscillator_strength_3>
0.0063

>  <oscillator_strength_4>
0.0048

>  <open_babel_can_smiles>
CCCOC(=O)Nc1ccco1

>  <mulliken_charges>
23
1   -0.454641
2   -0.273126
3   -0.188481
4   -0.171382
5   -0.034163
6   0.075681
7   0.546325
8   0.807833
9   -0.737194
10   -0.50485
11   -0.463661
12   -0.502083
13   0.154245
14   0.14434
15   0.15334
16   0.144264
17   0.165525
18   0.141286
19   0.168338
20   0.170704
21   0.149254
22   0.152853
23   0.355593

>  <lowdin_charges>
23
1   -0.440725
2   -0.283848
3   -0.190409
4   -0.239627
5   -0.128052
6   -0.097921
7   0.124184
8   0.218248
9   -0.234156
10   -0.299322
11   -0.119105
12   -0.210415
13   0.155684
14   0.147049
15   0.150833
16   0.145575
17   0.157541
18   0.16897
19   0.186014
20   0.157867
21   0.150783
22   0.172401
23   0.308433

$$$$

