PCCDB-ID:  66033
public computational chemistry database (PCCDB) project, http://pccdb.org

 34 35  0  0  0  0  0  0  0  0999 V2000
   -1.0762   -3.0253    2.2999 C   0  0  0  0  0  0  0  0  0  0  0  0
    6.3322   -6.9482    3.8685 C   0  0  0  0  0  0  0  0  0  0  0  0
   -0.3262   -2.3861    3.2878 C   0  0  0  0  0  0  0  0  0  0  0  0
   -0.5626   -3.1475    1.0035 C   0  0  0  0  0  0  0  0  0  0  0  0
    6.6817   -5.6047    4.0479 C   0  0  0  0  0  0  0  0  0  0  0  0
    5.7648   -7.3643    2.6634 C   0  0  0  0  0  0  0  0  0  0  0  0
    0.9331   -1.8706    2.9801 C   0  0  0  0  0  0  0  0  0  0  0  0
    0.6934   -2.6356    0.6966 C   0  0  0  0  0  0  0  0  0  0  0  0
    6.4649   -4.6823    3.0299 C   0  0  0  0  0  0  0  0  0  0  0  0
    5.5473   -6.4397    1.6419 C   0  0  0  0  0  0  0  0  0  0  0  0
    4.6457   -0.9519    0.0438 C   0  0  0  0  0  0  0  0  0  0  0  0
    5.6596   -2.0455   -0.3352 C   0  0  0  0  0  0  0  0  0  0  0  0
    2.7879   -1.4383    1.3823 C   0  0  0  0  0  0  0  0  0  0  0  0
    5.6565   -4.1364    0.7172 C   0  0  0  0  0  0  0  0  0  0  0  0
    1.4557   -1.9902    1.6843 C   0  0  0  0  0  0  0  0  0  0  0  0
    5.8943   -5.0920    1.8132 C   0  0  0  0  0  0  0  0  0  0  0  0
    3.3247   -1.5206    0.2292 N   0  0  0  0  0  0  0  0  0  0  0  0
    5.9426   -2.8974    0.8039 N   0  0  0  0  0  0  0  0  0  0  0  0
   -2.0584   -3.4264    2.5361 H   0  0  0  0  0  0  0  0  0  0  0  0
    6.5016   -7.6660    4.6667 H   0  0  0  0  0  0  0  0  0  0  0  0
   -0.7211   -2.2882    4.2955 H   0  0  0  0  0  0  0  0  0  0  0  0
   -1.1466   -3.6450    0.2335 H   0  0  0  0  0  0  0  0  0  0  0  0
    7.1246   -5.2803    4.9861 H   0  0  0  0  0  0  0  0  0  0  0  0
    5.4917   -8.4061    2.5192 H   0  0  0  0  0  0  0  0  0  0  0  0
    1.5202   -1.3730    3.7491 H   0  0  0  0  0  0  0  0  0  0  0  0
    1.1075   -2.7204   -0.3030 H   0  0  0  0  0  0  0  0  0  0  0  0
    6.7319   -3.6372    3.1504 H   0  0  0  0  0  0  0  0  0  0  0  0
    5.1059   -6.7620    0.7011 H   0  0  0  0  0  0  0  0  0  0  0  0
    4.5927   -0.2368   -0.7883 H   0  0  0  0  0  0  0  0  0  0  0  0
    5.0119   -0.4161    0.9357 H   0  0  0  0  0  0  0  0  0  0  0  0
    6.5951   -1.5511   -0.6298 H   0  0  0  0  0  0  0  0  0  0  0  0
    5.2767   -2.6047   -1.2054 H   0  0  0  0  0  0  0  0  0  0  0  0
    3.2959   -0.9404    2.2252 H   0  0  0  0  0  0  0  0  0  0  0  0
    5.2141   -4.5666   -0.1970 H   0  0  0  0  0  0  0  0  0  0  0  0
  1 19  1  0  0  0  0
  1  3  2  0  0  0  0
  2  5  1  0  0  0  0
  2 20  1  0  0  0  0
  3 21  1  0  0  0  0
  4  1  1  0  0  0  0
  5 23  1  0  0  0  0
  6  2  2  0  0  0  0
  7  3  1  0  0  0  0
  7 25  1  0  0  0  0
  8  4  2  0  0  0  0
  8 15  1  0  0  0  0
  9 27  1  0  0  0  0
  9  5  2  0  0  0  0
 10 16  2  0  0  0  0
 10  6  1  0  0  0  0
 11 17  1  0  0  0  0
 11 30  1  0  0  0  0
 12 11  1  0  0  0  0
 12 18  1  0  0  0  0
 13 15  1  0  0  0  0
 13 33  1  0  0  0  0
 14 18  2  0  0  0  0
 14 16  1  0  0  0  0
 15  7  2  0  0  0  0
 16  9  1  0  0  0  0
 17 13  2  0  0  0  0
 22  4  1  0  0  0  0
 24  6  1  0  0  0  0
 26  8  1  0  0  0  0
 28 10  1  0  0  0  0
 29 11  1  0  0  0  0
 31 12  1  0  0  0  0
 32 12  1  0  0  0  0
 34 14  1  0  0  0  0
M  END
>  <HBA>
2

>  <HBD>
0

>  <TPSA>
24.72

>  <cid>
66033

>  <dipole>
1.12

>  <excitation_energy_1>
4.355

>  <excitation_energy_2>
4.395

>  <excitation_energy_3>
4.584

>  <excitation_energy_4>
4.707

>  <homo_energy>
-6.338

>  <homo_lumo_gap>
5.192

>  <logP>
3.225

>  <lumo_energy>
-1.146

>  <melting_point>
71.28

>  <molecular_refractivity>
77.69

>  <oscillator_strength_1>
0.0006

>  <oscillator_strength_2>
0.0008

>  <oscillator_strength_3>
0.1696

>  <oscillator_strength_4>
0.0017

>  <open_babel_can_smiles>
N(=C\c1ccccc1)/CC/N=C/c1ccccc1

>  <mulliken_charges>
34
1   -0.123368
2   -0.123362
3   -0.134255
4   -0.131079
5   -0.13119
6   -0.134143
7   -0.185309
8   -0.163937
9   -0.164114
10   -0.185399
11   -0.142953
12   -0.142728
13   0.047387
14   0.046984
15   0.138045
16   0.138706
17   -0.377387
18   -0.377281
19   0.131816
20   0.131913
21   0.132119
22   0.132277
23   0.132408
24   0.132188
25   0.130918
26   0.154689
27   0.154553
28   0.130976
29   0.147146
30   0.130594
31   0.147383
32   0.130683
33   0.112947
34   0.112774

>  <lowdin_charges>
34
1   -0.147904
2   -0.150329
3   -0.156523
4   -0.1568
5   -0.154777
6   -0.155568
7   -0.155028
8   -0.136735
9   -0.135777
10   -0.153072
11   -0.205642
12   -0.205063
13   -0.070239
14   -0.069992
15   -0.020776
16   -0.02116
17   -0.17137
18   -0.171708
19   0.158147
20   0.159702
21   0.158123
22   0.160041
23   0.158745
24   0.157585
25   0.159064
26   0.171613
27   0.170847
28   0.157712
29   0.152294
30   0.133249
31   0.152317
32   0.133211
33   0.128202
34   0.12761

$$$$

