PCCDB-ID:  69017
public computational chemistry database (PCCDB) project, http://pccdb.org

 15 15  0  0  0  0  0  0  0  0999 V2000
   -0.3658    0.6918   -0.2473 C   0  0  0  0  0  0  0  0  0  0  0  0
    0.5404   -0.4275    0.0840 C   0  0  0  0  0  0  0  0  0  0  0  0
   -1.7149   -1.0055    1.1449 C   0  0  0  0  0  0  0  0  0  0  0  0
   -1.3098   -1.3645   -1.4440 C   0  0  0  0  0  0  0  0  0  0  0  0
   -0.9549   -0.7255   -0.1267 C   0  0  0  0  0  0  0  0  0  0  0  0
   -1.6950   -0.2750    2.1037 O   0  0  0  0  0  0  0  0  0  0  0  0
   -2.4379   -2.1641    1.1949 O   0  0  0  0  0  0  0  0  0  0  0  0
   -0.5377   -1.4707   -2.3631 O   0  0  0  0  0  0  0  0  0  0  0  0
   -2.5904   -1.8273   -1.5828 O   0  0  0  0  0  0  0  0  0  0  0  0
   -0.3355    1.0983   -1.2529 H   0  0  0  0  0  0  0  0  0  0  0  0
   -0.6633    1.3706    0.5447 H   0  0  0  0  0  0  0  0  0  0  0  0
    0.8913   -0.5195    1.1065 H   0  0  0  0  0  0  0  0  0  0  0  0
    1.1898   -0.8172   -0.6924 H   0  0  0  0  0  0  0  0  0  0  0  0
   -2.2343   -2.7410    0.4378 H   0  0  0  0  0  0  0  0  0  0  0  0
   -3.1630   -1.5010   -0.8664 H   0  0  0  0  0  0  0  0  0  0  0  0
  1  5  1  0  0  0  0
  1  2  1  0  0  0  0
  1 11  1  0  0  0  0
  2 12  1  0  0  0  0
  3  7  1  0  0  0  0
  3  6  2  0  0  0  0
  4  5  1  0  0  0  0
  5  2  1  0  0  0  0
  5  3  1  0  0  0  0
  8  4  2  0  0  0  0
  9  4  1  0  0  0  0
  9 15  1  0  0  0  0
 10  1  1  0  0  0  0
 13  2  1  0  0  0  0
 14  7  1  0  0  0  0
M  END
>  <HBA>
4

>  <HBD>
2

>  <TPSA>
74.6

>  <cid>
69017

>  <dipole>
0.31

>  <excitation_energy_1>
5.523

>  <excitation_energy_2>
5.585

>  <excitation_energy_3>
6.609

>  <excitation_energy_4>
6.682

>  <homo_energy>
-7.742

>  <homo_lumo_gap>
7.143

>  <logP>
-0.064

>  <lumo_energy>
-0.599

>  <melting_point>
169.68

>  <molecular_refractivity>
27.32

>  <oscillator_strength_1>
0.0002

>  <oscillator_strength_2>
0.0016

>  <oscillator_strength_3>
0.0059

>  <oscillator_strength_4>
0.0003

>  <open_babel_can_smiles>
OC(=O)C1(CC1)C(=O)O

>  <mulliken_charges>
15
1   -0.296561
2   -0.296435
3   0.578669
4   0.577673
5   -0.142214
6   -0.443517
7   -0.580697
8   -0.441377
9   -0.581308
10   0.191214
11   0.204682
12   0.192101
13   0.204565
14   0.416532
15   0.416674

>  <lowdin_charges>
15
1   -0.26644
2   -0.265845
3   0.19342
4   0.195318
5   -0.118697
6   -0.234003
7   -0.361737
8   -0.232075
9   -0.364679
10   0.179155
11   0.188151
12   0.179508
13   0.188219
14   0.359331
15   0.360373

$$$$

