PCCDB-ID:  69416
public computational chemistry database (PCCDB) project, http://pccdb.org

 12 11  0  0  0  0  0  0  0  0999 V2000
    1.4119   -0.3076   -0.1419 C   0  0  0  0  0  0  0  0  0  0  0  0
    1.4679    0.4578   -1.4615 C   0  0  0  0  0  0  0  0  0  0  0  0
    2.1452   -0.3398    2.4652 C   0  0  0  0  0  0  0  0  0  0  0  0
    0.7452    0.4829   -4.0721 C   0  0  0  0  0  0  0  0  0  0  0  0
    2.0326   -1.0250    3.4020 N   0  0  0  0  0  0  0  0  0  0  0  0
    0.8744    1.1582   -5.0139 N   0  0  0  0  0  0  0  0  0  0  0  0
    2.3346    0.6907    1.1259 S   0  0  0  0  0  0  0  0  0  0  0  0
    0.5313   -0.5328   -2.7252 S   0  0  0  0  0  0  0  0  0  0  0  0
    1.8923   -1.2851   -0.2260 H   0  0  0  0  0  0  0  0  0  0  0  0
    0.3833   -0.4349    0.2036 H   0  0  0  0  0  0  0  0  0  0  0  0
    2.4959    0.5771   -1.8113 H   0  0  0  0  0  0  0  0  0  0  0  0
    0.9957    1.4392   -1.3753 H   0  0  0  0  0  0  0  0  0  0  0  0
  1 10  1  0  0  0  0
  1  7  1  0  0  0  0
  2 12  1  0  0  0  0
  2  1  1  0  0  0  0
  3  5  3  0  0  0  0
  4  8  1  0  0  0  0
  6  4  3  0  0  0  0
  7  3  1  0  0  0  0
  8  2  1  0  0  0  0
  9  1  1  0  0  0  0
 11  2  1  0  0  0  0
M  END
>  <HBA>
4

>  <HBD>
0

>  <TPSA>
98.18

>  <cid>
69416

>  <dipole>
0.03

>  <excitation_energy_1>
4.788

>  <excitation_energy_2>
4.839

>  <excitation_energy_3>
5.406

>  <excitation_energy_4>
5.434

>  <homo_energy>
-7.646

>  <homo_lumo_gap>
6.172

>  <logP>
1.415

>  <lumo_energy>
-1.475

>  <melting_point>
60.51

>  <molecular_refractivity>
36.02

>  <oscillator_strength_1>
0.0001

>  <oscillator_strength_2>
0.0

>  <oscillator_strength_3>
0.0

>  <oscillator_strength_4>
0.0001

>  <open_babel_can_smiles>
N#CSCCSC#N

>  <mulliken_charges>
12
1   -0.450097
2   -0.450131
3   0.118605
4   0.118594
5   -0.366593
6   -0.36658
7   0.248921
8   0.248904
9   0.224742
10   0.22446
11   0.22472
12   0.224455

>  <lowdin_charges>
12
1   -0.363544
2   -0.363522
3   -0.168037
4   -0.168013
5   -0.101829
6   -0.101835
7   0.264005
8   0.263975
9   0.185117
10   0.184307
11   0.184547
12   0.184828

$$$$

