PCCDB-ID:  7122
public computational chemistry database (PCCDB) project, http://pccdb.org

 23 24  0  0  0  0  0  0  0  0999 V2000
    2.9197   -1.4294    0.4002 C   0  0  0  0  0  0  0  0  0  0  0  0
    5.8982    2.1811   -5.1037 C   0  0  0  0  0  0  0  0  0  0  0  0
    6.2298    0.8219   -4.8820 C   0  0  0  0  0  0  0  0  0  0  0  0
    5.0080    2.8265   -4.2736 C   0  0  0  0  0  0  0  0  0  0  0  0
    5.6633    0.1333   -3.8333 C   0  0  0  0  0  0  0  0  0  0  0  0
    3.4850    2.7772   -2.3017 C   0  0  0  0  0  0  0  0  0  0  0  0
    2.9227    2.0906   -1.2560 C   0  0  0  0  0  0  0  0  0  0  0  0
    4.1418    0.0877   -1.8690 C   0  0  0  0  0  0  0  0  0  0  0  0
    2.5975    0.0330    0.1338 C   0  0  0  0  0  0  0  0  0  0  0  0
    4.4065    2.1454   -3.1835 C   0  0  0  0  0  0  0  0  0  0  0  0
    3.2485    0.7234   -1.0250 C   0  0  0  0  0  0  0  0  0  0  0  0
    4.7411    0.7701   -2.9591 C   0  0  0  0  0  0  0  0  0  0  0  0
    1.8170    0.6359    0.8559 O   0  0  0  0  0  0  0  0  0  0  0  0
    3.9935   -1.5762    0.5653 H   0  0  0  0  0  0  0  0  0  0  0  0
    2.6292   -2.0581   -0.4499 H   0  0  0  0  0  0  0  0  0  0  0  0
    2.3715   -1.7491    1.2880 H   0  0  0  0  0  0  0  0  0  0  0  0
    6.3515    2.7149   -5.9345 H   0  0  0  0  0  0  0  0  0  0  0  0
    6.9338    0.3254   -5.5440 H   0  0  0  0  0  0  0  0  0  0  0  0
    4.7540    3.8701   -4.4433 H   0  0  0  0  0  0  0  0  0  0  0  0
    5.9155   -0.9100   -3.6584 H   0  0  0  0  0  0  0  0  0  0  0  0
    3.2315    3.8209   -2.4726 H   0  0  0  0  0  0  0  0  0  0  0  0
    2.2210    2.5650   -0.5785 H   0  0  0  0  0  0  0  0  0  0  0  0
    4.4037   -0.9554   -1.7141 H   0  0  0  0  0  0  0  0  0  0  0  0
  1 14  1  0  0  0  0
  1 16  1  0  0  0  0
  2  3  2  0  0  0  0
  2  4  1  0  0  0  0
  3  5  1  0  0  0  0
  4 10  2  0  0  0  0
  5 20  1  0  0  0  0
  5 12  2  0  0  0  0
  6  7  2  0  0  0  0
  7 11  1  0  0  0  0
  7 22  1  0  0  0  0
  8 23  1  0  0  0  0
  8 11  2  0  0  0  0
  9  1  1  0  0  0  0
  9 13  2  0  0  0  0
 10 12  1  0  0  0  0
 10  6  1  0  0  0  0
 11  9  1  0  0  0  0
 12  8  1  0  0  0  0
 15  1  1  0  0  0  0
 17  2  1  0  0  0  0
 18  3  1  0  0  0  0
 19  4  1  0  0  0  0
 21  6  1  0  0  0  0
M  END
>  <HBA>
1

>  <HBD>
0

>  <TPSA>
17.07

>  <cid>
7122

>  <dipole>
3.36

>  <excitation_energy_1>
3.672

>  <excitation_energy_2>
3.828

>  <excitation_energy_3>
4.331

>  <excitation_energy_4>
5.001

>  <homo_energy>
-6.117

>  <homo_lumo_gap>
4.397

>  <logP>
3.042

>  <lumo_energy>
-1.72

>  <melting_point>
83.55

>  <molecular_refractivity>
54.14

>  <oscillator_strength_1>
0.0001

>  <oscillator_strength_2>
0.0507

>  <oscillator_strength_3>
0.0502

>  <oscillator_strength_4>
0.0

>  <open_babel_can_smiles>
CC(=O)c1ccc2c(c1)cccc2

>  <mulliken_charges>
23
1   -0.542246
2   -0.13059
3   -0.137823
4   -0.192394
5   -0.184382
6   -0.19266
7   -0.167119
8   -0.264624
9   0.409975
10   0.142781
11   0.078608
12   0.138319
13   -0.453666
14   0.169975
15   0.17098
16   0.181651
17   0.135793
18   0.134979
19   0.135468
20   0.132854
21   0.135992
22   0.162943
23   0.135186

>  <lowdin_charges>
23
1   -0.47625
2   -0.15073
3   -0.158417
4   -0.15463
5   -0.150224
6   -0.153461
7   -0.139164
8   -0.14294
9   0.162558
10   0.008209
11   -0.052492
12   -0.003441
13   -0.242318
14   0.16758
15   0.170552
16   0.175761
17   0.162283
18   0.162322
19   0.159123
20   0.157692
21   0.159264
22   0.178654
23   0.16007

$$$$

