PCCDB-ID:  26375
public computational chemistry database (PCCDB) project, http://pccdb.org

 29 28  0  0  1  0  0  0  0  0999 V2000
    4.7009   -1.6920   -1.6155 C   0  0  0  0  0  0  0  0  0  0  0  0
    7.7824    3.1201    2.2371 C   0  0  0  0  0  0  0  0  0  0  0  0
    7.5783    0.7693    3.1376 C   0  0  0  0  0  0  0  0  0  0  0  0
    4.9173    2.4262    3.3132 C   0  0  0  0  0  0  0  0  0  0  0  0
    4.3179   -1.1282   -0.2433 C   0  0  0  0  0  0  0  0  0  0  0  0
    5.1975    0.0510    0.1944 C   0  0  0  0  0  0  0  0  0  0  0  0
    4.8137    0.6059    1.5737 C   0  0  0  0  0  0  0  0  0  0  0  0
    7.0860    1.7592    2.0689 C   0  0  0  0  0  0  0  0  0  0  0  0
    5.5380    1.9005    2.0070 C   0  0  2  0  0  0  0  0  0  0  0  0
    4.0520   -2.5278   -1.9014 H   0  0  0  0  0  0  0  0  0  0  0  0
    5.7354   -2.0570   -1.6196 H   0  0  0  0  0  0  0  0  0  0  0  0
    4.6192   -0.9251   -2.3958 H   0  0  0  0  0  0  0  0  0  0  0  0
    8.8691    3.0148    2.1342 H   0  0  0  0  0  0  0  0  0  0  0  0
    7.5911    3.5583    3.2237 H   0  0  0  0  0  0  0  0  0  0  0  0
    7.4440    3.8390    1.4807 H   0  0  0  0  0  0  0  0  0  0  0  0
    8.6678    0.6576    3.0831 H   0  0  0  0  0  0  0  0  0  0  0  0
    7.1393   -0.2269    3.0120 H   0  0  0  0  0  0  0  0  0  0  0  0
    7.3369    1.1154    4.1497 H   0  0  0  0  0  0  0  0  0  0  0  0
    3.8444    2.6086    3.1800 H   0  0  0  0  0  0  0  0  0  0  0  0
    5.3719    3.3682    3.6378 H   0  0  0  0  0  0  0  0  0  0  0  0
    5.0247    1.7038    4.1313 H   0  0  0  0  0  0  0  0  0  0  0  0
    4.3819   -1.9262    0.5103 H   0  0  0  0  0  0  0  0  0  0  0  0
    3.2660   -0.8090   -0.2581 H   0  0  0  0  0  0  0  0  0  0  0  0
    5.1242    0.8538   -0.5551 H   0  0  0  0  0  0  0  0  0  0  0  0
    6.2474   -0.2725    0.1918 H   0  0  0  0  0  0  0  0  0  0  0  0
    4.9633   -0.1753    2.3333 H   0  0  0  0  0  0  0  0  0  0  0  0
    3.7332    0.8120    1.5744 H   0  0  0  0  0  0  0  0  0  0  0  0
    7.4024    1.3667    1.0925 H   0  0  0  0  0  0  0  0  0  0  0  0
    5.3348    2.6517    1.2266 H   0  0  0  0  0  0  0  0  0  0  0  0
  1  5  1  0  0  0  0
  2 14  1  0  0  0  0
  3 18  1  0  0  0  0
  4 20  1  0  0  0  0
  4 21  1  0  0  0  0
  5  6  1  0  0  0  0
  5 22  1  0  0  0  0
  6  7  1  0  0  0  0
  7 27  1  0  0  0  0
  7  9  1  0  0  0  0
  7 26  1  0  0  0  0
  8  2  1  0  0  0  0
  8  3  1  0  0  0  0
  9 29  1  6  0  0  0
  9  8  1  0  0  0  0
  9  4  1  0  0  0  0
 10  1  1  0  0  0  0
 11  1  1  0  0  0  0
 12  1  1  0  0  0  0
 13  2  1  0  0  0  0
 15  2  1  0  0  0  0
 16  3  1  0  0  0  0
 17  3  1  0  0  0  0
 19  4  1  0  0  0  0
 23  5  1  0  0  0  0
 24  6  1  0  0  0  0
 25  6  1  0  0  0  0
 28  8  1  0  0  0  0
M  END
>  <HBA>
0

>  <HBD>
0

>  <TPSA>
0.0

>  <cid>
26375

>  <dipole>
0.09

>  <excitation_energy_1>
7.59

>  <excitation_energy_2>
7.622

>  <excitation_energy_3>
7.86

>  <excitation_energy_4>
7.939

>  <homo_energy>
-8.041

>  <homo_lumo_gap>
10.193

>  <logP>
3.469

>  <lumo_energy>
2.152

>  <melting_point>
-28.56

>  <molecular_refractivity>
45.38

>  <oscillator_strength_1>
0.0026

>  <oscillator_strength_2>
0.0021

>  <oscillator_strength_3>
0.0151

>  <oscillator_strength_4>
0.0239

>  <open_babel_can_smiles>
CCCC[C@H](C(C)C)C

>  <mulliken_charges>
29
1   -0.441441
2   -0.449287
3   -0.453023
4   -0.45806
5   -0.247562
6   -0.253954
7   -0.2585
8   -0.068535
9   -0.065161
10   0.141137
11   0.140655
12   0.140849
13   0.138226
14   0.141731
15   0.137859
16   0.138854
17   0.14288
18   0.142591
19   0.138993
20   0.143173
21   0.14209
22   0.129741
23   0.129713
24   0.125354
25   0.132624
26   0.127175
27   0.124155
28   0.125133
29   0.112588

>  <lowdin_charges>
29
1   -0.444904
2   -0.444885
3   -0.445708
4   -0.447949
5   -0.270777
6   -0.277109
7   -0.276867
8   -0.124632
9   -0.126038
10   0.149631
11   0.144763
12   0.146521
13   0.145597
14   0.144926
15   0.147246
16   0.146588
17   0.147037
18   0.14591
19   0.146621
20   0.148685
21   0.146917
22   0.139153
23   0.136861
24   0.137355
25   0.137319
26   0.138
27   0.137516
28   0.138119
29   0.134103

$$$$

