PCCDB-ID:  69384
public computational chemistry database (PCCDB) project, http://pccdb.org

 30 29  0  0  0  0  0  0  0  0999 V2000
    1.2869   -0.0864   -3.0257 C   0  0  0  0  0  0  0  0  0  0  0  0
   11.3024    1.4716   -6.5089 C   0  0  0  0  0  0  0  0  0  0  0  0
    2.7001    0.3902   -3.3743 C   0  0  0  0  0  0  0  0  0  0  0  0
   10.1673    0.9840   -5.6026 C   0  0  0  0  0  0  0  0  0  0  0  0
    3.7259    0.0531   -2.2850 C   0  0  0  0  0  0  0  0  0  0  0  0
    9.2611    2.1257   -5.1212 C   0  0  0  0  0  0  0  0  0  0  0  0
    5.1458    0.5001   -2.6063 C   0  0  0  0  0  0  0  0  0  0  0  0
    8.1399    1.6290   -4.2181 C   0  0  0  0  0  0  0  0  0  0  0  0
    7.3502    1.9734   -1.4383 O   0  0  0  0  0  0  0  0  0  0  0  0
    5.1512    1.9473   -2.7150 O   0  0  0  0  0  0  0  0  0  0  0  0
    7.3171    2.7662   -3.8560 O   0  0  0  0  0  0  0  0  0  0  0  0
    6.5502    2.7928   -2.3742 S   0  0  0  0  0  0  0  0  0  0  0  0
    0.5753    0.1642   -3.8203 H   0  0  0  0  0  0  0  0  0  0  0  0
    0.9286    0.3797   -2.0996 H   0  0  0  0  0  0  0  0  0  0  0  0
    1.2562   -1.1738   -2.8817 H   0  0  0  0  0  0  0  0  0  0  0  0
   11.9338    0.6387   -6.8378 H   0  0  0  0  0  0  0  0  0  0  0  0
   11.9439    2.1913   -5.9864 H   0  0  0  0  0  0  0  0  0  0  0  0
   10.9091    1.9671   -7.4046 H   0  0  0  0  0  0  0  0  0  0  0  0
    2.6974    1.4740   -3.5395 H   0  0  0  0  0  0  0  0  0  0  0  0
    3.0191   -0.0662   -4.3225 H   0  0  0  0  0  0  0  0  0  0  0  0
   10.5917    0.4633   -4.7327 H   0  0  0  0  0  0  0  0  0  0  0  0
    9.5636    0.2396   -6.1407 H   0  0  0  0  0  0  0  0  0  0  0  0
    3.7529   -1.0344   -2.1224 H   0  0  0  0  0  0  0  0  0  0  0  0
    3.4241    0.5053   -1.3311 H   0  0  0  0  0  0  0  0  0  0  0  0
    8.8228    2.6452   -5.9831 H   0  0  0  0  0  0  0  0  0  0  0  0
    9.8520    2.8688   -4.5706 H   0  0  0  0  0  0  0  0  0  0  0  0
    5.4834    0.0804   -3.5632 H   0  0  0  0  0  0  0  0  0  0  0  0
    5.8460    0.1975   -1.8221 H   0  0  0  0  0  0  0  0  0  0  0  0
    8.5373    1.1653   -3.3096 H   0  0  0  0  0  0  0  0  0  0  0  0
    7.5078    0.8984   -4.7394 H   0  0  0  0  0  0  0  0  0  0  0  0
  1 15  1  0  0  0  0
  1 14  1  0  0  0  0
  2 17  1  0  0  0  0
  2  4  1  0  0  0  0
  3  1  1  0  0  0  0
  3  5  1  0  0  0  0
  4  6  1  0  0  0  0
  4 21  1  0  0  0  0
  5 23  1  0  0  0  0
  5 24  1  0  0  0  0
  6 26  1  0  0  0  0
  6  8  1  0  0  0  0
  7  5  1  0  0  0  0
  7 28  1  0  0  0  0
  8 11  1  0  0  0  0
  8 29  1  0  0  0  0
 10  7  1  0  0  0  0
 10 12  1  0  0  0  0
 11 12  1  0  0  0  0
 12  9  2  0  0  0  0
 13  1  1  0  0  0  0
 16  2  1  0  0  0  0
 18  2  1  0  0  0  0
 19  3  1  0  0  0  0
 20  3  1  0  0  0  0
 22  4  1  0  0  0  0
 25  6  1  0  0  0  0
 27  7  1  0  0  0  0
 30  8  1  0  0  0  0
M  END
>  <HBA>
3

>  <HBD>
0

>  <TPSA>
54.74

>  <cid>
69384

>  <dipole>
2.38

>  <excitation_energy_1>
6.576

>  <excitation_energy_2>
6.783

>  <excitation_energy_3>
6.961

>  <excitation_energy_4>
7.055

>  <homo_energy>
-7.491

>  <homo_lumo_gap>
7.954

>  <logP>
3.064

>  <lumo_energy>
0.463

>  <melting_point>
-21.79

>  <molecular_refractivity>
51.02

>  <oscillator_strength_1>
0.0583

>  <oscillator_strength_2>
0.0026

>  <oscillator_strength_3>
0.0198

>  <oscillator_strength_4>
0.0535

>  <open_babel_can_smiles>
CCCCOS(=O)OCCCC

>  <mulliken_charges>
30
1   -0.443459
2   -0.44105
3   -0.249568
4   -0.259544
5   -0.263432
6   -0.261483
7   -0.070364
8   -0.064462
9   -0.590177
10   -0.552402
11   -0.553954
12   1.101746
13   0.145565
14   0.145043
15   0.140286
16   0.146015
17   0.146999
18   0.14571
19   0.157757
20   0.128341
21   0.138494
22   0.134278
23   0.136432
24   0.14999
25   0.148598
26   0.150153
27   0.141603
28   0.17599
29   0.173447
30   0.14345

>  <lowdin_charges>
30
1   -0.443287
2   -0.4449
3   -0.273029
4   -0.274912
5   -0.276879
6   -0.281257
7   -0.139924
8   -0.144345
9   -0.605336
10   -0.434723
11   -0.430401
12   1.077074
13   0.152233
14   0.148444
15   0.143598
16   0.152603
17   0.150658
18   0.149181
19   0.150272
20   0.138501
21   0.143365
22   0.141848
23   0.146092
24   0.151149
25   0.150547
26   0.152518
27   0.139578
28   0.161361
29   0.15812
30   0.14185

$$$$

