PCCDB-ID:  58400
public computational chemistry database (PCCDB) project, http://pccdb.org

 38 37  0  0  0  0  0  0  0  0999 V2000
    4.2376   -2.2488   -0.0671 C   0  0  0  0  0  0  0  0  0  0  0  0
    1.1929    4.0049   -5.4048 C   0  0  0  0  0  0  0  0  0  0  0  0
    4.2076   -0.7413   -0.3393 C   0  0  0  0  0  0  0  0  0  0  0  0
    2.0371    2.7268   -5.3838 C   0  0  0  0  0  0  0  0  0  0  0  0
    4.7114   -0.3705   -1.7400 C   0  0  0  0  0  0  0  0  0  0  0  0
    3.1808    2.7800   -4.3625 C   0  0  0  0  0  0  0  0  0  0  0  0
    4.6855    1.1453   -1.9948 C   0  0  0  0  0  0  0  0  0  0  0  0
    4.0279    1.5016   -4.3533 C   0  0  0  0  0  0  0  0  0  0  0  0
    8.7304    1.4524   -2.8544 C   0  0  0  0  0  0  0  0  0  0  0  0
    6.4010    1.2854   -3.7878 C   0  0  0  0  0  0  0  0  0  0  0  0
    9.3159    1.0138   -3.9074 N   0  0  0  0  0  0  0  0  0  0  0  0
    9.3431    1.8854   -1.6664 N   0  0  0  0  0  0  0  0  0  0  0  0
    6.6553    0.8467   -4.9562 N   0  0  0  0  0  0  0  0  0  0  0  0
    7.3499    1.6113   -2.7789 N   0  0  0  0  0  0  0  0  0  0  0  0
    5.0951    1.5558   -3.3449 N   0  0  0  0  0  0  0  0  0  0  0  0
    3.8734   -2.4805    0.9405 H   0  0  0  0  0  0  0  0  0  0  0  0
    5.2555   -2.6480   -0.1545 H   0  0  0  0  0  0  0  0  0  0  0  0
    3.6088   -2.7920   -0.7828 H   0  0  0  0  0  0  0  0  0  0  0  0
    0.3852    3.9405   -6.1430 H   0  0  0  0  0  0  0  0  0  0  0  0
    1.8054    4.8793   -5.6569 H   0  0  0  0  0  0  0  0  0  0  0  0
    0.7348    4.1940   -4.4258 H   0  0  0  0  0  0  0  0  0  0  0  0
    4.8159   -0.2230    0.4167 H   0  0  0  0  0  0  0  0  0  0  0  0
    3.1817   -0.3668   -0.2103 H   0  0  0  0  0  0  0  0  0  0  0  0
    2.4534    2.5451   -6.3845 H   0  0  0  0  0  0  0  0  0  0  0  0
    1.3905    1.8649   -5.1638 H   0  0  0  0  0  0  0  0  0  0  0  0
    4.1001   -0.8767   -2.4992 H   0  0  0  0  0  0  0  0  0  0  0  0
    5.7373   -0.7384   -1.8750 H   0  0  0  0  0  0  0  0  0  0  0  0
    2.7619    2.9647   -3.3620 H   0  0  0  0  0  0  0  0  0  0  0  0
    3.8380    3.6321   -4.5829 H   0  0  0  0  0  0  0  0  0  0  0  0
    5.3000    1.6470   -1.2366 H   0  0  0  0  0  0  0  0  0  0  0  0
    3.6702    1.5294   -1.8461 H   0  0  0  0  0  0  0  0  0  0  0  0
    4.5040    1.3473   -5.3225 H   0  0  0  0  0  0  0  0  0  0  0  0
    3.3849    0.6253   -4.1768 H   0  0  0  0  0  0  0  0  0  0  0  0
   10.3141    0.8774   -3.7440 H   0  0  0  0  0  0  0  0  0  0  0  0
   10.3370    1.6928   -1.6314 H   0  0  0  0  0  0  0  0  0  0  0  0
    8.8780    1.5788   -0.8179 H   0  0  0  0  0  0  0  0  0  0  0  0
    7.6659    0.8301   -5.1085 H   0  0  0  0  0  0  0  0  0  0  0  0
    7.0501    2.3309   -2.1346 H   0  0  0  0  0  0  0  0  0  0  0  0
  1 16  1  0  0  0  0
  2  4  1  0  0  0  0
  2 21  1  0  0  0  0
  3 23  1  0  0  0  0
  3  1  1  0  0  0  0
  3 22  1  0  0  0  0
  4 25  1  0  0  0  0
  4  6  1  0  0  0  0
  5  3  1  0  0  0  0
  6  8  1  0  0  0  0
  6 28  1  0  0  0  0
  7 31  1  0  0  0  0
  7  5  1  0  0  0  0
  7 30  1  0  0  0  0
  8 33  1  0  0  0  0
  8 15  1  0  0  0  0
  9 14  1  0  0  0  0
  9 12  2  0  0  0  0
 10 15  1  0  0  0  0
 10 14  1  0  0  0  0
 11 34  1  0  0  0  0
 11  9  1  0  0  0  0
 12 35  1  0  0  0  0
 12 36  1  0  0  0  0
 13 10  2  0  0  0  0
 14 38  1  0  0  0  0
 15  7  1  0  0  0  0
 17  1  1  0  0  0  0
 18  1  1  0  0  0  0
 19  2  1  0  0  0  0
 20  2  1  0  0  0  0
 24  4  1  0  0  0  0
 26  5  1  0  0  0  0
 27  5  1  0  0  0  0
 29  6  1  0  0  0  0
 32  8  1  0  0  0  0
 37 13  1  0  0  0  0
M  RAD  1  11   2
M  END
>  <HBA>
5

>  <HBD>
3

>  <TPSA>
91.49

>  <cid>
58400

>  <dipole>
5.2

>  <excitation_energy_1>
4.659

>  <excitation_energy_2>
5.294

>  <excitation_energy_3>
5.356

>  <excitation_energy_4>
5.463

>  <homo_energy>
-5.562

>  <homo_lumo_gap>
6.346

>  <logP>
2.597

>  <lumo_energy>
0.784

>  <melting_point>
131.08

>  <molecular_refractivity>
65.77

>  <oscillator_strength_1>
0.0005

>  <oscillator_strength_2>
0.0018

>  <oscillator_strength_3>
0.0085

>  <oscillator_strength_4>
0.0327

>  <open_babel_can_smiles>
CCCCN(C(=N)NC(=[NH2])[NH])CCCC

>  <mulliken_charges>
38
1   -0.440513
2   -0.44033
3   -0.25152
4   -0.252129
5   -0.252668
6   -0.243571
7   -0.143931
8   -0.143175
9   0.636163
10   0.643867
11   -0.646603
12   -0.762071
13   -0.664881
14   -0.68641
15   -0.468085
16   0.142081
17   0.143361
18   0.146578
19   0.141377
20   0.142986
21   0.138447
22   0.124437
23   0.132187
24   0.138534
25   0.128547
26   0.145216
27   0.145597
28   0.120773
29   0.137188
30   0.117698
31   0.148079
32   0.19831
33   0.125213
34   0.275076
35   0.324037
36   0.325002
37   0.336045
38   0.339087

>  <lowdin_charges>
38
1   -0.443115
2   -0.443947
3   -0.272355
4   -0.272836
5   -0.289226
6   -0.281159
7   -0.200196
8   -0.203146
9   0.13955
10   0.126719
11   -0.455849
12   -0.507645
13   -0.445305
14   -0.28327
15   -0.146839
16   0.148802
17   0.146694
18   0.150387
19   0.149415
20   0.14753
21   0.144353
22   0.136612
23   0.1383
24   0.142347
25   0.138273
26   0.148231
27   0.146466
28   0.132045
29   0.144264
30   0.133091
31   0.148396
32   0.179303
33   0.132171
34   0.251342
35   0.276646
36   0.27995
37   0.274495
38   0.289508

$$$$

