PCCDB-ID:  32924
public computational chemistry database (PCCDB) project, http://pccdb.org

 28 27  0  0  0  0  0  0  0  0999 V2000
    7.5152    0.8710   -1.1813 C   0  0  0  0  0  0  0  0  0  0  0  0
    3.3243   -2.9922   -5.4141 C   0  0  0  0  0  0  0  0  0  0  0  0
    3.4688   -3.6551    0.8876 C   0  0  0  0  0  0  0  0  0  0  0  0
    6.2529    0.0017   -1.2320 C   0  0  0  0  0  0  0  0  0  0  0  0
    2.9337   -3.1928   -3.9457 C   0  0  0  0  0  0  0  0  0  0  0  0
    6.0702   -0.7948    0.0539 C   0  0  0  0  0  0  0  0  0  0  0  0
    4.0740   -2.8351   -3.0036 C   0  0  0  0  0  0  0  0  0  0  0  0
    4.8182   -1.5166    0.0669 O   0  0  0  0  0  0  0  0  0  0  0  0
    3.6150   -3.0327   -1.6476 O   0  0  0  0  0  0  0  0  0  0  0  0
    4.6305   -3.0731   -0.3785 P   0  0  0  0  0  0  0  0  0  0  0  0
    6.2836   -4.0842   -0.6287 S   0  0  0  0  0  0  0  0  0  0  0  0
    7.6317    1.4462   -2.1055 H   0  0  0  0  0  0  0  0  0  0  0  0
    8.4158    0.2590   -1.0541 H   0  0  0  0  0  0  0  0  0  0  0  0
    7.4747    1.5834   -0.3484 H   0  0  0  0  0  0  0  0  0  0  0  0
    2.5005   -3.2746   -6.0778 H   0  0  0  0  0  0  0  0  0  0  0  0
    4.1930   -3.6045   -5.6838 H   0  0  0  0  0  0  0  0  0  0  0  0
    3.5757   -1.9454   -5.6240 H   0  0  0  0  0  0  0  0  0  0  0  0
    3.9769   -3.6671    1.8548 H   0  0  0  0  0  0  0  0  0  0  0  0
    3.1339   -4.6650    0.6404 H   0  0  0  0  0  0  0  0  0  0  0  0
    2.6089   -2.9809    0.9341 H   0  0  0  0  0  0  0  0  0  0  0  0
    6.3128   -0.6925   -2.0794 H   0  0  0  0  0  0  0  0  0  0  0  0
    5.3668    0.6296   -1.3882 H   0  0  0  0  0  0  0  0  0  0  0  0
    2.6505   -4.2375   -3.7690 H   0  0  0  0  0  0  0  0  0  0  0  0
    2.0589   -2.5795   -3.6976 H   0  0  0  0  0  0  0  0  0  0  0  0
    6.0156   -0.1248    0.9184 H   0  0  0  0  0  0  0  0  0  0  0  0
    6.8963   -1.4972    0.2047 H   0  0  0  0  0  0  0  0  0  0  0  0
    4.3721   -1.7862   -3.1258 H   0  0  0  0  0  0  0  0  0  0  0  0
    4.9490   -3.4706   -3.1801 H   0  0  0  0  0  0  0  0  0  0  0  0
  1 13  1  0  0  0  0
  1 14  1  0  0  0  0
  2  5  1  0  0  0  0
  3 20  1  0  0  0  0
  3 18  1  0  0  0  0
  4  1  1  0  0  0  0
  4  6  1  0  0  0  0
  5 23  1  0  0  0  0
  5 24  1  0  0  0  0
  5  7  1  0  0  0  0
  6  8  1  0  0  0  0
  6 26  1  0  0  0  0
  6 25  1  0  0  0  0
  7  9  1  0  0  0  0
  9 10  1  0  0  0  0
 10  8  1  0  0  0  0
 10  3  1  0  0  0  0
 11 10  1  0  0  0  0
 12  1  1  0  0  0  0
 15  2  1  0  0  0  0
 16  2  1  0  0  0  0
 17  2  1  0  0  0  0
 19  3  1  0  0  0  0
 21  4  1  0  0  0  0
 22  4  1  0  0  0  0
 27  7  1  0  0  0  0
 28  7  1  0  0  0  0
M  RAD  1  11   2
M  END
>  <HBA>
3

>  <HBD>
0

>  <TPSA>
60.36

>  <cid>
32924

>  <dipole>
2.98

>  <excitation_energy_1>
5.727

>  <excitation_energy_2>
5.756

>  <excitation_energy_3>
5.98

>  <excitation_energy_4>
6.006

>  <homo_energy>
-6.297

>  <homo_lumo_gap>
7.755

>  <logP>
3.429

>  <lumo_energy>
1.459

>  <melting_point>
-31.06

>  <molecular_refractivity>
53.5

>  <oscillator_strength_1>
0.0591

>  <oscillator_strength_2>
0.0443

>  <oscillator_strength_3>
0.002

>  <oscillator_strength_4>
0.0009

>  <open_babel_can_smiles>
CCCOP(OCCC)([S])C

>  <mulliken_charges>
28
1   -0.455667
2   -0.455492
3   -0.625399
4   -0.270111
5   -0.269132
6   -0.037991
7   -0.035006
8   -0.530217
9   -0.518459
10   0.866799
11   -0.428196
12   0.153086
13   0.156076
14   0.14667
15   0.154309
16   0.15214
17   0.146646
18   0.196128
19   0.199373
20   0.199763
21   0.152778
22   0.147405
23   0.154066
24   0.150105
25   0.149909
26   0.178802
27   0.147498
28   0.174118

>  <lowdin_charges>
28
1   -0.445692
2   -0.445186
3   -0.609728
4   -0.286576
5   -0.277287
6   -0.12578
7   -0.122365
8   -0.409188
9   -0.401169
10   0.851339
11   -0.437329
12   0.156721
13   0.153959
14   0.149671
15   0.157806
16   0.152267
17   0.147829
18   0.189837
19   0.19097
20   0.191651
21   0.150578
22   0.148945
23   0.151339
24   0.150776
25   0.150311
26   0.1639
27   0.141818
28   0.160583

$$$$

