PCCDB-ID:  18182
public computational chemistry database (PCCDB) project, http://pccdb.org

 16 15  0  0  0  0  0  0  0  0999 V2000
    1.6800    0.0750   -0.8106 C   0  0  0  0  0  0  0  0  0  0  0  0
    3.1642   -0.0739   -0.4639 C   0  0  0  0  0  0  0  0  0  0  0  0
    3.5395    0.6331    0.8543 C   0  0  0  0  0  0  0  0  0  0  0  0
    5.0044    0.4610    1.2273 C   0  0  0  0  0  0  0  0  0  0  0  0
    5.4796   -0.3447    2.1044 N   0  0  0  0  0  0  0  0  0  0  0  0
    5.8735    1.2954    0.5390 N   0  0  0  0  0  0  0  0  0  0  0  0
    1.4375   -0.4424   -1.7455 H   0  0  0  0  0  0  0  0  0  0  0  0
    1.4032    1.1296   -0.9303 H   0  0  0  0  0  0  0  0  0  0  0  0
    1.0455   -0.3463   -0.0216 H   0  0  0  0  0  0  0  0  0  0  0  0
    3.7724    0.3261   -1.2871 H   0  0  0  0  0  0  0  0  0  0  0  0
    3.4241   -1.1371   -0.3827 H   0  0  0  0  0  0  0  0  0  0  0  0
    2.9241    0.2316    1.6679 H   0  0  0  0  0  0  0  0  0  0  0  0
    3.3063    1.7038    0.7754 H   0  0  0  0  0  0  0  0  0  0  0  0
    4.7186   -0.8321    2.5805 H   0  0  0  0  0  0  0  0  0  0  0  0
    5.6024    1.5816   -0.3921 H   0  0  0  0  0  0  0  0  0  0  0  0
    6.8468    1.0260    0.6208 H   0  0  0  0  0  0  0  0  0  0  0  0
  1  2  1  0  0  0  0
  1  9  1  0  0  0  0
  2 11  1  0  0  0  0
  2  3  1  0  0  0  0
  3  4  1  0  0  0  0
  3 12  1  0  0  0  0
  4  5  1  0  0  0  0
  5 14  1  0  0  0  0
  6 16  1  0  0  0  0
  6  4  2  0  0  0  0
  7  1  1  0  0  0  0
  8  1  1  0  0  0  0
 10  2  1  0  0  0  0
 13  3  1  0  0  0  0
 15  6  1  0  0  0  0
M  RAD  1   5   2
M  END
>  <HBA>
2

>  <HBD>
2

>  <TPSA>
49.87

>  <cid>
18182

>  <dipole>
2.94

>  <excitation_energy_1>
5.686

>  <excitation_energy_2>
6.1

>  <excitation_energy_3>
6.253

>  <excitation_energy_4>
6.341

>  <homo_energy>
-6.218

>  <homo_lumo_gap>
7.301

>  <logP>
1.522

>  <lumo_energy>
1.083

>  <melting_point>
60.31

>  <molecular_refractivity>
27.64

>  <oscillator_strength_1>
0.003

>  <oscillator_strength_2>
0.0054

>  <oscillator_strength_3>
0.0433

>  <oscillator_strength_4>
0.0245

>  <open_babel_can_smiles>
CCCC(=[NH2])[NH]

>  <mulliken_charges>
16
1   -0.441547
2   -0.253385
3   -0.325651
4   0.437391
5   -0.627981
6   -0.727584
7   0.148938
8   0.145371
9   0.147603
10   0.128655
11   0.149641
12   0.145243
13   0.151355
14   0.272382
15   0.319162
16   0.330406

>  <lowdin_charges>
16
1   -0.444111
2   -0.269193
3   -0.297488
4   0.092977
5   -0.447729
6   -0.479681
7   0.153497
8   0.147179
9   0.150736
10   0.137687
11   0.146991
12   0.153881
13   0.152032
14   0.248656
15   0.273034
16   0.281533

$$$$

