PCCDB-ID:  1995
public computational chemistry database (PCCDB) project, http://pccdb.org

 27 26  0  0  1  0  0  0  0  0999 V2000
    1.4030   -0.6316   -0.7764 C   0  0  0  0  0  0  0  0  0  0  0  0
    1.4481    0.9143    1.2163 C   0  0  0  0  0  0  0  0  0  0  0  0
    3.2879    4.2211    0.0202 C   0  0  0  0  0  0  0  0  0  0  0  0
    3.6203    0.2311    0.0580 C   0  0  0  0  0  0  0  0  0  0  0  0
    2.1241    0.5537   -0.1156 C   0  0  0  0  0  0  0  0  0  0  0  0
    4.1682    3.4455   -0.9339 C   0  0  0  0  0  0  0  0  0  0  0  0
    4.5349    1.4441    0.3593 C   0  0  1  0  0  0  0  0  0  0  0  0
    5.9325    0.8980    0.7326 C   0  0  0  0  0  0  0  0  0  0  0  0
    4.6780    2.2903   -0.8104 N   0  0  0  0  0  0  0  0  0  0  0  0
    4.4489    4.0956   -2.0996 O   0  0  0  0  0  0  0  0  0  0  0  0
    6.1483    0.3398    1.7824 O   0  0  0  0  0  0  0  0  0  0  0  0
    6.8677    1.0582   -0.2169 O   0  0  0  0  0  0  0  0  0  0  0  0
    0.3351   -0.4215   -0.9089 H   0  0  0  0  0  0  0  0  0  0  0  0
    1.4898   -1.5357   -0.1602 H   0  0  0  0  0  0  0  0  0  0  0  0
    1.8277   -0.8569   -1.7614 H   0  0  0  0  0  0  0  0  0  0  0  0
    0.3982    1.1901    1.0617 H   0  0  0  0  0  0  0  0  0  0  0  0
    1.9373    1.7533    1.7248 H   0  0  0  0  0  0  0  0  0  0  0  0
    1.4696    0.0599    1.9045 H   0  0  0  0  0  0  0  0  0  0  0  0
    3.1493    3.7073    0.9709 H   0  0  0  0  0  0  0  0  0  0  0  0
    2.2993    4.3833   -0.4264 H   0  0  0  0  0  0  0  0  0  0  0  0
    3.7304    5.2042    0.2238 H   0  0  0  0  0  0  0  0  0  0  0  0
    4.0008   -0.2425   -0.8560 H   0  0  0  0  0  0  0  0  0  0  0  0
    3.7502   -0.4893    0.8749 H   0  0  0  0  0  0  0  0  0  0  0  0
    2.0371    1.4133   -0.7969 H   0  0  0  0  0  0  0  0  0  0  0  0
    4.1702    1.9660    1.2533 H   0  0  0  0  0  0  0  0  0  0  0  0
    4.0280    4.9691   -2.0940 H   0  0  0  0  0  0  0  0  0  0  0  0
    6.4259    1.5559   -0.9461 H   0  0  0  0  0  0  0  0  0  0  0  0
  1 14  1  0  0  0  0
  1  5  1  0  0  0  0
  2 17  1  0  0  0  0
  2 18  1  0  0  0  0
  3 21  1  0  0  0  0
  3 19  1  0  0  0  0
  4  7  1  0  0  0  0
  4 23  1  0  0  0  0
  5  4  1  0  0  0  0
  5  2  1  0  0  0  0
  6  9  2  0  0  0  0
  6  3  1  0  0  0  0
  7  8  1  0  0  0  0
  7 25  1  1  0  0  0
  8 11  2  0  0  0  0
  9  7  1  0  0  0  0
 10 26  1  0  0  0  0
 10  6  1  0  0  0  0
 12  8  1  0  0  0  0
 13  1  1  0  0  0  0
 15  1  1  0  0  0  0
 16  2  1  0  0  0  0
 20  3  1  0  0  0  0
 22  4  1  0  0  0  0
 24  5  1  0  0  0  0
 27 12  1  0  0  0  0
M  END
>  <HBA>
4

>  <HBD>
2

>  <TPSA>
66.4

>  <cid>
1995

>  <dipole>
7.1

>  <excitation_energy_1>
5.625

>  <excitation_energy_2>
5.777

>  <excitation_energy_3>
5.863

>  <excitation_energy_4>
6.076

>  <homo_energy>
-6.71

>  <homo_lumo_gap>
6.577

>  <logP>
1.013

>  <lumo_energy>
-0.133

>  <melting_point>
97.84

>  <molecular_refractivity>
45.34

>  <oscillator_strength_1>
0.0042

>  <oscillator_strength_2>
0.0014

>  <oscillator_strength_3>
0.0239

>  <oscillator_strength_4>
0.0738

>  <open_babel_can_smiles>
CC(C[C@@H](C(=O)O)/N=C(/O)\C)C

>  <mulliken_charges>
27
1   -0.444669
2   -0.448481
3   -0.557995
4   -0.250665
5   -0.07326
6   0.506031
7   -0.095977
8   0.600186
9   -0.46254
10   -0.568741
11   -0.46837
12   -0.577503
13   0.140604
14   0.145767
15   0.147155
16   0.142527
17   0.13468
18   0.151259
19   0.194637
20   0.186893
21   0.179909
22   0.146502
23   0.164131
24   0.119507
25   0.146202
26   0.41256
27   0.429651

>  <lowdin_charges>
27
1   -0.440529
2   -0.447379
3   -0.480079
4   -0.27607
5   -0.12351
6   0.144805
7   -0.101348
8   0.178749
9   -0.221134
10   -0.357925
11   -0.259228
12   -0.351419
13   0.146938
14   0.149173
15   0.150733
16   0.148361
17   0.142452
18   0.152486
19   0.178588
20   0.176086
21   0.172442
22   0.153152
23   0.161918
24   0.134388
25   0.148721
26   0.359117
27   0.360513

$$$$

