PCCDB-ID:  68313
public computational chemistry database (PCCDB) project, http://pccdb.org

 27 27  0  0  0  0  0  0  0  0999 V2000
    0.9965   -0.0457   -0.0169 C   0  0  0  0  0  0  0  0  0  0  0  0
    2.9019   -1.1947    0.8739 C   0  0  0  0  0  0  0  0  0  0  0  0
    4.9026    0.9389   -3.8186 C   0  0  0  0  0  0  0  0  0  0  0  0
    5.2583   -1.4232   -3.6148 C   0  0  0  0  0  0  0  0  0  0  0  0
    5.2719    0.8849   -5.1628 C   0  0  0  0  0  0  0  0  0  0  0  0
    5.6287   -1.4970   -4.9547 C   0  0  0  0  0  0  0  0  0  0  0  0
    4.4482   -0.1473   -1.5702 C   0  0  0  0  0  0  0  0  0  0  0  0
    2.9316   -0.3703   -1.4145 C   0  0  0  0  0  0  0  0  0  0  0  0
    4.8877   -0.2091   -3.0176 C   0  0  0  0  0  0  0  0  0  0  0  0
    5.6355   -0.3372   -5.7359 C   0  0  0  0  0  0  0  0  0  0  0  0
    2.4487   -0.1622   -0.0493 N   0  0  0  0  0  0  0  0  0  0  0  0
    6.0107   -0.4596   -7.0474 O   0  0  0  0  0  0  0  0  0  0  0  0
    0.6683    0.1810    1.0037 H   0  0  0  0  0  0  0  0  0  0  0  0
    0.4733   -0.9662   -0.3456 H   0  0  0  0  0  0  0  0  0  0  0  0
    0.6757    0.7759   -0.6665 H   0  0  0  0  0  0  0  0  0  0  0  0
    2.5209   -0.9781    1.8778 H   0  0  0  0  0  0  0  0  0  0  0  0
    3.9940   -1.2075    0.9317 H   0  0  0  0  0  0  0  0  0  0  0  0
    2.5604   -2.2111    0.5905 H   0  0  0  0  0  0  0  0  0  0  0  0
    4.6265    1.8979   -3.3852 H   0  0  0  0  0  0  0  0  0  0  0  0
    5.2622   -2.3317   -3.0161 H   0  0  0  0  0  0  0  0  0  0  0  0
    5.2819    1.7931   -5.7636 H   0  0  0  0  0  0  0  0  0  0  0  0
    5.9187   -2.4391   -5.4095 H   0  0  0  0  0  0  0  0  0  0  0  0
    5.0000   -0.8978   -0.9920 H   0  0  0  0  0  0  0  0  0  0  0  0
    4.6925    0.8297   -1.1365 H   0  0  0  0  0  0  0  0  0  0  0  0
    2.6673   -1.3780   -1.7967 H   0  0  0  0  0  0  0  0  0  0  0  0
    2.4151    0.3499   -2.0604 H   0  0  0  0  0  0  0  0  0  0  0  0
    5.9759    0.4146   -7.4657 H   0  0  0  0  0  0  0  0  0  0  0  0
  1 13  1  0  0  0  0
  2 17  1  0  0  0  0
  2 16  1  0  0  0  0
  3 19  1  0  0  0  0
  3  9  2  0  0  0  0
  4  9  1  0  0  0  0
  4 20  1  0  0  0  0
  5  3  1  0  0  0  0
  6  4  2  0  0  0  0
  7  8  1  0  0  0  0
  7 24  1  0  0  0  0
  7 23  1  0  0  0  0
  8 11  1  0  0  0  0
  9  7  1  0  0  0  0
 10  5  2  0  0  0  0
 10  6  1  0  0  0  0
 11  1  1  0  0  0  0
 11  2  1  0  0  0  0
 12 10  1  0  0  0  0
 14  1  1  0  0  0  0
 15  1  1  0  0  0  0
 18  2  1  0  0  0  0
 21  5  1  0  0  0  0
 22  6  1  0  0  0  0
 25  8  1  0  0  0  0
 26  8  1  0  0  0  0
 27 12  1  0  0  0  0
M  END
>  <HBA>
2

>  <HBD>
1

>  <TPSA>
23.47

>  <cid>
68313

>  <dipole>
1.02

>  <excitation_energy_1>
4.904

>  <excitation_energy_2>
5.031

>  <excitation_energy_3>
5.079

>  <excitation_energy_4>
5.217

>  <homo_energy>
-5.646

>  <homo_lumo_gap>
5.682

>  <logP>
1.496

>  <lumo_energy>
0.035

>  <melting_point>
48.77

>  <molecular_refractivity>
50.75

>  <oscillator_strength_1>
0.023

>  <oscillator_strength_2>
0.0123

>  <oscillator_strength_3>
0.0001

>  <oscillator_strength_4>
0.0146

>  <open_babel_can_smiles>
CN(CCc1ccc(cc1)O)C

>  <mulliken_charges>
27
1   -0.293385
2   -0.300983
3   -0.187956
4   -0.186212
5   -0.193274
6   -0.15756
7   -0.357863
8   -0.103648
9   0.164291
10   0.347658
11   -0.3668
12   -0.644578
13   0.146426
14   0.116896
15   0.147847
16   0.147708
17   0.153647
18   0.115487
19   0.126214
20   0.124025
21   0.11631
22   0.137818
23   0.142544
24   0.150942
25   0.110891
26   0.137567
27   0.405986

>  <lowdin_charges>
27
1   -0.355982
2   -0.354924
3   -0.155601
4   -0.155522
5   -0.215444
6   -0.186009
7   -0.278905
8   -0.199137
9   -0.020353
10   0.10211
11   -0.1852
12   -0.382375
13   0.147855
14   0.120186
15   0.149874
16   0.149511
17   0.148302
18   0.118106
19   0.156175
20   0.15599
21   0.152546
22   0.166688
23   0.149131
24   0.153737
25   0.116515
26   0.14675
27   0.355977

$$$$

