PCCDB-ID:  70169
public computational chemistry database (PCCDB) project, http://pccdb.org

 25 27  0  0  0  0  0  0  0  0999 V2000
   -3.6960    0.0236    0.7319 C   0  0  0  0  0  0  0  0  0  0  0  0
   -3.3986   -1.2658    0.2878 C   0  0  0  0  0  0  0  0  0  0  0  0
    3.6681    0.0636    0.7348 C   0  0  0  0  0  0  0  0  0  0  0  0
   -2.7558    1.0343    0.5507 C   0  0  0  0  0  0  0  0  0  0  0  0
   -2.1610   -1.5424   -0.2866 C   0  0  0  0  0  0  0  0  0  0  0  0
    2.7552    1.1029    0.5584 C   0  0  0  0  0  0  0  0  0  0  0  0
    3.3134   -1.2033    0.2841 C   0  0  0  0  0  0  0  0  0  0  0  0
   -1.5137    0.7839   -0.0562 C   0  0  0  0  0  0  0  0  0  0  0  0
   -1.1998   -0.5342   -0.4524 C   0  0  0  0  0  0  0  0  0  0  0  0
    1.5091    0.8597   -0.0291 C   0  0  0  0  0  0  0  0  0  0  0  0
    1.2504   -0.4770   -0.4148 C   0  0  0  0  0  0  0  0  0  0  0  0
   -0.5849    1.9163   -0.3281 C   0  0  0  0  0  0  0  0  0  0  0  0
    2.1242   -1.4710   -0.2745 N   0  0  0  0  0  0  0  0  0  0  0  0
    0.0353   -0.8380   -1.0508 N   0  0  0  0  0  0  0  0  0  0  0  0
    0.6887    1.9536   -0.3041 N   0  0  0  0  0  0  0  0  0  0  0  0
   -1.1943    3.1067   -0.6011 O   0  0  0  0  0  0  0  0  0  0  0  0
   -4.6470    0.2406    1.2080 H   0  0  0  0  0  0  0  0  0  0  0  0
   -4.1243   -2.0660    0.4037 H   0  0  0  0  0  0  0  0  0  0  0  0
    4.6380    0.2401    1.1891 H   0  0  0  0  0  0  0  0  0  0  0  0
   -2.9770    2.0391    0.9017 H   0  0  0  0  0  0  0  0  0  0  0  0
   -1.9243   -2.5533   -0.6093 H   0  0  0  0  0  0  0  0  0  0  0  0
    2.9910    2.1228    0.8461 H   0  0  0  0  0  0  0  0  0  0  0  0
    3.9989   -2.0440    0.3689 H   0  0  0  0  0  0  0  0  0  0  0  0
    0.1037   -1.8126   -1.3295 H   0  0  0  0  0  0  0  0  0  0  0  0
   -2.1207    2.9344   -0.8317 H   0  0  0  0  0  0  0  0  0  0  0  0
  1 17  1  0  0  0  0
  2 18  1  0  0  0  0
  2  1  2  0  0  0  0
  3 19  1  0  0  0  0
  4  1  1  0  0  0  0
  4 20  1  0  0  0  0
  5  2  1  0  0  0  0
  6  3  1  0  0  0  0
  6 22  1  0  0  0  0
  7 23  1  0  0  0  0
  7  3  2  0  0  0  0
  8  4  2  0  0  0  0
  9  5  2  0  0  0  0
  9  8  1  0  0  0  0
 10  6  2  0  0  0  0
 11 13  2  0  0  0  0
 11 10  1  0  0  0  0
 12 15  2  0  0  0  0
 12  8  1  0  0  0  0
 13  7  1  0  0  0  0
 14  9  1  0  0  0  0
 14 11  1  0  0  0  0
 15 10  1  0  0  0  0
 16 12  1  0  0  0  0
 21  5  1  0  0  0  0
 24 14  1  0  0  0  0
 25 16  1  0  0  0  0
M  END
>  <HBA>
2

>  <HBD>
2

>  <TPSA>
61.54

>  <cid>
70169

>  <dipole>
3.37

>  <excitation_energy_1>
3.117

>  <excitation_energy_2>
4.15

>  <excitation_energy_3>
4.219

>  <excitation_energy_4>
4.365

>  <homo_energy>
-5.434

>  <homo_lumo_gap>
3.995

>  <logP>
1.967

>  <lumo_energy>
-1.439

>  <melting_point>
239.26

>  <molecular_refractivity>
63.03

>  <oscillator_strength_1>
0.016

>  <oscillator_strength_2>
0.0214

>  <oscillator_strength_3>
0.0437

>  <oscillator_strength_4>
0.0328

>  <open_babel_can_smiles>
OC1=Nc2cccnc2Nc2c1cccc2

>  <mulliken_charges>
25
1   -0.13009
2   -0.1291
3   -0.149124
4   -0.228251
5   -0.177855
6   -0.132029
7   0.033977
8   0.069597
9   0.269662
10   0.269927
11   0.413887
12   0.430404
13   -0.500903
14   -0.680075
15   -0.51784
16   -0.575678
17   0.138413
18   0.14267
19   0.134638
20   0.148705
21   0.139083
22   0.152102
23   0.1394
24   0.329605
25   0.408875

>  <lowdin_charges>
25
1   -0.172083
2   -0.133857
3   -0.186024
4   -0.156329
5   -0.184601
6   -0.130428
7   -0.09528
8   -0.075237
9   0.07217
10   0.012686
11   0.078172
12   0.144517
13   -0.177898
14   -0.260302
15   -0.170233
16   -0.350802
17   0.163326
18   0.165689
19   0.163814
20   0.163722
21   0.162133
22   0.171325
23   0.157561
24   0.282093
25   0.355866

$$$$

