PCCDB-ID:  13919
public computational chemistry database (PCCDB) project, http://pccdb.org

 31 31  0  0  1  0  0  0  0  0999 V2000
    1.0361   -0.1208    1.0819 C   0  0  0  0  0  0  0  0  0  0  0  0
    8.4536    1.0863    1.6022 C   0  0  0  0  0  0  0  0  0  0  0  0
    3.9555   -6.2502    0.7343 C   0  0  0  0  0  0  0  0  0  0  0  0
    2.1029   -0.4807    0.3695 C   0  0  0  0  0  0  0  0  0  0  0  0
    9.0306   -0.1132    1.7021 C   0  0  0  0  0  0  0  0  0  0  0  0
    2.9744   -1.6732    0.6643 C   0  0  0  0  0  0  0  0  0  0  0  0
    9.3738   -1.0072    0.5318 C   0  0  0  0  0  0  0  0  0  0  0  0
    5.2604   -2.2180    0.6368 C   0  0  0  0  0  0  0  0  0  0  0  0
    7.6977   -2.6603    0.6999 C   0  0  0  0  0  0  0  0  0  0  0  0
    6.0058   -4.3986    0.7490 C   0  0  1  0  0  0  0  0  0  0  0  0
    4.3837   -1.2923    0.6314 N   0  0  0  0  0  0  0  0  0  0  0  0
    8.9483   -2.3958    0.6985 N   0  0  0  0  0  0  0  0  0  0  0  0
    6.6156   -1.8165    0.5957 N   0  0  0  0  0  0  0  0  0  0  0  0
    5.0016   -3.5892    0.6737 N   0  0  0  0  0  0  0  0  0  0  0  0
    7.3156   -4.0084    0.7931 N   0  0  0  0  0  0  0  0  0  0  0  0
    5.7761   -6.1585    0.8120 S   0  0  0  0  0  0  0  0  0  0  0  0
    0.4237    0.7338    0.8067 H   0  0  0  0  0  0  0  0  0  0  0  0
    0.7314   -0.6686    1.9721 H   0  0  0  0  0  0  0  0  0  0  0  0
    8.2407    1.6949    2.4768 H   0  0  0  0  0  0  0  0  0  0  0  0
    8.1845    1.5147    0.6376 H   0  0  0  0  0  0  0  0  0  0  0  0
    3.7127   -7.3146    0.7770 H   0  0  0  0  0  0  0  0  0  0  0  0
    3.5936   -5.8157   -0.1979 H   0  0  0  0  0  0  0  0  0  0  0  0
    3.5142   -5.7256    1.5822 H   0  0  0  0  0  0  0  0  0  0  0  0
    2.3909    0.0972   -0.5088 H   0  0  0  0  0  0  0  0  0  0  0  0
    9.2902   -0.5120    2.6830 H   0  0  0  0  0  0  0  0  0  0  0  0
    2.7707   -2.4681   -0.0715 H   0  0  0  0  0  0  0  0  0  0  0  0
    2.7068   -2.0937    1.6450 H   0  0  0  0  0  0  0  0  0  0  0  0
   10.4645   -1.0283    0.4102 H   0  0  0  0  0  0  0  0  0  0  0  0
    8.9665   -0.5677   -0.3942 H   0  0  0  0  0  0  0  0  0  0  0  0
    6.7713   -0.8206    0.6922 H   0  0  0  0  0  0  0  0  0  0  0  0
    8.0805   -4.6703    0.8266 H   0  0  0  0  0  0  0  0  0  0  0  0
  1 18  1  0  0  0  0
  2  5  2  0  0  0  0
  2 19  1  0  0  0  0
  3 21  1  0  0  0  0
  3 16  1  0  0  0  0
  3 23  1  0  0  0  0
  4  6  1  0  0  0  0
  4  1  2  0  0  0  0
  5 25  1  0  0  0  0
  6 27  1  0  0  0  0
  7 12  1  0  0  0  0
  7  5  1  0  0  0  0
  8 14  2  0  0  0  0
  9 15  1  0  0  0  0
 10 15  1  0  0  0  0
 10 16  1  1  0  0  0
 11  8  1  0  0  0  0
 11  6  1  0  0  0  0
 12  9  2  0  0  0  0
 13  8  1  0  0  0  0
 13 30  1  0  0  0  0
 13  9  1  0  0  0  0
 14 10  1  0  0  0  0
 15 31  1  0  0  0  0
 17  1  1  0  0  0  0
 20  2  1  0  0  0  0
 22  3  1  0  0  0  0
 24  4  1  0  0  0  0
 26  6  1  0  0  0  0
 28  7  1  0  0  0  0
 29  7  1  0  0  0  0
M  RAD  2  10   2  11   2
M  END
>  <HBA>
6

>  <HBD>
2

>  <TPSA>
88.03

>  <cid>
13919

>  <dipole>
1.95

>  <excitation_energy_1>
4.615

>  <excitation_energy_2>
4.872

>  <excitation_energy_3>
4.913

>  <excitation_energy_4>
5.136

>  <homo_energy>
-6.055

>  <homo_lumo_gap>
5.268

>  <logP>
1.935

>  <lumo_energy>
-0.786

>  <melting_point>
89.91

>  <molecular_refractivity>
68.44

>  <oscillator_strength_1>
0.0752

>  <oscillator_strength_2>
0.0713

>  <oscillator_strength_3>
0.0267

>  <oscillator_strength_4>
0.0008

>  <open_babel_can_smiles>
C=CC[N]C1=N[C](N/C(=N/CC=C)/N1)SC

>  <mulliken_charges>
31
1   -0.347364
2   -0.345289
3   -0.576059
4   -0.028943
5   -0.063098
6   -0.172068
7   -0.207829
8   0.662938
9   0.753022
10   0.334823
11   -0.505951
12   -0.509288
13   -0.709662
14   -0.516626
15   -0.664772
16   0.148225
17   0.134979
18   0.129477
19   0.150811
20   0.144059
21   0.186475
22   0.209535
23   0.210279
24   0.128294
25   0.14328
26   0.148029
27   0.140668
28   0.16399
29   0.139339
30   0.356998
31   0.361729

>  <lowdin_charges>
31
1   -0.348579
2   -0.345277
3   -0.528144
4   -0.140762
5   -0.155353
6   -0.193493
7   -0.201105
8   0.124748
9   0.136889
10   0.007501
11   -0.240824
12   -0.272017
13   -0.248999
14   -0.243518
15   -0.228091
16   0.182907
17   0.156772
18   0.15126
19   0.164928
20   0.156745
21   0.178117
22   0.182778
23   0.184061
24   0.153165
25   0.158661
26   0.147252
27   0.144811
28   0.157926
29   0.139157
30   0.305962
31   0.31252

$$$$

