PCCDB-ID:  8567
public computational chemistry database (PCCDB) project, http://pccdb.org

 30 29  0  0  1  0  0  0  0  0999 V2000
    7.3994   -2.4149   -0.6028 C   0  0  0  0  0  0  0  0  0  0  0  0
    6.9085   -2.2891    1.8406 C   0  0  0  0  0  0  0  0  0  0  0  0
    2.2087   -0.2343   -0.4237 C   0  0  0  0  0  0  0  0  0  0  0  0
    6.5130   -0.8717    2.3344 C   0  0  1  0  0  0  0  0  0  0  0  0
    3.4963    0.3829    0.1070 C   0  0  1  0  0  0  0  0  0  0  0  0
    5.6793    0.0355    1.4037 C   0  0  2  0  0  0  0  0  0  0  0  0
    4.4229   -0.6377    0.8072 C   0  0  1  0  0  0  0  0  0  0  0  0
    7.8918   -2.4273    0.7697 N   0  0  0  0  0  0  0  0  0  0  0  0
    2.5984   -1.1782   -1.4284 O   0  0  0  0  0  0  0  0  0  0  0  0
    5.8683   -0.9856    3.6018 O   0  0  0  0  0  0  0  0  0  0  0  0
    4.1798    1.0333   -0.9741 O   0  0  0  0  0  0  0  0  0  0  0  0
    6.5305    0.5165    0.3729 O   0  0  0  0  0  0  0  0  0  0  0  0
    3.6921   -1.2669    1.8810 O   0  0  0  0  0  0  0  0  0  0  0  0
    8.2362   -2.6275   -1.2789 H   0  0  0  0  0  0  0  0  0  0  0  0
    6.6718   -3.2274   -0.7280 H   0  0  0  0  0  0  0  0  0  0  0  0
    6.9324   -1.4715   -0.9224 H   0  0  0  0  0  0  0  0  0  0  0  0
    6.0124   -2.8580    1.5567 H   0  0  0  0  0  0  0  0  0  0  0  0
    7.3031   -2.7812    2.7397 H   0  0  0  0  0  0  0  0  0  0  0  0
    1.5865    0.5630   -0.8523 H   0  0  0  0  0  0  0  0  0  0  0  0
    1.6492   -0.7155    0.3893 H   0  0  0  0  0  0  0  0  0  0  0  0
    7.4416   -0.3164    2.5213 H   0  0  0  0  0  0  0  0  0  0  0  0
    3.2380    1.1679    0.8270 H   0  0  0  0  0  0  0  0  0  0  0  0
    5.3376    0.8671    2.0439 H   0  0  0  0  0  0  0  0  0  0  0  0
    4.7364   -1.3909    0.0762 H   0  0  0  0  0  0  0  0  0  0  0  0
    8.6175   -1.7229    0.8798 H   0  0  0  0  0  0  0  0  0  0  0  0
    1.8222   -1.4041   -1.9614 H   0  0  0  0  0  0  0  0  0  0  0  0
    4.9663   -1.2959    3.4068 H   0  0  0  0  0  0  0  0  0  0  0  0
    4.1560    0.3963   -1.7119 H   0  0  0  0  0  0  0  0  0  0  0  0
    5.9562    0.9918   -0.2579 H   0  0  0  0  0  0  0  0  0  0  0  0
    3.2915   -2.0776    1.5345 H   0  0  0  0  0  0  0  0  0  0  0  0
  1  8  1  0  0  0  0
  2  4  1  0  0  0  0
  2 18  1  0  0  0  0
  3  5  1  0  0  0  0
  3 20  1  0  0  0  0
  4 21  1  1  0  0  0
  4 10  1  0  0  0  0
  5  7  1  0  0  0  0
  5 22  1  1  0  0  0
  6 23  1  1  0  0  0
  6  4  1  0  0  0  0
  7 24  1  6  0  0  0
  7  6  1  0  0  0  0
  7 13  1  0  0  0  0
  8 25  1  0  0  0  0
  8  2  1  0  0  0  0
  9  3  1  0  0  0  0
 11  5  1  0  0  0  0
 12  6  1  0  0  0  0
 14  1  1  0  0  0  0
 15  1  1  0  0  0  0
 16  1  1  0  0  0  0
 17  2  1  0  0  0  0
 19  3  1  0  0  0  0
 26  9  1  0  0  0  0
 27 10  1  0  0  0  0
 28 11  1  0  0  0  0
 29 12  1  0  0  0  0
 30 13  1  0  0  0  0
M  END
>  <HBA>
6

>  <HBD>
6

>  <TPSA>
113.18

>  <cid>
8567

>  <dipole>
6.88

>  <excitation_energy_1>
4.284

>  <excitation_energy_2>
4.748

>  <excitation_energy_3>
5.132

>  <excitation_energy_4>
5.348

>  <homo_energy>
-5.252

>  <homo_lumo_gap>
6.076

>  <logP>
-2.967

>  <lumo_energy>
0.825

>  <melting_point>
93.04

>  <molecular_refractivity>
44.37

>  <oscillator_strength_1>
0.0008

>  <oscillator_strength_2>
0.0019

>  <oscillator_strength_3>
0.0021

>  <oscillator_strength_4>
0.0016

>  <open_babel_can_smiles>
CNC[C@@H]([C@H]([C@H]([C@H](CO)O)O)O)O

>  <mulliken_charges>
30
1   -0.302806
2   -0.148532
3   -0.079589
4   0.112541
5   0.114782
6   0.122443
7   0.069482
8   -0.539656
9   -0.636869
10   -0.6512
11   -0.645455
12   -0.657771
13   -0.64962
14   0.139691
15   0.131188
16   0.136625
17   0.109128
18   0.151794
19   0.149198
20   0.141328
21   0.137021
22   0.15695
23   0.125243
24   0.15357
25   0.297589
26   0.409202
27   0.409388
28   0.413724
29   0.418059
30   0.412555

>  <lowdin_charges>
30
1   -0.369588
2   -0.225288
3   -0.157855
4   -0.024843
5   -0.02594
6   -0.026283
7   -0.043464
8   -0.364379
9   -0.481551
10   -0.473632
11   -0.453226
12   -0.472725
13   -0.459616
14   0.146643
15   0.137737
16   0.127337
17   0.1315
18   0.151329
19   0.146497
20   0.141771
21   0.146991
22   0.15812
23   0.134992
24   0.149824
25   0.255853
26   0.356309
27   0.339097
28   0.351936
29   0.345718
30   0.356737

$$$$

