PCCDB-ID:  68738
public computational chemistry database (PCCDB) project, http://pccdb.org

 26 26  0  0  0  0  0  0  0  0999 V2000
    0.7574    1.1631   -0.3510 C   0  0  0  0  0  0  0  0  0  0  0  0
   -1.4557   -0.0184   -0.2875 C   0  0  0  0  0  0  0  0  0  0  0  0
    1.4022   -0.2153   -0.5361 C   0  0  0  0  0  0  0  0  0  0  0  0
   -0.6687   -1.3206   -0.4468 C   0  0  0  0  0  0  0  0  0  0  0  0
   -0.3885    0.8420    1.8854 C   0  0  0  0  0  0  0  0  0  0  0  0
   -1.2991    2.4775    0.1612 C   0  0  0  0  0  0  0  0  0  0  0  0
   -0.6156    1.1043    0.3709 C   0  0  0  0  0  0  0  0  0  0  0  0
   -1.6160    0.4575    2.5872 N   0  0  0  0  0  0  0  0  0  0  0  0
   -2.6100    2.5896    0.8230 N   0  0  0  0  0  0  0  0  0  0  0  0
    0.5318   -1.1275   -1.1876 O   0  0  0  0  0  0  0  0  0  0  0  0
    0.6182    1.6071   -1.3459 H   0  0  0  0  0  0  0  0  0  0  0  0
    1.4481    1.8195    0.1981 H   0  0  0  0  0  0  0  0  0  0  0  0
   -2.3512   -0.2163    0.3101 H   0  0  0  0  0  0  0  0  0  0  0  0
   -1.7700    0.3124   -1.2881 H   0  0  0  0  0  0  0  0  0  0  0  0
    1.7244   -0.6306    0.4344 H   0  0  0  0  0  0  0  0  0  0  0  0
    2.2914   -0.1391   -1.1706 H   0  0  0  0  0  0  0  0  0  0  0  0
   -1.2515   -2.0584   -1.0073 H   0  0  0  0  0  0  0  0  0  0  0  0
   -0.4385   -1.7551    0.5399 H   0  0  0  0  0  0  0  0  0  0  0  0
    0.1023    1.7434    2.3008 H   0  0  0  0  0  0  0  0  0  0  0  0
    0.3295    0.0229    2.0101 H   0  0  0  0  0  0  0  0  0  0  0  0
   -1.3497    2.6737   -0.9251 H   0  0  0  0  0  0  0  0  0  0  0  0
   -0.6532    3.2547    0.5906 H   0  0  0  0  0  0  0  0  0  0  0  0
   -2.2640    1.2439    2.5312 H   0  0  0  0  0  0  0  0  0  0  0  0
   -1.4079    0.2917    3.5704 H   0  0  0  0  0  0  0  0  0  0  0  0
   -3.2910    2.0083    0.3364 H   0  0  0  0  0  0  0  0  0  0  0  0
   -2.9494    3.5467    0.7424 H   0  0  0  0  0  0  0  0  0  0  0  0
  1 12  1  0  0  0  0
  1  7  1  0  0  0  0
  2 13  1  0  0  0  0
  2  7  1  0  0  0  0
  3  1  1  0  0  0  0
  3 15  1  0  0  0  0
  4  2  1  0  0  0  0
  4 18  1  0  0  0  0
  5 20  1  0  0  0  0
  5 19  1  0  0  0  0
  5  8  1  0  0  0  0
  6  7  1  0  0  0  0
  6 22  1  0  0  0  0
  6  9  1  0  0  0  0
  7  5  1  0  0  0  0
  8 24  1  0  0  0  0
 10  3  1  0  0  0  0
 10  4  1  0  0  0  0
 11  1  1  0  0  0  0
 14  2  1  0  0  0  0
 16  3  1  0  0  0  0
 17  4  1  0  0  0  0
 21  6  1  0  0  0  0
 23  8  1  0  0  0  0
 25  9  1  0  0  0  0
 26  9  1  0  0  0  0
M  END
>  <HBA>
3

>  <HBD>
2

>  <TPSA>
61.27

>  <cid>
68738

>  <dipole>
2.62

>  <excitation_energy_1>
5.388

>  <excitation_energy_2>
5.688

>  <excitation_energy_3>
5.811

>  <excitation_energy_4>
6.007

>  <homo_energy>
-5.916

>  <homo_lumo_gap>
7.84

>  <logP>
1.101

>  <lumo_energy>
1.924

>  <melting_point>
113.59

>  <molecular_refractivity>
39.89

>  <oscillator_strength_1>
0.0036

>  <oscillator_strength_2>
0.0082

>  <oscillator_strength_3>
0.0005

>  <oscillator_strength_4>
0.0191

>  <open_babel_can_smiles>
NCC1(CN)CCOCC1

>  <mulliken_charges>
26
1   -0.288106
2   -0.282668
3   -0.032467
4   -0.040832
5   -0.134126
6   -0.145267
7   0.077469
8   -0.742806
9   -0.735188
10   -0.468097
11   0.136642
12   0.126052
13   0.159296
14   0.122802
15   0.120064
16   0.14071
17   0.13967
18   0.132253
19   0.104345
20   0.131117
21   0.116365
22   0.133939
23   0.329519
24   0.287187
25   0.30873
26   0.303397

>  <lowdin_charges>
26
1   -0.2944
2   -0.299319
3   -0.135143
4   -0.133643
5   -0.207537
6   -0.205966
7   -0.008851
8   -0.572843
9   -0.552282
10   -0.27704
11   0.145307
12   0.14548
13   0.161577
14   0.137886
15   0.123642
16   0.148465
17   0.149637
18   0.131165
19   0.11659
20   0.137262
21   0.11873
22   0.141663
23   0.262804
24   0.248986
25   0.259646
26   0.258183

$$$$

