PCCDB-ID:  13630
public computational chemistry database (PCCDB) project, http://pccdb.org

 18 18  0  0  0  0  0  0  0  0999 V2000
    2.5691   -0.7168   -2.6023 C   0  0  0  0  0  0  0  0  0  0  0  0
    8.8756   -0.9983   -0.0334 C   0  0  0  0  0  0  0  0  0  0  0  0
    8.0361   -2.0882   -0.2738 C   0  0  0  0  0  0  0  0  0  0  0  0
    8.3417    0.2894    0.0355 C   0  0  0  0  0  0  0  0  0  0  0  0
    6.6641   -1.8979   -0.4358 C   0  0  0  0  0  0  0  0  0  0  0  0
    6.9724    0.4906   -0.1433 C   0  0  0  0  0  0  0  0  0  0  0  0
    4.0069   -0.9706   -2.1908 C   0  0  0  0  0  0  0  0  0  0  0  0
    6.1320   -0.6044   -0.3759 C   0  0  0  0  0  0  0  0  0  0  0  0
    4.8172   -1.5304   -2.8864 O   0  0  0  0  0  0  0  0  0  0  0  0
    4.3708   -0.3189   -0.5265 S   0  0  0  0  0  0  0  0  0  0  0  0
    2.1893   -1.5996   -3.1245 H   0  0  0  0  0  0  0  0  0  0  0  0
    2.5522    0.1256   -3.3038 H   0  0  0  0  0  0  0  0  0  0  0  0
    1.9243   -0.4766   -1.7530 H   0  0  0  0  0  0  0  0  0  0  0  0
    9.9427   -1.1528    0.1005 H   0  0  0  0  0  0  0  0  0  0  0  0
    8.4480   -3.0922   -0.3282 H   0  0  0  0  0  0  0  0  0  0  0  0
    8.9909    1.1414    0.2184 H   0  0  0  0  0  0  0  0  0  0  0  0
    6.0109   -2.7446   -0.6156 H   0  0  0  0  0  0  0  0  0  0  0  0
    6.5548    1.4923   -0.1054 H   0  0  0  0  0  0  0  0  0  0  0  0
  1  7  1  0  0  0  0
  1 13  1  0  0  0  0
  2  4  1  0  0  0  0
  2 14  1  0  0  0  0
  3  2  2  0  0  0  0
  4 16  1  0  0  0  0
  5  8  2  0  0  0  0
  5  3  1  0  0  0  0
  6 18  1  0  0  0  0
  6  4  2  0  0  0  0
  7 10  1  0  0  0  0
  8  6  1  0  0  0  0
  9  7  2  0  0  0  0
 10  8  1  0  0  0  0
 11  1  1  0  0  0  0
 12  1  1  0  0  0  0
 15  3  1  0  0  0  0
 17  5  1  0  0  0  0
M  END
>  <HBA>
2

>  <HBD>
0

>  <TPSA>
42.37

>  <cid>
13630

>  <dipole>
0.76

>  <excitation_energy_1>
4.663

>  <excitation_energy_2>
5.009

>  <excitation_energy_3>
5.126

>  <excitation_energy_4>
5.304

>  <homo_energy>
-6.474

>  <homo_lumo_gap>
5.812

>  <logP>
2.325

>  <lumo_energy>
-0.661

>  <melting_point>
36.86

>  <molecular_refractivity>
43.17

>  <oscillator_strength_1>
0.0093

>  <oscillator_strength_2>
0.0548

>  <oscillator_strength_3>
0.0492

>  <oscillator_strength_4>
0.0381

>  <open_babel_can_smiles>
CC(=O)Sc1ccccc1

>  <mulliken_charges>
18
1   -0.517066
2   -0.127058
3   -0.124285
4   -0.12151
5   -0.117279
6   -0.145854
7   0.270355
8   -0.079829
9   -0.399991
10   0.091106
11   0.19118
12   0.195921
13   0.176945
14   0.13545
15   0.137318
16   0.135862
17   0.151088
18   0.147646

>  <lowdin_charges>
18
1   -0.466569
2   -0.146577
3   -0.151285
4   -0.155584
5   -0.140608
6   -0.152319
7   0.052529
8   -0.121492
9   -0.222083
10   0.142242
11   0.181538
12   0.186006
13   0.17364
14   0.158817
15   0.161288
16   0.161999
17   0.171432
18   0.167026

$$$$

