PCCDB-ID:  33971
public computational chemistry database (PCCDB) project, http://pccdb.org

 14 14  0  0  0  0  0  0  0  0999 V2000
    1.0007    0.0168    0.1099 C   0  0  0  0  0  0  0  0  0  0  0  0
    4.4313   -1.0767    0.0168 C   0  0  0  0  0  0  0  0  0  0  0  0
    2.4968    0.0924    0.0266 C   0  0  0  0  0  0  0  0  0  0  0  0
    4.4465    1.3452   -0.1715 C   0  0  0  0  0  0  0  0  0  0  0  0
    5.0337    2.4741   -0.2849 N   0  0  0  0  0  0  0  0  0  0  0  0
    3.1409   -1.1478    0.0911 N   0  0  0  0  0  0  0  0  0  0  0  0
    5.1177    0.0850   -0.1107 N   0  0  0  0  0  0  0  0  0  0  0  0
    3.0607    1.2564   -0.0953 N   0  0  0  0  0  0  0  0  0  0  0  0
    0.6137   -0.6085   -0.7032 H   0  0  0  0  0  0  0  0  0  0  0  0
    0.5646    1.0147    0.0520 H   0  0  0  0  0  0  0  0  0  0  0  0
    0.7045   -0.4671    1.0481 H   0  0  0  0  0  0  0  0  0  0  0  0
    5.0302   -1.9863    0.0555 H   0  0  0  0  0  0  0  0  0  0  0  0
    6.0505    2.3638   -0.3265 H   0  0  0  0  0  0  0  0  0  0  0  0
    6.1288    0.0674   -0.1629 H   0  0  0  0  0  0  0  0  0  0  0  0
  1 11  1  0  0  0  0
  2 12  1  0  0  0  0
  2  6  1  0  0  0  0
  3  6  2  0  0  0  0
  3  1  1  0  0  0  0
  4  7  1  0  0  0  0
  4  8  2  0  0  0  0
  5  4  1  0  0  0  0
  7  2  1  0  0  0  0
  8  3  1  0  0  0  0
  9  1  1  0  0  0  0
 10  1  1  0  0  0  0
 13  5  1  0  0  0  0
 14  7  1  0  0  0  0
M  RAD  1   5   2
M  END
>  <HBA>
4

>  <HBD>
1

>  <TPSA>
64.69

>  <cid>
33971

>  <dipole>
4.65

>  <excitation_energy_1>
4.161

>  <excitation_energy_2>
4.173

>  <excitation_energy_3>
5.086

>  <excitation_energy_4>
5.167

>  <homo_energy>
-6.395

>  <homo_lumo_gap>
5.007

>  <logP>
0.343

>  <lumo_energy>
-1.388

>  <melting_point>
103.83

>  <molecular_refractivity>
29.2

>  <oscillator_strength_1>
0.0028

>  <oscillator_strength_2>
0.0201

>  <oscillator_strength_3>
0.0003

>  <oscillator_strength_4>
0.0015

>  <open_babel_can_smiles>
[NH]C1=NC(=NCN1)C

>  <mulliken_charges>
14
1   -0.499138
2   0.265065
3   0.415075
4   0.592681
5   -0.603373
6   -0.446783
7   -0.596812
8   -0.433178
9   0.174494
10   0.182463
11   0.174538
12   0.173291
13   0.262251
14   0.339426

>  <lowdin_charges>
14
1   -0.443974
2   0.001267
3   0.117732
4   0.116879
5   -0.407415
6   -0.215774
7   -0.224639
8   -0.170971
9   0.173987
10   0.173529
11   0.173282
12   0.170972
13   0.241872
14   0.293254

$$$$

