PCCDB-ID:  27050
public computational chemistry database (PCCDB) project, http://pccdb.org

 20 20  0  0  0  0  0  0  0  0999 V2000
    2.6632   -1.3631    2.9519 C   0  0  0  0  0  0  0  0  0  0  0  0
    7.8533    0.6252    0.5483 C   0  0  0  0  0  0  0  0  0  0  0  0
    8.1063   -1.5141   -0.5929 C   0  0  0  0  0  0  0  0  0  0  0  0
    6.5259    0.3186    0.8300 C   0  0  0  0  0  0  0  0  0  0  0  0
    6.7827   -1.8217   -0.2933 C   0  0  0  0  0  0  0  0  0  0  0  0
    4.0631   -1.0183    2.4884 C   0  0  0  0  0  0  0  0  0  0  0  0
    8.6231   -0.2944   -0.1619 C   0  0  0  0  0  0  0  0  0  0  0  0
    5.9886   -0.9086    0.4152 C   0  0  0  0  0  0  0  0  0  0  0  0
   10.0237    0.0342   -0.4695 N   0  0  0  0  0  0  0  0  0  0  0  0
    4.9318   -0.5748    3.1939 O   0  0  0  0  0  0  0  0  0  0  0  0
   10.4545    1.1194   -0.0807 O   0  0  0  0  0  0  0  0  0  0  0  0
   10.6801   -0.7959   -1.0980 O   0  0  0  0  0  0  0  0  0  0  0  0
    4.2752   -1.3326    0.6925 S   0  0  0  0  0  0  0  0  0  0  0  0
    2.6234   -1.2777    4.0398 H   0  0  0  0  0  0  0  0  0  0  0  0
    2.3842   -2.3757    2.6439 H   0  0  0  0  0  0  0  0  0  0  0  0
    1.9431   -0.6675    2.5057 H   0  0  0  0  0  0  0  0  0  0  0  0
    8.2946    1.5636    0.8602 H   0  0  0  0  0  0  0  0  0  0  0  0
    8.7392   -2.2019   -1.1396 H   0  0  0  0  0  0  0  0  0  0  0  0
    5.9136    1.0269    1.3738 H   0  0  0  0  0  0  0  0  0  0  0  0
    6.3650   -2.7736   -0.6050 H   0  0  0  0  0  0  0  0  0  0  0  0
  1 14  1  0  0  0  0
  2  4  1  0  0  0  0
  2 17  1  0  0  0  0
  3  5  2  0  0  0  0
  3  7  1  0  0  0  0
  4 19  1  0  0  0  0
  5  8  1  0  0  0  0
  6  1  1  0  0  0  0
  6 10  2  0  0  0  0
  7  2  2  0  0  0  0
  8 13  1  0  0  0  0
  8  4  2  0  0  0  0
  9  7  1  0  0  0  0
  9 11  2  0  0  0  0
 12  9  2  0  0  0  0
 13  6  1  0  0  0  0
 15  1  1  0  0  0  0
 16  1  1  0  0  0  0
 18  3  1  0  0  0  0
 20  5  1  0  0  0  0
M  END
>  <HBA>
2

>  <HBD>
0

>  <TPSA>
88.19

>  <cid>
27050

>  <dipole>
5.72

>  <excitation_energy_1>
3.704

>  <excitation_energy_2>
3.89

>  <excitation_energy_3>
4.127

>  <excitation_energy_4>
4.239

>  <homo_energy>
-7.056

>  <homo_lumo_gap>
4.501

>  <logP>
2.757

>  <lumo_energy>
-2.555

>  <melting_point>
76.65

>  <molecular_refractivity>
51.99

>  <oscillator_strength_1>
0.01

>  <oscillator_strength_2>
0.2278

>  <oscillator_strength_3>
0.0275

>  <oscillator_strength_4>
0.0009

>  <open_babel_can_smiles>
CC(=O)Sc1ccc(cc1)N(=O)=O

>  <mulliken_charges>
20
1   -0.527932
2   -0.141915
3   -0.137944
4   -0.13056
5   -0.16184
6   0.276402
7   0.268838
8   -0.064512
9   0.381645
10   -0.388024
11   -0.392361
12   -0.39343
13   0.114467
14   0.197159
15   0.192783
16   0.197077
17   0.188873
18   0.187808
19   0.168957
20   0.16451

>  <lowdin_charges>
20
1   -0.464744
2   -0.133758
3   -0.13686
4   -0.136837
5   -0.148681
6   0.060197
7   0.005547
8   -0.101526
9   0.310232
10   -0.208289
11   -0.244159
12   -0.247016
13   0.153302
14   0.181451
15   0.182449
16   0.187253
17   0.191249
18   0.192136
19   0.18161
20   0.176443

$$$$

