PCCDB-ID:  8859
public computational chemistry database (PCCDB) project, http://pccdb.org

 13 12  0  0  0  0  0  0  0  0999 V2000
    0.9315    0.1933    0.0748 C   0  0  0  0  0  0  0  0  0  0  0  0
    3.0747    1.3724    0.5217 C   0  0  0  0  0  0  0  0  0  0  0  0
    0.2803    0.8367    0.9718 N   0  0  0  0  0  0  0  0  0  0  0  0
    0.4511   -0.8203   -0.7656 N   0  0  0  0  0  0  0  0  0  0  0  0
    2.7671    2.2482    1.3817 N   0  0  0  0  0  0  0  0  0  0  0  0
    2.2873    0.4207   -0.1354 N   0  0  0  0  0  0  0  0  0  0  0  0
    4.3527    1.2383    0.0629 O   0  0  0  0  0  0  0  0  0  0  0  0
   -0.7121    0.6025    0.9478 H   0  0  0  0  0  0  0  0  0  0  0  0
   -0.5564   -0.9200   -0.7425 H   0  0  0  0  0  0  0  0  0  0  0  0
    0.7948   -0.7825   -1.7200 H   0  0  0  0  0  0  0  0  0  0  0  0
    1.7773    2.1695    1.6234 H   0  0  0  0  0  0  0  0  0  0  0  0
    2.8047   -0.2837   -0.6430 H   0  0  0  0  0  0  0  0  0  0  0  0
    4.8597    1.9046    0.5590 H   0  0  0  0  0  0  0  0  0  0  0  0
  1  3  1  0  0  0  0
  2  5  2  0  0  0  0
  4  9  1  0  0  0  0
  4  1  2  0  0  0  0
  5 11  1  0  0  0  0
  6  1  1  0  0  0  0
  6  2  1  0  0  0  0
  7  2  1  0  0  0  0
  7 13  1  0  0  0  0
  8  3  1  0  0  0  0
 10  4  1  0  0  0  0
 12  6  1  0  0  0  0
M  RAD  1   3   2
M  END
>  <HBA>
5

>  <HBD>
3

>  <TPSA>
107.49

>  <cid>
8859

>  <dipole>
4.64

>  <excitation_energy_1>
5.516

>  <excitation_energy_2>
5.8

>  <excitation_energy_3>
6.005

>  <excitation_energy_4>
6.167

>  <homo_energy>
-6.46

>  <homo_lumo_gap>
7.102

>  <logP>
0.439

>  <lumo_energy>
0.642

>  <melting_point>
188.43

>  <molecular_refractivity>
24.12

>  <oscillator_strength_1>
0.0014

>  <oscillator_strength_2>
0.0072

>  <oscillator_strength_3>
0.0164

>  <oscillator_strength_4>
0.0496

>  <open_babel_can_smiles>
[NH]C(=[NH2])NC(=N)O

>  <mulliken_charges>
13
1   0.641738
2   0.650638
3   -0.647121
4   -0.760152
5   -0.64626
6   -0.661549
7   -0.618733
8   0.278869
9   0.328132
10   0.328093
11   0.338983
12   0.346068
13   0.421293

>  <lowdin_charges>
13
1   0.144178
2   0.164894
3   -0.458714
4   -0.50031
5   -0.453186
6   -0.267267
7   -0.392559
8   0.254221
9   0.279036
10   0.28049
11   0.280526
12   0.299175
13   0.369514

$$$$

