PCCDB-ID:  58406
public computational chemistry database (PCCDB) project, http://pccdb.org

 35 34  0  0  0  0  0  0  0  0999 V2000
    4.4819    2.5354   -1.1851 C   0  0  0  0  0  0  0  0  0  0  0  0
    4.1872    1.2603   -0.3886 C   0  0  0  0  0  0  0  0  0  0  0  0
    4.8438    0.0083   -0.9851 C   0  0  0  0  0  0  0  0  0  0  0  0
    4.5457   -1.2690   -0.1874 C   0  0  0  0  0  0  0  0  0  0  0  0
    5.1282   -2.5579   -0.7914 C   0  0  0  0  0  0  0  0  0  0  0  0
    6.6613   -2.6279   -0.7910 C   0  0  0  0  0  0  0  0  0  0  0  0
    7.1879   -3.9666   -1.3341 C   0  0  0  0  0  0  0  0  0  0  0  0
   11.5025   -4.5414   -1.3528 C   0  0  0  0  0  0  0  0  0  0  0  0
    9.3921   -3.5712   -2.3778 C   0  0  0  0  0  0  0  0  0  0  0  0
   10.9299   -5.2153   -0.4152 N   0  0  0  0  0  0  0  0  0  0  0  0
   12.8774   -4.5023   -1.6181 N   0  0  0  0  0  0  0  0  0  0  0  0
    9.0446   -2.9145   -3.4318 N   0  0  0  0  0  0  0  0  0  0  0  0
    8.6350   -4.0643   -1.3566 N   0  0  0  0  0  0  0  0  0  0  0  0
   10.7847   -3.7960   -2.2656 N   0  0  0  0  0  0  0  0  0  0  0  0
    4.0000    3.4104   -0.7339 H   0  0  0  0  0  0  0  0  0  0  0  0
    4.1197    2.4511   -2.2171 H   0  0  0  0  0  0  0  0  0  0  0  0
    5.5598    2.7348   -1.2297 H   0  0  0  0  0  0  0  0  0  0  0  0
    3.1000    1.1068   -0.3319 H   0  0  0  0  0  0  0  0  0  0  0  0
    4.5298    1.3892    0.6481 H   0  0  0  0  0  0  0  0  0  0  0  0
    5.9289    0.1697   -1.0456 H   0  0  0  0  0  0  0  0  0  0  0  0
    4.4970   -0.1229   -2.0215 H   0  0  0  0  0  0  0  0  0  0  0  0
    3.4557   -1.3838   -0.1011 H   0  0  0  0  0  0  0  0  0  0  0  0
    4.9203   -1.1508    0.8403 H   0  0  0  0  0  0  0  0  0  0  0  0
    4.7573   -2.6741   -1.8211 H   0  0  0  0  0  0  0  0  0  0  0  0
    4.7342   -3.4178   -0.2301 H   0  0  0  0  0  0  0  0  0  0  0  0
    7.0413   -2.4893    0.2305 H   0  0  0  0  0  0  0  0  0  0  0  0
    7.0851   -1.8139   -1.3916 H   0  0  0  0  0  0  0  0  0  0  0  0
    6.7895   -4.1417   -2.3448 H   0  0  0  0  0  0  0  0  0  0  0  0
    6.8164   -4.7890   -0.7118 H   0  0  0  0  0  0  0  0  0  0  0  0
   11.6108   -5.6506    0.2049 H   0  0  0  0  0  0  0  0  0  0  0  0
   13.4459   -4.8854   -0.8733 H   0  0  0  0  0  0  0  0  0  0  0  0
   13.2303   -3.6025   -1.9265 H   0  0  0  0  0  0  0  0  0  0  0  0
    8.0368   -2.7698   -3.4623 H   0  0  0  0  0  0  0  0  0  0  0  0
    9.1271   -4.6592   -0.6890 H   0  0  0  0  0  0  0  0  0  0  0  0
   11.2604   -3.4842   -3.1016 H   0  0  0  0  0  0  0  0  0  0  0  0
  1 15  1  0  0  0  0
  1  2  1  0  0  0  0
  2 18  1  0  0  0  0
  2 19  1  0  0  0  0
  3  2  1  0  0  0  0
  3  4  1  0  0  0  0
  4 22  1  0  0  0  0
  4 23  1  0  0  0  0
  5  6  1  0  0  0  0
  5 25  1  0  0  0  0
  5  4  1  0  0  0  0
  6 26  1  0  0  0  0
  7  6  1  0  0  0  0
  7 29  1  0  0  0  0
  8 10  1  0  0  0  0
  9 14  1  0  0  0  0
  9 13  1  0  0  0  0
 10 30  1  0  0  0  0
 11  8  2  0  0  0  0
 11 31  1  0  0  0  0
 12  9  2  0  0  0  0
 13  7  1  0  0  0  0
 13 34  1  0  0  0  0
 14  8  1  0  0  0  0
 16  1  1  0  0  0  0
 17  1  1  0  0  0  0
 20  3  1  0  0  0  0
 21  3  1  0  0  0  0
 24  5  1  0  0  0  0
 27  6  1  0  0  0  0
 28  7  1  0  0  0  0
 32 11  1  0  0  0  0
 33 12  1  0  0  0  0
 35 14  1  0  0  0  0
M  RAD  1  10   2
M  END
>  <HBA>
5

>  <HBD>
3

>  <TPSA>
102.78

>  <cid>
58406

>  <dipole>
3.15

>  <excitation_energy_1>
4.821

>  <excitation_energy_2>
5.419

>  <excitation_energy_3>
5.6

>  <excitation_energy_4>
5.726

>  <homo_energy>
-5.513

>  <homo_lumo_gap>
6.381

>  <logP>
2.646

>  <lumo_energy>
0.868

>  <melting_point>
169.92

>  <molecular_refractivity>
60.87

>  <oscillator_strength_1>
0.0011

>  <oscillator_strength_2>
0.0218

>  <oscillator_strength_3>
0.0002

>  <oscillator_strength_4>
0.0239

>  <open_babel_can_smiles>
CCCCCCCNC(=N)NC(=[NH2])[NH]

>  <mulliken_charges>
35
1   -0.441761
2   -0.246763
3   -0.24875
4   -0.253408
5   -0.259489
6   -0.253194
7   -0.141865
8   0.665684
9   0.657735
10   -0.692378
11   -0.756804
12   -0.694091
13   -0.626709
14   -0.665379
15   0.140605
16   0.141573
17   0.142314
18   0.129126
19   0.129728
20   0.13556
21   0.126026
22   0.127091
23   0.127188
24   0.127795
25   0.126695
26   0.135046
27   0.14945
28   0.142251
29   0.144516
30   0.277998
31   0.325612
32   0.328327
33   0.278518
34   0.378261
35   0.343494

>  <lowdin_charges>
35
1   -0.442366
2   -0.268479
3   -0.274194
4   -0.270788
5   -0.276119
6   -0.288381
7   -0.195645
8   0.148637
9   0.144272
10   -0.493074
11   -0.50206
12   -0.506728
13   -0.306793
14   -0.257929
15   0.149268
16   0.145281
17   0.14498
18   0.135978
19   0.137292
20   0.138513
21   0.135825
22   0.13817
23   0.136754
24   0.13673
25   0.140357
26   0.142248
27   0.148148
28   0.138859
29   0.151233
30   0.256033
31   0.280761
32   0.281468
33   0.248769
34   0.3041
35   0.298879

$$$$

