PCCDB-ID:  12176
public computational chemistry database (PCCDB) project, http://pccdb.org

 16 15  0  0  0  0  0  0  0  0999 V2000
    2.9002    1.0293   -2.5549 C   0  0  0  0  0  0  0  0  0  0  0  0
    2.7443   -0.1244   -1.5763 C   0  0  0  0  0  0  0  0  0  0  0  0
    5.5180   -0.0988    0.9020 C   0  0  0  0  0  0  0  0  0  0  0  0
    4.8265   -0.3045   -0.4346 C   0  0  0  0  0  0  0  0  0  0  0  0
    6.9602   -0.0357    0.7055 N   0  0  0  0  0  0  0  0  0  0  0  0
    5.3564   -0.8053   -1.4044 O   0  0  0  0  0  0  0  0  0  0  0  0
    3.5386    0.0872   -0.3818 O   0  0  0  0  0  0  0  0  0  0  0  0
    2.2328    0.8813   -3.4119 H   0  0  0  0  0  0  0  0  0  0  0  0
    3.9277    1.0837   -2.9250 H   0  0  0  0  0  0  0  0  0  0  0  0
    2.6429    1.9813   -2.0793 H   0  0  0  0  0  0  0  0  0  0  0  0
    3.0395   -1.0731   -2.0313 H   0  0  0  0  0  0  0  0  0  0  0  0
    1.7190   -0.2021   -1.2062 H   0  0  0  0  0  0  0  0  0  0  0  0
    5.1659   -0.9231    1.5523 H   0  0  0  0  0  0  0  0  0  0  0  0
    5.1467    0.8279    1.3536 H   0  0  0  0  0  0  0  0  0  0  0  0
    7.2228   -0.7332    0.0113 H   0  0  0  0  0  0  0  0  0  0  0  0
    7.4437   -0.2626    1.5706 H   0  0  0  0  0  0  0  0  0  0  0  0
  1 10  1  0  0  0  0
  1  2  1  0  0  0  0
  2 12  1  0  0  0  0
  2  7  1  0  0  0  0
  3 14  1  0  0  0  0
  3 13  1  0  0  0  0
  4  7  1  0  0  0  0
  4  3  1  0  0  0  0
  5  3  1  0  0  0  0
  5 16  1  0  0  0  0
  6  4  2  0  0  0  0
  8  1  1  0  0  0  0
  9  1  1  0  0  0  0
 11  2  1  0  0  0  0
 15  5  1  0  0  0  0
M  END
>  <HBA>
3

>  <HBD>
1

>  <TPSA>
52.32

>  <cid>
12176

>  <dipole>
2.04

>  <excitation_energy_1>
5.487

>  <excitation_energy_2>
5.91

>  <excitation_energy_3>
5.997

>  <excitation_energy_4>
6.577

>  <homo_energy>
-6.376

>  <homo_lumo_gap>
6.71

>  <logP>
0.208

>  <lumo_energy>
0.335

>  <melting_point>
41.46

>  <molecular_refractivity>
25.33

>  <oscillator_strength_1>
0.0069

>  <oscillator_strength_2>
0.0083

>  <oscillator_strength_3>
0.0046

>  <oscillator_strength_4>
0.022

>  <open_babel_can_smiles>
CCOC(=O)CN

>  <mulliken_charges>
16
1   -0.461888
2   -0.046622
3   -0.211331
4   0.621603
5   -0.718722
6   -0.480336
7   -0.456823
8   0.150627
9   0.180336
10   0.159164
11   0.170044
12   0.153836
13   0.15063
14   0.173538
15   0.317475
16   0.298469

>  <lowdin_charges>
16
1   -0.454128
2   -0.12606
3   -0.228072
4   0.199491
5   -0.557493
6   -0.271021
7   -0.192276
8   0.159581
9   0.166615
10   0.157195
11   0.158382
12   0.151814
13   0.146425
14   0.163983
15   0.267212
16   0.258353

$$$$

