PCCDB-ID:  36629
public computational chemistry database (PCCDB) project, http://pccdb.org

 27 26  0  0  0  0  0  0  0  0999 V2000
    2.4485   -1.6944    1.5772 C   0  0  0  0  0  0  0  0  0  0  0  0
    5.2907    4.1258   -1.6967 C   0  0  0  0  0  0  0  0  0  0  0  0
    6.7821   -0.4142    1.0302 C   0  0  0  0  0  0  0  0  0  0  0  0
    3.0957   -1.3727    0.2181 C   0  0  0  0  0  0  0  0  0  0  0  0
    5.0525    2.6136   -1.6381 C   0  0  0  0  0  0  0  0  0  0  0  0
    5.9863   -0.2606   -0.2798 C   0  0  0  0  0  0  0  0  0  0  0  0
    3.5101    0.0710    0.1066 C   0  0  0  0  0  0  0  0  0  0  0  0
    4.9296    2.0831   -0.1951 C   0  0  0  0  0  0  0  0  0  0  0  0
    4.7332    0.5800   -0.1120 C   0  0  0  0  0  0  0  0  0  0  0  0
    2.1114   -2.7367    1.6173 H   0  0  0  0  0  0  0  0  0  0  0  0
    1.5778   -1.0536    1.7614 H   0  0  0  0  0  0  0  0  0  0  0  0
    3.1570   -1.5328    2.3975 H   0  0  0  0  0  0  0  0  0  0  0  0
    5.3622    4.4790   -2.7319 H   0  0  0  0  0  0  0  0  0  0  0  0
    6.2215    4.4016   -1.1856 H   0  0  0  0  0  0  0  0  0  0  0  0
    4.4736    4.6752   -1.2129 H   0  0  0  0  0  0  0  0  0  0  0  0
    7.7040   -0.9842    0.8651 H   0  0  0  0  0  0  0  0  0  0  0  0
    6.1883   -0.9372    1.7880 H   0  0  0  0  0  0  0  0  0  0  0  0
    7.0621    0.5608    1.4456 H   0  0  0  0  0  0  0  0  0  0  0  0
    2.3677   -1.5998   -0.5760 H   0  0  0  0  0  0  0  0  0  0  0  0
    3.9459   -2.0435    0.0544 H   0  0  0  0  0  0  0  0  0  0  0  0
    5.8709    2.0954   -2.1559 H   0  0  0  0  0  0  0  0  0  0  0  0
    4.1356    2.3588   -2.1857 H   0  0  0  0  0  0  0  0  0  0  0  0
    5.7409   -1.2551   -0.6673 H   0  0  0  0  0  0  0  0  0  0  0  0
    6.6365    0.2044   -1.0331 H   0  0  0  0  0  0  0  0  0  0  0  0
    2.6893    0.7808    0.2379 H   0  0  0  0  0  0  0  0  0  0  0  0
    4.0917    2.5944    0.2964 H   0  0  0  0  0  0  0  0  0  0  0  0
    5.8350    2.3716    0.3606 H   0  0  0  0  0  0  0  0  0  0  0  0
  1 10  1  0  0  0  0
  1 11  1  0  0  0  0
  1 12  1  0  0  0  0
  2  5  1  0  0  0  0
  2 15  1  0  0  0  0
  2 14  1  0  0  0  0
  3 18  1  0  0  0  0
  3 17  1  0  0  0  0
  4  1  1  0  0  0  0
  5  8  1  0  0  0  0
  6  9  1  0  0  0  0
  6  3  1  0  0  0  0
  7  4  1  0  0  0  0
  7 25  1  0  0  0  0
  8  9  1  0  0  0  0
  8 26  1  0  0  0  0
  8 27  1  0  0  0  0
  9  7  2  0  0  0  0
 13  2  1  0  0  0  0
 16  3  1  0  0  0  0
 19  4  1  0  0  0  0
 20  4  1  0  0  0  0
 21  5  1  0  0  0  0
 22  5  1  0  0  0  0
 23  6  1  0  0  0  0
 24  6  1  0  0  0  0
M  END
>  <HBA>
0

>  <HBD>
0

>  <TPSA>
0.0

>  <cid>
36629

>  <dipole>
0.2

>  <excitation_energy_1>
5.708

>  <excitation_energy_2>
5.977

>  <excitation_energy_3>
6.087

>  <excitation_energy_4>
6.174

>  <homo_energy>
-6.106

>  <homo_lumo_gap>
6.944

>  <logP>
3.533

>  <lumo_energy>
0.838

>  <melting_point>
-15.35

>  <molecular_refractivity>
44.9

>  <oscillator_strength_1>
0.0235

>  <oscillator_strength_2>
0.1178

>  <oscillator_strength_3>
0.0269

>  <oscillator_strength_4>
0.0041

>  <open_babel_can_smiles>
CCC/C(=C/CC)/CC

>  <mulliken_charges>
27
1   -0.439006
2   -0.440931
3   -0.439766
4   -0.291548
5   -0.246666
6   -0.33121
7   -0.164757
8   -0.326429
9   0.184508
10   0.140607
11   0.142796
12   0.14823
13   0.142467
14   0.1408
15   0.14166
16   0.141021
17   0.149218
18   0.146567
19   0.140002
20   0.137914
21   0.133788
22   0.136883
23   0.142377
24   0.137821
25   0.107691
26   0.134983
27   0.130982

>  <lowdin_charges>
27
1   -0.441586
2   -0.445349
3   -0.44225
4   -0.273735
5   -0.273037
6   -0.276312
7   -0.189314
8   -0.274502
9   -0.016861
10   0.146839
11   0.147332
12   0.149367
13   0.148768
14   0.14601
15   0.147346
16   0.148234
17   0.150685
18   0.147598
19   0.147572
20   0.146148
21   0.140363
22   0.142709
23   0.147259
24   0.146139
25   0.143578
26   0.145824
27   0.141177

$$$$

