PCCDB-ID:  20366
public computational chemistry database (PCCDB) project, http://pccdb.org

 30 31  0  0  1  0  0  0  0  0999 V2000
   -2.7698    0.7467   -0.1548 C   0  0  0  0  0  0  0  0  0  0  0  0
   -1.5287    1.6434   -0.0553 C   0  0  0  0  0  0  0  0  0  0  0  0
   -2.4776   -0.6596    0.3859 C   0  0  0  0  0  0  0  0  0  0  0  0
   -0.3003    1.0095   -0.7306 C   0  0  0  0  0  0  0  0  0  0  0  0
   -1.2714   -1.2900   -0.3287 C   0  0  0  0  0  0  0  0  0  0  0  0
    0.4114   -1.6203    1.9844 C   0  0  0  0  0  0  0  0  0  0  0  0
    0.7666   -1.2650   -2.4952 C   0  0  0  0  0  0  0  0  0  0  0  0
    0.5719   -0.3698    1.2242 C   0  0  1  0  0  0  0  0  0  0  0  0
    1.1617   -1.0614   -1.1008 C   0  0  1  0  0  0  0  0  0  0  0  0
    2.0642    0.0162    1.2779 C   0  0  0  0  0  0  0  0  0  0  0  0
    2.4245   -0.1706   -1.0061 C   0  0  0  0  0  0  0  0  0  0  0  0
    0.0123   -0.4314   -0.2396 C   0  0  0  0  0  0  0  0  0  0  0  0
    0.3166   -2.5906    2.6154 N   0  0  0  0  0  0  0  0  0  0  0  0
    0.4097   -1.4386   -3.5855 N   0  0  0  0  0  0  0  0  0  0  0  0
    2.8607    0.1354    0.2912 N   0  0  0  0  0  0  0  0  0  0  0  0
    2.5586    0.2564    2.5022 O   0  0  0  0  0  0  0  0  0  0  0  0
    3.0137    0.2257   -1.9832 O   0  0  0  0  0  0  0  0  0  0  0  0
   -3.0777    0.6711   -1.2072 H   0  0  0  0  0  0  0  0  0  0  0  0
   -3.6088    1.1994    0.3869 H   0  0  0  0  0  0  0  0  0  0  0  0
   -1.3188    1.8589    1.0035 H   0  0  0  0  0  0  0  0  0  0  0  0
   -1.7190    2.6174   -0.5209 H   0  0  0  0  0  0  0  0  0  0  0  0
   -3.3486   -1.3113    0.2525 H   0  0  0  0  0  0  0  0  0  0  0  0
   -2.2986   -0.6133    1.4699 H   0  0  0  0  0  0  0  0  0  0  0  0
    0.5737    1.6595   -0.6005 H   0  0  0  0  0  0  0  0  0  0  0  0
   -0.4812    0.9525   -1.8112 H   0  0  0  0  0  0  0  0  0  0  0  0
   -1.5144   -1.4049   -1.3917 H   0  0  0  0  0  0  0  0  0  0  0  0
   -1.0784   -2.2979    0.0571 H   0  0  0  0  0  0  0  0  0  0  0  0
    0.0196    0.4033    1.7747 H   0  0  0  0  0  0  0  0  0  0  0  0
    1.4075   -2.0465   -0.6762 H   0  0  0  0  0  0  0  0  0  0  0  0
    1.9016    0.0572    3.1905 H   0  0  0  0  0  0  0  0  0  0  0  0
  1  2  1  0  0  0  0
  1  3  1  0  0  0  0
  1 19  1  0  0  0  0
  2 20  1  0  0  0  0
  3 23  1  0  0  0  0
  4 24  1  0  0  0  0
  4 12  1  0  0  0  0
  4  2  1  0  0  0  0
  5 12  1  0  0  0  0
  5 27  1  0  0  0  0
  5  3  1  0  0  0  0
  6 13  3  0  0  0  0
  7  9  1  0  0  0  0
  8 10  1  0  0  0  0
  8 28  1  1  0  0  0
  8  6  1  0  0  0  0
  9 11  1  0  0  0  0
  9 29  1  1  0  0  0
  9 12  1  0  0  0  0
 10 16  1  0  0  0  0
 11 15  1  0  0  0  0
 12  8  1  0  0  0  0
 14  7  3  0  0  0  0
 15 10  2  0  0  0  0
 16 30  1  0  0  0  0
 17 11  2  0  0  0  0
 18  1  1  0  0  0  0
 21  2  1  0  0  0  0
 22  3  1  0  0  0  0
 25  4  1  0  0  0  0
 26  5  1  0  0  0  0
M  END
>  <HBA>
5

>  <HBD>
1

>  <TPSA>
93.75

>  <cid>
20366

>  <dipole>
6.97

>  <excitation_energy_1>
4.009

>  <excitation_energy_2>
4.83

>  <excitation_energy_3>
5.905

>  <excitation_energy_4>
6.023

>  <homo_energy>
-7.549

>  <homo_lumo_gap>
5.431

>  <logP>
1.202

>  <lumo_energy>
-2.117

>  <melting_point>
171.06

>  <molecular_refractivity>
61.92

>  <oscillator_strength_1>
0.002

>  <oscillator_strength_2>
0.0012

>  <oscillator_strength_3>
0.0189

>  <oscillator_strength_4>
0.0216

>  <open_babel_can_smiles>
N#C[C@H]1C(=NC(=O)[C@@H](C21CCCCC2)C#N)O

>  <mulliken_charges>
30
1   -0.259243
2   -0.279049
3   -0.27481
4   -0.301634
5   -0.302893
6   0.357088
7   0.39608
8   -0.292168
9   -0.279007
10   0.540338
11   0.558264
12   0.056151
13   -0.454745
14   -0.479215
15   -0.43911
16   -0.546556
17   -0.413441
18   0.147405
19   0.144756
20   0.12894
21   0.15774
22   0.156111
23   0.133926
24   0.161296
25   0.180452
26   0.175269
27   0.163229
28   0.218606
29   0.214891
30   0.431328

>  <lowdin_charges>
30
1   -0.278103
2   -0.27705
3   -0.277859
4   -0.287717
5   -0.285372
6   -0.033824
7   -0.007461
8   -0.167887
9   -0.168468
10   0.16708
11   0.168679
12   0.019384
13   -0.095717
14   -0.107036
15   -0.167867
16   -0.309036
17   -0.190815
18   0.146448
19   0.152339
20   0.132548
21   0.158563
22   0.158842
23   0.13701
24   0.157806
25   0.167149
26   0.165559
27   0.159529
28   0.195878
29   0.194004
30   0.373392

$$$$

