PCCDB-ID:  69897
public computational chemistry database (PCCDB) project, http://pccdb.org

 22 22  0  0  0  0  0  0  0  0999 V2000
   -2.8188    0.0980   -3.0357 C   0  0  0  0  0  0  0  0  0  0  0  0
   -1.9366    0.5583   -1.8841 C   0  0  0  0  0  0  0  0  0  0  0  0
   -0.9458    5.3216   -2.0062 C   0  0  0  0  0  0  0  0  0  0  0  0
   -0.7365    4.0348   -2.4792 C   0  0  0  0  0  0  0  0  0  0  0  0
   -0.1643    6.3260   -2.6077 C   0  0  0  0  0  0  0  0  0  0  0  0
   -1.5528    2.9197   -1.8742 C   0  0  0  0  0  0  0  0  0  0  0  0
    0.8201    4.7940   -3.9296 C   0  0  0  0  0  0  0  0  0  0  0  0
    0.1430    3.7447   -3.4490 N   0  0  0  0  0  0  0  0  0  0  0  0
    0.7172    6.0722   -3.5651 N   0  0  0  0  0  0  0  0  0  0  0  0
   -2.0601   -0.2264   -4.1859 O   0  0  0  0  0  0  0  0  0  0  0  0
   -0.2560    7.6218   -2.2524 O   0  0  0  0  0  0  0  0  0  0  0  0
   -2.4335    3.1199   -1.0631 O   0  0  0  0  0  0  0  0  0  0  0  0
    1.7146    4.5455   -4.8979 O   0  0  0  0  0  0  0  0  0  0  0  0
   -1.1811    1.7134   -2.3321 O   0  0  0  0  0  0  0  0  0  0  0  0
   -3.5723    0.8738   -3.2483 H   0  0  0  0  0  0  0  0  0  0  0  0
   -3.3516   -0.8122   -2.7402 H   0  0  0  0  0  0  0  0  0  0  0  0
   -1.1862   -0.1988   -1.6450 H   0  0  0  0  0  0  0  0  0  0  0  0
   -2.5170    0.8200   -0.9971 H   0  0  0  0  0  0  0  0  0  0  0  0
   -1.6722    5.5123   -1.2251 H   0  0  0  0  0  0  0  0  0  0  0  0
   -1.5189    0.5542   -4.3895 H   0  0  0  0  0  0  0  0  0  0  0  0
   -0.9217    7.7150   -1.5520 H   0  0  0  0  0  0  0  0  0  0  0  0
    1.6884    3.5842   -5.0505 H   0  0  0  0  0  0  0  0  0  0  0  0
  1 16  1  0  0  0  0
  1  2  1  0  0  0  0
  2 17  1  0  0  0  0
  2 18  1  0  0  0  0
  3 19  1  0  0  0  0
  4  3  2  0  0  0  0
  4  6  1  0  0  0  0
  5 11  1  0  0  0  0
  5  3  1  0  0  0  0
  6 12  2  0  0  0  0
  7  9  2  0  0  0  0
  7  8  2  0  0  0  0
  8  4  1  0  0  0  0
  9  5  2  0  0  0  0
 10  1  1  0  0  0  0
 11 21  1  0  0  0  0
 13  7  1  0  0  0  0
 14  2  1  0  0  0  0
 14  6  1  0  0  0  0
 15  1  1  0  0  0  0
 20 10  1  0  0  0  0
 22 13  1  0  0  0  0
M  END
>  <HBA>
5

>  <HBD>
3

>  <TPSA>
112.25

>  <cid>
69897

>  <dipole>
2.68

>  <excitation_energy_1>
4.16

>  <excitation_energy_2>
4.491

>  <excitation_energy_3>
4.664

>  <excitation_energy_4>
4.882

>  <homo_energy>
-7.176

>  <homo_lumo_gap>
5.075

>  <logP>
-1.788

>  <lumo_energy>
-2.101

>  <melting_point>
212.65

>  <molecular_refractivity>
44.93

>  <oscillator_strength_1>
0.0022

>  <oscillator_strength_2>
0.0863

>  <oscillator_strength_3>
0.0054

>  <oscillator_strength_4>
0.0106

>  <open_babel_can_smiles>
OCCOC(=O)C1=CC(=[N]=[C](=N1)O)O

>  <mulliken_charges>
22
1   -0.039946
2   -0.083511
3   -0.233806
4   0.240226
5   0.526469
6   0.611355
7   0.642656
8   -0.547642
9   -0.461643
10   -0.613504
11   -0.5843
12   -0.475458
13   -0.579041
14   -0.466015
15   0.138629
16   0.156161
17   0.171479
18   0.181681
19   0.170831
20   0.403681
21   0.420505
22   0.42119

>  <lowdin_charges>
22
1   -0.14264
2   -0.152155
3   -0.243648
4   0.045939
5   0.161961
6   0.1915
7   0.166915
8   -0.211225
9   -0.163348
10   -0.463628
11   -0.32861
12   -0.257037
13   -0.326018
14   -0.172261
15   0.136804
16   0.157427
17   0.164049
18   0.169715
19   0.185616
20   0.34767
21   0.367271
22   0.365704

$$$$

