PCCDB-ID:  11980
public computational chemistry database (PCCDB) project, http://pccdb.org

 18 18  0  0  0  0  0  0  0  0999 V2000
    3.7307    1.1332    3.6129 C   0  0  0  0  0  0  0  0  0  0  0  0
    2.9531    1.0492    2.3078 C   0  0  0  0  0  0  0  0  0  0  0  0
    6.3619   -1.3600   -1.8620 C   0  0  0  0  0  0  0  0  0  0  0  0
    6.1734   -0.0943   -1.2348 C   0  0  0  0  0  0  0  0  0  0  0  0
    5.4615   -2.2052   -1.2771 C   0  0  0  0  0  0  0  0  0  0  0  0
    5.1723   -0.2637   -0.3153 C   0  0  0  0  0  0  0  0  0  0  0  0
    4.5735    0.7072    0.6056 C   0  0  0  0  0  0  0  0  0  0  0  0
    4.9310    1.8699    0.6566 O   0  0  0  0  0  0  0  0  0  0  0  0
    3.6005    0.1621    1.3648 O   0  0  0  0  0  0  0  0  0  0  0  0
    4.7302   -1.5600   -0.3369 O   0  0  0  0  0  0  0  0  0  0  0  0
    3.1845    1.7559    4.3310 H   0  0  0  0  0  0  0  0  0  0  0  0
    4.7133    1.5831    3.4460 H   0  0  0  0  0  0  0  0  0  0  0  0
    3.8650    0.1388    4.0509 H   0  0  0  0  0  0  0  0  0  0  0  0
    2.8446    2.0346    1.8481 H   0  0  0  0  0  0  0  0  0  0  0  0
    1.9653    0.6065    2.4566 H   0  0  0  0  0  0  0  0  0  0  0  0
    7.0689   -1.6107   -2.6402 H   0  0  0  0  0  0  0  0  0  0  0  0
    6.6982    0.8308   -1.4237 H   0  0  0  0  0  0  0  0  0  0  0  0
    5.2286   -3.2506   -1.4146 H   0  0  0  0  0  0  0  0  0  0  0  0
  1 13  1  0  0  0  0
  1 11  1  0  0  0  0
  2 15  1  0  0  0  0
  2  1  1  0  0  0  0
  3  5  2  0  0  0  0
  3  4  1  0  0  0  0
  4  6  2  0  0  0  0
  5 10  1  0  0  0  0
  6  7  1  0  0  0  0
  7  8  2  0  0  0  0
  7  9  1  0  0  0  0
  9  2  1  0  0  0  0
 10  6  1  0  0  0  0
 12  1  1  0  0  0  0
 14  2  1  0  0  0  0
 16  3  1  0  0  0  0
 17  4  1  0  0  0  0
 18  5  1  0  0  0  0
M  END
>  <HBA>
3

>  <HBD>
0

>  <TPSA>
39.44

>  <cid>
11980

>  <dipole>
1.7

>  <excitation_energy_1>
5.001

>  <excitation_energy_2>
5.119

>  <excitation_energy_3>
6.016

>  <excitation_energy_4>
6.136

>  <homo_energy>
-6.525

>  <homo_lumo_gap>
5.475

>  <logP>
1.456

>  <lumo_energy>
-1.05

>  <melting_point>
27.83

>  <molecular_refractivity>
34.79

>  <oscillator_strength_1>
0.0014

>  <oscillator_strength_2>
0.4008

>  <oscillator_strength_3>
0.0166

>  <oscillator_strength_4>
0.0052

>  <open_babel_can_smiles>
CCOC(=O)c1ccco1

>  <mulliken_charges>
18
1   -0.462631
2   -0.041703
3   -0.189087
4   -0.161138
5   0.100699
6   0.279776
7   0.575298
8   -0.502207
9   -0.466839
10   -0.428449
11   0.149636
12   0.177177
13   0.158854
14   0.171118
15   0.154395
16   0.151432
17   0.168672
18   0.164995

>  <lowdin_charges>
18
1   -0.455561
2   -0.125682
3   -0.204126
4   -0.162174
5   -0.057052
6   0.027121
7   0.185284
8   -0.276186
9   -0.183502
10   -0.075399
11   0.15983
12   0.165506
13   0.156421
14   0.158624
15   0.152757
16   0.174652
17   0.185268
18   0.174221

$$$$

