PCCDB-ID:  8788
public computational chemistry database (PCCDB) project, http://pccdb.org

 27 27  0  0  0  0  0  0  0  0999 V2000
   -1.5662    2.9576    0.5590 C   0  0  0  0  0  0  0  0  0  0  0  0
   -0.5574    2.6796    1.4834 C   0  0  0  0  0  0  0  0  0  0  0  0
   -1.5154    2.3934   -0.7175 C   0  0  0  0  0  0  0  0  0  0  0  0
    0.4999    1.8383    1.1349 C   0  0  0  0  0  0  0  0  0  0  0  0
   -0.4566    1.5555   -1.0660 C   0  0  0  0  0  0  0  0  0  0  0  0
    1.0209   -3.6470    2.3006 C   0  0  0  0  0  0  0  0  0  0  0  0
    1.2008   -3.0709    0.8818 C   0  0  0  0  0  0  0  0  0  0  0  0
    1.6894    0.3524   -0.5306 C   0  0  0  0  0  0  0  0  0  0  0  0
    0.5587    1.2695   -0.1445 C   0  0  0  0  0  0  0  0  0  0  0  0
    2.3172   -4.0339    3.0231 C   0  0  0  0  0  0  0  0  0  0  0  0
    1.6018   -1.6098    0.8435 C   0  0  0  0  0  0  0  0  0  0  0  0
    2.5479   -5.1673    3.3747 O   0  0  0  0  0  0  0  0  0  0  0  0
    3.1890   -3.0364    3.2585 O   0  0  0  0  0  0  0  0  0  0  0  0
    2.1222   -1.0044    1.7719 O   0  0  0  0  0  0  0  0  0  0  0  0
    1.3299   -1.0565   -0.3396 O   0  0  0  0  0  0  0  0  0  0  0  0
   -2.3881    3.6146    0.8306 H   0  0  0  0  0  0  0  0  0  0  0  0
   -0.5915    3.1208    2.4758 H   0  0  0  0  0  0  0  0  0  0  0  0
   -2.2966    2.6090   -1.4412 H   0  0  0  0  0  0  0  0  0  0  0  0
    1.2797    1.6113    1.8560 H   0  0  0  0  0  0  0  0  0  0  0  0
   -0.4145    1.1207   -2.0621 H   0  0  0  0  0  0  0  0  0  0  0  0
    0.4274   -4.5608    2.2385 H   0  0  0  0  0  0  0  0  0  0  0  0
    0.4657   -2.9302    2.9192 H   0  0  0  0  0  0  0  0  0  0  0  0
    0.2717   -3.1720    0.3115 H   0  0  0  0  0  0  0  0  0  0  0  0
    1.9568   -3.6395    0.3230 H   0  0  0  0  0  0  0  0  0  0  0  0
    2.5945    0.5558    0.0434 H   0  0  0  0  0  0  0  0  0  0  0  0
    1.9066    0.4132   -1.5986 H   0  0  0  0  0  0  0  0  0  0  0  0
    2.8433   -2.1905    2.8897 H   0  0  0  0  0  0  0  0  0  0  0  0
  1 16  1  0  0  0  0
  1  2  2  0  0  0  0
  2 17  1  0  0  0  0
  3  1  1  0  0  0  0
  4  2  1  0  0  0  0
  4 19  1  0  0  0  0
  5  3  2  0  0  0  0
  5  9  1  0  0  0  0
  6 22  1  0  0  0  0
  6 10  1  0  0  0  0
  7  6  1  0  0  0  0
  8 15  1  0  0  0  0
  8  9  1  0  0  0  0
  8 25  1  0  0  0  0
  9  4  2  0  0  0  0
 10 13  1  0  0  0  0
 10 12  2  0  0  0  0
 11  7  1  0  0  0  0
 11 14  2  0  0  0  0
 15 11  1  0  0  0  0
 18  3  1  0  0  0  0
 20  5  1  0  0  0  0
 21  6  1  0  0  0  0
 23  7  1  0  0  0  0
 24  7  1  0  0  0  0
 26  8  1  0  0  0  0
 27 13  1  0  0  0  0
M  END
>  <HBA>
4

>  <HBD>
1

>  <TPSA>
63.6

>  <cid>
8788

>  <dipole>
6.98

>  <excitation_energy_1>
5.285

>  <excitation_energy_2>
5.554

>  <excitation_energy_3>
5.629

>  <excitation_energy_4>
5.747

>  <homo_energy>
-6.879

>  <homo_lumo_gap>
6.133

>  <logP>
1.595

>  <lumo_energy>
-0.746

>  <melting_point>
94.09

>  <molecular_refractivity>
53.69

>  <oscillator_strength_1>
0.0029

>  <oscillator_strength_2>
0.0015

>  <oscillator_strength_3>
0.0039

>  <oscillator_strength_4>
0.0105

>  <open_babel_can_smiles>
O=C(CCC(=O)O)OCc1ccccc1

>  <mulliken_charges>
27
1   -0.124602
2   -0.130258
3   -0.128943
4   -0.173519
5   -0.169421
6   -0.379219
7   -0.377665
8   -0.152414
9   0.143576
10   0.57595
11   0.649841
12   -0.449244
13   -0.588982
14   -0.508413
15   -0.442922
16   0.137982
17   0.139467
18   0.137374
19   0.156167
20   0.133621
21   0.18256
22   0.176556
23   0.191611
24   0.203508
25   0.185197
26   0.169407
27   0.442787

>  <lowdin_charges>
27
1   -0.147449
2   -0.152264
3   -0.154996
4   -0.154154
5   -0.153426
6   -0.316554
7   -0.301958
8   -0.122737
9   -0.02797
10   0.183196
11   0.213718
12   -0.255006
13   -0.368917
14   -0.290247
15   -0.172749
16   0.162262
17   0.161704
18   0.162345
19   0.17046
20   0.158381
21   0.177811
22   0.170456
23   0.180701
24   0.18592
25   0.169474
26   0.162611
27   0.359388

$$$$

