PCCDB-ID:  22766
public computational chemistry database (PCCDB) project, http://pccdb.org

 29 29  0  0  0  0  0  0  0  0999 V2000
    6.3155    2.4495    5.0714 C   0  0  0  0  0  0  0  0  0  0  0  0
    6.5803    2.5428    3.5644 C   0  0  0  0  0  0  0  0  0  0  0  0
    5.9831    1.3623    2.7859 C   0  0  0  0  0  0  0  0  0  0  0  0
    6.3091    1.2945    1.2822 C   0  0  0  0  0  0  0  0  0  0  0  0
    5.7435    2.4390    0.4136 C   0  0  0  0  0  0  0  0  0  0  0  0
    9.0600    2.9202   -2.6310 C   0  0  0  0  0  0  0  0  0  0  0  0
    6.6584    3.6757    0.2368 C   0  0  0  0  0  0  0  0  0  0  0  0
    7.8782    3.1838   -1.9439 C   0  0  0  0  0  0  0  0  0  0  0  0
   10.2551    2.8806   -1.9100 C   0  0  0  0  0  0  0  0  0  0  0  0
    9.1746    3.3380    0.0498 C   0  0  0  0  0  0  0  0  0  0  0  0
    7.9145    3.3994   -0.5604 C   0  0  0  0  0  0  0  0  0  0  0  0
   10.3230    3.0863   -0.5903 N   0  0  0  0  0  0  0  0  0  0  0  0
    5.2393    2.4268    5.2831 H   0  0  0  0  0  0  0  0  0  0  0  0
    6.7428    3.3041    5.6081 H   0  0  0  0  0  0  0  0  0  0  0  0
    6.7532    1.5365    5.4935 H   0  0  0  0  0  0  0  0  0  0  0  0
    7.6645    2.5864    3.3862 H   0  0  0  0  0  0  0  0  0  0  0  0
    6.1677    3.4879    3.1878 H   0  0  0  0  0  0  0  0  0  0  0  0
    4.8900    1.3674    2.9142 H   0  0  0  0  0  0  0  0  0  0  0  0
    6.3347    0.4296    3.2506 H   0  0  0  0  0  0  0  0  0  0  0  0
    5.9046    0.3462    0.9050 H   0  0  0  0  0  0  0  0  0  0  0  0
    7.3968    1.2270    1.1429 H   0  0  0  0  0  0  0  0  0  0  0  0
    4.7817    2.7718    0.8287 H   0  0  0  0  0  0  0  0  0  0  0  0
    5.5179    2.0483   -0.5875 H   0  0  0  0  0  0  0  0  0  0  0  0
    9.0600    2.7523   -3.7043 H   0  0  0  0  0  0  0  0  0  0  0  0
    6.9365    4.0818    1.2151 H   0  0  0  0  0  0  0  0  0  0  0  0
    6.0792    4.4599   -0.2695 H   0  0  0  0  0  0  0  0  0  0  0  0
    6.9311    3.2299   -2.4779 H   0  0  0  0  0  0  0  0  0  0  0  0
   11.1989    2.6785   -2.4143 H   0  0  0  0  0  0  0  0  0  0  0  0
    9.2591    3.5082    1.1235 H   0  0  0  0  0  0  0  0  0  0  0  0
  1 13  1  0  0  0  0
  1 15  1  0  0  0  0
  1 14  1  0  0  0  0
  2  1  1  0  0  0  0
  3 18  1  0  0  0  0
  3 19  1  0  0  0  0
  3  2  1  0  0  0  0
  4  3  1  0  0  0  0
  5 22  1  0  0  0  0
  5  4  1  0  0  0  0
  6  8  2  0  0  0  0
  6  9  1  0  0  0  0
  7  5  1  0  0  0  0
  7 25  1  0  0  0  0
  8 11  1  0  0  0  0
  9 12  2  0  0  0  0
 10 29  1  0  0  0  0
 11 10  2  0  0  0  0
 11  7  1  0  0  0  0
 12 10  1  0  0  0  0
 16  2  1  0  0  0  0
 17  2  1  0  0  0  0
 20  4  1  0  0  0  0
 21  4  1  0  0  0  0
 23  5  1  0  0  0  0
 24  6  1  0  0  0  0
 26  7  1  0  0  0  0
 27  8  1  0  0  0  0
 28  9  1  0  0  0  0
M  END
>  <HBA>
1

>  <HBD>
0

>  <TPSA>
12.89

>  <cid>
22766

>  <dipole>
2.38

>  <excitation_energy_1>
4.801

>  <excitation_energy_2>
5.169

>  <excitation_energy_3>
5.334

>  <excitation_energy_4>
6.04

>  <homo_energy>
-6.743

>  <homo_lumo_gap>
6.18

>  <logP>
3.204

>  <lumo_energy>
-0.563

>  <melting_point>
19.34

>  <molecular_refractivity>
53.24

>  <oscillator_strength_1>
0.0047

>  <oscillator_strength_2>
0.0001

>  <oscillator_strength_3>
0.0624

>  <oscillator_strength_4>
0.0617

>  <open_babel_can_smiles>
CCCCCCc1cccnc1

>  <mulliken_charges>
29
1   -0.442252
2   -0.253563
3   -0.2478
4   -0.263192
5   -0.256326
6   -0.137972
7   -0.359707
8   -0.149052
9   0.036381
10   -0.019516
11   0.163142
12   -0.408517
13   0.141521
14   0.142535
15   0.143195
16   0.133229
17   0.135395
18   0.126092
19   0.12924
20   0.131869
21   0.141379
22   0.133901
23   0.133994
24   0.135327
25   0.153489
26   0.144896
27   0.136239
28   0.139214
29   0.13686

>  <lowdin_charges>
29
1   -0.444137
2   -0.275266
3   -0.272682
4   -0.280092
5   -0.273461
6   -0.171494
7   -0.278682
8   -0.139976
9   -0.095559
10   -0.10409
11   -0.018437
12   -0.148045
13   0.144817
14   0.150514
15   0.147504
16   0.136751
17   0.139137
18   0.134195
19   0.141128
20   0.145577
21   0.143904
22   0.142711
23   0.142365
24   0.161044
25   0.152973
26   0.15396
27   0.159108
28   0.155892
29   0.150341

$$$$

