PCCDB-ID:  673
public computational chemistry database (PCCDB) project, http://pccdb.org

 16 15  0  0  0  0  0  0  0  0999 V2000
    1.8986   -0.3422   -0.6027 C   0  0  0  0  0  0  0  0  0  0  0  0
    2.2051    2.0462   -0.8671 C   0  0  0  0  0  0  0  0  0  0  0  0
    2.4623    1.0501    1.3281 C   0  0  0  0  0  0  0  0  0  0  0  0
    3.6880    1.7802    1.9017 C   0  0  0  0  0  0  0  0  0  0  0  0
    2.5956    0.8485   -0.1170 N   0  0  0  0  0  0  0  0  0  0  0  0
    3.6886    2.3371    2.9717 O   0  0  0  0  0  0  0  0  0  0  0  0
    4.7724    1.6953    1.1094 O   0  0  0  0  0  0  0  0  0  0  0  0
    2.1118   -0.4770   -1.6679 H   0  0  0  0  0  0  0  0  0  0  0  0
    0.8035   -0.2800   -0.4772 H   0  0  0  0  0  0  0  0  0  0  0  0
    2.2596   -1.2258   -0.0673 H   0  0  0  0  0  0  0  0  0  0  0  0
    2.4081    1.8935   -1.9315 H   0  0  0  0  0  0  0  0  0  0  0  0
    2.7934    2.9037   -0.5265 H   0  0  0  0  0  0  0  0  0  0  0  0
    1.1347    2.2878   -0.7456 H   0  0  0  0  0  0  0  0  0  0  0  0
    1.5569    1.6025    1.6204 H   0  0  0  0  0  0  0  0  0  0  0  0
    2.4181    0.0723    1.8224 H   0  0  0  0  0  0  0  0  0  0  0  0
    4.4630    1.2015    0.3101 H   0  0  0  0  0  0  0  0  0  0  0  0
  1  9  1  0  0  0  0
  1  5  1  0  0  0  0
  1 10  1  0  0  0  0
  2 13  1  0  0  0  0
  2 12  1  0  0  0  0
  2  5  1  0  0  0  0
  3 14  1  0  0  0  0
  3 15  1  0  0  0  0
  3  4  1  0  0  0  0
  4  6  2  0  0  0  0
  5  3  1  0  0  0  0
  7  4  1  0  0  0  0
  8  1  1  0  0  0  0
 11  2  1  0  0  0  0
 16  7  1  0  0  0  0
M  END
>  <HBA>
3

>  <HBD>
1

>  <TPSA>
40.54

>  <cid>
673

>  <dipole>
5.25

>  <excitation_energy_1>
5.54

>  <excitation_energy_2>
5.931

>  <excitation_energy_3>
6.324

>  <excitation_energy_4>
6.677

>  <homo_energy>
-6.724

>  <homo_lumo_gap>
7.178

>  <logP>
-0.367

>  <lumo_energy>
0.454

>  <melting_point>
54.56

>  <molecular_refractivity>
26.01

>  <oscillator_strength_1>
0.0006

>  <oscillator_strength_2>
0.0152

>  <oscillator_strength_3>
0.0107

>  <oscillator_strength_4>
0.0419

>  <open_babel_can_smiles>
CN(CC(=O)O)C

>  <mulliken_charges>
16
1   -0.300007
2   -0.311661
3   -0.232826
4   0.588298
5   -0.425836
6   -0.454696
7   -0.573156
8   0.160489
9   0.139222
10   0.161375
11   0.162082
12   0.172147
13   0.142459
14   0.168144
15   0.182526
16   0.421441

>  <lowdin_charges>
16
1   -0.352427
2   -0.359423
3   -0.245147
4   0.17265
5   -0.190987
6   -0.248846
7   -0.358111
8   0.154707
9   0.13193
10   0.156779
11   0.155527
12   0.161748
13   0.13433
14   0.1583
15   0.174229
16   0.35474

$$$$

