PCCDB-ID:  33632
public computational chemistry database (PCCDB) project, http://pccdb.org

 25 27  0  0  0  0  0  0  0  0999 V2000
    1.4773    1.2832    0.0378 C   0  0  0  0  0  0  0  0  0  0  0  0
    0.1270    1.6619    0.1071 C   0  0  0  0  0  0  0  0  0  0  0  0
    4.4928   -3.6529   -0.3441 C   0  0  0  0  0  0  0  0  0  0  0  0
    5.7591   -2.7504   -0.3205 C   0  0  0  0  0  0  0  0  0  0  0  0
    0.8866   -1.0909   -0.0546 C   0  0  0  0  0  0  0  0  0  0  0  0
   -2.6700   -0.6016    0.1249 C   0  0  0  0  0  0  0  0  0  0  0  0
    1.8567   -0.0643   -0.0426 C   0  0  0  0  0  0  0  0  0  0  0  0
   -0.8115    0.6507    0.0943 C   0  0  0  0  0  0  0  0  0  0  0  0
   -0.4302   -0.6845    0.0154 C   0  0  0  0  0  0  0  0  0  0  0  0
    3.8645   -1.5527   -0.1980 C   0  0  0  0  0  0  0  0  0  0  0  0
    3.3602   -2.7279   -0.2445 N   0  0  0  0  0  0  0  0  0  0  0  0
    3.2350   -0.3453   -0.1077 N   0  0  0  0  0  0  0  0  0  0  0  0
    5.2287   -1.4074   -0.2417 O   0  0  0  0  0  0  0  0  0  0  0  0
   -2.1857    0.7452    0.1468 O   0  0  0  0  0  0  0  0  0  0  0  0
   -1.5476   -1.4848    0.0153 O   0  0  0  0  0  0  0  0  0  0  0  0
    2.2429    2.0551    0.0458 H   0  0  0  0  0  0  0  0  0  0  0  0
   -0.1631    2.7051    0.1681 H   0  0  0  0  0  0  0  0  0  0  0  0
    4.4806   -4.3630    0.4919 H   0  0  0  0  0  0  0  0  0  0  0  0
    4.4246   -4.2396   -1.2688 H   0  0  0  0  0  0  0  0  0  0  0  0
    6.3679   -2.8227   -1.2266 H   0  0  0  0  0  0  0  0  0  0  0  0
    6.3972   -2.9155    0.5530 H   0  0  0  0  0  0  0  0  0  0  0  0
    1.1782   -2.1305   -0.1173 H   0  0  0  0  0  0  0  0  0  0  0  0
   -3.3273   -0.7400   -0.7419 H   0  0  0  0  0  0  0  0  0  0  0  0
   -3.2097   -0.8125    1.0571 H   0  0  0  0  0  0  0  0  0  0  0  0
    3.8607    0.4469   -0.0875 H   0  0  0  0  0  0  0  0  0  0  0  0
  1 16  1  0  0  0  0
  1  2  2  0  0  0  0
  2 17  1  0  0  0  0
  3  4  1  0  0  0  0
  3 11  1  0  0  0  0
  3 18  1  0  0  0  0
  4 13  1  0  0  0  0
  4 21  1  0  0  0  0
  5  7  2  0  0  0  0
  5  9  1  0  0  0  0
  6 14  1  0  0  0  0
  6 24  1  0  0  0  0
  7  1  1  0  0  0  0
  8  2  1  0  0  0  0
  8 14  1  0  0  0  0
  9  8  2  0  0  0  0
 10 12  1  0  0  0  0
 11 10  2  0  0  0  0
 12 25  1  0  0  0  0
 12  7  1  0  0  0  0
 13 10  1  0  0  0  0
 15  9  1  0  0  0  0
 15  6  1  0  0  0  0
 19  3  1  0  0  0  0
 20  4  1  0  0  0  0
 22  5  1  0  0  0  0
 23  6  1  0  0  0  0
M  END
>  <HBA>
5

>  <HBD>
1

>  <TPSA>
52.08

>  <cid>
33632

>  <dipole>
1.66

>  <excitation_energy_1>
4.441

>  <excitation_energy_2>
4.585

>  <excitation_energy_3>
4.907

>  <excitation_energy_4>
4.989

>  <homo_energy>
-5.042

>  <homo_lumo_gap>
5.222

>  <logP>
0.722

>  <lumo_energy>
0.18

>  <melting_point>
103.49

>  <molecular_refractivity>
57.41

>  <oscillator_strength_1>
0.0858

>  <oscillator_strength_2>
0.0001

>  <oscillator_strength_3>
0.291

>  <oscillator_strength_4>
0.0059

>  <open_babel_can_smiles>
C1CN=C(O1)Nc1ccc2c(c1)OCO2

>  <mulliken_charges>
25
1   -0.219514
2   -0.186183
3   -0.160896
4   -0.058215
5   -0.232386
6   0.19686
7   0.357458
8   0.330591
9   0.329427
10   0.762761
11   -0.502603
12   -0.772561
13   -0.514045
14   -0.538495
15   -0.532702
16   0.120591
17   0.143069
18   0.152503
19   0.152484
20   0.157177
21   0.156784
22   0.2013
23   0.157467
24   0.155644
25   0.343483

>  <lowdin_charges>
25
1   -0.205817
2   -0.175579
3   -0.208058
4   -0.138812
5   -0.209343
6   0.018432
7   0.06276
8   0.057982
9   0.078884
10   0.162565
11   -0.276128
12   -0.230968
13   -0.232305
14   -0.214692
15   -0.204189
16   0.155785
17   0.168819
18   0.149007
19   0.148102
20   0.151499
21   0.151045
22   0.19899
23   0.147827
24   0.145359
25   0.298835

$$$$

