PCCDB-ID:  49929
public computational chemistry database (PCCDB) project, http://pccdb.org

 23 22  0  0  0  0  0  0  0  0999 V2000
    1.7668   -1.9974   -0.0929 C   0  0  0  0  0  0  0  0  0  0  0  0
    6.3222   -4.0618    0.3117 C   0  0  0  0  0  0  0  0  0  0  0  0
    1.9859   -1.0360    1.0790 C   0  0  0  0  0  0  0  0  0  0  0  0
    3.2366   -0.1435    0.9199 C   0  0  0  0  0  0  0  0  0  0  0  0
    5.9551   -2.3440    2.1558 C   0  0  0  0  0  0  0  0  0  0  0  0
    4.5189   -0.9442    0.8670 C   0  0  0  0  0  0  0  0  0  0  0  0
    5.2370   -4.6607    2.3526 N   0  0  0  0  0  0  0  0  0  0  0  0
    5.7938   -3.6709    1.6129 N   0  0  0  0  0  0  0  0  0  0  0  0
    5.2414   -1.0659   -0.0995 O   0  0  0  0  0  0  0  0  0  0  0  0
    4.8332   -4.3175    3.4538 O   0  0  0  0  0  0  0  0  0  0  0  0
    4.7636   -1.5426    2.0644 O   0  0  0  0  0  0  0  0  0  0  0  0
    0.8612   -2.5947    0.0586 H   0  0  0  0  0  0  0  0  0  0  0  0
    2.6062   -2.6933   -0.2061 H   0  0  0  0  0  0  0  0  0  0  0  0
    1.6576   -1.4540   -1.0391 H   0  0  0  0  0  0  0  0  0  0  0  0
    5.8858   -3.4456   -0.4767 H   0  0  0  0  0  0  0  0  0  0  0  0
    6.0641   -5.1121    0.1646 H   0  0  0  0  0  0  0  0  0  0  0  0
    7.4129   -3.9523    0.2858 H   0  0  0  0  0  0  0  0  0  0  0  0
    2.0695   -1.5981    2.0159 H   0  0  0  0  0  0  0  0  0  0  0  0
    1.1159   -0.3761    1.1834 H   0  0  0  0  0  0  0  0  0  0  0  0
    3.2966    0.5502    1.7667 H   0  0  0  0  0  0  0  0  0  0  0  0
    3.1824    0.4397   -0.0040 H   0  0  0  0  0  0  0  0  0  0  0  0
    6.7719   -1.8505    1.6291 H   0  0  0  0  0  0  0  0  0  0  0  0
    6.1404   -2.4294    3.2254 H   0  0  0  0  0  0  0  0  0  0  0  0
  1 12  1  0  0  0  0
  1  3  1  0  0  0  0
  2  8  1  0  0  0  0
  3 19  1  0  0  0  0
  3 18  1  0  0  0  0
  4  3  1  0  0  0  0
  4 20  1  0  0  0  0
  5 23  1  0  0  0  0
  6  4  1  0  0  0  0
  6 11  1  0  0  0  0
  7 10  1  0  0  0  0
  8  5  1  0  0  0  0
  8  7  1  0  0  0  0
  9  6  2  0  0  0  0
 11  5  1  0  0  0  0
 13  1  1  0  0  0  0
 14  1  1  0  0  0  0
 15  2  1  0  0  0  0
 16  2  1  0  0  0  0
 17  2  1  0  0  0  0
 21  4  1  0  0  0  0
 22  5  1  0  0  0  0
M  RAD  2   7   2  10   2
M  END
>  <HBA>
5

>  <HBD>
0

>  <TPSA>
58.97

>  <cid>
49929

>  <dipole>
2.14

>  <excitation_energy_1>
3.262

>  <excitation_energy_2>
5.493

>  <excitation_energy_3>
5.599

>  <excitation_energy_4>
5.692

>  <homo_energy>
-6.351

>  <homo_lumo_gap>
5.138

>  <logP>
0.9

>  <lumo_energy>
-1.214

>  <melting_point>
7.57

>  <molecular_refractivity>
39.88

>  <oscillator_strength_1>
0.001

>  <oscillator_strength_2>
0.0042

>  <oscillator_strength_3>
0.0224

>  <oscillator_strength_4>
0.003

>  <open_babel_can_smiles>
CN([N][O])COC(=O)CCC

>  <mulliken_charges>
23
1   -0.447382
2   -0.318002
3   -0.266979
4   -0.334011
5   0.075803
6   0.609366
7   0.164152
8   -0.232222
9   -0.477513
10   -0.359871
11   -0.444087
12   0.152446
13   0.153751
14   0.148485
15   0.20199
16   0.186807
17   0.164526
18   0.167834
19   0.145796
20   0.167954
21   0.167382
22   0.18049
23   0.193284

>  <lowdin_charges>
23
1   -0.447702
2   -0.356187
3   -0.268351
4   -0.297823
5   -0.084231
6   0.204929
7   0.061237
8   -0.05481
9   -0.267809
10   -0.248152
11   -0.190902
12   0.155912
13   0.152071
14   0.150294
15   0.175696
16   0.173197
17   0.154163
18   0.157059
19   0.149856
20   0.170425
21   0.165546
22   0.169747
23   0.175833

$$$$

