PCCDB-ID:  29465
public computational chemistry database (PCCDB) project, http://pccdb.org

 35 37  0  0  1  0  0  0  0  0999 V2000
    1.8790    0.9994    0.8628 C   0  0  0  0  0  0  0  0  0  0  0  0
    4.8119    5.7351    0.3877 C   0  0  0  0  0  0  0  0  0  0  0  0
    2.9310   -1.4013   -0.8577 C   0  0  0  0  0  0  0  0  0  0  0  0
    2.1052   -0.5148   -1.8262 C   0  0  0  0  0  0  0  0  0  0  0  0
    1.7197    6.2340   -1.4826 C   0  0  0  0  0  0  0  0  0  0  0  0
    0.7159    5.5536   -2.1525 C   0  0  0  0  0  0  0  0  0  0  0  0
    3.7070   -0.3743    0.0226 C   0  0  0  0  0  0  0  0  0  0  0  0
    2.8913    4.1572   -0.9442 C   0  0  0  0  0  0  0  0  0  0  0  0
    0.4942    1.9609   -2.6003 C   0  0  0  0  0  0  0  0  0  0  0  0
    2.7994    5.5435   -0.8799 C   0  0  0  0  0  0  0  0  0  0  0  0
    1.8821    3.4516   -1.6304 C   0  0  0  0  0  0  0  0  0  0  0  0
    1.6644    2.0465   -1.8831 C   0  0  0  0  0  0  0  0  0  0  0  0
    0.8063    4.1582   -2.2219 C   0  0  0  0  0  0  0  0  0  0  0  0
    2.5899    0.9280   -1.5101 C   0  0  1  0  0  0  0  0  0  0  0  0
   -0.0265    3.2223   -2.8086 N   0  0  0  0  0  0  0  0  0  0  0  0
    2.9972    0.9092   -0.0800 N   0  0  0  0  0  0  0  0  0  0  0  0
    3.7067    6.3541   -0.2438 O   0  0  0  0  0  0  0  0  0  0  0  0
    2.2803    0.9699    1.8815 H   0  0  0  0  0  0  0  0  0  0  0  0
    1.1283    0.1934    0.7719 H   0  0  0  0  0  0  0  0  0  0  0  0
    1.3659    1.9545    0.7290 H   0  0  0  0  0  0  0  0  0  0  0  0
    5.4025    6.5437    0.8240 H   0  0  0  0  0  0  0  0  0  0  0  0
    5.4313    5.1803   -0.3305 H   0  0  0  0  0  0  0  0  0  0  0  0
    4.4924    5.0484    1.1836 H   0  0  0  0  0  0  0  0  0  0  0  0
    3.6181   -2.0694   -1.3873 H   0  0  0  0  0  0  0  0  0  0  0  0
    2.2769   -2.0337   -0.2488 H   0  0  0  0  0  0  0  0  0  0  0  0
    1.0331   -0.6117   -1.6207 H   0  0  0  0  0  0  0  0  0  0  0  0
    2.2605   -0.7731   -2.8788 H   0  0  0  0  0  0  0  0  0  0  0  0
    1.6989    7.3158   -1.3982 H   0  0  0  0  0  0  0  0  0  0  0  0
   -0.1103    6.0939   -2.6074 H   0  0  0  0  0  0  0  0  0  0  0  0
    4.7222   -0.2398   -0.3729 H   0  0  0  0  0  0  0  0  0  0  0  0
    3.7991   -0.6791    1.0692 H   0  0  0  0  0  0  0  0  0  0  0  0
    3.6930    3.6049   -0.4691 H   0  0  0  0  0  0  0  0  0  0  0  0
   -0.0102    1.0918   -2.9987 H   0  0  0  0  0  0  0  0  0  0  0  0
    3.5337    1.0758   -2.0603 H   0  0  0  0  0  0  0  0  0  0  0  0
   -0.8771    3.4252   -3.3087 H   0  0  0  0  0  0  0  0  0  0  0  0
  1 18  1  0  0  0  0
  2 21  1  0  0  0  0
  2 23  1  0  0  0  0
  3 25  1  0  0  0  0
  3  7  1  0  0  0  0
  4 26  1  0  0  0  0
  4 14  1  0  0  0  0
  4  3  1  0  0  0  0
  5 28  1  0  0  0  0
  5 10  2  0  0  0  0
  6  5  1  0  0  0  0
  7 31  1  0  0  0  0
  8 10  1  0  0  0  0
  8 32  1  0  0  0  0
  9 12  2  0  0  0  0
 10 17  1  0  0  0  0
 11  8  2  0  0  0  0
 12 11  1  0  0  0  0
 12 14  1  0  0  0  0
 13  6  2  0  0  0  0
 13 11  1  0  0  0  0
 14 34  1  6  0  0  0
 14 16  1  0  0  0  0
 15  9  1  0  0  0  0
 15 13  1  0  0  0  0
 16  7  1  0  0  0  0
 16  1  1  0  0  0  0
 17  2  1  0  0  0  0
 19  1  1  0  0  0  0
 20  1  1  0  0  0  0
 22  2  1  0  0  0  0
 24  3  1  0  0  0  0
 27  4  1  0  0  0  0
 29  6  1  0  0  0  0
 30  7  1  0  0  0  0
 33  9  1  0  0  0  0
 35 15  1  0  0  0  0
M  END
>  <HBA>
2

>  <HBD>
1

>  <TPSA>
28.26

>  <cid>
29465

>  <dipole>
2.45

>  <excitation_energy_1>
4.412

>  <excitation_energy_2>
4.607

>  <excitation_energy_3>
4.744

>  <excitation_energy_4>
4.75

>  <homo_energy>
-5.119

>  <homo_lumo_gap>
5.129

>  <logP>
2.881

>  <lumo_energy>
0.011

>  <melting_point>
128.43

>  <molecular_refractivity>
73.68

>  <oscillator_strength_1>
0.0646

>  <oscillator_strength_2>
0.0004

>  <oscillator_strength_3>
0.0426

>  <oscillator_strength_4>
0.0529

>  <open_babel_can_smiles>
COc1ccc2c(c1)c(c[nH]2)[C@@H]1CCCN1C

>  <mulliken_charges>
35
1   -0.310017
2   -0.207416
3   -0.293631
4   -0.286753
5   -0.191305
6   -0.164807
7   -0.132883
8   -0.28658
9   -0.00577
10   0.371521
11   0.069424
12   0.047351
13   0.310297
14   -0.039591
15   -0.703221
16   -0.384487
17   -0.517436
18   0.143463
19   0.116834
20   0.16981
21   0.16097
22   0.147397
23   0.150432
24   0.136782
25   0.140548
26   0.136308
27   0.138065
28   0.130878
29   0.120688
30   0.139288
31   0.136538
32   0.14881
33   0.146405
34   0.138126
35   0.323962

>  <lowdin_charges>
35
1   -0.364362
2   -0.281372
3   -0.30489
4   -0.295967
5   -0.18324
6   -0.179256
7   -0.208378
8   -0.223078
9   -0.138702
10   0.087293
11   -0.025641
12   -0.072377
13   0.014917
14   -0.058786
15   -0.201122
16   -0.193942
17   -0.207687
18   0.146655
19   0.121004
20   0.161715
21   0.159213
22   0.144178
23   0.144685
24   0.148433
25   0.147295
26   0.140843
27   0.146783
28   0.162296
29   0.156591
30   0.139838
31   0.144808
32   0.172968
33   0.164822
34   0.144583
35   0.289879

$$$$

