PCCDB-ID:  6354
public computational chemistry database (PCCDB) project, http://pccdb.org

  7  7  0  0  0  0  0  0  0  0999 V2000
    0.0515    0.8931   -0.0690 C   0  0  0  0  0  0  0  0  0  0  0  0
    0.8235   -0.3490    0.0691 C   0  0  0  0  0  0  0  0  0  0  0  0
   -0.6047   -0.3758    0.0000 O   0  0  0  0  0  0  0  0  0  0  0  0
    0.0026    1.3941   -1.0362 H   0  0  0  0  0  0  0  0  0  0  0  0
   -0.0888    1.5411    0.7966 H   0  0  0  0  0  0  0  0  0  0  0  0
    1.2511   -0.6153    1.0362 H   0  0  0  0  0  0  0  0  0  0  0  0
    1.3425   -0.7622   -0.7963 H   0  0  0  0  0  0  0  0  0  0  0  0
  1  3  1  0  0  0  0
  1  2  1  0  0  0  0
  1  5  1  0  0  0  0
  2  6  1  0  0  0  0
  3  2  1  0  0  0  0
  4  1  1  0  0  0  0
  7  2  1  0  0  0  0
M  END
>  <HBA>
1

>  <HBD>
0

>  <TPSA>
12.53

>  <cid>
6354

>  <dipole>
1.95

>  <excitation_energy_1>
7.023

>  <excitation_energy_2>
7.253

>  <excitation_energy_3>
7.403

>  <excitation_energy_4>
7.729

>  <homo_energy>
-7.268

>  <homo_lumo_gap>
10.142

>  <logP>
0.017

>  <lumo_energy>
2.874

>  <melting_point>
-10.28

>  <molecular_refractivity>
10.7

>  <oscillator_strength_1>
0.0327

>  <oscillator_strength_2>
0.003

>  <oscillator_strength_3>
0.0

>  <oscillator_strength_4>
0.0257

>  <open_babel_can_smiles>
O1CC1

>  <mulliken_charges>
7
1   -0.093904
2   -0.09403
3   -0.42358
4   0.152902
5   0.152854
6   0.152886
7   0.152872

>  <lowdin_charges>
7
1   -0.164664
2   -0.162606
3   -0.285284
4   0.152687
5   0.153474
6   0.1527
7   0.153693

$$$$

