PCCDB-ID:  59353
public computational chemistry database (PCCDB) project, http://pccdb.org

 30 29  0  0  1  0  0  0  0  0999 V2000
    4.1589   -0.7300    1.8944 C   0  0  0  0  0  0  0  0  0  0  0  0
   -0.6191   -2.8897   -3.7123 C   0  0  0  0  0  0  0  0  0  0  0  0
    1.3918   -1.5206   -4.3890 C   0  0  0  0  0  0  0  0  0  0  0  0
    4.0007   -1.2189    0.4513 C   0  0  0  0  0  0  0  0  0  0  0  0
    0.9858   -2.1037   -1.9267 C   0  0  0  0  0  0  0  0  0  0  0  0
    2.4306   -1.9236   -1.4400 C   0  0  0  0  0  0  0  0  0  0  0  0
    0.8464   -2.5569   -3.3943 C   0  0  0  0  0  0  0  0  0  0  0  0
    2.5462   -1.5490    0.0542 C   0  0  1  0  0  0  0  0  0  0  0  0
    1.9763   -2.6657    0.9385 C   0  0  0  0  0  0  0  0  0  0  0  0
    2.4224   -3.8493    1.0570 N   0  0  0  0  0  0  0  0  0  0  0  0
    0.8665   -2.3520    1.6666 O   0  0  0  0  0  0  0  0  0  0  0  0
    5.2045   -0.4858    2.1110 H   0  0  0  0  0  0  0  0  0  0  0  0
    3.8390   -1.4940    2.6112 H   0  0  0  0  0  0  0  0  0  0  0  0
    3.5641    0.1742    2.0754 H   0  0  0  0  0  0  0  0  0  0  0  0
   -0.7301   -3.2496   -4.7419 H   0  0  0  0  0  0  0  0  0  0  0  0
   -1.2558   -2.0021   -3.6010 H   0  0  0  0  0  0  0  0  0  0  0  0
   -1.0077   -3.6645   -3.0411 H   0  0  0  0  0  0  0  0  0  0  0  0
    1.2568   -1.8627   -5.4218 H   0  0  0  0  0  0  0  0  0  0  0  0
    2.4607   -1.3286   -4.2449 H   0  0  0  0  0  0  0  0  0  0  0  0
    0.8624   -0.5638   -4.2859 H   0  0  0  0  0  0  0  0  0  0  0  0
    4.6234   -2.1102    0.2939 H   0  0  0  0  0  0  0  0  0  0  0  0
    4.3788   -0.4568   -0.2425 H   0  0  0  0  0  0  0  0  0  0  0  0
    0.4370   -1.1578   -1.7932 H   0  0  0  0  0  0  0  0  0  0  0  0
    0.4857   -2.8434   -1.2872 H   0  0  0  0  0  0  0  0  0  0  0  0
    2.9331   -1.1426   -2.0237 H   0  0  0  0  0  0  0  0  0  0  0  0
    2.9937   -2.8515   -1.6155 H   0  0  0  0  0  0  0  0  0  0  0  0
    1.4334   -3.4809   -3.5124 H   0  0  0  0  0  0  0  0  0  0  0  0
    1.9493   -0.6359    0.2133 H   0  0  0  0  0  0  0  0  0  0  0  0
    3.2492   -3.9718    0.4689 H   0  0  0  0  0  0  0  0  0  0  0  0
    0.6250   -1.4302    1.4948 H   0  0  0  0  0  0  0  0  0  0  0  0
  1 14  1  0  0  0  0
  1 12  1  0  0  0  0
  1 13  1  0  0  0  0
  2 16  1  0  0  0  0
  2  7  1  0  0  0  0
  2 17  1  0  0  0  0
  3 20  1  0  0  0  0
  3 19  1  0  0  0  0
  3  7  1  0  0  0  0
  4  1  1  0  0  0  0
  5 23  1  0  0  0  0
  5  6  1  0  0  0  0
  5 24  1  0  0  0  0
  6  8  1  0  0  0  0
  7  5  1  0  0  0  0
  8 28  1  1  0  0  0
  8  4  1  0  0  0  0
  8  9  1  0  0  0  0
  9 10  2  0  0  0  0
  9 11  1  0  0  0  0
 15  2  1  0  0  0  0
 18  3  1  0  0  0  0
 21  4  1  0  0  0  0
 22  4  1  0  0  0  0
 25  6  1  0  0  0  0
 26  6  1  0  0  0  0
 27  7  1  0  0  0  0
 29 10  1  0  0  0  0
 30 11  1  0  0  0  0
M  END
>  <HBA>
2

>  <HBD>
1

>  <TPSA>
43.09

>  <cid>
59353

>  <dipole>
4.12

>  <excitation_energy_1>
6.135

>  <excitation_energy_2>
6.274

>  <excitation_energy_3>
6.329

>  <excitation_energy_4>
6.689

>  <homo_energy>
-7.004

>  <homo_lumo_gap>
7.78

>  <logP>
2.634

>  <lumo_energy>
0.776

>  <melting_point>
47.08

>  <molecular_refractivity>
48.28

>  <oscillator_strength_1>
0.0011

>  <oscillator_strength_2>
0.0003

>  <oscillator_strength_3>
0.0064

>  <oscillator_strength_4>
0.0015

>  <open_babel_can_smiles>
CC[C@H](C(=N)O)CCC(C)C

>  <mulliken_charges>
30
1   -0.45708
2   -0.444209
3   -0.446143
4   -0.25148
5   -0.264346
6   -0.261564
7   -0.067058
8   -0.176754
9   0.483924
10   -0.588116
11   -0.578038
12   0.150969
13   0.171209
14   0.138178
15   0.141295
16   0.137541
17   0.146817
18   0.143577
19   0.143016
20   0.137341
21   0.137204
22   0.138436
23   0.117939
24   0.153988
25   0.139366
26   0.134122
27   0.125026
28   0.108079
29   0.283061
30   0.4037

>  <lowdin_charges>
30
1   -0.450259
2   -0.44469
3   -0.44444
4   -0.270903
5   -0.283316
6   -0.27428
7   -0.119227
8   -0.160255
9   0.125877
10   -0.40499
11   -0.361472
12   0.154237
13   0.161803
14   0.145316
15   0.147792
16   0.145354
17   0.151783
18   0.149211
19   0.145666
20   0.144551
21   0.143726
22   0.146555
23   0.133858
24   0.153612
25   0.146643
26   0.142759
27   0.136937
28   0.134229
29   0.25388
30   0.350043

$$$$

