PCCDB-ID:  23275
public computational chemistry database (PCCDB) project, http://pccdb.org

 28 29  0  0  0  0  0  0  0  0999 V2000
    1.8799    0.7799    0.4341 C   0  0  0  0  0  0  0  0  0  0  0  0
    3.2983   -1.1423    0.7885 C   0  0  0  0  0  0  0  0  0  0  0  0
    3.7838   -1.1168   -2.1709 C   0  0  0  0  0  0  0  0  0  0  0  0
    4.4481   -0.9291   -3.3710 C   0  0  0  0  0  0  0  0  0  0  0  0
    4.1070    4.0940   -3.5066 C   0  0  0  0  0  0  0  0  0  0  0  0
    4.8067    4.5906   -2.3089 C   0  0  0  0  0  0  0  0  0  0  0  0
    3.4662    1.2746   -1.8684 C   0  0  0  0  0  0  0  0  0  0  0  0
    5.1129    2.2498   -4.9809 C   0  0  0  0  0  0  0  0  0  0  0  0
    4.4445    2.6684   -3.8559 C   0  0  0  0  0  0  0  0  0  0  0  0
    3.2933   -0.0283   -1.3949 C   0  0  0  0  0  0  0  0  0  0  0  0
    4.1166    1.4872   -3.0988 C   0  0  0  0  0  0  0  0  0  0  0  0
    4.6133    0.3819   -3.8309 C   0  0  0  0  0  0  0  0  0  0  0  0
    5.3527    4.9773   -1.3603 N   0  0  0  0  0  0  0  0  0  0  0  0
    5.2176    0.8763   -4.9732 N   0  0  0  0  0  0  0  0  0  0  0  0
    2.5985   -0.3158   -0.1926 N   0  0  0  0  0  0  0  0  0  0  0  0
    1.2470    0.3746    1.2307 H   0  0  0  0  0  0  0  0  0  0  0  0
    1.2327    1.2707   -0.2987 H   0  0  0  0  0  0  0  0  0  0  0  0
    2.5398    1.5443    0.8847 H   0  0  0  0  0  0  0  0  0  0  0  0
    2.5754   -1.5383    1.5103 H   0  0  0  0  0  0  0  0  0  0  0  0
    4.0672   -0.5768    1.3454 H   0  0  0  0  0  0  0  0  0  0  0  0
    3.7884   -1.9882    0.3044 H   0  0  0  0  0  0  0  0  0  0  0  0
    3.6051   -2.1292   -1.8233 H   0  0  0  0  0  0  0  0  0  0  0  0
    4.8085   -1.7810   -3.9418 H   0  0  0  0  0  0  0  0  0  0  0  0
    4.3555    4.7581   -4.3432 H   0  0  0  0  0  0  0  0  0  0  0  0
    3.0281    4.2100   -3.3308 H   0  0  0  0  0  0  0  0  0  0  0  0
    3.1269    2.1251   -1.2884 H   0  0  0  0  0  0  0  0  0  0  0  0
    5.5265    2.8313   -5.7937 H   0  0  0  0  0  0  0  0  0  0  0  0
    5.6527    0.3220   -5.6936 H   0  0  0  0  0  0  0  0  0  0  0  0
  1 18  1  0  0  0  0
  1 16  1  0  0  0  0
  2 20  1  0  0  0  0
  2 19  1  0  0  0  0
  3 22  1  0  0  0  0
  3 10  2  0  0  0  0
  4  3  1  0  0  0  0
  5 25  1  0  0  0  0
  5  6  1  0  0  0  0
  6 13  3  0  0  0  0
  7 10  1  0  0  0  0
  7 26  1  0  0  0  0
  8 14  1  0  0  0  0
  8  9  2  0  0  0  0
  9  5  1  0  0  0  0
  9 11  1  0  0  0  0
 10 15  1  0  0  0  0
 11  7  2  0  0  0  0
 12  4  2  0  0  0  0
 12 11  1  0  0  0  0
 14 12  1  0  0  0  0
 15  1  1  0  0  0  0
 15  2  1  0  0  0  0
 17  1  1  0  0  0  0
 21  2  1  0  0  0  0
 23  4  1  0  0  0  0
 24  5  1  0  0  0  0
 27  8  1  0  0  0  0
 28 14  1  0  0  0  0
M  END
>  <HBA>
2

>  <HBD>
1

>  <TPSA>
42.82

>  <cid>
23275

>  <dipole>
4.48

>  <excitation_energy_1>
4.0

>  <excitation_energy_2>
4.423

>  <excitation_energy_3>
4.601

>  <excitation_energy_4>
4.769

>  <homo_energy>
-5.012

>  <homo_lumo_gap>
4.74

>  <logP>
2.3

>  <lumo_energy>
-0.272

>  <melting_point>
143.35

>  <molecular_refractivity>
62.03

>  <oscillator_strength_1>
0.0629

>  <oscillator_strength_2>
0.0028

>  <oscillator_strength_3>
0.0061

>  <oscillator_strength_4>
0.0489

>  <open_babel_can_smiles>
N#CCc1c[nH]c2c1cc(cc2)N(C)C

>  <mulliken_charges>
28
1   -0.30394
2   -0.308148
3   -0.188172
4   -0.166233
5   -0.43796
6   0.363568
7   -0.281929
8   0.009463
9   0.064646
10   0.320068
11   0.092166
12   0.313778
13   -0.473199
14   -0.695138
15   -0.463141
16   0.150571
17   0.15938
18   0.13846
19   0.150001
20   0.13906
21   0.157953
22   0.128049
23   0.123655
24   0.194192
25   0.200559
26   0.131783
27   0.151541
28   0.328967

>  <lowdin_charges>
28
1   -0.358994
2   -0.353091
3   -0.180272
4   -0.179941
5   -0.262246
6   -0.014927
7   -0.211161
8   -0.131145
9   -0.067781
10   0.044952
11   -0.026299
12   0.020792
13   -0.133419
14   -0.198599
15   -0.143501
16   0.153566
17   0.157812
18   0.132596
19   0.150411
20   0.134256
21   0.157136
22   0.158505
23   0.157736
24   0.185557
25   0.182242
26   0.164388
27   0.167143
28   0.294286

$$$$

