PCCDB-ID:  7019
public computational chemistry database (PCCDB) project, http://pccdb.org

 25 27  0  0  0  0  0  0  0  0999 V2000
   -3.7027   -0.6326    0.0257 C   0  0  0  0  0  0  0  0  0  0  0  0
    3.6858   -0.6351    0.0354 C   0  0  0  0  0  0  0  0  0  0  0  0
   -3.6422    0.7681    0.0270 C   0  0  0  0  0  0  0  0  0  0  0  0
    3.6300    0.7668    0.0367 C   0  0  0  0  0  0  0  0  0  0  0  0
   -2.5248   -1.3655    0.0285 C   0  0  0  0  0  0  0  0  0  0  0  0
    2.5082   -1.3685    0.0352 C   0  0  0  0  0  0  0  0  0  0  0  0
   -2.4157    1.4117    0.0301 C   0  0  0  0  0  0  0  0  0  0  0  0
    2.4061    1.4185    0.0373 C   0  0  0  0  0  0  0  0  0  0  0  0
   -1.2612   -0.7497    0.0337 C   0  0  0  0  0  0  0  0  0  0  0  0
    1.2534   -0.7364    0.0360 C   0  0  0  0  0  0  0  0  0  0  0  0
   -1.2218    0.6654    0.0335 C   0  0  0  0  0  0  0  0  0  0  0  0
    1.2136    0.6726    0.0368 C   0  0  0  0  0  0  0  0  0  0  0  0
    0.0037   -1.5336    0.0354 C   0  0  0  0  0  0  0  0  0  0  0  0
    0.1072   -2.8191    0.0361 N   0  0  0  0  0  0  0  0  0  0  0  0
   -0.0087    1.3228    0.0364 N   0  0  0  0  0  0  0  0  0  0  0  0
   -4.6621   -1.1408    0.0241 H   0  0  0  0  0  0  0  0  0  0  0  0
    4.6456   -1.1431    0.0348 H   0  0  0  0  0  0  0  0  0  0  0  0
   -4.5563    1.3553    0.0250 H   0  0  0  0  0  0  0  0  0  0  0  0
    4.5466    1.3506    0.0363 H   0  0  0  0  0  0  0  0  0  0  0  0
   -2.5842   -2.4504    0.0271 H   0  0  0  0  0  0  0  0  0  0  0  0
    2.5173   -2.4530    0.0344 H   0  0  0  0  0  0  0  0  0  0  0  0
   -2.3631    2.4984    0.0308 H   0  0  0  0  0  0  0  0  0  0  0  0
    2.3578    2.5054    0.0383 H   0  0  0  0  0  0  0  0  0  0  0  0
   -0.8104   -3.2706    0.0373 H   0  0  0  0  0  0  0  0  0  0  0  0
   -0.0132    2.3328    0.0368 H   0  0  0  0  0  0  0  0  0  0  0  0
  1  3  1  0  0  0  0
  1  5  2  0  0  0  0
  2  4  2  0  0  0  0
  3  7  2  0  0  0  0
  4  8  1  0  0  0  0
  5  9  1  0  0  0  0
  6  2  1  0  0  0  0
  6 10  2  0  0  0  0
  7 22  1  0  0  0  0
  7 11  1  0  0  0  0
  8 23  1  0  0  0  0
  9 13  1  0  0  0  0
 10 12  1  0  0  0  0
 11  9  2  0  0  0  0
 11 15  1  0  0  0  0
 12  8  2  0  0  0  0
 13 10  1  0  0  0  0
 13 14  2  0  0  0  0
 14 24  1  0  0  0  0
 15 25  1  0  0  0  0
 15 12  1  0  0  0  0
 16  1  1  0  0  0  0
 17  2  1  0  0  0  0
 18  3  1  0  0  0  0
 19  4  1  0  0  0  0
 20  5  1  0  0  0  0
 21  6  1  0  0  0  0
M  END
>  <HBA>
2

>  <HBD>
1

>  <TPSA>
38.91

>  <cid>
7019

>  <dipole>
3.87

>  <excitation_energy_1>
3.474

>  <excitation_energy_2>
4.221

>  <excitation_energy_3>
4.355

>  <excitation_energy_4>
4.474

>  <homo_energy>
-5.282

>  <homo_lumo_gap>
4.025

>  <logP>
3.551

>  <lumo_energy>
-1.257

>  <melting_point>
158.65

>  <molecular_refractivity>
63.65

>  <oscillator_strength_1>
0.094

>  <oscillator_strength_2>
0.1165

>  <oscillator_strength_3>
0.0018

>  <oscillator_strength_4>
0.0269

>  <open_babel_can_smiles>
N=c1c2ccccc2[nH]c2c1cccc2

>  <mulliken_charges>
25
1   -0.136489
2   -0.133998
3   -0.131561
4   -0.131773
5   -0.213968
6   -0.188114
7   -0.183869
8   -0.185304
9   0.111141
10   0.094954
11   0.347965
12   0.335992
13   0.2315
14   -0.660265
15   -0.840996
16   0.132254
17   0.130005
18   0.135724
19   0.131836
20   0.13439
21   0.170928
22   0.125826
23   0.121575
24   0.279781
25   0.322467

>  <lowdin_charges>
25
1   -0.175622
2   -0.17482
3   -0.138291
4   -0.140295
5   -0.135995
6   -0.121258
7   -0.189849
8   -0.19336
9   -0.059642
10   -0.045448
11   0.064116
12   0.057711
13   0.053929
14   -0.402968
15   -0.211558
16   0.160556
17   0.159172
18   0.162252
19   0.160151
20   0.155988
21   0.179602
22   0.153745
23   0.151791
24   0.2441
25   0.285993

$$$$

