PCCDB-ID:  52324
public computational chemistry database (PCCDB) project, http://pccdb.org

 35 37  0  0  1  0  0  0  0  0999 V2000
    2.8194   -0.9087    0.3129 C   0  0  0  0  0  0  0  0  0  0  0  0
    2.2254    1.3175    1.3760 C   0  0  0  0  0  0  0  0  0  0  0  0
    2.9156   -0.0723   -4.6199 C   0  0  0  0  0  0  0  0  0  0  0  0
    4.4023    0.7923   -2.7080 C   0  0  0  0  0  0  0  0  0  0  0  0
    1.6803    1.4285   -2.1670 C   0  0  0  0  0  0  0  0  0  0  0  0
    2.0737    0.4280    0.1266 C   0  0  0  0  0  0  0  0  0  0  0  0
    3.4671    1.1635   -3.9015 C   0  0  2  0  0  0  0  0  0  0  0  0
    2.4998    1.1327   -1.1449 C   0  0  0  0  0  0  0  0  0  0  0  0
    2.3317    2.0903   -3.3596 C   0  0  2  0  0  0  0  0  0  0  0  0
    3.9448    1.5292   -1.4178 C   0  0  2  0  0  0  0  0  0  0  0  0
    3.0302    3.3919   -2.8710 C   0  0  2  0  0  0  0  0  0  0  0  0
    4.0173    3.0549   -1.7401 C   0  0  1  0  0  0  0  0  0  0  0  0
    2.0561    4.3756   -2.2417 C   0  0  0  0  0  0  0  0  0  0  0  0
    3.5817    3.9349   -0.5809 C   0  0  0  0  0  0  0  0  0  0  0  0
    1.0829    4.8804   -2.7224 O   0  0  0  0  0  0  0  0  0  0  0  0
    4.0810    4.0468    0.5029 O   0  0  0  0  0  0  0  0  0  0  0  0
    2.4481    4.6550   -0.9349 O   0  0  0  0  0  0  0  0  0  0  0  0
    2.4513   -1.4284    1.2049 H   0  0  0  0  0  0  0  0  0  0  0  0
    3.8969   -0.7536    0.4468 H   0  0  0  0  0  0  0  0  0  0  0  0
    2.6759   -1.5709   -0.5483 H   0  0  0  0  0  0  0  0  0  0  0  0
    1.8757    0.7806    2.2656 H   0  0  0  0  0  0  0  0  0  0  0  0
    1.6390    2.2373    1.2823 H   0  0  0  0  0  0  0  0  0  0  0  0
    3.2681    1.6060    1.5483 H   0  0  0  0  0  0  0  0  0  0  0  0
    2.2873    0.2095   -5.4732 H   0  0  0  0  0  0  0  0  0  0  0  0
    2.3119   -0.6851   -3.9408 H   0  0  0  0  0  0  0  0  0  0  0  0
    3.7323   -0.6986   -4.9979 H   0  0  0  0  0  0  0  0  0  0  0  0
    5.4444    1.0504   -2.9343 H   0  0  0  0  0  0  0  0  0  0  0  0
    4.3753   -0.2873   -2.5248 H   0  0  0  0  0  0  0  0  0  0  0  0
    0.6170    1.2021   -2.1594 H   0  0  0  0  0  0  0  0  0  0  0  0
    1.0054    0.1972    0.0118 H   0  0  0  0  0  0  0  0  0  0  0  0
    4.0408    1.7487   -4.6338 H   0  0  0  0  0  0  0  0  0  0  0  0
    1.6116    2.3329   -4.1459 H   0  0  0  0  0  0  0  0  0  0  0  0
    4.6098    1.3044   -0.5796 H   0  0  0  0  0  0  0  0  0  0  0  0
    3.5132    3.8922   -3.7186 H   0  0  0  0  0  0  0  0  0  0  0  0
    5.0536    3.3141   -1.9835 H   0  0  0  0  0  0  0  0  0  0  0  0
  1 19  1  0  0  0  0
  1 18  1  0  0  0  0
  2 23  1  0  0  0  0
  2 21  1  0  0  0  0
  3 25  1  0  0  0  0
  3  7  1  0  0  0  0
  4 28  1  0  0  0  0
  4 10  1  0  0  0  0
  5 29  1  0  0  0  0
  5  8  2  0  0  0  0
  6  1  1  0  0  0  0
  6  2  1  0  0  0  0
  7 31  1  6  0  0  0
  7  9  1  0  0  0  0
  7  4  1  0  0  0  0
  8  6  1  0  0  0  0
  9 32  1  6  0  0  0
  9 11  1  0  0  0  0
  9  5  1  0  0  0  0
 10  8  1  0  0  0  0
 10 33  1  1  0  0  0
 11 34  1  6  0  0  0
 11 13  1  0  0  0  0
 11 12  1  0  0  0  0
 12 35  1  6  0  0  0
 12 10  1  0  0  0  0
 12 14  1  0  0  0  0
 13 17  1  0  0  0  0
 14 16  2  0  0  0  0
 15 13  2  0  0  0  0
 17 14  1  0  0  0  0
 20  1  1  0  0  0  0
 22  2  1  0  0  0  0
 24  3  1  0  0  0  0
 26  3  1  0  0  0  0
 27  4  1  0  0  0  0
 30  6  1  0  0  0  0
M  END
>  <HBA>
3

>  <HBD>
0

>  <TPSA>
43.37

>  <cid>
52324

>  <dipole>
4.89

>  <excitation_energy_1>
5.143

>  <excitation_energy_2>
5.198

>  <excitation_energy_3>
5.5

>  <excitation_energy_4>
5.545

>  <homo_energy>
-6.841

>  <homo_lumo_gap>
6.161

>  <logP>
2.17

>  <lumo_energy>
-0.68

>  <melting_point>
82.9

>  <molecular_refractivity>
64.08

>  <oscillator_strength_1>
0.0002

>  <oscillator_strength_2>
0.0025

>  <oscillator_strength_3>
0.0003

>  <oscillator_strength_4>
0.0005

>  <open_babel_can_smiles>
C[C@@H]1C[C@@H]2C(=C[C@H]1[C@@H]1[C@H]2C(=O)OC1=O)C(C)C

>  <mulliken_charges>
35
1   -0.449661
2   -0.456974
3   -0.45851
4   -0.285425
5   -0.216611
6   -0.149858
7   -0.06613
8   0.186792
9   -0.115139
10   -0.165638
11   -0.23359
12   -0.22481
13   0.632434
14   0.641951
15   -0.435449
16   -0.445761
17   -0.446746
18   0.149863
19   0.145122
20   0.146093
21   0.143475
22   0.159608
23   0.161666
24   0.145093
25   0.153234
26   0.147446
27   0.137921
28   0.153289
29   0.13705
30   0.133636
31   0.124993
32   0.146962
33   0.14885
34   0.177871
35   0.176954

>  <lowdin_charges>
35
1   -0.444339
2   -0.447795
3   -0.447837
4   -0.274766
5   -0.198619
6   -0.115452
7   -0.125674
8   -0.014451
9   -0.123027
10   -0.122859
11   -0.165704
12   -0.162941
13   0.210274
14   0.207297
15   -0.201816
16   -0.204982
17   -0.146598
18   0.154353
19   0.145828
20   0.15028
21   0.151484
22   0.157474
23   0.154554
24   0.150818
25   0.153991
26   0.153124
27   0.145322
28   0.152092
29   0.158702
30   0.143907
31   0.140445
32   0.160604
33   0.159315
34   0.174106
35   0.172889

$$$$

