PCCDB-ID:  19603
public computational chemistry database (PCCDB) project, http://pccdb.org

 30 30  0  0  0  0  0  0  0  0999 V2000
    6.3218   -0.1722    1.2626 C   0  0  0  0  0  0  0  0  0  0  0  0
    7.2630   -0.1732    0.0523 C   0  0  0  0  0  0  0  0  0  0  0  0
    6.6910    0.5179   -1.1983 C   0  0  0  0  0  0  0  0  0  0  0  0
    5.4047   -0.1010   -1.7775 C   0  0  0  0  0  0  0  0  0  0  0  0
    5.5046   -1.5762   -2.2029 C   0  0  0  0  0  0  0  0  0  0  0  0
    6.5099   -1.8442   -3.3301 C   0  0  0  0  0  0  0  0  0  0  0  0
    7.4827   -5.8263   -1.1695 C   0  0  0  0  0  0  0  0  0  0  0  0
    6.5574   -3.3210   -3.7788 C   0  0  0  0  0  0  0  0  0  0  0  0
    6.4893   -5.3289   -2.0790 C   0  0  0  0  0  0  0  0  0  0  0  0
    8.5699   -5.0262   -1.3279 C   0  0  0  0  0  0  0  0  0  0  0  0
    7.0438   -4.2641   -2.7277 C   0  0  0  0  0  0  0  0  0  0  0  0
    8.3235   -4.0690   -2.2715 O   0  0  0  0  0  0  0  0  0  0  0  0
    6.8096   -0.6103    2.1410 H   0  0  0  0  0  0  0  0  0  0  0  0
    5.4101   -0.7501    1.0725 H   0  0  0  0  0  0  0  0  0  0  0  0
    6.0174    0.8488    1.5261 H   0  0  0  0  0  0  0  0  0  0  0  0
    7.5468   -1.2064   -0.1894 H   0  0  0  0  0  0  0  0  0  0  0  0
    8.1969    0.3358    0.3268 H   0  0  0  0  0  0  0  0  0  0  0  0
    7.4679    0.5363   -1.9744 H   0  0  0  0  0  0  0  0  0  0  0  0
    6.4860    1.5710   -0.9571 H   0  0  0  0  0  0  0  0  0  0  0  0
    5.0937    0.4997   -2.6445 H   0  0  0  0  0  0  0  0  0  0  0  0
    4.5932   -0.0046   -1.0438 H   0  0  0  0  0  0  0  0  0  0  0  0
    4.5095   -1.9112   -2.5306 H   0  0  0  0  0  0  0  0  0  0  0  0
    5.7576   -2.2000   -1.3359 H   0  0  0  0  0  0  0  0  0  0  0  0
    7.5181   -1.5446   -3.0200 H   0  0  0  0  0  0  0  0  0  0  0  0
    6.2556   -1.2253   -4.2020 H   0  0  0  0  0  0  0  0  0  0  0  0
    7.3923   -6.6647   -0.4927 H   0  0  0  0  0  0  0  0  0  0  0  0
    7.2014   -3.4016   -4.6659 H   0  0  0  0  0  0  0  0  0  0  0  0
    5.5574   -3.6502   -4.0871 H   0  0  0  0  0  0  0  0  0  0  0  0
    5.4919   -5.7174   -2.2333 H   0  0  0  0  0  0  0  0  0  0  0  0
    9.5500   -4.9966   -0.8767 H   0  0  0  0  0  0  0  0  0  0  0  0
  1 15  1  0  0  0  0
  1 13  1  0  0  0  0
  2 17  1  0  0  0  0
  2  1  1  0  0  0  0
  3 19  1  0  0  0  0
  3  2  1  0  0  0  0
  4  3  1  0  0  0  0
  4 21  1  0  0  0  0
  5  4  1  0  0  0  0
  5 23  1  0  0  0  0
  6 24  1  0  0  0  0
  6  5  1  0  0  0  0
  7 26  1  0  0  0  0
  8  6  1  0  0  0  0
  8 11  1  0  0  0  0
  9  7  1  0  0  0  0
 10  7  2  0  0  0  0
 10 30  1  0  0  0  0
 11 12  1  0  0  0  0
 11  9  2  0  0  0  0
 12 10  1  0  0  0  0
 14  1  1  0  0  0  0
 16  2  1  0  0  0  0
 18  3  1  0  0  0  0
 20  4  1  0  0  0  0
 22  5  1  0  0  0  0
 25  6  1  0  0  0  0
 27  8  1  0  0  0  0
 28  8  1  0  0  0  0
 29  9  1  0  0  0  0
M  END
>  <HBA>
1

>  <HBD>
0

>  <TPSA>
13.14

>  <cid>
19603

>  <dipole>
0.42

>  <excitation_energy_1>
5.351

>  <excitation_energy_2>
5.688

>  <excitation_energy_3>
5.806

>  <excitation_energy_4>
5.896

>  <homo_energy>
-5.785

>  <homo_lumo_gap>
6.376

>  <logP>
3.792

>  <lumo_energy>
0.59

>  <melting_point>
2.4

>  <molecular_refractivity>
52.52

>  <oscillator_strength_1>
0.0236

>  <oscillator_strength_2>
0.0823

>  <oscillator_strength_3>
0.0341

>  <oscillator_strength_4>
0.0143

>  <open_babel_can_smiles>
CCCCCCCc1ccco1

>  <mulliken_charges>
30
1   -0.443472
2   -0.254081
3   -0.254039
4   -0.259313
5   -0.260236
6   -0.260959
7   -0.181412
8   -0.347296
9   -0.211977
10   0.078579
11   0.353355
12   -0.442694
13   0.141182
14   0.146295
15   0.138891
16   0.142392
17   0.129086
18   0.130959
19   0.125169
20   0.125074
21   0.131476
22   0.122685
23   0.148104
24   0.153269
25   0.129201
26   0.137065
27   0.153526
28   0.147308
29   0.1324
30   0.149462

>  <lowdin_charges>
30
1   -0.447427
2   -0.276264
3   -0.278877
4   -0.279936
5   -0.281603
6   -0.275904
7   -0.206252
8   -0.275801
9   -0.224594
10   -0.087605
11   0.068249
12   -0.109148
13   0.150038
14   0.147204
15   0.144208
16   0.142133
17   0.141663
18   0.140992
19   0.138076
20   0.139946
21   0.142099
22   0.138395
23   0.147002
24   0.148212
25   0.141688
26   0.167367
27   0.158202
28   0.155458
29   0.164709
30   0.167773

$$$$

