PCCDB-ID:  71994
public computational chemistry database (PCCDB) project, http://pccdb.org

 28 28  0  0  0  0  0  0  0  0999 V2000
    0.7504    1.3400   -0.3201 C   0  0  0  0  0  0  0  0  0  0  0  0
    1.5092    0.0903    0.1490 C   0  0  0  0  0  0  0  0  0  0  0  0
   -0.6858    1.3509    0.2238 C   0  0  0  0  0  0  0  0  0  0  0  0
    0.7488   -1.2028   -0.1936 C   0  0  0  0  0  0  0  0  0  0  0  0
   -1.4319    0.0657   -0.1697 C   0  0  0  0  0  0  0  0  0  0  0  0
   -1.4365   -2.4687   -0.3189 C   0  0  0  0  0  0  0  0  0  0  0  0
   -0.7611   -1.3889    1.8315 C   0  0  0  0  0  0  0  0  0  0  0  0
   -0.7239   -1.2332    0.2895 C   0  0  0  0  0  0  0  0  0  0  0  0
   -1.5477   -2.4061   -1.7878 N   0  0  0  0  0  0  0  0  0  0  0  0
   -2.1249   -1.3163    2.3833 N   0  0  0  0  0  0  0  0  0  0  0  0
    0.7141    1.3497   -1.4195 H   0  0  0  0  0  0  0  0  0  0  0  0
    1.2846    2.2495   -0.0157 H   0  0  0  0  0  0  0  0  0  0  0  0
    1.6778    0.1598    1.2330 H   0  0  0  0  0  0  0  0  0  0  0  0
    2.5061    0.0591   -0.3101 H   0  0  0  0  0  0  0  0  0  0  0  0
   -1.2300    2.2254   -0.1565 H   0  0  0  0  0  0  0  0  0  0  0  0
   -0.6587    1.4599    1.3183 H   0  0  0  0  0  0  0  0  0  0  0  0
    1.2853   -2.0693    0.2211 H   0  0  0  0  0  0  0  0  0  0  0  0
    0.7357   -1.3388   -1.2820 H   0  0  0  0  0  0  0  0  0  0  0  0
   -1.5049    0.0406   -1.2649 H   0  0  0  0  0  0  0  0  0  0  0  0
   -2.4623    0.0827    0.2107 H   0  0  0  0  0  0  0  0  0  0  0  0
   -2.4043   -2.5914    0.1883 H   0  0  0  0  0  0  0  0  0  0  0  0
   -0.8337   -3.3543   -0.0768 H   0  0  0  0  0  0  0  0  0  0  0  0
   -0.0760   -0.6612    2.2947 H   0  0  0  0  0  0  0  0  0  0  0  0
   -0.3627   -2.3819    2.0786 H   0  0  0  0  0  0  0  0  0  0  0  0
   -2.3833   -1.8857   -2.0480 H   0  0  0  0  0  0  0  0  0  0  0  0
   -1.6865   -3.3456   -2.1543 H   0  0  0  0  0  0  0  0  0  0  0  0
   -2.4242   -0.3438    2.4324 H   0  0  0  0  0  0  0  0  0  0  0  0
   -2.1166   -1.6503    3.3455 H   0  0  0  0  0  0  0  0  0  0  0  0
  1 12  1  0  0  0  0
  1  2  1  0  0  0  0
  1  3  1  0  0  0  0
  2 13  1  0  0  0  0
  3 16  1  0  0  0  0
  4  2  1  0  0  0  0
  4 17  1  0  0  0  0
  4  8  1  0  0  0  0
  5 20  1  0  0  0  0
  5  3  1  0  0  0  0
  5  8  1  0  0  0  0
  6 22  1  0  0  0  0
  6 21  1  0  0  0  0
  6  8  1  0  0  0  0
  7 24  1  0  0  0  0
  7 23  1  0  0  0  0
  7 10  1  0  0  0  0
  8  7  1  0  0  0  0
  9  6  1  0  0  0  0
 10 27  1  0  0  0  0
 10 28  1  0  0  0  0
 11  1  1  0  0  0  0
 14  2  1  0  0  0  0
 15  3  1  0  0  0  0
 18  4  1  0  0  0  0
 19  5  1  0  0  0  0
 25  9  1  0  0  0  0
 26  9  1  0  0  0  0
M  END
>  <HBA>
2

>  <HBD>
2

>  <TPSA>
52.04

>  <cid>
71994

>  <dipole>
1.25

>  <excitation_energy_1>
5.354

>  <excitation_energy_2>
5.454

>  <excitation_energy_3>
5.956

>  <excitation_energy_4>
5.981

>  <homo_energy>
-5.88

>  <homo_lumo_gap>
7.853

>  <logP>
2.255

>  <lumo_energy>
1.973

>  <melting_point>
121.87

>  <molecular_refractivity>
43.61

>  <oscillator_strength_1>
0.0146

>  <oscillator_strength_2>
0.0103

>  <oscillator_strength_3>
0.0047

>  <oscillator_strength_4>
0.0051

>  <open_babel_can_smiles>
NCC1(CN)CCCCC1

>  <mulliken_charges>
28
1   -0.252132
2   -0.264248
3   -0.263472
4   -0.274982
5   -0.299393
6   -0.165621
7   -0.165028
8   0.127827
9   -0.724632
10   -0.723457
11   0.130377
12   0.124411
13   0.124508
14   0.127391
15   0.127249
16   0.120344
17   0.112857
18   0.160003
19   0.140901
20   0.12796
21   0.1502
22   0.120805
23   0.121605
24   0.130019
25   0.29614
26   0.296376
27   0.297757
28   0.296236

>  <lowdin_charges>
28
1   -0.275261
2   -0.277493
3   -0.277724
4   -0.28221
5   -0.284695
6   -0.213501
7   -0.213844
8   -0.005452
9   -0.560979
10   -0.556636
11   0.136418
12   0.140656
13   0.131219
14   0.141763
15   0.14257
16   0.12962
17   0.136076
18   0.154331
19   0.144828
20   0.139338
21   0.139125
22   0.136477
23   0.124339
24   0.139893
25   0.251931
26   0.255031
27   0.250255
28   0.253923

$$$$

