PCCDB-ID:  23531
public computational chemistry database (PCCDB) project, http://pccdb.org

 32 31  0  0  1  0  0  0  0  0999 V2000
    2.0500    1.0569    5.6763 C   0  0  0  0  0  0  0  0  0  0  0  0
    5.7837    0.7245   -1.4163 C   0  0  0  0  0  0  0  0  0  0  0  0
    7.5784    1.7137    0.0610 C   0  0  0  0  0  0  0  0  0  0  0  0
    5.8869   -1.7661    0.5861 C   0  0  0  0  0  0  0  0  0  0  0  0
    3.2295    0.2971    5.0609 C   0  0  0  0  0  0  0  0  0  0  0  0
    3.5565    0.7418    3.6294 C   0  0  0  0  0  0  0  0  0  0  0  0
    4.7318   -0.0209    3.0037 C   0  0  0  0  0  0  0  0  0  0  0  0
    5.0556    0.4335    1.5720 C   0  0  0  0  0  0  0  0  0  0  0  0
    6.8252    0.4297   -0.3238 C   0  0  0  0  0  0  0  0  0  0  0  0
    6.2436   -0.3067    0.9189 C   0  0  2  0  0  0  0  0  0  0  0  0
    1.8418    0.7158    6.6970 H   0  0  0  0  0  0  0  0  0  0  0  0
    1.1366    0.9162    5.0851 H   0  0  0  0  0  0  0  0  0  0  0  0
    2.2516    2.1345    5.7200 H   0  0  0  0  0  0  0  0  0  0  0  0
    6.2681    1.1502   -2.3031 H   0  0  0  0  0  0  0  0  0  0  0  0
    5.0353    1.4490   -1.0735 H   0  0  0  0  0  0  0  0  0  0  0  0
    5.2525   -0.1791   -1.7353 H   0  0  0  0  0  0  0  0  0  0  0  0
    8.0653    2.1561   -0.8164 H   0  0  0  0  0  0  0  0  0  0  0  0
    8.3563    1.5108    0.8072 H   0  0  0  0  0  0  0  0  0  0  0  0
    6.9069    2.4741    0.4774 H   0  0  0  0  0  0  0  0  0  0  0  0
    5.5828   -2.3219    1.4795 H   0  0  0  0  0  0  0  0  0  0  0  0
    6.7452   -2.2912    0.1497 H   0  0  0  0  0  0  0  0  0  0  0  0
    5.0601   -1.8247   -0.1323 H   0  0  0  0  0  0  0  0  0  0  0  0
    3.0122   -0.7805    5.0641 H   0  0  0  0  0  0  0  0  0  0  0  0
    4.1198    0.4288    5.6924 H   0  0  0  0  0  0  0  0  0  0  0  0
    3.7786    1.8196    3.6272 H   0  0  0  0  0  0  0  0  0  0  0  0
    2.6641    0.6158    2.9981 H   0  0  0  0  0  0  0  0  0  0  0  0
    4.5059   -1.0959    3.0175 H   0  0  0  0  0  0  0  0  0  0  0  0
    5.6245    0.1106    3.6335 H   0  0  0  0  0  0  0  0  0  0  0  0
    5.2629    1.5119    1.5977 H   0  0  0  0  0  0  0  0  0  0  0  0
    4.1600    0.3120    0.9456 H   0  0  0  0  0  0  0  0  0  0  0  0
    7.5690   -0.2554   -0.7589 H   0  0  0  0  0  0  0  0  0  0  0  0
    7.0571   -0.3355    1.6614 H   0  0  0  0  0  0  0  0  0  0  0  0
  1 13  1  0  0  0  0
  1 11  1  0  0  0  0
  2 15  1  0  0  0  0
  2  9  1  0  0  0  0
  3 19  1  0  0  0  0
  3 18  1  0  0  0  0
  4 10  1  0  0  0  0
  4 20  1  0  0  0  0
  5 23  1  0  0  0  0
  5  1  1  0  0  0  0
  5 24  1  0  0  0  0
  6  5  1  0  0  0  0
  7 27  1  0  0  0  0
  7  6  1  0  0  0  0
  7 28  1  0  0  0  0
  8 29  1  0  0  0  0
  8  7  1  0  0  0  0
  9  3  1  0  0  0  0
  9 10  1  0  0  0  0
 10  8  1  0  0  0  0
 10 32  1  1  0  0  0
 12  1  1  0  0  0  0
 14  2  1  0  0  0  0
 16  2  1  0  0  0  0
 17  3  1  0  0  0  0
 21  4  1  0  0  0  0
 22  4  1  0  0  0  0
 25  6  1  0  0  0  0
 26  6  1  0  0  0  0
 30  8  1  0  0  0  0
 31  9  1  0  0  0  0
M  END
>  <HBA>
0

>  <HBD>
0

>  <TPSA>
0.0

>  <cid>
23531

>  <dipole>
0.08

>  <excitation_energy_1>
7.406

>  <excitation_energy_2>
7.689

>  <excitation_energy_3>
7.728

>  <excitation_energy_4>
7.825

>  <homo_energy>
-7.848

>  <homo_lumo_gap>
10.087

>  <logP>
3.859

>  <lumo_energy>
2.24

>  <melting_point>
-29.22

>  <molecular_refractivity>
50.18

>  <oscillator_strength_1>
0.0072

>  <oscillator_strength_2>
0.0077

>  <oscillator_strength_3>
0.0064

>  <oscillator_strength_4>
0.0081

>  <open_babel_can_smiles>
CCCCC[C@H](C(C)C)C

>  <mulliken_charges>
32
1   -0.441072
2   -0.451341
3   -0.449526
4   -0.458317
5   -0.246563
6   -0.245993
7   -0.259766
8   -0.262875
9   -0.066019
10   -0.061785
11   0.140874
12   0.140784
13   0.14081
14   0.138667
15   0.143496
16   0.142236
17   0.13887
18   0.138195
19   0.142031
20   0.144186
21   0.13838
22   0.140897
23   0.129388
24   0.129514
25   0.125581
26   0.125949
27   0.130782
28   0.126173
29   0.128799
30   0.127877
31   0.116573
32   0.113196

>  <lowdin_charges>
32
1   -0.441877
2   -0.450718
3   -0.449445
4   -0.450463
5   -0.270765
6   -0.272824
7   -0.273778
8   -0.277076
9   -0.123175
10   -0.12545
11   0.147913
12   0.146066
13   0.144166
14   0.148838
15   0.148003
16   0.148177
17   0.14864
18   0.146841
19   0.146201
20   0.149291
21   0.147697
22   0.145575
23   0.136396
24   0.138786
25   0.134622
26   0.137239
27   0.136456
28   0.137214
29   0.137795
30   0.138629
31   0.136593
32   0.134433

$$$$

