PCCDB-ID:  27061
public computational chemistry database (PCCDB) project, http://pccdb.org

 25 26  0  0  1  0  0  0  0  0999 V2000
    1.0789    0.6472    0.1680 C   0  0  0  0  0  0  0  0  0  0  0  0
   -0.2073    1.4258    0.3245 C   0  0  0  0  0  0  0  0  0  0  0  0
   -3.0688   -4.6355   -1.3326 C   0  0  0  0  0  0  0  0  0  0  0  0
   -3.0122   -4.9152    0.1514 C   0  0  0  0  0  0  0  0  0  0  0  0
    0.8733   -0.6710    0.1559 C   0  0  0  0  0  0  0  0  0  0  0  0
   -1.2990    0.3464    0.1010 C   0  0  0  0  0  0  0  0  0  0  0  0
   -2.6301   -3.4123   -1.6345 C   0  0  0  0  0  0  0  0  0  0  0  0
   -2.1748   -3.7304    0.7011 C   0  0  0  0  0  0  0  0  0  0  0  0
   -0.5866   -1.0199    0.3108 C   0  0  1  0  0  0  0  0  0  0  0  0
   -2.2075   -2.6406   -0.4086 C   0  0  1  0  0  0  0  0  0  0  0  0
   -0.9468   -2.0158   -0.6452 O   0  0  0  0  0  0  0  0  0  0  0  0
    2.0518    1.1283    0.1103 H   0  0  0  0  0  0  0  0  0  0  0  0
   -0.2881    2.2628   -0.3808 H   0  0  0  0  0  0  0  0  0  0  0  0
   -0.2747    1.8654    1.3308 H   0  0  0  0  0  0  0  0  0  0  0  0
   -3.4593   -5.3533   -2.0492 H   0  0  0  0  0  0  0  0  0  0  0  0
   -2.5676   -5.8917    0.3832 H   0  0  0  0  0  0  0  0  0  0  0  0
   -4.0239   -4.9295    0.5834 H   0  0  0  0  0  0  0  0  0  0  0  0
    1.6350   -1.4409    0.0804 H   0  0  0  0  0  0  0  0  0  0  0  0
   -1.6395    0.3719   -0.9400 H   0  0  0  0  0  0  0  0  0  0  0  0
   -2.1714    0.4871    0.7464 H   0  0  0  0  0  0  0  0  0  0  0  0
   -2.5941   -2.9674   -2.6242 H   0  0  0  0  0  0  0  0  0  0  0  0
   -1.1293   -4.0356    0.8190 H   0  0  0  0  0  0  0  0  0  0  0  0
   -2.5348   -3.3741    1.6711 H   0  0  0  0  0  0  0  0  0  0  0  0
   -0.7756   -1.4150    1.3241 H   0  0  0  0  0  0  0  0  0  0  0  0
   -2.9528   -1.8601   -0.1771 H   0  0  0  0  0  0  0  0  0  0  0  0
  1  2  1  0  0  0  0
  2 14  1  0  0  0  0
  3  4  1  0  0  0  0
  4 16  1  0  0  0  0
  4 17  1  0  0  0  0
  4  8  1  0  0  0  0
  5  1  2  0  0  0  0
  5  9  1  0  0  0  0
  6  9  1  0  0  0  0
  6  2  1  0  0  0  0
  6 20  1  0  0  0  0
  7  3  2  0  0  0  0
  7 10  1  0  0  0  0
  8 22  1  0  0  0  0
  8 23  1  0  0  0  0
  9 24  1  1  0  0  0
 10 25  1  1  0  0  0
 10  8  1  0  0  0  0
 11 10  1  0  0  0  0
 11  9  1  0  0  0  0
 12  1  1  0  0  0  0
 13  2  1  0  0  0  0
 15  3  1  0  0  0  0
 18  5  1  0  0  0  0
 19  6  1  0  0  0  0
 21  7  1  0  0  0  0
M  END
>  <HBA>
1

>  <HBD>
0

>  <TPSA>
9.23

>  <cid>
27061

>  <dipole>
1.29

>  <excitation_energy_1>
5.844

>  <excitation_energy_2>
5.97

>  <excitation_energy_3>
6.179

>  <excitation_energy_4>
6.199

>  <homo_energy>
-6.275

>  <homo_lumo_gap>
6.787

>  <logP>
2.44

>  <lumo_energy>
0.512

>  <melting_point>
26.57

>  <molecular_refractivity>
46.09

>  <oscillator_strength_1>
0.0606

>  <oscillator_strength_2>
0.0058

>  <oscillator_strength_3>
0.0

>  <oscillator_strength_4>
0.0003

>  <open_babel_can_smiles>
C1=C[C@@H](CC1)O[C@@H]1CCC=C1

>  <mulliken_charges>
25
1   -0.111625
2   -0.309365
3   -0.111347
4   -0.309399
5   -0.110624
6   -0.306444
7   -0.110495
8   -0.307048
9   0.128798
10   0.128502
11   -0.51033
12   0.128051
13   0.144463
14   0.146489
15   0.128032
16   0.144619
17   0.146512
18   0.133679
19   0.156594
20   0.134163
21   0.133599
22   0.156783
23   0.134437
24   0.120927
25   0.121027

>  <lowdin_charges>
25
1   -0.16125
2   -0.275373
3   -0.162565
4   -0.274804
5   -0.175551
6   -0.294774
7   -0.174032
8   -0.294123
9   0.001896
10   0.000621
11   -0.271616
12   0.154763
13   0.148841
14   0.147715
15   0.156144
16   0.14803
17   0.147585
18   0.161109
19   0.154974
20   0.144973
21   0.159776
22   0.155022
23   0.144486
24   0.128009
25   0.130141

$$$$

