PCCDB-ID:  70778
public computational chemistry database (PCCDB) project, http://pccdb.org

 27 27  0  0  1  0  0  0  0  0999 V2000
    3.6462    0.4084    0.9627 C   0  0  0  0  0  0  0  0  0  0  0  0
    1.1960    0.5138    0.4433 C   0  0  0  0  0  0  0  0  0  0  0  0
    1.6866   -0.2518   -2.4046 C   0  0  0  0  0  0  0  0  0  0  0  0
    3.1017    1.7431   -1.8323 C   0  0  0  0  0  0  0  0  0  0  0  0
    4.1386   -0.5244   -1.9887 C   0  0  0  0  0  0  0  0  0  0  0  0
    2.5546   -0.0427   -0.0248 C   0  0  0  0  0  0  0  0  0  0  0  0
    4.5415    2.2023   -1.7111 C   0  0  0  0  0  0  0  0  0  0  0  0
    5.4629    0.0896   -1.5415 C   0  0  0  0  0  0  0  0  0  0  0  0
    2.8672    0.2394   -1.5398 C   0  0  2  0  0  0  0  0  0  0  0  0
    5.5952    1.4905   -1.5850 N   0  0  0  0  0  0  0  0  0  0  0  0
    4.7288    3.5396   -1.7902 O   0  0  0  0  0  0  0  0  0  0  0  0
    6.4015   -0.6053   -1.2046 O   0  0  0  0  0  0  0  0  0  0  0  0
    3.3543    0.1294    1.9815 H   0  0  0  0  0  0  0  0  0  0  0  0
    3.7832    1.4967    0.9557 H   0  0  0  0  0  0  0  0  0  0  0  0
    4.6164   -0.0540    0.7672 H   0  0  0  0  0  0  0  0  0  0  0  0
    1.0268    0.2368    1.4896 H   0  0  0  0  0  0  0  0  0  0  0  0
    0.3538    0.1248   -0.1358 H   0  0  0  0  0  0  0  0  0  0  0  0
    1.1596    1.6100    0.3964 H   0  0  0  0  0  0  0  0  0  0  0  0
    1.9421   -0.2020   -3.4695 H   0  0  0  0  0  0  0  0  0  0  0  0
    0.7856    0.3516   -2.2548 H   0  0  0  0  0  0  0  0  0  0  0  0
    1.4367   -1.2934   -2.1705 H   0  0  0  0  0  0  0  0  0  0  0  0
    2.7948    1.9680   -2.8653 H   0  0  0  0  0  0  0  0  0  0  0  0
    2.4699    2.3710   -1.1900 H   0  0  0  0  0  0  0  0  0  0  0  0
    4.1188   -1.5634   -1.6475 H   0  0  0  0  0  0  0  0  0  0  0  0
    4.1648   -0.5514   -3.0882 H   0  0  0  0  0  0  0  0  0  0  0  0
    2.4906   -1.1389    0.0470 H   0  0  0  0  0  0  0  0  0  0  0  0
    3.8693    3.9861   -1.8600 H   0  0  0  0  0  0  0  0  0  0  0  0
  1 13  1  0  0  0  0
  2 16  1  0  0  0  0
  3 20  1  0  0  0  0
  3 21  1  0  0  0  0
  4  7  1  0  0  0  0
  4  9  1  0  0  0  0
  4 23  1  0  0  0  0
  5 24  1  0  0  0  0
  5  8  1  0  0  0  0
  5  9  1  0  0  0  0
  6 26  1  0  0  0  0
  6  2  1  0  0  0  0
  6  1  1  0  0  0  0
  7 10  2  0  0  0  0
  8 12  2  0  0  0  0
  9  3  1  6  0  0  0
  9  6  1  0  0  0  0
 10  8  1  0  0  0  0
 11  7  1  0  0  0  0
 14  1  1  0  0  0  0
 15  1  1  0  0  0  0
 17  2  1  0  0  0  0
 18  2  1  0  0  0  0
 19  3  1  0  0  0  0
 22  4  1  0  0  0  0
 25  5  1  0  0  0  0
 27 11  1  0  0  0  0
M  END
>  <HBA>
3

>  <HBD>
1

>  <TPSA>
46.17

>  <cid>
70778

>  <dipole>
6.88

>  <excitation_energy_1>
4.023

>  <excitation_energy_2>
4.919

>  <excitation_energy_3>
5.553

>  <excitation_energy_4>
6.087

>  <homo_energy>
-6.493

>  <homo_lumo_gap>
5.497

>  <logP>
1.414

>  <lumo_energy>
-0.996

>  <melting_point>
82.67

>  <molecular_refractivity>
50.12

>  <oscillator_strength_1>
0.001

>  <oscillator_strength_2>
0.0002

>  <oscillator_strength_3>
0.0058

>  <oscillator_strength_4>
0.0333

>  <open_babel_can_smiles>
OC1=NC(=O)C[C@@](C1)(C)C(C)C

>  <mulliken_charges>
27
1   -0.47804
2   -0.46028
3   -0.47057
4   -0.405844
5   -0.367026
6   -0.074884
7   0.51983
8   0.540503
9   0.101538
10   -0.45732
11   -0.559981
12   -0.46188
13   0.147415
14   0.141041
15   0.18455
16   0.151802
17   0.150455
18   0.136502
19   0.143363
20   0.149693
21   0.153515
22   0.177345
23   0.162462
24   0.168695
25   0.162218
26   0.131039
27   0.413858

>  <lowdin_charges>
27
1   -0.453069
2   -0.447935
3   -0.441929
4   -0.319654
5   -0.30923
6   -0.120265
7   0.157874
8   0.161913
9   0.008566
10   -0.193821
11   -0.332889
12   -0.239102
13   0.153109
14   0.144775
15   0.168607
16   0.154551
17   0.152517
18   0.139761
19   0.147303
20   0.151525
21   0.153968
22   0.169937
23   0.162852
24   0.167427
25   0.163494
26   0.140711
27   0.359005

$$$$

