PCCDB-ID:  31545
public computational chemistry database (PCCDB) project, http://pccdb.org

 31 32  0  0  1  0  0  0  0  0999 V2000
    0.8923   -0.0901    0.0556 C   0  0  0  0  0  0  0  0  0  0  0  0
    7.2437   -0.5187    1.5320 C   0  0  0  0  0  0  0  0  0  0  0  0
    5.0628    3.0788   -1.5422 C   0  0  0  0  0  0  0  0  0  0  0  0
    3.1317   -1.2887    0.0861 C   0  0  0  0  0  0  0  0  0  0  0  0
    7.4019    1.2147   -0.3349 C   0  0  0  0  0  0  0  0  0  0  0  0
    6.6993    2.4198    0.3017 C   0  0  0  0  0  0  0  0  0  0  0  0
    4.5230   -1.2675    0.0909 C   0  0  0  0  0  0  0  0  0  0  0  0
    3.1246    1.1029   -0.0007 C   0  0  0  0  0  0  0  0  0  0  0  0
    2.4041   -0.0932    0.0480 C   0  0  0  0  0  0  0  0  0  0  0  0
    6.7679   -0.1135    0.1196 C   0  0  2  0  0  0  0  0  0  0  0  0
    5.2200    2.4984   -0.1195 C   0  0  2  0  0  0  0  0  0  0  0  0
    5.2443   -0.0660    0.0532 C   0  0  0  0  0  0  0  0  0  0  0  0
    4.5258    1.1437   -0.0069 C   0  0  0  0  0  0  0  0  0  0  0  0
    0.4924   -1.1081    0.1020 H   0  0  0  0  0  0  0  0  0  0  0  0
    0.4856    0.3863   -0.8454 H   0  0  0  0  0  0  0  0  0  0  0  0
    0.4957    0.4626    0.9166 H   0  0  0  0  0  0  0  0  0  0  0  0
    8.3364   -0.6120    1.5594 H   0  0  0  0  0  0  0  0  0  0  0  0
    6.8135   -1.4803    1.8313 H   0  0  0  0  0  0  0  0  0  0  0  0
    6.9459    0.2198    2.2846 H   0  0  0  0  0  0  0  0  0  0  0  0
    5.5107    4.0783   -1.6027 H   0  0  0  0  0  0  0  0  0  0  0  0
    4.0066    3.1631   -1.8191 H   0  0  0  0  0  0  0  0  0  0  0  0
    5.5466    2.4427   -2.2918 H   0  0  0  0  0  0  0  0  0  0  0  0
    2.6049   -2.2400    0.1152 H   0  0  0  0  0  0  0  0  0  0  0  0
    8.4703    1.2180   -0.0844 H   0  0  0  0  0  0  0  0  0  0  0  0
    7.3405    1.2925   -1.4283 H   0  0  0  0  0  0  0  0  0  0  0  0
    7.2106    3.3507    0.0259 H   0  0  0  0  0  0  0  0  0  0  0  0
    6.7633    2.3444    1.3950 H   0  0  0  0  0  0  0  0  0  0  0  0
    5.0696   -2.2085    0.1251 H   0  0  0  0  0  0  0  0  0  0  0  0
    2.5778    2.0452   -0.0349 H   0  0  0  0  0  0  0  0  0  0  0  0
    7.1068   -0.9033   -0.5663 H   0  0  0  0  0  0  0  0  0  0  0  0
    4.7090    3.1921    0.5633 H   0  0  0  0  0  0  0  0  0  0  0  0
  1 14  1  0  0  0  0
  1 16  1  0  0  0  0
  2 17  1  0  0  0  0
  2 18  1  0  0  0  0
  2 19  1  0  0  0  0
  3 11  1  0  0  0  0
  4  7  1  0  0  0  0
  4 23  1  0  0  0  0
  5 24  1  0  0  0  0
  5 10  1  0  0  0  0
  5  6  1  0  0  0  0
  6 27  1  0  0  0  0
  7 28  1  0  0  0  0
  8  9  1  0  0  0  0
  9  1  1  0  0  0  0
  9  4  2  0  0  0  0
 10 30  1  6  0  0  0
 10  2  1  0  0  0  0
 11 13  1  0  0  0  0
 11  6  1  0  0  0  0
 11 31  1  1  0  0  0
 12  7  2  0  0  0  0
 12 10  1  0  0  0  0
 13  8  2  0  0  0  0
 13 12  1  0  0  0  0
 15  1  1  0  0  0  0
 20  3  1  0  0  0  0
 21  3  1  0  0  0  0
 22  3  1  0  0  0  0
 25  5  1  0  0  0  0
 26  6  1  0  0  0  0
 29  8  1  0  0  0  0
M  END
>  <HBA>
0

>  <HBD>
0

>  <TPSA>
0.0

>  <cid>
31545

>  <dipole>
0.25

>  <excitation_energy_1>
5.048

>  <excitation_energy_2>
5.545

>  <excitation_energy_3>
5.675

>  <excitation_energy_4>
5.856

>  <homo_energy>
-6.038

>  <homo_lumo_gap>
6.15

>  <logP>
3.996

>  <lumo_energy>
0.112

>  <melting_point>
36.75

>  <molecular_refractivity>
58.45

>  <oscillator_strength_1>
0.0156

>  <oscillator_strength_2>
0.0326

>  <oscillator_strength_3>
0.0059

>  <oscillator_strength_4>
0.0398

>  <open_babel_can_smiles>
Cc1ccc2c(c1)[C@H](C)CC[C@H]2C

>  <mulliken_charges>
31
1   -0.530734
2   -0.442171
3   -0.442294
4   -0.185291
5   -0.274939
6   -0.275228
7   -0.186233
8   -0.245394
9   0.185308
10   -0.155002
11   -0.154907
12   0.113227
13   0.120568
14   0.152465
15   0.159546
16   0.159695
17   0.138238
18   0.14631
19   0.148096
20   0.138572
21   0.14623
22   0.148513
23   0.116008
24   0.128788
25   0.137055
26   0.128767
27   0.137166
28   0.117183
29   0.110447
30   0.129933
31   0.130076

>  <lowdin_charges>
31
1   -0.443239
2   -0.442122
3   -0.442446
4   -0.173307
5   -0.274503
6   -0.276634
7   -0.16412
8   -0.175201
9   -0.001943
10   -0.124822
11   -0.12531
12   -0.018928
13   -0.012346
14   0.154592
15   0.159342
16   0.159747
17   0.143788
18   0.150884
19   0.149787
20   0.145359
21   0.149654
22   0.150326
23   0.151884
24   0.141887
25   0.140533
26   0.143751
27   0.140588
28   0.15173
29   0.148761
30   0.145878
31   0.146428

$$$$

