PCCDB-ID:  42644
public computational chemistry database (PCCDB) project, http://pccdb.org

 27 27  0  0  0  0  0  0  0  0999 V2000
    0.3248    0.5612    0.4072 C   0  0  0  0  0  0  0  0  0  0  0  0
    2.1172    2.7337   -0.5033 C   0  0  0  0  0  0  0  0  0  0  0  0
    9.3256    0.4662    0.5620 C   0  0  0  0  0  0  0  0  0  0  0  0
    2.3565   -0.9296    0.5318 C   0  0  0  0  0  0  0  0  0  0  0  0
    3.7221   -1.1802    0.3984 C   0  0  0  0  0  0  0  0  0  0  0  0
    4.0322    1.1124   -0.3243 C   0  0  0  0  0  0  0  0  0  0  0  0
    1.8083    0.3257    0.2499 C   0  0  0  0  0  0  0  0  0  0  0  0
    2.6641    1.3623   -0.1840 C   0  0  0  0  0  0  0  0  0  0  0  0
    4.5445   -0.1467   -0.0261 C   0  0  0  0  0  0  0  0  0  0  0  0
    6.8469    0.2861    0.3537 C   0  0  0  0  0  0  0  0  0  0  0  0
    8.2515   -1.3164   -0.7508 N   0  0  0  0  0  0  0  0  0  0  0  0
    8.1331   -0.2006    0.0437 N   0  0  0  0  0  0  0  0  0  0  0  0
    6.6742    1.2532    1.0574 O   0  0  0  0  0  0  0  0  0  0  0  0
    9.4085   -1.6336   -0.9458 O   0  0  0  0  0  0  0  0  0  0  0  0
    5.8973   -0.4646   -0.2342 O   0  0  0  0  0  0  0  0  0  0  0  0
   -0.1845   -0.3467    0.7440 H   0  0  0  0  0  0  0  0  0  0  0  0
   -0.1401    0.8736   -0.5370 H   0  0  0  0  0  0  0  0  0  0  0  0
    0.1143    1.3524    1.1385 H   0  0  0  0  0  0  0  0  0  0  0  0
    2.9144    3.4155   -0.8131 H   0  0  0  0  0  0  0  0  0  0  0  0
    1.6149    3.1799    0.3645 H   0  0  0  0  0  0  0  0  0  0  0  0
    1.3756    2.6949   -1.3117 H   0  0  0  0  0  0  0  0  0  0  0  0
    8.9957    1.3000    1.1770 H   0  0  0  0  0  0  0  0  0  0  0  0
    9.9415    0.8176   -0.2703 H   0  0  0  0  0  0  0  0  0  0  0  0
    9.9135   -0.2426    1.1509 H   0  0  0  0  0  0  0  0  0  0  0  0
    1.7018   -1.7323    0.8618 H   0  0  0  0  0  0  0  0  0  0  0  0
    4.1466   -2.1558    0.6108 H   0  0  0  0  0  0  0  0  0  0  0  0
    4.6982    1.9020   -0.6538 H   0  0  0  0  0  0  0  0  0  0  0  0
  1 16  1  0  0  0  0
  1 18  1  0  0  0  0
  2  8  1  0  0  0  0
  2 20  1  0  0  0  0
  3 24  1  0  0  0  0
  3 22  1  0  0  0  0
  4 25  1  0  0  0  0
  5  4  1  0  0  0  0
  5 26  1  0  0  0  0
  6  8  2  0  0  0  0
  6  9  1  0  0  0  0
  7  1  1  0  0  0  0
  7  4  2  0  0  0  0
  8  7  1  0  0  0  0
  9  5  2  0  0  0  0
 10 13  2  0  0  0  0
 11 12  1  0  0  0  0
 12 10  1  0  0  0  0
 12  3  1  0  0  0  0
 14 11  1  0  0  0  0
 15  9  1  0  0  0  0
 15 10  1  0  0  0  0
 17  1  1  0  0  0  0
 19  2  1  0  0  0  0
 21  2  1  0  0  0  0
 23  3  1  0  0  0  0
 27  6  1  0  0  0  0
M  RAD  2  11   2  14   2
M  END
>  <HBA>
5

>  <HBD>
0

>  <TPSA>
58.97

>  <cid>
42644

>  <dipole>
2.51

>  <excitation_energy_1>
2.984

>  <excitation_energy_2>
3.772

>  <excitation_energy_3>
4.157

>  <excitation_energy_4>
5.185

>  <homo_energy>
-6.444

>  <homo_lumo_gap>
4.501

>  <logP>
2.415

>  <lumo_energy>
-1.943

>  <melting_point>
70.85

>  <molecular_refractivity>
55.9

>  <oscillator_strength_1>
0.0011

>  <oscillator_strength_2>
0.0187

>  <oscillator_strength_3>
0.0013

>  <oscillator_strength_4>
0.0047

>  <open_babel_can_smiles>
[O][N]N(C(=O)Oc1ccc(c(c1)C)C)C

>  <mulliken_charges>
27
1   -0.533955
2   -0.532639
3   -0.326927
4   -0.199145
5   -0.156474
6   -0.192866
7   0.142653
8   0.116274
9   0.346335
10   0.814808
11   0.198476
12   -0.344125
13   -0.471629
14   -0.321706
15   -0.513831
16   0.157193
17   0.161783
18   0.162663
19   0.16036
20   0.164271
21   0.162609
22   0.208736
23   0.187793
24   0.18893
25   0.130446
26   0.14643
27   0.143535

>  <lowdin_charges>
27
1   -0.442225
2   -0.442168
3   -0.369745
4   -0.159771
5   -0.171867
6   -0.175564
7   -0.008757
8   0.001265
9   0.102279
10   0.220881
11   0.089121
12   -0.046607
13   -0.257433
14   -0.205678
15   -0.136658
16   0.159064
17   0.15988
18   0.160788
19   0.160904
20   0.162235
21   0.160846
22   0.190407
23   0.173127
24   0.174364
25   0.159862
26   0.170895
27   0.170556

$$$$

