PCCDB-ID:  15511
public computational chemistry database (PCCDB) project, http://pccdb.org

 18 17  0  0  0  0  0  0  0  0999 V2000
    2.8803   -0.2765   -1.3471 C   0  0  0  0  0  0  0  0  0  0  0  0
    2.5926   -0.5156    2.5700 C   0  0  0  0  0  0  0  0  0  0  0  0
    2.6053   -2.4141    0.9155 C   0  0  0  0  0  0  0  0  0  0  0  0
    2.5224    0.0109    0.1158 C   0  0  0  0  0  0  0  0  0  0  0  0
    3.0636   -0.9727    1.1809 C   0  0  0  0  0  0  0  0  0  0  0  0
    4.9364   -0.8744    1.1029 S   0  0  0  0  0  0  0  0  0  0  0  0
    2.4525    0.4968   -1.9949 H   0  0  0  0  0  0  0  0  0  0  0  0
    2.4863   -1.2413   -1.6836 H   0  0  0  0  0  0  0  0  0  0  0  0
    3.9633   -0.2835   -1.5084 H   0  0  0  0  0  0  0  0  0  0  0  0
    1.4957   -0.5423    2.6217 H   0  0  0  0  0  0  0  0  0  0  0  0
    2.9231    0.5052    2.7848 H   0  0  0  0  0  0  0  0  0  0  0  0
    2.9781   -1.1718    3.3585 H   0  0  0  0  0  0  0  0  0  0  0  0
    1.5077   -2.4646    0.9074 H   0  0  0  0  0  0  0  0  0  0  0  0
    2.9622   -3.0891    1.7015 H   0  0  0  0  0  0  0  0  0  0  0  0
    2.9755   -2.7904   -0.0413 H   0  0  0  0  0  0  0  0  0  0  0  0
    1.4279    0.0156    0.2218 H   0  0  0  0  0  0  0  0  0  0  0  0
    2.8587    1.0218    0.3798 H   0  0  0  0  0  0  0  0  0  0  0  0
    5.1686   -1.6950    2.1504 H   0  0  0  0  0  0  0  0  0  0  0  0
  1  4  1  0  0  0  0
  2 10  1  0  0  0  0
  2 11  1  0  0  0  0
  2 12  1  0  0  0  0
  3  5  1  0  0  0  0
  3 14  1  0  0  0  0
  4 16  1  0  0  0  0
  4 17  1  0  0  0  0
  4  5  1  0  0  0  0
  5  2  1  0  0  0  0
  6  5  1  0  0  0  0
  6 18  1  0  0  0  0
  7  1  1  0  0  0  0
  8  1  1  0  0  0  0
  9  1  1  0  0  0  0
 13  3  1  0  0  0  0
 15  3  1  0  0  0  0
M  END
>  <HBA>
1

>  <HBD>
1

>  <TPSA>
38.8

>  <cid>
15511

>  <dipole>
1.78

>  <excitation_energy_1>
5.221

>  <excitation_energy_2>
5.656

>  <excitation_energy_3>
6.237

>  <excitation_energy_4>
6.345

>  <homo_energy>
-6.259

>  <homo_lumo_gap>
6.977

>  <logP>
2.105

>  <lumo_energy>
0.718

>  <melting_point>
5.38

>  <molecular_refractivity>
34.12

>  <oscillator_strength_1>
0.0103

>  <oscillator_strength_2>
0.0287

>  <oscillator_strength_3>
0.0005

>  <oscillator_strength_4>
0.0006

>  <open_babel_can_smiles>
CCC(S)(C)C

>  <mulliken_charges>
18
1   -0.455968
2   -0.430632
3   -0.431843
4   -0.253293
5   -0.062115
6   -0.101733
7   0.145317
8   0.148047
9   0.170373
10   0.143424
11   0.162162
12   0.142236
13   0.14281
14   0.143062
15   0.166639
16   0.138151
17   0.149638
18   0.083722

>  <lowdin_charges>
18
1   -0.448042
2   -0.442087
3   -0.445124
4   -0.272913
5   -0.065231
6   -0.112128
7   0.15405
8   0.149658
9   0.159311
10   0.14701
11   0.158659
12   0.15071
13   0.147046
14   0.151951
15   0.160823
16   0.144021
17   0.150485
18   0.1118

$$$$

