PCCDB-ID:  52692
public computational chemistry database (PCCDB) project, http://pccdb.org

 34 35  0  0  1  0  0  0  0  0999 V2000
    1.0469    0.1965    0.1062 C   0  0  0  0  0  0  0  0  0  0  0  0
    6.9567    1.8244    4.5880 C   0  0  0  0  0  0  0  0  0  0  0  0
    8.6860    3.5600    4.2232 C   0  0  0  0  0  0  0  0  0  0  0  0
    8.3578    1.5381    1.6712 C   0  0  0  0  0  0  0  0  0  0  0  0
    2.2496    0.2831    0.1505 C   0  0  0  0  0  0  0  0  0  0  0  0
    6.8480    5.0088    2.4091 C   0  0  0  0  0  0  0  0  0  0  0  0
    7.6241    4.0221    1.4817 C   0  0  0  0  0  0  0  0  0  0  0  0
    3.7075    0.3672    0.1689 C   0  0  0  0  0  0  0  0  0  0  0  0
    5.1173    3.2732    2.7947 C   0  0  0  0  0  0  0  0  0  0  0  0
    6.2466    4.0724    3.4856 C   0  0  1  0  0  0  0  0  0  0  0  0
    5.9217    2.3350    1.9122 C   0  0  0  0  0  0  0  0  0  0  0  0
    7.3653    2.9948    3.6750 C   0  0  0  0  0  0  0  0  0  0  0  0
    7.3993    2.6211    2.1402 C   0  0  1  0  0  0  0  0  0  0  0  0
    5.5134    1.4385    1.1022 N   0  0  0  0  0  0  0  0  0  0  0  0
    4.0951    1.4025    1.0764 O   0  0  0  0  0  0  0  0  0  0  0  0
   -0.0166    0.1246    0.0759 H   0  0  0  0  0  0  0  0  0  0  0  0
    6.7284    2.1888    5.5973 H   0  0  0  0  0  0  0  0  0  0  0  0
    7.7771    1.1030    4.6808 H   0  0  0  0  0  0  0  0  0  0  0  0
    6.0839    1.2728    4.2272 H   0  0  0  0  0  0  0  0  0  0  0  0
    8.5406    3.9231    5.2484 H   0  0  0  0  0  0  0  0  0  0  0  0
    9.0922    4.3894    3.6390 H   0  0  0  0  0  0  0  0  0  0  0  0
    9.4546    2.7791    4.2637 H   0  0  0  0  0  0  0  0  0  0  0  0
    8.2710    1.3862    0.5903 H   0  0  0  0  0  0  0  0  0  0  0  0
    8.1433    0.5780    2.1521 H   0  0  0  0  0  0  0  0  0  0  0  0
    9.3957    1.8118    1.8931 H   0  0  0  0  0  0  0  0  0  0  0  0
    6.0659    5.5577    1.8744 H   0  0  0  0  0  0  0  0  0  0  0  0
    7.5175    5.7544    2.8485 H   0  0  0  0  0  0  0  0  0  0  0  0
    8.6944    4.2542    1.4506 H   0  0  0  0  0  0  0  0  0  0  0  0
    7.2648    4.0340    0.4479 H   0  0  0  0  0  0  0  0  0  0  0  0
    4.0935    0.5879   -0.8363 H   0  0  0  0  0  0  0  0  0  0  0  0
    4.1464   -0.5891    0.4853 H   0  0  0  0  0  0  0  0  0  0  0  0
    4.4380    3.8988    2.2046 H   0  0  0  0  0  0  0  0  0  0  0  0
    4.4923    2.7037    3.4912 H   0  0  0  0  0  0  0  0  0  0  0  0
    5.9314    4.5827    4.4013 H   0  0  0  0  0  0  0  0  0  0  0  0
  1  5  3  0  0  0  0
  2 18  1  0  0  0  0
  2 17  1  0  0  0  0
  3 22  1  0  0  0  0
  3 20  1  0  0  0  0
  4 25  1  0  0  0  0
  4 24  1  0  0  0  0
  5  8  1  0  0  0  0
  6 27  1  0  0  0  0
  6 10  1  0  0  0  0
  7 13  1  0  0  0  0
  7  6  1  0  0  0  0
  8 31  1  0  0  0  0
  8 15  1  0  0  0  0
  9 10  1  0  0  0  0
  9 33  1  0  0  0  0
 10 12  1  0  0  0  0
 10 34  1  1  0  0  0
 11 13  1  0  0  0  0
 11  9  1  0  0  0  0
 12  3  1  0  0  0  0
 12  2  1  0  0  0  0
 13  4  1  6  0  0  0
 13 12  1  0  0  0  0
 14 11  2  0  0  0  0
 15 14  1  0  0  0  0
 16  1  1  0  0  0  0
 19  2  1  0  0  0  0
 21  3  1  0  0  0  0
 23  4  1  0  0  0  0
 26  6  1  0  0  0  0
 28  7  1  0  0  0  0
 29  7  1  0  0  0  0
 30  8  1  0  0  0  0
 32  9  1  0  0  0  0
M  END
>  <HBA>
2

>  <HBD>
0

>  <TPSA>
21.59

>  <cid>
52692

>  <dipole>
1.41

>  <excitation_energy_1>
5.789

>  <excitation_energy_2>
5.908

>  <excitation_energy_3>
5.977

>  <excitation_energy_4>
6.113

>  <homo_energy>
-6.329

>  <homo_lumo_gap>
6.602

>  <logP>
2.838

>  <lumo_energy>
0.272

>  <melting_point>
79.93

>  <molecular_refractivity>
62.79

>  <oscillator_strength_1>
0.0119

>  <oscillator_strength_2>
0.1884

>  <oscillator_strength_3>
0.0073

>  <oscillator_strength_4>
0.0342

>  <open_babel_can_smiles>
C#CCO/N=C/1\C[C@H]2C([C@]1(C)CC2)(C)C

>  <mulliken_charges>
34
1   -0.517033
2   -0.469337
3   -0.470435
4   -0.478456
5   0.355505
6   -0.280105
7   -0.290678
8   -0.111983
9   -0.319377
10   -0.11725
11   0.343001
12   0.092372
13   0.050221
14   -0.261627
15   -0.407811
16   0.193902
17   0.142397
18   0.145928
19   0.157607
20   0.144162
21   0.14663
22   0.145868
23   0.159705
24   0.151941
25   0.137873
26   0.138224
27   0.140657
28   0.14266
29   0.149131
30   0.166507
31   0.166947
32   0.165514
33   0.171338
34   0.116002

>  <lowdin_charges>
34
1   -0.234166
2   -0.447954
3   -0.446845
4   -0.438143
5   -0.043174
6   -0.288424
7   -0.280016
8   -0.11367
9   -0.294965
10   -0.134681
11   0.022727
12   0.004397
13   0.002964
14   -0.069472
15   -0.206385
16   0.20467
17   0.149833
18   0.152084
19   0.157128
20   0.150984
21   0.152737
22   0.151721
23   0.159451
24   0.155844
25   0.147473
26   0.147667
27   0.147429
28   0.145622
29   0.150441
30   0.158744
31   0.159817
32   0.166018
33   0.168232
34   0.141913

$$$$

