PCCDB-ID:  16720
public computational chemistry database (PCCDB) project, http://pccdb.org

 22 23  0  0  0  0  0  0  0  0999 V2000
    2.4446   -0.6720   -0.0603 C   0  0  0  0  0  0  0  0  0  0  0  0
   -2.4392    0.6594   -0.1041 C   0  0  0  0  0  0  0  0  0  0  0  0
    1.2717   -1.3928   -0.0249 C   0  0  0  0  0  0  0  0  0  0  0  0
   -1.2663    1.3808   -0.1203 C   0  0  0  0  0  0  0  0  0  0  0  0
    2.4266    0.7363   -0.0422 C   0  0  0  0  0  0  0  0  0  0  0  0
   -2.4211   -0.7443    0.0123 C   0  0  0  0  0  0  0  0  0  0  0  0
    0.0207   -0.7203    0.0025 C   0  0  0  0  0  0  0  0  0  0  0  0
   -0.0153    0.7119   -0.0475 C   0  0  0  0  0  0  0  0  0  0  0  0
    1.2281    1.4322   -0.0338 C   0  0  0  0  0  0  0  0  0  0  0  0
   -1.2226   -1.4379    0.0681 C   0  0  0  0  0  0  0  0  0  0  0  0
    1.2116    2.8337   -0.0691 N   0  0  0  0  0  0  0  0  0  0  0  0
   -1.2059   -2.8384    0.1315 N   0  0  0  0  0  0  0  0  0  0  0  0
    3.4002   -1.1886   -0.0935 H   0  0  0  0  0  0  0  0  0  0  0  0
   -3.3949    1.1723   -0.1722 H   0  0  0  0  0  0  0  0  0  0  0  0
    1.3056   -2.4762   -0.0672 H   0  0  0  0  0  0  0  0  0  0  0  0
   -1.3003    2.4587   -0.2380 H   0  0  0  0  0  0  0  0  0  0  0  0
    3.3643    1.2882   -0.0365 H   0  0  0  0  0  0  0  0  0  0  0  0
   -3.3589   -1.2942    0.0575 H   0  0  0  0  0  0  0  0  0  0  0  0
    2.1118    3.2504    0.1390 H   0  0  0  0  0  0  0  0  0  0  0  0
    0.4879    3.2583    0.4992 H   0  0  0  0  0  0  0  0  0  0  0  0
   -2.1058   -3.2396    0.3692 H   0  0  0  0  0  0  0  0  0  0  0  0
   -0.4817   -3.2219    0.7275 H   0  0  0  0  0  0  0  0  0  0  0  0
  1  5  2  0  0  0  0
  1  3  1  0  0  0  0
  2  6  1  0  0  0  0
  3  7  2  0  0  0  0
  4  2  2  0  0  0  0
  4  8  1  0  0  0  0
  5 17  1  0  0  0  0
  5  9  1  0  0  0  0
  6 18  1  0  0  0  0
  6 10  2  0  0  0  0
  7 10  1  0  0  0  0
  8  9  2  0  0  0  0
  8  7  1  0  0  0  0
 10 12  1  0  0  0  0
 11  9  1  0  0  0  0
 11 19  1  0  0  0  0
 11 20  1  0  0  0  0
 12 21  1  0  0  0  0
 12 22  1  0  0  0  0
 13  1  1  0  0  0  0
 14  2  1  0  0  0  0
 15  3  1  0  0  0  0
 16  4  1  0  0  0  0
M  END
>  <HBA>
2

>  <HBD>
2

>  <TPSA>
52.04

>  <cid>
16720

>  <dipole>
2.35

>  <excitation_energy_1>
3.803

>  <excitation_energy_2>
4.052

>  <excitation_energy_3>
4.324

>  <excitation_energy_4>
4.532

>  <homo_energy>
-4.789

>  <homo_lumo_gap>
4.31

>  <logP>
3.167

>  <lumo_energy>
-0.479

>  <melting_point>
147.97

>  <molecular_refractivity>
52.76

>  <oscillator_strength_1>
0.1549

>  <oscillator_strength_2>
0.0689

>  <oscillator_strength_3>
0.0098

>  <oscillator_strength_4>
0.0013

>  <open_babel_can_smiles>
Nc1cccc2c1cccc2N

>  <mulliken_charges>
22
1   -0.139446
2   -0.139488
3   -0.207264
4   -0.207179
5   -0.183605
6   -0.18359
7   0.096419
8   0.096605
9   0.228267
10   0.228399
11   -0.784603
12   -0.784675
13   0.122237
14   0.12223
15   0.120142
16   0.120096
17   0.110335
18   0.110343
19   0.3175
20   0.319889
21   0.317498
22   0.319888

>  <lowdin_charges>
22
1   -0.151223
2   -0.151208
3   -0.191416
4   -0.191478
5   -0.212126
6   -0.212139
7   -0.019461
8   -0.01946
9   0.058537
10   0.058475
11   -0.490797
12   -0.49062
13   0.155522
14   0.155518
15   0.15242
16   0.15249
17   0.150369
18   0.150369
19   0.27267
20   0.275491
21   0.272674
22   0.275392

$$$$

