PCCDB-ID:  690
public computational chemistry database (PCCDB) project, http://pccdb.org

 20 20  0  0  1  0  0  0  0  0999 V2000
    1.1144   -0.0188   -0.1472 C   0  0  0  0  0  0  0  0  0  0  0  0
    5.3535    0.0080   -0.4873 C   0  0  0  0  0  0  0  0  0  0  0  0
    4.6570    1.1789    0.2194 C   0  0  0  0  0  0  0  0  0  0  0  0
    2.6204    0.0453   -0.1052 C   0  0  0  0  0  0  0  0  0  0  0  0
    4.6624   -1.3198   -0.1178 C   0  0  1  0  0  0  0  0  0  0  0  0
    4.9169   -1.7636    1.3389 C   0  0  0  0  0  0  0  0  0  0  0  0
    3.2017    1.1626    0.1241 N   0  0  0  0  0  0  0  0  0  0  0  0
    3.2480   -1.1749   -0.3875 N   0  0  0  0  0  0  0  0  0  0  0  0
    4.0414   -1.9930    2.1333 O   0  0  0  0  0  0  0  0  0  0  0  0
    6.2212   -1.9351    1.6820 O   0  0  0  0  0  0  0  0  0  0  0  0
    0.7108    0.9856   -0.0166 H   0  0  0  0  0  0  0  0  0  0  0  0
    0.7331   -0.6611    0.6574 H   0  0  0  0  0  0  0  0  0  0  0  0
    0.7634   -0.4335   -1.0999 H   0  0  0  0  0  0  0  0  0  0  0  0
    6.4238   -0.0127   -0.2452 H   0  0  0  0  0  0  0  0  0  0  0  0
    5.2759    0.1294   -1.5733 H   0  0  0  0  0  0  0  0  0  0  0  0
    5.0199    2.1256   -0.1991 H   0  0  0  0  0  0  0  0  0  0  0  0
    4.9325    1.1941    1.2850 H   0  0  0  0  0  0  0  0  0  0  0  0
    5.0606   -2.1216   -0.7590 H   0  0  0  0  0  0  0  0  0  0  0  0
    2.6964   -1.9859   -0.1339 H   0  0  0  0  0  0  0  0  0  0  0  0
    6.7993   -1.7155    0.9322 H   0  0  0  0  0  0  0  0  0  0  0  0
  1  4  1  0  0  0  0
  1 11  1  0  0  0  0
  1 12  1  0  0  0  0
  2 14  1  0  0  0  0
  2  5  1  0  0  0  0
  2  3  1  0  0  0  0
  3 17  1  0  0  0  0
  4  7  2  0  0  0  0
  5 18  1  6  0  0  0
  5  6  1  0  0  0  0
  6 10  1  0  0  0  0
  6  9  2  0  0  0  0
  7  3  1  0  0  0  0
  8 19  1  0  0  0  0
  8  5  1  0  0  0  0
  8  4  1  0  0  0  0
 13  1  1  0  0  0  0
 15  2  1  0  0  0  0
 16  3  1  0  0  0  0
 20 10  1  0  0  0  0
M  END
>  <HBA>
4

>  <HBD>
2

>  <TPSA>
61.69

>  <cid>
690

>  <dipole>
3.99

>  <excitation_energy_1>
4.847

>  <excitation_energy_2>
5.25

>  <excitation_energy_3>
5.302

>  <excitation_energy_4>
5.673

>  <homo_energy>
-6.172

>  <homo_lumo_gap>
6.101

>  <logP>
-0.384

>  <lumo_energy>
-0.071

>  <melting_point>
118.22

>  <molecular_refractivity>
44.34

>  <oscillator_strength_1>
0.0006

>  <oscillator_strength_2>
0.0004

>  <oscillator_strength_3>
0.0082

>  <oscillator_strength_4>
0.0005

>  <open_babel_can_smiles>
OC(=O)[C@@H]1CCN=C(N1)C

>  <mulliken_charges>
20
1   -0.525126
2   -0.304527
3   -0.149079
4   0.479895
5   -0.103008
6   0.607009
7   -0.445911
8   -0.580219
9   -0.438153
10   -0.566024
11   0.187192
12   0.166427
13   0.16172
14   0.125803
15   0.171691
16   0.150864
17   0.156566
18   0.163219
19   0.327785
20   0.413877

>  <lowdin_charges>
20
1   -0.452142
2   -0.288992
3   -0.207538
4   0.096381
5   -0.10935
6   0.181892
7   -0.241853
8   -0.299682
9   -0.233709
10   -0.355074
11   0.178165
12   0.165478
13   0.161577
14   0.140975
15   0.159943
16   0.152229
17   0.147684
18   0.160988
19   0.283885
20   0.359141

$$$$

