PCCDB-ID:  337
public computational chemistry database (PCCDB) project, http://pccdb.org

 19 18  0  0  1  0  0  0  0  0999 V2000
    2.8074   -1.7039    1.0234 C   0  0  0  0  0  0  0  0  0  0  0  0
    1.9433   -0.6288   -2.4535 C   0  0  0  0  0  0  0  0  0  0  0  0
    2.2975   -0.3696    0.5373 C   0  0  0  0  0  0  0  0  0  0  0  0
    3.2837   -0.2178   -1.8291 C   0  0  2  0  0  0  0  0  0  0  0  0
    3.1580    0.4431   -0.4329 C   0  0  1  0  0  0  0  0  0  0  0  0
    2.1447   -1.0743   -3.7796 O   0  0  0  0  0  0  0  0  0  0  0  0
    1.2255    0.0967    0.8881 O   0  0  0  0  0  0  0  0  0  0  0  0
    3.9344    0.7016   -2.7027 O   0  0  0  0  0  0  0  0  0  0  0  0
    2.6077    1.7354   -0.5925 O   0  0  0  0  0  0  0  0  0  0  0  0
    3.0446   -2.3653    0.1816 H   0  0  0  0  0  0  0  0  0  0  0  0
    2.0579   -2.1757    1.6614 H   0  0  0  0  0  0  0  0  0  0  0  0
    3.7359   -1.5645    1.5912 H   0  0  0  0  0  0  0  0  0  0  0  0
    1.2476    0.2260   -2.4112 H   0  0  0  0  0  0  0  0  0  0  0  0
    1.4846   -1.4576   -1.9010 H   0  0  0  0  0  0  0  0  0  0  0  0
    3.9378   -1.0955   -1.7750 H   0  0  0  0  0  0  0  0  0  0  0  0
    4.1727    0.5390   -0.0194 H   0  0  0  0  0  0  0  0  0  0  0  0
    2.7720   -0.4356   -4.1635 H   0  0  0  0  0  0  0  0  0  0  0  0
    3.5157    1.5637   -2.5172 H   0  0  0  0  0  0  0  0  0  0  0  0
    1.7295    1.6947   -0.1601 H   0  0  0  0  0  0  0  0  0  0  0  0
  1 12  1  0  0  0  0
  1 11  1  0  0  0  0
  2 13  1  0  0  0  0
  2 14  1  0  0  0  0
  2  4  1  0  0  0  0
  3  7  2  0  0  0  0
  3  1  1  0  0  0  0
  4 15  1  1  0  0  0
  4  5  1  0  0  0  0
  5 16  1  1  0  0  0
  5  3  1  0  0  0  0
  6  2  1  0  0  0  0
  8 18  1  0  0  0  0
  8  4  1  0  0  0  0
  9  5  1  0  0  0  0
  9 19  1  0  0  0  0
 10  1  1  0  0  0  0
 17  6  1  0  0  0  0
M  END
>  <HBA>
4

>  <HBD>
3

>  <TPSA>
77.76

>  <cid>
337

>  <dipole>
2.57

>  <excitation_energy_1>
4.59

>  <excitation_energy_2>
4.983

>  <excitation_energy_3>
5.918

>  <excitation_energy_4>
6.187

>  <homo_energy>
-6.947

>  <homo_lumo_gap>
5.723

>  <logP>
-1.71

>  <lumo_energy>
-1.225

>  <melting_point>
51.35

>  <molecular_refractivity>
29.83

>  <oscillator_strength_1>
0.001

>  <oscillator_strength_2>
0.0091

>  <oscillator_strength_3>
0.0205

>  <oscillator_strength_4>
0.0011

>  <open_babel_can_smiles>
OC[C@H]([C@H](C(=O)C)O)O

>  <mulliken_charges>
19
1   -0.539939
2   -0.03435
3   0.437707
4   0.102936
5   0.040347
6   -0.62525
7   -0.452643
8   -0.641132
9   -0.654498
10   0.188273
11   0.193992
12   0.185752
13   0.124615
14   0.137621
15   0.142328
16   0.159129
17   0.401525
18   0.4155
19   0.418088

>  <lowdin_charges>
19
1   -0.472406
2   -0.158019
3   0.157827
4   -0.034719
5   -0.052381
6   -0.467499
7   -0.231999
8   -0.456424
9   -0.461408
10   0.17955
11   0.182868
12   0.180568
13   0.130159
14   0.146499
15   0.149146
16   0.158116
17   0.345495
18   0.351715
19   0.352913

$$$$

