PCCDB-ID:  54422
public computational chemistry database (PCCDB) project, http://pccdb.org

 19 19  0  0  0  0  0  0  0  0999 V2000
    1.0767   -0.5933    0.4865 C   0  0  0  0  0  0  0  0  0  0  0  0
    4.6561   -0.7859   -0.1742 C   0  0  0  0  0  0  0  0  0  0  0  0
    4.4660    0.5949   -0.2984 C   0  0  0  0  0  0  0  0  0  0  0  0
    3.4248   -1.3228    0.1784 C   0  0  0  0  0  0  0  0  0  0  0  0
    2.6158    2.2179    0.0490 C   0  0  0  0  0  0  0  0  0  0  0  0
    0.6499    2.2320    1.5948 C   0  0  0  0  0  0  0  0  0  0  0  0
    1.3290    4.2276    0.4141 C   0  0  0  0  0  0  0  0  0  0  0  0
    1.5413    2.8309    0.6545 C   0  0  0  0  0  0  0  0  0  0  0  0
    3.1274    0.8889    0.0189 C   0  0  0  0  0  0  0  0  0  0  0  0
   -0.0685    1.7774    2.3911 N   0  0  0  0  0  0  0  0  0  0  0  0
    1.1592    5.3612    0.2097 N   0  0  0  0  0  0  0  0  0  0  0  0
    2.5030   -0.3282    0.3039 N   0  0  0  0  0  0  0  0  0  0  0  0
    0.8780   -1.6201    0.1727 H   0  0  0  0  0  0  0  0  0  0  0  0
    0.4905    0.0794   -0.1422 H   0  0  0  0  0  0  0  0  0  0  0  0
    0.7705   -0.4610    1.5252 H   0  0  0  0  0  0  0  0  0  0  0  0
    5.5695   -1.3422   -0.3296 H   0  0  0  0  0  0  0  0  0  0  0  0
    5.2096    1.3385   -0.5535 H   0  0  0  0  0  0  0  0  0  0  0  0
    3.1310   -2.3540    0.3188 H   0  0  0  0  0  0  0  0  0  0  0  0
    3.2510    2.9055   -0.5050 H   0  0  0  0  0  0  0  0  0  0  0  0
  1 15  1  0  0  0  0
  2  4  2  0  0  0  0
  3  2  1  0  0  0  0
  3  9  2  0  0  0  0
  4 12  1  0  0  0  0
  4 18  1  0  0  0  0
  5  8  2  0  0  0  0
  6 10  3  0  0  0  0
  7  8  1  0  0  0  0
  8  6  1  0  0  0  0
  9  5  1  0  0  0  0
  9 12  1  0  0  0  0
 11  7  3  0  0  0  0
 12  1  1  0  0  0  0
 13  1  1  0  0  0  0
 14  1  1  0  0  0  0
 16  2  1  0  0  0  0
 17  3  1  0  0  0  0
 19  5  1  0  0  0  0
M  END
>  <HBA>
3

>  <HBD>
0

>  <TPSA>
52.51

>  <cid>
54422

>  <dipole>
7.09

>  <excitation_energy_1>
3.795

>  <excitation_energy_2>
4.255

>  <excitation_energy_3>
5.049

>  <excitation_energy_4>
5.479

>  <homo_energy>
-6.335

>  <homo_lumo_gap>
3.848

>  <logP>
1.456

>  <lumo_energy>
-2.487

>  <melting_point>
99.9

>  <molecular_refractivity>
44.9

>  <oscillator_strength_1>
0.6223

>  <oscillator_strength_2>
0.0582

>  <oscillator_strength_3>
0.0009

>  <oscillator_strength_4>
0.0084

>  <open_babel_can_smiles>
N#CC(=Cc1cccn1C)C#N

>  <mulliken_charges>
19
1   -0.343436
2   -0.184599
3   -0.187175
4   0.056102
5   -0.147449
6   0.303116
7   0.280854
8   0.09493
9   0.322857
10   -0.504275
11   -0.468572
12   -0.458595
13   0.173977
14   0.189695
15   0.217868
16   0.149982
17   0.153839
18   0.167383
19   0.183499

>  <lowdin_charges>
19
1   -0.349234
2   -0.202765
3   -0.168543
4   -0.107646
5   -0.084941
6   -0.002996
7   -0.010593
8   -0.078208
9   -0.01085
10   -0.120838
11   -0.112249
12   0.010931
13   0.166967
14   0.176723
15   0.181755
16   0.173297
17   0.173367
18   0.172416
19   0.193407

$$$$

