PCCDB-ID:  66150
public computational chemistry database (PCCDB) project, http://pccdb.org

 33 33  0  0  0  0  0  0  0  0999 V2000
    3.3424    3.1868    1.1454 C   0  0  0  0  0  0  0  0  0  0  0  0
    0.4361    1.3543   -1.5508 C   0  0  0  0  0  0  0  0  0  0  0  0
    2.7349    3.0706   -0.2542 C   0  0  0  0  0  0  0  0  0  0  0  0
    1.9030    1.5228   -1.9575 C   0  0  0  0  0  0  0  0  0  0  0  0
    9.3272    2.2822   -4.6879 C   0  0  0  0  0  0  0  0  0  0  0  0
    8.1429    3.0150   -4.7036 C   0  0  0  0  0  0  0  0  0  0  0  0
    9.4481    1.2006   -3.8082 C   0  0  0  0  0  0  0  0  0  0  0  0
    7.0803    2.6843   -3.8562 C   0  0  0  0  0  0  0  0  0  0  0  0
    8.4016    0.8596   -2.9590 C   0  0  0  0  0  0  0  0  0  0  0  0
    4.1399    1.1845   -1.0107 C   0  0  0  0  0  0  0  0  0  0  0  0
    4.9997    1.8841   -2.0759 C   0  0  0  0  0  0  0  0  0  0  0  0
    7.2106    1.6010   -2.9791 C   0  0  0  0  0  0  0  0  0  0  0  0
    2.7955    1.7155   -0.8092 N   0  0  0  0  0  0  0  0  0  0  0  0
    6.2418    1.1870   -2.1085 O   0  0  0  0  0  0  0  0  0  0  0  0
    3.1437    4.1827    1.5568 H   0  0  0  0  0  0  0  0  0  0  0  0
    4.4286    3.0464    1.1442 H   0  0  0  0  0  0  0  0  0  0  0  0
    2.9025    2.4401    1.8149 H   0  0  0  0  0  0  0  0  0  0  0  0
   -0.1817    1.1583   -2.4350 H   0  0  0  0  0  0  0  0  0  0  0  0
    0.0350    2.2498   -1.0640 H   0  0  0  0  0  0  0  0  0  0  0  0
    0.3290    0.5154   -0.8556 H   0  0  0  0  0  0  0  0  0  0  0  0
    3.2001    3.8220   -0.9227 H   0  0  0  0  0  0  0  0  0  0  0  0
    1.6769    3.3443   -0.1903 H   0  0  0  0  0  0  0  0  0  0  0  0
    1.9877    2.3436   -2.6959 H   0  0  0  0  0  0  0  0  0  0  0  0
    2.2244    0.6112   -2.4749 H   0  0  0  0  0  0  0  0  0  0  0  0
   10.1472    2.5474   -5.3488 H   0  0  0  0  0  0  0  0  0  0  0  0
    8.0329    3.8579   -5.3813 H   0  0  0  0  0  0  0  0  0  0  0  0
   10.3653    0.6177   -3.7844 H   0  0  0  0  0  0  0  0  0  0  0  0
    6.1673    3.2678   -3.8886 H   0  0  0  0  0  0  0  0  0  0  0  0
    8.4784    0.0233   -2.2709 H   0  0  0  0  0  0  0  0  0  0  0  0
    4.6850    1.2121   -0.0618 H   0  0  0  0  0  0  0  0  0  0  0  0
    4.0543    0.1269   -1.2867 H   0  0  0  0  0  0  0  0  0  0  0  0
    5.1668    2.9408   -1.8250 H   0  0  0  0  0  0  0  0  0  0  0  0
    4.5168    1.8429   -3.0626 H   0  0  0  0  0  0  0  0  0  0  0  0
  1 15  1  0  0  0  0
  1 17  1  0  0  0  0
  2 19  1  0  0  0  0
  2 20  1  0  0  0  0
  3 22  1  0  0  0  0
  3  1  1  0  0  0  0
  4  2  1  0  0  0  0
  4 13  1  0  0  0  0
  5  7  1  0  0  0  0
  6  5  2  0  0  0  0
  6  8  1  0  0  0  0
  7 27  1  0  0  0  0
  7  9  2  0  0  0  0
  8 12  2  0  0  0  0
  9 29  1  0  0  0  0
 10 13  1  0  0  0  0
 10 30  1  0  0  0  0
 11 32  1  0  0  0  0
 11 10  1  0  0  0  0
 12  9  1  0  0  0  0
 12 14  1  0  0  0  0
 13  3  1  0  0  0  0
 14 11  1  0  0  0  0
 16  1  1  0  0  0  0
 18  2  1  0  0  0  0
 21  3  1  0  0  0  0
 23  4  1  0  0  0  0
 24  4  1  0  0  0  0
 25  5  1  0  0  0  0
 26  6  1  0  0  0  0
 28  8  1  0  0  0  0
 31 10  1  0  0  0  0
 33 11  1  0  0  0  0
M  END
>  <HBA>
2

>  <HBD>
0

>  <TPSA>
12.47

>  <cid>
66150

>  <dipole>
1.44

>  <excitation_energy_1>
5.044

>  <excitation_energy_2>
5.073

>  <excitation_energy_3>
5.137

>  <excitation_energy_4>
5.421

>  <homo_energy>
-5.641

>  <homo_lumo_gap>
5.761

>  <logP>
2.407

>  <lumo_energy>
0.12

>  <melting_point>
7.74

>  <molecular_refractivity>
59.87

>  <oscillator_strength_1>
0.0266

>  <oscillator_strength_2>
0.0041

>  <oscillator_strength_3>
0.0201

>  <oscillator_strength_4>
0.0002

>  <open_babel_can_smiles>
CCN(CCOc1ccccc1)CC

>  <mulliken_charges>
33
1   -0.454459
2   -0.44018
3   -0.117527
4   -0.121353
5   -0.133913
6   -0.137708
7   -0.132773
8   -0.194879
9   -0.175954
10   -0.166447
11   -0.042613
12   0.379827
13   -0.375762
14   -0.52607
15   0.144015
16   0.149918
17   0.158144
18   0.139876
19   0.14653
20   0.155539
21   0.110741
22   0.142007
23   0.113964
24   0.138728
25   0.124129
26   0.127835
27   0.128841
28   0.131487
29   0.134846
30   0.157251
31   0.153587
32   0.141411
33   0.140963

>  <lowdin_charges>
33
1   -0.44968
2   -0.451408
3   -0.198449
4   -0.19835
5   -0.181258
6   -0.146792
7   -0.147527
8   -0.216375
9   -0.184236
10   -0.212013
11   -0.142819
12   0.103365
13   -0.18765
14   -0.202138
15   0.153238
16   0.147324
17   0.157313
18   0.151027
19   0.148467
20   0.15534
21   0.11574
22   0.145352
23   0.119073
24   0.146035
25   0.156891
26   0.156916
27   0.15784
28   0.161485
29   0.16521
30   0.153563
31   0.150085
32   0.136481
33   0.137952

$$$$

