PCCDB-ID:  34537
public computational chemistry database (PCCDB) project, http://pccdb.org

 28 27  0  0  1  0  0  0  0  0999 V2000
    4.0041    3.9706   -1.1972 C   0  0  0  0  0  0  0  0  0  0  0  0
    1.8706   -1.7792    1.7435 C   0  0  0  0  0  0  0  0  0  0  0  0
    6.7483    0.7714    0.5842 C   0  0  0  0  0  0  0  0  0  0  0  0
    3.0415    2.7842   -1.0802 C   0  0  0  0  0  0  0  0  0  0  0  0
    3.1823   -2.4831    1.4318 C   0  0  0  0  0  0  0  0  0  0  0  0
    3.5966    1.6314   -0.2366 C   0  0  0  0  0  0  0  0  0  0  0  0
    5.6008   -0.0567   -0.0199 C   0  0  2  0  0  0  0  0  0  0  0  0
    4.7199    0.8524   -0.9085 C   0  0  0  0  0  0  0  0  0  0  0  0
    4.8009   -0.7665    1.0634 C   0  0  0  0  0  0  0  0  0  0  0  0
    4.9645    0.9481   -2.0945 O   0  0  0  0  0  0  0  0  0  0  0  0
    4.8609   -0.5283    2.2511 O   0  0  0  0  0  0  0  0  0  0  0  0
    3.9984   -1.7084    0.5171 O   0  0  0  0  0  0  0  0  0  0  0  0
    3.5570    4.7813   -1.7833 H   0  0  0  0  0  0  0  0  0  0  0  0
    4.9336    3.6745   -1.6939 H   0  0  0  0  0  0  0  0  0  0  0  0
    4.2580    4.3758   -0.2094 H   0  0  0  0  0  0  0  0  0  0  0  0
    1.2515   -2.4164    2.3855 H   0  0  0  0  0  0  0  0  0  0  0  0
    1.3103   -1.5717    0.8258 H   0  0  0  0  0  0  0  0  0  0  0  0
    2.0531   -0.8390    2.2717 H   0  0  0  0  0  0  0  0  0  0  0  0
    7.3289    1.2415   -0.2149 H   0  0  0  0  0  0  0  0  0  0  0  0
    7.4122    0.1291    1.1700 H   0  0  0  0  0  0  0  0  0  0  0  0
    6.3691    1.5487    1.2536 H   0  0  0  0  0  0  0  0  0  0  0  0
    2.8053    2.4036   -2.0800 H   0  0  0  0  0  0  0  0  0  0  0  0
    2.0969    3.1187   -0.6333 H   0  0  0  0  0  0  0  0  0  0  0  0
    3.0156   -3.4267    0.9068 H   0  0  0  0  0  0  0  0  0  0  0  0
    3.7578   -2.6688    2.3417 H   0  0  0  0  0  0  0  0  0  0  0  0
    2.8045    0.8974   -0.0227 H   0  0  0  0  0  0  0  0  0  0  0  0
    3.9388    1.9811    0.7473 H   0  0  0  0  0  0  0  0  0  0  0  0
    6.0038   -0.8161   -0.6973 H   0  0  0  0  0  0  0  0  0  0  0  0
  1  4  1  0  0  0  0
  1 15  1  0  0  0  0
  2 18  1  0  0  0  0
  2 16  1  0  0  0  0
  3 20  1  0  0  0  0
  3 21  1  0  0  0  0
  4 23  1  0  0  0  0
  4  6  1  0  0  0  0
  5  2  1  0  0  0  0
  5 25  1  0  0  0  0
  6 26  1  0  0  0  0
  6 27  1  0  0  0  0
  7 28  1  6  0  0  0
  7  3  1  0  0  0  0
  7  9  1  0  0  0  0
  8  6  1  0  0  0  0
  8  7  1  0  0  0  0
  9 11  2  0  0  0  0
 10  8  2  0  0  0  0
 12  9  1  0  0  0  0
 12  5  1  0  0  0  0
 13  1  1  0  0  0  0
 14  1  1  0  0  0  0
 17  2  1  0  0  0  0
 19  3  1  0  0  0  0
 22  4  1  0  0  0  0
 24  5  1  0  0  0  0
M  END
>  <HBA>
3

>  <HBD>
0

>  <TPSA>
43.37

>  <cid>
34537

>  <dipole>
1.98

>  <excitation_energy_1>
4.331

>  <excitation_energy_2>
5.528

>  <excitation_energy_3>
5.93

>  <excitation_energy_4>
6.319

>  <homo_energy>
-6.721

>  <homo_lumo_gap>
6.104

>  <logP>
1.555

>  <lumo_energy>
-0.618

>  <melting_point>
5.28

>  <molecular_refractivity>
46.86

>  <oscillator_strength_1>
0.0015

>  <oscillator_strength_2>
0.0175

>  <oscillator_strength_3>
0.0173

>  <oscillator_strength_4>
0.0072

>  <open_babel_can_smiles>
CCCC(=O)[C@H](C(=O)OCC)C

>  <mulliken_charges>
28
1   -0.449641
2   -0.466002
3   -0.450287
4   -0.245434
5   -0.046559
6   -0.374844
7   -0.245884
8   0.470809
9   0.617582
10   -0.445685
11   -0.480907
12   -0.462485
13   0.146233
14   0.163166
15   0.136744
16   0.154845
17   0.159301
18   0.175772
19   0.163661
20   0.168517
21   0.166556
22   0.159068
23   0.132365
24   0.157591
25   0.172686
26   0.174699
27   0.16714
28   0.18099

>  <lowdin_charges>
28
1   -0.448163
2   -0.458009
3   -0.437065
4   -0.269352
5   -0.128325
6   -0.316035
7   -0.17831
8   0.170288
9   0.189063
10   -0.227294
11   -0.26282
12   -0.193612
13   0.153251
14   0.156596
15   0.143103
16   0.162938
17   0.15664
18   0.164625
19   0.162819
20   0.166533
21   0.161816
22   0.155606
23   0.144337
24   0.1549
25   0.160334
26   0.172735
27   0.162638
28   0.180761

$$$$

