PCCDB-ID:  14540
public computational chemistry database (PCCDB) project, http://pccdb.org

 28 29  0  0  1  0  0  0  0  0999 V2000
    1.4160    0.8447    1.0166 C   0  0  0  0  0  0  0  0  0  0  0  0
    1.3593   -0.7037    1.1172 C   0  0  0  0  0  0  0  0  0  0  0  0
    0.8199    0.7863   -1.4269 C   0  0  0  0  0  0  0  0  0  0  0  0
    0.9376   -0.7683   -1.3718 C   0  0  0  0  0  0  0  0  0  0  0  0
   -3.5421   -0.9018   -1.4018 C   0  0  0  0  0  0  0  0  0  0  0  0
   -2.3563   -0.0161   -1.4046 C   0  0  0  0  0  0  0  0  0  0  0  0
   -1.0369    1.2100    0.3104 C   0  0  0  0  0  0  0  0  0  0  0  0
   -1.0080   -1.2684    0.2531 C   0  0  0  0  0  0  0  0  0  0  0  0
    0.4650    1.4034   -0.0588 C   0  0  1  0  0  0  0  0  0  0  0  0
    0.5225   -1.3541   -0.0066 C   0  0  2  0  0  0  0  0  0  0  0  0
   -4.4581   -1.6145   -1.4123 N   0  0  0  0  0  0  0  0  0  0  0  0
   -1.6789   -0.0259   -0.1214 N   0  0  0  0  0  0  0  0  0  0  0  0
    2.4365    1.1637    0.7683 H   0  0  0  0  0  0  0  0  0  0  0  0
    1.1845    1.3029    1.9862 H   0  0  0  0  0  0  0  0  0  0  0  0
    0.9550   -1.0136    2.0889 H   0  0  0  0  0  0  0  0  0  0  0  0
    2.3775   -1.1100    1.0723 H   0  0  0  0  0  0  0  0  0  0  0  0
    0.0846    1.0963   -2.1790 H   0  0  0  0  0  0  0  0  0  0  0  0
    1.7760    1.2106   -1.7569 H   0  0  0  0  0  0  0  0  0  0  0  0
    1.9785   -1.0593   -1.5608 H   0  0  0  0  0  0  0  0  0  0  0  0
    0.3508   -1.2319   -2.1744 H   0  0  0  0  0  0  0  0  0  0  0  0
   -2.7088    1.0007   -1.6097 H   0  0  0  0  0  0  0  0  0  0  0  0
   -1.7381   -0.3112   -2.2713 H   0  0  0  0  0  0  0  0  0  0  0  0
   -1.6190    2.0400   -0.1061 H   0  0  0  0  0  0  0  0  0  0  0  0
   -1.1392    1.2844    1.4042 H   0  0  0  0  0  0  0  0  0  0  0  0
   -1.1868   -1.4552    1.3230 H   0  0  0  0  0  0  0  0  0  0  0  0
   -1.5108   -2.0817   -0.2820 H   0  0  0  0  0  0  0  0  0  0  0  0
    0.6323    2.4885   -0.1150 H   0  0  0  0  0  0  0  0  0  0  0  0
    0.7589   -2.4275   -0.0065 H   0  0  0  0  0  0  0  0  0  0  0  0
  1  2  1  0  0  0  0
  1 14  1  0  0  0  0
  2 15  1  0  0  0  0
  3  4  1  0  0  0  0
  3  9  1  0  0  0  0
  4 10  1  0  0  0  0
  6  5  1  0  0  0  0
  6 12  1  0  0  0  0
  7 24  1  0  0  0  0
  8 25  1  0  0  0  0
  9 27  1  6  0  0  0
  9  7  1  0  0  0  0
  9  1  1  0  0  0  0
 10 28  1  6  0  0  0
 10  8  1  0  0  0  0
 10  2  1  0  0  0  0
 11  5  3  0  0  0  0
 12  8  1  0  0  0  0
 12  7  1  0  0  0  0
 13  1  1  0  0  0  0
 16  2  1  0  0  0  0
 17  3  1  0  0  0  0
 18  3  1  0  0  0  0
 19  4  1  0  0  0  0
 20  4  1  0  0  0  0
 21  6  1  0  0  0  0
 22  6  1  0  0  0  0
 23  7  1  0  0  0  0
 26  8  1  0  0  0  0
M  END
>  <HBA>
2

>  <HBD>
0

>  <TPSA>
27.03

>  <cid>
14540

>  <dipole>
4.54

>  <excitation_energy_1>
4.8

>  <excitation_energy_2>
5.315

>  <excitation_energy_3>
5.487

>  <excitation_energy_4>
5.594

>  <homo_energy>
-5.807

>  <homo_lumo_gap>
6.438

>  <logP>
1.57

>  <lumo_energy>
0.631

>  <melting_point>
52.47

>  <molecular_refractivity>
52.52

>  <oscillator_strength_1>
0.0109

>  <oscillator_strength_2>
0.0182

>  <oscillator_strength_3>
0.0045

>  <oscillator_strength_4>
0.0103

>  <open_babel_can_smiles>
N#CCN1C[C@@H]2CC[C@H](C1)CC2

>  <mulliken_charges>
28
1   -0.272438
2   -0.273029
3   -0.27146
4   -0.274705
5   0.363736
6   -0.196739
7   -0.144223
8   -0.148992
9   -0.092686
10   -0.092911
11   -0.476546
12   -0.376409
13   0.133363
14   0.134916
15   0.135124
16   0.13537
17   0.129707
18   0.137655
19   0.137934
20   0.132947
21   0.188587
22   0.173169
23   0.136676
24   0.141616
25   0.141997
26   0.152743
27   0.120232
28   0.124365

>  <lowdin_charges>
28
1   -0.284472
2   -0.286073
3   -0.286429
4   -0.284979
5   -0.022093
6   -0.193366
7   -0.202827
8   -0.205748
9   -0.145675
10   -0.14266
11   -0.125659
12   -0.176588
13   0.142456
14   0.14354
15   0.143202
16   0.144369
17   0.141179
18   0.146828
19   0.145754
20   0.142928
21   0.17826
22   0.155683
23   0.147357
24   0.140532
25   0.14159
26   0.156193
27   0.141788
28   0.144909

$$$$

