PCCDB-ID:  7765
public computational chemistry database (PCCDB) project, http://pccdb.org

 22 21  0  0  0  0  0  0  0  0999 V2000
    1.0906   -0.0983   -2.5944 C   0  0  0  0  0  0  0  0  0  0  0  0
    5.6060    2.5363   -4.2597 C   0  0  0  0  0  0  0  0  0  0  0  0
    5.1758   -0.9680   -1.1268 C   0  0  0  0  0  0  0  0  0  0  0  0
    2.5514   -0.4943   -2.4485 C   0  0  0  0  0  0  0  0  0  0  0  0
    4.9021    2.2058   -2.9543 C   0  0  0  0  0  0  0  0  0  0  0  0
    4.5646    0.3908   -1.4468 C   0  0  0  0  0  0  0  0  0  0  0  0
    3.1492    0.3917   -1.5001 O   0  0  0  0  0  0  0  0  0  0  0  0
    5.1521    0.8344   -2.6496 O   0  0  0  0  0  0  0  0  0  0  0  0
    0.5816   -0.7664   -3.2983 H   0  0  0  0  0  0  0  0  0  0  0  0
    1.0032    0.9287   -2.9642 H   0  0  0  0  0  0  0  0  0  0  0  0
    0.5781   -0.1569   -1.6286 H   0  0  0  0  0  0  0  0  0  0  0  0
    5.4477    3.5879   -4.5233 H   0  0  0  0  0  0  0  0  0  0  0  0
    5.2205    1.9136   -5.0738 H   0  0  0  0  0  0  0  0  0  0  0  0
    6.6828    2.3573   -4.1740 H   0  0  0  0  0  0  0  0  0  0  0  0
    4.7010   -1.3946   -0.2379 H   0  0  0  0  0  0  0  0  0  0  0  0
    6.2474   -0.8547   -0.9381 H   0  0  0  0  0  0  0  0  0  0  0  0
    5.0535   -1.6600   -1.9652 H   0  0  0  0  0  0  0  0  0  0  0  0
    3.0741   -0.4241   -3.4112 H   0  0  0  0  0  0  0  0  0  0  0  0
    2.6285   -1.5352   -2.1001 H   0  0  0  0  0  0  0  0  0  0  0  0
    3.8216    2.3841   -3.0327 H   0  0  0  0  0  0  0  0  0  0  0  0
    5.2808    2.8398   -2.1355 H   0  0  0  0  0  0  0  0  0  0  0  0
    4.7822    1.1075   -0.6409 H   0  0  0  0  0  0  0  0  0  0  0  0
  1  4  1  0  0  0  0
  1 11  1  0  0  0  0
  2 14  1  0  0  0  0
  2  5  1  0  0  0  0
  3 16  1  0  0  0  0
  3 15  1  0  0  0  0
  4 19  1  0  0  0  0
  4  7  1  0  0  0  0
  5  8  1  0  0  0  0
  5 21  1  0  0  0  0
  6  3  1  0  0  0  0
  6 22  1  0  0  0  0
  7  6  1  0  0  0  0
  8  6  1  0  0  0  0
  9  1  1  0  0  0  0
 10  1  1  0  0  0  0
 12  2  1  0  0  0  0
 13  2  1  0  0  0  0
 17  3  1  0  0  0  0
 18  4  1  0  0  0  0
 20  5  1  0  0  0  0
M  END
>  <HBA>
2

>  <HBD>
0

>  <TPSA>
18.46

>  <cid>
7765

>  <dipole>
0.28

>  <excitation_energy_1>
6.774

>  <excitation_energy_2>
6.917

>  <excitation_energy_3>
7.087

>  <excitation_energy_4>
7.146

>  <homo_energy>
-7.01

>  <homo_lumo_gap>
9.486

>  <logP>
1.405

>  <lumo_energy>
2.476

>  <melting_point>
-44.46

>  <molecular_refractivity>
33.13

>  <oscillator_strength_1>
0.0051

>  <oscillator_strength_2>
0.0054

>  <oscillator_strength_3>
0.0097

>  <oscillator_strength_4>
0.0042

>  <open_babel_can_smiles>
CCOC(OCC)C

>  <mulliken_charges>
22
1   -0.452888
2   -0.4544
3   -0.475217
4   -0.023602
5   -0.01485
6   0.364809
7   -0.483927
8   -0.479745
9   0.140983
10   0.153718
11   0.156597
12   0.143085
13   0.155783
14   0.156347
15   0.153606
16   0.156666
17   0.159698
18   0.14067
19   0.125279
20   0.140345
21   0.120614
22   0.116428

>  <lowdin_charges>
22
1   -0.447838
2   -0.446183
3   -0.461026
4   -0.13003
5   -0.12608
6   0.100058
7   -0.278497
8   -0.273055
9   0.153756
10   0.15289
11   0.155675
12   0.152604
13   0.156294
14   0.153979
15   0.159283
16   0.160825
17   0.160244
18   0.136687
19   0.127609
20   0.134306
21   0.128431
22   0.130069

$$$$

