PCCDB-ID:  1370
public computational chemistry database (PCCDB) project, http://pccdb.org

 32 34  0  0  0  0  0  0  0  0999 V2000
    1.2882    0.9554   -0.6564 C   0  0  0  0  0  0  0  0  0  0  0  0
    1.0820   -0.5537   -0.8525 C   0  0  0  0  0  0  0  0  0  0  0  0
    0.2208    1.5314    0.2851 C   0  0  0  0  0  0  0  0  0  0  0  0
   -4.0798    0.2387    0.8478 C   0  0  0  0  0  0  0  0  0  0  0  0
   -5.1893    0.6263    1.6195 C   0  0  0  0  0  0  0  0  0  0  0  0
   -0.3550   -0.8497   -1.3009 C   0  0  0  0  0  0  0  0  0  0  0  0
   -1.2002    1.1686   -0.1801 C   0  0  0  0  0  0  0  0  0  0  0  0
   -3.1902   -1.1185    2.6716 C   0  0  0  0  0  0  0  0  0  0  0  0
   -5.8741   -0.4839    4.9661 C   0  0  0  0  0  0  0  0  0  0  0  0
   -3.0878   -0.6076    1.3580 C   0  0  0  0  0  0  0  0  0  0  0  0
   -5.2525    0.1358    2.9087 C   0  0  0  0  0  0  0  0  0  0  0  0
   -4.2729   -0.7157    3.4201 C   0  0  0  0  0  0  0  0  0  0  0  0
   -1.9613   -1.1364    0.5112 C   0  0  0  0  0  0  0  0  0  0  0  0
   -1.3425   -0.2785   -0.3769 N   0  0  0  0  0  0  0  0  0  0  0  0
   -1.6528   -2.3252    0.5906 O   0  0  0  0  0  0  0  0  0  0  0  0
   -6.2034    0.3774    3.8672 O   0  0  0  0  0  0  0  0  0  0  0  0
   -4.5773   -1.0359    4.7229 O   0  0  0  0  0  0  0  0  0  0  0  0
    1.2211    1.4607   -1.6318 H   0  0  0  0  0  0  0  0  0  0  0  0
    2.2922    1.1622   -0.2660 H   0  0  0  0  0  0  0  0  0  0  0  0
    1.2709   -1.0862    0.0886 H   0  0  0  0  0  0  0  0  0  0  0  0
    1.7862   -0.9484   -1.5958 H   0  0  0  0  0  0  0  0  0  0  0  0
    0.3082    2.6236    0.3510 H   0  0  0  0  0  0  0  0  0  0  0  0
    0.3688    1.1335    1.2984 H   0  0  0  0  0  0  0  0  0  0  0  0
   -4.0096    0.5831   -0.1790 H   0  0  0  0  0  0  0  0  0  0  0  0
   -5.9648    1.2716    1.2217 H   0  0  0  0  0  0  0  0  0  0  0  0
   -0.5395   -1.9220   -1.3591 H   0  0  0  0  0  0  0  0  0  0  0  0
   -0.5332   -0.4070   -2.2923 H   0  0  0  0  0  0  0  0  0  0  0  0
   -1.4185    1.6727   -1.1335 H   0  0  0  0  0  0  0  0  0  0  0  0
   -1.9347    1.5092    0.5486 H   0  0  0  0  0  0  0  0  0  0  0  0
   -2.4473   -1.8090    3.0528 H   0  0  0  0  0  0  0  0  0  0  0  0
   -6.6142   -1.2936    5.0284 H   0  0  0  0  0  0  0  0  0  0  0  0
   -5.8552    0.1003    5.8907 H   0  0  0  0  0  0  0  0  0  0  0  0
  1 19  1  0  0  0  0
  1  3  1  0  0  0  0
  2  1  1  0  0  0  0
  2 20  1  0  0  0  0
  3 22  1  0  0  0  0
  3 23  1  0  0  0  0
  4 10  2  0  0  0  0
  4  5  1  0  0  0  0
  5 11  2  0  0  0  0
  6  2  1  0  0  0  0
  6 14  1  0  0  0  0
  7  3  1  0  0  0  0
  7 29  1  0  0  0  0
  8 30  1  0  0  0  0
  8 12  2  0  0  0  0
  9 31  1  0  0  0  0
  9 32  1  0  0  0  0
 10  8  1  0  0  0  0
 11 12  1  0  0  0  0
 11 16  1  0  0  0  0
 12 17  1  0  0  0  0
 13 15  2  0  0  0  0
 13 10  1  0  0  0  0
 14  7  1  0  0  0  0
 14 13  1  0  0  0  0
 16  9  1  0  0  0  0
 17  9  1  0  0  0  0
 18  1  1  0  0  0  0
 21  2  1  0  0  0  0
 24  4  1  0  0  0  0
 25  5  1  0  0  0  0
 26  6  1  0  0  0  0
 27  6  1  0  0  0  0
 28  7  1  0  0  0  0
M  END
>  <HBA>
4

>  <HBD>
0

>  <TPSA>
38.77

>  <cid>
1370

>  <dipole>
3.17

>  <excitation_energy_1>
4.554

>  <excitation_energy_2>
4.657

>  <excitation_energy_3>
4.886

>  <excitation_energy_4>
5.141

>  <homo_energy>
-5.739

>  <homo_lumo_gap>
5.195

>  <logP>
1.979

>  <lumo_energy>
-0.544

>  <melting_point>
96.23

>  <molecular_refractivity>
66.62

>  <oscillator_strength_1>
0.1485

>  <oscillator_strength_2>
0.007

>  <oscillator_strength_3>
0.0305

>  <oscillator_strength_4>
0.0681

>  <open_babel_can_smiles>
O=C(c1ccc2c(c1)OCO2)N1CCCCC1

>  <mulliken_charges>
32
1   -0.264237
2   -0.262985
3   -0.259104
4   -0.184955
5   -0.187151
6   -0.147369
7   -0.158602
8   -0.207633
9   0.191058
10   0.050456
11   0.339714
12   0.328916
13   0.518399
14   -0.426722
15   -0.519175
16   -0.528659
17   -0.530662
18   0.128666
19   0.139152
20   0.153381
21   0.136421
22   0.13672
23   0.142643
24   0.145429
25   0.147504
26   0.187478
27   0.134098
28   0.138768
29   0.167423
30   0.16648
31   0.158309
32   0.166241

>  <lowdin_charges>
32
1   -0.279347
2   -0.28575
3   -0.282944
4   -0.162257
5   -0.18624
6   -0.199437
7   -0.203795
8   -0.164024
9   0.017987
10   -0.040749
11   0.076952
12   0.070786
13   0.153089
14   -0.112857
15   -0.311362
16   -0.202212
17   -0.205282
18   0.137403
19   0.146852
20   0.151238
21   0.14971
22   0.146429
23   0.144991
24   0.164734
25   0.172525
26   0.174217
27   0.138468
28   0.139861
29   0.166206
30   0.184962
31   0.144984
32   0.15486

$$$$

