PCCDB-ID:  61738
public computational chemistry database (PCCDB) project, http://pccdb.org

 26 26  0  0  0  0  0  0  0  0999 V2000
    1.2144    1.4930   -2.0607 C   0  0  0  0  0  0  0  0  0  0  0  0
    2.1657    1.0166   -0.9584 C   0  0  0  0  0  0  0  0  0  0  0  0
    2.8796    2.1686   -0.2398 C   0  0  0  0  0  0  0  0  0  0  0  0
    3.8385    1.6923    0.8595 C   0  0  0  0  0  0  0  0  0  0  0  0
    4.7117    6.7934    4.1506 C   0  0  0  0  0  0  0  0  0  0  0  0
    4.5769    2.8308    1.5711 C   0  0  0  0  0  0  0  0  0  0  0  0
    3.7181    5.7932    3.9501 C   0  0  0  0  0  0  0  0  0  0  0  0
    5.7791    6.4236    3.3813 C   0  0  0  0  0  0  0  0  0  0  0  0
    3.6902    3.6465    2.5050 C   0  0  0  0  0  0  0  0  0  0  0  0
    4.2481    4.8823    3.0719 C   0  0  0  0  0  0  0  0  0  0  0  0
    2.5556    3.3034    2.8132 O   0  0  0  0  0  0  0  0  0  0  0  0
    5.5203    5.2697    2.7199 O   0  0  0  0  0  0  0  0  0  0  0  0
    0.7159    0.6498   -2.5526 H   0  0  0  0  0  0  0  0  0  0  0  0
    1.7524    2.0580   -2.8321 H   0  0  0  0  0  0  0  0  0  0  0  0
    0.4355    2.1495   -1.6536 H   0  0  0  0  0  0  0  0  0  0  0  0
    2.9145    0.3364   -1.3894 H   0  0  0  0  0  0  0  0  0  0  0  0
    1.6048    0.4254   -0.2210 H   0  0  0  0  0  0  0  0  0  0  0  0
    2.1308    2.8388    0.2007 H   0  0  0  0  0  0  0  0  0  0  0  0
    3.4390    2.7638   -0.9781 H   0  0  0  0  0  0  0  0  0  0  0  0
    4.5844    1.0148    0.4223 H   0  0  0  0  0  0  0  0  0  0  0  0
    3.2792    1.1134    1.6039 H   0  0  0  0  0  0  0  0  0  0  0  0
    4.6462    7.6709    4.7786 H   0  0  0  0  0  0  0  0  0  0  0  0
    5.0565    3.5073    0.8510 H   0  0  0  0  0  0  0  0  0  0  0  0
    5.4021    2.4346    2.1822 H   0  0  0  0  0  0  0  0  0  0  0  0
    2.7334    5.7316    4.3902 H   0  0  0  0  0  0  0  0  0  0  0  0
    6.7515    6.8587    3.2045 H   0  0  0  0  0  0  0  0  0  0  0  0
  1 15  1  0  0  0  0
  1  2  1  0  0  0  0
  2  3  1  0  0  0  0
  2 17  1  0  0  0  0
  3 18  1  0  0  0  0
  3  4  1  0  0  0  0
  4  6  1  0  0  0  0
  4 21  1  0  0  0  0
  5 22  1  0  0  0  0
  6 24  1  0  0  0  0
  6  9  1  0  0  0  0
  7  5  1  0  0  0  0
  7 25  1  0  0  0  0
  8  5  2  0  0  0  0
  9 11  2  0  0  0  0
  9 10  1  0  0  0  0
 10  7  2  0  0  0  0
 12 10  1  0  0  0  0
 12  8  1  0  0  0  0
 13  1  1  0  0  0  0
 14  1  1  0  0  0  0
 16  2  1  0  0  0  0
 19  3  1  0  0  0  0
 20  4  1  0  0  0  0
 23  6  1  0  0  0  0
 26  8  1  0  0  0  0
M  END
>  <HBA>
2

>  <HBD>
0

>  <TPSA>
30.21

>  <cid>
61738

>  <dipole>
3.02

>  <excitation_energy_1>
3.826

>  <excitation_energy_2>
4.854

>  <excitation_energy_3>
5.786

>  <excitation_energy_4>
6.04

>  <homo_energy>
-6.553

>  <homo_lumo_gap>
5.154

>  <logP>
3.043

>  <lumo_energy>
-1.399

>  <melting_point>
34.78

>  <molecular_refractivity>
48.13

>  <oscillator_strength_1>
0.0

>  <oscillator_strength_2>
0.3802

>  <oscillator_strength_3>
0.0215

>  <oscillator_strength_4>
0.0047

>  <open_babel_can_smiles>
CCCCCC(=O)c1ccco1

>  <mulliken_charges>
26
1   -0.441787
2   -0.247507
3   -0.251914
4   -0.249075
5   -0.187319
6   -0.364597
7   -0.162946
8   0.101135
9   0.39337
10   0.281242
11   -0.479336
12   -0.442481
13   0.139935
14   0.138573
15   0.14401
16   0.125899
17   0.13534
18   0.15169
19   0.118748
20   0.125772
21   0.152805
22   0.152781
23   0.162799
24   0.16732
25   0.169772
26   0.165769

>  <lowdin_charges>
26
1   -0.447301
2   -0.274032
3   -0.280572
4   -0.275368
5   -0.200946
6   -0.309648
7   -0.157827
8   -0.058677
9   0.149114
10   0.022258
11   -0.250872
12   -0.091062
13   0.149261
14   0.145931
15   0.148547
16   0.137468
17   0.14284
18   0.150622
19   0.134231
20   0.142703
21   0.1549
22   0.174708
23   0.164074
24   0.169383
25   0.185
26   0.175265

$$$$

