PCCDB-ID:  43970
public computational chemistry database (PCCDB) project, http://pccdb.org

 15 14  0  0  1  0  0  0  0  0999 V2000
    1.3882   -1.0894   -0.4799 C   0  0  0  0  0  0  0  0  0  0  0  0
    2.2297    0.1178   -0.1039 C   0  0  0  0  0  0  0  0  0  0  0  0
    4.5048   -0.5598   -0.5384 C   0  0  1  0  0  0  0  0  0  0  0  0
    5.6022   -0.6488   -1.2038 N   0  0  0  0  0  0  0  0  0  0  0  0
    5.6005    0.0444   -2.4524 N   0  0  0  0  0  0  0  0  0  0  0  0
    4.3987   -1.2216    0.6253 O   0  0  0  0  0  0  0  0  0  0  0  0
    6.3750    0.9832   -2.5333 O   0  0  0  0  0  0  0  0  0  0  0  0
    4.9033   -0.4130   -3.3470 O   0  0  0  0  0  0  0  0  0  0  0  0
    3.4608    0.1706   -0.8832 O   0  0  0  0  0  0  0  0  0  0  0  0
    0.4320   -1.0464    0.0537 H   0  0  0  0  0  0  0  0  0  0  0  0
    1.8897   -2.0219   -0.2055 H   0  0  0  0  0  0  0  0  0  0  0  0
    1.1848   -1.0985   -1.5548 H   0  0  0  0  0  0  0  0  0  0  0  0
    2.4797    0.1345    0.9589 H   0  0  0  0  0  0  0  0  0  0  0  0
    1.7328    1.0529   -0.3679 H   0  0  0  0  0  0  0  0  0  0  0  0
    5.2376   -1.7004    0.7539 H   0  0  0  0  0  0  0  0  0  0  0  0
  1 11  1  0  0  0  0
  1  2  1  0  0  0  0
  1 10  1  0  0  0  0
  2 13  1  0  0  0  0
  3  4  1  1  0  0  0
  3  6  1  0  0  0  0
  5  4  1  0  0  0  0
  6 15  1  0  0  0  0
  7  5  2  0  0  0  0
  8  5  2  0  0  0  0
  9  3  1  0  0  0  0
  9  2  1  0  0  0  0
 12  1  1  0  0  0  0
 14  2  1  0  0  0  0
M  RAD  2   3   2   4   2
M  END
>  <HBA>
3

>  <HBD>
1

>  <TPSA>
84.15

>  <cid>
43970

>  <dipole>
5.94

>  <excitation_energy_1>
3.917

>  <excitation_energy_2>
4.896

>  <excitation_energy_3>
5.525

>  <excitation_energy_4>
6.294

>  <homo_energy>
-7.168

>  <homo_lumo_gap>
5.755

>  <logP>
0.838

>  <lumo_energy>
-1.412

>  <melting_point>
56.14

>  <molecular_refractivity>
29.12

>  <oscillator_strength_1>
0.0032

>  <oscillator_strength_2>
0.0076

>  <oscillator_strength_3>
0.0164

>  <oscillator_strength_4>
0.0086

>  <open_babel_can_smiles>
CCO[C]([N]N(=O)=O)O

>  <mulliken_charges>
15
1   -0.466392
2   -0.05142
3   0.813155
4   -0.39542
5   0.551889
6   -0.588486
7   -0.361184
8   -0.367661
9   -0.450795
10   0.161473
11   0.17264
12   0.18092
13   0.179761
14   0.178172
15   0.443352

>  <lowdin_charges>
15
1   -0.453559
2   -0.114281
3   0.215549
4   -0.22419
5   0.339274
6   -0.339665
7   -0.227263
8   -0.241278
9   -0.162594
10   0.165594
11   0.163836
12   0.167119
13   0.159584
14   0.166715
15   0.385157

$$$$

