PCCDB-ID:  64964
public computational chemistry database (PCCDB) project, http://pccdb.org

 38 38  0  0  0  0  0  0  0  0999 V2000
   -0.9048    2.5061    0.1914 C   0  0  0  0  0  0  0  0  0  0  0  0
    1.2523   -2.2503   -0.6085 C   0  0  0  0  0  0  0  0  0  0  0  0
   -1.5238    1.1620   -0.2106 C   0  0  0  0  0  0  0  0  0  0  0  0
    0.0940    3.0631   -0.8625 C   0  0  0  0  0  0  0  0  0  0  0  0
   -0.1199   -2.9412   -0.6946 C   0  0  0  0  0  0  0  0  0  0  0  0
    1.4950   -1.5906    0.7623 C   0  0  0  0  0  0  0  0  0  0  0  0
   -2.9664   -0.6941    0.5593 C   0  0  0  0  0  0  0  0  0  0  0  0
    1.9472    1.3501   -0.7159 C   0  0  0  0  0  0  0  0  0  0  0  0
   -2.0889   -1.9514    0.4982 C   0  0  0  0  0  0  0  0  0  0  0  0
    2.1927    0.7988    0.7105 C   0  0  0  0  0  0  0  0  0  0  0  0
   -2.2298    0.5253    0.9049 N   0  0  0  0  0  0  0  0  0  0  0  0
    1.5197    2.7517   -0.7471 N   0  0  0  0  0  0  0  0  0  0  0  0
   -1.2154   -1.9583   -0.6755 N   0  0  0  0  0  0  0  0  0  0  0  0
    2.5704   -0.6024    0.8566 N   0  0  0  0  0  0  0  0  0  0  0  0
   -0.4077    2.4080    1.1645 H   0  0  0  0  0  0  0  0  0  0  0  0
   -1.7135    3.2393    0.3349 H   0  0  0  0  0  0  0  0  0  0  0  0
    1.3009   -1.4969   -1.4034 H   0  0  0  0  0  0  0  0  0  0  0  0
    2.0464   -2.9844   -0.8126 H   0  0  0  0  0  0  0  0  0  0  0  0
   -0.7570    0.4626   -0.5445 H   0  0  0  0  0  0  0  0  0  0  0  0
   -2.1865    1.3255   -1.0860 H   0  0  0  0  0  0  0  0  0  0  0  0
    0.0290    4.1579   -0.8662 H   0  0  0  0  0  0  0  0  0  0  0  0
   -0.2377    2.7428   -1.8608 H   0  0  0  0  0  0  0  0  0  0  0  0
   -0.2297   -3.6653    0.1283 H   0  0  0  0  0  0  0  0  0  0  0  0
   -0.1676   -3.5264   -1.6222 H   0  0  0  0  0  0  0  0  0  0  0  0
    1.6826   -2.3904    1.4963 H   0  0  0  0  0  0  0  0  0  0  0  0
    0.5778   -1.0871    1.0836 H   0  0  0  0  0  0  0  0  0  0  0  0
   -3.7180   -0.8570    1.3416 H   0  0  0  0  0  0  0  0  0  0  0  0
   -3.5222   -0.5990   -0.3965 H   0  0  0  0  0  0  0  0  0  0  0  0
    1.2017    0.7470   -1.2422 H   0  0  0  0  0  0  0  0  0  0  0  0
    2.8849    1.2457   -1.2865 H   0  0  0  0  0  0  0  0  0  0  0  0
   -2.7470   -2.8418    0.5472 H   0  0  0  0  0  0  0  0  0  0  0  0
   -1.4635   -1.9688    1.3963 H   0  0  0  0  0  0  0  0  0  0  0  0
    1.2962    0.9567    1.3198 H   0  0  0  0  0  0  0  0  0  0  0  0
    2.9843    1.4145    1.1671 H   0  0  0  0  0  0  0  0  0  0  0  0
   -2.8896    1.1968    1.2954 H   0  0  0  0  0  0  0  0  0  0  0  0
    1.9263    3.2569    0.0371 H   0  0  0  0  0  0  0  0  0  0  0  0
   -1.7836   -2.0493   -1.5127 H   0  0  0  0  0  0  0  0  0  0  0  0
    3.3614   -0.8433    0.2640 H   0  0  0  0  0  0  0  0  0  0  0  0
  1 16  1  0  0  0  0
  1 15  1  0  0  0  0
  2  6  1  0  0  0  0
  3  1  1  0  0  0  0
  3 11  1  0  0  0  0
  4 12  1  0  0  0  0
  4  1  1  0  0  0  0
  5 13  1  0  0  0  0
  5  2  1  0  0  0  0
  5 23  1  0  0  0  0
  6 14  1  0  0  0  0
  6 26  1  0  0  0  0
  6 25  1  0  0  0  0
  7 11  1  0  0  0  0
  7 27  1  0  0  0  0
  8 10  1  0  0  0  0
  9 31  1  0  0  0  0
  9  7  1  0  0  0  0
  9 32  1  0  0  0  0
 10 14  1  0  0  0  0
 10 34  1  0  0  0  0
 10 33  1  0  0  0  0
 11 35  1  0  0  0  0
 12  8  1  0  0  0  0
 12 36  1  0  0  0  0
 13  9  1  0  0  0  0
 17  2  1  0  0  0  0
 18  2  1  0  0  0  0
 19  3  1  0  0  0  0
 20  3  1  0  0  0  0
 21  4  1  0  0  0  0
 22  4  1  0  0  0  0
 24  5  1  0  0  0  0
 28  7  1  0  0  0  0
 29  8  1  0  0  0  0
 30  8  1  0  0  0  0
 37 13  1  0  0  0  0
 38 14  1  0  0  0  0
M  END
>  <HBA>
4

>  <HBD>
4

>  <TPSA>
48.12

>  <cid>
64964

>  <dipole>
2.29

>  <excitation_energy_1>
4.826

>  <excitation_energy_2>
4.851

>  <excitation_energy_3>
4.921

>  <excitation_energy_4>
5.067

>  <homo_energy>
-5.023

>  <homo_lumo_gap>
7.189

>  <logP>
0.454

>  <lumo_energy>
2.166

>  <melting_point>
102.08

>  <molecular_refractivity>
74.94

>  <oscillator_strength_1>
0.0019

>  <oscillator_strength_2>
0.0142

>  <oscillator_strength_3>
0.007

>  <oscillator_strength_4>
0.0021

>  <open_babel_can_smiles>
C1CNCCNCCCNCCNC1

>  <mulliken_charges>
38
1   -0.278897
2   -0.247481
3   -0.134102
4   -0.142194
5   -0.148393
6   -0.133664
7   -0.132606
8   -0.133687
9   -0.112111
10   -0.1575
11   -0.554978
12   -0.551248
13   -0.55431
14   -0.556659
15   0.143524
16   0.118085
17   0.138169
18   0.117116
19   0.189783
20   0.097776
21   0.133691
22   0.139316
23   0.130779
24   0.128447
25   0.126899
26   0.165639
27   0.130666
28   0.104293
29   0.14833
30   0.121489
31   0.107543
32   0.155826
33   0.156653
34   0.125184
35   0.289281
36   0.288237
37   0.294414
38   0.286693

>  <lowdin_charges>
38
1   -0.306079
2   -0.301618
3   -0.218085
4   -0.200119
5   -0.2023
6   -0.210767
7   -0.205374
8   -0.228325
9   -0.209962
10   -0.223744
11   -0.365459
12   -0.366521
13   -0.367535
14   -0.364262
15   0.144683
16   0.136419
17   0.143423
18   0.135094
19   0.15742
20   0.110237
21   0.141716
22   0.139626
23   0.135
24   0.139693
25   0.134439
26   0.155436
27   0.145569
28   0.114565
29   0.14719
30   0.130416
31   0.117469
32   0.150409
33   0.148915
34   0.13524
35   0.251296
36   0.250522
37   0.254535
38   0.25084

$$$$

