PCCDB-ID:  11468
public computational chemistry database (PCCDB) project, http://pccdb.org

 29 29  0  0  1  0  0  0  0  0999 V2000
    3.3773    0.2017    1.1631 C   0  0  0  0  0  0  0  0  0  0  0  0
    1.0382    0.2249    0.1853 C   0  0  0  0  0  0  0  0  0  0  0  0
    2.3691    1.3205   -4.6096 C   0  0  0  0  0  0  0  0  0  0  0  0
    3.5517   -0.5850   -2.2620 C   0  0  0  0  0  0  0  0  0  0  0  0
    3.0456    1.7676   -1.6377 C   0  0  0  0  0  0  0  0  0  0  0  0
    4.1415   -0.1932   -3.5954 C   0  0  0  0  0  0  0  0  0  0  0  0
    3.9537    2.1689   -2.8089 C   0  0  0  0  0  0  0  0  0  0  0  0
    2.4982   -0.2171   -0.0328 C   0  0  0  0  0  0  0  0  0  0  0  0
    3.0609    0.2760   -1.3585 C   0  0  0  0  0  0  0  0  0  0  0  0
    3.7857    1.2455   -4.0216 C   0  0  2  0  0  0  0  0  0  0  0  0
    4.7287    1.7235   -4.9932 O   0  0  0  0  0  0  0  0  0  0  0  0
    2.9911   -0.2317    2.0936 H   0  0  0  0  0  0  0  0  0  0  0  0
    3.3949    1.2905    1.2925 H   0  0  0  0  0  0  0  0  0  0  0  0
    4.4102   -0.1389    1.0317 H   0  0  0  0  0  0  0  0  0  0  0  0
    0.6344   -0.2202    1.1023 H   0  0  0  0  0  0  0  0  0  0  0  0
    0.4006   -0.0848   -0.6507 H   0  0  0  0  0  0  0  0  0  0  0  0
    0.9566    1.3139    0.2864 H   0  0  0  0  0  0  0  0  0  0  0  0
    1.6175    0.9307   -3.9157 H   0  0  0  0  0  0  0  0  0  0  0  0
    2.3077    0.7206   -5.5275 H   0  0  0  0  0  0  0  0  0  0  0  0
    2.1156    2.3551   -4.8644 H   0  0  0  0  0  0  0  0  0  0  0  0
    3.5490   -1.6508   -2.0312 H   0  0  0  0  0  0  0  0  0  0  0  0
    2.0125    2.0899   -1.8374 H   0  0  0  0  0  0  0  0  0  0  0  0
    3.3497    2.3237   -0.7412 H   0  0  0  0  0  0  0  0  0  0  0  0
    3.8165   -0.9052   -4.3702 H   0  0  0  0  0  0  0  0  0  0  0  0
    5.2383   -0.2701   -3.5574 H   0  0  0  0  0  0  0  0  0  0  0  0
    5.0048    2.1195   -2.4985 H   0  0  0  0  0  0  0  0  0  0  0  0
    3.7588    3.2041   -3.1127 H   0  0  0  0  0  0  0  0  0  0  0  0
    2.5063   -1.3152   -0.0716 H   0  0  0  0  0  0  0  0  0  0  0  0
    4.6468    1.1579   -5.7781 H   0  0  0  0  0  0  0  0  0  0  0  0
  1 13  1  0  0  0  0
  1 12  1  0  0  0  0
  2 17  1  0  0  0  0
  2 15  1  0  0  0  0
  3 10  1  0  0  0  0
  3 18  1  0  0  0  0
  4 21  1  0  0  0  0
  4  9  2  0  0  0  0
  5  9  1  0  0  0  0
  5 23  1  0  0  0  0
  6 25  1  0  0  0  0
  6  4  1  0  0  0  0
  7 26  1  0  0  0  0
  7  5  1  0  0  0  0
  8  2  1  0  0  0  0
  8  1  1  0  0  0  0
  9  8  1  0  0  0  0
 10 11  1  6  0  0  0
 10  6  1  0  0  0  0
 10  7  1  0  0  0  0
 14  1  1  0  0  0  0
 16  2  1  0  0  0  0
 19  3  1  0  0  0  0
 20  3  1  0  0  0  0
 22  5  1  0  0  0  0
 24  6  1  0  0  0  0
 27  7  1  0  0  0  0
 28  8  1  0  0  0  0
 29 11  1  0  0  0  0
M  END
>  <HBA>
1

>  <HBD>
1

>  <TPSA>
20.23

>  <cid>
11468

>  <dipole>
1.41

>  <excitation_energy_1>
5.626

>  <excitation_energy_2>
6.0

>  <excitation_energy_3>
6.181

>  <excitation_energy_4>
6.311

>  <homo_energy>
-6.234

>  <homo_lumo_gap>
7.08

>  <logP>
2.504

>  <lumo_energy>
0.846

>  <melting_point>
36.21

>  <molecular_refractivity>
48.8

>  <oscillator_strength_1>
0.0054

>  <oscillator_strength_2>
0.0054

>  <oscillator_strength_3>
0.0076

>  <oscillator_strength_4>
0.0091

>  <open_babel_can_smiles>
CC(C1=CC[C@](CC1)(C)O)C

>  <mulliken_charges>
29
1   -0.443958
2   -0.44755
3   -0.463092
4   -0.193102
5   -0.353837
6   -0.319728
7   -0.273005
8   -0.145189
9   0.202597
10   0.318529
11   -0.651027
12   0.14101
13   0.142026
14   0.147616
15   0.141805
16   0.145192
17   0.143852
18   0.152466
19   0.126493
20   0.151666
21   0.112286
22   0.148774
23   0.144894
24   0.123882
25   0.155338
26   0.146422
27   0.138357
28   0.126335
29   0.380948

>  <lowdin_charges>
29
1   -0.44196
2   -0.445162
3   -0.458968
4   -0.194524
5   -0.280422
6   -0.292203
7   -0.273347
8   -0.114422
9   -0.018437
10   0.119926
11   -0.461747
12   0.14895
13   0.143854
14   0.150567
15   0.149777
16   0.150719
17   0.145234
18   0.157861
19   0.143012
20   0.153762
21   0.145331
22   0.148042
23   0.152046
24   0.142344
25   0.154261
26   0.150086
27   0.148482
28   0.139038
29   0.3379

$$$$

