PCCDB-ID:  66600
public computational chemistry database (PCCDB) project, http://pccdb.org

 24 24  0  0  0  0  0  0  0  0999 V2000
    5.2348    0.8701    0.8788 C   0  0  0  0  0  0  0  0  0  0  0  0
    5.2980   -2.6010   -4.3348 C   0  0  0  0  0  0  0  0  0  0  0  0
    4.3739    0.3682   -0.2789 C   0  0  0  0  0  0  0  0  0  0  0  0
    5.4451   -0.6221   -6.0703 C   0  0  0  0  0  0  0  0  0  0  0  0
    5.2318    0.9059   -5.9731 C   0  0  0  0  0  0  0  0  0  0  0  0
    5.1632   -1.1552   -4.6806 C   0  0  0  0  0  0  0  0  0  0  0  0
    4.7380    1.1513   -4.5451 C   0  0  0  0  0  0  0  0  0  0  0  0
    5.1197    0.3452   -1.5929 C   0  0  0  0  0  0  0  0  0  0  0  0
    4.7859   -0.1588   -3.8612 C   0  0  0  0  0  0  0  0  0  0  0  0
    4.3642    2.2028   -4.0634 O   0  0  0  0  0  0  0  0  0  0  0  0
    6.2157    0.7941   -1.8097 O   0  0  0  0  0  0  0  0  0  0  0  0
    4.3662   -0.2994   -2.5554 O   0  0  0  0  0  0  0  0  0  0  0  0
    4.6533    0.8877    1.8061 H   0  0  0  0  0  0  0  0  0  0  0  0
    5.6035    1.8803    0.6805 H   0  0  0  0  0  0  0  0  0  0  0  0
    6.1057    0.2249    1.0308 H   0  0  0  0  0  0  0  0  0  0  0  0
    6.3338   -2.9367   -4.4789 H   0  0  0  0  0  0  0  0  0  0  0  0
    4.6728   -3.2196   -4.9924 H   0  0  0  0  0  0  0  0  0  0  0  0
    5.0108   -2.7940   -3.2981 H   0  0  0  0  0  0  0  0  0  0  0  0
    3.4919    1.0060   -0.4249 H   0  0  0  0  0  0  0  0  0  0  0  0
    3.9819   -0.6388   -0.0899 H   0  0  0  0  0  0  0  0  0  0  0  0
    6.4639   -0.8847   -6.3843 H   0  0  0  0  0  0  0  0  0  0  0  0
    4.7713   -1.0872   -6.8030 H   0  0  0  0  0  0  0  0  0  0  0  0
    4.5011    1.2898   -6.6919 H   0  0  0  0  0  0  0  0  0  0  0  0
    6.1595    1.4676   -6.1285 H   0  0  0  0  0  0  0  0  0  0  0  0
  1 15  1  0  0  0  0
  1 13  1  0  0  0  0
  2 18  1  0  0  0  0
  3 20  1  0  0  0  0
  3  1  1  0  0  0  0
  4  5  1  0  0  0  0
  4  6  1  0  0  0  0
  5  7  1  0  0  0  0
  6  2  1  0  0  0  0
  6  9  2  0  0  0  0
  7 10  2  0  0  0  0
  7  9  1  0  0  0  0
  8  3  1  0  0  0  0
  9 12  1  0  0  0  0
 11  8  2  0  0  0  0
 12  8  1  0  0  0  0
 14  1  1  0  0  0  0
 16  2  1  0  0  0  0
 17  2  1  0  0  0  0
 19  3  1  0  0  0  0
 21  4  1  0  0  0  0
 22  4  1  0  0  0  0
 23  5  1  0  0  0  0
 24  5  1  0  0  0  0
M  END
>  <HBA>
3

>  <HBD>
0

>  <TPSA>
43.37

>  <cid>
66600

>  <dipole>
3.88

>  <excitation_energy_1>
3.91

>  <excitation_energy_2>
5.366

>  <excitation_energy_3>
5.64

>  <excitation_energy_4>
5.803

>  <homo_energy>
-6.539

>  <homo_lumo_gap>
5.388

>  <logP>
1.577

>  <lumo_energy>
-1.151

>  <melting_point>
44.49

>  <molecular_refractivity>
44.27

>  <oscillator_strength_1>
0.0008

>  <oscillator_strength_2>
0.1317

>  <oscillator_strength_3>
0.1722

>  <oscillator_strength_4>
0.0126

>  <open_babel_can_smiles>
CCC(=O)OC1=C(C)CCC1=O

>  <mulliken_charges>
24
1   -0.439565
2   -0.524545
3   -0.360149
4   -0.345299
5   -0.373694
6   0.131259
7   0.427341
8   0.628091
9   0.273449
10   -0.471704
11   -0.449741
12   -0.532909
13   0.145246
14   0.171874
15   0.158358
16   0.172495
17   0.168048
18   0.17645
19   0.188552
20   0.170421
21   0.162283
22   0.161154
23   0.177216
24   0.18537

>  <lowdin_charges>
24
1   -0.439157
2   -0.440445
3   -0.297571
4   -0.273344
5   -0.30726
6   0.016614
7   0.140621
8   0.212895
9   0.031641
10   -0.24045
11   -0.23344
12   -0.162551
13   0.153332
14   0.163532
15   0.157709
16   0.168649
17   0.168188
18   0.16896
19   0.178028
20   0.167148
21   0.157985
22   0.158983
23   0.172991
24   0.176941

$$$$

