PCCDB-ID:  8998
public computational chemistry database (PCCDB) project, http://pccdb.org

 18 17  0  0  1  0  0  0  0  0999 V2000
    1.1655   -0.6503   -0.6577 C   0  0  0  0  0  0  0  0  0  0  0  0
    3.1415   -0.9678    1.7345 C   0  0  0  0  0  0  0  0  0  0  0  0
    0.7289   -0.9301    0.7806 C   0  0  1  0  0  0  0  0  0  0  0  0
    1.7035   -0.4687    1.8753 C   0  0  2  0  0  0  0  0  0  0  0  0
    0.0076   -0.9284   -1.4594 O   0  0  0  0  0  0  0  0  0  0  0  0
    3.8128   -0.3415    0.6531 O   0  0  0  0  0  0  0  0  0  0  0  0
   -0.4824   -0.2152    1.0407 O   0  0  0  0  0  0  0  0  0  0  0  0
    1.7739    0.9554    1.8921 O   0  0  0  0  0  0  0  0  0  0  0  0
    2.0149   -1.2803   -0.9426 H   0  0  0  0  0  0  0  0  0  0  0  0
    1.4653    0.4008   -0.7545 H   0  0  0  0  0  0  0  0  0  0  0  0
    3.1578   -2.0475    1.5492 H   0  0  0  0  0  0  0  0  0  0  0  0
    3.6689   -0.7825    2.6832 H   0  0  0  0  0  0  0  0  0  0  0  0
    0.5561   -2.0128    0.8897 H   0  0  0  0  0  0  0  0  0  0  0  0
    1.2972   -0.8365    2.8318 H   0  0  0  0  0  0  0  0  0  0  0  0
    0.1637   -0.5834   -2.3504 H   0  0  0  0  0  0  0  0  0  0  0  0
    3.6135    0.6056    0.7567 H   0  0  0  0  0  0  0  0  0  0  0  0
   -0.9875   -0.2660    0.2087 H   0  0  0  0  0  0  0  0  0  0  0  0
    0.8579    1.2495    1.7341 H   0  0  0  0  0  0  0  0  0  0  0  0
  1  3  1  0  0  0  0
  2  4  1  0  0  0  0
  2 12  1  0  0  0  0
  3 13  1  1  0  0  0
  3  7  1  0  0  0  0
  3  4  1  0  0  0  0
  4  8  1  0  0  0  0
  4 14  1  1  0  0  0
  5  1  1  0  0  0  0
  6 16  1  0  0  0  0
  6  2  1  0  0  0  0
  9  1  1  0  0  0  0
 10  1  1  0  0  0  0
 11  2  1  0  0  0  0
 15  5  1  0  0  0  0
 17  7  1  0  0  0  0
 18  8  1  0  0  0  0
M  END
>  <HBA>
4

>  <HBD>
4

>  <TPSA>
80.92

>  <cid>
8998

>  <dipole>
1.75

>  <excitation_energy_1>
6.536

>  <excitation_energy_2>
6.63

>  <excitation_energy_3>
6.777

>  <excitation_energy_4>
6.827

>  <homo_energy>
-7.192

>  <homo_lumo_gap>
8.67

>  <logP>
-2.307

>  <lumo_energy>
1.478

>  <melting_point>
49.24

>  <molecular_refractivity>
25.99

>  <oscillator_strength_1>
0.0012

>  <oscillator_strength_2>
0.003

>  <oscillator_strength_3>
0.0141

>  <oscillator_strength_4>
0.0084

>  <open_babel_can_smiles>
OC[C@H]([C@H](CO)O)O

>  <mulliken_charges>
18
1   -0.064429
2   -0.044122
3   0.115387
4   0.112085
5   -0.642865
6   -0.626399
7   -0.665102
8   -0.659668
9   0.159076
10   0.130257
11   0.144159
12   0.137962
13   0.128383
14   0.129659
15   0.404618
16   0.409112
17   0.417471
18   0.414416

>  <lowdin_charges>
18
1   -0.160973
2   -0.139786
3   -0.022926
4   -0.025692
5   -0.479456
6   -0.465293
7   -0.475206
8   -0.476011
9   0.152045
10   0.134497
11   0.146441
12   0.13844
13   0.134878
14   0.139784
15   0.352078
16   0.345456
17   0.351876
18   0.349847

$$$$

