PCCDB-ID:  38755
public computational chemistry database (PCCDB) project, http://pccdb.org

 26 25  0  0  1  0  0  0  0  0999 V2000
    0.7265    1.9608   -0.7727 C   0  0  0  0  0  0  0  0  0  0  0  0
    4.9191   -1.5113   -0.4178 C   0  0  0  0  0  0  0  0  0  0  0  0
    2.2437    2.1726   -0.8144 C   0  0  0  0  0  0  0  0  0  0  0  0
    5.2266   -0.3697   -1.3942 C   0  0  0  0  0  0  0  0  0  0  0  0
    3.0038    0.8918   -1.1900 C   0  0  0  0  0  0  0  0  0  0  0  0
    5.1498    2.1447   -1.8801 C   0  0  0  0  0  0  0  0  0  0  0  0
    4.5387    0.9725   -1.0582 C   0  0  2  0  0  0  0  0  0  0  0  0
    4.8125    2.0928   -3.3644 C   0  0  0  0  0  0  0  0  0  0  0  0
    3.8889    2.6804   -3.8718 O   0  0  0  0  0  0  0  0  0  0  0  0
    5.6054    1.2932   -4.1358 O   0  0  0  0  0  0  0  0  0  0  0  0
    0.2031    2.8876   -0.5122 H   0  0  0  0  0  0  0  0  0  0  0  0
    0.4490    1.2007   -0.0316 H   0  0  0  0  0  0  0  0  0  0  0  0
    0.3484    1.6291   -1.7472 H   0  0  0  0  0  0  0  0  0  0  0  0
    5.4958   -2.4065   -0.6756 H   0  0  0  0  0  0  0  0  0  0  0  0
    3.8604   -1.7893   -0.4314 H   0  0  0  0  0  0  0  0  0  0  0  0
    5.1792   -1.2322    0.6106 H   0  0  0  0  0  0  0  0  0  0  0  0
    2.5893    2.5302    0.1671 H   0  0  0  0  0  0  0  0  0  0  0  0
    2.4744    2.9601   -1.5406 H   0  0  0  0  0  0  0  0  0  0  0  0
    4.9493   -0.6789   -2.4115 H   0  0  0  0  0  0  0  0  0  0  0  0
    6.3168   -0.2112   -1.4001 H   0  0  0  0  0  0  0  0  0  0  0  0
    2.7415    0.6102   -2.2198 H   0  0  0  0  0  0  0  0  0  0  0  0
    2.6472    0.0736   -0.5509 H   0  0  0  0  0  0  0  0  0  0  0  0
    6.2394    2.1489   -1.7389 H   0  0  0  0  0  0  0  0  0  0  0  0
    4.7695    3.0973   -1.5056 H   0  0  0  0  0  0  0  0  0  0  0  0
    4.7728    1.2047   -0.0079 H   0  0  0  0  0  0  0  0  0  0  0  0
    6.2968    0.8885   -3.5874 H   0  0  0  0  0  0  0  0  0  0  0  0
  1 11  1  0  0  0  0
  1 12  1  0  0  0  0
  2 16  1  0  0  0  0
  3  1  1  0  0  0  0
  3 17  1  0  0  0  0
  4  7  1  0  0  0  0
  4  2  1  0  0  0  0
  5  7  1  0  0  0  0
  5  3  1  0  0  0  0
  5 22  1  0  0  0  0
  6 23  1  0  0  0  0
  6 24  1  0  0  0  0
  6  7  1  0  0  0  0
  7 25  1  1  0  0  0
  8  6  1  0  0  0  0
  9  8  2  0  0  0  0
 10 26  1  0  0  0  0
 10  8  1  0  0  0  0
 13  1  1  0  0  0  0
 14  2  1  0  0  0  0
 15  2  1  0  0  0  0
 18  3  1  0  0  0  0
 19  4  1  0  0  0  0
 20  4  1  0  0  0  0
 21  5  1  0  0  0  0
M  END
>  <HBA>
2

>  <HBD>
1

>  <TPSA>
37.3

>  <cid>
38755

>  <dipole>
4.17

>  <excitation_energy_1>
5.53

>  <excitation_energy_2>
6.507

>  <excitation_energy_3>
7.229

>  <excitation_energy_4>
7.286

>  <homo_energy>
-7.241

>  <homo_lumo_gap>
7.426

>  <logP>
2.287

>  <lumo_energy>
0.185

>  <melting_point>
49.27

>  <molecular_refractivity>
42.34

>  <oscillator_strength_1>
0.0015

>  <oscillator_strength_2>
0.0125

>  <oscillator_strength_3>
0.0025

>  <oscillator_strength_4>
0.009

>  <open_babel_can_smiles>
CCC[C@H](CC(=O)O)CC

>  <mulliken_charges>
26
1   -0.444325
2   -0.449202
3   -0.26439
4   -0.281624
5   -0.260288
6   -0.387234
7   -0.074544
8   0.592919
9   -0.441895
10   -0.563629
11   0.143476
12   0.137048
13   0.149813
14   0.14822
15   0.15702
16   0.145808
17   0.122673
18   0.163437
19   0.146345
20   0.117202
21   0.147551
22   0.13396
23   0.140028
24   0.181823
25   0.130254
26   0.409558

>  <lowdin_charges>
26
1   -0.443919
2   -0.443151
3   -0.27941
4   -0.282419
5   -0.281202
6   -0.31774
7   -0.11909
8   0.195441
9   -0.242509
10   -0.361019
11   0.150771
12   0.144309
13   0.150568
14   0.154156
15   0.151676
16   0.147751
17   0.134402
18   0.154815
19   0.144172
20   0.1302
21   0.147026
22   0.14445
23   0.148052
24   0.175011
25   0.140501
26   0.35716

$$$$

