PCCDB-ID:  12073
public computational chemistry database (PCCDB) project, http://pccdb.org

 21 21  0  0  0  0  0  0  0  0999 V2000
    0.9031   -0.0557    0.1926 C   0  0  0  0  0  0  0  0  0  0  0  0
    2.3924    2.4981    0.0157 C   0  0  0  0  0  0  0  0  0  0  0  0
    3.1090   -1.2532   -0.0510 C   0  0  0  0  0  0  0  0  0  0  0  0
    4.4924   -1.2810   -0.2061 C   0  0  0  0  0  0  0  0  0  0  0  0
    4.4988    1.1366   -0.2155 C   0  0  0  0  0  0  0  0  0  0  0  0
    2.4029   -0.0464    0.0242 C   0  0  0  0  0  0  0  0  0  0  0  0
    3.1136    1.1730   -0.0599 C   0  0  0  0  0  0  0  0  0  0  0  0
    5.1972   -0.0757   -0.2894 C   0  0  0  0  0  0  0  0  0  0  0  0
    6.6706   -0.0232   -0.4558 C   0  0  0  0  0  0  0  0  0  0  0  0
    7.2462   -1.2545   -0.5096 O   0  0  0  0  0  0  0  0  0  0  0  0
    7.3311    0.9943   -0.5391 O   0  0  0  0  0  0  0  0  0  0  0  0
    0.5156   -1.0776    0.2365 H   0  0  0  0  0  0  0  0  0  0  0  0
    0.4004    0.4596   -0.6360 H   0  0  0  0  0  0  0  0  0  0  0  0
    0.5972    0.4594    1.1126 H   0  0  0  0  0  0  0  0  0  0  0  0
    3.0958    3.3324   -0.0565 H   0  0  0  0  0  0  0  0  0  0  0  0
    1.8397    2.6065    0.9580 H   0  0  0  0  0  0  0  0  0  0  0  0
    1.6589    2.6079   -0.7937 H   0  0  0  0  0  0  0  0  0  0  0  0
    2.5603   -2.1898    0.0139 H   0  0  0  0  0  0  0  0  0  0  0  0
    5.0219   -2.2255   -0.2621 H   0  0  0  0  0  0  0  0  0  0  0  0
    5.0665    2.0598   -0.2829 H   0  0  0  0  0  0  0  0  0  0  0  0
    8.2006   -1.0891   -0.6196 H   0  0  0  0  0  0  0  0  0  0  0  0
  1 12  1  0  0  0  0
  1 14  1  0  0  0  0
  2 16  1  0  0  0  0
  3 18  1  0  0  0  0
  3  6  1  0  0  0  0
  4  3  2  0  0  0  0
  5  7  1  0  0  0  0
  6  1  1  0  0  0  0
  7  2  1  0  0  0  0
  7  6  2  0  0  0  0
  8  5  2  0  0  0  0
  8  4  1  0  0  0  0
  9  8  1  0  0  0  0
 10  9  1  0  0  0  0
 11  9  2  0  0  0  0
 13  1  1  0  0  0  0
 15  2  1  0  0  0  0
 17  2  1  0  0  0  0
 19  4  1  0  0  0  0
 20  5  1  0  0  0  0
 21 10  1  0  0  0  0
M  END
>  <HBA>
2

>  <HBD>
1

>  <TPSA>
37.3

>  <cid>
12073

>  <dipole>
2.33

>  <excitation_energy_1>
4.739

>  <excitation_energy_2>
4.918

>  <excitation_energy_3>
5.158

>  <excitation_energy_4>
6.145

>  <homo_energy>
-6.664

>  <homo_lumo_gap>
5.519

>  <logP>
2.002

>  <lumo_energy>
-1.146

>  <melting_point>
104.32

>  <molecular_refractivity>
43.33

>  <oscillator_strength_1>
0.0273

>  <oscillator_strength_2>
0.0

>  <oscillator_strength_3>
0.2846

>  <oscillator_strength_4>
0.217

>  <open_babel_can_smiles>
OC(=O)c1ccc(c(c1)C)C

>  <mulliken_charges>
21
1   -0.534136
2   -0.533147
3   -0.191378
4   -0.162598
5   -0.222832
6   0.141854
7   0.127945
8   0.078234
9   0.534639
10   -0.585984
11   -0.478399
12   0.158864
13   0.165045
14   0.165068
15   0.163382
16   0.161144
17   0.161435
18   0.128006
19   0.156705
20   0.156267
21   0.409885

>  <lowdin_charges>
21
1   -0.442461
2   -0.442013
3   -0.168286
4   -0.141907
5   -0.140618
6   0.010146
7   -0.008678
8   -0.052352
9   0.196277
10   -0.362528
11   -0.277742
12   0.15858
13   0.16317
14   0.162482
15   0.162137
16   0.159593
17   0.160262
18   0.157318
19   0.172703
20   0.173587
21   0.360329

$$$$

