PCCDB-ID:  67511
public computational chemistry database (PCCDB) project, http://pccdb.org

 12 13  0  0  1  0  0  0  0  0999 V2000
    0.6424    1.2509   -0.1819 C   0  0  0  0  0  0  0  0  0  0  0  0
   -1.3799    0.0804   -0.1895 C   0  0  0  0  0  0  0  0  0  0  0  0
    0.9617   -0.1721    0.2231 C   0  0  1  0  0  0  0  0  0  0  0  0
   -0.3072   -0.9063    0.2189 C   0  0  2  0  0  0  0  0  0  0  0  0
   -0.6832    1.2126   -0.7109 O   0  0  0  0  0  0  0  0  0  0  0  0
    0.6702   -1.1260   -0.8099 O   0  0  0  0  0  0  0  0  0  0  0  0
    1.2999    1.6436   -0.9647 H   0  0  0  0  0  0  0  0  0  0  0  0
    0.7099    1.9091    0.7007 H   0  0  0  0  0  0  0  0  0  0  0  0
   -1.9899    0.3469    0.6900 H   0  0  0  0  0  0  0  0  0  0  0  0
   -2.0428   -0.2918   -0.9776 H   0  0  0  0  0  0  0  0  0  0  0  0
    1.7977   -0.4034    0.8803 H   0  0  0  0  0  0  0  0  0  0  0  0
   -0.5266   -1.7481    0.8727 H   0  0  0  0  0  0  0  0  0  0  0  0
  1  3  1  0  0  0  0
  1  8  1  0  0  0  0
  2  4  1  0  0  0  0
  2  9  1  0  0  0  0
  3 11  1  1  0  0  0
  4  3  1  0  0  0  0
  4 12  1  1  0  0  0
  5  2  1  0  0  0  0
  5  1  1  0  0  0  0
  6  4  1  0  0  0  0
  6  3  1  0  0  0  0
  7  1  1  0  0  0  0
 10  2  1  0  0  0  0
M  END
>  <HBA>
2

>  <HBD>
0

>  <TPSA>
21.76

>  <cid>
67511

>  <dipole>
2.44

>  <excitation_energy_1>
6.583

>  <excitation_energy_2>
6.841

>  <excitation_energy_3>
7.028

>  <excitation_energy_4>
7.113

>  <homo_energy>
-6.955

>  <homo_lumo_gap>
9.568

>  <logP>
-0.216

>  <lumo_energy>
2.612

>  <melting_point>
2.02

>  <molecular_refractivity>
19.28

>  <oscillator_strength_1>
0.04

>  <oscillator_strength_2>
0.0092

>  <oscillator_strength_3>
0.0117

>  <oscillator_strength_4>
0.0054

>  <open_babel_can_smiles>
O1C[C@@H]2[C@H](C1)O2

>  <mulliken_charges>
12
1   -0.017255
2   -0.017215
3   0.037298
4   0.03705
5   -0.481472
6   -0.441075
7   0.159501
8   0.128564
9   0.128603
10   0.159565
11   0.153216
12   0.15322

>  <lowdin_charges>
12
1   -0.135474
2   -0.13589
3   -0.044834
4   -0.04678
5   -0.274527
6   -0.274978
7   0.159065
8   0.136061
9   0.1363
10   0.15906
11   0.160901
12   0.161095

$$$$

