PCCDB-ID:  1100
public computational chemistry database (PCCDB) project, http://pccdb.org

  6  5  0  0  0  0  0  0  0  0999 V2000
    1.0240    0.1516   -0.1960 O   0  0  0  0  0  0  0  0  0  0  0  0
    3.0891    0.6504   -1.5722 O   0  0  0  0  0  0  0  0  0  0  0  0
    3.1303    0.8806    0.9044 O   0  0  0  0  0  0  0  0  0  0  0  0
    2.6829   -0.0667   -0.1132 S   0  0  0  0  0  0  0  0  0  0  0  0
    0.6307   -0.6966   -0.4738 H   0  0  0  0  0  0  0  0  0  0  0  0
    3.2597   -0.0658   -2.2118 H   0  0  0  0  0  0  0  0  0  0  0  0
  1  4  1  0  0  0  0
  2  4  1  0  0  0  0
  4  3  2  0  0  0  0
  5  1  1  0  0  0  0
  6  2  1  0  0  0  0
M  END
>  <HBA>
3

>  <HBD>
2

>  <TPSA>
76.74

>  <cid>
1100

>  <dipole>
5.14

>  <excitation_energy_1>
6.077

>  <excitation_energy_2>
6.235

>  <excitation_energy_3>
6.811

>  <excitation_energy_4>
6.856

>  <homo_energy>
-7.543

>  <homo_lumo_gap>
7.489

>  <logP>
0.547

>  <lumo_energy>
-0.054

>  <melting_point>
99.42

>  <molecular_refractivity>
13.54

>  <oscillator_strength_1>
0.0495

>  <oscillator_strength_2>
0.0379

>  <oscillator_strength_3>
0.0125

>  <oscillator_strength_4>
0.0066

>  <open_babel_can_smiles>
OS(=O)O

>  <mulliken_charges>
6
1   -0.64086
2   -0.641262
3   -0.500049
4   0.948273
5   0.416914
6   0.416984

>  <lowdin_charges>
6
1   -0.604351
2   -0.604179
3   -0.558606
4   1.045067
5   0.360542
6   0.361527

$$$$

