PCCDB-ID:  38220
public computational chemistry database (PCCDB) project, http://pccdb.org

 26 28  0  0  0  0  0  0  0  0999 V2000
   -3.0014   -1.2148    0.0409 C   0  0  0  0  0  0  0  0  0  0  0  0
    3.0165   -1.2147    0.0557 C   0  0  0  0  0  0  0  0  0  0  0  0
   -1.6395   -1.4991    0.0528 C   0  0  0  0  0  0  0  0  0  0  0  0
    1.6538   -1.4986    0.0622 C   0  0  0  0  0  0  0  0  0  0  0  0
   -2.5305    1.1854   -0.0448 C   0  0  0  0  0  0  0  0  0  0  0  0
    0.0060    1.8440   -0.0680 C   0  0  0  0  0  0  0  0  0  0  0  0
    2.5432    1.1907   -0.0354 C   0  0  0  0  0  0  0  0  0  0  0  0
   -4.8568    0.3946   -0.0182 C   0  0  0  0  0  0  0  0  0  0  0  0
   -3.4501    0.1196   -0.0072 C   0  0  0  0  0  0  0  0  0  0  0  0
   -1.1750    0.8966   -0.0334 C   0  0  0  0  0  0  0  0  0  0  0  0
    1.1879    0.8984   -0.0287 C   0  0  0  0  0  0  0  0  0  0  0  0
    3.4370    0.1172    0.0072 C   0  0  0  0  0  0  0  0  0  0  0  0
   -0.7258   -0.4413    0.0163 C   0  0  0  0  0  0  0  0  0  0  0  0
    0.7395   -0.4409    0.0197 C   0  0  0  0  0  0  0  0  0  0  0  0
   -5.9986    0.6188   -0.0271 N   0  0  0  0  0  0  0  0  0  0  0  0
    4.8793    0.4001    0.0001 N   0  0  0  0  0  0  0  0  0  0  0  0
    5.6508   -0.5583    0.0391 O   0  0  0  0  0  0  0  0  0  0  0  0
    5.2303    1.5797   -0.0443 O   0  0  0  0  0  0  0  0  0  0  0  0
   -3.7307   -2.0176    0.0687 H   0  0  0  0  0  0  0  0  0  0  0  0
    3.7603   -2.0011    0.0879 H   0  0  0  0  0  0  0  0  0  0  0  0
   -1.3013   -2.5306    0.0903 H   0  0  0  0  0  0  0  0  0  0  0  0
    1.3167   -2.5302    0.1002 H   0  0  0  0  0  0  0  0  0  0  0  0
   -2.8936    2.2080   -0.0815 H   0  0  0  0  0  0  0  0  0  0  0  0
    0.0042    2.5369    0.7841 H   0  0  0  0  0  0  0  0  0  0  0  0
    0.0078    2.4652   -0.9739 H   0  0  0  0  0  0  0  0  0  0  0  0
    2.9256    2.2042   -0.0714 H   0  0  0  0  0  0  0  0  0  0  0  0
  1  3  1  0  0  0  0
  1 19  1  0  0  0  0
  2  4  1  0  0  0  0
  2 20  1  0  0  0  0
  3 21  1  0  0  0  0
  4 22  1  0  0  0  0
  5 10  2  0  0  0  0
  5  9  1  0  0  0  0
  6 10  1  0  0  0  0
  6 11  1  0  0  0  0
  6 24  1  0  0  0  0
  7 11  2  0  0  0  0
  7 12  1  0  0  0  0
  8  9  1  0  0  0  0
  9  1  2  0  0  0  0
 10 13  1  0  0  0  0
 11 14  1  0  0  0  0
 12  2  2  0  0  0  0
 13 14  1  0  0  0  0
 13  3  2  0  0  0  0
 14  4  2  0  0  0  0
 15  8  3  0  0  0  0
 16 12  1  0  0  0  0
 16 17  2  0  0  0  0
 18 16  2  0  0  0  0
 23  5  1  0  0  0  0
 25  6  1  0  0  0  0
 26  7  1  0  0  0  0
M  END
>  <HBA>
1

>  <HBD>
0

>  <TPSA>
69.61

>  <cid>
38220

>  <dipole>
1.19

>  <excitation_energy_1>
3.66

>  <excitation_energy_2>
3.687

>  <excitation_energy_3>
4.069

>  <excitation_energy_4>
4.212

>  <homo_energy>
-6.893

>  <homo_lumo_gap>
4.074

>  <logP>
3.561

>  <lumo_energy>
-2.819

>  <melting_point>
152.05

>  <molecular_refractivity>
68.43

>  <oscillator_strength_1>
0.6192

>  <oscillator_strength_2>
0.0002

>  <oscillator_strength_3>
0.0241

>  <oscillator_strength_4>
0.0003

>  <open_babel_can_smiles>
N#Cc1ccc2c(c1)Cc1c2ccc(c1)N(=O)=O

>  <mulliken_charges>
26
1   -0.15101
2   -0.166115
3   -0.18931
4   -0.195743
5   -0.21779
6   -0.417659
7   -0.231322
8   0.235108
9   0.145474
10   0.105762
11   0.09756
12   0.285439
13   0.097117
14   0.105088
15   -0.474428
16   0.378974
17   -0.396516
18   -0.393195
19   0.164679
20   0.187023
21   0.150719
22   0.151377
23   0.16165
24   0.191483
25   0.191711
26   0.183923

>  <lowdin_charges>
26
1   -0.131262
2   -0.136719
3   -0.148858
4   -0.149939
5   -0.136862
6   -0.272155
7   -0.142252
8   -0.015857
9   -0.013304
10   0.003646
11   0.00259
12   0.005389
13   -0.000265
14   0.005696
15   -0.112633
16   0.308015
17   -0.246818
18   -0.24697
19   0.178337
20   0.191046
21   0.167523
22   0.167774
23   0.175369
24   0.180104
25   0.180054
26   0.188353

$$$$

