PCCDB-ID:  104
public computational chemistry database (PCCDB) project, http://pccdb.org

 16 16  0  0  0  0  0  0  0  0999 V2000
    0.7529    1.1138    0.0039 C   0  0  0  0  0  0  0  0  0  0  0  0
   -0.7259    1.3590   -0.0656 C   0  0  0  0  0  0  0  0  0  0  0  0
    2.2185   -1.0178   -0.2006 C   0  0  0  0  0  0  0  0  0  0  0  0
    0.9799   -0.1895   -0.1680 C   0  0  0  0  0  0  0  0  0  0  0  0
    2.3207   -2.0968    0.8973 C   0  0  0  0  0  0  0  0  0  0  0  0
   -1.2908   -0.0398   -0.2931 C   0  0  0  0  0  0  0  0  0  0  0  0
    3.3471   -2.3141    1.4883 O   0  0  0  0  0  0  0  0  0  0  0  0
    1.2077   -2.8235    1.1266 O   0  0  0  0  0  0  0  0  0  0  0  0
   -2.4174   -0.4213   -0.4084 O   0  0  0  0  0  0  0  0  0  0  0  0
   -0.2050   -0.9228   -0.3588 O   0  0  0  0  0  0  0  0  0  0  0  0
    1.5107    1.8671    0.1705 H   0  0  0  0  0  0  0  0  0  0  0  0
   -1.0378    2.0153   -0.8884 H   0  0  0  0  0  0  0  0  0  0  0  0
   -1.1573    1.7787    0.8523 H   0  0  0  0  0  0  0  0  0  0  0  0
    3.0984   -0.3797   -0.1078 H   0  0  0  0  0  0  0  0  0  0  0  0
    2.2803   -1.5364   -1.1690 H   0  0  0  0  0  0  0  0  0  0  0  0
    0.4612   -2.4945    0.5891 H   0  0  0  0  0  0  0  0  0  0  0  0
  1 11  1  0  0  0  0
  2  1  1  0  0  0  0
  2 13  1  0  0  0  0
  3  4  1  0  0  0  0
  3 14  1  0  0  0  0
  3  5  1  0  0  0  0
  4  1  2  0  0  0  0
  5  8  1  0  0  0  0
  5  7  2  0  0  0  0
  6  2  1  0  0  0  0
  9  6  2  0  0  0  0
 10  6  1  0  0  0  0
 10  4  1  0  0  0  0
 12  2  1  0  0  0  0
 15  3  1  0  0  0  0
 16  8  1  0  0  0  0
M  END
>  <HBA>
4

>  <HBD>
1

>  <TPSA>
63.6

>  <cid>
104

>  <dipole>
4.9

>  <excitation_energy_1>
5.347

>  <excitation_energy_2>
5.543

>  <excitation_energy_3>
5.553

>  <excitation_energy_4>
6.05

>  <homo_energy>
-7.075

>  <homo_lumo_gap>
6.079

>  <logP>
0.292

>  <lumo_energy>
-0.996

>  <melting_point>
98.83

>  <molecular_refractivity>
31.42

>  <oscillator_strength_1>
0.0534

>  <oscillator_strength_2>
0.0013

>  <oscillator_strength_3>
0.0086

>  <oscillator_strength_4>
0.0025

>  <open_babel_can_smiles>
OC(=O)CC1=CCC(=O)O1

>  <mulliken_charges>
16
1   -0.207732
2   -0.413071
3   -0.470471
4   0.386842
5   0.600148
6   0.617154
7   -0.432201
8   -0.571196
9   -0.419787
10   -0.51572
11   0.164152
12   0.208051
13   0.210054
14   0.20126
15   0.20519
16   0.437327

>  <lowdin_charges>
16
1   -0.219343
2   -0.298301
3   -0.316602
4   0.089743
5   0.196309
6   0.215517
7   -0.23445
8   -0.354128
9   -0.194962
10   -0.189855
11   0.181114
12   0.191003
13   0.191742
14   0.191373
15   0.188411
16   0.362429

$$$$

