PCCDB-ID:  69753
public computational chemistry database (PCCDB) project, http://pccdb.org

 34 35  0  0  0  0  0  0  0  0999 V2000
    0.8383    0.1501    0.1870 C   0  0  0  0  0  0  0  0  0  0  0  0
    2.3525    0.3514    0.0655 C   0  0  0  0  0  0  0  0  0  0  0  0
    5.8106    0.5207   -3.8823 C   0  0  0  0  0  0  0  0  0  0  0  0
    5.5794    6.1666    0.5336 C   0  0  0  0  0  0  0  0  0  0  0  0
    5.0401    1.6861   -3.8619 C   0  0  0  0  0  0  0  0  0  0  0  0
    6.0905   -0.1365   -2.6848 C   0  0  0  0  0  0  0  0  0  0  0  0
    4.2656    5.9165    0.1414 C   0  0  0  0  0  0  0  0  0  0  0  0
    6.4547    5.0933    0.7185 C   0  0  0  0  0  0  0  0  0  0  0  0
    2.7499    1.8316    0.0067 C   0  0  0  0  0  0  0  0  0  0  0  0
    4.5552    2.1871   -2.6547 C   0  0  0  0  0  0  0  0  0  0  0  0
    5.6007    0.3685   -1.4779 C   0  0  0  0  0  0  0  0  0  0  0  0
    3.8277    4.6050   -0.0655 C   0  0  0  0  0  0  0  0  0  0  0  0
    6.0140    3.7885    0.5097 C   0  0  0  0  0  0  0  0  0  0  0  0
    4.8245    1.5337   -1.4431 C   0  0  0  0  0  0  0  0  0  0  0  0
    4.6947    3.5197    0.1131 C   0  0  0  0  0  0  0  0  0  0  0  0
    4.2747    2.0663   -0.1183 C   0  0  0  0  0  0  0  0  0  0  0  0
    0.5807   -0.9140    0.2357 H   0  0  0  0  0  0  0  0  0  0  0  0
    0.3115    0.5803   -0.6737 H   0  0  0  0  0  0  0  0  0  0  0  0
    0.4429    0.6305    1.0906 H   0  0  0  0  0  0  0  0  0  0  0  0
    2.7205   -0.1640   -0.8303 H   0  0  0  0  0  0  0  0  0  0  0  0
    2.8547   -0.1232    0.9209 H   0  0  0  0  0  0  0  0  0  0  0  0
    6.1916    0.1326   -4.8232 H   0  0  0  0  0  0  0  0  0  0  0  0
    5.9194    7.1858    0.6967 H   0  0  0  0  0  0  0  0  0  0  0  0
    4.8209    2.2098   -4.7890 H   0  0  0  0  0  0  0  0  0  0  0  0
    6.6914   -1.0424   -2.6858 H   0  0  0  0  0  0  0  0  0  0  0  0
    3.5728    6.7417   -0.0031 H   0  0  0  0  0  0  0  0  0  0  0  0
    7.4811    5.2736    1.0279 H   0  0  0  0  0  0  0  0  0  0  0  0
    2.3924    2.3368    0.9145 H   0  0  0  0  0  0  0  0  0  0  0  0
    2.2319    2.3055   -0.8384 H   0  0  0  0  0  0  0  0  0  0  0  0
    3.9726    3.1049   -2.6504 H   0  0  0  0  0  0  0  0  0  0  0  0
    5.8234   -0.1519   -0.5488 H   0  0  0  0  0  0  0  0  0  0  0  0
    2.7970    4.4353   -0.3616 H   0  0  0  0  0  0  0  0  0  0  0  0
    6.7037    2.9590    0.6507 H   0  0  0  0  0  0  0  0  0  0  0  0
    4.7499    1.4768    0.6784 H   0  0  0  0  0  0  0  0  0  0  0  0
  1 17  1  0  0  0  0
  1 19  1  0  0  0  0
  2  1  1  0  0  0  0
  2 21  1  0  0  0  0
  3  5  2  0  0  0  0
  3  6  1  0  0  0  0
  4 23  1  0  0  0  0
  4  8  1  0  0  0  0
  5 10  1  0  0  0  0
  6 11  2  0  0  0  0
  7  4  2  0  0  0  0
  8 27  1  0  0  0  0
  9  2  1  0  0  0  0
  9 28  1  0  0  0  0
 10 30  1  0  0  0  0
 10 14  2  0  0  0  0
 11 14  1  0  0  0  0
 11 31  1  0  0  0  0
 12 15  2  0  0  0  0
 12  7  1  0  0  0  0
 13 33  1  0  0  0  0
 13  8  2  0  0  0  0
 14 16  1  0  0  0  0
 15 13  1  0  0  0  0
 16  9  1  0  0  0  0
 16 15  1  0  0  0  0
 16 34  1  0  0  0  0
 18  1  1  0  0  0  0
 20  2  1  0  0  0  0
 22  3  1  0  0  0  0
 24  5  1  0  0  0  0
 25  6  1  0  0  0  0
 26  7  1  0  0  0  0
 29  9  1  0  0  0  0
 32 12  1  0  0  0  0
M  END
>  <HBA>
0

>  <HBD>
0

>  <TPSA>
0.0

>  <cid>
69753

>  <dipole>
0.19

>  <excitation_energy_1>
5.205

>  <excitation_energy_2>
5.231

>  <excitation_energy_3>
5.515

>  <excitation_energy_4>
5.667

>  <homo_energy>
-6.24

>  <homo_lumo_gap>
6.147

>  <logP>
4.619

>  <lumo_energy>
-0.093

>  <melting_point>
35.55

>  <molecular_refractivity>
70.32

>  <oscillator_strength_1>
0.0216

>  <oscillator_strength_2>
0.0012

>  <oscillator_strength_3>
0.0968

>  <oscillator_strength_4>
0.0031

>  <open_babel_can_smiles>
CCCC(c1ccccc1)c1ccccc1

>  <mulliken_charges>
34
1   -0.442741
2   -0.254597
3   -0.131217
4   -0.129216
5   -0.129493
6   -0.12674
7   -0.133562
8   -0.128783
9   -0.257479
10   -0.177837
11   -0.194984
12   -0.189736
13   -0.172907
14   0.188247
15   0.167162
16   -0.26211
17   0.143013
18   0.142304
19   0.14095
20   0.148266
21   0.127332
22   0.127024
23   0.126616
24   0.128028
25   0.127218
26   0.126827
27   0.127757
28   0.137598
29   0.135226
30   0.130694
31   0.121987
32   0.126285
33   0.124647
34   0.134221

>  <lowdin_charges>
34
1   -0.443755
2   -0.276827
3   -0.161928
4   -0.160475
5   -0.154857
6   -0.15528
7   -0.157356
8   -0.152852
9   -0.274922
10   -0.161375
11   -0.173619
12   -0.173493
13   -0.162595
14   0.002261
15   0.00065
16   -0.124011
17   0.148698
18   0.147524
19   0.146193
20   0.149516
21   0.138652
22   0.156755
23   0.155616
24   0.15699
25   0.156349
26   0.156985
27   0.155642
28   0.145252
29   0.142076
30   0.158305
31   0.153252
32   0.15572
33   0.156392
34   0.15052

$$$$

