PCCDB-ID:  34663
public computational chemistry database (PCCDB) project, http://pccdb.org

 27 26  0  0  1  0  0  0  0  0999 V2000
    1.5216   -2.9472    2.2362 C   0  0  0  0  0  0  0  0  0  0  0  0
    2.6910   -2.5015    1.3531 C   0  0  0  0  0  0  0  0  0  0  0  0
    5.4687    1.5375   -0.2563 C   0  0  0  0  0  0  0  0  0  0  0  0
    2.9173   -0.9851    1.3769 C   0  0  0  0  0  0  0  0  0  0  0  0
    4.2473    1.0069    0.5114 C   0  0  0  0  0  0  0  0  0  0  0  0
    5.4703    1.2428   -1.7612 C   0  0  0  0  0  0  0  0  0  0  0  0
    4.1207   -0.5235    0.5431 C   0  0  1  0  0  0  0  0  0  0  0  0
    4.3840    1.9783   -2.5384 C   0  0  0  0  0  0  0  0  0  0  0  0
    5.3364   -1.1424    0.9874 O   0  0  0  0  0  0  0  0  0  0  0  0
    3.6399    2.8081   -2.0784 O   0  0  0  0  0  0  0  0  0  0  0  0
    4.2978    1.6538   -3.8601 O   0  0  0  0  0  0  0  0  0  0  0  0
    1.3835   -4.0336    2.1964 H   0  0  0  0  0  0  0  0  0  0  0  0
    0.5808   -2.4801    1.9190 H   0  0  0  0  0  0  0  0  0  0  0  0
    1.6880   -2.6720    3.2853 H   0  0  0  0  0  0  0  0  0  0  0  0
    2.5105   -2.8208    0.3167 H   0  0  0  0  0  0  0  0  0  0  0  0
    3.6139   -3.0021    1.6688 H   0  0  0  0  0  0  0  0  0  0  0  0
    6.3758    1.0992    0.1732 H   0  0  0  0  0  0  0  0  0  0  0  0
    5.5293    2.6223   -0.1170 H   0  0  0  0  0  0  0  0  0  0  0  0
    3.0621   -0.6491    2.4170 H   0  0  0  0  0  0  0  0  0  0  0  0
    2.0173   -0.4672    1.0161 H   0  0  0  0  0  0  0  0  0  0  0  0
    3.3319    1.4394    0.0923 H   0  0  0  0  0  0  0  0  0  0  0  0
    4.3100    1.3695    1.5492 H   0  0  0  0  0  0  0  0  0  0  0  0
    5.3774    0.1644   -1.9504 H   0  0  0  0  0  0  0  0  0  0  0  0
    6.4372    1.5375   -2.1951 H   0  0  0  0  0  0  0  0  0  0  0  0
    3.9958   -0.9039   -0.4794 H   0  0  0  0  0  0  0  0  0  0  0  0
    5.4822   -0.8560    1.9046 H   0  0  0  0  0  0  0  0  0  0  0  0
    4.9590    0.9759   -4.0781 H   0  0  0  0  0  0  0  0  0  0  0  0
  1 14  1  0  0  0  0
  2  4  1  0  0  0  0
  2 16  1  0  0  0  0
  2  1  1  0  0  0  0
  3 18  1  0  0  0  0
  3 17  1  0  0  0  0
  3  5  1  0  0  0  0
  4 19  1  0  0  0  0
  5  7  1  0  0  0  0
  5 22  1  0  0  0  0
  6  3  1  0  0  0  0
  7 25  1  6  0  0  0
  7  9  1  0  0  0  0
  7  4  1  0  0  0  0
  8 10  2  0  0  0  0
  8  6  1  0  0  0  0
  9 26  1  0  0  0  0
 11  8  1  0  0  0  0
 12  1  1  0  0  0  0
 13  1  1  0  0  0  0
 15  2  1  0  0  0  0
 20  4  1  0  0  0  0
 21  5  1  0  0  0  0
 23  6  1  0  0  0  0
 24  6  1  0  0  0  0
 27 11  1  0  0  0  0
M  END
>  <HBA>
3

>  <HBD>
2

>  <TPSA>
57.53

>  <cid>
34663

>  <dipole>
2.94

>  <excitation_energy_1>
5.7

>  <excitation_energy_2>
6.401

>  <excitation_energy_3>
6.464

>  <excitation_energy_4>
6.598

>  <homo_energy>
-7.227

>  <homo_lumo_gap>
7.5

>  <logP>
1.402

>  <lumo_energy>
0.272

>  <melting_point>
67.89

>  <molecular_refractivity>
43.5

>  <oscillator_strength_1>
0.0007

>  <oscillator_strength_2>
0.0102

>  <oscillator_strength_3>
0.0071

>  <oscillator_strength_4>
0.004

>  <open_babel_can_smiles>
CCC[C@@H](CCCC(=O)O)O

>  <mulliken_charges>
27
1   -0.442959
2   -0.246656
3   -0.242652
4   -0.267034
5   -0.290783
6   -0.41225
7   0.131557
8   0.606798
9   -0.624315
10   -0.439761
11   -0.567522
12   0.143774
13   0.142036
14   0.139568
15   0.12957
16   0.146601
17   0.142711
18   0.154343
19   0.116156
20   0.135965
21   0.166589
22   0.120725
23   0.169182
24   0.171133
25   0.125967
26   0.382415
27   0.408838

>  <lowdin_charges>
27
1   -0.44117
2   -0.273282
3   -0.270406
4   -0.289989
5   -0.297135
6   -0.325029
7   -0.00307
8   0.197268
9   -0.465686
10   -0.24038
11   -0.362646
12   0.148469
13   0.146306
14   0.143976
15   0.138345
16   0.147779
17   0.151906
18   0.155322
19   0.132649
20   0.147818
21   0.162266
22   0.138785
23   0.160292
24   0.168055
25   0.134494
26   0.336675
27   0.35839

$$$$

