PCCDB-ID:  61835
public computational chemistry database (PCCDB) project, http://pccdb.org

 36 36  0  0  1  0  0  0  0  0999 V2000
   -0.2039   -1.4989    0.2424 C   0  0  0  0  0  0  0  0  0  0  0  0
    1.2471   -1.3470   -0.2256 C   0  0  0  0  0  0  0  0  0  0  0  0
    2.2141   -2.3036    0.4837 C   0  0  0  0  0  0  0  0  0  0  0  0
    3.6694   -2.1602    0.0200 C   0  0  0  0  0  0  0  0  0  0  0  0
    4.6313   -3.1205    0.7312 C   0  0  0  0  0  0  0  0  0  0  0  0
    9.2638   -2.6904    0.2970 C   0  0  0  0  0  0  0  0  0  0  0  0
    9.5757   -2.0552    1.6552 C   0  0  0  0  0  0  0  0  0  0  0  0
    6.0846   -2.9777    0.2581 C   0  0  0  0  0  0  0  0  0  0  0  0
    8.4739   -4.0021    0.3837 C   0  0  0  0  0  0  0  0  0  0  0  0
    8.3348   -1.6504    2.4725 C   0  0  0  0  0  0  0  0  0  0  0  0
    7.0531   -3.9387    0.9616 C   0  0  1  0  0  0  0  0  0  0  0  0
    7.5753   -2.7904    3.1430 C   0  0  0  0  0  0  0  0  0  0  0  0
    7.4395   -2.8390    4.3440 O   0  0  0  0  0  0  0  0  0  0  0  0
    7.0269   -3.7944    2.4071 O   0  0  0  0  0  0  0  0  0  0  0  0
   -0.8693   -0.8050   -0.2839 H   0  0  0  0  0  0  0  0  0  0  0  0
   -0.2970   -1.2995    1.3171 H   0  0  0  0  0  0  0  0  0  0  0  0
   -0.5734   -2.5160    0.0627 H   0  0  0  0  0  0  0  0  0  0  0  0
    1.5779   -0.3113   -0.0630 H   0  0  0  0  0  0  0  0  0  0  0  0
    1.3009   -1.5162   -1.3107 H   0  0  0  0  0  0  0  0  0  0  0  0
    1.8823   -3.3400    0.3217 H   0  0  0  0  0  0  0  0  0  0  0  0
    2.1606   -2.1348    1.5693 H   0  0  0  0  0  0  0  0  0  0  0  0
    4.0016   -1.1241    0.1840 H   0  0  0  0  0  0  0  0  0  0  0  0
    3.7221   -2.3269   -1.0665 H   0  0  0  0  0  0  0  0  0  0  0  0
    4.2998   -4.1563    0.5669 H   0  0  0  0  0  0  0  0  0  0  0  0
    4.5840   -2.9559    1.8150 H   0  0  0  0  0  0  0  0  0  0  0  0
   10.2081   -2.8923   -0.2248 H   0  0  0  0  0  0  0  0  0  0  0  0
    8.7213   -1.9672   -0.3274 H   0  0  0  0  0  0  0  0  0  0  0  0
   10.1765   -1.1516    1.4936 H   0  0  0  0  0  0  0  0  0  0  0  0
   10.1987   -2.7349    2.2526 H   0  0  0  0  0  0  0  0  0  0  0  0
    6.4078   -1.9368    0.3741 H   0  0  0  0  0  0  0  0  0  0  0  0
    6.1423   -3.1922   -0.8190 H   0  0  0  0  0  0  0  0  0  0  0  0
    9.0387   -4.7303    0.9813 H   0  0  0  0  0  0  0  0  0  0  0  0
    8.3860   -4.4322   -0.6230 H   0  0  0  0  0  0  0  0  0  0  0  0
    7.6487   -1.0737    1.8391 H   0  0  0  0  0  0  0  0  0  0  0  0
    8.6304   -0.9978    3.2972 H   0  0  0  0  0  0  0  0  0  0  0  0
    6.6351   -4.9461    0.8528 H   0  0  0  0  0  0  0  0  0  0  0  0
  1 16  1  0  0  0  0
  2 18  1  0  0  0  0
  2  1  1  0  0  0  0
  2  3  1  0  0  0  0
  3 21  1  0  0  0  0
  4 22  1  0  0  0  0
  4  3  1  0  0  0  0
  4  5  1  0  0  0  0
  5 25  1  0  0  0  0
  6  9  1  0  0  0  0
  6  7  1  0  0  0  0
  7 29  1  0  0  0  0
  7 10  1  0  0  0  0
  8 30  1  0  0  0  0
  8  5  1  0  0  0  0
  8 11  1  0  0  0  0
  9 11  1  0  0  0  0
  9 32  1  0  0  0  0
 10 12  1  0  0  0  0
 10 35  1  0  0  0  0
 11 36  1  6  0  0  0
 11 14  1  0  0  0  0
 12 13  2  0  0  0  0
 14 12  1  0  0  0  0
 15  1  1  0  0  0  0
 17  1  1  0  0  0  0
 19  2  1  0  0  0  0
 20  3  1  0  0  0  0
 23  4  1  0  0  0  0
 24  5  1  0  0  0  0
 26  6  1  0  0  0  0
 27  6  1  0  0  0  0
 28  7  1  0  0  0  0
 31  8  1  0  0  0  0
 33  9  1  0  0  0  0
 34 10  1  0  0  0  0
M  END
>  <HBA>
2

>  <HBD>
0

>  <TPSA>
26.3

>  <cid>
61835

>  <dipole>
4.56

>  <excitation_energy_1>
5.443

>  <excitation_energy_2>
6.532

>  <excitation_energy_3>
6.835

>  <excitation_energy_4>
6.97

>  <homo_energy>
-6.92

>  <homo_lumo_gap>
7.336

>  <logP>
3.443

>  <lumo_energy>
0.416

>  <melting_point>
4.47

>  <molecular_refractivity>
58.97

>  <oscillator_strength_1>
0.0013

>  <oscillator_strength_2>
0.001

>  <oscillator_strength_3>
0.006

>  <oscillator_strength_4>
0.0306

>  <open_babel_can_smiles>
CCCCCC[C@H]1CCCCC(=O)O1

>  <mulliken_charges>
36
1   -0.441645
2   -0.246967
3   -0.246594
4   -0.254812
5   -0.260421
6   -0.266097
7   -0.267848
8   -0.289155
9   -0.288255
10   -0.368216
11   0.133159
12   0.588632
13   -0.448205
14   -0.462888
15   0.141728
16   0.143248
17   0.141634
18   0.130051
19   0.128895
20   0.127907
21   0.132307
22   0.126579
23   0.125368
24   0.1311
25   0.156972
26   0.141744
27   0.138107
28   0.146742
29   0.150707
30   0.139935
31   0.136764
32   0.151047
33   0.141194
34   0.160073
35   0.178073
36   0.149135

>  <lowdin_charges>
36
1   -0.443331
2   -0.268785
3   -0.271134
4   -0.271093
5   -0.272727
6   -0.282741
7   -0.274719
8   -0.288892
9   -0.291965
10   -0.316244
11   0.005592
12   0.190834
13   -0.247948
14   -0.199728
15   0.150621
16   0.145572
17   0.145693
18   0.137507
19   0.13602
20   0.136958
21   0.138277
22   0.135956
23   0.134182
24   0.139368
25   0.149991
26   0.150515
27   0.143437
28   0.152748
29   0.150272
30   0.141658
31   0.146847
32   0.154312
33   0.152857
34   0.160403
35   0.175283
36   0.154405

$$$$

