PCCDB-ID:  1123
public computational chemistry database (PCCDB) project, http://pccdb.org

 14 13  0  0  0  0  0  0  0  0999 V2000
    0.8143   -0.1753   -0.0527 C   0  0  0  0  0  0  0  0  0  0  0  0
    0.3967    1.2364    0.3762 C   0  0  0  0  0  0  0  0  0  0  0  0
    2.2770   -0.2475   -0.0372 N   0  0  0  0  0  0  0  0  0  0  0  0
   -1.5041    2.9111    1.0599 O   0  0  0  0  0  0  0  0  0  0  0  0
   -1.9079    1.5322   -0.9886 O   0  0  0  0  0  0  0  0  0  0  0  0
   -1.9683    0.4357    1.3026 O   0  0  0  0  0  0  0  0  0  0  0  0
   -1.3991    1.4102    0.3804 S   0  0  0  0  0  0  0  0  0  0  0  0
    0.3516   -0.4127   -1.0246 H   0  0  0  0  0  0  0  0  0  0  0  0
    0.4234   -0.8904    0.6768 H   0  0  0  0  0  0  0  0  0  0  0  0
    0.7755    2.0027   -0.3065 H   0  0  0  0  0  0  0  0  0  0  0  0
    0.7463    1.4534    1.3884 H   0  0  0  0  0  0  0  0  0  0  0  0
    2.6594    0.2137   -0.8613 H   0  0  0  0  0  0  0  0  0  0  0  0
    2.5718   -1.2200   -0.0926 H   0  0  0  0  0  0  0  0  0  0  0  0
   -2.1107    3.4234    0.4918 H   0  0  0  0  0  0  0  0  0  0  0  0
  1  3  1  0  0  0  0
  1  2  1  0  0  0  0
  1  9  1  0  0  0  0
  2  7  1  0  0  0  0
  2 11  1  0  0  0  0
  5  7  1  0  0  0  0
  7  4  1  0  0  0  0
  7  6  1  0  0  0  0
  8  1  1  0  0  0  0
 10  2  1  0  0  0  0
 12  3  1  0  0  0  0
 13  3  1  0  0  0  0
 14  4  1  0  0  0  0
M  RAD  2   5   2   6   2
M  END
>  <HBA>
4

>  <HBD>
2

>  <TPSA>
88.77

>  <cid>
1123

>  <dipole>
3.31

>  <excitation_energy_1>
5.843

>  <excitation_energy_2>
6.487

>  <excitation_energy_3>
6.925

>  <excitation_energy_4>
7.122

>  <homo_energy>
-6.969

>  <homo_lumo_gap>
7.799

>  <logP>
0.614

>  <lumo_energy>
0.83

>  <melting_point>
111.33

>  <molecular_refractivity>
24.97

>  <oscillator_strength_1>
0.0223

>  <oscillator_strength_2>
0.0117

>  <oscillator_strength_3>
0.0007

>  <oscillator_strength_4>
0.0156

>  <open_babel_can_smiles>
NCCS([O])(O)[O]

>  <mulliken_charges>
14
1   -0.16643
2   -0.449947
3   -0.718075
4   -0.647268
5   -0.527919
6   -0.489704
7   1.186717
8   0.156402
9   0.18407
10   0.1956
11   0.222169
12   0.302412
13   0.312086
14   0.439886

>  <lowdin_charges>
14
1   -0.20912
2   -0.423289
3   -0.550891
4   -0.590195
5   -0.591826
6   -0.563966
7   1.337213
8   0.140236
9   0.166935
10   0.184234
11   0.19672
12   0.257906
13   0.263414
14   0.38263

$$$$

