PCCDB-ID:  12319
public computational chemistry database (PCCDB) project, http://pccdb.org

 12 11  0  0  0  0  0  0  0  0999 V2000
    0.9138   -0.0766   -0.2838 C   0  0  0  0  0  0  0  0  0  0  0  0
    2.3952    0.0047    0.0929 C   0  0  0  0  0  0  0  0  0  0  0  0
    3.1262    0.9581    2.0962 C   0  0  0  0  0  0  0  0  0  0  0  0
    2.6509    1.1599    0.9428 N   0  0  0  0  0  0  0  0  0  0  0  0
    3.3892    1.9597    2.9638 O   0  0  0  0  0  0  0  0  0  0  0  0
    0.7368   -0.9038   -0.9807 H   0  0  0  0  0  0  0  0  0  0  0  0
    0.5882    0.8545   -0.7589 H   0  0  0  0  0  0  0  0  0  0  0  0
    0.2944   -0.2372    0.6056 H   0  0  0  0  0  0  0  0  0  0  0  0
    2.9932    0.1199   -0.8208 H   0  0  0  0  0  0  0  0  0  0  0  0
    2.7134   -0.9405    0.5667 H   0  0  0  0  0  0  0  0  0  0  0  0
    3.3823   -0.0113    2.5381 H   0  0  0  0  0  0  0  0  0  0  0  0
    3.1427    2.7849    2.5046 H   0  0  0  0  0  0  0  0  0  0  0  0
  1  2  1  0  0  0  0
  1  8  1  0  0  0  0
  2 10  1  0  0  0  0
  2  4  1  0  0  0  0
  3 11  1  0  0  0  0
  3  5  1  0  0  0  0
  4  3  2  0  0  0  0
  6  1  1  0  0  0  0
  7  1  1  0  0  0  0
  9  2  1  0  0  0  0
 12  5  1  0  0  0  0
M  END
>  <HBA>
2

>  <HBD>
1

>  <TPSA>
29.1

>  <cid>
12319

>  <dipole>
0.65

>  <excitation_energy_1>
6.072

>  <excitation_energy_2>
6.684

>  <excitation_energy_3>
6.8

>  <excitation_energy_4>
6.938

>  <homo_energy>
-7.034

>  <homo_lumo_gap>
7.753

>  <logP>
0.779

>  <lumo_energy>
0.718

>  <melting_point>
24.0

>  <molecular_refractivity>
19.93

>  <oscillator_strength_1>
0.001

>  <oscillator_strength_2>
0.0003

>  <oscillator_strength_3>
0.0668

>  <oscillator_strength_4>
0.0166

>  <open_babel_can_smiles>
CC/N=C/O

>  <mulliken_charges>
12
1   -0.433679
2   -0.140908
3   0.279258
4   -0.398184
5   -0.560154
6   0.140703
7   0.158086
8   0.146611
9   0.147654
10   0.117958
11   0.136364
12   0.406291

>  <lowdin_charges>
12
1   -0.448433
2   -0.190949
3   0.006785
4   -0.229939
5   -0.361505
6   0.151023
7   0.156593
8   0.150345
9   0.146457
10   0.123945
11   0.137715
12   0.357963

$$$$

