PCCDB-ID:  58546
public computational chemistry database (PCCDB) project, http://pccdb.org

 35 37  0  0  1  0  0  0  0  0999 V2000
   -2.6561    2.8858    0.3164 C   0  0  0  0  0  0  0  0  0  0  0  0
   -2.7407    1.6985    1.2798 C   0  0  0  0  0  0  0  0  0  0  0  0
    2.2166    2.0825   -0.1094 C   0  0  0  0  0  0  0  0  0  0  0  0
   -1.2683    3.5306    0.4049 C   0  0  0  0  0  0  0  0  0  0  0  0
    1.1546    2.9729   -0.0273 C   0  0  0  0  0  0  0  0  0  0  0  0
   -1.7261    0.6120    0.9002 C   0  0  0  0  0  0  0  0  0  0  0  0
    2.0198    0.7191    0.1310 C   0  0  0  0  0  0  0  0  0  0  0  0
    4.3061   -2.4197    2.6866 C   0  0  0  0  0  0  0  0  0  0  0  0
    3.2290   -1.9142    3.6857 C   0  0  0  0  0  0  0  0  0  0  0  0
    1.4137   -2.0509    0.4544 C   0  0  0  0  0  0  0  0  0  0  0  0
   -0.1329    2.5248    0.3085 C   0  0  0  0  0  0  0  0  0  0  0  0
   -0.3524    1.1623    0.5590 C   0  0  0  0  0  0  0  0  0  0  0  0
    0.7379    0.2720    0.4533 C   0  0  0  0  0  0  0  0  0  0  0  0
    2.4380   -2.1318    1.5566 C   0  0  3  0  0  0  0  0  0  0  0  0
    3.6909   -2.3130    1.3479 N   0  0  0  0  0  0  0  0  0  0  0  0
    2.0114   -2.0929    2.8795 N   0  0  0  0  0  0  0  0  0  0  0  0
    0.4245   -1.0509    0.6931 O   0  0  0  0  0  0  0  0  0  0  0  0
   -3.4294    3.6298    0.5429 H   0  0  0  0  0  0  0  0  0  0  0  0
   -2.8399    2.5383   -0.7101 H   0  0  0  0  0  0  0  0  0  0  0  0
   -3.7508    1.2716    1.2895 H   0  0  0  0  0  0  0  0  0  0  0  0
   -2.5393    2.0527    2.3011 H   0  0  0  0  0  0  0  0  0  0  0  0
    3.2104    2.4386   -0.3676 H   0  0  0  0  0  0  0  0  0  0  0  0
   -1.1876    4.0693    1.3619 H   0  0  0  0  0  0  0  0  0  0  0  0
   -1.1465    4.2914   -0.3766 H   0  0  0  0  0  0  0  0  0  0  0  0
    1.3142    4.0303   -0.2259 H   0  0  0  0  0  0  0  0  0  0  0  0
   -2.1024    0.0431    0.0365 H   0  0  0  0  0  0  0  0  0  0  0  0
   -1.6384   -0.1237    1.7081 H   0  0  0  0  0  0  0  0  0  0  0  0
    2.8585    0.0344    0.0820 H   0  0  0  0  0  0  0  0  0  0  0  0
    4.5610   -3.4713    2.8777 H   0  0  0  0  0  0  0  0  0  0  0  0
    5.2349   -1.8428    2.7314 H   0  0  0  0  0  0  0  0  0  0  0  0
    3.3840   -0.8572    3.9481 H   0  0  0  0  0  0  0  0  0  0  0  0
    3.1871   -2.4989    4.6092 H   0  0  0  0  0  0  0  0  0  0  0  0
    0.8499   -2.9885    0.4125 H   0  0  0  0  0  0  0  0  0  0  0  0
    1.9206   -1.9016   -0.5036 H   0  0  0  0  0  0  0  0  0  0  0  0
    1.2057   -1.5112    3.0787 H   0  0  0  0  0  0  0  0  0  0  0  0
  1  4  1  0  0  0  0
  1 18  1  0  0  0  0
  1  2  1  0  0  0  0
  2 20  1  0  0  0  0
  2 21  1  0  0  0  0
  3  5  2  0  0  0  0
  3  7  1  0  0  0  0
  4 23  1  0  0  0  0
  5 11  1  0  0  0  0
  6  2  1  0  0  0  0
  6 27  1  0  0  0  0
  7 13  2  0  0  0  0
  8 30  1  0  0  0  0
  8 29  1  0  0  0  0
  8  9  1  0  0  0  0
  9 31  1  0  0  0  0
  9 32  1  0  0  0  0
 10 17  1  0  0  0  0
 10 14  1  0  0  0  0
 11  4  1  0  0  0  0
 11 12  2  0  0  0  0
 12  6  1  0  0  0  0
 13 12  1  0  0  0  0
 13 17  1  0  0  0  0
 14 16  1  0  0  0  0
 15 14  1  0  0  0  0
 15  8  1  0  0  0  0
 16 35  1  0  0  0  0
 16  9  1  0  0  0  0
 19  1  1  0  0  0  0
 22  3  1  0  0  0  0
 24  4  1  0  0  0  0
 25  5  1  0  0  0  0
 26  6  1  0  0  0  0
 28  7  1  0  0  0  0
 33 10  1  0  0  0  0
 34 10  1  0  0  0  0
M  RAD  2  14   2  15   2
M  END
>  <HBA>
3

>  <HBD>
1

>  <TPSA>
33.62

>  <cid>
58546

>  <dipole>
2.08

>  <excitation_energy_1>
4.98

>  <excitation_energy_2>
5.268

>  <excitation_energy_3>
5.401

>  <excitation_energy_4>
5.428

>  <homo_energy>
-5.815

>  <homo_lumo_gap>
5.973

>  <logP>
1.71

>  <lumo_energy>
0.158

>  <melting_point>
104.98

>  <molecular_refractivity>
76.4

>  <oscillator_strength_1>
0.0203

>  <oscillator_strength_2>
0.0002

>  <oscillator_strength_3>
0.0048

>  <oscillator_strength_4>
0.0103

>  <open_babel_can_smiles>
C1CN[C]([N]1)COc1cccc2c1CCCC2

>  <mulliken_charges>
35
1   -0.264246
2   -0.266989
3   -0.14284
4   -0.342528
5   -0.187079
6   -0.32078
7   -0.201111
8   -0.163057
9   -0.149185
10   -0.111208
11   0.114034
12   0.04756
13   0.304922
14   0.466809
15   -0.469101
16   -0.597966
17   -0.536954
18   0.131447
19   0.137527
20   0.132482
21   0.132782
22   0.128027
23   0.148687
24   0.144338
25   0.11513
26   0.1515
27   0.146767
28   0.162427
29   0.15285
30   0.151662
31   0.146401
32   0.152559
33   0.178103
34   0.178307
35   0.328725

>  <lowdin_charges>
35
1   -0.276049
2   -0.274759
3   -0.149766
4   -0.275796
5   -0.182813
6   -0.274495
7   -0.220352
8   -0.207311
9   -0.208344
10   -0.133971
11   -0.00804
12   -0.043584
13   0.091299
14   0.061957
15   -0.242539
16   -0.311608
17   -0.211434
18   0.145334
19   0.14101
20   0.144456
21   0.138482
22   0.156896
23   0.150205
24   0.152177
25   0.150836
26   0.153347
27   0.154144
28   0.175318
29   0.146715
30   0.151894
31   0.13739
32   0.151593
33   0.171448
34   0.165447
35   0.280913

$$$$

