PCCDB-ID:  22966
public computational chemistry database (PCCDB) project, http://pccdb.org

 23 24  0  0  0  0  0  0  0  0999 V2000
   -2.3935    0.7032   -0.3186 C   0  0  0  0  0  0  0  0  0  0  0  0
   -1.1814    1.3480   -0.5229 C   0  0  0  0  0  0  0  0  0  0  0  0
   -1.2563   -1.3526    0.2448 C   0  0  0  0  0  0  0  0  0  0  0  0
    1.2464   -1.3769    0.2195 C   0  0  0  0  0  0  0  0  0  0  0  0
   -2.4469   -0.6493    0.0778 C   0  0  0  0  0  0  0  0  0  0  0  0
   -0.0173   -0.7216    0.0546 C   0  0  0  0  0  0  0  0  0  0  0  0
    2.4269   -0.7288    0.0203 C   0  0  0  0  0  0  0  0  0  0  0  0
    0.0053    0.6355   -0.3279 C   0  0  0  0  0  0  0  0  0  0  0  0
   -3.7288   -1.3979    0.2927 C   0  0  0  0  0  0  0  0  0  0  0  0
    3.6735   -1.5300    0.2215 C   0  0  0  0  0  0  0  0  0  0  0  0
    2.4463    0.6909   -0.3709 C   0  0  0  0  0  0  0  0  0  0  0  0
   -3.7992   -2.6031    0.2634 O   0  0  0  0  0  0  0  0  0  0  0  0
   -4.8442   -0.6561    0.5278 O   0  0  0  0  0  0  0  0  0  0  0  0
    4.8133   -0.8602   -0.0160 O   0  0  0  0  0  0  0  0  0  0  0  0
    3.6536   -2.6955    0.5697 O   0  0  0  0  0  0  0  0  0  0  0  0
    3.3942    1.3990   -0.5717 O   0  0  0  0  0  0  0  0  0  0  0  0
    1.1736    1.2874   -0.5250 O   0  0  0  0  0  0  0  0  0  0  0  0
   -3.3086    1.2587   -0.5095 H   0  0  0  0  0  0  0  0  0  0  0  0
   -1.1319    2.3844   -0.8380 H   0  0  0  0  0  0  0  0  0  0  0  0
   -1.3004   -2.4005    0.5245 H   0  0  0  0  0  0  0  0  0  0  0  0
    1.2784   -2.4234    0.5105 H   0  0  0  0  0  0  0  0  0  0  0  0
   -4.6092    0.2702    0.6980 H   0  0  0  0  0  0  0  0  0  0  0  0
    5.5319   -1.5001    0.1499 H   0  0  0  0  0  0  0  0  0  0  0  0
  1  5  2  0  0  0  0
  2  8  2  0  0  0  0
  2  1  1  0  0  0  0
  3 20  1  0  0  0  0
  4 21  1  0  0  0  0
  5  3  1  0  0  0  0
  5  9  1  0  0  0  0
  6  4  1  0  0  0  0
  6  3  2  0  0  0  0
  7  4  2  0  0  0  0
  7 10  1  0  0  0  0
  8  6  1  0  0  0  0
  9 13  1  0  0  0  0
 10 15  2  0  0  0  0
 11  7  1  0  0  0  0
 12  9  2  0  0  0  0
 13 22  1  0  0  0  0
 14 23  1  0  0  0  0
 14 10  1  0  0  0  0
 16 11  2  0  0  0  0
 17 11  1  0  0  0  0
 17  8  1  0  0  0  0
 18  1  1  0  0  0  0
 19  2  1  0  0  0  0
M  END
>  <HBA>
6

>  <HBD>
2

>  <TPSA>
104.81

>  <cid>
22966

>  <dipole>
2.6

>  <excitation_energy_1>
3.764

>  <excitation_energy_2>
4.11

>  <excitation_energy_3>
4.178

>  <excitation_energy_4>
4.245

>  <homo_energy>
-7.208

>  <homo_lumo_gap>
4.318

>  <logP>
1.189

>  <lumo_energy>
-2.89

>  <melting_point>
266.99

>  <molecular_refractivity>
56.4

>  <oscillator_strength_1>
0.1105

>  <oscillator_strength_2>
0.0004

>  <oscillator_strength_3>
0.0012

>  <oscillator_strength_4>
0.1931

>  <open_babel_can_smiles>
OC(=O)c1ccc2c(c1)cc(c(=O)o2)C(=O)O

>  <mulliken_charges>
23
1   -0.192429
2   -0.173118
3   -0.224977
4   -0.156768
5   0.045579
6   0.124634
7   -0.045104
8   0.342822
9   0.562436
10   0.567725
11   0.575465
12   -0.439594
13   -0.572263
14   -0.546437
15   -0.473547
16   -0.416888
17   -0.520635
18   0.14932
19   0.17215
20   0.188772
21   0.203297
22   0.412979
23   0.41658

>  <lowdin_charges>
23
1   -0.138325
2   -0.16663
3   -0.1026
4   -0.063202
5   -0.066658
6   -0.043768
7   -0.092226
8   0.129577
9   0.190713
10   0.194796
11   0.208189
12   -0.232539
13   -0.348119
14   -0.321377
15   -0.273763
16   -0.199914
17   -0.131425
18   0.166288
19   0.18254
20   0.188242
21   0.194568
22   0.357605
23   0.368026

$$$$

