PCCDB-ID:  57131
public computational chemistry database (PCCDB) project, http://pccdb.org

 34 35  0  0  0  0  0  0  0  0999 V2000
    4.9038   -3.4309    3.5103 C   0  0  0  0  0  0  0  0  0  0  0  0
    4.7270   -0.0719    6.3517 C   0  0  0  0  0  0  0  0  0  0  0  0
    5.4840   -2.1874    4.1852 C   0  0  0  0  0  0  0  0  0  0  0  0
    5.0867    0.1305    4.8779 C   0  0  0  0  0  0  0  0  0  0  0  0
   10.6662   -1.3558   -1.7621 C   0  0  0  0  0  0  0  0  0  0  0  0
    9.6761   -2.2676   -1.3922 C   0  0  0  0  0  0  0  0  0  0  0  0
   10.5960   -0.0327   -1.3159 C   0  0  0  0  0  0  0  0  0  0  0  0
    8.6185   -1.8629   -0.5791 C   0  0  0  0  0  0  0  0  0  0  0  0
    9.5427    0.3779   -0.5040 C   0  0  0  0  0  0  0  0  0  0  0  0
    4.4240   -0.5926    2.6342 C   0  0  0  0  0  0  0  0  0  0  0  0
    8.5452   -0.5368   -0.1304 C   0  0  0  0  0  0  0  0  0  0  0  0
    5.6604   -0.2175    1.8550 C   0  0  0  0  0  0  0  0  0  0  0  0
    7.4282   -0.1201    0.7283 C   0  0  0  0  0  0  0  0  0  0  0  0
    6.4207   -0.9818    1.1261 N   0  0  0  0  0  0  0  0  0  0  0  0
    7.2981    1.1065    1.1855 N   0  0  0  0  0  0  0  0  0  0  0  0
    4.6509   -0.9864    4.0252 N   0  0  0  0  0  0  0  0  0  0  0  0
    6.1163    1.0469    1.9428 O   0  0  0  0  0  0  0  0  0  0  0  0
    5.4742   -4.3147    3.8163 H   0  0  0  0  0  0  0  0  0  0  0  0
    4.9599   -3.3719    2.4188 H   0  0  0  0  0  0  0  0  0  0  0  0
    3.8585   -3.5781    3.8035 H   0  0  0  0  0  0  0  0  0  0  0  0
    4.9829    0.8277    6.9231 H   0  0  0  0  0  0  0  0  0  0  0  0
    5.2678   -0.9093    6.8046 H   0  0  0  0  0  0  0  0  0  0  0  0
    3.6539   -0.2603    6.4607 H   0  0  0  0  0  0  0  0  0  0  0  0
    6.5159   -2.0210    3.8249 H   0  0  0  0  0  0  0  0  0  0  0  0
    5.5568   -2.3775    5.2601 H   0  0  0  0  0  0  0  0  0  0  0  0
    6.1702    0.3260    4.7803 H   0  0  0  0  0  0  0  0  0  0  0  0
    4.5805    1.0330    4.5176 H   0  0  0  0  0  0  0  0  0  0  0  0
   11.4908   -1.6735   -2.3946 H   0  0  0  0  0  0  0  0  0  0  0  0
    9.7267   -3.2969   -1.7365 H   0  0  0  0  0  0  0  0  0  0  0  0
   11.3646    0.6801   -1.6017 H   0  0  0  0  0  0  0  0  0  0  0  0
    7.8432   -2.5625   -0.2854 H   0  0  0  0  0  0  0  0  0  0  0  0
    9.4821    1.4037   -0.1548 H   0  0  0  0  0  0  0  0  0  0  0  0
    3.9429   -1.4150    2.1002 H   0  0  0  0  0  0  0  0  0  0  0  0
    3.7359    0.2586    2.6270 H   0  0  0  0  0  0  0  0  0  0  0  0
  1 20  1  0  0  0  0
  1 18  1  0  0  0  0
  1  3  1  0  0  0  0
  2 23  1  0  0  0  0
  2 22  1  0  0  0  0
  2 21  1  0  0  0  0
  3 25  1  0  0  0  0
  4  2  1  0  0  0  0
  5  6  2  0  0  0  0
  5  7  1  0  0  0  0
  6  8  1  0  0  0  0
  7  9  2  0  0  0  0
  8 31  1  0  0  0  0
  8 11  2  0  0  0  0
  9 32  1  0  0  0  0
  9 11  1  0  0  0  0
 10 16  1  0  0  0  0
 11 13  1  0  0  0  0
 12 17  1  0  0  0  0
 12 10  1  0  0  0  0
 13 14  2  0  0  0  0
 13 15  1  0  0  0  0
 14 12  2  0  0  0  0
 15 17  1  0  0  0  0
 16  3  1  0  0  0  0
 16  4  1  0  0  0  0
 19  1  1  0  0  0  0
 24  3  1  0  0  0  0
 26  4  1  0  0  0  0
 27  4  1  0  0  0  0
 28  5  1  0  0  0  0
 29  6  1  0  0  0  0
 30  7  1  0  0  0  0
 33 10  1  0  0  0  0
 34 10  1  0  0  0  0
M  RAD  1  15   2
M  END
>  <HBA>
4

>  <HBD>
0

>  <TPSA>
42.16

>  <cid>
57131

>  <dipole>
1.28

>  <excitation_energy_1>
4.08

>  <excitation_energy_2>
4.838

>  <excitation_energy_3>
4.869

>  <excitation_energy_4>
5.001

>  <homo_energy>
-6.011

>  <homo_lumo_gap>
4.814

>  <logP>
2.578

>  <lumo_energy>
-1.197

>  <melting_point>
75.65

>  <molecular_refractivity>
66.82

>  <oscillator_strength_1>
0.0159

>  <oscillator_strength_2>
0.012

>  <oscillator_strength_3>
0.0785

>  <oscillator_strength_4>
0.2151

>  <open_babel_can_smiles>
CCN(CC1=[N]=C([N]O1)c1ccccc1)CC

>  <mulliken_charges>
34
1   -0.46525
2   -0.445955
3   -0.121806
4   -0.126945
5   -0.120469
6   -0.13554
7   -0.138178
8   -0.172371
9   -0.168256
10   -0.233109
11   0.103424
12   0.561685
13   0.378686
14   -0.516757
15   -0.225377
16   -0.367322
17   -0.356601
18   0.147437
19   0.163755
20   0.153625
21   0.146171
22   0.149238
23   0.155812
24   0.130008
25   0.145416
26   0.130088
27   0.144087
28   0.134277
29   0.134968
30   0.136106
31   0.161194
32   0.162122
33   0.182691
34   0.173146

>  <lowdin_charges>
34
1   -0.450895
2   -0.449387
3   -0.197862
4   -0.198683
5   -0.147444
6   -0.15367
7   -0.15527
8   -0.14516
9   -0.141026
10   -0.210916
11   -0.017588
12   0.113647
13   0.052817
14   -0.197619
15   -0.091371
16   -0.178581
17   -0.071444
18   0.156906
19   0.153494
20   0.152303
21   0.154851
22   0.150088
23   0.153393
24   0.12489
25   0.147073
26   0.125368
27   0.148524
28   0.160786
29   0.159289
30   0.162034
31   0.175271
32   0.172954
33   0.175214
34   0.168016

$$$$

