PCCDB-ID:  23743
public computational chemistry database (PCCDB) project, http://pccdb.org

 17 17  0  0  1  0  0  0  0  0999 V2000
    1.0842   -0.0134    0.2133 C   0  0  0  0  0  0  0  0  0  0  0  0
    4.1597    1.0061   -1.6227 C   0  0  0  0  0  0  0  0  0  0  0  0
    3.0296    1.4760   -0.6727 C   0  0  0  0  0  0  0  0  0  0  0  0
    4.3554   -0.4710   -1.2363 C   0  0  0  0  0  0  0  0  0  0  0  0
    2.5860    0.1885    0.0600 C   0  0  1  0  0  0  0  0  0  0  0  0
    3.2307    0.2169    1.3307 O   0  0  0  0  0  0  0  0  0  0  0  0
    3.0871   -0.8873   -0.7206 O   0  0  0  0  0  0  0  0  0  0  0  0
    0.6602    0.7810    0.8346 H   0  0  0  0  0  0  0  0  0  0  0  0
    0.8804   -0.9781    0.6926 H   0  0  0  0  0  0  0  0  0  0  0  0
    0.5895   -0.0092   -0.7626 H   0  0  0  0  0  0  0  0  0  0  0  0
    5.0802    1.5860   -1.5075 H   0  0  0  0  0  0  0  0  0  0  0  0
    3.8436    1.0886   -2.6675 H   0  0  0  0  0  0  0  0  0  0  0  0
    2.1932    1.9082   -1.2296 H   0  0  0  0  0  0  0  0  0  0  0  0
    3.3668    2.2137    0.0589 H   0  0  0  0  0  0  0  0  0  0  0  0
    5.1301   -0.5788   -0.4655 H   0  0  0  0  0  0  0  0  0  0  0  0
    4.5985   -1.1251   -2.0777 H   0  0  0  0  0  0  0  0  0  0  0  0
    3.0863   -0.6573    1.7303 H   0  0  0  0  0  0  0  0  0  0  0  0
  1  9  1  0  0  0  0
  1  8  1  0  0  0  0
  2 11  1  0  0  0  0
  2  4  1  0  0  0  0
  2  3  1  0  0  0  0
  3 14  1  0  0  0  0
  3  5  1  0  0  0  0
  4  7  1  0  0  0  0
  4 15  1  0  0  0  0
  5  1  1  0  0  0  0
  5  6  1  1  0  0  0
  6 17  1  0  0  0  0
  7  5  1  0  0  0  0
 10  1  1  0  0  0  0
 12  2  1  0  0  0  0
 13  3  1  0  0  0  0
 16  4  1  0  0  0  0
M  END
>  <HBA>
2

>  <HBD>
1

>  <TPSA>
29.46

>  <cid>
23743

>  <dipole>
0.49

>  <excitation_energy_1>
6.605

>  <excitation_energy_2>
7.083

>  <excitation_energy_3>
7.159

>  <excitation_energy_4>
7.322

>  <homo_energy>
-7.01

>  <homo_lumo_gap>
9.078

>  <logP>
0.505

>  <lumo_energy>
2.068

>  <melting_point>
17.37

>  <molecular_refractivity>
26.32

>  <oscillator_strength_1>
0.0109

>  <oscillator_strength_2>
0.0059

>  <oscillator_strength_3>
0.0138

>  <oscillator_strength_4>
0.0138

>  <open_babel_can_smiles>
C[C@]1(O)CCCO1

>  <mulliken_charges>
17
1   -0.471129
2   -0.299992
3   -0.307205
4   -0.02871
5   0.511131
6   -0.631505
7   -0.494819
8   0.15645
9   0.144079
10   0.152546
11   0.145131
12   0.14671
13   0.145317
14   0.165092
15   0.137996
16   0.142521
17   0.386386

>  <lowdin_charges>
17
1   -0.457399
2   -0.292783
3   -0.297273
4   -0.137746
5   0.202309
6   -0.45872
7   -0.275391
8   0.160814
9   0.153703
10   0.158476
11   0.152712
12   0.147849
13   0.15295
14   0.164601
15   0.136137
16   0.149038
17   0.340721

$$$$

