PCCDB-ID:  34629
public computational chemistry database (PCCDB) project, http://pccdb.org

 18 18  0  0  1  0  0  0  0  0999 V2000
    0.9008   -0.0259    0.5358 C   0  0  0  0  0  0  0  0  0  0  0  0
    3.1295   -1.2777    0.2290 C   0  0  0  0  0  0  0  0  0  0  0  0
    3.5145   -1.3475    1.7116 C   0  0  0  0  0  0  0  0  0  0  0  0
    2.3188   -0.0049   -0.0675 C   0  0  2  0  0  0  0  0  0  0  0  0
    3.9152    0.0153    2.2408 C   0  0  0  0  0  0  0  0  0  0  0  0
    3.0941    1.2229    0.4277 C   0  0  0  0  0  0  0  0  0  0  0  0
    3.7468    1.1511    1.6783 N   0  0  0  0  0  0  0  0  0  0  0  0
    4.4867    0.0292    3.4660 O   0  0  0  0  0  0  0  0  0  0  0  0
    3.1192    2.2542   -0.2133 O   0  0  0  0  0  0  0  0  0  0  0  0
    0.3344   -0.8843    0.1556 H   0  0  0  0  0  0  0  0  0  0  0  0
    0.3606    0.8864    0.2642 H   0  0  0  0  0  0  0  0  0  0  0  0
    0.9152   -0.0863    1.6301 H   0  0  0  0  0  0  0  0  0  0  0  0
    2.5688   -2.1744   -0.0591 H   0  0  0  0  0  0  0  0  0  0  0  0
    4.0446   -1.2660   -0.3761 H   0  0  0  0  0  0  0  0  0  0  0  0
    4.3340   -2.0613    1.8710 H   0  0  0  0  0  0  0  0  0  0  0  0
    2.6711   -1.7019    2.3217 H   0  0  0  0  0  0  0  0  0  0  0  0
    2.2265    0.1197   -1.1508 H   0  0  0  0  0  0  0  0  0  0  0  0
    4.5952   -0.8812    3.7856 H   0  0  0  0  0  0  0  0  0  0  0  0
  1 12  1  0  0  0  0
  2  3  1  0  0  0  0
  3 15  1  0  0  0  0
  3  5  1  0  0  0  0
  3 16  1  0  0  0  0
  4 17  1  6  0  0  0
  4  2  1  0  0  0  0
  4  6  1  0  0  0  0
  4  1  1  0  0  0  0
  5  8  1  0  0  0  0
  6  7  1  0  0  0  0
  7  5  2  0  0  0  0
  8 18  1  0  0  0  0
  9  6  2  0  0  0  0
 10  1  1  0  0  0  0
 11  1  1  0  0  0  0
 13  2  1  0  0  0  0
 14  2  1  0  0  0  0
M  END
>  <HBA>
3

>  <HBD>
1

>  <TPSA>
46.17

>  <cid>
34629

>  <dipole>
6.8

>  <excitation_energy_1>
3.957

>  <excitation_energy_2>
4.864

>  <excitation_energy_3>
5.508

>  <excitation_energy_4>
6.109

>  <homo_energy>
-6.479

>  <homo_lumo_gap>
5.431

>  <logP>
0.388

>  <lumo_energy>
-1.048

>  <melting_point>
65.98

>  <molecular_refractivity>
35.96

>  <oscillator_strength_1>
0.0011

>  <oscillator_strength_2>
0.0004

>  <oscillator_strength_3>
0.0019

>  <oscillator_strength_4>
0.039

>  <open_babel_can_smiles>
C[C@@H]1CCC(=NC1=O)O

>  <mulliken_charges>
18
1   -0.457314
2   -0.280255
3   -0.385203
4   -0.165481
5   0.515365
6   0.532906
7   -0.457734
8   -0.555738
9   -0.447849
10   0.149349
11   0.175576
12   0.146544
13   0.148103
14   0.160695
15   0.164417
16   0.182514
17   0.160491
18   0.413614

>  <lowdin_charges>
18
1   -0.441138
2   -0.276073
3   -0.319529
4   -0.157055
5   0.156368
6   0.161882
7   -0.192856
8   -0.330442
9   -0.231865
10   0.15301
11   0.167171
12   0.146702
13   0.15376
14   0.155363
15   0.163557
16   0.170158
17   0.162309
18   0.358679

$$$$

