PCCDB-ID:  19282
public computational chemistry database (PCCDB) project, http://pccdb.org

 26 28  0  0  0  0  0  0  0  0999 V2000
    2.5061    0.6622   -0.6833 C   0  0  0  0  0  0  0  0  0  0  0  0
    2.3350   -0.7401   -0.5967 C   0  0  0  0  0  0  0  0  0  0  0  0
   -2.1986    1.3042    0.3553 C   0  0  0  0  0  0  0  0  0  0  0  0
    1.4359    1.5018   -0.4724 C   0  0  0  0  0  0  0  0  0  0  0  0
   -0.9656    1.8391    0.0601 C   0  0  0  0  0  0  0  0  0  0  0  0
    1.0981   -1.2740   -0.3084 C   0  0  0  0  0  0  0  0  0  0  0  0
   -2.3859   -0.0946    0.4215 C   0  0  0  0  0  0  0  0  0  0  0  0
   -3.8239   -3.2330   -2.1452 C   0  0  0  0  0  0  0  0  0  0  0  0
   -3.3638   -2.0387   -2.1665 C   0  0  0  0  0  0  0  0  0  0  0  0
    0.1466    0.9857   -0.1692 C   0  0  0  0  0  0  0  0  0  0  0  0
   -0.0260   -0.4348   -0.0909 C   0  0  0  0  0  0  0  0  0  0  0  0
   -1.3303   -0.9685    0.1970 C   0  0  0  0  0  0  0  0  0  0  0  0
   -2.4165   -3.0520   -0.1172 C   0  0  0  0  0  0  0  0  0  0  0  0
   -1.4371   -2.3618    0.3252 N   0  0  0  0  0  0  0  0  0  0  0  0
   -3.5791   -2.6202   -0.7908 N   0  0  0  0  0  0  0  0  0  0  0  0
   -2.4573   -4.3831    0.1226 O   0  0  0  0  0  0  0  0  0  0  0  0
    3.4854    1.0737   -0.9137 H   0  0  0  0  0  0  0  0  0  0  0  0
    3.1863   -1.3969   -0.7556 H   0  0  0  0  0  0  0  0  0  0  0  0
   -3.0467    1.9582    0.5420 H   0  0  0  0  0  0  0  0  0  0  0  0
    1.5620    2.5805   -0.5331 H   0  0  0  0  0  0  0  0  0  0  0  0
   -0.8250    2.9157    0.0044 H   0  0  0  0  0  0  0  0  0  0  0  0
    0.9588   -2.3469   -0.2353 H   0  0  0  0  0  0  0  0  0  0  0  0
   -3.3646   -0.4972    0.6607 H   0  0  0  0  0  0  0  0  0  0  0  0
   -4.2414   -4.1454   -2.5344 H   0  0  0  0  0  0  0  0  0  0  0  0
   -3.0660   -1.0892   -2.5763 H   0  0  0  0  0  0  0  0  0  0  0  0
   -1.6686   -4.5750    0.6628 H   0  0  0  0  0  0  0  0  0  0  0  0
  1  2  2  0  0  0  0
  1  4  1  0  0  0  0
  2  6  1  0  0  0  0
  3  7  1  0  0  0  0
  3 19  1  0  0  0  0
  4 10  2  0  0  0  0
  5  3  2  0  0  0  0
  6 22  1  0  0  0  0
  6 11  2  0  0  0  0
  7 23  1  0  0  0  0
  8 15  1  0  0  0  0
  9  8  2  0  0  0  0
  9 15  1  0  0  0  0
 10 11  1  0  0  0  0
 10  5  1  0  0  0  0
 11 12  1  0  0  0  0
 12 14  1  0  0  0  0
 12  7  2  0  0  0  0
 13 16  1  0  0  0  0
 13 14  2  0  0  0  0
 15 13  1  0  0  0  0
 16 26  1  0  0  0  0
 17  1  1  0  0  0  0
 18  2  1  0  0  0  0
 20  4  1  0  0  0  0
 21  5  1  0  0  0  0
 24  8  1  0  0  0  0
 25  9  1  0  0  0  0
M  END
>  <HBA>
3

>  <HBD>
1

>  <TPSA>
32.34

>  <cid>
19282

>  <dipole>
2.62

>  <excitation_energy_1>
3.726

>  <excitation_energy_2>
3.85

>  <excitation_energy_3>
4.25

>  <excitation_energy_4>
4.587

>  <homo_energy>
-5.178

>  <homo_lumo_gap>
4.308

>  <logP>
3.169

>  <lumo_energy>
-0.871

>  <melting_point>
148.61

>  <molecular_refractivity>
67.68

>  <oscillator_strength_1>
0.0988

>  <oscillator_strength_2>
0.091

>  <oscillator_strength_3>
0.0069

>  <oscillator_strength_4>
0.0139

>  <open_babel_can_smiles>
O/C(=N/c1cccc2c1cccc2)/N1C=C1

>  <mulliken_charges>
26
1   -0.131713
2   -0.137367
3   -0.148246
4   -0.199072
5   -0.193005
6   -0.174917
7   -0.175489
8   -0.019394
9   -0.013233
10   0.126876
11   0.078925
12   0.205022
13   0.625048
14   -0.548448
15   -0.421508
16   -0.584719
17   0.125324
18   0.124104
19   0.126632
20   0.125218
21   0.122566
22   0.13709
23   0.148861
24   0.188179
25   0.197597
26   0.415669

>  <lowdin_charges>
26
1   -0.159531
2   -0.164571
3   -0.160325
4   -0.158173
5   -0.171724
6   -0.151472
7   -0.193665
8   -0.072523
9   -0.071655
10   0.000427
11   -0.016312
12   0.044934
13   0.157971
14   -0.229462
15   -0.182439
16   -0.358255
17   0.155928
18   0.156425
19   0.15762
20   0.153404
21   0.153211
22   0.162992
23   0.16745
24   0.205366
25   0.209411
26   0.36497

$$$$

