PCCDB-ID:  69668
public computational chemistry database (PCCDB) project, http://pccdb.org

 19 20  0  0  0  0  0  0  0  0999 V2000
   -2.0549   -0.8163   -0.4669 C   0  0  0  0  0  0  0  0  0  0  0  0
   -2.3659    0.3855    0.3926 C   0  0  0  0  0  0  0  0  0  0  0  0
   -0.7491   -0.9808   -0.6776 C   0  0  0  0  0  0  0  0  0  0  0  0
   -0.9729    0.9827    0.7175 C   0  0  0  0  0  0  0  0  0  0  0  0
    2.1931    0.4399   -0.8409 C   0  0  0  0  0  0  0  0  0  0  0  0
    2.3063    0.0431    0.6272 C   0  0  0  0  0  0  0  0  0  0  0  0
    0.0724    0.0895   -0.0022 C   0  0  0  0  0  0  0  0  0  0  0  0
    0.8403    0.8697   -0.9272 O   0  0  0  0  0  0  0  0  0  0  0  0
    1.0223   -0.5110    0.8925 O   0  0  0  0  0  0  0  0  0  0  0  0
   -2.8356   -1.4622   -0.8610 H   0  0  0  0  0  0  0  0  0  0  0  0
   -2.9166    0.0982    1.2981 H   0  0  0  0  0  0  0  0  0  0  0  0
   -3.0077    1.0986   -0.1421 H   0  0  0  0  0  0  0  0  0  0  0  0
   -0.2802   -1.7680   -1.2594 H   0  0  0  0  0  0  0  0  0  0  0  0
   -0.7643    0.9699    1.7905 H   0  0  0  0  0  0  0  0  0  0  0  0
   -0.8722    2.0117    0.3634 H   0  0  0  0  0  0  0  0  0  0  0  0
    2.3849   -0.4181   -1.5033 H   0  0  0  0  0  0  0  0  0  0  0  0
    2.8388    1.2719   -1.1354 H   0  0  0  0  0  0  0  0  0  0  0  0
    2.4990    0.9204    1.2630 H   0  0  0  0  0  0  0  0  0  0  0  0
    3.0640   -0.7201    0.8284 H   0  0  0  0  0  0  0  0  0  0  0  0
  1  2  1  0  0  0  0
  2  4  1  0  0  0  0
  2 11  1  0  0  0  0
  3  1  2  0  0  0  0
  3  7  1  0  0  0  0
  4 14  1  0  0  0  0
  5  6  1  0  0  0  0
  6 19  1  0  0  0  0
  6  9  1  0  0  0  0
  6 18  1  0  0  0  0
  7  4  1  0  0  0  0
  7  9  1  0  0  0  0
  8  5  1  0  0  0  0
  8  7  1  0  0  0  0
 10  1  1  0  0  0  0
 12  2  1  0  0  0  0
 13  3  1  0  0  0  0
 15  4  1  0  0  0  0
 16  5  1  0  0  0  0
 17  5  1  0  0  0  0
M  END
>  <HBA>
2

>  <HBD>
0

>  <TPSA>
18.46

>  <cid>
69668

>  <dipole>
0.61

>  <excitation_energy_1>
6.029

>  <excitation_energy_2>
6.365

>  <excitation_energy_3>
6.474

>  <excitation_energy_4>
6.579

>  <homo_energy>
-6.656

>  <homo_lumo_gap>
7.173

>  <logP>
1.079

>  <lumo_energy>
0.517

>  <melting_point>
20.84

>  <molecular_refractivity>
33.27

>  <oscillator_strength_1>
0.0015

>  <oscillator_strength_2>
0.0114

>  <oscillator_strength_3>
0.0045

>  <oscillator_strength_4>
0.0894

>  <open_babel_can_smiles>
C1C=CC2(C1)OCCO2

>  <mulliken_charges>
19
1   -0.119924
2   -0.311478
3   -0.087142
4   -0.331996
5   -0.051195
6   -0.04223
7   0.521112
8   -0.511849
9   -0.51884
10   0.132168
11   0.151005
12   0.15145
13   0.128453
14   0.16076
15   0.161953
16   0.135337
17   0.149928
18   0.135608
19   0.14688

>  <lowdin_charges>
19
1   -0.151755
2   -0.277617
3   -0.18593
4   -0.29296
5   -0.146042
6   -0.144886
7   0.218486
8   -0.266646
9   -0.273386
10   0.157375
11   0.152683
12   0.153852
13   0.160251
14   0.1598
15   0.16063
16   0.13433
17   0.15477
18   0.134855
19   0.152191

$$$$

