PCCDB-ID:  68380
public computational chemistry database (PCCDB) project, http://pccdb.org

 29 30  0  0  0  0  0  0  0  0999 V2000
    5.1608    3.6685    2.1901 C   0  0  0  0  0  0  0  0  0  0  0  0
    4.0075    2.9548    1.8576 C   0  0  0  0  0  0  0  0  0  0  0  0
    6.4019    3.0368    2.0814 C   0  0  0  0  0  0  0  0  0  0  0  0
    3.0713   -5.3921   -1.2708 C   0  0  0  0  0  0  0  0  0  0  0  0
    1.7162   -5.2136   -0.9667 C   0  0  0  0  0  0  0  0  0  0  0  0
    3.9698   -4.3918   -0.9289 C   0  0  0  0  0  0  0  0  0  0  0  0
    4.0776    1.6325    1.4239 C   0  0  0  0  0  0  0  0  0  0  0  0
    6.4905    1.7144    1.6568 C   0  0  0  0  0  0  0  0  0  0  0  0
    1.2821   -4.0531   -0.3404 C   0  0  0  0  0  0  0  0  0  0  0  0
    4.5979   -2.2361    0.0465 C   0  0  0  0  0  0  0  0  0  0  0  0
    3.5655   -3.2021   -0.2909 C   0  0  0  0  0  0  0  0  0  0  0  0
    5.3268    0.9984    1.3261 C   0  0  0  0  0  0  0  0  0  0  0  0
    2.1809   -3.0244    0.0050 C   0  0  0  0  0  0  0  0  0  0  0  0
    1.7142   -1.8636    0.5822 N   0  0  0  0  0  0  0  0  0  0  0  0
    4.3832   -1.0939    0.6148 N   0  0  0  0  0  0  0  0  0  0  0  0
    5.4540   -0.3272    0.9186 N   0  0  0  0  0  0  0  0  0  0  0  0
    5.0947    4.6992    2.5253 H   0  0  0  0  0  0  0  0  0  0  0  0
    3.0343    3.4344    1.9262 H   0  0  0  0  0  0  0  0  0  0  0  0
    7.3124    3.5751    2.3317 H   0  0  0  0  0  0  0  0  0  0  0  0
    3.4158   -6.2979   -1.7601 H   0  0  0  0  0  0  0  0  0  0  0  0
    0.9929   -5.9839   -1.2214 H   0  0  0  0  0  0  0  0  0  0  0  0
    5.0272   -4.5191   -1.1522 H   0  0  0  0  0  0  0  0  0  0  0  0
    3.1814    1.0926    1.1429 H   0  0  0  0  0  0  0  0  0  0  0  0
    7.4611    1.2277    1.5839 H   0  0  0  0  0  0  0  0  0  0  0  0
    0.2267   -3.9180   -0.1134 H   0  0  0  0  0  0  0  0  0  0  0  0
    5.6265   -2.5350   -0.2026 H   0  0  0  0  0  0  0  0  0  0  0  0
    0.8143   -1.9122    1.0393 H   0  0  0  0  0  0  0  0  0  0  0  0
    2.4089   -1.2658    1.0152 H   0  0  0  0  0  0  0  0  0  0  0  0
    6.3805   -0.6664    0.6689 H   0  0  0  0  0  0  0  0  0  0  0  0
  1 17  1  0  0  0  0
  2 18  1  0  0  0  0
  2  1  2  0  0  0  0
  3  1  1  0  0  0  0
  3 19  1  0  0  0  0
  4  5  2  0  0  0  0
  4  6  1  0  0  0  0
  5  9  1  0  0  0  0
  6 11  2  0  0  0  0
  7  2  1  0  0  0  0
  8  3  2  0  0  0  0
  9 25  1  0  0  0  0
  9 13  2  0  0  0  0
 10 15  2  0  0  0  0
 11 13  1  0  0  0  0
 11 10  1  0  0  0  0
 12  7  2  0  0  0  0
 12  8  1  0  0  0  0
 13 14  1  0  0  0  0
 14 28  1  0  0  0  0
 14 27  1  0  0  0  0
 15 16  1  0  0  0  0
 16 12  1  0  0  0  0
 20  4  1  0  0  0  0
 21  5  1  0  0  0  0
 22  6  1  0  0  0  0
 23  7  1  0  0  0  0
 24  8  1  0  0  0  0
 26 10  1  0  0  0  0
 29 16  1  0  0  0  0
M  END
>  <HBA>
3

>  <HBD>
2

>  <TPSA>
50.41

>  <cid>
68380

>  <dipole>
1.05

>  <excitation_energy_1>
3.509

>  <excitation_energy_2>
4.029

>  <excitation_energy_3>
4.208

>  <excitation_energy_4>
4.316

>  <homo_energy>
-4.879

>  <homo_lumo_gap>
3.94

>  <logP>
3.369

>  <lumo_energy>
-0.939

>  <melting_point>
136.28

>  <molecular_refractivity>
68.32

>  <oscillator_strength_1>
0.574

>  <oscillator_strength_2>
0.1228

>  <oscillator_strength_3>
0.0626

>  <oscillator_strength_4>
0.0059

>  <open_babel_can_smiles>
Nc1ccccc1/C=N/Nc1ccccc1

>  <mulliken_charges>
29
1   -0.134664
2   -0.13964
3   -0.135425
4   -0.142807
5   -0.133879
6   -0.214585
7   -0.167495
8   -0.192487
9   -0.173962
10   0.040698
11   0.135735
12   0.388357
13   0.277754
14   -0.823389
15   -0.278362
16   -0.545482
17   0.123207
18   0.127916
19   0.12744
20   0.122076
21   0.126721
22   0.121897
23   0.145456
24   0.117156
25   0.116677
26   0.109431
27   0.318798
28   0.373385
29   0.309472

>  <lowdin_charges>
29
1   -0.182491
2   -0.143649
3   -0.146731
4   -0.19276
5   -0.143428
6   -0.148087
7   -0.195234
8   -0.200127
9   -0.201871
10   -0.118459
11   -0.054615
12   0.059286
13   0.075892
14   -0.479566
15   -0.111204
16   -0.185795
17   0.154784
18   0.156951
19   0.157708
20   0.156314
21   0.158327
22   0.15165
23   0.166775
24   0.151849
25   0.151061
26   0.130189
27   0.276597
28   0.291817
29   0.264816

$$$$

