PCCDB-ID:  61250
public computational chemistry database (PCCDB) project, http://pccdb.org

 20 19  0  0  0  0  0  0  0  0999 V2000
    0.7126   -0.3963   -0.5278 C   0  0  0  0  0  0  0  0  0  0  0  0
    2.2355   -0.2390   -0.4815 C   0  0  0  0  0  0  0  0  0  0  0  0
    2.8616   -0.8318    0.7879 C   0  0  0  0  0  0  0  0  0  0  0  0
    4.3887   -0.6771    0.8280 C   0  0  0  0  0  0  0  0  0  0  0  0
    4.9820   -1.2646    2.1016 C   0  0  0  0  0  0  0  0  0  0  0  0
    7.1400   -1.5323    3.1186 N   0  0  0  0  0  0  0  0  0  0  0  0
    8.3283   -1.3411    3.0189 O   0  0  0  0  0  0  0  0  0  0  0  0
    6.5141   -2.0647    4.0148 O   0  0  0  0  0  0  0  0  0  0  0  0
    6.4126   -1.0505    2.0089 O   0  0  0  0  0  0  0  0  0  0  0  0
    0.2954    0.0426   -1.4409 H   0  0  0  0  0  0  0  0  0  0  0  0
    0.2359    0.0981    0.3274 H   0  0  0  0  0  0  0  0  0  0  0  0
    0.4216   -1.4536   -0.5034 H   0  0  0  0  0  0  0  0  0  0  0  0
    2.4978    0.8259   -0.5498 H   0  0  0  0  0  0  0  0  0  0  0  0
    2.6819   -0.7204   -1.3627 H   0  0  0  0  0  0  0  0  0  0  0  0
    2.5972   -1.8969    0.8584 H   0  0  0  0  0  0  0  0  0  0  0  0
    2.4191   -0.3471    1.6703 H   0  0  0  0  0  0  0  0  0  0  0  0
    4.6611    0.3837    0.7632 H   0  0  0  0  0  0  0  0  0  0  0  0
    4.8399   -1.1746   -0.0395 H   0  0  0  0  0  0  0  0  0  0  0  0
    4.7836   -2.3374    2.1902 H   0  0  0  0  0  0  0  0  0  0  0  0
    4.6011   -0.7670    2.9991 H   0  0  0  0  0  0  0  0  0  0  0  0
  1 12  1  0  0  0  0
  1  2  1  0  0  0  0
  1 11  1  0  0  0  0
  2  3  1  0  0  0  0
  3  4  1  0  0  0  0
  3 15  1  0  0  0  0
  3 16  1  0  0  0  0
  4  5  1  0  0  0  0
  5 19  1  0  0  0  0
  5 20  1  0  0  0  0
  6  8  2  0  0  0  0
  7  6  2  0  0  0  0
  9  5  1  0  0  0  0
  9  6  1  0  0  0  0
 10  1  1  0  0  0  0
 13  2  1  0  0  0  0
 14  2  1  0  0  0  0
 17  4  1  0  0  0  0
 18  4  1  0  0  0  0
M  END
>  <HBA>
0

>  <HBD>
0

>  <TPSA>
55.05

>  <cid>
61250

>  <dipole>
3.76

>  <excitation_energy_1>
4.703

>  <excitation_energy_2>
5.593

>  <excitation_energy_3>
6.174

>  <excitation_energy_4>
6.688

>  <homo_energy>
-8.414

>  <homo_lumo_gap>
6.765

>  <logP>
1.908

>  <lumo_energy>
-1.649

>  <melting_point>
-1.75

>  <molecular_refractivity>
35.34

>  <oscillator_strength_1>
0.0

>  <oscillator_strength_2>
0.0004

>  <oscillator_strength_3>
0.0775

>  <oscillator_strength_4>
0.0017

>  <open_babel_can_smiles>
CCCCCON(=O)=O

>  <mulliken_charges>
20
1   -0.443585
2   -0.248347
3   -0.259201
4   -0.286361
5   -0.031691
6   0.751657
7   -0.35863
8   -0.372381
9   -0.385945
10   0.147913
11   0.144651
12   0.144677
13   0.136822
14   0.136841
15   0.136723
16   0.136663
17   0.157603
18   0.157677
19   0.167403
20   0.167511

>  <lowdin_charges>
20
1   -0.444142
2   -0.26963
3   -0.272634
4   -0.279842
5   -0.13325
6   0.371134
7   -0.195949
8   -0.224193
9   -0.184383
10   0.153262
11   0.148899
12   0.14678
13   0.140651
14   0.142879
15   0.140546
16   0.142659
17   0.153065
18   0.155333
19   0.153188
20   0.155625

$$$$

