PCCDB-ID:  13227
public computational chemistry database (PCCDB) project, http://pccdb.org

 24 24  0  0  1  0  0  0  0  0999 V2000
    0.7814    0.2583    0.2953 C   0  0  0  0  0  0  0  0  0  0  0  0
    2.6844    1.3343   -0.7014 C   0  0  0  0  0  0  0  0  0  0  0  0
    7.2164   -0.3786    0.9706 C   0  0  0  0  0  0  0  0  0  0  0  0
    6.7326    0.6698    1.7529 C   0  0  0  0  0  0  0  0  0  0  0  0
    6.3201   -1.2348    0.3244 C   0  0  0  0  0  0  0  0  0  0  0  0
    5.3558    0.8616    1.8892 C   0  0  0  0  0  0  0  0  0  0  0  0
    4.9463   -1.0464    0.4633 C   0  0  0  0  0  0  0  0  0  0  0  0
    2.4306   -0.8890    2.2755 C   0  0  0  0  0  0  0  0  0  0  0  0
    4.4575    0.0072    1.2457 C   0  0  0  0  0  0  0  0  0  0  0  0
    2.9495    0.1997    1.4170 C   0  0  1  0  0  0  0  0  0  0  0  0
    2.0456   -1.7338    2.9723 N   0  0  0  0  0  0  0  0  0  0  0  0
    2.2344    0.2196    0.1308 N   0  0  0  0  0  0  0  0  0  0  0  0
    0.3156    0.2242   -0.6942 H   0  0  0  0  0  0  0  0  0  0  0  0
    0.4292    1.1731    0.8094 H   0  0  0  0  0  0  0  0  0  0  0  0
    0.4402   -0.6109    0.8627 H   0  0  0  0  0  0  0  0  0  0  0  0
    2.1803    1.2749   -1.6708 H   0  0  0  0  0  0  0  0  0  0  0  0
    3.7613    1.2720   -0.8708 H   0  0  0  0  0  0  0  0  0  0  0  0
    2.4566    2.3222   -0.2559 H   0  0  0  0  0  0  0  0  0  0  0  0
    8.2872   -0.5300    0.8641 H   0  0  0  0  0  0  0  0  0  0  0  0
    7.4232    1.3403    2.2569 H   0  0  0  0  0  0  0  0  0  0  0  0
    6.6927   -2.0533   -0.2854 H   0  0  0  0  0  0  0  0  0  0  0  0
    4.9801    1.6808    2.4980 H   0  0  0  0  0  0  0  0  0  0  0  0
    4.2431   -1.7031   -0.0401 H   0  0  0  0  0  0  0  0  0  0  0  0
    2.7846    1.1400    1.9825 H   0  0  0  0  0  0  0  0  0  0  0  0
  1 14  1  0  0  0  0
  1 15  1  0  0  0  0
  2 18  1  0  0  0  0
  2 12  1  0  0  0  0
  3  4  2  0  0  0  0
  4  6  1  0  0  0  0
  4 20  1  0  0  0  0
  5  7  2  0  0  0  0
  5  3  1  0  0  0  0
  6 22  1  0  0  0  0
  7  9  1  0  0  0  0
  8 11  3  0  0  0  0
  9 10  1  0  0  0  0
  9  6  2  0  0  0  0
 10 24  1  1  0  0  0
 10  8  1  0  0  0  0
 12  1  1  0  0  0  0
 12 10  1  0  0  0  0
 13  1  1  0  0  0  0
 16  2  1  0  0  0  0
 17  2  1  0  0  0  0
 19  3  1  0  0  0  0
 21  5  1  0  0  0  0
 23  7  1  0  0  0  0
M  END
>  <HBA>
2

>  <HBD>
0

>  <TPSA>
27.03

>  <cid>
13227

>  <dipole>
4.02

>  <excitation_energy_1>
4.859

>  <excitation_energy_2>
5.156

>  <excitation_energy_3>
5.285

>  <excitation_energy_4>
5.749

>  <homo_energy>
-6.389

>  <homo_lumo_gap>
5.831

>  <logP>
1.813

>  <lumo_energy>
-0.558

>  <melting_point>
41.7

>  <molecular_refractivity>
48.47

>  <oscillator_strength_1>
0.0029

>  <oscillator_strength_2>
0.005

>  <oscillator_strength_3>
0.0007

>  <oscillator_strength_4>
0.0448

>  <open_babel_can_smiles>
CN([C@H](c1ccccc1)C#N)C

>  <mulliken_charges>
24
1   -0.316903
2   -0.306581
3   -0.123929
4   -0.12971
5   -0.131736
6   -0.175118
7   -0.148826
8   0.359492
9   0.124964
10   -0.063438
11   -0.483858
12   -0.382043
13   0.158499
14   0.125114
15   0.184557
16   0.159455
17   0.17275
18   0.12272
19   0.136069
20   0.136421
21   0.138365
22   0.13354
23   0.155322
24   0.154873

>  <lowdin_charges>
24
1   -0.362669
2   -0.358004
3   -0.148719
4   -0.154138
5   -0.150401
6   -0.162378
7   -0.148778
8   -0.01247
9   -0.011348
10   -0.053692
11   -0.122031
12   -0.175502
13   0.156618
14   0.126233
15   0.169301
16   0.156535
17   0.161408
18   0.123801
19   0.159205
20   0.162653
21   0.162607
22   0.159271
23   0.172773
24   0.149724

$$$$

