PCCDB-ID:  25713
public computational chemistry database (PCCDB) project, http://pccdb.org

 13 12  0  0  0  0  0  0  0  0999 V2000
    3.2234   -0.5060   -1.0555 C   0  0  0  0  0  0  0  0  0  0  0  0
    4.8498    0.6957    1.2031 C   0  0  0  0  0  0  0  0  0  0  0  0
    2.6231   -0.0635    0.2633 C   0  0  0  0  0  0  0  0  0  0  0  0
    3.4753    0.2578    1.2783 N   0  0  0  0  0  0  0  0  0  0  0  0
    1.4046   -0.0217    0.4689 O   0  0  0  0  0  0  0  0  0  0  0  0
    2.8404    0.7823    2.4203 O   0  0  0  0  0  0  0  0  0  0  0  0
    4.0294   -1.2342   -0.9226 H   0  0  0  0  0  0  0  0  0  0  0  0
    3.6240    0.3495   -1.6122 H   0  0  0  0  0  0  0  0  0  0  0  0
    2.4243   -0.9588   -1.6441 H   0  0  0  0  0  0  0  0  0  0  0  0
    5.3305    0.2286    0.3428 H   0  0  0  0  0  0  0  0  0  0  0  0
    5.3721    0.3848    2.1125 H   0  0  0  0  0  0  0  0  0  0  0  0
    4.9134    1.7883    1.1149 H   0  0  0  0  0  0  0  0  0  0  0  0
    1.8938    0.6712    2.1583 H   0  0  0  0  0  0  0  0  0  0  0  0
  1  7  1  0  0  0  0
  1  3  1  0  0  0  0
  2  4  1  0  0  0  0
  2 11  1  0  0  0  0
  3  5  2  0  0  0  0
  3  4  1  0  0  0  0
  4  6  1  0  0  0  0
  8  1  1  0  0  0  0
  9  1  1  0  0  0  0
 10  2  1  0  0  0  0
 12  2  1  0  0  0  0
 13  6  1  0  0  0  0
M  END
>  <HBA>
3

>  <HBD>
1

>  <TPSA>
40.54

>  <cid>
25713

>  <dipole>
3.5

>  <excitation_energy_1>
5.46

>  <excitation_energy_2>
5.866

>  <excitation_energy_3>
6.158

>  <excitation_energy_4>
6.268

>  <homo_energy>
-6.09

>  <homo_lumo_gap>
6.487

>  <logP>
-0.146

>  <lumo_energy>
0.397

>  <melting_point>
53.36

>  <molecular_refractivity>
20.36

>  <oscillator_strength_1>
0.0273

>  <oscillator_strength_2>
0.0126

>  <oscillator_strength_3>
0.0944

>  <oscillator_strength_4>
0.017

>  <open_babel_can_smiles>
CC(=O)N(O)C

>  <mulliken_charges>
13
1   -0.544845
2   -0.305988
3   0.57962
4   -0.160876
5   -0.539041
6   -0.529485
7   0.174197
8   0.178107
9   0.195846
10   0.168439
11   0.184988
12   0.172501
13   0.426537

>  <lowdin_charges>
13
1   -0.469026
2   -0.34589
3   0.140571
4   0.015328
5   -0.328029
6   -0.392348
7   0.169677
8   0.173582
9   0.185564
10   0.168556
11   0.169646
12   0.155378
13   0.35699

$$$$

