PCCDB-ID:  43390
public computational chemistry database (PCCDB) project, http://pccdb.org

 29 28  0  0  0  0  0  0  0  0999 V2000
    5.5851   -2.1931   -2.7432 C   0  0  0  0  0  0  0  0  0  0  0  0
    3.5538    4.2499   -2.7281 C   0  0  0  0  0  0  0  0  0  0  0  0
    4.2921    2.3112    1.9594 C   0  0  0  0  0  0  0  0  0  0  0  0
    4.4594   -1.2191   -3.0888 C   0  0  0  0  0  0  0  0  0  0  0  0
    3.0457    2.8765   -2.2873 C   0  0  0  0  0  0  0  0  0  0  0  0
    5.5110    2.4117    1.0498 C   0  0  0  0  0  0  0  0  0  0  0  0
    5.2801    0.8678   -2.3018 C   0  0  0  0  0  0  0  0  0  0  0  0
    5.0444    1.9586   -1.2525 C   0  0  0  0  0  0  0  0  0  0  0  0
    4.3226   -0.1547   -2.1573 O   0  0  0  0  0  0  0  0  0  0  0  0
    3.6906    2.3582   -1.1282 O   0  0  0  0  0  0  0  0  0  0  0  0
    5.4674    1.4640   -0.0220 O   0  0  0  0  0  0  0  0  0  0  0  0
    5.5862   -3.0338   -3.4472 H   0  0  0  0  0  0  0  0  0  0  0  0
    5.4465   -2.5877   -1.7315 H   0  0  0  0  0  0  0  0  0  0  0  0
    6.5706   -1.7175   -2.7923 H   0  0  0  0  0  0  0  0  0  0  0  0
    2.9256    4.6367   -3.5392 H   0  0  0  0  0  0  0  0  0  0  0  0
    4.5847    4.2159   -3.0976 H   0  0  0  0  0  0  0  0  0  0  0  0
    3.5129    4.9591   -1.8943 H   0  0  0  0  0  0  0  0  0  0  0  0
    4.1875    1.2896    2.3393 H   0  0  0  0  0  0  0  0  0  0  0  0
    3.3831    2.5707    1.4123 H   0  0  0  0  0  0  0  0  0  0  0  0
    4.4020    2.9882    2.8161 H   0  0  0  0  0  0  0  0  0  0  0  0
    3.4969   -1.7415   -3.0699 H   0  0  0  0  0  0  0  0  0  0  0  0
    4.5981   -0.8165   -4.1070 H   0  0  0  0  0  0  0  0  0  0  0  0
    3.1032    2.1545   -3.1134 H   0  0  0  0  0  0  0  0  0  0  0  0
    1.9919    2.9495   -2.0000 H   0  0  0  0  0  0  0  0  0  0  0  0
    6.4249    2.1838    1.6119 H   0  0  0  0  0  0  0  0  0  0  0  0
    5.6130    3.4289    0.6444 H   0  0  0  0  0  0  0  0  0  0  0  0
    6.3088    0.5056   -2.1603 H   0  0  0  0  0  0  0  0  0  0  0  0
    5.2225    1.3098   -3.3121 H   0  0  0  0  0  0  0  0  0  0  0  0
    5.6633    2.8332   -1.5352 H   0  0  0  0  0  0  0  0  0  0  0  0
  1 13  1  0  0  0  0
  2  5  1  0  0  0  0
  2 17  1  0  0  0  0
  3 18  1  0  0  0  0
  3 20  1  0  0  0  0
  4 21  1  0  0  0  0
  4  1  1  0  0  0  0
  4  9  1  0  0  0  0
  5 24  1  0  0  0  0
  5 10  1  0  0  0  0
  6 25  1  0  0  0  0
  6  3  1  0  0  0  0
  7 27  1  0  0  0  0
  7  9  1  0  0  0  0
  7  8  1  0  0  0  0
  8 10  1  0  0  0  0
  8 11  1  0  0  0  0
 11  6  1  0  0  0  0
 12  1  1  0  0  0  0
 14  1  1  0  0  0  0
 15  2  1  0  0  0  0
 16  2  1  0  0  0  0
 19  3  1  0  0  0  0
 22  4  1  0  0  0  0
 23  5  1  0  0  0  0
 26  6  1  0  0  0  0
 28  7  1  0  0  0  0
 29  8  1  0  0  0  0
M  END
>  <HBA>
3

>  <HBD>
0

>  <TPSA>
27.69

>  <cid>
43390

>  <dipole>
2.26

>  <excitation_energy_1>
6.25

>  <excitation_energy_2>
6.317

>  <excitation_energy_3>
6.628

>  <excitation_energy_4>
6.738

>  <homo_energy>
-6.689

>  <homo_lumo_gap>
8.729

>  <logP>
1.422

>  <lumo_energy>
2.041

>  <melting_point>
-54.74

>  <molecular_refractivity>
43.83

>  <oscillator_strength_1>
0.0201

>  <oscillator_strength_2>
0.0086

>  <oscillator_strength_3>
0.007

>  <oscillator_strength_4>
0.0263

>  <open_babel_can_smiles>
CCOCC(OCC)OCC

>  <mulliken_charges>
29
1   -0.458602
2   -0.465889
3   -0.44446
4   -0.012489
5   -0.023089
6   -0.018841
7   -0.053394
8   0.376591
9   -0.457018
10   -0.477104
11   -0.479336
12   0.141259
13   0.164674
14   0.149102
15   0.145758
16   0.147379
17   0.156982
18   0.154538
19   0.173415
20   0.128293
21   0.146075
22   0.113612
23   0.137084
24   0.148919
25   0.13681
26   0.12371
27   0.139754
28   0.112104
29   0.094162

>  <lowdin_charges>
29
1   -0.460319
2   -0.465027
3   -0.45717
4   -0.126233
5   -0.129389
6   -0.123428
7   -0.150734
8   0.09613
9   -0.25969
10   -0.267979
11   -0.247093
12   0.154047
13   0.159136
14   0.149655
15   0.156872
16   0.146693
17   0.156071
18   0.154795
19   0.164072
20   0.146568
21   0.147657
22   0.122431
23   0.135898
24   0.148934
25   0.141201
26   0.131312
27   0.141665
28   0.123385
29   0.110541

$$$$

