PCCDB-ID:  12582
public computational chemistry database (PCCDB) project, http://pccdb.org

 23 22  0  0  0  0  0  0  0  0999 V2000
    2.4701   -1.3673    2.4257 C   0  0  0  0  0  0  0  0  0  0  0  0
    4.6127    1.6134    4.7947 C   0  0  0  0  0  0  0  0  0  0  0  0
    2.2622   -0.5514    1.1464 C   0  0  0  0  0  0  0  0  0  0  0  0
    4.5387    2.3871    3.4657 C   0  0  0  0  0  0  0  0  0  0  0  0
    2.8031    0.8933    1.2347 C   0  0  0  0  0  0  0  0  0  0  0  0
    4.2968    0.9552    1.3588 C   0  0  0  0  0  0  0  0  0  0  0  0
    6.5116    1.4700    2.1417 C   0  0  0  0  0  0  0  0  0  0  0  0
    5.0433    1.5842    2.2897 C   0  0  0  0  0  0  0  0  0  0  0  0
    7.3267    1.9879    2.8838 O   0  0  0  0  0  0  0  0  0  0  0  0
    2.0630   -2.3788    2.3183 H   0  0  0  0  0  0  0  0  0  0  0  0
    1.9686   -0.8960    3.2801 H   0  0  0  0  0  0  0  0  0  0  0  0
    3.5333   -1.4584    2.6750 H   0  0  0  0  0  0  0  0  0  0  0  0
    4.2628    2.2389    5.6236 H   0  0  0  0  0  0  0  0  0  0  0  0
    5.6431    1.3142    5.0081 H   0  0  0  0  0  0  0  0  0  0  0  0
    3.9920    0.7106    4.7637 H   0  0  0  0  0  0  0  0  0  0  0  0
    1.1917   -0.5028    0.9102 H   0  0  0  0  0  0  0  0  0  0  0  0
    2.7404   -1.0623    0.2991 H   0  0  0  0  0  0  0  0  0  0  0  0
    5.1593    3.2866    3.5511 H   0  0  0  0  0  0  0  0  0  0  0  0
    3.5112    2.7204    3.2874 H   0  0  0  0  0  0  0  0  0  0  0  0
    2.3156    1.4188    2.0631 H   0  0  0  0  0  0  0  0  0  0  0  0
    2.5152    1.4230    0.3133 H   0  0  0  0  0  0  0  0  0  0  0  0
    4.8377    0.4168    0.5753 H   0  0  0  0  0  0  0  0  0  0  0  0
    6.8458    0.8619    1.2701 H   0  0  0  0  0  0  0  0  0  0  0  0
  1 12  1  0  0  0  0
  1 11  1  0  0  0  0
  2 14  1  0  0  0  0
  2 13  1  0  0  0  0
  3  5  1  0  0  0  0
  3  1  1  0  0  0  0
  4 18  1  0  0  0  0
  4  2  1  0  0  0  0
  5  6  1  0  0  0  0
  5 20  1  0  0  0  0
  6  8  2  0  0  0  0
  7  8  1  0  0  0  0
  7  9  2  0  0  0  0
  8  4  1  0  0  0  0
 10  1  1  0  0  0  0
 15  2  1  0  0  0  0
 16  3  1  0  0  0  0
 17  3  1  0  0  0  0
 19  4  1  0  0  0  0
 21  5  1  0  0  0  0
 22  6  1  0  0  0  0
 23  7  1  0  0  0  0
M  END
>  <HBA>
1

>  <HBD>
0

>  <TPSA>
17.07

>  <cid>
12582

>  <dipole>
3.61

>  <excitation_energy_1>
3.79

>  <excitation_energy_2>
5.55

>  <excitation_energy_3>
6.352

>  <excitation_energy_4>
6.443

>  <homo_energy>
-6.716

>  <homo_lumo_gap>
5.369

>  <logP>
2.322

>  <lumo_energy>
-1.347

>  <melting_point>
17.04

>  <molecular_refractivity>
40.3

>  <oscillator_strength_1>
0.0004

>  <oscillator_strength_2>
0.4063

>  <oscillator_strength_3>
0.0301

>  <oscillator_strength_4>
0.0072

>  <open_babel_can_smiles>
CCC/C=C(/C=O)\CC

>  <mulliken_charges>
23
1   -0.442953
2   -0.448548
3   -0.256726
4   -0.327155
5   -0.304077
6   -0.153334
7   0.20034
8   0.125113
9   -0.419277
10   0.147946
11   0.146054
12   0.153864
13   0.145426
14   0.170887
15   0.143519
16   0.141138
17   0.137509
18   0.164926
19   0.138651
20   0.149667
21   0.155539
22   0.1344
23   0.09709

>  <lowdin_charges>
23
1   -0.446223
2   -0.442015
3   -0.267925
4   -0.272094
5   -0.278599
6   -0.128757
7   0.038586
8   -0.054667
9   -0.238724
10   0.152275
11   0.148996
12   0.150608
13   0.152123
14   0.1603
15   0.146467
16   0.144985
17   0.142981
18   0.163525
19   0.146157
20   0.1527
21   0.160214
22   0.154548
23   0.114538

$$$$

