PCCDB-ID:  40908
public computational chemistry database (PCCDB) project, http://pccdb.org

 21 22  0  0  0  0  0  0  0  0999 V2000
    2.8038    1.2628    0.0485 C   0  0  0  0  0  0  0  0  0  0  0  0
    3.5992   -2.7548   -2.5051 C   0  0  0  0  0  0  0  0  0  0  0  0
    3.0639   -2.0673   -1.4338 C   0  0  0  0  0  0  0  0  0  0  0  0
    5.0537   -2.3598   -4.6663 C   0  0  0  0  0  0  0  0  0  0  0  0
    3.9988    0.0660   -2.2085 C   0  0  0  0  0  0  0  0  0  0  0  0
    6.3960   -0.8798   -6.2968 C   0  0  0  0  0  0  0  0  0  0  0  0
    4.3538   -2.0435   -3.4608 C   0  0  0  0  0  0  0  0  0  0  0  0
    3.2572   -0.6684   -1.2811 C   0  0  0  0  0  0  0  0  0  0  0  0
    5.5888   -1.1871   -5.1255 C   0  0  0  0  0  0  0  0  0  0  0  0
    4.5263   -0.6563   -3.2771 C   0  0  0  0  0  0  0  0  0  0  0  0
    6.7419   -1.7162   -7.1150 O   0  0  0  0  0  0  0  0  0  0  0  0
    2.6686   -0.1330   -0.1778 O   0  0  0  0  0  0  0  0  0  0  0  0
    5.2748   -0.1299   -4.2828 O   0  0  0  0  0  0  0  0  0  0  0  0
    2.2528    1.4710    0.9669 H   0  0  0  0  0  0  0  0  0  0  0  0
    2.3728    1.8456   -0.7758 H   0  0  0  0  0  0  0  0  0  0  0  0
    3.8558    1.5466    0.1820 H   0  0  0  0  0  0  0  0  0  0  0  0
    3.4404   -3.8243   -2.6055 H   0  0  0  0  0  0  0  0  0  0  0  0
    2.4779   -2.5761   -0.6757 H   0  0  0  0  0  0  0  0  0  0  0  0
    5.1607   -3.3207   -5.1498 H   0  0  0  0  0  0  0  0  0  0  0  0
    4.1685    1.1313   -2.1222 H   0  0  0  0  0  0  0  0  0  0  0  0
    6.6783    0.1893   -6.3927 H   0  0  0  0  0  0  0  0  0  0  0  0
  1 16  1  0  0  0  0
  1 14  1  0  0  0  0
  2  3  2  0  0  0  0
  3  8  1  0  0  0  0
  3 18  1  0  0  0  0
  4  7  1  0  0  0  0
  5 20  1  0  0  0  0
  5  8  2  0  0  0  0
  6  9  1  0  0  0  0
  7 10  2  0  0  0  0
  7  2  1  0  0  0  0
  8 12  1  0  0  0  0
  9  4  2  0  0  0  0
  9 13  1  0  0  0  0
 10  5  1  0  0  0  0
 11  6  2  0  0  0  0
 12  1  1  0  0  0  0
 13 10  1  0  0  0  0
 15  1  1  0  0  0  0
 17  2  1  0  0  0  0
 19  4  1  0  0  0  0
 21  6  1  0  0  0  0
M  END
>  <HBA>
3

>  <HBD>
0

>  <TPSA>
39.44

>  <cid>
40908

>  <dipole>
4.42

>  <excitation_energy_1>
3.626

>  <excitation_energy_2>
3.876

>  <excitation_energy_3>
4.282

>  <excitation_energy_4>
5.034

>  <homo_energy>
-5.935

>  <homo_lumo_gap>
4.087

>  <logP>
2.254

>  <lumo_energy>
-1.848

>  <melting_point>
87.76

>  <molecular_refractivity>
48.09

>  <oscillator_strength_1>
0.0001

>  <oscillator_strength_2>
0.4835

>  <oscillator_strength_3>
0.0365

>  <oscillator_strength_4>
0.0588

>  <open_babel_can_smiles>
COc1ccc2c(c1)oc(c2)C=O

>  <mulliken_charges>
21
1   -0.217928
2   -0.195982
3   -0.176283
4   -0.219139
5   -0.272239
6   0.170395
7   0.116527
8   0.378154
9   0.291008
10   0.33741
11   -0.411185
12   -0.502995
13   -0.525744
14   0.17655
15   0.15768
16   0.157642
17   0.146232
18   0.146904
19   0.174414
20   0.152014
21   0.116565

>  <lowdin_charges>
21
1   -0.276515
2   -0.138032
3   -0.18487
4   -0.155319
5   -0.236522
6   0.037446
7   -0.047742
8   0.113604
9   0.029566
10   0.103688
11   -0.235365
12   -0.189205
13   -0.111711
14   0.166833
15   0.149897
16   0.147414
17   0.165631
18   0.173035
19   0.18715
20   0.175263
21   0.125752

$$$$

