PCCDB-ID:  13062
public computational chemistry database (PCCDB) project, http://pccdb.org

 26 27  0  0  0  0  0  0  0  0999 V2000
    2.2686   -0.4745   -0.2342 C   0  0  0  0  0  0  0  0  0  0  0  0
    1.9529   -1.6675   -0.7797 C   0  0  0  0  0  0  0  0  0  0  0  0
    3.8302    2.8371    1.7697 C   0  0  0  0  0  0  0  0  0  0  0  0
    2.4831    3.3466    1.4284 C   0  0  0  0  0  0  0  0  0  0  0  0
    0.3857   -4.9764   -2.7865 C   0  0  0  0  0  0  0  0  0  0  0  0
    1.7317   -5.4868   -2.4416 C   0  0  0  0  0  0  0  0  0  0  0  0
    2.3104    0.8877    1.6474 C   0  0  0  0  0  0  0  0  0  0  0  0
    1.9075   -3.0284   -2.6621 C   0  0  0  0  0  0  0  0  0  0  0  0
    2.0196   -0.2345    1.1123 N   0  0  0  0  0  0  0  0  0  0  0  0
    2.2019   -1.9075   -2.1263 N   0  0  0  0  0  0  0  0  0  0  0  0
    2.8947    1.9928    0.9924 N   0  0  0  0  0  0  0  0  0  0  0  0
    1.3202   -4.1322   -2.0079 N   0  0  0  0  0  0  0  0  0  0  0  0
    2.0470    1.0724    2.9738 O   0  0  0  0  0  0  0  0  0  0  0  0
    2.1706   -3.2130   -3.9887 O   0  0  0  0  0  0  0  0  0  0  0  0
    2.7199    0.3070   -0.8438 H   0  0  0  0  0  0  0  0  0  0  0  0
    1.5018   -2.4490   -0.1701 H   0  0  0  0  0  0  0  0  0  0  0  0
    4.0137    2.5595    2.8039 H   0  0  0  0  0  0  0  0  0  0  0  0
    4.7014    3.1598    1.2052 H   0  0  0  0  0  0  0  0  0  0  0  0
    2.3508    4.0494    0.6097 H   0  0  0  0  0  0  0  0  0  0  0  0
    1.7547    3.4143    2.2315 H   0  0  0  0  0  0  0  0  0  0  0  0
   -0.4871   -5.2976   -2.2235 H   0  0  0  0  0  0  0  0  0  0  0  0
    0.2050   -4.7002   -3.8214 H   0  0  0  0  0  0  0  0  0  0  0  0
    2.4615   -5.5559   -3.2433 H   0  0  0  0  0  0  0  0  0  0  0  0
    1.8619   -6.1891   -1.6221 H   0  0  0  0  0  0  0  0  0  0  0  0
    1.6542    0.2327    3.2734 H   0  0  0  0  0  0  0  0  0  0  0  0
    2.5639   -2.3735   -4.2882 H   0  0  0  0  0  0  0  0  0  0  0  0
  1  9  1  0  0  0  0
  2  1  2  0  0  0  0
  2 16  1  0  0  0  0
  3 17  1  0  0  0  0
  4  3  1  0  0  0  0
  4 20  1  0  0  0  0
  5  6  1  0  0  0  0
  5 21  1  0  0  0  0
  5 12  1  0  0  0  0
  6 12  1  0  0  0  0
  6 24  1  0  0  0  0
  7 13  1  0  0  0  0
  8 10  2  0  0  0  0
  8 12  1  0  0  0  0
  9  7  2  0  0  0  0
 10  2  1  0  0  0  0
 11  4  1  0  0  0  0
 11  7  1  0  0  0  0
 11  3  1  0  0  0  0
 13 25  1  0  0  0  0
 14  8  1  0  0  0  0
 15  1  1  0  0  0  0
 18  3  1  0  0  0  0
 19  4  1  0  0  0  0
 22  5  1  0  0  0  0
 23  6  1  0  0  0  0
 26 14  1  0  0  0  0
M  END
>  <HBA>
6

>  <HBD>
2

>  <TPSA>
64.22

>  <cid>
13062

>  <dipole>
0.0

>  <excitation_energy_1>
4.504

>  <excitation_energy_2>
4.794

>  <excitation_energy_3>
4.842

>  <excitation_energy_4>
5.255

>  <homo_energy>
-4.993

>  <homo_lumo_gap>
4.512

>  <logP>
0.166

>  <lumo_energy>
-0.482

>  <melting_point>
122.28

>  <molecular_refractivity>
56.27

>  <oscillator_strength_1>
1.2838

>  <oscillator_strength_2>
0.0007

>  <oscillator_strength_3>
0.0

>  <oscillator_strength_4>
0.0002

>  <open_babel_can_smiles>
O/C(=N/C=C/N=C(\N1CC1)/O)/N1CC1

>  <mulliken_charges>
26
1   0.019573
2   0.019503
3   -0.193728
4   -0.19381
5   -0.193621
6   -0.193911
7   0.645857
8   0.645857
9   -0.506702
10   -0.506663
11   -0.424259
12   -0.424237
13   -0.609896
14   -0.609891
15   0.146237
16   0.146231
17   0.18154
18   0.168831
19   0.168827
20   0.181481
21   0.168816
22   0.18155
23   0.181413
24   0.168835
25   0.416084
26   0.416082

>  <lowdin_charges>
26
1   -0.119547
2   -0.119551
3   -0.224583
4   -0.224435
5   -0.224596
6   -0.224407
7   0.153457
8   0.153468
9   -0.203486
10   -0.203487
11   -0.185816
12   -0.18578
13   -0.381351
14   -0.381348
15   0.154652
16   0.154648
17   0.166101
18   0.16566
19   0.165703
20   0.167796
21   0.165644
22   0.166089
23   0.167755
24   0.165699
25   0.365856
26   0.365858

$$$$

