PCCDB-ID:  70315
public computational chemistry database (PCCDB) project, http://pccdb.org

 19 20  0  0  0  0  0  0  0  0999 V2000
    0.9455   -0.0606   -0.0778 C   0  0  0  0  0  0  0  0  0  0  0  0
    6.5776    1.6013   -0.0450 C   0  0  0  0  0  0  0  0  0  0  0  0
    4.4851    1.1831   -0.0711 C   0  0  0  0  0  0  0  0  0  0  0  0
    5.1113   -0.0380    0.0305 C   0  0  0  0  0  0  0  0  0  0  0  0
    3.0358    1.2614   -0.1127 C   0  0  0  0  0  0  0  0  0  0  0  0
    3.0414   -1.2674    0.0637 C   0  0  0  0  0  0  0  0  0  0  0  0
    2.3376   -2.3389    0.1170 N   0  0  0  0  0  0  0  0  0  0  0  0
    5.4229    2.1998   -0.1166 N   0  0  0  0  0  0  0  0  0  0  0  0
    6.4535    0.2137    0.0467 N   0  0  0  0  0  0  0  0  0  0  0  0
    4.4485   -1.2325    0.1007 N   0  0  0  0  0  0  0  0  0  0  0  0
    2.4106   -0.0242   -0.0397 N   0  0  0  0  0  0  0  0  0  0  0  0
    2.3741    2.2809   -0.2003 O   0  0  0  0  0  0  0  0  0  0  0  0
    0.6030    0.9686   -0.1603 H   0  0  0  0  0  0  0  0  0  0  0  0
    0.5601   -0.5273    0.8320 H   0  0  0  0  0  0  0  0  0  0  0  0
    0.6097   -0.6524   -0.9328 H   0  0  0  0  0  0  0  0  0  0  0  0
    7.5490    2.0762   -0.0551 H   0  0  0  0  0  0  0  0  0  0  0  0
    2.9249   -3.1705    0.1914 H   0  0  0  0  0  0  0  0  0  0  0  0
    7.2055   -0.4562    0.1245 H   0  0  0  0  0  0  0  0  0  0  0  0
    4.9323   -2.1158    0.1582 H   0  0  0  0  0  0  0  0  0  0  0  0
  1 11  1  0  0  0  0
  1 14  1  0  0  0  0
  2  9  1  0  0  0  0
  3  4  2  0  0  0  0
  4  9  1  0  0  0  0
  4 10  1  0  0  0  0
  5  3  1  0  0  0  0
  5 11  1  0  0  0  0
  6 10  1  0  0  0  0
  6  7  2  0  0  0  0
  7 17  1  0  0  0  0
  8  3  1  0  0  0  0
  8  2  2  0  0  0  0
  9 18  1  0  0  0  0
 10 19  1  0  0  0  0
 11  6  1  0  0  0  0
 12  5  2  0  0  0  0
 13  1  1  0  0  0  0
 15  1  1  0  0  0  0
 16  2  1  0  0  0  0
M  END
>  <HBA>
5

>  <HBD>
2

>  <TPSA>
89.59

>  <cid>
70315

>  <dipole>
8.22

>  <excitation_energy_1>
4.305

>  <excitation_energy_2>
4.817

>  <excitation_energy_3>
5.083

>  <excitation_energy_4>
5.096

>  <homo_energy>
-5.821

>  <homo_lumo_gap>
5.6

>  <logP>
-0.18

>  <lumo_energy>
-0.22

>  <melting_point>
214.71

>  <molecular_refractivity>
43.82

>  <oscillator_strength_1>
0.0001

>  <oscillator_strength_2>
0.0774

>  <oscillator_strength_3>
0.0004

>  <oscillator_strength_4>
0.0057

>  <open_babel_can_smiles>
Cn1c(=N)[nH]c2c(c1=O)nc[nH]2

>  <mulliken_charges>
19
1   -0.308788
2   0.215059
3   0.122114
4   0.618926
5   0.613757
6   0.695292
7   -0.654517
8   -0.459947
9   -0.665691
10   -0.775467
11   -0.557982
12   -0.49747
13   0.200049
14   0.17438
15   0.174464
16   0.169018
17   0.269311
18   0.336056
19   0.331435

>  <lowdin_charges>
19
1   -0.348521
2   -0.078795
3   -0.077414
4   0.073771
5   0.172042
6   0.145296
7   -0.461479
8   -0.137717
9   -0.207245
10   -0.247254
11   -0.093715
12   -0.271848
13   0.18156
14   0.165296
15   0.165618
16   0.174243
17   0.250687
18   0.299549
19   0.295927

$$$$

