PCCDB-ID:  26299
public computational chemistry database (PCCDB) project, http://pccdb.org

 28 28  0  0  1  0  0  0  0  0999 V2000
    5.4152    2.0707    0.6111 C   0  0  0  0  0  0  0  0  0  0  0  0
    5.3343   -0.4241    0.8569 C   0  0  0  0  0  0  0  0  0  0  0  0
    3.4167   -0.6333    4.6629 C   0  0  0  0  0  0  0  0  0  0  0  0
    2.8651    2.6689    3.2733 C   0  0  0  0  0  0  0  0  0  0  0  0
    2.3161    1.5684    4.2051 C   0  0  0  0  0  0  0  0  0  0  0  0
    2.6371    2.3131    1.7959 C   0  0  0  0  0  0  0  0  0  0  0  0
    2.6192   -0.1309    2.3414 C   0  0  0  0  0  0  0  0  0  0  0  0
    4.7997    0.9091    1.4101 C   0  0  0  0  0  0  0  0  0  0  0  0
    2.8234    0.2009    3.8035 C   0  0  0  0  0  0  0  0  0  0  0  0
    3.2449    0.9441    1.4088 C   0  0  2  0  0  0  0  0  0  0  0  0
    5.0400    2.0833   -0.4212 H   0  0  0  0  0  0  0  0  0  0  0  0
    5.2010    3.0475    1.0563 H   0  0  0  0  0  0  0  0  0  0  0  0
    6.5056    1.9673    0.5628 H   0  0  0  0  0  0  0  0  0  0  0  0
    6.4303   -0.4201    0.8340 H   0  0  0  0  0  0  0  0  0  0  0  0
    4.9829   -0.5916   -0.1702 H   0  0  0  0  0  0  0  0  0  0  0  0
    5.0256   -1.2830    1.4605 H   0  0  0  0  0  0  0  0  0  0  0  0
    3.5577   -0.3715    5.7092 H   0  0  0  0  0  0  0  0  0  0  0  0
    3.7759   -1.6125    4.3545 H   0  0  0  0  0  0  0  0  0  0  0  0
    3.9378    2.8031    3.4651 H   0  0  0  0  0  0  0  0  0  0  0  0
    2.3834    3.6268    3.5076 H   0  0  0  0  0  0  0  0  0  0  0  0
    1.2165    1.5740    4.1313 H   0  0  0  0  0  0  0  0  0  0  0  0
    2.5654    1.7834    5.2507 H   0  0  0  0  0  0  0  0  0  0  0  0
    3.0222    3.1090    1.1496 H   0  0  0  0  0  0  0  0  0  0  0  0
    1.5540    2.2691    1.6085 H   0  0  0  0  0  0  0  0  0  0  0  0
    1.5380   -0.1584    2.1335 H   0  0  0  0  0  0  0  0  0  0  0  0
    3.0033   -1.1306    2.1167 H   0  0  0  0  0  0  0  0  0  0  0  0
    5.1449    0.9941    2.4499 H   0  0  0  0  0  0  0  0  0  0  0  0
    2.9238    0.7179    0.3801 H   0  0  0  0  0  0  0  0  0  0  0  0
  1 12  1  0  0  0  0
  1  8  1  0  0  0  0
  2  8  1  0  0  0  0
  2 16  1  0  0  0  0
  3 17  1  0  0  0  0
  4 19  1  0  0  0  0
  4 20  1  0  0  0  0
  4  5  1  0  0  0  0
  5 22  1  0  0  0  0
  6  4  1  0  0  0  0
  7  9  1  0  0  0  0
  8 27  1  0  0  0  0
  9  5  1  0  0  0  0
  9  3  2  0  0  0  0
 10 28  1  6  0  0  0
 10  8  1  0  0  0  0
 10  6  1  0  0  0  0
 10  7  1  0  0  0  0
 11  1  1  0  0  0  0
 13  1  1  0  0  0  0
 14  2  1  0  0  0  0
 15  2  1  0  0  0  0
 18  3  1  0  0  0  0
 21  5  1  0  0  0  0
 23  6  1  0  0  0  0
 24  6  1  0  0  0  0
 25  7  1  0  0  0  0
 26  7  1  0  0  0  0
M  END
>  <HBA>
0

>  <HBD>
0

>  <TPSA>
0.0

>  <cid>
26299

>  <dipole>
0.52

>  <excitation_energy_1>
5.936

>  <excitation_energy_2>
6.213

>  <excitation_energy_3>
6.427

>  <excitation_energy_4>
6.496

>  <homo_energy>
-6.43

>  <homo_lumo_gap>
7.159

>  <logP>
3.389

>  <lumo_energy>
0.729

>  <melting_point>
-23.82

>  <molecular_refractivity>
47.6

>  <oscillator_strength_1>
0.0735

>  <oscillator_strength_2>
0.0868

>  <oscillator_strength_3>
0.0046

>  <oscillator_strength_4>
0.0047

>  <open_babel_can_smiles>
C=C1CCC[C@H](C1)C(C)C

>  <mulliken_charges>
28
1   -0.452594
2   -0.451013
3   -0.420797
4   -0.264017
5   -0.325349
6   -0.276992
7   -0.341183
8   -0.065752
9   0.244784
10   -0.072681
11   0.137271
12   0.144977
13   0.139025
14   0.139096
15   0.136215
16   0.145073
17   0.129559
18   0.129339
19   0.140863
20   0.131269
21   0.137672
22   0.136162
23   0.136916
24   0.125235
25   0.135545
26   0.138727
27   0.130818
28   0.111834

>  <lowdin_charges>
28
1   -0.443271
2   -0.443342
3   -0.366912
4   -0.276094
5   -0.271308
6   -0.282225
7   -0.27553
8   -0.125669
9   0.006267
10   -0.126595
11   0.143478
12   0.147729
13   0.146295
14   0.146012
15   0.142912
16   0.148956
17   0.151191
18   0.151791
19   0.140759
20   0.144063
21   0.143494
22   0.146733
23   0.147196
24   0.136764
25   0.145053
26   0.147941
27   0.139517
28   0.134794

$$$$

