PCCDB-ID:  70302
public computational chemistry database (PCCDB) project, http://pccdb.org

 27 27  0  0  0  0  0  0  0  0999 V2000
   -1.6338    0.7487   -0.2536 C   0  0  0  0  0  0  0  0  0  0  0  0
   -0.3618    1.5635   -0.5431 C   0  0  0  0  0  0  0  0  0  0  0  0
   -1.4423   -0.7722   -0.1653 C   0  0  0  0  0  0  0  0  0  0  0  0
    0.6576    1.5030    0.6090 C   0  0  0  0  0  0  0  0  0  0  0  0
    2.9823   -2.0302   -0.9257 C   0  0  0  0  0  0  0  0  0  0  0  0
    3.8963   -3.1743   -0.8963 C   0  0  0  0  0  0  0  0  0  0  0  0
   -0.3019   -1.2552    0.7464 C   0  0  0  0  0  0  0  0  0  0  0  0
    1.6210    0.3058    0.5812 C   0  0  0  0  0  0  0  0  0  0  0  0
    1.9731   -2.0665    0.2483 C   0  0  0  0  0  0  0  0  0  0  0  0
    4.6080   -4.0906   -0.8547 N   0  0  0  0  0  0  0  0  0  0  0  0
    1.0210   -0.9671    0.1706 N   0  0  0  0  0  0  0  0  0  0  0  0
   -2.3861    0.9605   -1.0250 H   0  0  0  0  0  0  0  0  0  0  0  0
   -2.0609    1.1122    0.6931 H   0  0  0  0  0  0  0  0  0  0  0  0
   -0.6546    2.6096   -0.7003 H   0  0  0  0  0  0  0  0  0  0  0  0
    0.1035    1.2253   -1.4785 H   0  0  0  0  0  0  0  0  0  0  0  0
   -1.2470   -1.1784   -1.1663 H   0  0  0  0  0  0  0  0  0  0  0  0
   -2.3825   -1.2234    0.1823 H   0  0  0  0  0  0  0  0  0  0  0  0
    0.1105    1.5206    1.5608 H   0  0  0  0  0  0  0  0  0  0  0  0
    1.2796    2.4070    0.6103 H   0  0  0  0  0  0  0  0  0  0  0  0
    2.4293   -2.0309   -1.8719 H   0  0  0  0  0  0  0  0  0  0  0  0
    3.5807   -1.1128   -0.9031 H   0  0  0  0  0  0  0  0  0  0  0  0
   -0.3949   -2.3411    0.8535 H   0  0  0  0  0  0  0  0  0  0  0  0
   -0.4100   -0.8408    1.7637 H   0  0  0  0  0  0  0  0  0  0  0  0
    2.1011    0.2182    1.5772 H   0  0  0  0  0  0  0  0  0  0  0  0
    2.4273    0.5341   -0.1276 H   0  0  0  0  0  0  0  0  0  0  0  0
    2.5351   -2.0820    1.2015 H   0  0  0  0  0  0  0  0  0  0  0  0
    1.4261   -3.0113    0.1850 H   0  0  0  0  0  0  0  0  0  0  0  0
  1  3  1  0  0  0  0
  1 13  1  0  0  0  0
  2  1  1  0  0  0  0
  2  4  1  0  0  0  0
  3 17  1  0  0  0  0
  3  7  1  0  0  0  0
  4 19  1  0  0  0  0
  4 18  1  0  0  0  0
  5 21  1  0  0  0  0
  5  6  1  0  0  0  0
  5  9  1  0  0  0  0
  6 10  3  0  0  0  0
  7 22  1  0  0  0  0
  7 23  1  0  0  0  0
  8  4  1  0  0  0  0
  8 24  1  0  0  0  0
  9 26  1  0  0  0  0
 11  9  1  0  0  0  0
 11  8  1  0  0  0  0
 11  7  1  0  0  0  0
 12  1  1  0  0  0  0
 14  2  1  0  0  0  0
 15  2  1  0  0  0  0
 16  3  1  0  0  0  0
 20  5  1  0  0  0  0
 25  8  1  0  0  0  0
 27  9  1  0  0  0  0
M  END
>  <HBA>
2

>  <HBD>
0

>  <TPSA>
27.03

>  <cid>
70302

>  <dipole>
4.41

>  <excitation_energy_1>
5.231

>  <excitation_energy_2>
5.556

>  <excitation_energy_3>
5.635

>  <excitation_energy_4>
5.712

>  <homo_energy>
-5.935

>  <homo_lumo_gap>
6.925

>  <logP>
1.714

>  <lumo_energy>
0.991

>  <melting_point>
30.56

>  <molecular_refractivity>
49.82

>  <oscillator_strength_1>
0.0069

>  <oscillator_strength_2>
0.0523

>  <oscillator_strength_3>
0.0281

>  <oscillator_strength_4>
0.0382

>  <open_babel_can_smiles>
N#CCCN1CCCCCC1

>  <mulliken_charges>
27
1   -0.262289
2   -0.247678
3   -0.237819
4   -0.288804
5   -0.343169
6   0.344714
7   -0.140491
8   -0.118781
9   -0.119312
10   -0.474163
11   -0.391633
12   0.132868
13   0.127708
14   0.13183
15   0.139346
16   0.136166
17   0.12653
18   0.139047
19   0.140172
20   0.199663
21   0.193807
22   0.13749
23   0.127108
24   0.115094
25   0.136444
26   0.136244
27   0.159909

>  <lowdin_charges>
27
1   -0.277783
2   -0.276932
3   -0.281661
4   -0.286336
5   -0.281436
6   -0.017943
7   -0.196799
8   -0.200448
9   -0.190056
10   -0.131038
11   -0.194641
12   0.145593
13   0.136574
14   0.143766
15   0.145273
16   0.143379
17   0.143087
18   0.141495
19   0.151765
20   0.184171
21   0.179698
22   0.145971
23   0.128509
24   0.119985
25   0.138993
26   0.130681
27   0.156132

$$$$

