PCCDB-ID:  35110
public computational chemistry database (PCCDB) project, http://pccdb.org

 32 32  0  0  0  0  0  0  0  0999 V2000
    1.1653    0.2870   -0.5606 C   0  0  0  0  0  0  0  0  0  0  0  0
    4.8793   -5.6805    2.3624 C   0  0  0  0  0  0  0  0  0  0  0  0
    7.3167    2.2475   -0.0156 C   0  0  0  0  0  0  0  0  0  0  0  0
    2.6746    0.2711   -0.3238 C   0  0  0  0  0  0  0  0  0  0  0  0
    5.2161   -4.4664    3.2390 C   0  0  0  0  0  0  0  0  0  0  0  0
    7.4789    0.9751   -0.8305 C   0  0  0  0  0  0  0  0  0  0  0  0
    4.2741   -1.1155    0.6969 C   0  0  0  0  0  0  0  0  0  0  0  0
    5.8469   -2.6479    1.8674 C   0  0  0  0  0  0  0  0  0  0  0  0
    6.5396   -0.7871    0.4784 C   0  0  0  0  0  0  0  0  0  0  0  0
    3.0372   -0.8688    0.5100 N   0  0  0  0  0  0  0  0  0  0  0  0
    6.2162   -3.6070    2.6236 N   0  0  0  0  0  0  0  0  0  0  0  0
    4.5823   -2.2353    1.5063 N   0  0  0  0  0  0  0  0  0  0  0  0
    5.3454   -0.3943    0.1773 N   0  0  0  0  0  0  0  0  0  0  0  0
    6.8404   -1.8500    1.2787 N   0  0  0  0  0  0  0  0  0  0  0  0
    7.6444   -0.1854    0.0270 O   0  0  0  0  0  0  0  0  0  0  0  0
    0.8747    1.1459   -1.1772 H   0  0  0  0  0  0  0  0  0  0  0  0
    0.6259    0.3454    0.3911 H   0  0  0  0  0  0  0  0  0  0  0  0
    0.8444   -0.6282   -1.0703 H   0  0  0  0  0  0  0  0  0  0  0  0
    4.1848   -6.3529    2.8794 H   0  0  0  0  0  0  0  0  0  0  0  0
    5.7905   -6.2387    2.1243 H   0  0  0  0  0  0  0  0  0  0  0  0
    4.4176   -5.3732    1.4169 H   0  0  0  0  0  0  0  0  0  0  0  0
    7.2746    3.1112   -0.6891 H   0  0  0  0  0  0  0  0  0  0  0  0
    8.1616    2.3854    0.6670 H   0  0  0  0  0  0  0  0  0  0  0  0
    6.3898    2.2182    0.5634 H   0  0  0  0  0  0  0  0  0  0  0  0
    2.9835    1.2103    0.1607 H   0  0  0  0  0  0  0  0  0  0  0  0
    3.2064    0.2418   -1.2866 H   0  0  0  0  0  0  0  0  0  0  0  0
    5.6319   -4.8186    4.1904 H   0  0  0  0  0  0  0  0  0  0  0  0
    4.2873   -3.9282    3.5005 H   0  0  0  0  0  0  0  0  0  0  0  0
    8.3966    0.9892   -1.4230 H   0  0  0  0  0  0  0  0  0  0  0  0
    6.6221    0.8048   -1.4850 H   0  0  0  0  0  0  0  0  0  0  0  0
    3.7775   -2.7275    1.8673 H   0  0  0  0  0  0  0  0  0  0  0  0
    7.8003   -2.0892    1.4871 H   0  0  0  0  0  0  0  0  0  0  0  0
  1  4  1  0  0  0  0
  1 17  1  0  0  0  0
  2 19  1  0  0  0  0
  2  5  1  0  0  0  0
  3 24  1  0  0  0  0
  3 23  1  0  0  0  0
  4 25  1  0  0  0  0
  4 10  1  0  0  0  0
  5 28  1  0  0  0  0
  5 27  1  0  0  0  0
  6  3  1  0  0  0  0
  6 15  1  0  0  0  0
  7 12  1  0  0  0  0
  8 11  2  0  0  0  0
  9 14  1  0  0  0  0
 10  7  1  0  0  0  0
 11  5  1  0  0  0  0
 12 31  1  0  0  0  0
 12  8  1  0  0  0  0
 13  9  2  0  0  0  0
 13  7  2  0  0  0  0
 14 32  1  0  0  0  0
 14  8  1  0  0  0  0
 15  9  1  0  0  0  0
 16  1  1  0  0  0  0
 18  1  1  0  0  0  0
 20  2  1  0  0  0  0
 21  2  1  0  0  0  0
 22  3  1  0  0  0  0
 26  4  1  0  0  0  0
 29  6  1  0  0  0  0
 30  6  1  0  0  0  0
M  RAD  1  10   2
M  END
>  <HBA>
6

>  <HBD>
2

>  <TPSA>
71.96

>  <cid>
35110

>  <dipole>
2.5

>  <excitation_energy_1>
5.031

>  <excitation_energy_2>
5.202

>  <excitation_energy_3>
5.295

>  <excitation_energy_4>
5.444

>  <homo_energy>
-5.91

>  <homo_lumo_gap>
5.733

>  <logP>
1.28

>  <lumo_energy>
-0.177

>  <melting_point>
124.06

>  <molecular_refractivity>
59.35

>  <oscillator_strength_1>
0.042

>  <oscillator_strength_2>
0.0669

>  <oscillator_strength_3>
0.0037

>  <oscillator_strength_4>
0.0342

>  <open_babel_can_smiles>
CC[N]C1=[N]=C(N/C(=N/CC)/N1)OCC

>  <mulliken_charges>
32
1   -0.435155
2   -0.439028
3   -0.464225
4   -0.115727
5   -0.157842
6   -0.040434
7   0.674329
8   0.75378
9   0.777552
10   -0.515932
11   -0.495571
12   -0.719
13   -0.566629
14   -0.695903
15   -0.500321
16   0.12792
17   0.145869
18   0.144694
19   0.142475
20   0.159807
21   0.145088
22   0.154381
23   0.159177
24   0.181271
25   0.13158
26   0.133228
27   0.150342
28   0.1135
29   0.158894
30   0.18407
31   0.350114
32   0.357697

>  <lowdin_charges>
32
1   -0.447759
2   -0.452243
3   -0.456455
4   -0.193016
5   -0.19816
6   -0.120929
7   0.122721
8   0.134755
9   0.192019
10   -0.249833
11   -0.270118
12   -0.257581
13   -0.263637
14   -0.224774
15   -0.18187
16   0.143548
17   0.149934
18   0.149628
19   0.152298
20   0.157155
21   0.147654
22   0.162002
23   0.157889
24   0.168064
25   0.136213
26   0.135431
27   0.14927
28   0.120399
29   0.155795
30   0.166413
31   0.303823
32   0.311365

$$$$

