PCCDB-ID:  69189
public computational chemistry database (PCCDB) project, http://pccdb.org

 23 23  0  0  1  0  0  0  0  0999 V2000
   -0.5815   -2.2830    2.9044 C   0  0  0  0  0  0  0  0  0  0  0  0
    0.7123   -2.7718    2.7225 C   0  0  0  0  0  0  0  0  0  0  0  0
   -0.9141   -1.0154    2.4221 C   0  0  0  0  0  0  0  0  0  0  0  0
    1.6685   -1.9952    2.0628 C   0  0  0  0  0  0  0  0  0  0  0  0
    0.0419   -0.2433    1.7628 C   0  0  0  0  0  0  0  0  0  0  0  0
    3.7243    0.2902    1.5557 C   0  0  0  0  0  0  0  0  0  0  0  0
    1.3468   -0.7187    1.5724 C   0  0  0  0  0  0  0  0  0  0  0  0
    2.3672    0.1207    0.8097 C   0  0  2  0  0  0  0  0  0  0  0  0
    3.6790    1.1272    2.8336 C   0  0  0  0  0  0  0  0  0  0  0  0
    2.5130   -0.4359   -0.5437 N   0  0  0  0  0  0  0  0  0  0  0  0
    4.3300    2.1309    2.9915 O   0  0  0  0  0  0  0  0  0  0  0  0
    2.8583    0.6840    3.8189 O   0  0  0  0  0  0  0  0  0  0  0  0
   -1.3244   -2.8837    3.4216 H   0  0  0  0  0  0  0  0  0  0  0  0
    0.9816   -3.7570    3.0932 H   0  0  0  0  0  0  0  0  0  0  0  0
   -1.9185   -0.6254    2.5613 H   0  0  0  0  0  0  0  0  0  0  0  0
    2.6695   -2.3982    1.9241 H   0  0  0  0  0  0  0  0  0  0  0  0
   -0.2245    0.7408    1.3861 H   0  0  0  0  0  0  0  0  0  0  0  0
    4.4305    0.7960    0.8921 H   0  0  0  0  0  0  0  0  0  0  0  0
    4.1458   -0.6974    1.7894 H   0  0  0  0  0  0  0  0  0  0  0  0
    1.9424    1.1238    0.6819 H   0  0  0  0  0  0  0  0  0  0  0  0
    2.8829   -1.3848   -0.4938 H   0  0  0  0  0  0  0  0  0  0  0  0
    3.1913    0.1137   -1.0707 H   0  0  0  0  0  0  0  0  0  0  0  0
    2.3659   -0.1035    3.5223 H   0  0  0  0  0  0  0  0  0  0  0  0
  1 13  1  0  0  0  0
  2  1  1  0  0  0  0
  2 14  1  0  0  0  0
  3 15  1  0  0  0  0
  3  1  2  0  0  0  0
  4  2  2  0  0  0  0
  5  3  1  0  0  0  0
  6 19  1  0  0  0  0
  6  9  1  0  0  0  0
  7  5  2  0  0  0  0
  7  4  1  0  0  0  0
  8 20  1  6  0  0  0
  8  6  1  0  0  0  0
  8  7  1  0  0  0  0
  9 11  2  0  0  0  0
  9 12  1  0  0  0  0
 10 21  1  0  0  0  0
 10  8  1  0  0  0  0
 16  4  1  0  0  0  0
 17  5  1  0  0  0  0
 18  6  1  0  0  0  0
 22 10  1  0  0  0  0
 23 12  1  0  0  0  0
M  END
>  <HBA>
3

>  <HBD>
2

>  <TPSA>
63.32

>  <cid>
69189

>  <dipole>
4.51

>  <excitation_energy_1>
5.193

>  <excitation_energy_2>
5.336

>  <excitation_energy_3>
5.377

>  <excitation_energy_4>
5.477

>  <homo_energy>
-6.631

>  <homo_lumo_gap>
5.989

>  <logP>
1.861

>  <lumo_energy>
-0.642

>  <melting_point>
137.23

>  <molecular_refractivity>
45.5

>  <oscillator_strength_1>
0.0014

>  <oscillator_strength_2>
0.0009

>  <oscillator_strength_3>
0.0011

>  <oscillator_strength_4>
0.0013

>  <open_babel_can_smiles>
N[C@@H](c1ccccc1)CC(=O)O

>  <mulliken_charges>
23
1   -0.126992
2   -0.121624
3   -0.124149
4   -0.209526
5   -0.163111
6   -0.402585
7   0.125477
8   -0.056309
9   0.586574
10   -0.695136
11   -0.443873
12   -0.57243
13   0.140657
14   0.140871
15   0.142481
16   0.132647
17   0.143643
18   0.171288
19   0.158157
20   0.156668
21   0.296561
22   0.302492
23   0.418218

>  <lowdin_charges>
23
1   -0.15214
2   -0.149984
3   -0.145714
4   -0.18396
5   -0.151019
6   -0.337371
7   -0.021435
8   -0.062851
9   0.187367
10   -0.538554
11   -0.244184
12   -0.360833
13   0.16467
14   0.162347
15   0.163487
16   0.15512
17   0.164046
18   0.171377
19   0.157914
20   0.152755
21   0.253785
22   0.258775
23   0.356403

$$$$

