PCCDB-ID:  33467
public computational chemistry database (PCCDB) project, http://pccdb.org

 33 33  0  0  0  0  0  0  0  0999 V2000
    0.9972    0.4385   -0.1673 C   0  0  0  0  0  0  0  0  0  0  0  0
    2.4585   -1.2044    0.7877 C   0  0  0  0  0  0  0  0  0  0  0  0
   11.2104   -0.0485   -4.4637 C   0  0  0  0  0  0  0  0  0  0  0  0
   10.5853   -1.2855   -4.2977 C   0  0  0  0  0  0  0  0  0  0  0  0
   10.4365    1.1121   -4.5195 C   0  0  0  0  0  0  0  0  0  0  0  0
    9.1960   -1.3584   -4.1870 C   0  0  0  0  0  0  0  0  0  0  0  0
    9.0478    1.0333   -4.4083 C   0  0  0  0  0  0  0  0  0  0  0  0
    6.9036   -0.2786   -4.0786 C   0  0  0  0  0  0  0  0  0  0  0  0
    3.0255   -0.1650   -1.3342 C   0  0  0  0  0  0  0  0  0  0  0  0
    6.4733   -0.1526   -2.6144 C   0  0  0  0  0  0  0  0  0  0  0  0
    4.5492   -0.0990   -1.2416 C   0  0  0  0  0  0  0  0  0  0  0  0
    8.4065   -0.2017   -4.2400 C   0  0  0  0  0  0  0  0  0  0  0  0
    2.3798   -0.0017   -0.0327 N   0  0  0  0  0  0  0  0  0  0  0  0
    5.0610   -0.2137   -2.5577 O   0  0  0  0  0  0  0  0  0  0  0  0
    0.5704    0.6137    0.8266 H   0  0  0  0  0  0  0  0  0  0  0  0
    0.3505   -0.2951   -0.6889 H   0  0  0  0  0  0  0  0  0  0  0  0
    0.9594    1.3810   -0.7236 H   0  0  0  0  0  0  0  0  0  0  0  0
    2.0262   -1.0033    1.7740 H   0  0  0  0  0  0  0  0  0  0  0  0
    3.5005   -1.5014    0.9369 H   0  0  0  0  0  0  0  0  0  0  0  0
    1.9181   -2.0655    0.3453 H   0  0  0  0  0  0  0  0  0  0  0  0
   12.2919    0.0103   -4.5535 H   0  0  0  0  0  0  0  0  0  0  0  0
   11.1787   -2.1954   -4.2589 H   0  0  0  0  0  0  0  0  0  0  0  0
   10.9135    2.0795   -4.6542 H   0  0  0  0  0  0  0  0  0  0  0  0
    8.7151   -2.3266   -4.0630 H   0  0  0  0  0  0  0  0  0  0  0  0
    8.4504    1.9414   -4.4579 H   0  0  0  0  0  0  0  0  0  0  0  0
    6.4145    0.5204   -4.6480 H   0  0  0  0  0  0  0  0  0  0  0  0
    6.5229   -1.2298   -4.4687 H   0  0  0  0  0  0  0  0  0  0  0  0
    2.7321   -1.1066   -1.8377 H   0  0  0  0  0  0  0  0  0  0  0  0
    2.7033    0.6542   -1.9861 H   0  0  0  0  0  0  0  0  0  0  0  0
    6.8374    0.7994   -2.1918 H   0  0  0  0  0  0  0  0  0  0  0  0
    6.9214   -0.9638   -2.0150 H   0  0  0  0  0  0  0  0  0  0  0  0
    4.9526   -0.9063   -0.6083 H   0  0  0  0  0  0  0  0  0  0  0  0
    4.8471    0.8578   -0.7837 H   0  0  0  0  0  0  0  0  0  0  0  0
  1 13  1  0  0  0  0
  1 15  1  0  0  0  0
  2 19  1  0  0  0  0
  2 18  1  0  0  0  0
  3  4  1  0  0  0  0
  4 22  1  0  0  0  0
  4  6  2  0  0  0  0
  5  3  2  0  0  0  0
  5  7  1  0  0  0  0
  6 24  1  0  0  0  0
  7 12  2  0  0  0  0
  8 10  1  0  0  0  0
  9 11  1  0  0  0  0
  9 13  1  0  0  0  0
 10 14  1  0  0  0  0
 10 30  1  0  0  0  0
 10 31  1  0  0  0  0
 11 33  1  0  0  0  0
 11 32  1  0  0  0  0
 12  6  1  0  0  0  0
 12  8  1  0  0  0  0
 13  2  1  0  0  0  0
 14 11  1  0  0  0  0
 16  1  1  0  0  0  0
 17  1  1  0  0  0  0
 20  2  1  0  0  0  0
 21  3  1  0  0  0  0
 23  5  1  0  0  0  0
 25  7  1  0  0  0  0
 26  8  1  0  0  0  0
 27  8  1  0  0  0  0
 28  9  1  0  0  0  0
 29  9  1  0  0  0  0
M  END
>  <HBA>
2

>  <HBD>
0

>  <TPSA>
12.47

>  <cid>
33467

>  <dipole>
0.67

>  <excitation_energy_1>
5.277

>  <excitation_energy_2>
5.291

>  <excitation_energy_3>
5.332

>  <excitation_energy_4>
5.408

>  <homo_energy>
-5.739

>  <homo_lumo_gap>
5.793

>  <logP>
1.807

>  <lumo_energy>
0.054

>  <melting_point>
-2.48

>  <molecular_refractivity>
59.42

>  <oscillator_strength_1>
0.0035

>  <oscillator_strength_2>
0.0005

>  <oscillator_strength_3>
0.0004

>  <oscillator_strength_4>
0.0181

>  <open_babel_can_smiles>
CN(CCOCCc1ccccc1)C

>  <mulliken_charges>
33
1   -0.293687
2   -0.30166
3   -0.131117
4   -0.12757
5   -0.127412
6   -0.180049
7   -0.179761
8   -0.364314
9   -0.135837
10   0.00527
11   -0.006094
12   0.15928
13   -0.372149
14   -0.485327
15   0.147137
16   0.118518
17   0.150377
18   0.149444
19   0.151183
20   0.118826
21   0.128002
22   0.128436
23   0.12856
24   0.124187
25   0.124688
26   0.154777
27   0.154134
28   0.123047
29   0.147416
30   0.122675
31   0.121034
32   0.117948
33   0.13004

>  <lowdin_charges>
33
1   -0.355956
2   -0.357609
3   -0.157784
4   -0.156234
5   -0.155329
6   -0.167187
7   -0.167776
8   -0.279033
9   -0.206583
10   -0.126475
11   -0.133785
12   -0.001246
13   -0.184166
14   -0.276052
15   0.148639
16   0.122038
17   0.150066
18   0.149991
19   0.148154
20   0.121375
21   0.154982
22   0.157463
23   0.156978
24   0.154615
25   0.155406
26   0.157538
27   0.156076
28   0.125061
29   0.152644
30   0.127949
31   0.127995
32   0.126229
33   0.132017

$$$$

