PCCDB-ID:  33110
public computational chemistry database (PCCDB) project, http://pccdb.org

 21 22  0  0  0  0  0  0  0  0999 V2000
    0.9795   -0.0780   -0.0586 C   0  0  0  0  0  0  0  0  0  0  0  0
    2.4904    2.4497   -0.0573 C   0  0  0  0  0  0  0  0  0  0  0  0
    5.5935   -2.3604   -0.0352 C   0  0  0  0  0  0  0  0  0  0  0  0
    6.7760   -1.6969   -0.0313 C   0  0  0  0  0  0  0  0  0  0  0  0
    3.1652   -1.3182   -0.0475 C   0  0  0  0  0  0  0  0  0  0  0  0
    4.6176    1.1129   -0.0455 C   0  0  0  0  0  0  0  0  0  0  0  0
    2.4916   -0.0973   -0.0518 C   0  0  0  0  0  0  0  0  0  0  0  0
    3.2212    1.1269   -0.0507 C   0  0  0  0  0  0  0  0  0  0  0  0
    4.5675   -1.3441   -0.0420 C   0  0  0  0  0  0  0  0  0  0  0  0
    5.2551   -0.1210   -0.0408 C   0  0  0  0  0  0  0  0  0  0  0  0
    6.6096   -0.3329   -0.0339 O   0  0  0  0  0  0  0  0  0  0  0  0
    0.5750   -1.0946   -0.0492 H   0  0  0  0  0  0  0  0  0  0  0  0
    0.5808    0.4301   -0.9466 H   0  0  0  0  0  0  0  0  0  0  0  0
    0.5727    0.4498    0.8139 H   0  0  0  0  0  0  0  0  0  0  0  0
    3.1936    3.2879   -0.0495 H   0  0  0  0  0  0  0  0  0  0  0  0
    1.8340    2.5575    0.8162 H   0  0  0  0  0  0  0  0  0  0  0  0
    1.8524    2.5583   -0.9442 H   0  0  0  0  0  0  0  0  0  0  0  0
    5.4620   -3.4336   -0.0351 H   0  0  0  0  0  0  0  0  0  0  0  0
    7.8030   -2.0307   -0.0261 H   0  0  0  0  0  0  0  0  0  0  0  0
    2.5979   -2.2458   -0.0477 H   0  0  0  0  0  0  0  0  0  0  0  0
    5.1894    2.0359   -0.0435 H   0  0  0  0  0  0  0  0  0  0  0  0
  1  7  1  0  0  0  0
  1 12  1  0  0  0  0
  1 14  1  0  0  0  0
  2  8  1  0  0  0  0
  2 15  1  0  0  0  0
  2 16  1  0  0  0  0
  3 18  1  0  0  0  0
  3  4  2  0  0  0  0
  4 19  1  0  0  0  0
  5  9  2  0  0  0  0
  6 21  1  0  0  0  0
  6 10  2  0  0  0  0
  7  8  2  0  0  0  0
  7  5  1  0  0  0  0
  8  6  1  0  0  0  0
  9 10  1  0  0  0  0
  9  3  1  0  0  0  0
 10 11  1  0  0  0  0
 11  4  1  0  0  0  0
 13  1  1  0  0  0  0
 17  2  1  0  0  0  0
 20  5  1  0  0  0  0
M  END
>  <HBA>
1

>  <HBD>
0

>  <TPSA>
13.14

>  <cid>
33110

>  <dipole>
0.74

>  <excitation_energy_1>
4.822

>  <excitation_energy_2>
5.07

>  <excitation_energy_3>
5.532

>  <excitation_energy_4>
5.686

>  <homo_energy>
-5.736

>  <homo_lumo_gap>
5.456

>  <logP>
3.05

>  <lumo_energy>
-0.28

>  <melting_point>
56.56

>  <molecular_refractivity>
46.15

>  <oscillator_strength_1>
0.0745

>  <oscillator_strength_2>
0.1411

>  <oscillator_strength_3>
0.0012

>  <oscillator_strength_4>
0.0081

>  <open_babel_can_smiles>
Cc1cc2occc2cc1C

>  <mulliken_charges>
21
1   -0.533047
2   -0.533168
3   -0.221278
4   0.080414
5   -0.27755
6   -0.246328
7   0.133129
8   0.119283
9   0.143283
10   0.315397
11   -0.481356
12   0.153958
13   0.157402
14   0.157226
15   0.155382
16   0.158935
17   0.159101
18   0.1435
19   0.157095
20   0.123179
21   0.135443

>  <lowdin_charges>
21
1   -0.441082
2   -0.440761
3   -0.21054
4   -0.056995
5   -0.172124
6   -0.187628
7   -0.015446
8   -0.007608
9   -0.033099
10   0.080699
11   -0.1202
12   0.155673
13   0.157252
14   0.157279
15   0.157462
16   0.158199
17   0.158231
18   0.169204
19   0.170416
20   0.155658
21   0.16541

$$$$

