PCCDB-ID:  52612
public computational chemistry database (PCCDB) project, http://pccdb.org

 30 31  0  0  1  0  0  0  0  0999 V2000
    0.4852    1.4425   -1.0093 C   0  0  0  0  0  0  0  0  0  0  0  0
    1.4275    0.7846    0.0106 C   0  0  0  0  0  0  0  0  0  0  0  0
   -0.9876    1.1418   -0.6906 C   0  0  0  0  0  0  0  0  0  0  0  0
   -2.1049   -0.2799    3.7656 C   0  0  0  0  0  0  0  0  0  0  0  0
    1.1512   -0.7202    0.1474 C   0  0  0  0  0  0  0  0  0  0  0  0
   -1.2307   -0.3696   -0.5579 C   0  0  0  0  0  0  0  0  0  0  0  0
   -2.0768   -0.6162    2.2686 C   0  0  0  0  0  0  0  0  0  0  0  0
   -0.9928   -1.1125    4.4006 C   0  0  0  0  0  0  0  0  0  0  0  0
   -0.3200   -1.0286    0.4978 C   0  0  0  0  0  0  0  0  0  0  0  0
   -0.6661   -0.5320    1.8592 N   0  0  2  0  0  0  0  0  0  0  0  0
    0.6481   -2.6003    2.8451 O   0  0  0  0  0  0  0  0  0  0  0  0
    1.3992   -0.2537    3.4309 O   0  0  0  0  0  0  0  0  0  0  0  0
    0.3147   -1.1925    3.1225 S   0  0  0  0  0  0  0  0  0  0  0  0
    0.7179    1.0637   -2.0163 H   0  0  0  0  0  0  0  0  0  0  0  0
    0.6515    2.5268   -1.0384 H   0  0  0  0  0  0  0  0  0  0  0  0
    1.3095    1.2591    0.9913 H   0  0  0  0  0  0  0  0  0  0  0  0
    2.4721    0.9356   -0.2888 H   0  0  0  0  0  0  0  0  0  0  0  0
   -1.6393    1.5513   -1.4730 H   0  0  0  0  0  0  0  0  0  0  0  0
   -1.2642    1.6423    0.2472 H   0  0  0  0  0  0  0  0  0  0  0  0
   -3.0794   -0.5081    4.2079 H   0  0  0  0  0  0  0  0  0  0  0  0
   -1.9048    0.7871    3.9033 H   0  0  0  0  0  0  0  0  0  0  0  0
    1.8296   -1.1739    0.8755 H   0  0  0  0  0  0  0  0  0  0  0  0
    1.3535   -1.2229   -0.8088 H   0  0  0  0  0  0  0  0  0  0  0  0
   -1.0022   -0.8595   -1.5144 H   0  0  0  0  0  0  0  0  0  0  0  0
   -2.2874   -0.5823   -0.3588 H   0  0  0  0  0  0  0  0  0  0  0  0
   -2.6581    0.1123    1.6988 H   0  0  0  0  0  0  0  0  0  0  0  0
   -2.5056   -1.6169    2.0842 H   0  0  0  0  0  0  0  0  0  0  0  0
   -1.2937   -2.1470    4.5835 H   0  0  0  0  0  0  0  0  0  0  0  0
   -0.5487   -0.6852    5.3012 H   0  0  0  0  0  0  0  0  0  0  0  0
   -0.4716   -2.1189    0.4690 H   0  0  0  0  0  0  0  0  0  0  0  0
  1  3  1  0  0  0  0
  1  2  1  0  0  0  0
  2  5  1  0  0  0  0
  2 16  1  0  0  0  0
  3  6  1  0  0  0  0
  3 19  1  0  0  0  0
  4 21  1  0  0  0  0
  4 20  1  0  0  0  0
  4  8  1  0  0  0  0
  5  9  1  0  0  0  0
  5 22  1  0  0  0  0
  6 25  1  0  0  0  0
  6  9  1  0  0  0  0
  7  4  1  0  0  0  0
  8 28  1  0  0  0  0
  8 29  1  0  0  0  0
 10  9  1  6  0  0  0
 10  7  1  0  0  0  0
 10 13  1  0  0  0  0
 11 13  2  0  0  0  0
 13 12  2  0  0  0  0
 13  8  1  0  0  0  0
 14  1  1  0  0  0  0
 15  1  1  0  0  0  0
 17  2  1  0  0  0  0
 18  3  1  0  0  0  0
 23  5  1  0  0  0  0
 24  6  1  0  0  0  0
 26  7  1  0  0  0  0
 27  7  1  0  0  0  0
 30  9  1  0  0  0  0
M  END
>  <HBA>
3

>  <HBD>
0

>  <TPSA>
45.76

>  <cid>
52612

>  <dipole>
4.79

>  <excitation_energy_1>
5.843

>  <excitation_energy_2>
6.243

>  <excitation_energy_3>
6.311

>  <excitation_energy_4>
6.512

>  <homo_energy>
-6.651

>  <homo_lumo_gap>
8.158

>  <logP>
2.373

>  <lumo_energy>
1.508

>  <melting_point>
48.87

>  <molecular_refractivity>
56.92

>  <oscillator_strength_1>
0.0084

>  <oscillator_strength_2>
0.0189

>  <oscillator_strength_3>
0.0086

>  <oscillator_strength_4>
0.0221

>  <open_babel_can_smiles>
O=S1(=O)CCCN1C1CCCCC1

>  <mulliken_charges>
30
1   -0.2592
2   -0.257791
3   -0.255285
4   -0.294809
5   -0.302097
6   -0.291071
7   -0.133673
8   -0.500537
9   0.041642
10   -0.562615
11   -0.542674
12   -0.522032
13   1.230872
14   0.124232
15   0.131792
16   0.165452
17   0.132185
18   0.130478
19   0.140221
20   0.166505
21   0.180396
22   0.187521
23   0.131582
24   0.142176
25   0.134827
26   0.172993
27   0.144347
28   0.207317
29   0.212897
30   0.14435

>  <lowdin_charges>
30
1   -0.274395
2   -0.278707
3   -0.28107
4   -0.27839
5   -0.289516
6   -0.282959
7   -0.20072
8   -0.419532
9   -0.058696
10   -0.349928
11   -0.598222
12   -0.584724
13   1.284534
14   0.134468
15   0.142261
16   0.155673
17   0.14476
18   0.144723
19   0.142978
20   0.163355
21   0.16395
22   0.168317
23   0.145181
24   0.149839
25   0.141871
26   0.163
27   0.134412
28   0.186298
29   0.192161
30   0.13908

$$$$

