PCCDB-ID:  9375
public computational chemistry database (PCCDB) project, http://pccdb.org

 33 33  0  0  0  0  0  0  0  0999 V2000
    1.4776   -1.2455   -0.4993 C   0  0  0  0  0  0  0  0  0  0  0  0
    3.2013   -0.3408    1.1143 C   0  0  0  0  0  0  0  0  0  0  0  0
    3.8930   -1.5423   -0.9935 C   0  0  0  0  0  0  0  0  0  0  0  0
   -4.2935    2.0940   -1.2143 C   0  0  0  0  0  0  0  0  0  0  0  0
   -3.6606    3.1103   -0.4989 C   0  0  0  0  0  0  0  0  0  0  0  0
   -3.5397    1.2640   -2.0490 C   0  0  0  0  0  0  0  0  0  0  0  0
   -2.2807    3.2940   -0.6181 C   0  0  0  0  0  0  0  0  0  0  0  0
   -2.1638    1.4531   -2.1689 C   0  0  0  0  0  0  0  0  0  0  0  0
   -0.0255    2.6847   -1.5992 C   0  0  0  0  0  0  0  0  0  0  0  0
   -1.5174    2.4742   -1.4565 C   0  0  0  0  0  0  0  0  0  0  0  0
    2.9452    0.8012   -1.1030 C   0  0  0  0  0  0  0  0  0  0  0  0
    2.8579   -0.5623   -0.3779 C   0  0  0  0  0  0  0  0  0  0  0  0
    0.6960    1.4298   -1.3436 N   0  0  0  0  0  0  0  0  0  0  0  0
    2.0660    1.6318   -1.5037 N   0  0  0  0  0  0  0  0  0  0  0  0
    4.2314    1.2661   -1.2942 O   0  0  0  0  0  0  0  0  0  0  0  0
    1.5643   -2.2853   -0.1637 H   0  0  0  0  0  0  0  0  0  0  0  0
    1.1089   -1.2446   -1.5283 H   0  0  0  0  0  0  0  0  0  0  0  0
    0.7169   -0.7778    0.1319 H   0  0  0  0  0  0  0  0  0  0  0  0
    3.2118   -1.2974    1.6510 H   0  0  0  0  0  0  0  0  0  0  0  0
    2.4620    0.3091    1.5959 H   0  0  0  0  0  0  0  0  0  0  0  0
    4.1832    0.1302    1.2291 H   0  0  0  0  0  0  0  0  0  0  0  0
    3.7793   -2.5288   -0.5320 H   0  0  0  0  0  0  0  0  0  0  0  0
    4.9357   -1.2486   -0.8121 H   0  0  0  0  0  0  0  0  0  0  0  0
    3.7471   -1.6573   -2.0734 H   0  0  0  0  0  0  0  0  0  0  0  0
   -5.3665    1.9472   -1.1226 H   0  0  0  0  0  0  0  0  0  0  0  0
   -4.2376    3.7589    0.1552 H   0  0  0  0  0  0  0  0  0  0  0  0
   -4.0269    0.4699   -2.6094 H   0  0  0  0  0  0  0  0  0  0  0  0
   -1.7905    4.0858   -0.0557 H   0  0  0  0  0  0  0  0  0  0  0  0
   -1.5749    0.8055   -2.8124 H   0  0  0  0  0  0  0  0  0  0  0  0
    0.3081    3.4982   -0.9356 H   0  0  0  0  0  0  0  0  0  0  0  0
    0.2302    2.9877   -2.6210 H   0  0  0  0  0  0  0  0  0  0  0  0
    0.4519    1.0891   -0.4153 H   0  0  0  0  0  0  0  0  0  0  0  0
    4.8470    0.5204   -1.2779 H   0  0  0  0  0  0  0  0  0  0  0  0
  1 12  1  0  0  0  0
  1 16  1  0  0  0  0
  1 18  1  0  0  0  0
  2 21  1  0  0  0  0
  2 20  1  0  0  0  0
  2 19  1  0  0  0  0
  3 23  1  0  0  0  0
  3 22  1  0  0  0  0
  3 12  1  0  0  0  0
  4 25  1  0  0  0  0
  4  5  2  0  0  0  0
  5 26  1  0  0  0  0
  6  4  1  0  0  0  0
  7  5  1  0  0  0  0
  7 28  1  0  0  0  0
  8  6  2  0  0  0  0
  8 10  1  0  0  0  0
  9 10  1  0  0  0  0
  9 13  1  0  0  0  0
  9 30  1  0  0  0  0
 10  7  2  0  0  0  0
 11 12  1  0  0  0  0
 12  2  1  0  0  0  0
 13 32  1  0  0  0  0
 14 13  1  0  0  0  0
 14 11  2  0  0  0  0
 15 33  1  0  0  0  0
 15 11  1  0  0  0  0
 17  1  1  0  0  0  0
 24  3  1  0  0  0  0
 27  6  1  0  0  0  0
 29  8  1  0  0  0  0
 31  9  1  0  0  0  0
M  END
>  <HBA>
3

>  <HBD>
2

>  <TPSA>
41.13

>  <cid>
9375

>  <dipole>
3.4

>  <excitation_energy_1>
4.43

>  <excitation_energy_2>
4.632

>  <excitation_energy_3>
4.749

>  <excitation_energy_4>
5.02

>  <homo_energy>
-5.276

>  <homo_lumo_gap>
5.263

>  <logP>
2.635

>  <lumo_energy>
-0.014

>  <melting_point>
98.27

>  <molecular_refractivity>
60.99

>  <oscillator_strength_1>
0.0208

>  <oscillator_strength_2>
0.0122

>  <oscillator_strength_3>
0.004

>  <oscillator_strength_4>
0.0045

>  <open_babel_can_smiles>
O/C(=N/NCc1ccccc1)/C(C)(C)C

>  <mulliken_charges>
33
1   -0.450783
2   -0.434949
3   -0.48389
4   -0.129111
5   -0.128879
6   -0.131308
7   -0.186773
8   -0.162087
9   -0.170546
10   0.124743
11   0.486039
12   0.008422
13   -0.448497
14   -0.31494
15   -0.604343
16   0.140567
17   0.177318
18   0.141842
19   0.145451
20   0.149324
21   0.150568
22   0.158973
23   0.135536
24   0.168678
25   0.12724
26   0.127708
27   0.12777
28   0.12534
29   0.140189
30   0.13293
31   0.169105
32   0.303099
33   0.405261

>  <lowdin_charges>
33
1   -0.440447
2   -0.440426
3   -0.446253
4   -0.157176
5   -0.159286
6   -0.15787
7   -0.168496
8   -0.158478
9   -0.197171
10   -0.017026
11   0.096156
12   -0.011796
13   -0.269842
14   -0.14365
15   -0.389897
16   0.148773
17   0.165783
18   0.149703
19   0.150373
20   0.153777
21   0.153008
22   0.158866
23   0.141357
24   0.158728
25   0.154629
26   0.158098
27   0.157466
28   0.156031
29   0.165072
30   0.134483
31   0.160322
32   0.247189
33   0.348001

$$$$

