PCCDB-ID:  15452
public computational chemistry database (PCCDB) project, http://pccdb.org

 17 16  0  0  0  0  0  0  0  0999 V2000
    1.1131    0.0675    0.0439 C   0  0  0  0  0  0  0  0  0  0  0  0
    4.9646    1.6803    2.2247 C   0  0  0  0  0  0  0  0  0  0  0  0
    0.4507   -0.7182   -0.9988 C   0  0  0  0  0  0  0  0  0  0  0  0
    6.4170    1.7961    2.3674 C   0  0  0  0  0  0  0  0  0  0  0  0
    2.6416   -0.0153   -0.0584 C   0  0  0  0  0  0  0  0  0  0  0  0
    4.5733    0.8061    1.0263 C   0  0  0  0  0  0  0  0  0  0  0  0
   -0.0564   -1.3464   -1.8322 N   0  0  0  0  0  0  0  0  0  0  0  0
    7.5706    1.8761    2.4645 N   0  0  0  0  0  0  0  0  0  0  0  0
    3.1594    0.7719    0.9967 O   0  0  0  0  0  0  0  0  0  0  0  0
    0.7951   -0.2932    1.0287 H   0  0  0  0  0  0  0  0  0  0  0  0
    0.7998    1.1147   -0.0351 H   0  0  0  0  0  0  0  0  0  0  0  0
    4.5301    2.6791    2.1031 H   0  0  0  0  0  0  0  0  0  0  0  0
    4.5419    1.2516    3.1405 H   0  0  0  0  0  0  0  0  0  0  0  0
    2.9799    0.3631   -1.0351 H   0  0  0  0  0  0  0  0  0  0  0  0
    2.9743   -1.0608    0.0303 H   0  0  0  0  0  0  0  0  0  0  0  0
    4.9898   -0.2064    1.1401 H   0  0  0  0  0  0  0  0  0  0  0  0
    4.9764    1.2323    0.0949 H   0  0  0  0  0  0  0  0  0  0  0  0
  1 10  1  0  0  0  0
  2  4  1  0  0  0  0
  2 13  1  0  0  0  0
  3  1  1  0  0  0  0
  4  8  3  0  0  0  0
  5 15  1  0  0  0  0
  5  1  1  0  0  0  0
  5  9  1  0  0  0  0
  6 16  1  0  0  0  0
  6  2  1  0  0  0  0
  7  3  3  0  0  0  0
  9  6  1  0  0  0  0
 11  1  1  0  0  0  0
 12  2  1  0  0  0  0
 14  5  1  0  0  0  0
 17  6  1  0  0  0  0
M  END
>  <HBA>
3

>  <HBD>
0

>  <TPSA>
56.81

>  <cid>
15452

>  <dipole>
2.16

>  <excitation_energy_1>
6.972

>  <excitation_energy_2>
7.423

>  <excitation_energy_3>
7.526

>  <excitation_energy_4>
7.561

>  <homo_energy>
-8.019

>  <homo_lumo_gap>
8.455

>  <logP>
0.83

>  <lumo_energy>
0.435

>  <melting_point>
32.29

>  <molecular_refractivity>
31.54

>  <oscillator_strength_1>
0.0074

>  <oscillator_strength_2>
0.0

>  <oscillator_strength_3>
0.0202

>  <oscillator_strength_4>
0.0129

>  <open_babel_can_smiles>
N#CCCOCCC#N

>  <mulliken_charges>
17
1   -0.354684
2   -0.354822
3   0.345434
4   0.345498
5   -0.010292
6   -0.010161
7   -0.461936
8   -0.461949
9   -0.482714
10   0.209207
11   0.209031
12   0.209134
13   0.209135
14   0.152166
15   0.15241
16   0.152191
17   0.152353

>  <lowdin_charges>
17
1   -0.27632
2   -0.274367
3   -0.017292
4   -0.020136
5   -0.117587
6   -0.118402
7   -0.116788
8   -0.11656
9   -0.271493
10   0.189294
11   0.188341
12   0.188962
13   0.189888
14   0.143194
15   0.142121
16   0.143085
17   0.144061

$$$$

