PCCDB-ID:  7822
public computational chemistry database (PCCDB) project, http://pccdb.org

 25 24  0  0  1  0  0  0  0  0999 V2000
    0.1447    0.1528    0.1277 C   0  0  0  0  0  0  0  0  0  0  0  0
    6.5377   -2.9075   -2.8728 C   0  0  0  0  0  0  0  0  0  0  0  0
    1.2197   -2.0056   -1.8624 C   0  0  0  0  0  0  0  0  0  0  0  0
    1.3795    0.3033   -0.7686 C   0  0  0  0  0  0  0  0  0  0  0  0
    5.4693   -1.8230   -2.9954 C   0  0  0  0  0  0  0  0  0  0  0  0
    3.4067   -0.7347   -1.8609 C   0  0  0  0  0  0  0  0  0  0  0  0
    2.1071   -1.0175   -1.0894 C   0  0  2  0  0  0  0  0  0  0  0  0
    4.3848   -1.9059   -1.9257 C   0  0  0  0  0  0  0  0  0  0  0  0
    4.3194   -2.8462   -1.1547 O   0  0  0  0  0  0  0  0  0  0  0  0
   -0.2635    1.1337    0.3967 H   0  0  0  0  0  0  0  0  0  0  0  0
    0.3951   -0.3697    1.0594 H   0  0  0  0  0  0  0  0  0  0  0  0
   -0.6551   -0.4105   -0.3649 H   0  0  0  0  0  0  0  0  0  0  0  0
    7.2727   -2.8209   -3.6798 H   0  0  0  0  0  0  0  0  0  0  0  0
    6.0873   -3.9031   -2.9166 H   0  0  0  0  0  0  0  0  0  0  0  0
    7.0650   -2.8317   -1.9167 H   0  0  0  0  0  0  0  0  0  0  0  0
    0.3259   -2.2776   -1.2918 H   0  0  0  0  0  0  0  0  0  0  0  0
    1.7628   -2.9311   -2.0774 H   0  0  0  0  0  0  0  0  0  0  0  0
    0.8878   -1.5720   -2.8159 H   0  0  0  0  0  0  0  0  0  0  0  0
    2.0901    0.9838   -0.2779 H   0  0  0  0  0  0  0  0  0  0  0  0
    1.0904    0.7948   -1.7099 H   0  0  0  0  0  0  0  0  0  0  0  0
    4.9643   -1.8793   -3.9722 H   0  0  0  0  0  0  0  0  0  0  0  0
    5.9125   -0.8170   -2.9630 H   0  0  0  0  0  0  0  0  0  0  0  0
    3.9562    0.0925   -1.3827 H   0  0  0  0  0  0  0  0  0  0  0  0
    3.1909   -0.3849   -2.8813 H   0  0  0  0  0  0  0  0  0  0  0  0
    2.3939   -1.4926   -0.1417 H   0  0  0  0  0  0  0  0  0  0  0  0
  1 10  1  0  0  0  0
  1 11  1  0  0  0  0
  2 15  1  0  0  0  0
  3 16  1  0  0  0  0
  3  7  1  0  0  0  0
  4 19  1  0  0  0  0
  4  1  1  0  0  0  0
  5 22  1  0  0  0  0
  5  2  1  0  0  0  0
  5  8  1  0  0  0  0
  6 23  1  0  0  0  0
  6  7  1  0  0  0  0
  7  4  1  0  0  0  0
  7 25  1  1  0  0  0
  8  6  1  0  0  0  0
  8  9  2  0  0  0  0
 12  1  1  0  0  0  0
 13  2  1  0  0  0  0
 14  2  1  0  0  0  0
 17  3  1  0  0  0  0
 18  3  1  0  0  0  0
 20  4  1  0  0  0  0
 21  5  1  0  0  0  0
 24  6  1  0  0  0  0
M  END
>  <HBA>
1

>  <HBD>
0

>  <TPSA>
17.07

>  <cid>
7822

>  <dipole>
2.42

>  <excitation_energy_1>
4.427

>  <excitation_energy_2>
6.046

>  <excitation_energy_3>
6.705

>  <excitation_energy_4>
6.75

>  <homo_energy>
-6.572

>  <homo_lumo_gap>
6.329

>  <logP>
2.402

>  <lumo_energy>
-0.242

>  <melting_point>
-6.5

>  <molecular_refractivity>
40.77

>  <oscillator_strength_1>
0.0

>  <oscillator_strength_2>
0.0107

>  <oscillator_strength_3>
0.002

>  <oscillator_strength_4>
0.0002

>  <open_babel_can_smiles>
CC[C@H](CC(=O)CC)C

>  <mulliken_charges>
25
1   -0.448419
2   -0.433296
3   -0.460215
4   -0.250249
5   -0.351249
6   -0.360261
7   -0.055428
8   0.46086
9   -0.451519
10   0.141971
11   0.144568
12   0.147604
13   0.139584
14   0.164438
15   0.157114
16   0.148027
17   0.15958
18   0.130384
19   0.126325
20   0.124873
21   0.161545
22   0.154677
23   0.158715
24   0.144424
25   0.145946

>  <lowdin_charges>
25
1   -0.447477
2   -0.440392
3   -0.44968
4   -0.275111
5   -0.308161
6   -0.311254
7   -0.121043
8   0.164328
9   -0.239596
10   0.150051
11   0.148229
12   0.149757
13   0.150643
14   0.160134
15   0.156734
16   0.152285
17   0.157641
18   0.14065
19   0.139849
20   0.136443
21   0.162313
22   0.15727
23   0.165068
24   0.151566
25   0.149754

$$$$

