PCCDB-ID:  43519
public computational chemistry database (PCCDB) project, http://pccdb.org

 40 41  0  0  0  0  0  0  0  0999 V2000
    2.7851   -2.2210    3.2403 C   0  0  0  0  0  0  0  0  0  0  0  0
    1.3235   -0.8936    1.8792 C   0  0  0  0  0  0  0  0  0  0  0  0
   11.2901    4.7269    2.4900 C   0  0  0  0  0  0  0  0  0  0  0  0
   11.5294    3.3150    1.9356 C   0  0  0  0  0  0  0  0  0  0  0  0
    9.8279    5.1035    2.7700 C   0  0  0  0  0  0  0  0  0  0  0  0
   11.0849    2.1690    2.8708 C   0  0  0  0  0  0  0  0  0  0  0  0
    9.1258    4.2337    3.8365 C   0  0  0  0  0  0  0  0  0  0  0  0
    9.0964    0.6781    2.4474 C   0  0  0  0  0  0  0  0  0  0  0  0
    7.7305    0.3782    2.4349 C   0  0  0  0  0  0  0  0  0  0  0  0
    3.4007    0.0587    2.6687 C   0  0  0  0  0  0  0  0  0  0  0  0
    4.9151   -0.0608    2.5087 C   0  0  0  0  0  0  0  0  0  0  0  0
    7.3075    2.5781    3.3364 C   0  0  0  0  0  0  0  0  0  0  0  0
    9.5933    1.9038    2.8931 C   0  0  0  0  0  0  0  0  0  0  0  0
    8.6692    2.8737    3.3471 C   0  0  0  0  0  0  0  0  0  0  0  0
    6.8263    1.3411    2.8853 C   0  0  0  0  0  0  0  0  0  0  0  0
    2.7097   -1.1575    2.2449 N   0  0  0  0  0  0  0  0  0  0  0  0
    5.4685    1.1821    2.9271 O   0  0  0  0  0  0  0  0  0  0  0  0
    2.3216   -3.1294    2.8405 H   0  0  0  0  0  0  0  0  0  0  0  0
    2.2725   -1.9620    4.1881 H   0  0  0  0  0  0  0  0  0  0  0  0
    3.8272   -2.4570    3.4746 H   0  0  0  0  0  0  0  0  0  0  0  0
    0.8635   -1.8143    1.5036 H   0  0  0  0  0  0  0  0  0  0  0  0
    1.2850   -0.1455    1.0806 H   0  0  0  0  0  0  0  0  0  0  0  0
    0.7079   -0.5273    2.7246 H   0  0  0  0  0  0  0  0  0  0  0  0
   11.7109    5.4569    1.7852 H   0  0  0  0  0  0  0  0  0  0  0  0
   11.8651    4.8395    3.4220 H   0  0  0  0  0  0  0  0  0  0  0  0
   12.6053    3.2048    1.7426 H   0  0  0  0  0  0  0  0  0  0  0  0
   11.0269    3.2015    0.9653 H   0  0  0  0  0  0  0  0  0  0  0  0
    9.2457    5.0693    1.8392 H   0  0  0  0  0  0  0  0  0  0  0  0
    9.8060    6.1474    3.1108 H   0  0  0  0  0  0  0  0  0  0  0  0
   11.4492    2.3880    3.8869 H   0  0  0  0  0  0  0  0  0  0  0  0
   11.5934    1.2472    2.5638 H   0  0  0  0  0  0  0  0  0  0  0  0
    8.2522    4.7763    4.2157 H   0  0  0  0  0  0  0  0  0  0  0  0
    9.8049    4.1153    4.6949 H   0  0  0  0  0  0  0  0  0  0  0  0
    9.7962   -0.0777    2.0968 H   0  0  0  0  0  0  0  0  0  0  0  0
    7.3962   -0.5881    2.0753 H   0  0  0  0  0  0  0  0  0  0  0  0
    3.0670    0.8874    2.0352 H   0  0  0  0  0  0  0  0  0  0  0  0
    3.1654    0.3407    3.7127 H   0  0  0  0  0  0  0  0  0  0  0  0
    5.1613   -0.2662    1.4584 H   0  0  0  0  0  0  0  0  0  0  0  0
    5.3253   -0.8767    3.1195 H   0  0  0  0  0  0  0  0  0  0  0  0
    6.5821    3.3094    3.6827 H   0  0  0  0  0  0  0  0  0  0  0  0
  1 20  1  0  0  0  0
  1 19  1  0  0  0  0
  2 16  1  0  0  0  0
  2 23  1  0  0  0  0
  3  5  1  0  0  0  0
  3 25  1  0  0  0  0
  4  3  1  0  0  0  0
  4  6  1  0  0  0  0
  5 29  1  0  0  0  0
  5  7  1  0  0  0  0
  6 13  1  0  0  0  0
  6 30  1  0  0  0  0
  7 32  1  0  0  0  0
  7 33  1  0  0  0  0
  8 13  1  0  0  0  0
  9  8  2  0  0  0  0
  9 15  1  0  0  0  0
 10 37  1  0  0  0  0
 11 10  1  0  0  0  0
 11 17  1  0  0  0  0
 11 39  1  0  0  0  0
 12 14  1  0  0  0  0
 12 40  1  0  0  0  0
 13 14  2  0  0  0  0
 14  7  1  0  0  0  0
 15 17  1  0  0  0  0
 15 12  2  0  0  0  0
 16 10  1  0  0  0  0
 16  1  1  0  0  0  0
 18  1  1  0  0  0  0
 21  2  1  0  0  0  0
 22  2  1  0  0  0  0
 24  3  1  0  0  0  0
 26  4  1  0  0  0  0
 27  4  1  0  0  0  0
 28  5  1  0  0  0  0
 31  6  1  0  0  0  0
 34  8  1  0  0  0  0
 35  9  1  0  0  0  0
 36 10  1  0  0  0  0
 38 11  1  0  0  0  0
M  END
>  <HBA>
2

>  <HBD>
0

>  <TPSA>
12.47

>  <cid>
43519

>  <dipole>
0.75

>  <excitation_energy_1>
4.868

>  <excitation_energy_2>
5.243

>  <excitation_energy_3>
5.397

>  <excitation_energy_4>
5.471

>  <homo_energy>
-5.543

>  <homo_lumo_gap>
5.802

>  <logP>
2.896

>  <lumo_energy>
0.259

>  <melting_point>
39.33

>  <molecular_refractivity>
72.49

>  <oscillator_strength_1>
0.0379

>  <oscillator_strength_2>
0.0108

>  <oscillator_strength_3>
0.0789

>  <oscillator_strength_4>
0.0055

>  <open_babel_can_smiles>
CN(CCOc1ccc2c(c1)CCCCC2)C

>  <mulliken_charges>
40
1   -0.302738
2   -0.294982
3   -0.258195
4   -0.246978
5   -0.249061
6   -0.353345
7   -0.353849
8   -0.207877
9   -0.194857
10   -0.139325
11   -0.028014
12   -0.254774
13   0.134874
14   0.133517
15   0.389747
16   -0.374165
17   -0.532555
18   0.151434
19   0.121492
20   0.15101
21   0.148939
22   0.151887
23   0.120434
24   0.129948
25   0.125569
26   0.128727
27   0.135798
28   0.137681
29   0.130394
30   0.138793
31   0.136327
32   0.140361
33   0.141817
34   0.119696
35   0.130276
36   0.151074
37   0.127883
38   0.148798
39   0.137874
40   0.126363

>  <lowdin_charges>
40
1   -0.357354
2   -0.356917
3   -0.278847
4   -0.27345
5   -0.273862
6   -0.27495
7   -0.276359
8   -0.159943
9   -0.219268
10   -0.204997
11   -0.131456
12   -0.196842
13   -0.03122
14   -0.001563
15   0.101281
16   -0.184539
17   -0.204766
18   0.151946
19   0.122009
20   0.14815
21   0.150461
22   0.151423
23   0.122815
24   0.144424
25   0.13581
26   0.141007
27   0.142141
28   0.143528
29   0.142384
30   0.144469
31   0.14857
32   0.150747
33   0.148068
34   0.153729
35   0.161077
36   0.154436
37   0.126452
38   0.141736
39   0.137749
40   0.161919

$$$$

