PCCDB-ID:  17795
public computational chemistry database (PCCDB) project, http://pccdb.org

 26 28  0  0  1  0  0  0  0  0999 V2000
    2.4565   -0.0330    0.5857 C   0  0  0  0  0  0  0  0  0  0  0  0
    1.6463    0.9218   -0.3767 C   0  0  0  0  0  0  0  0  0  0  0  0
    1.5179   -1.2516    0.9475 C   0  0  0  0  0  0  0  0  0  0  0  0
   -2.2087    0.4131    0.1614 C   0  0  0  0  0  0  0  0  0  0  0  0
   -1.9828   -1.0545    0.6718 C   0  0  0  0  0  0  0  0  0  0  0  0
   -1.3000   -0.8190   -1.6248 C   0  0  0  0  0  0  0  0  0  0  0  0
   -1.1178    0.5601   -0.9309 C   0  0  2  0  0  0  0  0  0  0  0  0
   -0.9765   -1.6558   -0.3488 C   0  0  1  0  0  0  0  0  0  0  0  0
    0.2215    0.4130   -0.1418 C   0  0  1  0  0  0  0  0  0  0  0  0
    0.4512   -1.1092   -0.1376 C   0  0  1  0  0  0  0  0  0  0  0  0
    2.7625    0.5009    1.4915 H   0  0  0  0  0  0  0  0  0  0  0  0
    3.3751   -0.3819    0.1023 H   0  0  0  0  0  0  0  0  0  0  0  0
    1.9622    0.7859   -1.4184 H   0  0  0  0  0  0  0  0  0  0  0  0
    1.7944    1.9766   -0.1209 H   0  0  0  0  0  0  0  0  0  0  0  0
    1.0977   -1.1330    1.9541 H   0  0  0  0  0  0  0  0  0  0  0  0
    2.0582   -2.2040    0.9243 H   0  0  0  0  0  0  0  0  0  0  0  0
   -2.1108    1.1579    0.9591 H   0  0  0  0  0  0  0  0  0  0  0  0
   -3.2089    0.5242   -0.2741 H   0  0  0  0  0  0  0  0  0  0  0  0
   -2.9198   -1.6215    0.6730 H   0  0  0  0  0  0  0  0  0  0  0  0
   -1.5923   -1.0820    1.6954 H   0  0  0  0  0  0  0  0  0  0  0  0
   -0.6043   -1.0096   -2.4492 H   0  0  0  0  0  0  0  0  0  0  0  0
   -2.3218   -0.9622   -1.9962 H   0  0  0  0  0  0  0  0  0  0  0  0
   -1.2261    1.4438   -1.5664 H   0  0  0  0  0  0  0  0  0  0  0  0
   -1.0488   -2.7417   -0.4626 H   0  0  0  0  0  0  0  0  0  0  0  0
    0.0029    0.7144    0.8948 H   0  0  0  0  0  0  0  0  0  0  0  0
    0.9796   -1.3533   -1.0743 H   0  0  0  0  0  0  0  0  0  0  0  0
  1  3  1  0  0  0  0
  1 11  1  0  0  0  0
  2  9  1  0  0  0  0
  2 14  1  0  0  0  0
  2  1  1  0  0  0  0
  3 15  1  0  0  0  0
  4  5  1  0  0  0  0
  4 17  1  0  0  0  0
  5 19  1  0  0  0  0
  5 20  1  0  0  0  0
  6  7  1  0  0  0  0
  6  8  1  0  0  0  0
  7 23  1  6  0  0  0
  7  9  1  0  0  0  0
  7  4  1  0  0  0  0
  8 24  1  6  0  0  0
  8 10  1  0  0  0  0
  8  5  1  0  0  0  0
  9 10  1  0  0  0  0
  9 25  1  1  0  0  0
 10 26  1  6  0  0  0
 10  3  1  0  0  0  0
 12  1  1  0  0  0  0
 13  2  1  0  0  0  0
 16  3  1  0  0  0  0
 18  4  1  0  0  0  0
 21  6  1  0  0  0  0
 22  6  1  0  0  0  0
M  END
>  <HBA>
0

>  <HBD>
0

>  <TPSA>
0.0

>  <cid>
17795

>  <dipole>
0.05

>  <excitation_energy_1>
7.099

>  <excitation_energy_2>
7.159

>  <excitation_energy_3>
7.409

>  <excitation_energy_4>
7.449

>  <homo_energy>
-7.597

>  <homo_lumo_gap>
9.881

>  <logP>
2.833

>  <lumo_energy>
2.283

>  <melting_point>
38.52

>  <molecular_refractivity>
43.84

>  <oscillator_strength_1>
0.0047

>  <oscillator_strength_2>
0.0037

>  <oscillator_strength_3>
0.0157

>  <oscillator_strength_4>
0.0125

>  <open_babel_can_smiles>
C1C[C@@H]2[C@@H](C1)[C@@H]1C[C@H]2CC1

>  <mulliken_charges>
26
1   -0.282012
2   -0.276978
3   -0.281993
4   -0.278578
5   -0.273778
6   -0.268689
7   -0.115845
8   -0.122936
9   -0.085881
10   -0.070249
11   0.137327
12   0.137279
13   0.130264
14   0.128555
15   0.131394
16   0.128845
17   0.132418
18   0.130713
19   0.135313
20   0.136877
21   0.130855
22   0.127275
23   0.115187
24   0.113903
25   0.121675
26   0.119058

>  <lowdin_charges>
26
1   -0.284367
2   -0.280973
3   -0.285187
4   -0.283104
5   -0.286661
6   -0.283024
7   -0.13884
8   -0.134966
9   -0.137203
10   -0.136047
11   0.145985
12   0.145751
13   0.137022
14   0.140075
15   0.138178
16   0.142176
17   0.141341
18   0.139387
19   0.146057
20   0.142273
21   0.142037
22   0.139461
23   0.141762
24   0.13815
25   0.134371
26   0.136348

$$$$

