PCCDB-ID:  25480
public computational chemistry database (PCCDB) project, http://pccdb.org

 34 33  0  0  0  0  0  0  0  0999 V2000
    0.1570    4.2107    0.2569 C   0  0  0  0  0  0  0  0  0  0  0  0
    1.4171    3.4151    0.6124 C   0  0  0  0  0  0  0  0  0  0  0  0
    2.5541    3.5997   -0.4010 C   0  0  0  0  0  0  0  0  0  0  0  0
    3.8189    2.8026   -0.0571 C   0  0  0  0  0  0  0  0  0  0  0  0
    4.9527    2.9907   -1.0735 C   0  0  0  0  0  0  0  0  0  0  0  0
    6.2156    2.1890   -0.7349 C   0  0  0  0  0  0  0  0  0  0  0  0
    7.3470    2.3897   -1.7650 C   0  0  0  0  0  0  0  0  0  0  0  0
    8.6019    1.6519   -1.4091 C   0  0  0  0  0  0  0  0  0  0  0  0
    9.1861    0.6990   -2.1601 C   0  0  0  0  0  0  0  0  0  0  0  0
   10.3942    0.0080   -1.7661 C   0  0  0  0  0  0  0  0  0  0  0  0
   11.0137   -0.9464   -2.4898 C   0  0  0  0  0  0  0  0  0  0  0  0
   12.2499   -1.5882   -1.9846 C   0  0  0  0  0  0  0  0  0  0  0  0
   12.7757   -1.3344   -0.9238 O   0  0  0  0  0  0  0  0  0  0  0  0
   12.8069   -2.5291   -2.8037 O   0  0  0  0  0  0  0  0  0  0  0  0
   -0.6362    4.0572    0.9973 H   0  0  0  0  0  0  0  0  0  0  0  0
   -0.2380    3.9108   -0.7217 H   0  0  0  0  0  0  0  0  0  0  0  0
    0.3670    5.2865    0.2118 H   0  0  0  0  0  0  0  0  0  0  0  0
    1.1676    2.3470    0.6856 H   0  0  0  0  0  0  0  0  0  0  0  0
    1.7695    3.7136    1.6100 H   0  0  0  0  0  0  0  0  0  0  0  0
    2.8056    4.6686   -0.4717 H   0  0  0  0  0  0  0  0  0  0  0  0
    2.1995    3.3052   -1.4001 H   0  0  0  0  0  0  0  0  0  0  0  0
    3.5672    1.7340    0.0125 H   0  0  0  0  0  0  0  0  0  0  0  0
    4.1743    3.0967    0.9416 H   0  0  0  0  0  0  0  0  0  0  0  0
    5.2077    4.0588   -1.1405 H   0  0  0  0  0  0  0  0  0  0  0  0
    4.5961    2.7003   -2.0729 H   0  0  0  0  0  0  0  0  0  0  0  0
    5.9717    1.1196   -0.6754 H   0  0  0  0  0  0  0  0  0  0  0  0
    6.5782    2.4775    0.2621 H   0  0  0  0  0  0  0  0  0  0  0  0
    7.5695    3.4664   -1.8311 H   0  0  0  0  0  0  0  0  0  0  0  0
    7.0017    2.0805   -2.7602 H   0  0  0  0  0  0  0  0  0  0  0  0
    9.0601    1.9129   -0.4531 H   0  0  0  0  0  0  0  0  0  0  0  0
    8.7405    0.4240   -3.1168 H   0  0  0  0  0  0  0  0  0  0  0  0
   10.8436    0.2757   -0.8104 H   0  0  0  0  0  0  0  0  0  0  0  0
   10.6095   -1.2543   -3.4539 H   0  0  0  0  0  0  0  0  0  0  0  0
   12.2796   -2.6201   -3.6138 H   0  0  0  0  0  0  0  0  0  0  0  0
  1  2  1  0  0  0  0
  1 15  1  0  0  0  0
  2 18  1  0  0  0  0
  2 19  1  0  0  0  0
  3  4  1  0  0  0  0
  3  2  1  0  0  0  0
  4 22  1  0  0  0  0
  4 23  1  0  0  0  0
  5  6  1  0  0  0  0
  5  4  1  0  0  0  0
  6 26  1  0  0  0  0
  6 27  1  0  0  0  0
  7  8  1  0  0  0  0
  7  6  1  0  0  0  0
  8 30  1  0  0  0  0
  9 10  1  0  0  0  0
  9  8  2  0  0  0  0
 10 32  1  0  0  0  0
 11 12  1  0  0  0  0
 11 10  2  0  0  0  0
 12 13  2  0  0  0  0
 14 12  1  0  0  0  0
 16  1  1  0  0  0  0
 17  1  1  0  0  0  0
 20  3  1  0  0  0  0
 21  3  1  0  0  0  0
 24  5  1  0  0  0  0
 25  5  1  0  0  0  0
 28  7  1  0  0  0  0
 29  7  1  0  0  0  0
 31  9  1  0  0  0  0
 33 11  1  0  0  0  0
 34 14  1  0  0  0  0
M  END
>  <HBA>
2

>  <HBD>
1

>  <TPSA>
37.3

>  <cid>
25480

>  <dipole>
5.52

>  <excitation_energy_1>
4.335

>  <excitation_energy_2>
4.744

>  <excitation_energy_3>
5.695

>  <excitation_energy_4>
5.96

>  <homo_energy>
-6.504

>  <homo_lumo_gap>
4.787

>  <logP>
3.544

>  <lumo_energy>
-1.717

>  <melting_point>
66.19

>  <molecular_refractivity>
60.62

>  <oscillator_strength_1>
0.0001

>  <oscillator_strength_2>
0.9732

>  <oscillator_strength_3>
0.002

>  <oscillator_strength_4>
0.013

>  <open_babel_can_smiles>
CCCCCCC/C=C/C=C/C(=O)O

>  <mulliken_charges>
34
1   -0.441561
2   -0.247162
3   -0.246196
4   -0.253701
5   -0.253607
6   -0.257544
7   -0.31289
8   -0.090522
9   -0.11728
10   -0.070159
11   -0.256636
12   0.599892
13   -0.462311
14   -0.583984
15   0.142901
16   0.141353
17   0.1416
18   0.130765
19   0.130954
20   0.127228
21   0.126885
22   0.129462
23   0.129209
24   0.129989
25   0.129898
26   0.141288
27   0.135446
28   0.151378
29   0.142964
30   0.139682
31   0.126422
32   0.170655
33   0.120663
34   0.404919

>  <lowdin_charges>
34
1   -0.442893
2   -0.269857
3   -0.272118
4   -0.271878
5   -0.271725
6   -0.269789
7   -0.270065
8   -0.120983
9   -0.172511
10   -0.087621
11   -0.242221
12   0.192243
13   -0.256048
14   -0.362783
15   0.150511
16   0.145975
17   0.144658
18   0.137423
19   0.138572
20   0.135956
21   0.136795
22   0.137232
23   0.138112
24   0.137306
25   0.138314
26   0.142957
27   0.141227
28   0.153008
29   0.147532
30   0.156634
31   0.153074
32   0.177846
33   0.150526
34   0.354593

$$$$

