PCCDB-ID:  67281
public computational chemistry database (PCCDB) project, http://pccdb.org

 28 28  0  0  0  0  0  0  0  0999 V2000
    2.9579   -1.1616   -0.6624 C   0  0  0  0  0  0  0  0  0  0  0  0
    3.7235   -0.0742    0.1008 C   0  0  0  0  0  0  0  0  0  0  0  0
    7.4516   -0.5302   -1.9476 C   0  0  0  0  0  0  0  0  0  0  0  0
    8.4954   -1.3244    0.0841 C   0  0  0  0  0  0  0  0  0  0  0  0
    6.2447   -0.3857   -1.2856 C   0  0  0  0  0  0  0  0  0  0  0  0
    7.2999   -1.1807    0.7573 C   0  0  0  0  0  0  0  0  0  0  0  0
    4.7527   -1.0710    2.1324 C   0  0  0  0  0  0  0  0  0  0  0  0
    5.1203   -0.0518    3.2194 C   0  0  0  0  0  0  0  0  0  0  0  0
    8.5903   -1.0007   -1.2804 C   0  0  0  0  0  0  0  0  0  0  0  0
    6.1290   -0.7081    0.0934 C   0  0  0  0  0  0  0  0  0  0  0  0
    9.7742   -1.1159   -2.0534 N   0  0  0  0  0  0  0  0  0  0  0  0
    4.9371   -0.5580    0.7721 N   0  0  0  0  0  0  0  0  0  0  0  0
    4.3694    1.1493    3.1031 O   0  0  0  0  0  0  0  0  0  0  0  0
   10.7625   -1.5276   -1.4439 O   0  0  0  0  0  0  0  0  0  0  0  0
    2.0642   -0.7360   -1.1329 H   0  0  0  0  0  0  0  0  0  0  0  0
    2.6349   -1.9610    0.0137 H   0  0  0  0  0  0  0  0  0  0  0  0
    3.5766   -1.6121   -1.4445 H   0  0  0  0  0  0  0  0  0  0  0  0
    3.0874    0.3605    0.8765 H   0  0  0  0  0  0  0  0  0  0  0  0
    3.9925    0.7490   -0.5687 H   0  0  0  0  0  0  0  0  0  0  0  0
    7.5375   -0.2878   -3.0032 H   0  0  0  0  0  0  0  0  0  0  0  0
    9.3865   -1.6819    0.5902 H   0  0  0  0  0  0  0  0  0  0  0  0
    5.3840   -0.0385   -1.8427 H   0  0  0  0  0  0  0  0  0  0  0  0
    7.2669   -1.4199    1.8132 H   0  0  0  0  0  0  0  0  0  0  0  0
    3.6949   -1.3286    2.2453 H   0  0  0  0  0  0  0  0  0  0  0  0
    5.3188   -1.9989    2.2725 H   0  0  0  0  0  0  0  0  0  0  0  0
    6.2000    0.1564    3.2039 H   0  0  0  0  0  0  0  0  0  0  0  0
    4.8773   -0.4739    4.2006 H   0  0  0  0  0  0  0  0  0  0  0  0
    4.7186    1.6286    2.3357 H   0  0  0  0  0  0  0  0  0  0  0  0
  1 16  1  0  0  0  0
  1  2  1  0  0  0  0
  2 12  1  0  0  0  0
  2 18  1  0  0  0  0
  3  5  2  0  0  0  0
  3  9  1  0  0  0  0
  4 21  1  0  0  0  0
  4  6  1  0  0  0  0
  5 10  1  0  0  0  0
  6 23  1  0  0  0  0
  7 24  1  0  0  0  0
  7 25  1  0  0  0  0
  7  8  1  0  0  0  0
  8 27  1  0  0  0  0
  9  4  2  0  0  0  0
 10  6  2  0  0  0  0
 10 12  1  0  0  0  0
 11 14  2  0  0  0  0
 11  9  1  0  0  0  0
 12  7  1  0  0  0  0
 13  8  1  0  0  0  0
 15  1  1  0  0  0  0
 17  1  1  0  0  0  0
 19  2  1  0  0  0  0
 20  3  1  0  0  0  0
 22  5  1  0  0  0  0
 26  8  1  0  0  0  0
 28 13  1  0  0  0  0
M  END
>  <HBA>
4

>  <HBD>
1

>  <TPSA>
52.9

>  <cid>
67281

>  <dipole>
5.94

>  <excitation_energy_1>
1.616

>  <excitation_energy_2>
3.58

>  <excitation_energy_3>
4.088

>  <excitation_energy_4>
4.26

>  <homo_energy>
-5.342

>  <homo_lumo_gap>
3.282

>  <logP>
1.903

>  <lumo_energy>
-2.06

>  <melting_point>
58.04

>  <molecular_refractivity>
56.88

>  <oscillator_strength_1>
0.0003

>  <oscillator_strength_2>
0.4598

>  <oscillator_strength_3>
0.0001

>  <oscillator_strength_4>
0.0017

>  <open_babel_can_smiles>
OCCN(c1ccc(cc1)N=O)CC

>  <mulliken_charges>
28
1   -0.44826
2   -0.169184
3   -0.134719
4   -0.134398
5   -0.204245
6   -0.197784
7   -0.166856
8   -0.042965
9   0.221152
10   0.377731
11   -0.084685
12   -0.493868
13   -0.608022
14   -0.323008
15   0.154632
16   0.155906
17   0.166289
18   0.171557
19   0.158781
20   0.150266
21   0.160156
22   0.13689
23   0.135282
24   0.165026
25   0.158904
26   0.140791
27   0.154537
28   0.400094

>  <lowdin_charges>
28
1   -0.458145
2   -0.206602
3   -0.11752
4   -0.123579
5   -0.217135
6   -0.203867
7   -0.214823
8   -0.141622
9   -0.050748
10   0.078374
11   0.027554
12   -0.100116
13   -0.463874
14   -0.219071
15   0.159092
16   0.15565
17   0.160427
18   0.161516
19   0.153052
20   0.17029
21   0.176952
22   0.164574
23   0.159473
24   0.158494
25   0.156611
26   0.134269
27   0.152991
28   0.347783

$$$$

