PCCDB-ID:  23111
public computational chemistry database (PCCDB) project, http://pccdb.org

 28 31  0  0  0  0  0  0  0  0999 V2000
    3.5270    0.0649   -0.0708 C   0  0  0  0  0  0  0  0  0  0  0  0
   -3.5348   -0.1217    0.0760 C   0  0  0  0  0  0  0  0  0  0  0  0
    2.8656   -1.1474   -0.1161 C   0  0  0  0  0  0  0  0  0  0  0  0
    2.7985    1.2635    0.0529 C   0  0  0  0  0  0  0  0  0  0  0  0
   -2.8105   -1.2979    0.1106 C   0  0  0  0  0  0  0  0  0  0  0  0
   -2.8704    1.1145   -0.0374 C   0  0  0  0  0  0  0  0  0  0  0  0
    0.7395   -2.4416   -0.0550 C   0  0  0  0  0  0  0  0  0  0  0  0
    0.6123    2.5139    0.3593 C   0  0  0  0  0  0  0  0  0  0  0  0
   -0.6191   -2.4778    0.0378 C   0  0  0  0  0  0  0  0  0  0  0  0
   -0.7536    2.4800   -0.3361 C   0  0  0  0  0  0  0  0  0  0  0  0
    1.4537   -1.1960   -0.0686 C   0  0  0  0  0  0  0  0  0  0  0  0
    1.4131    1.2555    0.1002 C   0  0  0  0  0  0  0  0  0  0  0  0
   -1.3979   -1.2718    0.0631 C   0  0  0  0  0  0  0  0  0  0  0  0
   -1.4866    1.1796   -0.0856 C   0  0  0  0  0  0  0  0  0  0  0  0
    0.7195    0.0210   -0.0002 C   0  0  0  0  0  0  0  0  0  0  0  0
   -0.7288   -0.0172    0.0054 C   0  0  0  0  0  0  0  0  0  0  0  0
    4.6125    0.0970   -0.1120 H   0  0  0  0  0  0  0  0  0  0  0  0
   -4.6204   -0.1473    0.1176 H   0  0  0  0  0  0  0  0  0  0  0  0
    3.4235   -2.0787   -0.1807 H   0  0  0  0  0  0  0  0  0  0  0  0
    3.3299    2.2099    0.1253 H   0  0  0  0  0  0  0  0  0  0  0  0
   -3.3187   -2.2577    0.1664 H   0  0  0  0  0  0  0  0  0  0  0  0
   -3.4506    2.0324   -0.1021 H   0  0  0  0  0  0  0  0  0  0  0  0
    1.3125   -3.3649   -0.0983 H   0  0  0  0  0  0  0  0  0  0  0  0
    0.4566    2.6097    1.4453 H   0  0  0  0  0  0  0  0  0  0  0  0
    1.1784    3.3996    0.0486 H   0  0  0  0  0  0  0  0  0  0  0  0
   -1.1426   -3.4304    0.0718 H   0  0  0  0  0  0  0  0  0  0  0  0
   -0.6032    2.5909   -1.4214 H   0  0  0  0  0  0  0  0  0  0  0  0
   -1.3656    3.3326   -0.0199 H   0  0  0  0  0  0  0  0  0  0  0  0
  1  4  1  0  0  0  0
  2  5  2  0  0  0  0
  2 18  1  0  0  0  0
  3  1  2  0  0  0  0
  3 11  1  0  0  0  0
  4 12  2  0  0  0  0
  4 20  1  0  0  0  0
  5 21  1  0  0  0  0
  6  2  1  0  0  0  0
  7  9  1  0  0  0  0
  8 24  1  0  0  0  0
  9 13  2  0  0  0  0
  9 26  1  0  0  0  0
 10 14  1  0  0  0  0
 10 28  1  0  0  0  0
 10  8  1  0  0  0  0
 11  7  2  0  0  0  0
 11 15  1  0  0  0  0
 12  8  1  0  0  0  0
 13  5  1  0  0  0  0
 14  6  2  0  0  0  0
 14 16  1  0  0  0  0
 15 16  2  0  0  0  0
 15 12  1  0  0  0  0
 16 13  1  0  0  0  0
 17  1  1  0  0  0  0
 19  3  1  0  0  0  0
 22  6  1  0  0  0  0
 23  7  1  0  0  0  0
 25  8  1  0  0  0  0
 27 10  1  0  0  0  0
M  END
>  <HBA>
0

>  <HBD>
0

>  <TPSA>
0.0

>  <cid>
23111

>  <dipole>
0.5

>  <excitation_energy_1>
3.893

>  <excitation_energy_2>
4.134

>  <excitation_energy_3>
4.608

>  <excitation_energy_4>
4.711

>  <homo_energy>
-5.63

>  <homo_lumo_gap>
4.689

>  <logP>
4.092

>  <lumo_energy>
-0.942

>  <melting_point>
125.24

>  <molecular_refractivity>
69.27

>  <oscillator_strength_1>
0.0

>  <oscillator_strength_2>
0.0568

>  <oscillator_strength_3>
0.1428

>  <oscillator_strength_4>
0.506

>  <open_babel_can_smiles>
c1cc2CCc3c4c2c(c1)ccc4ccc3

>  <mulliken_charges>
28
1   -0.121825
2   -0.121841
3   -0.21517
4   -0.215517
5   -0.214899
6   -0.21564
7   -0.195584
8   -0.346822
9   -0.195613
10   -0.346616
11   0.1571
12   0.126639
13   0.156945
14   0.126583
15   0.00484
16   0.004811
17   0.127553
18   0.127558
19   0.126962
20   0.1205
21   0.126875
22   0.120553
23   0.128305
24   0.15975
25   0.143289
26   0.128301
27   0.159732
28   0.143231

>  <lowdin_charges>
28
1   -0.153148
2   -0.153133
3   -0.164022
4   -0.170851
5   -0.163634
6   -0.171237
7   -0.158542
8   -0.269939
9   -0.158193
10   -0.270114
11   -0.000317
12   -0.003706
13   -0.000433
14   -0.003608
15   -0.011681
16   -0.011695
17   0.155697
18   0.155688
19   0.156716
20   0.154813
21   0.156398
22   0.1551
23   0.158265
24   0.153917
25   0.152796
26   0.15799
27   0.153927
28   0.152946

$$$$

