PCCDB-ID:  52360
public computational chemistry database (PCCDB) project, http://pccdb.org

 31 32  0  0  0  0  0  0  0  0999 V2000
    1.0542    0.5359    1.2278 C   0  0  0  0  0  0  0  0  0  0  0  0
    4.8901   -2.0896    0.9140 C   0  0  0  0  0  0  0  0  0  0  0  0
    8.4805    2.8414    0.8300 C   0  0  0  0  0  0  0  0  0  0  0  0
   10.4609   -1.6004    0.5812 C   0  0  0  0  0  0  0  0  0  0  0  0
    2.4550    0.0103    1.1250 C   0  0  0  0  0  0  0  0  0  0  0  0
    3.5407    0.8022    1.0785 C   0  0  0  0  0  0  0  0  0  0  0  0
    4.9513    0.4674    0.9804 C   0  0  0  0  0  0  0  0  0  0  0  0
    6.8974   -0.5653    0.8277 C   0  0  0  0  0  0  0  0  0  0  0  0
    7.0557    0.8082    0.8579 C   0  0  0  0  0  0  0  0  0  0  0  0
    7.9953   -1.4838    0.7343 C   0  0  0  0  0  0  0  0  0  0  0  0
    9.4354    0.5925    0.7031 C   0  0  0  0  0  0  0  0  0  0  0  0
    5.8724    1.4489    0.9505 N   0  0  0  0  0  0  0  0  0  0  0  0
    5.5265   -0.7756    0.9077 N   0  0  0  0  0  0  0  0  0  0  0  0
    8.3012    1.3907    0.7970 N   0  0  0  0  0  0  0  0  0  0  0  0
    9.2359   -0.8002    0.6754 N   0  0  0  0  0  0  0  0  0  0  0  0
    7.9269   -2.7127    0.7054 O   0  0  0  0  0  0  0  0  0  0  0  0
   10.5559    1.0796    0.6471 O   0  0  0  0  0  0  0  0  0  0  0  0
    0.5583    0.1630    2.1344 H   0  0  0  0  0  0  0  0  0  0  0  0
    0.4434    0.1991    0.3791 H   0  0  0  0  0  0  0  0  0  0  0  0
    1.0335    1.6299    1.2520 H   0  0  0  0  0  0  0  0  0  0  0  0
    4.2172   -2.1913    0.0572 H   0  0  0  0  0  0  0  0  0  0  0  0
    4.3249   -2.2346    1.8397 H   0  0  0  0  0  0  0  0  0  0  0  0
    5.6819   -2.8356    0.8472 H   0  0  0  0  0  0  0  0  0  0  0  0
    7.4931    3.2948    0.9079 H   0  0  0  0  0  0  0  0  0  0  0  0
    8.9815    3.1777   -0.0813 H   0  0  0  0  0  0  0  0  0  0  0  0
    9.0966    3.1241    1.6875 H   0  0  0  0  0  0  0  0  0  0  0  0
   10.1650   -2.6474    0.5799 H   0  0  0  0  0  0  0  0  0  0  0  0
   11.1131   -1.3851    1.4309 H   0  0  0  0  0  0  0  0  0  0  0  0
   10.9993   -1.3529   -0.3370 H   0  0  0  0  0  0  0  0  0  0  0  0
    2.5486   -1.0709    1.0892 H   0  0  0  0  0  0  0  0  0  0  0  0
    3.3989    1.8801    1.1181 H   0  0  0  0  0  0  0  0  0  0  0  0
  1 20  1  0  0  0  0
  1 18  1  0  0  0  0
  2 22  1  0  0  0  0
  3 24  1  0  0  0  0
  3 26  1  0  0  0  0
  4 15  1  0  0  0  0
  4 28  1  0  0  0  0
  5  1  1  0  0  0  0
  6 31  1  0  0  0  0
  6  5  2  0  0  0  0
  7  6  1  0  0  0  0
  8  9  2  0  0  0  0
  8 13  1  0  0  0  0
  9 12  1  0  0  0  0
 10  8  1  0  0  0  0
 11 14  1  0  0  0  0
 12  7  2  0  0  0  0
 13  2  1  0  0  0  0
 13  7  1  0  0  0  0
 14  3  1  0  0  0  0
 14  9  1  0  0  0  0
 15 11  1  0  0  0  0
 15 10  1  0  0  0  0
 16 10  2  0  0  0  0
 17 11  2  0  0  0  0
 19  1  1  0  0  0  0
 21  2  1  0  0  0  0
 23  2  1  0  0  0  0
 25  3  1  0  0  0  0
 27  4  1  0  0  0  0
 29  4  1  0  0  0  0
 30  5  1  0  0  0  0
M  END
>  <HBA>
6

>  <HBD>
0

>  <TPSA>
61.82

>  <cid>
52360

>  <dipole>
4.71

>  <excitation_energy_1>
3.953

>  <excitation_energy_2>
4.647

>  <excitation_energy_3>
4.943

>  <excitation_energy_4>
5.107

>  <homo_energy>
-5.687

>  <homo_lumo_gap>
4.256

>  <logP>
0.004

>  <lumo_energy>
-1.431

>  <melting_point>
167.41

>  <molecular_refractivity>
66.94

>  <oscillator_strength_1>
0.3248

>  <oscillator_strength_2>
0.0

>  <oscillator_strength_3>
0.2297

>  <oscillator_strength_4>
0.01

>  <open_babel_can_smiles>
C/C=C/c1nc2c(n1C)c(=O)n(c(=O)n2C)C

>  <mulliken_charges>
31
1   -0.493957
2   -0.361546
3   -0.32158
4   -0.314844
5   -0.097006
6   -0.146985
7   0.519231
8   0.226523
9   0.488175
10   0.633572
11   0.783515
12   -0.577849
13   -0.578287
14   -0.597725
15   -0.572009
16   -0.5406
17   -0.528701
18   0.165205
19   0.165033
20   0.164687
21   0.177155
22   0.177117
23   0.232273
24   0.197091
25   0.180663
26   0.180714
27   0.198392
28   0.177193
29   0.176848
30   0.134733
31   0.152968

>  <lowdin_charges>
31
1   -0.43592
2   -0.35874
3   -0.341773
4   -0.349696
5   -0.143435
6   -0.175479
7   0.08297
8   -0.073052
9   0.06532
10   0.155367
11   0.187408
12   -0.21408
13   0.00133
14   -0.056901
15   -0.088808
16   -0.314658
17   -0.310525
18   0.16349
19   0.163721
20   0.158556
21   0.164149
22   0.163867
23   0.198677
24   0.179803
25   0.168147
26   0.168433
27   0.180336
28   0.166836
29   0.166123
30   0.154456
31   0.174077

$$$$

