PCCDB-ID:  71010
public computational chemistry database (PCCDB) project, http://pccdb.org

 29 30  0  0  0  0  0  0  0  0999 V2000
    1.0600    1.5392   -0.7636 C   0  0  0  0  0  0  0  0  0  0  0  0
    1.6885    0.3766    0.0188 C   0  0  0  0  0  0  0  0  0  0  0  0
   -0.4664    1.5431   -0.5961 C   0  0  0  0  0  0  0  0  0  0  0  0
   -5.2821   -2.1166    0.7432 C   0  0  0  0  0  0  0  0  0  0  0  0
   -4.6102   -1.7843    1.9178 C   0  0  0  0  0  0  0  0  0  0  0  0
   -4.5446   -2.2530   -0.4308 C   0  0  0  0  0  0  0  0  0  0  0  0
    1.0371   -0.9594   -0.3609 C   0  0  0  0  0  0  0  0  0  0  0  0
   -1.0715    0.1791   -0.9616 C   0  0  0  0  0  0  0  0  0  0  0  0
   -3.2251   -1.6184    1.8815 C   0  0  0  0  0  0  0  0  0  0  0  0
   -2.5610   -1.7913    0.6494 C   0  0  0  0  0  0  0  0  0  0  0  0
   -1.0446   -1.8011    0.5963 C   0  0  0  0  0  0  0  0  0  0  0  0
   -3.2168   -2.0890   -0.4772 N   0  0  0  0  0  0  0  0  0  0  0  0
   -0.4191   -0.8957   -0.2158 N   0  0  0  0  0  0  0  0  0  0  0  0
   -2.4883   -1.2644    2.9685 O   0  0  0  0  0  0  0  0  0  0  0  0
   -0.4440   -2.6445    1.2571 O   0  0  0  0  0  0  0  0  0  0  0  0
    1.3070    1.4339   -1.8307 H   0  0  0  0  0  0  0  0  0  0  0  0
    1.4832    2.4971   -0.4373 H   0  0  0  0  0  0  0  0  0  0  0  0
    1.5588    0.5402    1.0969 H   0  0  0  0  0  0  0  0  0  0  0  0
    2.7676    0.3200   -0.1719 H   0  0  0  0  0  0  0  0  0  0  0  0
   -0.9243    2.3186   -1.2232 H   0  0  0  0  0  0  0  0  0  0  0  0
   -0.7230    1.7752    0.4464 H   0  0  0  0  0  0  0  0  0  0  0  0
   -6.3588   -2.2583    0.7412 H   0  0  0  0  0  0  0  0  0  0  0  0
   -5.1519   -1.6537    2.8533 H   0  0  0  0  0  0  0  0  0  0  0  0
   -5.0316   -2.5018   -1.3711 H   0  0  0  0  0  0  0  0  0  0  0  0
    1.3889   -1.7768    0.2688 H   0  0  0  0  0  0  0  0  0  0  0  0
    1.2732   -1.2042   -1.4084 H   0  0  0  0  0  0  0  0  0  0  0  0
   -0.9421   -0.0084   -2.0389 H   0  0  0  0  0  0  0  0  0  0  0  0
   -2.1415    0.1611   -0.7607 H   0  0  0  0  0  0  0  0  0  0  0  0
   -3.0679   -1.2149    3.7451 H   0  0  0  0  0  0  0  0  0  0  0  0
  1  3  1  0  0  0  0
  1 17  1  0  0  0  0
  1  2  1  0  0  0  0
  2 18  1  0  0  0  0
  3 21  1  0  0  0  0
  4  5  2  0  0  0  0
  5 23  1  0  0  0  0
  6  4  1  0  0  0  0
  7 13  1  0  0  0  0
  7  2  1  0  0  0  0
  7 25  1  0  0  0  0
  8 28  1  0  0  0  0
  8  3  1  0  0  0  0
  8 13  1  0  0  0  0
  9  5  1  0  0  0  0
  9 14  1  0  0  0  0
 10  9  2  0  0  0  0
 11 10  1  0  0  0  0
 11 15  2  0  0  0  0
 12  6  2  0  0  0  0
 12 10  1  0  0  0  0
 13 11  1  0  0  0  0
 14 29  1  0  0  0  0
 16  1  1  0  0  0  0
 19  2  1  0  0  0  0
 20  3  1  0  0  0  0
 22  4  1  0  0  0  0
 24  6  1  0  0  0  0
 26  7  1  0  0  0  0
 27  8  1  0  0  0  0
M  END
>  <HBA>
4

>  <HBD>
1

>  <TPSA>
53.43

>  <cid>
71010

>  <dipole>
4.23

>  <excitation_energy_1>
4.382

>  <excitation_energy_2>
4.451

>  <excitation_energy_3>
4.816

>  <excitation_energy_4>
4.998

>  <homo_energy>
-6.114

>  <homo_lumo_gap>
5.279

>  <logP>
1.351

>  <lumo_energy>
-0.835

>  <melting_point>
117.25

>  <molecular_refractivity>
60.38

>  <oscillator_strength_1>
0.0473

>  <oscillator_strength_2>
0.0171

>  <oscillator_strength_3>
0.095

>  <oscillator_strength_4>
0.0029

>  <open_babel_can_smiles>
Oc1cccnc1C(=O)N1CCCCC1

>  <mulliken_charges>
29
1   -0.266035
2   -0.262657
3   -0.260842
4   -0.140443
5   -0.1643
6   0.024066
7   -0.148612
8   -0.136225
9   0.340889
10   0.13842
11   0.583545
12   -0.456192
13   -0.415044
14   -0.623131
15   -0.511392
16   0.13015
17   0.137368
18   0.146403
19   0.136682
20   0.135351
21   0.140226
22   0.141347
23   0.133624
24   0.141036
25   0.192931
26   0.138559
27   0.143773
28   0.170033
29   0.410471

>  <lowdin_charges>
29
1   -0.279062
2   -0.279083
3   -0.28606
4   -0.159137
5   -0.187122
6   -0.112814
7   -0.199072
8   -0.192586
9   0.094106
10   -0.002296
11   0.15973
12   -0.13869
13   -0.094616
14   -0.356734
15   -0.302175
16   0.136918
17   0.146557
18   0.145908
19   0.146681
20   0.148833
21   0.143615
22   0.164594
23   0.159909
24   0.158562
25   0.179332
26   0.13853
27   0.1402
28   0.164503
29   0.361468

$$$$

