PCCDB-ID:  7811
public computational chemistry database (PCCDB) project, http://pccdb.org

 16 16  0  0  0  0  0  0  0  0999 V2000
    0.8831    0.0388    0.1222 C   0  0  0  0  0  0  0  0  0  0  0  0
    3.1029   -1.1739   -0.0946 C   0  0  0  0  0  0  0  0  0  0  0  0
    3.1185    1.2212   -0.0573 C   0  0  0  0  0  0  0  0  0  0  0  0
    4.4928   -1.1893   -0.2220 C   0  0  0  0  0  0  0  0  0  0  0  0
    4.5042    1.2228   -0.1863 C   0  0  0  0  0  0  0  0  0  0  0  0
    2.3882    0.0250   -0.0095 C   0  0  0  0  0  0  0  0  0  0  0  0
    5.2059    0.0122   -0.2699 C   0  0  0  0  0  0  0  0  0  0  0  0
    6.9869    0.0861   -0.4261 S   0  0  0  0  0  0  0  0  0  0  0  0
    0.4836   -0.9739    0.2367 H   0  0  0  0  0  0  0  0  0  0  0  0
    0.4062    0.4849   -0.7599 H   0  0  0  0  0  0  0  0  0  0  0  0
    0.5610    0.6247    0.9918 H   0  0  0  0  0  0  0  0  0  0  0  0
    2.5674   -2.1200   -0.0588 H   0  0  0  0  0  0  0  0  0  0  0  0
    2.5938    2.1721    0.0073 H   0  0  0  0  0  0  0  0  0  0  0  0
    5.0140   -2.1411   -0.2825 H   0  0  0  0  0  0  0  0  0  0  0  0
    5.0417    2.1668   -0.2212 H   0  0  0  0  0  0  0  0  0  0  0  0
    7.1973   -1.2435   -0.5070 H   0  0  0  0  0  0  0  0  0  0  0  0
  1  9  1  0  0  0  0
  1 11  1  0  0  0  0
  2 12  1  0  0  0  0
  2  6  2  0  0  0  0
  3  6  1  0  0  0  0
  3 13  1  0  0  0  0
  4  2  1  0  0  0  0
  5  3  2  0  0  0  0
  6  1  1  0  0  0  0
  7  4  2  0  0  0  0
  7  5  1  0  0  0  0
  8  7  1  0  0  0  0
 10  1  1  0  0  0  0
 14  4  1  0  0  0  0
 15  5  1  0  0  0  0
 16  8  1  0  0  0  0
M  END
>  <HBA>
1

>  <HBD>
1

>  <TPSA>
38.8

>  <cid>
7811

>  <dipole>
1.54

>  <excitation_energy_1>
4.642

>  <excitation_energy_2>
4.676

>  <excitation_energy_3>
5.124

>  <excitation_energy_4>
5.371

>  <homo_energy>
-5.772

>  <homo_lumo_gap>
5.657

>  <logP>
2.284

>  <lumo_energy>
-0.114

>  <melting_point>
32.92

>  <molecular_refractivity>
38.66

>  <oscillator_strength_1>
0.0049

>  <oscillator_strength_2>
0.0156

>  <oscillator_strength_3>
0.2511

>  <oscillator_strength_4>
0.0094

>  <open_babel_can_smiles>
Cc1ccc(cc1)S

>  <mulliken_charges>
16
1   -0.530233
2   -0.170675
3   -0.165129
4   -0.152236
5   -0.156581
6   0.171367
7   -0.060016
8   -0.031291
9   0.15502
10   0.163971
11   0.16199
12   0.125627
13   0.126535
14   0.126191
15   0.140708
16   0.094752

>  <lowdin_charges>
16
1   -0.442602
2   -0.160581
3   -0.156455
4   -0.174542
5   -0.166631
6   -0.005689
7   -0.113371
8   -0.01169
9   0.156205
10   0.161684
11   0.160957
12   0.156727
13   0.157296
14   0.15704
15   0.164414
16   0.117238

$$$$

