PCCDB-ID:  20887
public computational chemistry database (PCCDB) project, http://pccdb.org

 36 36  0  0  0  0  0  0  0  0999 V2000
    2.2692   -1.5461   -0.7228 C   0  0  0  0  0  0  0  0  0  0  0  0
    8.7012    6.0670    4.5943 C   0  0  0  0  0  0  0  0  0  0  0  0
    3.5122   -0.6874   -0.4696 C   0  0  0  0  0  0  0  0  0  0  0  0
    7.5646    5.6082    3.6754 C   0  0  0  0  0  0  0  0  0  0  0  0
    3.3297    0.3063    0.6843 C   0  0  0  0  0  0  0  0  0  0  0  0
    6.1751    5.8567    4.2730 C   0  0  0  0  0  0  0  0  0  0  0  0
    4.5771    1.1643    0.9252 C   0  0  0  0  0  0  0  0  0  0  0  0
    5.0204    5.3872    3.3771 C   0  0  0  0  0  0  0  0  0  0  0  0
    4.5221    1.6855    3.4131 C   0  0  0  0  0  0  0  0  0  0  0  0
    4.4635    3.0321    4.1568 C   0  0  0  0  0  0  0  0  0  0  0  0
    4.8427    3.4222    1.8862 C   0  0  0  0  0  0  0  0  0  0  0  0
    4.4187    2.1040    2.0229 N   0  0  0  0  0  0  0  0  0  0  0  0
    5.0037    3.9485    3.1638 N   0  0  0  0  0  0  0  0  0  0  0  0
    5.0373    4.0119    0.8330 O   0  0  0  0  0  0  0  0  0  0  0  0
    2.4282   -2.2452   -1.5516 H   0  0  0  0  0  0  0  0  0  0  0  0
    1.4021   -0.9231   -0.9741 H   0  0  0  0  0  0  0  0  0  0  0  0
    2.0071   -2.1353    0.1647 H   0  0  0  0  0  0  0  0  0  0  0  0
    9.6812    5.8734    4.1439 H   0  0  0  0  0  0  0  0  0  0  0  0
    8.6690    5.5432    5.5582 H   0  0  0  0  0  0  0  0  0  0  0  0
    8.6374    7.1425    4.8020 H   0  0  0  0  0  0  0  0  0  0  0  0
    3.7702   -0.1362   -1.3848 H   0  0  0  0  0  0  0  0  0  0  0  0
    4.3707   -1.3407   -0.2567 H   0  0  0  0  0  0  0  0  0  0  0  0
    7.6732    4.5392    3.4541 H   0  0  0  0  0  0  0  0  0  0  0  0
    7.6382    6.1259    2.7090 H   0  0  0  0  0  0  0  0  0  0  0  0
    3.0756   -0.2474    1.6001 H   0  0  0  0  0  0  0  0  0  0  0  0
    2.4810    0.9714    0.4764 H   0  0  0  0  0  0  0  0  0  0  0  0
    6.0388    6.9315    4.4595 H   0  0  0  0  0  0  0  0  0  0  0  0
    6.1028    5.3688    5.2566 H   0  0  0  0  0  0  0  0  0  0  0  0
    4.8031    1.7661    0.0399 H   0  0  0  0  0  0  0  0  0  0  0  0
    5.4477    0.5122    1.1137 H   0  0  0  0  0  0  0  0  0  0  0  0
    5.1002    5.8392    2.3839 H   0  0  0  0  0  0  0  0  0  0  0  0
    4.0589    5.7057    3.8130 H   0  0  0  0  0  0  0  0  0  0  0  0
    3.7073    1.0153    3.7038 H   0  0  0  0  0  0  0  0  0  0  0  0
    5.4774    1.1673    3.6015 H   0  0  0  0  0  0  0  0  0  0  0  0
    5.0562    3.0244    5.0768 H   0  0  0  0  0  0  0  0  0  0  0  0
    3.4259    3.2992    4.4187 H   0  0  0  0  0  0  0  0  0  0  0  0
  1  3  1  0  0  0  0
  1 17  1  0  0  0  0
  2 20  1  0  0  0  0
  2 19  1  0  0  0  0
  3 22  1  0  0  0  0
  3  5  1  0  0  0  0
  4  6  1  0  0  0  0
  4  2  1  0  0  0  0
  5  7  1  0  0  0  0
  5 25  1  0  0  0  0
  6 27  1  0  0  0  0
  6 28  1  0  0  0  0
  7 30  1  0  0  0  0
  7 12  1  0  0  0  0
  8 32  1  0  0  0  0
  8  6  1  0  0  0  0
  9 34  1  0  0  0  0
  9 33  1  0  0  0  0
  9 10  1  0  0  0  0
 10 36  1  0  0  0  0
 10 35  1  0  0  0  0
 11 12  1  0  0  0  0
 11 13  1  0  0  0  0
 12  9  1  0  0  0  0
 13  8  1  0  0  0  0
 13 10  1  0  0  0  0
 14 11  2  0  0  0  0
 15  1  1  0  0  0  0
 16  1  1  0  0  0  0
 18  2  1  0  0  0  0
 21  3  1  0  0  0  0
 23  4  1  0  0  0  0
 24  4  1  0  0  0  0
 26  5  1  0  0  0  0
 29  7  1  0  0  0  0
 31  8  1  0  0  0  0
M  END
>  <HBA>
3

>  <HBD>
0

>  <TPSA>
23.55

>  <cid>
20887

>  <dipole>
3.54

>  <excitation_energy_1>
5.57

>  <excitation_energy_2>
5.805

>  <excitation_energy_3>
5.991

>  <excitation_energy_4>
6.145

>  <homo_energy>
-6.09

>  <homo_lumo_gap>
7.755

>  <logP>
2.2

>  <lumo_energy>
1.665

>  <melting_point>
29.69

>  <molecular_refractivity>
67.09

>  <oscillator_strength_1>
0.0027

>  <oscillator_strength_2>
0.1272

>  <oscillator_strength_3>
0.0176

>  <oscillator_strength_4>
0.0139

>  <open_babel_can_smiles>
CCCCN1CCN(C1=O)CCCC

>  <mulliken_charges>
36
1   -0.441284
2   -0.442598
3   -0.252636
4   -0.24352
5   -0.251729
6   -0.254627
7   -0.135594
8   -0.144307
9   -0.13385
10   -0.133898
11   0.771612
12   -0.472585
13   -0.465309
14   -0.549633
15   0.143992
16   0.144982
17   0.140378
18   0.143918
19   0.137143
20   0.140475
21   0.139103
22   0.131089
23   0.143191
24   0.140516
25   0.125308
26   0.144639
27   0.132317
28   0.124926
29   0.183104
30   0.126549
31   0.182386
32   0.128413
33   0.155859
34   0.142672
35   0.155443
36   0.143554

>  <lowdin_charges>
36
1   -0.44473
2   -0.441827
3   -0.273372
4   -0.271863
5   -0.281778
6   -0.279173
7   -0.198419
8   -0.195698
9   -0.194809
10   -0.193183
11   0.173986
12   -0.135457
13   -0.134289
14   -0.330198
15   0.151007
16   0.148674
17   0.146284
18   0.149906
19   0.143665
20   0.143729
21   0.143478
22   0.139541
23   0.143604
24   0.144539
25   0.136161
26   0.14801
27   0.142378
28   0.135142
29   0.172268
30   0.132129
31   0.170755
32   0.135059
33   0.152233
34   0.135799
35   0.151237
36   0.135216

$$$$

