PCCDB-ID:  30227
public computational chemistry database (PCCDB) project, http://pccdb.org

 23 22  0  0  0  0  0  0  0  0999 V2000
    2.3485   -1.1304   -0.7437 C   0  0  0  0  0  0  0  0  0  0  0  0
    2.3883    2.1114   -0.1095 C   0  0  0  0  0  0  0  0  0  0  0  0
    5.7042    0.2609   -1.2090 C   0  0  0  0  0  0  0  0  0  0  0  0
    4.7425    3.9874   -0.7287 C   0  0  0  0  0  0  0  0  0  0  0  0
    3.1433   -0.2665    0.2544 C   0  0  0  0  0  0  0  0  0  0  0  0
    3.5054    1.1059   -0.2910 C   0  0  0  0  0  0  0  0  0  0  0  0
    4.6854    1.3446   -0.9129 C   0  0  0  0  0  0  0  0  0  0  0  0
    5.1285    2.6877   -1.4304 C   0  0  0  0  0  0  0  0  0  0  0  0
    5.8903    2.7494   -2.3865 O   0  0  0  0  0  0  0  0  0  0  0  0
    2.0571   -2.0822   -0.2857 H   0  0  0  0  0  0  0  0  0  0  0  0
    2.9438   -1.3498   -1.6364 H   0  0  0  0  0  0  0  0  0  0  0  0
    1.4338   -0.6240   -1.0721 H   0  0  0  0  0  0  0  0  0  0  0  0
    2.3574    2.4878    0.9231 H   0  0  0  0  0  0  0  0  0  0  0  0
    1.4232    1.6197   -0.2841 H   0  0  0  0  0  0  0  0  0  0  0  0
    2.4415    2.9667   -0.7821 H   0  0  0  0  0  0  0  0  0  0  0  0
    5.2981   -0.7475   -1.1183 H   0  0  0  0  0  0  0  0  0  0  0  0
    6.5744    0.3392   -0.5428 H   0  0  0  0  0  0  0  0  0  0  0  0
    6.0779    0.3974   -2.2271 H   0  0  0  0  0  0  0  0  0  0  0  0
    5.6167    4.6441   -0.7525 H   0  0  0  0  0  0  0  0  0  0  0  0
    4.4141    3.8467    0.3033 H   0  0  0  0  0  0  0  0  0  0  0  0
    3.9442    4.4964   -1.2824 H   0  0  0  0  0  0  0  0  0  0  0  0
    4.0379   -0.8093    0.5730 H   0  0  0  0  0  0  0  0  0  0  0  0
    2.5335   -0.1253    1.1576 H   0  0  0  0  0  0  0  0  0  0  0  0
  1 10  1  0  0  0  0
  1  5  1  0  0  0  0
  2 13  1  0  0  0  0
  3 16  1  0  0  0  0
  3  7  1  0  0  0  0
  3 17  1  0  0  0  0
  4 20  1  0  0  0  0
  5 22  1  0  0  0  0
  5 23  1  0  0  0  0
  6  2  1  0  0  0  0
  6  5  1  0  0  0  0
  7  6  2  0  0  0  0
  8  7  1  0  0  0  0
  8  4  1  0  0  0  0
  9  8  2  0  0  0  0
 11  1  1  0  0  0  0
 12  1  1  0  0  0  0
 14  2  1  0  0  0  0
 15  2  1  0  0  0  0
 18  3  1  0  0  0  0
 19  4  1  0  0  0  0
 21  4  1  0  0  0  0
M  END
>  <HBA>
1

>  <HBD>
0

>  <TPSA>
17.07

>  <cid>
30227

>  <dipole>
3.29

>  <excitation_energy_1>
3.811

>  <excitation_energy_2>
4.998

>  <excitation_energy_3>
5.956

>  <excitation_energy_4>
6.085

>  <homo_energy>
-6.452

>  <homo_lumo_gap>
5.385

>  <logP>
2.322

>  <lumo_energy>
-1.067

>  <melting_point>
10.13

>  <molecular_refractivity>
40.3

>  <oscillator_strength_1>
0.0006

>  <oscillator_strength_2>
0.2681

>  <oscillator_strength_3>
0.0007

>  <oscillator_strength_4>
0.0133

>  <open_babel_can_smiles>
CC/C(=C(/C(=O)C)\C)/C

>  <mulliken_charges>
23
1   -0.443403
2   -0.524924
3   -0.515931
4   -0.532507
5   -0.329427
6   0.129515
7   0.026281
8   0.400794
9   -0.453273
10   0.148727
11   0.158946
12   0.148587
13   0.161472
14   0.160402
15   0.162587
16   0.14752
17   0.155233
18   0.189808
19   0.179292
20   0.160147
21   0.175761
22   0.152619
23   0.141774

>  <lowdin_charges>
23
1   -0.441415
2   -0.447076
3   -0.444211
4   -0.47473
5   -0.276605
6   0.007217
7   -0.066787
8   0.156783
9   -0.248734
10   0.152507
11   0.154149
12   0.149529
13   0.159473
14   0.159719
15   0.162026
16   0.152877
17   0.157602
18   0.176257
19   0.175769
20   0.159245
21   0.173555
22   0.154092
23   0.148758

$$$$

