PCCDB-ID:  70523
public computational chemistry database (PCCDB) project, http://pccdb.org

 31 31  0  0  0  0  0  0  0  0999 V2000
    2.3662    1.4728    2.4623 C   0  0  0  0  0  0  0  0  0  0  0  0
    2.6501    1.0100    3.9117 C   0  0  0  0  0  0  0  0  0  0  0  0
    2.4242    0.3264    1.4177 C   0  0  0  0  0  0  0  0  0  0  0  0
    3.2795    2.0546    4.8543 C   0  0  0  0  0  0  0  0  0  0  0  0
    3.7190    0.1825    0.5829 C   0  0  0  0  0  0  0  0  0  0  0  0
    4.7274    2.4665    4.5126 C   0  0  0  0  0  0  0  0  0  0  0  0
    5.0576    0.0313    1.3474 C   0  0  0  0  0  0  0  0  0  0  0  0
    5.7197    1.2759    4.5248 C   0  0  0  0  0  0  0  0  0  0  0  0
    5.7789    1.3873    1.5111 C   0  0  0  0  0  0  0  0  0  0  0  0
    6.9339    1.3873    3.6001 C   0  0  0  0  0  0  0  0  0  0  0  0
    6.9802    1.3883    2.3333 N   0  0  0  0  0  0  0  0  0  0  0  0
    8.1479    1.4480    4.2369 O   0  0  0  0  0  0  0  0  0  0  0  0
    3.0555    2.2724    2.1687 H   0  0  0  0  0  0  0  0  0  0  0  0
    1.3700    1.9326    2.4387 H   0  0  0  0  0  0  0  0  0  0  0  0
    3.2863    0.1177    3.8878 H   0  0  0  0  0  0  0  0  0  0  0  0
    1.7077    0.6663    4.3586 H   0  0  0  0  0  0  0  0  0  0  0  0
    1.6018    0.4520    0.7014 H   0  0  0  0  0  0  0  0  0  0  0  0
    2.2224   -0.6258    1.9294 H   0  0  0  0  0  0  0  0  0  0  0  0
    3.2565    1.6550    5.8784 H   0  0  0  0  0  0  0  0  0  0  0  0
    2.6561    2.9593    4.8688 H   0  0  0  0  0  0  0  0  0  0  0  0
    3.7997    1.0459   -0.0944 H   0  0  0  0  0  0  0  0  0  0  0  0
    3.5795   -0.6874   -0.0720 H   0  0  0  0  0  0  0  0  0  0  0  0
    5.0655    3.2209    5.2337 H   0  0  0  0  0  0  0  0  0  0  0  0
    4.7453    2.9661    3.5415 H   0  0  0  0  0  0  0  0  0  0  0  0
    5.7271   -0.6459    0.8036 H   0  0  0  0  0  0  0  0  0  0  0  0
    4.8834   -0.4430    2.3198 H   0  0  0  0  0  0  0  0  0  0  0  0
    5.1964    0.3633    4.2286 H   0  0  0  0  0  0  0  0  0  0  0  0
    6.0451    1.0951    5.5583 H   0  0  0  0  0  0  0  0  0  0  0  0
    5.0548    2.1351    1.8499 H   0  0  0  0  0  0  0  0  0  0  0  0
    6.0822    1.7112    0.5071 H   0  0  0  0  0  0  0  0  0  0  0  0
    8.0057    1.4179    5.1940 H   0  0  0  0  0  0  0  0  0  0  0  0
  1  2  1  0  0  0  0
  2 16  1  0  0  0  0
  2  4  1  0  0  0  0
  3 18  1  0  0  0  0
  3  1  1  0  0  0  0
  4 20  1  0  0  0  0
  4 19  1  0  0  0  0
  5  7  1  0  0  0  0
  5  3  1  0  0  0  0
  6  8  1  0  0  0  0
  6  4  1  0  0  0  0
  6 23  1  0  0  0  0
  7  9  1  0  0  0  0
  7 26  1  0  0  0  0
  8 28  1  0  0  0  0
  9 29  1  0  0  0  0
  9 11  1  0  0  0  0
 10 12  1  0  0  0  0
 10  8  1  0  0  0  0
 11 10  2  0  0  0  0
 12 31  1  0  0  0  0
 13  1  1  0  0  0  0
 14  1  1  0  0  0  0
 15  2  1  0  0  0  0
 17  3  1  0  0  0  0
 21  5  1  0  0  0  0
 22  5  1  0  0  0  0
 24  6  1  0  0  0  0
 25  7  1  0  0  0  0
 27  8  1  0  0  0  0
 30  9  1  0  0  0  0
M  END
>  <HBA>
2

>  <HBD>
1

>  <TPSA>
29.1

>  <cid>
70523

>  <dipole>
3.89

>  <excitation_energy_1>
5.248

>  <excitation_energy_2>
5.566

>  <excitation_energy_3>
5.751

>  <excitation_energy_4>
6.024

>  <homo_energy>
-6.172

>  <homo_lumo_gap>
6.846

>  <logP>
2.566

>  <lumo_energy>
0.675

>  <melting_point>
41.93

>  <molecular_refractivity>
54.99

>  <oscillator_strength_1>
0.0011

>  <oscillator_strength_2>
0.0059

>  <oscillator_strength_3>
0.0067

>  <oscillator_strength_4>
0.0002

>  <open_babel_can_smiles>
O/C/1=N/CCCCCCCCC1

>  <mulliken_charges>
31
1   -0.258928
2   -0.269151
3   -0.267711
4   -0.266018
5   -0.268245
6   -0.261085
7   -0.264155
8   -0.364035
9   -0.16046
10   0.470046
11   -0.41215
12   -0.579541
13   0.138209
14   0.134825
15   0.136045
16   0.137083
17   0.131899
18   0.132605
19   0.130025
20   0.136757
21   0.133793
22   0.133582
23   0.140955
24   0.160955
25   0.147766
26   0.130151
27   0.174482
28   0.127405
29   0.130342
30   0.146058
31   0.398493

>  <lowdin_charges>
31
1   -0.28704
2   -0.283169
3   -0.277874
4   -0.277151
5   -0.278208
6   -0.27799
7   -0.288676
8   -0.312566
9   -0.209307
10   0.12493
11   -0.214719
12   -0.368012
13   0.141626
14   0.143877
15   0.13793
16   0.146084
17   0.144569
18   0.13917
19   0.140232
20   0.146211
21   0.140875
22   0.145688
23   0.149168
24   0.152031
25   0.151576
26   0.136787
27   0.166159
28   0.143553
29   0.132564
30   0.145287
31   0.346395

$$$$

