PCCDB-ID:  22806
public computational chemistry database (PCCDB) project, http://pccdb.org

 25 27  0  0  0  0  0  0  0  0999 V2000
    3.6889    0.7075    0.0074 C   0  0  0  0  0  0  0  0  0  0  0  0
    3.6921   -0.6928    0.0088 C   0  0  0  0  0  0  0  0  0  0  0  0
   -3.6906    0.6930    0.0052 C   0  0  0  0  0  0  0  0  0  0  0  0
    2.4829    1.4024    0.0081 C   0  0  0  0  0  0  0  0  0  0  0  0
    2.4905   -1.3959    0.0104 C   0  0  0  0  0  0  0  0  0  0  0  0
   -2.4811    1.3864    0.0069 C   0  0  0  0  0  0  0  0  0  0  0  0
   -3.7053   -0.6968    0.0059 C   0  0  0  0  0  0  0  0  0  0  0  0
    1.2707    0.7023    0.0097 C   0  0  0  0  0  0  0  0  0  0  0  0
    1.2734   -0.7042    0.0106 C   0  0  0  0  0  0  0  0  0  0  0  0
   -1.2836    0.6755    0.0089 C   0  0  0  0  0  0  0  0  0  0  0  0
   -2.5108   -1.4403    0.0080 C   0  0  0  0  0  0  0  0  0  0  0  0
   -1.2802   -0.7408    0.0093 C   0  0  0  0  0  0  0  0  0  0  0  0
   -0.0089    1.4595    0.0110 C   0  0  0  0  0  0  0  0  0  0  0  0
    0.0013   -1.4802    0.0105 C   0  0  0  0  0  0  0  0  0  0  0  0
   -0.0235    2.6858    0.0133 O   0  0  0  0  0  0  0  0  0  0  0  0
    0.0211   -2.7109    0.0104 O   0  0  0  0  0  0  0  0  0  0  0  0
   -2.5713   -3.2189    0.0091 S   0  0  0  0  0  0  0  0  0  0  0  0
    4.6287    1.2527    0.0057 H   0  0  0  0  0  0  0  0  0  0  0  0
    4.6347   -1.2332    0.0082 H   0  0  0  0  0  0  0  0  0  0  0  0
   -4.6314    1.2364    0.0029 H   0  0  0  0  0  0  0  0  0  0  0  0
    2.4519    2.4870    0.0081 H   0  0  0  0  0  0  0  0  0  0  0  0
    2.4685   -2.4805    0.0119 H   0  0  0  0  0  0  0  0  0  0  0  0
   -2.4420    2.4699    0.0074 H   0  0  0  0  0  0  0  0  0  0  0  0
   -4.6581   -1.2185    0.0042 H   0  0  0  0  0  0  0  0  0  0  0  0
   -3.9274   -3.2531    0.0100 H   0  0  0  0  0  0  0  0  0  0  0  0
  1  4  2  0  0  0  0
  1  2  1  0  0  0  0
  2  5  2  0  0  0  0
  3  7  2  0  0  0  0
  3  6  1  0  0  0  0
  4  8  1  0  0  0  0
  5  9  1  0  0  0  0
  5 22  1  0  0  0  0
  6 23  1  0  0  0  0
  6 10  2  0  0  0  0
  7 11  1  0  0  0  0
  8  9  2  0  0  0  0
  8 13  1  0  0  0  0
 10 12  1  0  0  0  0
 10 13  1  0  0  0  0
 11 17  1  0  0  0  0
 11 12  2  0  0  0  0
 12 14  1  0  0  0  0
 13 15  2  0  0  0  0
 14  9  1  0  0  0  0
 16 14  2  0  0  0  0
 17 25  1  0  0  0  0
 18  1  1  0  0  0  0
 19  2  1  0  0  0  0
 20  3  1  0  0  0  0
 21  4  1  0  0  0  0
 24  7  1  0  0  0  0
M  END
>  <HBA>
3

>  <HBD>
1

>  <TPSA>
72.94

>  <cid>
22806

>  <dipole>
0.69

>  <excitation_energy_1>
2.841

>  <excitation_energy_2>
2.967

>  <excitation_energy_3>
3.211

>  <excitation_energy_4>
3.686

>  <homo_energy>
-6.302

>  <homo_lumo_gap>
3.456

>  <logP>
2.751

>  <lumo_energy>
-2.846

>  <melting_point>
148.65

>  <molecular_refractivity>
67.0

>  <oscillator_strength_1>
0.088

>  <oscillator_strength_2>
0.0

>  <oscillator_strength_3>
0.0

>  <oscillator_strength_4>
0.0019

>  <open_babel_can_smiles>
Sc1cccc2c1C(=O)c1ccccc1C2=O

>  <mulliken_charges>
25
1   -0.125333
2   -0.124356
3   -0.10958
4   -0.17182
5   -0.172848
6   -0.183982
7   -0.149691
8   0.049732
9   0.058637
10   0.057654
11   -0.123674
12   0.035227
13   0.346091
14   0.344664
15   -0.477816
16   -0.485014
17   0.083669
18   0.146535
19   0.146922
20   0.149574
21   0.169189
22   0.171573
23   0.171554
24   0.142495
25   0.050598

>  <lowdin_charges>
25
1   -0.139056
2   -0.137581
3   -0.132951
4   -0.123883
5   -0.125015
6   -0.133498
7   -0.157381
8   -0.036364
9   -0.031893
10   -0.028409
11   -0.090295
12   -0.053508
13   0.151503
14   0.149884
15   -0.238611
16   -0.227718
17   0.066117
18   0.166239
19   0.166415
20   0.168497
21   0.177976
22   0.178919
23   0.179823
24   0.164752
25   0.086037

$$$$

