PCCDB-ID:  70625
public computational chemistry database (PCCDB) project, http://pccdb.org

 18 18  0  0  0  0  0  0  0  0999 V2000
    0.6141   -0.0680    0.0120 C   0  0  0  0  0  0  0  0  0  0  0  0
    1.0537   -0.0561   -1.4488 C   0  0  0  0  0  0  0  0  0  0  0  0
   -3.3401    0.0938   -2.1624 C   0  0  0  0  0  0  0  0  0  0  0  0
   -2.7793    0.8221   -3.3914 C   0  0  0  0  0  0  0  0  0  0  0  0
   -0.2721   -1.1336    0.3009 O   0  0  0  0  0  0  0  0  0  0  0  0
   -0.0440    0.2612   -2.3202 O   0  0  0  0  0  0  0  0  0  0  0  0
   -2.3085   -0.8091   -1.7167 O   0  0  0  0  0  0  0  0  0  0  0  0
   -1.8647   -0.1111   -3.9982 O   0  0  0  0  0  0  0  0  0  0  0  0
   -1.0488   -0.9567   -2.8367 P   0  0  0  0  0  0  0  0  0  0  0  0
    0.1781    0.9106    0.2666 H   0  0  0  0  0  0  0  0  0  0  0  0
    1.4990   -0.2137    0.6430 H   0  0  0  0  0  0  0  0  0  0  0  0
    1.4800   -1.0340   -1.7104 H   0  0  0  0  0  0  0  0  0  0  0  0
    1.8132    0.7151   -1.6182 H   0  0  0  0  0  0  0  0  0  0  0  0
   -4.2260   -0.4999   -2.4135 H   0  0  0  0  0  0  0  0  0  0  0  0
   -3.5887    0.7827   -1.3496 H   0  0  0  0  0  0  0  0  0  0  0  0
   -2.2377    1.7325   -3.1131 H   0  0  0  0  0  0  0  0  0  0  0  0
   -3.5490    1.0641   -4.1275 H   0  0  0  0  0  0  0  0  0  0  0  0
   -1.1432   -0.9208   -0.0806 H   0  0  0  0  0  0  0  0  0  0  0  0
  1 10  1  0  0  0  0
  1  5  1  0  0  0  0
  1 11  1  0  0  0  0
  2  1  1  0  0  0  0
  3  7  1  0  0  0  0
  3 15  1  0  0  0  0
  4 16  1  0  0  0  0
  4  3  1  0  0  0  0
  6  2  1  0  0  0  0
  8  4  1  0  0  0  0
  8  9  1  0  0  0  0
  9  6  1  0  0  0  0
  9  7  1  0  0  0  0
 12  2  1  0  0  0  0
 13  2  1  0  0  0  0
 14  3  1  0  0  0  0
 17  4  1  0  0  0  0
 18  5  1  0  0  0  0
M  END
>  <HBA>
4

>  <HBD>
1

>  <TPSA>
61.51

>  <cid>
70625

>  <dipole>
2.77

>  <excitation_energy_1>
6.365

>  <excitation_energy_2>
6.47

>  <excitation_energy_3>
6.646

>  <excitation_energy_4>
6.708

>  <homo_energy>
-7.029

>  <homo_lumo_gap>
7.44

>  <logP>
0.269

>  <lumo_energy>
0.411

>  <melting_point>
-15.14

>  <molecular_refractivity>
31.62

>  <oscillator_strength_1>
0.0217

>  <oscillator_strength_2>
0.0871

>  <oscillator_strength_3>
0.0097

>  <oscillator_strength_4>
0.0042

>  <open_babel_can_smiles>
OCCOP1OCCO1

>  <mulliken_charges>
18
1   -0.043081
2   -0.054061
3   -0.045066
4   -0.081656
5   -0.632248
6   -0.570904
7   -0.602531
8   -0.541575
9   0.915242
10   0.128619
11   0.14496
12   0.15562
13   0.147395
14   0.161086
15   0.158372
16   0.170461
17   0.16668
18   0.422685

>  <lowdin_charges>
18
1   -0.147662
2   -0.147676
3   -0.144111
4   -0.150903
5   -0.471635
6   -0.427706
7   -0.436552
8   -0.398387
9   0.761993
10   0.13241
11   0.150567
12   0.150451
13   0.152839
14   0.152322
15   0.157591
16   0.155829
17   0.163706
18   0.346923

$$$$

