PCCDB-ID:  25791
public computational chemistry database (PCCDB) project, http://pccdb.org

 17 17  0  0  0  0  0  0  0  0999 V2000
    0.8892    0.0339   -0.0892 C   0  0  0  0  0  0  0  0  0  0  0  0
    2.7228   -2.4189    0.1091 C   0  0  0  0  0  0  0  0  0  0  0  0
    4.4799   -0.6098    0.0846 C   0  0  0  0  0  0  0  0  0  0  0  0
    2.3799    0.0924   -0.0307 C   0  0  0  0  0  0  0  0  0  0  0  0
    4.3933    0.7600    0.0137 C   0  0  0  0  0  0  0  0  0  0  0  0
    3.1034    1.1920   -0.0575 N   0  0  0  0  0  0  0  0  0  0  0  0
    3.1785   -1.0363    0.0560 N   0  0  0  0  0  0  0  0  0  0  0  0
    5.5210    1.6563    0.0114 N   0  0  0  0  0  0  0  0  0  0  0  0
    6.6382    1.1261    0.0756 O   0  0  0  0  0  0  0  0  0  0  0  0
    5.3104    2.8630   -0.0523 O   0  0  0  0  0  0  0  0  0  0  0  0
    0.5083    1.0550   -0.1460 H   0  0  0  0  0  0  0  0  0  0  0  0
    0.4608   -0.4473    0.7991 H   0  0  0  0  0  0  0  0  0  0  0  0
    0.5341   -0.5178   -0.9689 H   0  0  0  0  0  0  0  0  0  0  0  0
    3.5921   -3.0765    0.1549 H   0  0  0  0  0  0  0  0  0  0  0  0
    2.1397   -2.6660   -0.7832 H   0  0  0  0  0  0  0  0  0  0  0  0
    2.1049   -2.5875    0.9964 H   0  0  0  0  0  0  0  0  0  0  0  0
    5.3241   -1.2767    0.1510 H   0  0  0  0  0  0  0  0  0  0  0  0
  1  4  1  0  0  0  0
  1 12  1  0  0  0  0
  2 14  1  0  0  0  0
  2 16  1  0  0  0  0
  3 17  1  0  0  0  0
  4  7  1  0  0  0  0
  5  3  2  0  0  0  0
  6  4  2  0  0  0  0
  6  5  1  0  0  0  0
  7  3  1  0  0  0  0
  7  2  1  0  0  0  0
  8  5  1  0  0  0  0
  8  9  2  0  0  0  0
 10  8  2  0  0  0  0
 11  1  1  0  0  0  0
 13  1  1  0  0  0  0
 15  2  1  0  0  0  0
M  END
>  <HBA>
2

>  <HBD>
0

>  <TPSA>
63.64

>  <cid>
25791

>  <dipole>
8.32

>  <excitation_energy_1>
3.823

>  <excitation_energy_2>
4.337

>  <excitation_energy_3>
4.352

>  <excitation_energy_4>
5.048

>  <homo_energy>
-6.806

>  <homo_lumo_gap>
5.026

>  <logP>
1.16

>  <lumo_energy>
-1.78

>  <melting_point>
65.62

>  <molecular_refractivity>
37.28

>  <oscillator_strength_1>
0.0

>  <oscillator_strength_2>
0.1519

>  <oscillator_strength_3>
0.001

>  <oscillator_strength_4>
0.0006

>  <open_babel_can_smiles>
O=N(=O)c1cn(c(n1)C)C

>  <mulliken_charges>
17
1   -0.536255
2   -0.328756
3   0.046902
4   0.491741
5   0.386419
6   -0.475407
7   -0.425141
8   0.347107
9   -0.421681
10   -0.385726
11   0.205817
12   0.169414
13   0.169929
14   0.188045
15   0.187395
16   0.187629
17   0.192567

>  <lowdin_charges>
17
1   -0.447345
2   -0.346435
3   -0.133648
4   0.061165
5   -0.005183
6   -0.161033
7   -0.003204
8   0.305178
9   -0.27526
10   -0.227521
11   0.189822
12   0.166579
13   0.166757
14   0.177146
15   0.170307
16   0.17001
17   0.192665

$$$$

