PCCDB-ID:  7487
public computational chemistry database (PCCDB) project, http://pccdb.org

 19 19  0  0  0  0  0  0  0  0999 V2000
    3.1599    1.1358   -0.2086 C   0  0  0  0  0  0  0  0  0  0  0  0
    2.5630   -2.6882   -0.0580 C   0  0  0  0  0  0  0  0  0  0  0  0
    4.4995   -1.4714   -0.8596 C   0  0  0  0  0  0  0  0  0  0  0  0
    3.1841   -3.8944   -0.3565 C   0  0  0  0  0  0  0  0  0  0  0  0
    5.1362   -2.6719   -1.1643 C   0  0  0  0  0  0  0  0  0  0  0  0
    2.4787   -0.1969    0.0426 C   0  0  0  0  0  0  0  0  0  0  0  0
    3.2107   -1.4671   -0.3049 C   0  0  0  0  0  0  0  0  0  0  0  0
    4.4656   -3.8647   -0.9066 C   0  0  0  0  0  0  0  0  0  0  0  0
    5.1347   -5.1396   -1.2270 N   0  0  0  0  0  0  0  0  0  0  0  0
    1.3565   -0.2498    0.5176 O   0  0  0  0  0  0  0  0  0  0  0  0
    4.5218   -6.1792   -0.9905 O   0  0  0  0  0  0  0  0  0  0  0  0
    6.2645   -5.0843   -1.7109 O   0  0  0  0  0  0  0  0  0  0  0  0
    4.1043    1.2077    0.3441 H   0  0  0  0  0  0  0  0  0  0  0  0
    2.4913    1.9356    0.1133 H   0  0  0  0  0  0  0  0  0  0  0  0
    3.3924    1.2651   -1.2726 H   0  0  0  0  0  0  0  0  0  0  0  0
    1.5672   -2.6649    0.3712 H   0  0  0  0  0  0  0  0  0  0  0  0
    5.0165   -0.5388   -1.0590 H   0  0  0  0  0  0  0  0  0  0  0  0
    2.7020   -4.8469   -0.1748 H   0  0  0  0  0  0  0  0  0  0  0  0
    6.1308   -2.6985   -1.5916 H   0  0  0  0  0  0  0  0  0  0  0  0
  1  6  1  0  0  0  0
  1 14  1  0  0  0  0
  1 13  1  0  0  0  0
  2 16  1  0  0  0  0
  3  7  2  0  0  0  0
  4 18  1  0  0  0  0
  4  2  2  0  0  0  0
  5  8  2  0  0  0  0
  5  3  1  0  0  0  0
  6 10  2  0  0  0  0
  7  2  1  0  0  0  0
  7  6  1  0  0  0  0
  8  4  1  0  0  0  0
  9 11  2  0  0  0  0
  9  8  1  0  0  0  0
 12  9  2  0  0  0  0
 15  1  1  0  0  0  0
 17  3  1  0  0  0  0
 19  5  1  0  0  0  0
M  END
>  <HBA>
1

>  <HBD>
0

>  <TPSA>
62.89

>  <cid>
7487

>  <dipole>
3.65

>  <excitation_energy_1>
3.303

>  <excitation_energy_2>
3.654

>  <excitation_energy_3>
4.109

>  <excitation_energy_4>
4.157

>  <homo_energy>
-7.323

>  <homo_lumo_gap>
4.387

>  <logP>
2.321

>  <lumo_energy>
-2.936

>  <melting_point>
78.01

>  <molecular_refractivity>
45.46

>  <oscillator_strength_1>
0.0

>  <oscillator_strength_2>
0.0

>  <oscillator_strength_3>
0.0239

>  <oscillator_strength_4>
0.0003

>  <open_babel_can_smiles>
CC(=O)c1ccc(cc1)N(=O)=O

>  <mulliken_charges>
19
1   -0.546207
2   -0.173465
3   -0.194575
4   -0.148792
5   -0.152646
6   0.41659
7   0.092116
8   0.281312
9   0.383557
10   -0.437724
11   -0.386949
12   -0.390141
13   0.176364
14   0.190156
15   0.177011
16   0.18204
17   0.152496
18   0.190296
19   0.188561

>  <lowdin_charges>
19
1   -0.473231
2   -0.119783
3   -0.144701
4   -0.136022
5   -0.136397
6   0.16124
7   -0.03071
8   0.014575
9   0.306659
10   -0.225143
11   -0.238878
12   -0.240266
13   0.172902
14   0.180814
15   0.172146
16   0.185134
17   0.171073
18   0.19115
19   0.189437

$$$$

