PCCDB-ID:  68973
public computational chemistry database (PCCDB) project, http://pccdb.org

  7  6  0  0  0  0  0  0  0  0999 V2000
    0.9538   -0.0413   -0.0389 C   0  0  0  0  0  0  0  0  0  0  0  0
    2.8226    0.1118   -0.0911 P   0  0  0  0  0  0  0  0  0  0  0  0
    0.6022   -1.0206    0.2953 H   0  0  0  0  0  0  0  0  0  0  0  0
    0.5551    0.1554   -1.0389 H   0  0  0  0  0  0  0  0  0  0  0  0
    0.5551    0.7256    0.6324 H   0  0  0  0  0  0  0  0  0  0  0  0
    3.0903   -1.1145   -0.7677 H   0  0  0  0  0  0  0  0  0  0  0  0
    3.0903   -0.4452    1.1939 H   0  0  0  0  0  0  0  0  0  0  0  0
  1  3  1  0  0  0  0
  1  5  1  0  0  0  0
  2  1  1  0  0  0  0
  2  7  1  0  0  0  0
  4  1  1  0  0  0  0
  6  2  1  0  0  0  0
M  END
>  <HBA>
0

>  <HBD>
1

>  <TPSA>
13.59

>  <cid>
68973

>  <dipole>
1.32

>  <excitation_energy_1>
5.789

>  <excitation_energy_2>
6.373

>  <excitation_energy_3>
7.154

>  <excitation_energy_4>
7.402

>  <homo_energy>
-6.836

>  <homo_lumo_gap>
7.758

>  <logP>
0.491

>  <lumo_energy>
0.922

>  <melting_point>
-11.95

>  <molecular_refractivity>
15.57

>  <oscillator_strength_1>
0.0674

>  <oscillator_strength_2>
0.1109

>  <oscillator_strength_3>
0.0

>  <oscillator_strength_4>
0.0685

>  <open_babel_can_smiles>
CP

>  <mulliken_charges>
7
1   -0.616461
2   0.071577
3   0.176669
4   0.175145
5   0.175135
6   0.00895
7   0.008985

>  <lowdin_charges>
7
1   -0.608048
2   0.041277
3   0.164526
4   0.170092
5   0.171619
6   0.030493
7   0.030041

$$$$

