PCCDB-ID:  65396
public computational chemistry database (PCCDB) project, http://pccdb.org

 39 38  0  0  1  0  0  0  0  0999 V2000
   -2.8200   -6.7643    6.3000 C   0  0  0  0  0  0  0  0  0  0  0  0
   -1.4421   -6.7360    5.6205 C   0  0  0  0  0  0  0  0  0  0  0  0
   -3.2096   -8.1274    6.8977 C   0  0  0  0  0  0  0  0  0  0  0  0
   -3.2205   -3.1968    1.8071 C   0  0  0  0  0  0  0  0  0  0  0  0
   -2.5416   -1.8331    1.9538 C   0  0  0  0  0  0  0  0  0  0  0  0
   -1.0513   -5.3937    4.9698 C   0  0  0  0  0  0  0  0  0  0  0  0
   -2.9581   -3.9683    4.2601 C   0  0  0  0  0  0  0  0  0  0  0  0
   -3.8994   -3.7142    3.0813 C   0  0  2  0  0  0  0  0  0  0  0  0
   -2.3527   -8.6558    8.0739 C   0  0  1  0  0  0  0  0  0  0  0  0
   -2.4431   -7.6892    9.2699 C   0  0  0  0  0  0  0  0  0  0  0  0
   -2.1147   -1.3407    0.6366 N   0  0  0  0  0  0  0  0  0  0  0  0
   -2.8048  -10.0020    8.4150 N   0  0  0  0  0  0  0  0  0  0  0  0
   -1.9220   -4.9276    3.8899 N   0  0  0  0  0  0  0  0  0  0  0  0
   -4.5399   -4.9764    2.8374 O   0  0  0  0  0  0  0  0  0  0  0  0
   -3.2513   -7.8107   10.1577 O   0  0  0  0  0  0  0  0  0  0  0  0
   -1.5712   -6.6431    9.2811 O   0  0  0  0  0  0  0  0  0  0  0  0
   -3.5807   -6.5044    5.5548 H   0  0  0  0  0  0  0  0  0  0  0  0
   -2.8721   -5.9821    7.0696 H   0  0  0  0  0  0  0  0  0  0  0  0
   -1.4068   -7.5239    4.8528 H   0  0  0  0  0  0  0  0  0  0  0  0
   -0.6447   -6.9991    6.3354 H   0  0  0  0  0  0  0  0  0  0  0  0
   -3.1747   -8.9019    6.1224 H   0  0  0  0  0  0  0  0  0  0  0  0
   -4.2500   -8.0796    7.2464 H   0  0  0  0  0  0  0  0  0  0  0  0
   -2.4861   -3.9405    1.4758 H   0  0  0  0  0  0  0  0  0  0  0  0
   -3.9776   -3.1073    1.0145 H   0  0  0  0  0  0  0  0  0  0  0  0
   -1.7189   -1.9134    2.6848 H   0  0  0  0  0  0  0  0  0  0  0  0
   -3.2589   -1.1071    2.3603 H   0  0  0  0  0  0  0  0  0  0  0  0
   -0.0266   -5.4983    4.5831 H   0  0  0  0  0  0  0  0  0  0  0  0
   -1.0084   -4.6092    5.7372 H   0  0  0  0  0  0  0  0  0  0  0  0
   -2.4813   -3.0236    4.5511 H   0  0  0  0  0  0  0  0  0  0  0  0
   -3.5821   -4.2854    5.1138 H   0  0  0  0  0  0  0  0  0  0  0  0
   -4.6516   -2.9777    3.4114 H   0  0  0  0  0  0  0  0  0  0  0  0
   -1.3051   -8.7316    7.7520 H   0  0  0  0  0  0  0  0  0  0  0  0
   -1.3830   -1.9519    0.2736 H   0  0  0  0  0  0  0  0  0  0  0  0
   -1.6810   -0.4242    0.7400 H   0  0  0  0  0  0  0  0  0  0  0  0
   -3.7219   -9.9171    8.8558 H   0  0  0  0  0  0  0  0  0  0  0  0
   -2.2019  -10.3848    9.1432 H   0  0  0  0  0  0  0  0  0  0  0  0
   -2.3663   -5.7132    3.4192 H   0  0  0  0  0  0  0  0  0  0  0  0
   -5.0598   -4.8925    2.0232 H   0  0  0  0  0  0  0  0  0  0  0  0
   -0.9831   -6.6978    8.5093 H   0  0  0  0  0  0  0  0  0  0  0  0
  1  3  1  0  0  0  0
  1 18  1  0  0  0  0
  2  1  1  0  0  0  0
  2 20  1  0  0  0  0
  3 22  1  0  0  0  0
  3  9  1  0  0  0  0
  4  5  1  0  0  0  0
  4  8  1  0  0  0  0
  5 26  1  0  0  0  0
  5 25  1  0  0  0  0
  6  2  1  0  0  0  0
  6 28  1  0  0  0  0
  7 29  1  0  0  0  0
  7 30  1  0  0  0  0
  8 31  1  1  0  0  0
  8  7  1  0  0  0  0
  9 32  1  6  0  0  0
  9 12  1  0  0  0  0
  9 10  1  0  0  0  0
 10 16  1  0  0  0  0
 10 15  2  0  0  0  0
 11 34  1  0  0  0  0
 11  5  1  0  0  0  0
 12 35  1  0  0  0  0
 12 36  1  0  0  0  0
 13  7  1  0  0  0  0
 13  6  1  0  0  0  0
 14  8  1  0  0  0  0
 17  1  1  0  0  0  0
 19  2  1  0  0  0  0
 21  3  1  0  0  0  0
 23  4  1  0  0  0  0
 24  4  1  0  0  0  0
 27  6  1  0  0  0  0
 33 11  1  0  0  0  0
 37 13  1  0  0  0  0
 38 14  1  0  0  0  0
 39 16  1  0  0  0  0
M  END
>  <HBA>
6

>  <HBD>
5

>  <TPSA>
121.6

>  <cid>
65396

>  <dipole>
3.52

>  <excitation_energy_1>
5.031

>  <excitation_energy_2>
5.298

>  <excitation_energy_3>
5.345

>  <excitation_energy_4>
5.488

>  <homo_energy>
-5.842

>  <homo_lumo_gap>
6.011

>  <logP>
0.659

>  <lumo_energy>
0.169

>  <melting_point>
202.23

>  <molecular_refractivity>
61.33

>  <oscillator_strength_1>
0.0244

>  <oscillator_strength_2>
0.0011

>  <oscillator_strength_3>
0.0011

>  <oscillator_strength_4>
0.0101

>  <open_babel_can_smiles>
NCC[C@H](CNCCCC[C@@H](C(=O)O)N)O

>  <mulliken_charges>
39
1   -0.294244
2   -0.28042
3   -0.25267
4   -0.270576
5   -0.147204
6   -0.11593
7   -0.119785
8   0.117439
9   -0.102468
10   0.578209
11   -0.717548
12   -0.693272
13   -0.57176
14   -0.642568
15   -0.448519
16   -0.568512
17   0.167292
18   0.144361
19   0.141954
20   0.102227
21   0.16204
22   0.149792
23   0.150145
24   0.133805
25   0.130402
26   0.135335
27   0.136331
28   0.132812
29   0.138824
30   0.129283
31   0.115059
32   0.135779
33   0.294097
34   0.29561
35   0.312343
36   0.302343
37   0.311907
38   0.393269
39   0.414822

>  <lowdin_charges>
39
1   -0.295639
2   -0.293644
3   -0.273964
4   -0.300322
5   -0.207666
6   -0.200924
7   -0.211145
8   -0.006337
9   -0.112762
10   0.174994
11   -0.558567
12   -0.530994
13   -0.371501
14   -0.474645
15   -0.245643
16   -0.356396
17   0.162024
18   0.14442
19   0.144749
20   0.125295
21   0.159757
22   0.152442
23   0.152397
24   0.144554
25   0.126245
26   0.140151
27   0.138725
28   0.141601
29   0.142048
30   0.128737
31   0.129279
32   0.141765
33   0.253408
34   0.254186
35   0.263392
36   0.259937
37   0.259838
38   0.344523
39   0.35568

$$$$

