PCCDB-ID:  42153
public computational chemistry database (PCCDB) project, http://pccdb.org

 32 33  0  0  0  0  0  0  0  0999 V2000
    4.2927   -3.7881   -1.9642 C   0  0  0  0  0  0  0  0  0  0  0  0
    2.0207   -2.1483   -5.0656 C   0  0  0  0  0  0  0  0  0  0  0  0
   -4.1373   -0.2305   -0.2826 C   0  0  0  0  0  0  0  0  0  0  0  0
   -3.3920    0.9653   -0.4252 C   0  0  0  0  0  0  0  0  0  0  0  0
   -3.5088   -1.4534   -0.3636 C   0  0  0  0  0  0  0  0  0  0  0  0
   -2.0334    0.9162   -0.6462 C   0  0  0  0  0  0  0  0  0  0  0  0
   -0.0679   -2.8258   -0.9029 C   0  0  0  0  0  0  0  0  0  0  0  0
   -1.4232   -2.7796   -0.6815 C   0  0  0  0  0  0  0  0  0  0  0  0
    0.0455   -0.4156   -0.9629 C   0  0  0  0  0  0  0  0  0  0  0  0
    2.1883   -1.7194   -1.2906 C   0  0  0  0  0  0  0  0  0  0  0  0
    0.6954   -1.6311   -1.0462 C   0  0  0  0  0  0  0  0  0  0  0  0
   -2.1098   -1.5376   -0.5910 C   0  0  0  0  0  0  0  0  0  0  0  0
   -1.3556   -0.3289   -0.7357 C   0  0  0  0  0  0  0  0  0  0  0  0
    2.5620   -2.2826   -2.6707 C   0  0  0  0  0  0  0  0  0  0  0  0
    3.4432   -3.1686   -2.9534 N   0  0  0  0  0  0  0  0  0  0  0  0
    1.8843   -1.6627   -3.7039 N   0  0  0  0  0  0  0  0  0  0  0  0
    4.2911   -4.8747   -2.1201 H   0  0  0  0  0  0  0  0  0  0  0  0
    4.0313   -3.6064   -0.9092 H   0  0  0  0  0  0  0  0  0  0  0  0
    5.3308   -3.4549   -2.1045 H   0  0  0  0  0  0  0  0  0  0  0  0
    1.4422   -1.4983   -5.7284 H   0  0  0  0  0  0  0  0  0  0  0  0
    1.6771   -3.1862   -5.1825 H   0  0  0  0  0  0  0  0  0  0  0  0
    3.0724   -2.1181   -5.3608 H   0  0  0  0  0  0  0  0  0  0  0  0
   -5.2087   -0.1786   -0.1089 H   0  0  0  0  0  0  0  0  0  0  0  0
   -3.8981    1.9246   -0.3590 H   0  0  0  0  0  0  0  0  0  0  0  0
   -4.0776   -2.3739   -0.2547 H   0  0  0  0  0  0  0  0  0  0  0  0
   -1.4598    1.8337   -0.7557 H   0  0  0  0  0  0  0  0  0  0  0  0
    0.4388   -3.7854   -0.9734 H   0  0  0  0  0  0  0  0  0  0  0  0
   -1.9910   -3.7007   -0.5717 H   0  0  0  0  0  0  0  0  0  0  0  0
    0.6126    0.5083   -1.0627 H   0  0  0  0  0  0  0  0  0  0  0  0
    2.6444   -2.3391   -0.5143 H   0  0  0  0  0  0  0  0  0  0  0  0
    2.6340   -0.7212   -1.2004 H   0  0  0  0  0  0  0  0  0  0  0  0
    0.9841   -1.2751   -3.4553 H   0  0  0  0  0  0  0  0  0  0  0  0
  1 18  1  0  0  0  0
  2 16  1  0  0  0  0
  3 23  1  0  0  0  0
  4 24  1  0  0  0  0
  4  3  2  0  0  0  0
  5  3  1  0  0  0  0
  5 25  1  0  0  0  0
  6  4  1  0  0  0  0
  7  8  2  0  0  0  0
  8 12  1  0  0  0  0
  8 28  1  0  0  0  0
  9 13  1  0  0  0  0
 10 31  1  0  0  0  0
 10 11  1  0  0  0  0
 10 30  1  0  0  0  0
 11  9  2  0  0  0  0
 11  7  1  0  0  0  0
 12  5  2  0  0  0  0
 13  6  2  0  0  0  0
 13 12  1  0  0  0  0
 14 10  1  0  0  0  0
 15 14  2  0  0  0  0
 15  1  1  0  0  0  0
 16 32  1  0  0  0  0
 16 14  1  0  0  0  0
 17  1  1  0  0  0  0
 19  1  1  0  0  0  0
 20  2  1  0  0  0  0
 21  2  1  0  0  0  0
 22  2  1  0  0  0  0
 26  6  1  0  0  0  0
 27  7  1  0  0  0  0
 29  9  1  0  0  0  0
M  END
>  <HBA>
2

>  <HBD>
1

>  <TPSA>
24.39

>  <cid>
42153

>  <dipole>
2.19

>  <excitation_energy_1>
3.971

>  <excitation_energy_2>
4.202

>  <excitation_energy_3>
4.4

>  <excitation_energy_4>
4.627

>  <homo_energy>
-5.652

>  <homo_lumo_gap>
4.531

>  <logP>
3.021

>  <lumo_energy>
-1.121

>  <melting_point>
95.54

>  <molecular_refractivity>
69.82

>  <oscillator_strength_1>
0.004

>  <oscillator_strength_2>
0.0268

>  <oscillator_strength_3>
0.0211

>  <oscillator_strength_4>
0.01

>  <open_babel_can_smiles>
CN/C(=N/C)/Cc1ccc2c(c1)cccc2

>  <mulliken_charges>
32
1   -0.315568
2   -0.284107
3   -0.134772
4   -0.136291
5   -0.19148
6   -0.190758
7   -0.175202
8   -0.19061
9   -0.281279
10   -0.425297
11   0.146404
12   0.133591
13   0.145827
14   0.502065
15   -0.482012
16   -0.584785
17   0.149796
18   0.116518
19   0.148815
20   0.13786
21   0.150257
22   0.175459
23   0.131692
24   0.131837
25   0.131396
26   0.130791
27   0.137493
28   0.133455
29   0.129358
30   0.166194
31   0.169269
32   0.324088

>  <lowdin_charges>
32
1   -0.35162
2   -0.347701
3   -0.155896
4   -0.156734
5   -0.156267
6   -0.158388
7   -0.164901
8   -0.152179
9   -0.178792
10   -0.297061
11   -0.010915
12   -0.002621
13   0.0003
14   0.084598
15   -0.249006
16   -0.294655
17   0.14594
18   0.120346
19   0.146107
20   0.149553
21   0.142853
22   0.162908
23   0.157636
24   0.159506
25   0.158703
26   0.15843
27   0.162048
28   0.159855
29   0.157039
30   0.167546
31   0.166647
32   0.276722

$$$$

