PCCDB-ID:  27347
public computational chemistry database (PCCDB) project, http://pccdb.org

 39 39  0  0  0  0  0  0  0  0999 V2000
    2.7564   -0.7792   -0.6489 C   0  0  0  0  0  0  0  0  0  0  0  0
    1.4393    3.0253    0.7633 C   0  0  0  0  0  0  0  0  0  0  0  0
    2.8101    0.2018    0.5237 C   0  0  0  0  0  0  0  0  0  0  0  0
    2.8734    2.5790    1.0529 C   0  0  0  0  0  0  0  0  0  0  0  0
   11.6951    4.1379   -2.9087 C   0  0  0  0  0  0  0  0  0  0  0  0
   11.0208    3.2803   -2.0617 C   0  0  0  0  0  0  0  0  0  0  0  0
   11.1219    5.0984   -3.7688 C   0  0  0  0  0  0  0  0  0  0  0  0
    5.3172    2.5578   -0.9655 C   0  0  0  0  0  0  0  0  0  0  0  0
    9.6406    3.1334   -1.8313 C   0  0  0  0  0  0  0  0  0  0  0  0
    9.8022    5.4227   -3.9860 C   0  0  0  0  0  0  0  0  0  0  0  0
    6.8428    2.5411   -1.0855 C   0  0  0  0  0  0  0  0  0  0  0  0
    4.8017    1.5095    0.0275 C   0  0  0  0  0  0  0  0  0  0  0  0
    8.5597    3.8103   -2.3927 C   0  0  0  0  0  0  0  0  0  0  0  0
    8.5841    4.9044   -3.4227 C   0  0  0  0  0  0  0  0  0  0  0  0
    7.2878    3.5329   -2.0420 N   0  0  0  0  0  0  0  0  0  0  0  0
    3.3408    1.5193    0.1480 N   0  0  0  0  0  0  0  0  0  0  0  0
    7.4780    5.3580   -3.7774 O   0  0  0  0  0  0  0  0  0  0  0  0
    2.3174   -1.7312   -0.3284 H   0  0  0  0  0  0  0  0  0  0  0  0
    3.7504   -0.9981   -1.0549 H   0  0  0  0  0  0  0  0  0  0  0  0
    2.1463   -0.3679   -1.4594 H   0  0  0  0  0  0  0  0  0  0  0  0
    1.1520    3.8410    1.4369 H   0  0  0  0  0  0  0  0  0  0  0  0
    0.7161    2.2145    0.9033 H   0  0  0  0  0  0  0  0  0  0  0  0
    1.3527    3.3779   -0.2694 H   0  0  0  0  0  0  0  0  0  0  0  0
    3.3836   -0.2377    1.3637 H   0  0  0  0  0  0  0  0  0  0  0  0
    1.7911    0.3457    0.8958 H   0  0  0  0  0  0  0  0  0  0  0  0
    2.9708    2.2714    2.1129 H   0  0  0  0  0  0  0  0  0  0  0  0
    3.5330    3.4441    0.9275 H   0  0  0  0  0  0  0  0  0  0  0  0
   12.7798    4.0686   -2.9162 H   0  0  0  0  0  0  0  0  0  0  0  0
   11.6446    2.6080   -1.4746 H   0  0  0  0  0  0  0  0  0  0  0  0
   11.8360    5.6762   -4.3544 H   0  0  0  0  0  0  0  0  0  0  0  0
    4.8644    2.3638   -1.9453 H   0  0  0  0  0  0  0  0  0  0  0  0
    4.9990    3.5633   -0.6621 H   0  0  0  0  0  0  0  0  0  0  0  0
    9.3839    2.3700   -1.1015 H   0  0  0  0  0  0  0  0  0  0  0  0
    9.5988    6.2100   -4.7078 H   0  0  0  0  0  0  0  0  0  0  0  0
    7.1864    1.5411   -1.3945 H   0  0  0  0  0  0  0  0  0  0  0  0
    7.2996    2.7393   -0.1033 H   0  0  0  0  0  0  0  0  0  0  0  0
    5.2903    1.6471    1.0130 H   0  0  0  0  0  0  0  0  0  0  0  0
    5.1103    0.5208   -0.3287 H   0  0  0  0  0  0  0  0  0  0  0  0
    6.6160    4.1091   -2.5487 H   0  0  0  0  0  0  0  0  0  0  0  0
  1 18  1  0  0  0  0
  1  3  1  0  0  0  0
  2 22  1  0  0  0  0
  2  4  1  0  0  0  0
  2 21  1  0  0  0  0
  3 25  1  0  0  0  0
  3 24  1  0  0  0  0
  4 26  1  0  0  0  0
  5  6  2  0  0  0  0
  6  9  1  0  0  0  0
  6 29  1  0  0  0  0
  7  5  1  0  0  0  0
  8 32  1  0  0  0  0
  8 12  1  0  0  0  0
  9 33  1  0  0  0  0
 10  7  2  0  0  0  0
 10 14  1  0  0  0  0
 11  8  1  0  0  0  0
 11 36  1  0  0  0  0
 12 16  1  0  0  0  0
 12 37  1  0  0  0  0
 13 15  1  0  0  0  0
 13  9  2  0  0  0  0
 14 13  1  0  0  0  0
 15 11  1  0  0  0  0
 16  3  1  0  0  0  0
 16  4  1  0  0  0  0
 17 14  2  0  0  0  0
 19  1  1  0  0  0  0
 20  1  1  0  0  0  0
 23  2  1  0  0  0  0
 27  4  1  0  0  0  0
 28  5  1  0  0  0  0
 30  7  1  0  0  0  0
 31  8  1  0  0  0  0
 34 10  1  0  0  0  0
 35 11  1  0  0  0  0
 38 12  1  0  0  0  0
 39 15  1  0  0  0  0
M  END
>  <HBA>
3

>  <HBD>
1

>  <TPSA>
32.34

>  <cid>
27347

>  <dipole>
3.9

>  <excitation_energy_1>
3.627

>  <excitation_energy_2>
3.931

>  <excitation_energy_3>
4.017

>  <excitation_energy_4>
4.096

>  <homo_energy>
-5.276

>  <homo_lumo_gap>
3.954

>  <logP>
2.264

>  <lumo_energy>
-1.322

>  <melting_point>
71.96

>  <molecular_refractivity>
73.76

>  <oscillator_strength_1>
0.1865

>  <oscillator_strength_2>
0.1432

>  <oscillator_strength_3>
0.0006

>  <oscillator_strength_4>
0.0

>  <open_babel_can_smiles>
CCN(CCCNc1cccccc1=O)CC

>  <mulliken_charges>
39
1   -0.441332
2   -0.441088
3   -0.123513
4   -0.124783
5   -0.142234
6   -0.109144
7   -0.110792
8   -0.295076
9   -0.237239
10   -0.20632
11   -0.095445
12   -0.12775
13   0.323462
14   0.408676
15   -0.636467
16   -0.377141
17   -0.566391
18   0.14124
19   0.144196
20   0.156961
21   0.14148
22   0.147051
23   0.156667
24   0.112818
25   0.140947
26   0.114437
27   0.138191
28   0.130376
29   0.133044
30   0.137896
31   0.161174
32   0.152772
33   0.13341
34   0.144848
35   0.149837
36   0.150907
37   0.114435
38   0.139359
39   0.360532

>  <lowdin_charges>
39
1   -0.449747
2   -0.449744
3   -0.197891
4   -0.196621
5   -0.191074
6   -0.12502
7   -0.125791
8   -0.283971
9   -0.221866
10   -0.197285
11   -0.19373
12   -0.198698
13   0.055635
14   0.120535
15   -0.236127
16   -0.19151
17   -0.330148
18   0.151216
19   0.145828
20   0.156461
21   0.152217
22   0.148572
23   0.154453
24   0.119522
25   0.14591
26   0.117703
27   0.144744
28   0.157353
29   0.16262
30   0.164403
31   0.155101
32   0.148302
33   0.162379
34   0.171914
35   0.142637
36   0.143691
37   0.120011
38   0.145556
39   0.30246

$$$$

