PCCDB-ID:  15360
public computational chemistry database (PCCDB) project, http://pccdb.org

 19 18  0  0  0  0  0  0  0  0999 V2000
    3.1393    1.7742    0.4025 C   0  0  0  0  0  0  0  0  0  0  0  0
    6.0418   -1.2681    1.1014 C   0  0  0  0  0  0  0  0  0  0  0  0
    3.8343    0.5648   -0.2487 C   0  0  0  0  0  0  0  0  0  0  0  0
    3.6306   -0.7028    0.5369 C   0  0  0  0  0  0  0  0  0  0  0  0
    4.1045   -2.7148    1.8892 C   0  0  0  0  0  0  0  0  0  0  0  0
    4.5488   -1.4837    1.1284 C   0  0  0  0  0  0  0  0  0  0  0  0
    4.6388   -3.9247    1.3430 O   0  0  0  0  0  0  0  0  0  0  0  0
    3.2619    2.6748   -0.2098 H   0  0  0  0  0  0  0  0  0  0  0  0
    3.5552    1.9771    1.3956 H   0  0  0  0  0  0  0  0  0  0  0  0
    2.0641    1.5952    0.5233 H   0  0  0  0  0  0  0  0  0  0  0  0
    6.3497   -0.4604    0.4336 H   0  0  0  0  0  0  0  0  0  0  0  0
    6.5459   -2.1895    0.7890 H   0  0  0  0  0  0  0  0  0  0  0  0
    6.4154   -1.0348    2.1086 H   0  0  0  0  0  0  0  0  0  0  0  0
    4.8995    0.7833   -0.3780 H   0  0  0  0  0  0  0  0  0  0  0  0
    3.4228    0.4272   -1.2601 H   0  0  0  0  0  0  0  0  0  0  0  0
    2.5833   -0.9958    0.6469 H   0  0  0  0  0  0  0  0  0  0  0  0
    3.0054   -2.7550    1.9389 H   0  0  0  0  0  0  0  0  0  0  0  0
    4.4809   -2.6883    2.9194 H   0  0  0  0  0  0  0  0  0  0  0  0
    4.3348   -3.9715    0.4224 H   0  0  0  0  0  0  0  0  0  0  0  0
  1 10  1  0  0  0  0
  1  9  1  0  0  0  0
  2  6  1  0  0  0  0
  2 13  1  0  0  0  0
  3  1  1  0  0  0  0
  3  4  1  0  0  0  0
  4 16  1  0  0  0  0
  4  6  2  0  0  0  0
  5 17  1  0  0  0  0
  5 18  1  0  0  0  0
  6  5  1  0  0  0  0
  7  5  1  0  0  0  0
  8  1  1  0  0  0  0
 11  2  1  0  0  0  0
 12  2  1  0  0  0  0
 14  3  1  0  0  0  0
 15  3  1  0  0  0  0
 19  7  1  0  0  0  0
M  END
>  <HBA>
1

>  <HBD>
1

>  <TPSA>
20.23

>  <cid>
15360

>  <dipole>
1.74

>  <excitation_energy_1>
5.939

>  <excitation_energy_2>
6.435

>  <excitation_energy_3>
6.451

>  <excitation_energy_4>
6.548

>  <homo_energy>
-6.506

>  <homo_lumo_gap>
7.034

>  <logP>
1.335

>  <lumo_energy>
0.528

>  <melting_point>
5.27

>  <molecular_refractivity>
31.64

>  <oscillator_strength_1>
0.0803

>  <oscillator_strength_2>
0.0364

>  <oscillator_strength_3>
0.0606

>  <oscillator_strength_4>
0.0148

>  <open_babel_can_smiles>
CC/C=C(/CO)\C

>  <mulliken_charges>
19
1   -0.43867
2   -0.513324
3   -0.294365
4   -0.160039
5   -0.092915
6   0.143763
7   -0.610403
8   0.14409
9   0.150792
10   0.144131
11   0.151166
12   0.169657
13   0.153563
14   0.142089
15   0.142543
16   0.112789
17   0.124707
18   0.145953
19   0.384473

>  <lowdin_charges>
19
1   -0.439143
2   -0.447863
3   -0.270248
4   -0.180271
5   -0.128925
6   -0.038511
7   -0.468274
8   0.150174
9   0.150441
10   0.145975
11   0.154991
12   0.165329
13   0.15678
14   0.14571
15   0.147759
16   0.143048
17   0.128016
18   0.146624
19   0.338388

$$$$

