PCCDB-ID:  11269
public computational chemistry database (PCCDB) project, http://pccdb.org

 26 25  0  0  0  0  0  0  0  0999 V2000
    2.2181   -1.8229   -1.2546 C   0  0  0  0  0  0  0  0  0  0  0  0
    1.2743    0.3840   -0.4663 C   0  0  0  0  0  0  0  0  0  0  0  0
    5.5921   -0.4989   -0.6284 C   0  0  0  0  0  0  0  0  0  0  0  0
    5.6147   -1.1071    1.8029 C   0  0  0  0  0  0  0  0  0  0  0  0
    2.5945   -1.2718    1.8090 C   0  0  0  0  0  0  0  0  0  0  0  0
    2.5522   -0.4572   -0.6317 C   0  0  0  0  0  0  0  0  0  0  0  0
    4.7903   -1.1657    0.5034 C   0  0  0  0  0  0  0  0  0  0  0  0
    3.3717   -0.5506    0.6903 C   0  0  0  0  0  0  0  0  0  0  0  0
    1.6826   -1.6910   -2.2024 H   0  0  0  0  0  0  0  0  0  0  0  0
    1.5744   -2.4197   -0.5973 H   0  0  0  0  0  0  0  0  0  0  0  0
    3.1177   -2.4121   -1.4646 H   0  0  0  0  0  0  0  0  0  0  0  0
    0.8128    0.5742   -1.4428 H   0  0  0  0  0  0  0  0  0  0  0  0
    1.4914    1.3556   -0.0055 H   0  0  0  0  0  0  0  0  0  0  0  0
    0.5225   -0.1191    0.1528 H   0  0  0  0  0  0  0  0  0  0  0  0
    6.6131   -0.8971   -0.6601 H   0  0  0  0  0  0  0  0  0  0  0  0
    5.6667    0.5856   -0.4725 H   0  0  0  0  0  0  0  0  0  0  0  0
    5.1491   -0.6648   -1.6151 H   0  0  0  0  0  0  0  0  0  0  0  0
    6.6213   -1.5088    1.6375 H   0  0  0  0  0  0  0  0  0  0  0  0
    5.1625   -1.6856    2.6138 H   0  0  0  0  0  0  0  0  0  0  0  0
    5.7265   -0.0713    2.1507 H   0  0  0  0  0  0  0  0  0  0  0  0
    1.5663   -0.9053    1.8883 H   0  0  0  0  0  0  0  0  0  0  0  0
    3.0619   -1.1182    2.7860 H   0  0  0  0  0  0  0  0  0  0  0  0
    2.5485   -2.3537    1.6337 H   0  0  0  0  0  0  0  0  0  0  0  0
    3.1773    0.0856   -1.3521 H   0  0  0  0  0  0  0  0  0  0  0  0
    4.6663   -2.2284    0.2452 H   0  0  0  0  0  0  0  0  0  0  0  0
    3.5272    0.4908    1.0184 H   0  0  0  0  0  0  0  0  0  0  0  0
  1  6  1  0  0  0  0
  1 10  1  0  0  0  0
  2 13  1  0  0  0  0
  2 14  1  0  0  0  0
  3 16  1  0  0  0  0
  3  7  1  0  0  0  0
  4 20  1  0  0  0  0
  4 19  1  0  0  0  0
  5 21  1  0  0  0  0
  5 22  1  0  0  0  0
  6  2  1  0  0  0  0
  6  8  1  0  0  0  0
  7  8  1  0  0  0  0
  7  4  1  0  0  0  0
  8 26  1  0  0  0  0
  8  5  1  0  0  0  0
  9  1  1  0  0  0  0
 11  1  1  0  0  0  0
 12  2  1  0  0  0  0
 15  3  1  0  0  0  0
 17  3  1  0  0  0  0
 18  4  1  0  0  0  0
 23  5  1  0  0  0  0
 24  6  1  0  0  0  0
 25  7  1  0  0  0  0
M  END
>  <HBA>
0

>  <HBD>
0

>  <TPSA>
0.0

>  <cid>
11269

>  <dipole>
0.07

>  <excitation_energy_1>
7.459

>  <excitation_energy_2>
7.56

>  <excitation_energy_3>
7.825

>  <excitation_energy_4>
7.906

>  <homo_energy>
-7.962

>  <homo_lumo_gap>
10.076

>  <logP>
2.934

>  <lumo_energy>
2.114

>  <melting_point>
-27.89

>  <molecular_refractivity>
40.57

>  <oscillator_strength_1>
0.02

>  <oscillator_strength_2>
0.0106

>  <oscillator_strength_3>
0.015

>  <oscillator_strength_4>
0.0046

>  <open_babel_can_smiles>
CC(C(C)C)C(C)C

>  <mulliken_charges>
26
1   -0.453478
2   -0.450614
3   -0.454407
4   -0.45091
5   -0.467864
6   -0.07442
7   -0.065793
8   -0.053601
9   0.138575
10   0.142968
11   0.143819
12   0.138312
13   0.138026
14   0.141923
15   0.13788
16   0.138123
17   0.146834
18   0.137853
19   0.145394
20   0.136984
21   0.143786
22   0.145621
23   0.140986
24   0.12588
25   0.119812
26   0.108308

>  <lowdin_charges>
26
1   -0.45121
2   -0.447099
3   -0.445194
4   -0.445702
5   -0.448678
6   -0.127427
7   -0.121861
8   -0.124584
9   0.148173
10   0.148532
11   0.148183
12   0.147524
13   0.146072
14   0.146134
15   0.146903
16   0.143373
17   0.148283
18   0.146453
19   0.150273
20   0.143436
21   0.14886
22   0.150392
23   0.144116
24   0.141569
25   0.13253
26   0.130946

$$$$

