PCCDB-ID:  58650
public computational chemistry database (PCCDB) project, http://pccdb.org

 29 30  0  0  1  0  0  0  0  0999 V2000
    3.0500   -0.5498   -2.4284 C   0  0  0  0  0  0  0  0  0  0  0  0
   -2.0811   -2.9326   -0.7939 C   0  0  0  0  0  0  0  0  0  0  0  0
   -2.1765   -4.3250   -0.8454 C   0  0  0  0  0  0  0  0  0  0  0  0
   -0.8932   -2.3144   -0.3704 C   0  0  0  0  0  0  0  0  0  0  0  0
   -1.1056   -5.1434   -0.4585 C   0  0  0  0  0  0  0  0  0  0  0  0
    2.5172   -2.2749   -0.6432 C   0  0  0  0  0  0  0  0  0  0  0  0
    2.1090   -0.9478   -1.2910 C   0  0  1  0  0  0  0  0  0  0  0  0
    0.1724   -3.1236   -0.0023 C   0  0  0  0  0  0  0  0  0  0  0  0
    0.0628   -4.5303   -0.0249 C   0  0  0  0  0  0  0  0  0  0  0  0
    2.0223   -4.2517    0.8132 C   0  0  0  0  0  0  0  0  0  0  0  0
    1.5813   -2.8155    0.4620 C   0  0  1  0  0  0  0  0  0  0  0  0
    1.2150   -5.1940    0.4884 N   0  0  0  0  0  0  0  0  0  0  0  0
    2.1158    0.1701   -0.2562 N   0  0  0  0  0  0  0  0  0  0  0  0
    3.2041   -4.4541    1.4091 O   0  0  0  0  0  0  0  0  0  0  0  0
    1.7392   -1.9419    1.5800 O   0  0  0  0  0  0  0  0  0  0  0  0
    1.0405    0.7018    0.0079 O   0  0  0  0  0  0  0  0  0  0  0  0
    3.1999    0.4819    0.2230 O   0  0  0  0  0  0  0  0  0  0  0  0
    3.0069   -1.3076   -3.2170 H   0  0  0  0  0  0  0  0  0  0  0  0
    4.0794   -0.4685   -2.0699 H   0  0  0  0  0  0  0  0  0  0  0  0
    2.7537    0.4105   -2.8623 H   0  0  0  0  0  0  0  0  0  0  0  0
   -2.9317   -2.3211   -1.0805 H   0  0  0  0  0  0  0  0  0  0  0  0
   -3.1025   -4.7852   -1.1800 H   0  0  0  0  0  0  0  0  0  0  0  0
   -0.8186   -1.2313   -0.3178 H   0  0  0  0  0  0  0  0  0  0  0  0
   -1.1826   -6.2259   -0.4767 H   0  0  0  0  0  0  0  0  0  0  0  0
    3.5263   -2.1688   -0.2275 H   0  0  0  0  0  0  0  0  0  0  0  0
    2.5702   -3.0214   -1.4432 H   0  0  0  0  0  0  0  0  0  0  0  0
    1.0764   -0.9869   -1.6365 H   0  0  0  0  0  0  0  0  0  0  0  0
    3.4980   -3.5937    1.7622 H   0  0  0  0  0  0  0  0  0  0  0  0
    0.9812   -2.0710    2.1738 H   0  0  0  0  0  0  0  0  0  0  0  0
  1 19  1  0  0  0  0
  1  7  1  0  0  0  0
  2  4  1  0  0  0  0
  3  2  2  0  0  0  0
  3  5  1  0  0  0  0
  4 23  1  0  0  0  0
  4  8  2  0  0  0  0
  5  9  2  0  0  0  0
  6 25  1  0  0  0  0
  6 11  1  0  0  0  0
  7 27  1  6  0  0  0
  7  6  1  0  0  0  0
  7 13  1  0  0  0  0
  8 11  1  0  0  0  0
  9  8  1  0  0  0  0
  9 12  1  0  0  0  0
 10 14  1  0  0  0  0
 11 10  1  0  0  0  0
 11 15  1  1  0  0  0
 12 10  2  0  0  0  0
 13 16  2  0  0  0  0
 13 17  2  0  0  0  0
 14 28  1  0  0  0  0
 15 29  1  0  0  0  0
 18  1  1  0  0  0  0
 20  1  1  0  0  0  0
 21  2  1  0  0  0  0
 22  3  1  0  0  0  0
 24  5  1  0  0  0  0
 26  6  1  0  0  0  0
M  END
>  <HBA>
3

>  <HBD>
2

>  <TPSA>
95.15

>  <cid>
58650

>  <dipole>
2.14

>  <excitation_energy_1>
3.651

>  <excitation_energy_2>
4.164

>  <excitation_energy_3>
4.264

>  <excitation_energy_4>
4.404

>  <homo_energy>
-6.177

>  <homo_lumo_gap>
4.37

>  <logP>
1.543

>  <lumo_energy>
-1.807

>  <melting_point>
141.0

>  <molecular_refractivity>
65.31

>  <oscillator_strength_1>
0.001

>  <oscillator_strength_2>
0.0003

>  <oscillator_strength_3>
0.0429

>  <oscillator_strength_4>
0.0003

>  <open_babel_can_smiles>
O=N(=O)[C@H](C[C@]1(O)C(=Nc2c1cccc2)O)C

>  <mulliken_charges>
29
1   -0.46008
2   -0.142947
3   -0.130235
4   -0.216375
5   -0.191012
6   -0.266589
7   -0.01913
8   0.063727
9   0.252056
10   0.527748
11   0.116182
12   -0.505258
13   0.477306
14   -0.595727
15   -0.636793
16   -0.379444
17   -0.374047
18   0.166332
19   0.184626
20   0.173606
21   0.134989
22   0.135973
23   0.164613
24   0.146648
25   0.168622
26   0.177088
27   0.185913
28   0.429544
29   0.412664

>  <lowdin_charges>
29
1   -0.443101
2   -0.16962
3   -0.143498
4   -0.161283
5   -0.166128
6   -0.275743
7   -0.077911
8   -0.070549
9   0.042567
10   0.112663
11   0.085818
12   -0.183184
13   0.299163
14   -0.325716
15   -0.441036
16   -0.24585
17   -0.240457
18   0.166453
19   0.169795
20   0.166739
21   0.16183
22   0.161724
23   0.168363
24   0.168154
25   0.163514
26   0.175041
27   0.171372
28   0.370612
29   0.360269

$$$$

