PCCDB-ID:  6994
public computational chemistry database (PCCDB) project, http://pccdb.org

 19 19  0  0  0  0  0  0  0  0999 V2000
    0.9046   -0.0555   -0.1367 C   0  0  0  0  0  0  0  0  0  0  0  0
    4.5369   -1.2376   -0.1881 C   0  0  0  0  0  0  0  0  0  0  0  0
    5.2373   -0.0339   -0.2046 C   0  0  0  0  0  0  0  0  0  0  0  0
    3.1401   -1.2279   -0.1714 C   0  0  0  0  0  0  0  0  0  0  0  0
    4.5274    1.1683   -0.2077 C   0  0  0  0  0  0  0  0  0  0  0  0
    2.4037    2.5176   -0.2306 C   0  0  0  0  0  0  0  0  0  0  0  0
    2.4157   -0.0314   -0.1712 C   0  0  0  0  0  0  0  0  0  0  0  0
    3.1286    1.1888   -0.1916 C   0  0  0  0  0  0  0  0  0  0  0  0
    1.6816    2.7326   -1.4476 O   0  0  0  0  0  0  0  0  0  0  0  0
    0.5257   -1.0764   -0.2439 H   0  0  0  0  0  0  0  0  0  0  0  0
    0.4806    0.5656   -0.9311 H   0  0  0  0  0  0  0  0  0  0  0  0
    0.5211    0.3399    0.8140 H   0  0  0  0  0  0  0  0  0  0  0  0
    5.0715   -2.1840   -0.1882 H   0  0  0  0  0  0  0  0  0  0  0  0
    6.3238   -0.0269   -0.2167 H   0  0  0  0  0  0  0  0  0  0  0  0
    2.5979   -2.1708   -0.1574 H   0  0  0  0  0  0  0  0  0  0  0  0
    5.0685    2.1126   -0.2210 H   0  0  0  0  0  0  0  0  0  0  0  0
    3.1226    3.3331   -0.0570 H   0  0  0  0  0  0  0  0  0  0  0  0
    1.6467    2.5793    0.5584 H   0  0  0  0  0  0  0  0  0  0  0  0
    2.3033    2.5735   -2.1755 H   0  0  0  0  0  0  0  0  0  0  0  0
  1 12  1  0  0  0  0
  2  4  2  0  0  0  0
  3  2  1  0  0  0  0
  4  7  1  0  0  0  0
  4 15  1  0  0  0  0
  5  3  2  0  0  0  0
  5  8  1  0  0  0  0
  6  8  1  0  0  0  0
  6 17  1  0  0  0  0
  6 18  1  0  0  0  0
  7  1  1  0  0  0  0
  8  7  2  0  0  0  0
  9  6  1  0  0  0  0
 10  1  1  0  0  0  0
 11  1  1  0  0  0  0
 13  2  1  0  0  0  0
 14  3  1  0  0  0  0
 16  5  1  0  0  0  0
 19  9  1  0  0  0  0
M  END
>  <HBA>
1

>  <HBD>
1

>  <TPSA>
20.23

>  <cid>
6994

>  <dipole>
1.32

>  <excitation_energy_1>
5.195

>  <excitation_energy_2>
5.692

>  <excitation_energy_3>
6.074

>  <excitation_energy_4>
6.088

>  <homo_energy>
-6.46

>  <homo_lumo_gap>
6.256

>  <logP>
1.487

>  <lumo_energy>
-0.204

>  <melting_point>
30.61

>  <molecular_refractivity>
37.54

>  <oscillator_strength_1>
0.0031

>  <oscillator_strength_2>
0.0551

>  <oscillator_strength_3>
0.0231

>  <oscillator_strength_4>
0.0147

>  <open_babel_can_smiles>
OCc1ccccc1C

>  <mulliken_charges>
19
1   -0.540072
2   -0.123601
3   -0.129275
4   -0.186152
5   -0.188282
6   -0.103687
7   0.142183
8   0.069444
9   -0.608629
10   0.14956
11   0.187736
12   0.158498
13   0.128861
14   0.127964
15   0.123198
16   0.12393
17   0.128257
18   0.152379
19   0.387689

>  <lowdin_charges>
19
1   -0.449535
2   -0.153935
3   -0.161046
4   -0.167921
5   -0.167111
6   -0.133762
7   0.006086
8   -0.043806
9   -0.467873
10   0.154233
11   0.174118
12   0.15903
13   0.157683
14   0.155114
15   0.154767
16   0.153703
17   0.134394
18   0.153332
19   0.34253

$$$$

