PCCDB-ID:  61921
public computational chemistry database (PCCDB) project, http://pccdb.org

 36 35  0  0  0  0  0  0  0  0999 V2000
    0.8820    1.5217   -0.5477 C   0  0  0  0  0  0  0  0  0  0  0  0
    5.1874   -3.6132   -9.6643 C   0  0  0  0  0  0  0  0  0  0  0  0
    2.1088    0.6134   -0.4162 C   0  0  0  0  0  0  0  0  0  0  0  0
    5.7806   -4.9953   -9.3757 C   0  0  0  0  0  0  0  0  0  0  0  0
    2.6815    0.1708   -1.7688 C   0  0  0  0  0  0  0  0  0  0  0  0
    6.7723   -5.0098   -8.1912 C   0  0  0  0  0  0  0  0  0  0  0  0
    3.9106   -0.7385   -1.6435 C   0  0  0  0  0  0  0  0  0  0  0  0
    6.1279   -4.6911   -6.8757 C   0  0  0  0  0  0  0  0  0  0  0  0
    4.4803   -1.1759   -2.9997 C   0  0  0  0  0  0  0  0  0  0  0  0
    6.4752   -3.6889   -6.0581 C   0  0  0  0  0  0  0  0  0  0  0  0
    5.7013   -2.0779   -2.8441 C   0  0  0  0  0  0  0  0  0  0  0  0
    5.7682   -3.4733   -4.7753 C   0  0  0  0  0  0  0  0  0  0  0  0
    4.8496   -4.1476   -4.3475 O   0  0  0  0  0  0  0  0  0  0  0  0
    6.2910   -2.4056   -4.1211 O   0  0  0  0  0  0  0  0  0  0  0  0
    0.4981    1.8204    0.4344 H   0  0  0  0  0  0  0  0  0  0  0  0
    0.0694    1.0151   -1.0829 H   0  0  0  0  0  0  0  0  0  0  0  0
    1.1233    2.4362   -1.1035 H   0  0  0  0  0  0  0  0  0  0  0  0
    4.5012   -3.6505  -10.5177 H   0  0  0  0  0  0  0  0  0  0  0  0
    5.9751   -2.8871   -9.9011 H   0  0  0  0  0  0  0  0  0  0  0  0
    4.6317   -3.2279   -8.8023 H   0  0  0  0  0  0  0  0  0  0  0  0
    1.8446   -0.2763    0.1729 H   0  0  0  0  0  0  0  0  0  0  0  0
    2.8907    1.1341    0.1548 H   0  0  0  0  0  0  0  0  0  0  0  0
    6.3038   -5.3659  -10.2665 H   0  0  0  0  0  0  0  0  0  0  0  0
    4.9717   -5.7110   -9.1743 H   0  0  0  0  0  0  0  0  0  0  0  0
    2.9457    1.0606   -2.3594 H   0  0  0  0  0  0  0  0  0  0  0  0
    1.9005   -0.3516   -2.3406 H   0  0  0  0  0  0  0  0  0  0  0  0
    7.5963   -4.3114   -8.3868 H   0  0  0  0  0  0  0  0  0  0  0  0
    7.2157   -6.0149   -8.1258 H   0  0  0  0  0  0  0  0  0  0  0  0
    3.6437   -1.6287   -1.0555 H   0  0  0  0  0  0  0  0  0  0  0  0
    4.6904   -0.2159   -1.0693 H   0  0  0  0  0  0  0  0  0  0  0  0
    5.3025   -5.3310   -6.5607 H   0  0  0  0  0  0  0  0  0  0  0  0
    4.7631   -0.2940   -3.5897 H   0  0  0  0  0  0  0  0  0  0  0  0
    3.7154   -1.7160   -3.5702 H   0  0  0  0  0  0  0  0  0  0  0  0
    7.2838   -3.0034   -6.2968 H   0  0  0  0  0  0  0  0  0  0  0  0
    5.4390   -3.0045   -2.3260 H   0  0  0  0  0  0  0  0  0  0  0  0
    6.4999   -1.5701   -2.2954 H   0  0  0  0  0  0  0  0  0  0  0  0
  1  3  1  0  0  0  0
  1 15  1  0  0  0  0
  2  4  1  0  0  0  0
  2 20  1  0  0  0  0
  3 22  1  0  0  0  0
  3 21  1  0  0  0  0
  4 24  1  0  0  0  0
  4  6  1  0  0  0  0
  5  7  1  0  0  0  0
  5  3  1  0  0  0  0
  6 28  1  0  0  0  0
  6  8  1  0  0  0  0
  7 30  1  0  0  0  0
  7 29  1  0  0  0  0
  8 31  1  0  0  0  0
  8 10  2  0  0  0  0
  9 11  1  0  0  0  0
  9  7  1  0  0  0  0
 10 12  1  0  0  0  0
 11 35  1  0  0  0  0
 11 36  1  0  0  0  0
 12 13  2  0  0  0  0
 12 14  1  0  0  0  0
 14 11  1  0  0  0  0
 16  1  1  0  0  0  0
 17  1  1  0  0  0  0
 18  2  1  0  0  0  0
 19  2  1  0  0  0  0
 23  4  1  0  0  0  0
 25  5  1  0  0  0  0
 26  5  1  0  0  0  0
 27  6  1  0  0  0  0
 32  9  1  0  0  0  0
 33  9  1  0  0  0  0
 34 10  1  0  0  0  0
M  END
>  <HBA>
2

>  <HBD>
0

>  <TPSA>
26.3

>  <cid>
61921

>  <dipole>
1.45

>  <excitation_energy_1>
4.848

>  <excitation_energy_2>
5.877

>  <excitation_energy_3>
6.151

>  <excitation_energy_4>
6.769

>  <homo_energy>
-7.154

>  <homo_lumo_gap>
6.218

>  <logP>
3.466

>  <lumo_energy>
-0.936

>  <melting_point>
-8.32

>  <molecular_refractivity>
60.61

>  <oscillator_strength_1>
0.0001

>  <oscillator_strength_2>
0.5798

>  <oscillator_strength_3>
0.0858

>  <oscillator_strength_4>
0.0037

>  <open_babel_can_smiles>
CCCCCCOC(=O)/C=C/CCC

>  <mulliken_charges>
36
1   -0.441687
2   -0.441343
3   -0.247852
4   -0.256281
5   -0.245344
6   -0.309973
7   -0.264166
8   -0.052778
9   -0.278792
10   -0.196276
11   -0.0418
12   0.613359
13   -0.501987
14   -0.482854
15   0.142111
16   0.142565
17   0.141231
18   0.145887
19   0.142168
20   0.155586
21   0.131871
22   0.129809
23   0.138958
24   0.140063
25   0.127995
26   0.132093
27   0.143592
28   0.153267
29   0.136346
30   0.127901
31   0.161966
32   0.139978
33   0.160402
34   0.14272
35   0.165556
36   0.145706

>  <lowdin_charges>
36
1   -0.445246
2   -0.449264
3   -0.274057
4   -0.271208
5   -0.274873
6   -0.273675
7   -0.275824
8   -0.097397
9   -0.288509
10   -0.214699
11   -0.134145
12   0.195674
13   -0.283998
14   -0.195411
15   0.149305
16   0.147879
17   0.14641
18   0.152245
19   0.147901
20   0.154373
21   0.140096
22   0.139757
23   0.146174
24   0.144339
25   0.138556
26   0.141404
27   0.148773
28   0.157843
29   0.142331
30   0.138877
31   0.17021
32   0.145786
33   0.156939
34   0.165919
35   0.156991
36   0.150525

$$$$

