PCCDB-ID:  69016
public computational chemistry database (PCCDB) project, http://pccdb.org

 29 28  0  0  1  0  0  0  0  0999 V2000
    2.0732   -2.8549   -1.7447 C   0  0  0  0  0  0  0  0  0  0  0  0
   -1.7597    2.4062   -1.1761 C   0  0  0  0  0  0  0  0  0  0  0  0
   -0.7375    1.9607    1.0480 C   0  0  0  0  0  0  0  0  0  0  0  0
    4.8356   -0.5944   -2.2969 C   0  0  0  0  0  0  0  0  0  0  0  0
    2.6619   -1.8198   -2.3431 C   0  0  0  0  0  0  0  0  0  0  0  0
    1.3399    0.6660   -1.0214 C   0  0  0  0  0  0  0  0  0  0  0  0
    0.7060    2.0702   -1.0831 C   0  0  0  0  0  0  0  0  0  0  0  0
    2.7070    0.6285   -1.7135 C   0  0  0  0  0  0  0  0  0  0  0  0
   -0.6661    2.1598   -0.4468 C   0  0  0  0  0  0  0  0  0  0  0  0
    3.4469   -0.7266   -1.6404 C   0  0  2  0  0  0  0  0  0  0  0  0
    3.6071   -1.0084   -0.2452 O   0  0  0  0  0  0  0  0  0  0  0  0
    1.5398   -3.6127   -2.3116 H   0  0  0  0  0  0  0  0  0  0  0  0
    2.0907   -2.9690   -0.6642 H   0  0  0  0  0  0  0  0  0  0  0  0
   -2.7476    2.4693   -0.7257 H   0  0  0  0  0  0  0  0  0  0  0  0
   -1.7078    2.5560   -2.2521 H   0  0  0  0  0  0  0  0  0  0  0  0
   -1.7598    2.0737    1.4223 H   0  0  0  0  0  0  0  0  0  0  0  0
   -0.0998    2.6871    1.5711 H   0  0  0  0  0  0  0  0  0  0  0  0
   -0.3793    0.9655    1.3412 H   0  0  0  0  0  0  0  0  0  0  0  0
    4.7565   -0.3279   -3.3571 H   0  0  0  0  0  0  0  0  0  0  0  0
    5.3864   -1.5415   -2.2332 H   0  0  0  0  0  0  0  0  0  0  0  0
    5.4168    0.1794   -1.7849 H   0  0  0  0  0  0  0  0  0  0  0  0
    2.6074   -1.7221   -3.4283 H   0  0  0  0  0  0  0  0  0  0  0  0
    0.6617   -0.0567   -1.4911 H   0  0  0  0  0  0  0  0  0  0  0  0
    1.4654    0.3478    0.0187 H   0  0  0  0  0  0  0  0  0  0  0  0
    0.6382    2.3874   -2.1319 H   0  0  0  0  0  0  0  0  0  0  0  0
    1.3829    2.7821   -0.5847 H   0  0  0  0  0  0  0  0  0  0  0  0
    3.3654    1.3820   -1.2601 H   0  0  0  0  0  0  0  0  0  0  0  0
    2.5971    0.9026   -2.7720 H   0  0  0  0  0  0  0  0  0  0  0  0
    4.0836   -1.8517   -0.1779 H   0  0  0  0  0  0  0  0  0  0  0  0
  1 13  1  0  0  0  0
  2 14  1  0  0  0  0
  2  9  2  0  0  0  0
  3 18  1  0  0  0  0
  3 16  1  0  0  0  0
  3 17  1  0  0  0  0
  4 20  1  0  0  0  0
  4 21  1  0  0  0  0
  4 10  1  0  0  0  0
  5  1  2  0  0  0  0
  6 24  1  0  0  0  0
  7  6  1  0  0  0  0
  7 26  1  0  0  0  0
  7  9  1  0  0  0  0
  8 10  1  0  0  0  0
  8 27  1  0  0  0  0
  8  6  1  0  0  0  0
  9  3  1  0  0  0  0
 10  5  1  6  0  0  0
 10 11  1  0  0  0  0
 11 29  1  0  0  0  0
 12  1  1  0  0  0  0
 15  2  1  0  0  0  0
 19  4  1  0  0  0  0
 22  5  1  0  0  0  0
 23  6  1  0  0  0  0
 25  7  1  0  0  0  0
 28  8  1  0  0  0  0
M  END
>  <HBA>
1

>  <HBD>
1

>  <TPSA>
20.23

>  <cid>
69016

>  <dipole>
1.69

>  <excitation_energy_1>
5.953

>  <excitation_energy_2>
6.043

>  <excitation_energy_3>
6.231

>  <excitation_energy_4>
6.278

>  <homo_energy>
-6.387

>  <homo_lumo_gap>
6.885

>  <logP>
2.67

>  <lumo_energy>
0.498

>  <melting_point>
-37.36

>  <molecular_refractivity>
50.44

>  <oscillator_strength_1>
0.0063

>  <oscillator_strength_2>
0.0081

>  <oscillator_strength_3>
0.0461

>  <oscillator_strength_4>
0.0326

>  <open_babel_can_smiles>
C=C[C@@](CCCC(=C)C)(O)C

>  <mulliken_charges>
29
1   -0.352794
2   -0.402233
3   -0.513304
4   -0.463812
5   -0.06828
6   -0.263447
7   -0.328829
8   -0.258808
9   0.238793
10   0.275489
11   -0.641652
12   0.140776
13   0.142937
14   0.127387
15   0.127482
16   0.149974
17   0.150338
18   0.160475
19   0.142325
20   0.138259
21   0.156545
22   0.124215
23   0.143115
24   0.158967
25   0.131558
26   0.133168
27   0.138553
28   0.126112
29   0.38669

>  <lowdin_charges>
29
1   -0.344934
2   -0.36588
3   -0.442702
4   -0.454149
5   -0.16075
6   -0.27782
7   -0.271706
8   -0.273361
9   0.011878
10   0.120379
11   -0.454254
12   0.161428
13   0.157166
14   0.150959
15   0.149392
16   0.154531
17   0.155574
18   0.157602
19   0.150871
20   0.147863
21   0.158459
22   0.151018
23   0.149009
24   0.152072
25   0.14231
26   0.144345
27   0.148763
28   0.140631
29   0.341307

$$$$

