PCCDB-ID:  66537
public computational chemistry database (PCCDB) project, http://pccdb.org

 32 33  0  0  0  0  0  0  0  0999 V2000
    1.4394    0.0376    1.3586 C   0  0  0  0  0  0  0  0  0  0  0  0
    3.5711   -3.2686    1.5869 C   0  0  0  0  0  0  0  0  0  0  0  0
    4.8949    0.1546   -1.2345 C   0  0  0  0  0  0  0  0  0  0  0  0
    0.3099   -3.6332   -1.2253 C   0  0  0  0  0  0  0  0  0  0  0  0
    4.1061   -0.9908   -1.1673 C   0  0  0  0  0  0  0  0  0  0  0  0
    1.0973   -2.4848   -1.2079 C   0  0  0  0  0  0  0  0  0  0  0  0
    3.4444    1.1991    0.3805 C   0  0  0  0  0  0  0  0  0  0  0  0
    1.6355   -4.5203    0.5800 C   0  0  0  0  0  0  0  0  0  0  0  0
    2.6498    0.0527    0.4517 C   0  0  0  0  0  0  0  0  0  0  0  0
    2.4283   -3.3707    0.6016 C   0  0  0  0  0  0  0  0  0  0  0  0
    4.5717    1.2725   -0.4531 C   0  0  0  0  0  0  0  0  0  0  0  0
    0.5706   -4.6729   -0.3221 C   0  0  0  0  0  0  0  0  0  0  0  0
    2.9820   -1.0727   -0.3351 C   0  0  0  0  0  0  0  0  0  0  0  0
    2.1587   -2.3236   -0.3078 C   0  0  0  0  0  0  0  0  0  0  0  0
    5.3835    2.4147   -0.4569 N   0  0  0  0  0  0  0  0  0  0  0  0
   -0.2445   -5.8119   -0.2785 N   0  0  0  0  0  0  0  0  0  0  0  0
    1.3394    0.9842    1.8992 H   0  0  0  0  0  0  0  0  0  0  0  0
    1.4979   -0.7693    2.0990 H   0  0  0  0  0  0  0  0  0  0  0  0
    0.5160   -0.1299    0.7919 H   0  0  0  0  0  0  0  0  0  0  0  0
    3.6205   -4.1546    2.2278 H   0  0  0  0  0  0  0  0  0  0  0  0
    3.4698   -2.3886    2.2331 H   0  0  0  0  0  0  0  0  0  0  0  0
    4.5346   -3.1655    1.0742 H   0  0  0  0  0  0  0  0  0  0  0  0
    5.7634    0.1832   -1.8892 H   0  0  0  0  0  0  0  0  0  0  0  0
   -0.5091   -3.7243   -1.9356 H   0  0  0  0  0  0  0  0  0  0  0  0
    4.3646   -1.8492   -1.7829 H   0  0  0  0  0  0  0  0  0  0  0  0
    0.8877   -1.6881   -1.9177 H   0  0  0  0  0  0  0  0  0  0  0  0
    3.1838    2.0625    0.9908 H   0  0  0  0  0  0  0  0  0  0  0  0
    1.8474   -5.3228    1.2850 H   0  0  0  0  0  0  0  0  0  0  0  0
    5.9133    2.5486   -1.3099 H   0  0  0  0  0  0  0  0  0  0  0  0
    4.9074    3.2679   -0.1894 H   0  0  0  0  0  0  0  0  0  0  0  0
   -0.7127   -6.0247   -1.1513 H   0  0  0  0  0  0  0  0  0  0  0  0
    0.2071   -6.6361    0.0996 H   0  0  0  0  0  0  0  0  0  0  0  0
  1 17  1  0  0  0  0
  1 18  1  0  0  0  0
  2 20  1  0  0  0  0
  2 21  1  0  0  0  0
  3  5  2  0  0  0  0
  3 11  1  0  0  0  0
  4  6  2  0  0  0  0
  4 12  1  0  0  0  0
  5 13  1  0  0  0  0
  6 14  1  0  0  0  0
  7  9  1  0  0  0  0
  7 27  1  0  0  0  0
  8 10  1  0  0  0  0
  8 28  1  0  0  0  0
  9  1  1  0  0  0  0
 10  2  1  0  0  0  0
 11  7  2  0  0  0  0
 12 16  1  0  0  0  0
 12  8  2  0  0  0  0
 13 14  1  0  0  0  0
 13  9  2  0  0  0  0
 14 10  2  0  0  0  0
 15 11  1  0  0  0  0
 15 30  1  0  0  0  0
 16 32  1  0  0  0  0
 19  1  1  0  0  0  0
 22  2  1  0  0  0  0
 23  3  1  0  0  0  0
 24  4  1  0  0  0  0
 25  5  1  0  0  0  0
 26  6  1  0  0  0  0
 29 15  1  0  0  0  0
 31 16  1  0  0  0  0
M  END
>  <HBA>
2

>  <HBD>
2

>  <TPSA>
52.04

>  <cid>
66537

>  <dipole>
1.41

>  <excitation_energy_1>
4.588

>  <excitation_energy_2>
4.6

>  <excitation_energy_3>
4.651

>  <excitation_energy_4>
4.654

>  <homo_energy>
-5.2

>  <homo_lumo_gap>
5.494

>  <logP>
4.297

>  <lumo_energy>
0.294

>  <melting_point>
150.58

>  <molecular_refractivity>
70.62

>  <oscillator_strength_1>
0.0234

>  <oscillator_strength_2>
0.0241

>  <oscillator_strength_3>
0.0006

>  <oscillator_strength_4>
0.0081

>  <open_babel_can_smiles>
Nc1ccc(c(c1)C)c1ccc(cc1C)N

>  <mulliken_charges>
32
1   -0.531953
2   -0.53188
3   -0.181976
4   -0.182002
5   -0.166786
6   -0.166746
7   -0.250073
8   -0.24994
9   0.160917
10   0.160779
11   0.323645
12   0.323437
13   -0.015777
14   -0.015483
15   -0.789932
16   -0.789916
17   0.145171
18   0.164358
19   0.16571
20   0.145171
21   0.164532
22   0.165543
23   0.111537
24   0.111536
25   0.125125
26   0.125104
27   0.106724
28   0.106693
29   0.316546
30   0.316691
31   0.316549
32   0.316694

>  <lowdin_charges>
32
1   -0.442904
2   -0.442701
3   -0.208105
4   -0.208659
5   -0.150492
6   -0.150505
7   -0.214101
8   -0.214364
9   0.008555
10   0.008504
11   0.059069
12   0.059579
13   -0.039246
14   -0.039054
15   -0.491726
16   -0.492263
17   0.151389
18   0.161933
19   0.163489
20   0.151758
21   0.161935
22   0.163038
23   0.150556
24   0.150777
25   0.157046
26   0.157143
27   0.14824
28   0.148376
29   0.272931
30   0.273294
31   0.272891
32   0.273616

$$$$

