PCCDB-ID:  11807
public computational chemistry database (PCCDB) project, http://pccdb.org

 17 16  0  0  0  0  0  0  0  0999 V2000
    0.9591    0.1335    0.0026 C   0  0  0  0  0  0  0  0  0  0  0  0
    3.0287   -0.8782    1.0440 C   0  0  0  0  0  0  0  0  0  0  0  0
    2.9982   -0.3280   -1.4194 C   0  0  0  0  0  0  0  0  0  0  0  0
    2.4947    0.0917   -0.0183 C   0  0  0  0  0  0  0  0  0  0  0  0
    3.1122    1.4181    0.2277 N   0  0  0  0  0  0  0  0  0  0  0  0
    4.4054   -0.2542   -1.5054 O   0  0  0  0  0  0  0  0  0  0  0  0
    0.5280   -0.8493   -0.2258 H   0  0  0  0  0  0  0  0  0  0  0  0
    0.5738    0.8459   -0.7384 H   0  0  0  0  0  0  0  0  0  0  0  0
    0.5892    0.4393    0.9889 H   0  0  0  0  0  0  0  0  0  0  0  0
    2.6127   -1.8802    0.8937 H   0  0  0  0  0  0  0  0  0  0  0  0
    2.7507   -0.5488    2.0535 H   0  0  0  0  0  0  0  0  0  0  0  0
    4.1181   -0.9464    0.9828 H   0  0  0  0  0  0  0  0  0  0  0  0
    2.5169    0.3198   -2.1764 H   0  0  0  0  0  0  0  0  0  0  0  0
    2.7034   -1.3607   -1.6380 H   0  0  0  0  0  0  0  0  0  0  0  0
    3.0428    1.6646    1.2138 H   0  0  0  0  0  0  0  0  0  0  0  0
    2.6037    2.1383   -0.2863 H   0  0  0  0  0  0  0  0  0  0  0  0
    4.6212    0.5640   -1.0143 H   0  0  0  0  0  0  0  0  0  0  0  0
  1  9  1  0  0  0  0
  2 11  1  0  0  0  0
  3  4  1  0  0  0  0
  4  1  1  0  0  0  0
  4  5  1  0  0  0  0
  4  2  1  0  0  0  0
  5 15  1  0  0  0  0
  6  3  1  0  0  0  0
  6 17  1  0  0  0  0
  7  1  1  0  0  0  0
  8  1  1  0  0  0  0
 10  2  1  0  0  0  0
 12  2  1  0  0  0  0
 13  3  1  0  0  0  0
 14  3  1  0  0  0  0
 16  5  1  0  0  0  0
M  END
>  <HBA>
2

>  <HBD>
2

>  <TPSA>
46.25

>  <cid>
11807

>  <dipole>
3.12

>  <excitation_energy_1>
6.002

>  <excitation_energy_2>
6.335

>  <excitation_energy_3>
6.896

>  <excitation_energy_4>
7.062

>  <homo_energy>
-6.664

>  <homo_lumo_gap>
8.34

>  <logP>
0.416

>  <lumo_energy>
1.676

>  <melting_point>
58.65

>  <molecular_refractivity>
25.25

>  <oscillator_strength_1>
0.025

>  <oscillator_strength_2>
0.022

>  <oscillator_strength_3>
0.005

>  <oscillator_strength_4>
0.0062

>  <open_babel_can_smiles>
OCC(N)(C)C

>  <mulliken_charges>
17
1   -0.450707
2   -0.442658
3   0.007341
4   0.151743
5   -0.743736
6   -0.633155
7   0.14639
8   0.136336
9   0.139918
10   0.145896
11   0.12987
12   0.169109
13   0.102065
14   0.133458
15   0.303386
16   0.299618
17   0.405124

>  <lowdin_charges>
17
1   -0.457581
2   -0.443992
3   -0.140225
4   0.044732
5   -0.550171
6   -0.474504
7   0.15261
8   0.146681
9   0.148709
10   0.153237
11   0.142403
12   0.161684
13   0.119306
14   0.141818
15   0.257928
16   0.256821
17   0.340545

$$$$

