PCCDB-ID:  22437
public computational chemistry database (PCCDB) project, http://pccdb.org

 29 28  0  0  0  0  0  0  0  0999 V2000
    2.5673   -3.1652    0.0089 C   0  0  0  0  0  0  0  0  0  0  0  0
    8.9685   -1.6719    3.6683 C   0  0  0  0  0  0  0  0  0  0  0  0
    3.5869   -2.0393   -0.2019 C   0  0  0  0  0  0  0  0  0  0  0  0
    9.4533   -2.6133    2.5504 C   0  0  0  0  0  0  0  0  0  0  0  0
    5.0398   -2.5141   -0.3785 C   0  0  0  0  0  0  0  0  0  0  0  0
    5.6440   -3.1633    0.8747 C   0  0  0  0  0  0  0  0  0  0  0  0
    7.0916   -3.6859    0.6958 C   0  0  0  0  0  0  0  0  0  0  0  0
    8.0818   -2.6055    0.3778 C   0  0  0  0  0  0  0  0  0  0  0  0
    9.0679   -2.1617    1.1695 C   0  0  0  0  0  0  0  0  0  0  0  0
    9.9020   -1.0583    0.6199 N   0  0  0  0  0  0  0  0  0  0  0  0
    9.6414   -0.6008   -0.4929 O   0  0  0  0  0  0  0  0  0  0  0  0
   10.8291   -0.6579    1.3279 O   0  0  0  0  0  0  0  0  0  0  0  0
    1.5491   -2.7645    0.0690 H   0  0  0  0  0  0  0  0  0  0  0  0
    2.7532   -3.7224    0.9340 H   0  0  0  0  0  0  0  0  0  0  0  0
    2.5935   -3.8818   -0.8217 H   0  0  0  0  0  0  0  0  0  0  0  0
    9.2750   -2.0574    4.6467 H   0  0  0  0  0  0  0  0  0  0  0  0
    7.8764   -1.5830    3.6638 H   0  0  0  0  0  0  0  0  0  0  0  0
    9.3974   -0.6736    3.5472 H   0  0  0  0  0  0  0  0  0  0  0  0
    3.5381   -1.3375    0.6430 H   0  0  0  0  0  0  0  0  0  0  0  0
    3.3008   -1.4624   -1.0910 H   0  0  0  0  0  0  0  0  0  0  0  0
    9.0384   -3.6134    2.7103 H   0  0  0  0  0  0  0  0  0  0  0  0
   10.5420   -2.7058    2.6021 H   0  0  0  0  0  0  0  0  0  0  0  0
    5.6523   -1.6529   -0.6753 H   0  0  0  0  0  0  0  0  0  0  0  0
    5.0874   -3.2284   -1.2145 H   0  0  0  0  0  0  0  0  0  0  0  0
    5.0270   -4.0156    1.1848 H   0  0  0  0  0  0  0  0  0  0  0  0
    5.6227   -2.4452    1.7060 H   0  0  0  0  0  0  0  0  0  0  0  0
    7.0975   -4.4102   -0.1319 H   0  0  0  0  0  0  0  0  0  0  0  0
    7.3833   -4.2341    1.5973 H   0  0  0  0  0  0  0  0  0  0  0  0
    7.9886   -2.1202   -0.5893 H   0  0  0  0  0  0  0  0  0  0  0  0
  1 13  1  0  0  0  0
  1 14  1  0  0  0  0
  2 16  1  0  0  0  0
  3  1  1  0  0  0  0
  3 19  1  0  0  0  0
  4 22  1  0  0  0  0
  4 21  1  0  0  0  0
  4  2  1  0  0  0  0
  5  3  1  0  0  0  0
  5  6  1  0  0  0  0
  6 25  1  0  0  0  0
  6 26  1  0  0  0  0
  7  6  1  0  0  0  0
  7 28  1  0  0  0  0
  8  7  1  0  0  0  0
  8  9  2  0  0  0  0
  9  4  1  0  0  0  0
 10  9  1  0  0  0  0
 10 12  2  0  0  0  0
 11 10  2  0  0  0  0
 15  1  1  0  0  0  0
 17  2  1  0  0  0  0
 18  2  1  0  0  0  0
 20  3  1  0  0  0  0
 23  5  1  0  0  0  0
 24  5  1  0  0  0  0
 27  7  1  0  0  0  0
 29  8  1  0  0  0  0
M  END
>  <HBA>
0

>  <HBD>
0

>  <TPSA>
45.82

>  <cid>
22437

>  <dipole>
4.56

>  <excitation_energy_1>
3.705

>  <excitation_energy_2>
4.242

>  <excitation_energy_3>
4.687

>  <excitation_energy_4>
5.695

>  <homo_energy>
-7.483

>  <homo_lumo_gap>
5.323

>  <logP>
3.66

>  <lumo_energy>
-2.161

>  <melting_point>
15.41

>  <molecular_refractivity>
53.01

>  <oscillator_strength_1>
0.0001

>  <oscillator_strength_2>
0.0019

>  <oscillator_strength_3>
0.2121

>  <oscillator_strength_4>
0.0003

>  <open_babel_can_smiles>
CCCCC/C=C(/N(=O)=O)\CC

>  <mulliken_charges>
29
1   -0.445199
2   -0.447359
3   -0.250645
4   -0.3302
5   -0.257734
6   -0.258325
7   -0.319712
8   -0.147547
9   0.279023
10   0.412331
11   -0.406061
12   -0.392489
13   0.146994
14   0.145014
15   0.142576
16   0.15165
17   0.145723
18   0.175
19   0.133668
20   0.137471
21   0.149884
22   0.178609
23   0.142493
24   0.129537
25   0.144599
26   0.141753
27   0.158014
28   0.150721
29   0.190211

>  <lowdin_charges>
29
1   -0.447435
2   -0.439604
3   -0.273245
4   -0.275155
5   -0.281413
6   -0.27246
7   -0.275427
8   -0.121339
9   -0.007237
10   0.303207
11   -0.255295
12   -0.251958
13   0.151604
14   0.146474
15   0.147294
16   0.154676
17   0.146094
18   0.162072
19   0.14129
20   0.146045
21   0.154985
22   0.169035
23   0.147057
24   0.139206
25   0.14885
26   0.144481
27   0.159653
28   0.153634
29   0.184912

$$$$

