PCCDB-ID:  1890
public computational chemistry database (PCCDB) project, http://pccdb.org

 30 32  0  0  1  0  0  0  0  0999 V2000
   -1.4098   -0.1386   -0.0592 C   0  0  0  0  0  0  0  0  0  0  0  0
   -0.7383   -0.6441   -1.1747 C   0  0  0  0  0  0  0  0  0  0  0  0
   -0.6867    0.4829    0.9598 C   0  0  0  0  0  0  0  0  0  0  0  0
    0.6473   -0.5221   -1.2763 C   0  0  0  0  0  0  0  0  0  0  0  0
    0.7008    0.5966    0.8619 C   0  0  0  0  0  0  0  0  0  0  0  0
    7.5064   -0.9288   -1.8117 C   0  0  0  0  0  0  0  0  0  0  0  0
    6.8531    0.2830   -1.6747 C   0  0  0  0  0  0  0  0  0  0  0  0
    5.4067   -2.0963   -1.3935 C   0  0  0  0  0  0  0  0  0  0  0  0
    3.2591    1.5258   -1.2009 C   0  0  0  0  0  0  0  0  0  0  0  0
    1.3783    0.1001   -0.2568 C   0  0  0  0  0  0  0  0  0  0  0  0
    6.7719   -2.1232   -1.6777 C   0  0  0  0  0  0  0  0  0  0  0  0
    5.4766    0.3444   -1.4005 C   0  0  0  0  0  0  0  0  0  0  0  0
    4.7728    1.6376   -1.3519 C   0  0  0  0  0  0  0  0  0  0  0  0
    2.8729    0.2922   -0.3759 C   0  0  1  0  0  0  0  0  0  0  0  0
    4.7645   -0.8665   -1.2506 C   0  0  0  0  0  0  0  0  0  0  0  0
    7.3532   -3.3469   -1.8057 O   0  0  0  0  0  0  0  0  0  0  0  0
    5.3354    2.7179   -1.4624 O   0  0  0  0  0  0  0  0  0  0  0  0
    3.4323   -0.9003   -0.9716 O   0  0  0  0  0  0  0  0  0  0  0  0
   -2.4896   -0.2335    0.0173 H   0  0  0  0  0  0  0  0  0  0  0  0
   -1.2947   -1.1358   -1.9683 H   0  0  0  0  0  0  0  0  0  0  0  0
   -1.1997    0.8722    1.8351 H   0  0  0  0  0  0  0  0  0  0  0  0
    1.1702   -0.9258   -2.1377 H   0  0  0  0  0  0  0  0  0  0  0  0
    1.2616    1.0723    1.6637 H   0  0  0  0  0  0  0  0  0  0  0  0
    8.5716   -0.9658   -2.0299 H   0  0  0  0  0  0  0  0  0  0  0  0
    7.3843    1.2230   -1.7887 H   0  0  0  0  0  0  0  0  0  0  0  0
    4.8530   -3.0201   -1.2715 H   0  0  0  0  0  0  0  0  0  0  0  0
    2.8131    1.4438   -2.2024 H   0  0  0  0  0  0  0  0  0  0  0  0
    2.8712    2.4399   -0.7424 H   0  0  0  0  0  0  0  0  0  0  0  0
    3.3101    0.3897    0.6291 H   0  0  0  0  0  0  0  0  0  0  0  0
    8.2996   -3.2319   -1.9854 H   0  0  0  0  0  0  0  0  0  0  0  0
  1 19  1  0  0  0  0
  1  3  2  0  0  0  0
  2  1  1  0  0  0  0
  3 21  1  0  0  0  0
  4  2  2  0  0  0  0
  4 10  1  0  0  0  0
  5  3  1  0  0  0  0
  5 23  1  0  0  0  0
  6 11  2  0  0  0  0
  6  7  1  0  0  0  0
  7 12  2  0  0  0  0
  8 26  1  0  0  0  0
  8 15  2  0  0  0  0
  9 28  1  0  0  0  0
  9 14  1  0  0  0  0
 10  5  2  0  0  0  0
 11  8  1  0  0  0  0
 12 13  1  0  0  0  0
 12 15  1  0  0  0  0
 13  9  1  0  0  0  0
 14 10  1  0  0  0  0
 14 29  1  1  0  0  0
 15 18  1  0  0  0  0
 16 11  1  0  0  0  0
 17 13  2  0  0  0  0
 18 14  1  0  0  0  0
 20  2  1  0  0  0  0
 22  4  1  0  0  0  0
 24  6  1  0  0  0  0
 25  7  1  0  0  0  0
 27  9  1  0  0  0  0
 30 16  1  0  0  0  0
M  END
>  <HBA>
3

>  <HBD>
1

>  <TPSA>
46.53

>  <cid>
1890

>  <dipole>
1.83

>  <excitation_energy_1>
3.793

>  <excitation_energy_2>
4.26

>  <excitation_energy_3>
4.746

>  <excitation_energy_4>
4.9

>  <homo_energy>
-6.248

>  <homo_lumo_gap>
4.947

>  <logP>
3.099

>  <lumo_energy>
-1.301

>  <melting_point>
138.27

>  <molecular_refractivity>
67.52

>  <oscillator_strength_1>
0.001

>  <oscillator_strength_2>
0.053

>  <oscillator_strength_3>
0.2162

>  <oscillator_strength_4>
0.0058

>  <open_babel_can_smiles>
Oc1ccc2c(c1)O[C@@H](CC2=O)c1ccccc1

>  <mulliken_charges>
30
1   -0.125177
2   -0.132618
3   -0.131001
4   -0.166203
5   -0.178291
6   -0.199554
7   -0.178745
8   -0.237737
9   -0.367656
10   0.136238
11   0.367776
12   0.046686
13   0.398546
14   0.046988
15   0.343789
16   -0.632977
17   -0.480946
18   -0.547145
19   0.13271
20   0.134061
21   0.133678
22   0.14458
23   0.129325
24   0.126206
25   0.167157
26   0.155356
27   0.178658
28   0.175762
29   0.147069
30   0.413466

>  <lowdin_charges>
30
1   -0.152416
2   -0.153012
3   -0.153672
4   -0.156707
5   -0.164984
6   -0.226133
7   -0.106053
8   -0.218055
9   -0.314143
10   -0.01296
11   0.125085
12   -0.114507
13   0.148415
14   0.014067
15   0.122952
16   -0.359529
17   -0.256836
18   -0.194509
19   0.157412
20   0.160876
21   0.160443
22   0.165902
23   0.158112
24   0.155769
25   0.179154
26   0.180329
27   0.173087
28   0.176103
29   0.145813
30   0.36

$$$$

