PCCDB-ID:  70719
public computational chemistry database (PCCDB) project, http://pccdb.org

 15 15  0  0  0  0  0  0  0  0999 V2000
    0.9153    0.0523    0.1561 C   0  0  0  0  0  0  0  0  0  0  0  0
    5.1593    0.1759   -0.2451 C   0  0  0  0  0  0  0  0  0  0  0  0
    4.4822    1.3854   -0.1080 C   0  0  0  0  0  0  0  0  0  0  0  0
    4.4123   -1.0000   -0.2447 C   0  0  0  0  0  0  0  0  0  0  0  0
    2.4147    0.1336    0.0156 C   0  0  0  0  0  0  0  0  0  0  0  0
    3.0936    1.3697    0.0244 C   0  0  0  0  0  0  0  0  0  0  0  0
    3.0808   -1.0198   -0.1182 N   0  0  0  0  0  0  0  0  0  0  0  0
    2.3527    2.5133    0.1630 O   0  0  0  0  0  0  0  0  0  0  0  0
    0.4629    1.0386    0.2717 H   0  0  0  0  0  0  0  0  0  0  0  0
    0.6529   -0.5625    1.0244 H   0  0  0  0  0  0  0  0  0  0  0  0
    0.4811   -0.4353   -0.7242 H   0  0  0  0  0  0  0  0  0  0  0  0
    6.2399    0.1505   -0.3495 H   0  0  0  0  0  0  0  0  0  0  0  0
    5.0218    2.3315   -0.1041 H   0  0  0  0  0  0  0  0  0  0  0  0
    4.8993   -1.9676   -0.3498 H   0  0  0  0  0  0  0  0  0  0  0  0
    2.9505    3.2773    0.1624 H   0  0  0  0  0  0  0  0  0  0  0  0
  1  9  1  0  0  0  0
  1 10  1  0  0  0  0
  2  4  2  0  0  0  0
  2  3  1  0  0  0  0
  3 13  1  0  0  0  0
  3  6  2  0  0  0  0
  4  7  1  0  0  0  0
  5  6  1  0  0  0  0
  5  1  1  0  0  0  0
  6  8  1  0  0  0  0
  7  5  2  0  0  0  0
 11  1  1  0  0  0  0
 12  2  1  0  0  0  0
 14  4  1  0  0  0  0
 15  8  1  0  0  0  0
M  END
>  <HBA>
2

>  <HBD>
1

>  <TPSA>
33.12

>  <cid>
70719

>  <dipole>
3.05

>  <excitation_energy_1>
4.826

>  <excitation_energy_2>
4.923

>  <excitation_energy_3>
5.249

>  <excitation_energy_4>
5.509

>  <homo_energy>
-6.155

>  <homo_lumo_gap>
5.646

>  <logP>
1.096

>  <lumo_energy>
-0.509

>  <melting_point>
63.63

>  <molecular_refractivity>
31.23

>  <oscillator_strength_1>
0.0043

>  <oscillator_strength_2>
0.1035

>  <oscillator_strength_3>
0.0004

>  <oscillator_strength_4>
0.0

>  <open_babel_can_smiles>
Oc1cccnc1C

>  <mulliken_charges>
15
1   -0.501802
2   -0.145827
3   -0.159562
4   0.027355
5   0.273407
6   0.301116
7   -0.467983
8   -0.643315
9   0.17228
10   0.168762
11   0.16873
12   0.135239
13   0.127639
14   0.135871
15   0.408089

>  <lowdin_charges>
15
1   -0.448198
2   -0.168829
3   -0.187438
4   -0.110328
5   0.030891
6   0.07504
7   -0.147635
8   -0.378886
9   0.166002
10   0.168527
11   0.168582
12   0.161642
13   0.156517
14   0.155121
15   0.358993

$$$$

