PCCDB-ID:  66314
public computational chemistry database (PCCDB) project, http://pccdb.org

 17 17  0  0  1  0  0  0  0  0999 V2000
    2.7339   -2.4454    2.4137 C   0  0  0  0  0  0  0  0  0  0  0  0
    3.4342   -1.6248    1.6294 C   0  0  0  0  0  0  0  0  0  0  0  0
    3.1225   -0.1717    1.3860 C   0  0  0  0  0  0  0  0  0  0  0  0
    4.2723    0.7812    1.7796 C   0  0  0  0  0  0  0  0  0  0  0  0
    4.0013    1.8055    4.1643 C   0  0  0  0  0  0  0  0  0  0  0  0
    4.5607    0.7861    3.2638 C   0  0  2  0  0  0  0  0  0  0  0  0
    5.3724    1.8647    3.7521 O   0  0  0  0  0  0  0  0  0  0  0  0
    3.0094   -3.4886    2.5428 H   0  0  0  0  0  0  0  0  0  0  0  0
    1.8518   -2.1056    2.9532 H   0  0  0  0  0  0  0  0  0  0  0  0
    4.3122   -2.0125    1.1083 H   0  0  0  0  0  0  0  0  0  0  0  0
    2.2078    0.1071    1.9250 H   0  0  0  0  0  0  0  0  0  0  0  0
    2.9140   -0.0239    0.3163 H   0  0  0  0  0  0  0  0  0  0  0  0
    4.0313    1.8037    1.4650 H   0  0  0  0  0  0  0  0  0  0  0  0
    5.1873    0.4959    1.2416 H   0  0  0  0  0  0  0  0  0  0  0  0
    3.8369    1.5748    5.2175 H   0  0  0  0  0  0  0  0  0  0  0  0
    3.3582    2.5876    3.7576 H   0  0  0  0  0  0  0  0  0  0  0  0
    4.8110   -0.1839    3.6976 H   0  0  0  0  0  0  0  0  0  0  0  0
  1  8  1  0  0  0  0
  1  9  1  0  0  0  0
  2  1  2  0  0  0  0
  3  2  1  0  0  0  0
  3  4  1  0  0  0  0
  3 11  1  0  0  0  0
  4  6  1  0  0  0  0
  5 15  1  0  0  0  0
  6 17  1  1  0  0  0
  6  7  1  0  0  0  0
  6  5  1  0  0  0  0
  7  5  1  0  0  0  0
 10  2  1  0  0  0  0
 12  3  1  0  0  0  0
 13  4  1  0  0  0  0
 14  4  1  0  0  0  0
 16  5  1  0  0  0  0
M  END
>  <HBA>
1

>  <HBD>
0

>  <TPSA>
12.53

>  <cid>
66314

>  <dipole>
1.92

>  <excitation_energy_1>
6.407

>  <excitation_energy_2>
6.466

>  <excitation_energy_3>
6.745

>  <excitation_energy_4>
6.871

>  <homo_energy>
-6.833

>  <homo_lumo_gap>
7.293

>  <logP>
1.351

>  <lumo_energy>
0.46

>  <melting_point>
-33.53

>  <molecular_refractivity>
29.45

>  <oscillator_strength_1>
0.0457

>  <oscillator_strength_2>
0.0281

>  <oscillator_strength_3>
0.0173

>  <oscillator_strength_4>
0.0292

>  <open_babel_can_smiles>
C=CCC[C@@H]1CO1

>  <mulliken_charges>
17
1   -0.34051
2   -0.045106
3   -0.306253
4   -0.291717
5   -0.111731
6   0.115164
7   -0.450572
8   0.141449
9   0.136298
10   0.127304
11   0.14121
12   0.149698
13   0.145101
14   0.14843
15   0.147826
16   0.144627
17   0.148782

>  <lowdin_charges>
17
1   -0.341332
2   -0.148693
3   -0.270862
4   -0.277968
5   -0.167927
6   -0.024825
7   -0.289403
8   0.158143
9   0.154651
10   0.150342
11   0.147907
12   0.153738
13   0.15268
14   0.15167
15   0.150706
16   0.150151
17   0.151024

$$$$

