PCCDB-ID:  7301
public computational chemistry database (PCCDB) project, http://pccdb.org

 16 16  0  0  1  0  0  0  0  0999 V2000
    1.0789   -0.2214    0.3491 C   0  0  0  0  0  0  0  0  0  0  0  0
    4.1915    1.0546   -1.3461 C   0  0  0  0  0  0  0  0  0  0  0  0
    2.7990    1.3545   -0.7739 C   0  0  0  0  0  0  0  0  0  0  0  0
    4.1451   -0.4740   -1.5314 C   0  0  0  0  0  0  0  0  0  0  0  0
    2.5394    0.1111    0.0853 C   0  0  2  0  0  0  0  0  0  0  0  0
    3.1340   -0.9707   -0.6470 O   0  0  0  0  0  0  0  0  0  0  0  0
    0.6043    0.5676    0.9439 H   0  0  0  0  0  0  0  0  0  0  0  0
    0.9935   -1.1641    0.8993 H   0  0  0  0  0  0  0  0  0  0  0  0
    0.5341   -0.3260   -0.5956 H   0  0  0  0  0  0  0  0  0  0  0  0
    4.9660    1.3317   -0.6212 H   0  0  0  0  0  0  0  0  0  0  0  0
    4.4050    1.5860   -2.2788 H   0  0  0  0  0  0  0  0  0  0  0  0
    2.0534    1.4114   -1.5775 H   0  0  0  0  0  0  0  0  0  0  0  0
    2.7544    2.2859   -0.2002 H   0  0  0  0  0  0  0  0  0  0  0  0
    5.1055   -0.9525   -1.2985 H   0  0  0  0  0  0  0  0  0  0  0  0
    3.8733   -0.7499   -2.5598 H   0  0  0  0  0  0  0  0  0  0  0  0
    3.0656    0.2232    1.0501 H   0  0  0  0  0  0  0  0  0  0  0  0
  1  8  1  0  0  0  0
  1  7  1  0  0  0  0
  2  3  1  0  0  0  0
  2 10  1  0  0  0  0
  3 13  1  0  0  0  0
  3  5  1  0  0  0  0
  4  2  1  0  0  0  0
  4 14  1  0  0  0  0
  4  6  1  0  0  0  0
  5  1  1  0  0  0  0
  5 16  1  1  0  0  0
  6  5  1  0  0  0  0
  9  1  1  0  0  0  0
 11  2  1  0  0  0  0
 12  3  1  0  0  0  0
 15  4  1  0  0  0  0
M  END
>  <HBA>
1

>  <HBD>
0

>  <TPSA>
9.23

>  <cid>
7301

>  <dipole>
1.62

>  <excitation_energy_1>
6.123

>  <excitation_energy_2>
6.54

>  <excitation_energy_3>
6.646

>  <excitation_energy_4>
6.854

>  <homo_energy>
-6.46

>  <homo_lumo_gap>
8.855

>  <logP>
1.185

>  <lumo_energy>
2.395

>  <melting_point>
-12.27

>  <molecular_refractivity>
25.12

>  <oscillator_strength_1>
0.0126

>  <oscillator_strength_2>
0.0087

>  <oscillator_strength_3>
0.0215

>  <oscillator_strength_4>
0.0032

>  <open_babel_can_smiles>
C[C@@H]1CCCO1

>  <mulliken_charges>
16
1   -0.45021
2   -0.31503
3   -0.291401
4   -0.001854
5   0.175037
6   -0.503397
7   0.137988
8   0.157575
9   0.14754
10   0.145012
11   0.144863
12   0.140308
13   0.13982
14   0.132346
15   0.13074
16   0.110662

>  <lowdin_charges>
16
1   -0.44926
2   -0.297067
3   -0.293672
4   -0.129302
5   0.007636
6   -0.291812
7   0.152131
8   0.158907
9   0.152394
10   0.147703
11   0.152807
12   0.146478
13   0.151101
14   0.136989
15   0.133144
16   0.121823

$$$$

