PCCDB-ID:  22511
public computational chemistry database (PCCDB) project, http://pccdb.org

 28 27  0  0  1  0  0  0  0  0999 V2000
    6.7954    0.6841   -2.7254 C   0  0  0  0  0  0  0  0  0  0  0  0
    8.1549    1.4795    4.0908 C   0  0  0  0  0  0  0  0  0  0  0  0
    9.8615   -1.0802    2.6888 C   0  0  0  0  0  0  0  0  0  0  0  0
    6.2316   -0.0045   -1.4783 C   0  0  0  0  0  0  0  0  0  0  0  0
    6.6667    0.6627   -0.1666 C   0  0  0  0  0  0  0  0  0  0  0  0
    6.0925   -0.0260    1.0800 C   0  0  0  0  0  0  0  0  0  0  0  0
    6.4294    0.6574    2.4163 C   0  0  0  0  0  0  0  0  0  0  0  0
    7.9167    0.6466    2.8112 C   0  0  2  0  0  0  0  0  0  0  0  0
    8.4241   -0.7772    3.0760 C   0  0  0  0  0  0  0  0  0  0  0  0
    7.7140   -1.6186    3.5958 O   0  0  0  0  0  0  0  0  0  0  0  0
    6.4723    0.1786   -3.6426 H   0  0  0  0  0  0  0  0  0  0  0  0
    7.8925    0.6866   -2.7161 H   0  0  0  0  0  0  0  0  0  0  0  0
    6.4638    1.7281   -2.7862 H   0  0  0  0  0  0  0  0  0  0  0  0
    7.8369    2.5161    3.9340 H   0  0  0  0  0  0  0  0  0  0  0  0
    9.2119    1.4938    4.3812 H   0  0  0  0  0  0  0  0  0  0  0  0
    7.5793    1.0665    4.9264 H   0  0  0  0  0  0  0  0  0  0  0  0
   10.5431   -0.3004    3.0495 H   0  0  0  0  0  0  0  0  0  0  0  0
    9.9493   -1.0935    1.5941 H   0  0  0  0  0  0  0  0  0  0  0  0
   10.1618   -2.0522    3.0853 H   0  0  0  0  0  0  0  0  0  0  0  0
    6.5439   -1.0585   -1.4684 H   0  0  0  0  0  0  0  0  0  0  0  0
    5.1337   -0.0149   -1.5304 H   0  0  0  0  0  0  0  0  0  0  0  0
    6.3530    1.7177   -0.1757 H   0  0  0  0  0  0  0  0  0  0  0  0
    7.7657    0.6755   -0.1238 H   0  0  0  0  0  0  0  0  0  0  0  0
    6.4250   -1.0726    1.1116 H   0  0  0  0  0  0  0  0  0  0  0  0
    4.9983   -0.0641    0.9841 H   0  0  0  0  0  0  0  0  0  0  0  0
    5.8694    0.1616    3.2175 H   0  0  0  0  0  0  0  0  0  0  0  0
    6.0876    1.7015    2.3840 H   0  0  0  0  0  0  0  0  0  0  0  0
    8.5240    1.0855    2.0085 H   0  0  0  0  0  0  0  0  0  0  0  0
  1 12  1  0  0  0  0
  1  4  1  0  0  0  0
  2 15  1  0  0  0  0
  2 16  1  0  0  0  0
  3 17  1  0  0  0  0
  3  9  1  0  0  0  0
  3 19  1  0  0  0  0
  4 20  1  0  0  0  0
  4  5  1  0  0  0  0
  5 23  1  0  0  0  0
  5  6  1  0  0  0  0
  6 24  1  0  0  0  0
  6  7  1  0  0  0  0
  7  8  1  0  0  0  0
  7 26  1  0  0  0  0
  8 28  1  6  0  0  0
  8  9  1  0  0  0  0
  8  2  1  0  0  0  0
  9 10  2  0  0  0  0
 11  1  1  0  0  0  0
 13  1  1  0  0  0  0
 14  2  1  0  0  0  0
 18  3  1  0  0  0  0
 21  4  1  0  0  0  0
 22  5  1  0  0  0  0
 25  6  1  0  0  0  0
 27  7  1  0  0  0  0
M  END
>  <HBA>
1

>  <HBD>
0

>  <TPSA>
17.07

>  <cid>
22511

>  <dipole>
2.5

>  <excitation_energy_1>
4.322

>  <excitation_energy_2>
6.04

>  <excitation_energy_3>
6.576

>  <excitation_energy_4>
6.669

>  <homo_energy>
-6.514

>  <homo_lumo_gap>
6.215

>  <logP>
2.792

>  <lumo_energy>
-0.299

>  <melting_point>
-7.16

>  <molecular_refractivity>
45.58

>  <oscillator_strength_1>
0.0004

>  <oscillator_strength_2>
0.0129

>  <oscillator_strength_3>
0.0277

>  <oscillator_strength_4>
0.0021

>  <open_babel_can_smiles>
CCCCC[C@H](C(=O)C)C

>  <mulliken_charges>
28
1   -0.441717
2   -0.457319
3   -0.534775
4   -0.246522
5   -0.248051
6   -0.268689
7   -0.2531
8   -0.15965
9   0.463135
10   -0.449918
11   0.142743
12   0.139016
13   0.141291
14   0.153607
15   0.144502
16   0.165534
17   0.165142
18   0.172179
19   0.178225
20   0.131573
21   0.132033
22   0.125738
23   0.122396
24   0.142892
25   0.131544
26   0.154519
27   0.123591
28   0.130083

>  <lowdin_charges>
28
1   -0.441474
2   -0.435231
3   -0.475821
4   -0.268095
5   -0.273876
6   -0.275525
7   -0.273095
8   -0.160838
9   0.170315
10   -0.241272
11   0.149979
12   0.142866
13   0.14493
14   0.154051
15   0.147805
16   0.159642
17   0.167191
18   0.169985
19   0.171384
20   0.137998
21   0.137473
22   0.134928
23   0.130801
24   0.143619
25   0.14177
26   0.157541
27   0.138663
28   0.144287

$$$$

