PCCDB-ID:  8467
public computational chemistry database (PCCDB) project, http://pccdb.org

 22 22  0  0  0  0  0  0  0  0999 V2000
    5.7056   -1.0835   -1.4647 C   0  0  0  0  0  0  0  0  0  0  0  0
    6.6320   -0.0628   -0.8298 C   0  0  0  0  0  0  0  0  0  0  0  0
    8.9212    4.4018   -0.5014 C   0  0  0  0  0  0  0  0  0  0  0  0
    9.5562    3.2270   -0.8807 C   0  0  0  0  0  0  0  0  0  0  0  0
    6.7750    3.3440   -0.8737 C   0  0  0  0  0  0  0  0  0  0  0  0
    6.8340    5.7148   -0.1040 C   0  0  0  0  0  0  0  0  0  0  0  0
    7.5212    4.4719   -0.5005 C   0  0  0  0  0  0  0  0  0  0  0  0
    8.8080    2.1058   -1.2654 C   0  0  0  0  0  0  0  0  0  0  0  0
    7.3970    2.1603   -1.2541 C   0  0  0  0  0  0  0  0  0  0  0  0
    7.3932    6.7387    0.2456 O   0  0  0  0  0  0  0  0  0  0  0  0
    9.3886    0.9404   -1.6670 O   0  0  0  0  0  0  0  0  0  0  0  0
    6.6351    1.1028   -1.6773 O   0  0  0  0  0  0  0  0  0  0  0  0
    5.6692   -1.9913   -0.8525 H   0  0  0  0  0  0  0  0  0  0  0  0
    6.0604   -1.3526   -2.4646 H   0  0  0  0  0  0  0  0  0  0  0  0
    4.6907   -0.6834   -1.5551 H   0  0  0  0  0  0  0  0  0  0  0  0
    7.6493   -0.4578   -0.7362 H   0  0  0  0  0  0  0  0  0  0  0  0
    6.2787    0.2241    0.1709 H   0  0  0  0  0  0  0  0  0  0  0  0
    9.4897    5.2777   -0.2060 H   0  0  0  0  0  0  0  0  0  0  0  0
   10.6436    3.1684   -0.8927 H   0  0  0  0  0  0  0  0  0  0  0  0
    5.6883    3.3761   -0.8833 H   0  0  0  0  0  0  0  0  0  0  0  0
    5.7227    5.6617   -0.1457 H   0  0  0  0  0  0  0  0  0  0  0  0
   10.3532    1.0426   -1.6369 H   0  0  0  0  0  0  0  0  0  0  0  0
  1 13  1  0  0  0  0
  1  2  1  0  0  0  0
  2 16  1  0  0  0  0
  2 17  1  0  0  0  0
  3  7  1  0  0  0  0
  3 18  1  0  0  0  0
  4  3  2  0  0  0  0
  5  7  2  0  0  0  0
  6 10  2  0  0  0  0
  7  6  1  0  0  0  0
  8  9  2  0  0  0  0
  8  4  1  0  0  0  0
  9  5  1  0  0  0  0
 11 22  1  0  0  0  0
 11  8  1  0  0  0  0
 12  9  1  0  0  0  0
 12  2  1  0  0  0  0
 14  1  1  0  0  0  0
 15  1  1  0  0  0  0
 19  4  1  0  0  0  0
 20  5  1  0  0  0  0
 21  6  1  0  0  0  0
M  END
>  <HBA>
3

>  <HBD>
1

>  <TPSA>
46.53

>  <cid>
8467

>  <dipole>
4.12

>  <excitation_energy_1>
3.773

>  <excitation_energy_2>
4.41

>  <excitation_energy_3>
4.768

>  <excitation_energy_4>
5.302

>  <homo_energy>
-6.283

>  <homo_lumo_gap>
4.841

>  <logP>
1.603

>  <lumo_energy>
-1.442

>  <melting_point>
83.51

>  <molecular_refractivity>
45.15

>  <oscillator_strength_1>
0.0002

>  <oscillator_strength_2>
0.0984

>  <oscillator_strength_3>
0.1226

>  <oscillator_strength_4>
0.0001

>  <open_babel_can_smiles>
CCOc1cc(C=O)ccc1O

>  <mulliken_charges>
22
1   -0.456176
2   -0.0307
3   -0.16274
4   -0.198456
5   -0.236832
6   0.190494
7   0.093299
8   0.322253
9   0.344128
10   -0.417477
11   -0.628429
12   -0.533605
13   0.147016
14   0.164622
15   0.159279
16   0.156208
17   0.131251
18   0.163856
19   0.130927
20   0.145953
21   0.099842
22   0.415286

>  <lowdin_charges>
22
1   -0.446804
2   -0.118663
3   -0.12513
4   -0.203259
5   -0.152396
6   0.047002
7   -0.069181
8   0.093643
9   0.067695
10   -0.238431
11   -0.356997
12   -0.226103
13   0.156752
14   0.159796
15   0.156575
16   0.144801
17   0.132776
18   0.17842
19   0.15634
20   0.16882
21   0.113097
22   0.361246

$$$$

