PCCDB-ID:  45
public computational chemistry database (PCCDB) project, http://pccdb.org

 12 11  0  0  0  0  0  0  0  0999 V2000
    0.8781    0.0928    0.0272 C   0  0  0  0  0  0  0  0  0  0  0  0
    0.1075    1.3970    0.2584 C   0  0  0  0  0  0  0  0  0  0  0  0
    0.4479   -0.5670   -1.3000 C   0  0  0  0  0  0  0  0  0  0  0  0
    2.2644    0.3258    0.0257 O   0  0  0  0  0  0  0  0  0  0  0  0
   -1.1096    1.4179    0.2394 O   0  0  0  0  0  0  0  0  0  0  0  0
    0.8645    2.4632    0.4753 O   0  0  0  0  0  0  0  0  0  0  0  0
    1.2981   -0.9890   -2.0528 O   0  0  0  0  0  0  0  0  0  0  0  0
   -0.8580   -0.6619   -1.5152 O   0  0  0  0  0  0  0  0  0  0  0  0
    0.5934   -0.5904    0.8424 H   0  0  0  0  0  0  0  0  0  0  0  0
    2.5945   -0.0942   -0.7983 H   0  0  0  0  0  0  0  0  0  0  0  0
    1.7976    2.1580    0.3973 H   0  0  0  0  0  0  0  0  0  0  0  0
   -1.3296   -0.0870   -0.8619 H   0  0  0  0  0  0  0  0  0  0  0  0
  1  2  1  0  0  0  0
  1  9  1  0  0  0  0
  2  6  1  0  0  0  0
  3  1  1  0  0  0  0
  4  1  1  0  0  0  0
  5  2  2  0  0  0  0
  7  3  2  0  0  0  0
  8  3  1  0  0  0  0
  8 12  1  0  0  0  0
 10  4  1  0  0  0  0
 11  6  1  0  0  0  0
M  END
>  <HBA>
5

>  <HBD>
3

>  <TPSA>
94.83

>  <cid>
45

>  <dipole>
2.14

>  <excitation_energy_1>
5.694

>  <excitation_energy_2>
5.883

>  <excitation_energy_3>
6.69

>  <excitation_energy_4>
6.972

>  <homo_energy>
-8.289

>  <homo_lumo_gap>
7.282

>  <logP>
-1.484

>  <lumo_energy>
-1.007

>  <melting_point>
148.36

>  <molecular_refractivity>
21.24

>  <oscillator_strength_1>
0.0032

>  <oscillator_strength_2>
0.0029

>  <oscillator_strength_3>
0.0019

>  <oscillator_strength_4>
0.0407

>  <open_babel_can_smiles>
OC(C(=O)O)C(=O)O

>  <mulliken_charges>
12
1   -0.068111
2   0.61259
3   0.598168
4   -0.651711
5   -0.473888
6   -0.547937
7   -0.454884
8   -0.5579
9   0.214779
10   0.433223
11   0.448567
12   0.447105

>  <lowdin_charges>
12
1   -0.087223
2   0.18088
3   0.185669
4   -0.449
5   -0.262755
6   -0.303751
7   -0.244753
8   -0.322916
9   0.18723
10   0.366081
11   0.375898
12   0.37464

$$$$

