PCCDB-ID:  6547
public computational chemistry database (PCCDB) project, http://pccdb.org

 24 23  0  0  0  0  0  0  0  0999 V2000
    3.9378   -0.6878    1.3340 C   0  0  0  0  0  0  0  0  0  0  0  0
    3.6784   -0.9674   -1.1934 C   0  0  0  0  0  0  0  0  0  0  0  0
    3.5332    3.5206   -1.7200 C   0  0  0  0  0  0  0  0  0  0  0  0
    3.6748    3.8365    0.8123 C   0  0  0  0  0  0  0  0  0  0  0  0
    1.7110   -0.6662    0.2676 C   0  0  0  0  0  0  0  0  0  0  0  0
    5.7089    3.5280   -0.5526 C   0  0  0  0  0  0  0  0  0  0  0  0
    3.1300   -0.2951    0.0809 C   0  0  0  0  0  0  0  0  0  0  0  0
    4.2850    3.1503   -0.4256 C   0  0  0  0  0  0  0  0  0  0  0  0
    0.6081   -0.9937    0.4167 N   0  0  0  0  0  0  0  0  0  0  0  0
    6.8154    3.8605   -0.6552 N   0  0  0  0  0  0  0  0  0  0  0  0
    3.1362    1.2094   -0.0864 N   0  0  0  0  0  0  0  0  0  0  0  0
    4.2793    1.6468   -0.2504 N   0  0  0  0  0  0  0  0  0  0  0  0
    3.8867   -1.7690    1.4899 H   0  0  0  0  0  0  0  0  0  0  0  0
    3.5417   -0.1893    2.2236 H   0  0  0  0  0  0  0  0  0  0  0  0
    4.9797   -0.3904    1.1919 H   0  0  0  0  0  0  0  0  0  0  0  0
    3.6222   -2.0553   -1.0980 H   0  0  0  0  0  0  0  0  0  0  0  0
    4.7205   -0.6685   -1.3316 H   0  0  0  0  0  0  0  0  0  0  0  0
    3.1001   -0.6654   -2.0716 H   0  0  0  0  0  0  0  0  0  0  0  0
    3.5865    4.5995   -1.8902 H   0  0  0  0  0  0  0  0  0  0  0  0
    2.4870    3.2203   -1.6197 H   0  0  0  0  0  0  0  0  0  0  0  0
    3.9707    3.0106   -2.5834 H   0  0  0  0  0  0  0  0  0  0  0  0
    3.7298    4.9233    0.7039 H   0  0  0  0  0  0  0  0  0  0  0  0
    4.2140    3.5503    1.7202 H   0  0  0  0  0  0  0  0  0  0  0  0
    2.6293    3.5337    0.9077 H   0  0  0  0  0  0  0  0  0  0  0  0
  1 13  1  0  0  0  0
  1 14  1  0  0  0  0
  2 16  1  0  0  0  0
  2  7  1  0  0  0  0
  3 20  1  0  0  0  0
  3  8  1  0  0  0  0
  4 24  1  0  0  0  0
  4 23  1  0  0  0  0
  5  9  3  0  0  0  0
  6  8  1  0  0  0  0
  7  5  1  0  0  0  0
  7  1  1  0  0  0  0
  8 12  1  0  0  0  0
  8  4  1  0  0  0  0
 10  6  3  0  0  0  0
 11  7  1  0  0  0  0
 12 11  1  0  0  0  0
 15  1  1  0  0  0  0
 17  2  1  0  0  0  0
 18  2  1  0  0  0  0
 19  3  1  0  0  0  0
 21  3  1  0  0  0  0
 22  4  1  0  0  0  0
M  RAD  2  11   2  12   2
M  END
>  <HBA>
4

>  <HBD>
0

>  <TPSA>
72.3

>  <cid>
6547

>  <dipole>
0.18

>  <excitation_energy_1>
3.17

>  <excitation_energy_2>
5.881

>  <excitation_energy_3>
5.979

>  <excitation_energy_4>
6.059

>  <homo_energy>
-7.026

>  <homo_lumo_gap>
4.83

>  <logP>
2.043

>  <lumo_energy>
-2.196

>  <melting_point>
77.48

>  <molecular_refractivity>
45.0

>  <oscillator_strength_1>
0.0

>  <oscillator_strength_2>
0.0305

>  <oscillator_strength_3>
0.0

>  <oscillator_strength_4>
0.0

>  <open_babel_can_smiles>
N#CC([N][N]C(C#N)(C)C)(C)C

>  <mulliken_charges>
24
1   -0.448523
2   -0.448563
3   -0.447992
4   -0.448863
5   0.354727
6   0.35475
7   0.112707
8   0.112567
9   -0.470477
10   -0.470424
11   -0.167343
12   -0.167285
13   0.1739
14   0.173565
15   0.186534
16   0.174033
17   0.186055
18   0.173317
19   0.174441
20   0.185327
21   0.173837
22   0.173501
23   0.173057
24   0.187152

>  <lowdin_charges>
24
1   -0.433277
2   -0.433229
3   -0.432846
4   -0.433547
5   -0.017853
6   -0.017923
7   0.053486
8   0.053531
9   -0.113937
10   -0.113905
11   -0.069191
12   -0.069123
13   0.167919
14   0.167895
15   0.171376
16   0.167862
17   0.17115
18   0.167738
19   0.168172
20   0.170698
21   0.168135
22   0.167689
23   0.167506
24   0.171674

$$$$

