PCCDB-ID:  10364
public computational chemistry database (PCCDB) project, http://pccdb.org

 25 25  0  0  0  0  0  0  0  0999 V2000
    3.2668   -0.1541   -1.2578 C   0  0  0  0  0  0  0  0  0  0  0  0
    0.9397   -0.0293   -0.2507 C   0  0  0  0  0  0  0  0  0  0  0  0
    4.1850   -3.4397    4.3982 C   0  0  0  0  0  0  0  0  0  0  0  0
    3.8755   -1.1335    3.3634 C   0  0  0  0  0  0  0  0  0  0  0  0
    3.4621   -0.2933    2.3257 C   0  0  0  0  0  0  0  0  0  0  0  0
    2.7610   -2.2155    1.0736 C   0  0  0  0  0  0  0  0  0  0  0  0
    2.4504    0.0878    0.0262 C   0  0  0  0  0  0  0  0  0  0  0  0
    3.7455   -2.5201    3.2878 C   0  0  0  0  0  0  0  0  0  0  0  0
    2.8971   -0.8225    1.1625 C   0  0  0  0  0  0  0  0  0  0  0  0
    3.1754   -3.0462    2.1143 C   0  0  0  0  0  0  0  0  0  0  0  0
    3.0496   -4.4117    2.0506 O   0  0  0  0  0  0  0  0  0  0  0  0
    2.9704    0.5506   -2.0441 H   0  0  0  0  0  0  0  0  0  0  0  0
    3.1094   -1.1683   -1.6444 H   0  0  0  0  0  0  0  0  0  0  0  0
    4.3394   -0.0307   -1.0737 H   0  0  0  0  0  0  0  0  0  0  0  0
    0.6316    0.6858   -1.0229 H   0  0  0  0  0  0  0  0  0  0  0  0
    0.3545    0.1702    0.6535 H   0  0  0  0  0  0  0  0  0  0  0  0
    0.6750   -1.0329   -0.6049 H   0  0  0  0  0  0  0  0  0  0  0  0
    4.6186   -2.8710    5.2266 H   0  0  0  0  0  0  0  0  0  0  0  0
    4.9320   -4.1622    4.0478 H   0  0  0  0  0  0  0  0  0  0  0  0
    3.3445   -4.0273    4.7874 H   0  0  0  0  0  0  0  0  0  0  0  0
    4.3137   -0.6995    4.2596 H   0  0  0  0  0  0  0  0  0  0  0  0
    3.5800    0.7829    2.4249 H   0  0  0  0  0  0  0  0  0  0  0  0
    2.3272   -2.6658    0.1813 H   0  0  0  0  0  0  0  0  0  0  0  0
    2.6455    1.1193    0.3495 H   0  0  0  0  0  0  0  0  0  0  0  0
    2.6546   -4.6483    1.1973 H   0  0  0  0  0  0  0  0  0  0  0  0
  1 14  1  0  0  0  0
  1  7  1  0  0  0  0
  2  7  1  0  0  0  0
  2 16  1  0  0  0  0
  3 20  1  0  0  0  0
  3 18  1  0  0  0  0
  4 21  1  0  0  0  0
  5 22  1  0  0  0  0
  5  4  2  0  0  0  0
  6  9  2  0  0  0  0
  6 10  1  0  0  0  0
  7 24  1  0  0  0  0
  7  9  1  0  0  0  0
  8  4  1  0  0  0  0
  8  3  1  0  0  0  0
  9  5  1  0  0  0  0
 10  8  2  0  0  0  0
 11 10  1  0  0  0  0
 12  1  1  0  0  0  0
 13  1  1  0  0  0  0
 15  2  1  0  0  0  0
 17  2  1  0  0  0  0
 19  3  1  0  0  0  0
 23  6  1  0  0  0  0
 25 11  1  0  0  0  0
M  END
>  <HBA>
1

>  <HBD>
1

>  <TPSA>
20.23

>  <cid>
10364

>  <dipole>
1.29

>  <excitation_energy_1>
4.988

>  <excitation_energy_2>
5.002

>  <excitation_energy_3>
5.589

>  <excitation_energy_4>
5.648

>  <homo_energy>
-5.728

>  <homo_lumo_gap>
5.935

>  <logP>
2.824

>  <lumo_energy>
0.207

>  <melting_point>
51.64

>  <molecular_refractivity>
48.01

>  <oscillator_strength_1>
0.0491

>  <oscillator_strength_2>
0.0034

>  <oscillator_strength_3>
0.0082

>  <oscillator_strength_4>
0.0005

>  <open_babel_can_smiles>
CC(c1ccc(c(c1)O)C)C

>  <mulliken_charges>
25
1   -0.436985
2   -0.438006
3   -0.513716
4   -0.189963
5   -0.201729
6   -0.253205
7   -0.160942
8   0.142163
9   0.184685
10   0.298343
11   -0.646453
12   0.140324
13   0.139012
14   0.150695
15   0.140535
16   0.150856
17   0.138828
18   0.146012
19   0.165111
20   0.164928
21   0.119777
22   0.116492
23   0.107697
24   0.129647
25   0.405893

>  <lowdin_charges>
25
1   -0.439868
2   -0.442604
3   -0.438927
4   -0.157799
5   -0.190994
6   -0.224096
7   -0.116255
8   -0.03184
9   0.005852
10   0.097174
11   -0.384949
12   0.148601
13   0.144434
14   0.15167
15   0.148887
16   0.153785
17   0.144369
18   0.154534
19   0.163556
20   0.16337
21   0.154791
22   0.150707
23   0.147982
24   0.14171
25   0.355911

$$$$

