PCCDB-ID:  10356
public computational chemistry database (PCCDB) project, http://pccdb.org

 21 21  0  0  0  0  0  0  0  0999 V2000
    0.9943    0.0528    0.0515 C   0  0  0  0  0  0  0  0  0  0  0  0
    5.3943    2.5534    0.0059 C   0  0  0  0  0  0  0  0  0  0  0  0
    3.2341    1.2314   -0.0235 C   0  0  0  0  0  0  0  0  0  0  0  0
    3.2070   -1.1689   -0.0996 C   0  0  0  0  0  0  0  0  0  0  0  0
    5.3119    0.0273   -0.1005 C   0  0  0  0  0  0  0  0  0  0  0  0
    2.5030    0.0378   -0.0345 C   0  0  0  0  0  0  0  0  0  0  0  0
    4.6350    1.2481   -0.0480 C   0  0  0  0  0  0  0  0  0  0  0  0
    4.6075   -1.1808   -0.1404 C   0  0  0  0  0  0  0  0  0  0  0  0
    5.4068   -2.4483   -0.2049 C   0  0  0  0  0  0  0  0  0  0  0  0
    6.5606   -2.5295    0.1446 O   0  0  0  0  0  0  0  0  0  0  0  0
    4.7674   -3.5496   -0.6902 O   0  0  0  0  0  0  0  0  0  0  0  0
    0.5764    0.9504   -0.4162 H   0  0  0  0  0  0  0  0  0  0  0  0
    0.6570    0.0431    1.0963 H   0  0  0  0  0  0  0  0  0  0  0  0
    0.5537   -0.8210   -0.4401 H   0  0  0  0  0  0  0  0  0  0  0  0
    4.8242    3.3689   -0.4513 H   0  0  0  0  0  0  0  0  0  0  0  0
    6.3564    2.4780   -0.5108 H   0  0  0  0  0  0  0  0  0  0  0  0
    5.6043    2.8437    1.0438 H   0  0  0  0  0  0  0  0  0  0  0  0
    2.6955    2.1769    0.0115 H   0  0  0  0  0  0  0  0  0  0  0  0
    2.6442   -2.1008   -0.0757 H   0  0  0  0  0  0  0  0  0  0  0  0
    6.3968   -0.0073   -0.1196 H   0  0  0  0  0  0  0  0  0  0  0  0
    3.9128   -3.2916   -1.0719 H   0  0  0  0  0  0  0  0  0  0  0  0
  1 13  1  0  0  0  0
  2 17  1  0  0  0  0
  3 18  1  0  0  0  0
  4 19  1  0  0  0  0
  4  6  2  0  0  0  0
  5  7  1  0  0  0  0
  6  3  1  0  0  0  0
  6  1  1  0  0  0  0
  7  3  2  0  0  0  0
  7  2  1  0  0  0  0
  8  5  2  0  0  0  0
  8  4  1  0  0  0  0
  9  8  1  0  0  0  0
  9 10  2  0  0  0  0
 11  9  1  0  0  0  0
 12  1  1  0  0  0  0
 14  1  1  0  0  0  0
 15  2  1  0  0  0  0
 16  2  1  0  0  0  0
 20  5  1  0  0  0  0
 21 11  1  0  0  0  0
M  END
>  <HBA>
2

>  <HBD>
1

>  <TPSA>
37.3

>  <cid>
10356

>  <dipole>
5.16

>  <excitation_energy_1>
4.683

>  <excitation_energy_2>
4.783

>  <excitation_energy_3>
5.33

>  <excitation_energy_4>
5.969

>  <homo_energy>
-6.852

>  <homo_lumo_gap>
5.611

>  <logP>
2.002

>  <lumo_energy>
-1.241

>  <melting_point>
104.32

>  <molecular_refractivity>
43.33

>  <oscillator_strength_1>
0.0215

>  <oscillator_strength_2>
0.0145

>  <oscillator_strength_3>
0.0917

>  <oscillator_strength_4>
0.0982

>  <open_babel_can_smiles>
OC(=O)c1cc(C)cc(c1)C

>  <mulliken_charges>
21
1   -0.531011
2   -0.529454
3   -0.223325
4   -0.260393
5   -0.213473
6   0.18162
7   0.177414
8   0.064544
9   0.548561
10   -0.447729
11   -0.576383
12   0.16267
13   0.173544
14   0.15788
15   0.158802
16   0.165944
17   0.173223
18   0.124142
19   0.123895
20   0.159309
21   0.410222

>  <lowdin_charges>
21
1   -0.442362
2   -0.441416
3   -0.162499
4   -0.18356
5   -0.142508
6   0.007561
7   0.008477
8   -0.052606
9   0.190595
10   -0.239886
11   -0.357039
12   0.162067
13   0.16527
14   0.159502
15   0.160394
16   0.163022
17   0.165724
18   0.156428
19   0.152753
20   0.173669
21   0.356413

$$$$

