PCCDB-ID:  16968
public computational chemistry database (PCCDB) project, http://pccdb.org

 19 18  0  0  0  0  0  0  0  0999 V2000
    0.6968   -0.6651    0.6512 C   0  0  0  0  0  0  0  0  0  0  0  0
    7.8322   -1.2986    1.3592 C   0  0  0  0  0  0  0  0  0  0  0  0
    1.8343   -0.2942    1.2400 C   0  0  0  0  0  0  0  0  0  0  0  0
    6.6929   -1.6895    0.7868 C   0  0  0  0  0  0  0  0  0  0  0  0
    2.9195   -1.2281    1.7019 C   0  0  0  0  0  0  0  0  0  0  0  0
    5.3880   -1.9035    1.5042 C   0  0  0  0  0  0  0  0  0  0  0  0
    4.2666   -0.9764    0.9984 C   0  0  0  0  0  0  0  0  0  0  0  0
   -0.0477    0.0598    0.3327 H   0  0  0  0  0  0  0  0  0  0  0  0
    0.4634   -1.7125    0.4683 H   0  0  0  0  0  0  0  0  0  0  0  0
    8.7434   -1.1544    0.7847 H   0  0  0  0  0  0  0  0  0  0  0  0
    7.8984   -1.1113    2.4294 H   0  0  0  0  0  0  0  0  0  0  0  0
    2.0249    0.7689    1.4002 H   0  0  0  0  0  0  0  0  0  0  0  0
    6.6742   -1.8618   -0.2911 H   0  0  0  0  0  0  0  0  0  0  0  0
    2.6066   -2.2683    1.5402 H   0  0  0  0  0  0  0  0  0  0  0  0
    3.0648   -1.1106    2.7873 H   0  0  0  0  0  0  0  0  0  0  0  0
    5.5301   -1.7574    2.5835 H   0  0  0  0  0  0  0  0  0  0  0  0
    5.0650   -2.9478    1.3703 H   0  0  0  0  0  0  0  0  0  0  0  0
    4.5713    0.0687    1.1457 H   0  0  0  0  0  0  0  0  0  0  0  0
    4.1364   -1.1095   -0.0841 H   0  0  0  0  0  0  0  0  0  0  0  0
  1  3  2  0  0  0  0
  2 11  1  0  0  0  0
  3 12  1  0  0  0  0
  3  5  1  0  0  0  0
  4  2  2  0  0  0  0
  4  6  1  0  0  0  0
  5 15  1  0  0  0  0
  6 16  1  0  0  0  0
  7 18  1  0  0  0  0
  7  6  1  0  0  0  0
  7  5  1  0  0  0  0
  8  1  1  0  0  0  0
  9  1  1  0  0  0  0
 10  2  1  0  0  0  0
 13  4  1  0  0  0  0
 14  5  1  0  0  0  0
 17  6  1  0  0  0  0
 19  7  1  0  0  0  0
M  END
>  <HBA>
0

>  <HBD>
0

>  <TPSA>
0.0

>  <cid>
16968

>  <dipole>
0.08

>  <excitation_energy_1>
6.463

>  <excitation_energy_2>
6.489

>  <excitation_energy_3>
6.554

>  <excitation_energy_4>
6.62

>  <homo_energy>
-6.7

>  <homo_lumo_gap>
7.203

>  <logP>
2.529

>  <lumo_energy>
0.503

>  <melting_point>
-68.42

>  <molecular_refractivity>
34.81

>  <oscillator_strength_1>
0.1196

>  <oscillator_strength_2>
0.2144

>  <oscillator_strength_3>
0.033

>  <oscillator_strength_4>
0.001

>  <open_babel_can_smiles>
C=CCCCC=C

>  <mulliken_charges>
19
1   -0.341376
2   -0.341377
3   -0.041173
4   -0.041217
5   -0.301139
6   -0.301161
7   -0.255898
8   0.13751
9   0.133456
10   0.137538
11   0.133468
12   0.123569
13   0.123606
14   0.136464
15   0.140924
16   0.136468
17   0.140879
18   0.139733
19   0.139726

>  <lowdin_charges>
19
1   -0.344518
2   -0.343019
3   -0.142198
4   -0.141875
5   -0.268602
6   -0.26865
7   -0.268683
8   0.158617
9   0.151786
10   0.157786
11   0.151245
12   0.147017
13   0.146616
14   0.144003
15   0.145852
16   0.143333
17   0.146549
18   0.142699
19   0.142039

$$$$

