PCCDB-ID:  61157
public computational chemistry database (PCCDB) project, http://pccdb.org

 16 15  0  0  0  0  0  0  0  0999 V2000
    1.3689   -0.0660    0.0108 C   0  0  0  0  0  0  0  0  0  0  0  0
    1.1947    2.2877    0.9795 C   0  0  0  0  0  0  0  0  0  0  0  0
    0.7182    0.8431    1.0613 C   0  0  0  0  0  0  0  0  0  0  0  0
    0.6805   -1.3672    0.0404 N   0  0  0  0  0  0  0  0  0  0  0  0
    0.6019    3.0611    2.0733 N   0  0  0  0  0  0  0  0  0  0  0  0
   -0.6904    0.8400    0.8724 O   0  0  0  0  0  0  0  0  0  0  0  0
    2.4564   -0.1273    0.1789 H   0  0  0  0  0  0  0  0  0  0  0  0
    1.2069    0.3706   -0.9818 H   0  0  0  0  0  0  0  0  0  0  0  0
    0.9484    2.6653   -0.0300 H   0  0  0  0  0  0  0  0  0  0  0  0
    2.2878    2.3136    1.0839 H   0  0  0  0  0  0  0  0  0  0  0  0
    0.9656    0.4605    2.0684 H   0  0  0  0  0  0  0  0  0  0  0  0
    1.0156   -1.9257    0.8241 H   0  0  0  0  0  0  0  0  0  0  0  0
    0.8748   -1.9006   -0.8034 H   0  0  0  0  0  0  0  0  0  0  0  0
   -0.4113    2.9768    2.0017 H   0  0  0  0  0  0  0  0  0  0  0  0
    0.8198    4.0490    1.9550 H   0  0  0  0  0  0  0  0  0  0  0  0
   -0.8930   -0.0797    0.6083 H   0  0  0  0  0  0  0  0  0  0  0  0
  1  4  1  0  0  0  0
  1  7  1  0  0  0  0
  1  3  1  0  0  0  0
  2  3  1  0  0  0  0
  2 10  1  0  0  0  0
  2  5  1  0  0  0  0
  3 11  1  0  0  0  0
  4 12  1  0  0  0  0
  6  3  1  0  0  0  0
  8  1  1  0  0  0  0
  9  2  1  0  0  0  0
 13  4  1  0  0  0  0
 14  5  1  0  0  0  0
 15  5  1  0  0  0  0
 16  6  1  0  0  0  0
M  END
>  <HBA>
3

>  <HBD>
3

>  <TPSA>
72.27

>  <cid>
61157

>  <dipole>
2.92

>  <excitation_energy_1>
5.659

>  <excitation_energy_2>
5.804

>  <excitation_energy_3>
5.957

>  <excitation_energy_4>
6.35

>  <homo_energy>
-6.052

>  <homo_lumo_gap>
7.913

>  <logP>
-0.335

>  <lumo_energy>
1.861

>  <melting_point>
102.54

>  <molecular_refractivity>
23.11

>  <oscillator_strength_1>
0.0051

>  <oscillator_strength_2>
0.0045

>  <oscillator_strength_3>
0.0043

>  <oscillator_strength_4>
0.0345

>  <open_babel_can_smiles>
NCC(CN)O

>  <mulliken_charges>
16
1   -0.167452
2   -0.1298
3   0.164782
4   -0.746221
5   -0.727462
6   -0.657556
7   0.124403
8   0.147252
9   0.114032
10   0.127619
11   0.114373
12   0.307336
13   0.311686
14   0.315989
15   0.290923
16   0.410095

>  <lowdin_charges>
16
1   -0.22219
2   -0.206575
3   -0.010659
4   -0.557693
5   -0.555334
6   -0.482846
7   0.127302
8   0.146805
9   0.119882
10   0.137343
11   0.124244
12   0.2611
13   0.26482
14   0.260832
15   0.250294
16   0.342674

$$$$

