PCCDB-ID:  19496
public computational chemistry database (PCCDB) project, http://pccdb.org

 21 21  0  0  0  0  0  0  0  0999 V2000
   -0.8519    0.6164   -0.4896 C   0  0  0  0  0  0  0  0  0  0  0  0
    1.0169   -0.4677    0.6425 C   0  0  0  0  0  0  0  0  0  0  0  0
   -1.5040   -0.6077   -0.6067 C   0  0  0  0  0  0  0  0  0  0  0  0
    0.3720   -1.6911    0.5303 C   0  0  0  0  0  0  0  0  0  0  0  0
    2.7942    3.9026    2.1295 C   0  0  0  0  0  0  0  0  0  0  0  0
    3.8231    3.5474   -0.0466 C   0  0  0  0  0  0  0  0  0  0  0  0
    0.4014    0.6869    0.1304 C   0  0  0  0  0  0  0  0  0  0  0  0
    2.5771    3.4791    0.7358 C   0  0  0  0  0  0  0  0  0  0  0  0
   -0.8782   -1.7396   -0.0922 C   0  0  0  0  0  0  0  0  0  0  0  0
    2.9293    4.2327    3.2325 N   0  0  0  0  0  0  0  0  0  0  0  0
    4.7847    3.5918   -0.6925 N   0  0  0  0  0  0  0  0  0  0  0  0
    0.9661    1.9948    0.1893 N   0  0  0  0  0  0  0  0  0  0  0  0
    2.0867    2.0592    0.7346 N   0  0  0  0  0  0  0  0  0  0  0  0
   -1.5622   -3.0436   -0.2092 N   0  0  0  0  0  0  0  0  0  0  0  0
   -2.6638   -3.0587   -0.7541 O   0  0  0  0  0  0  0  0  0  0  0  0
   -0.9852   -4.0287    0.2463 O   0  0  0  0  0  0  0  0  0  0  0  0
   -1.2965    1.5283   -0.8737 H   0  0  0  0  0  0  0  0  0  0  0  0
    1.9870   -0.3899    1.1194 H   0  0  0  0  0  0  0  0  0  0  0  0
   -2.4737   -0.6979   -1.0797 H   0  0  0  0  0  0  0  0  0  0  0  0
    0.8125   -2.6039    0.9116 H   0  0  0  0  0  0  0  0  0  0  0  0
    1.8228    4.1304    0.2718 H   0  0  0  0  0  0  0  0  0  0  0  0
  1  7  1  0  0  0  0
  2 18  1  0  0  0  0
  3  1  2  0  0  0  0
  3  9  1  0  0  0  0
  4  2  1  0  0  0  0
  4 20  1  0  0  0  0
  5 10  3  0  0  0  0
  6  8  1  0  0  0  0
  7 12  1  0  0  0  0
  7  2  2  0  0  0  0
  8  5  1  0  0  0  0
  9  4  2  0  0  0  0
 11  6  3  0  0  0  0
 12 13  1  0  0  0  0
 13  8  1  0  0  0  0
 14  9  1  0  0  0  0
 14 16  2  0  0  0  0
 15 14  2  0  0  0  0
 17  1  1  0  0  0  0
 19  3  1  0  0  0  0
 21  8  1  0  0  0  0
M  RAD  2  12   2  13   2
M  END
>  <HBA>
4

>  <HBD>
0

>  <TPSA>
118.12

>  <cid>
19496

>  <dipole>
2.77

>  <excitation_energy_1>
2.898

>  <excitation_energy_2>
3.55

>  <excitation_energy_3>
3.869

>  <excitation_energy_4>
4.035

>  <homo_energy>
-7.908

>  <homo_lumo_gap>
4.193

>  <logP>
2.617

>  <lumo_energy>
-3.714

>  <melting_point>
132.49

>  <molecular_refractivity>
54.76

>  <oscillator_strength_1>
0.0002

>  <oscillator_strength_2>
0.0

>  <oscillator_strength_3>
0.0209

>  <oscillator_strength_4>
0.0002

>  <open_babel_can_smiles>
N#CC(C#N)[N][N]c1ccc(cc1)N(=O)=O

>  <mulliken_charges>
21
1   -0.144711
2   -0.12835
3   -0.155786
4   -0.163619
5   0.394792
6   0.395198
7   0.272335
8   -0.105928
9   0.288587
10   -0.427515
11   -0.427327
12   -0.269102
13   -0.154459
14   0.386677
15   -0.383036
16   -0.382128
17   0.172492
18   0.188535
19   0.19831
20   0.199974
21   0.245061

>  <lowdin_charges>
21
1   -0.129175
2   -0.131308
3   -0.131602
4   -0.130125
5   -0.009316
6   -0.008622
7   0.020328
8   -0.060118
9   0.021235
10   -0.066669
11   -0.066729
12   -0.049119
13   -0.068691
14   0.307279
15   -0.233415
16   -0.233586
17   0.183058
18   0.188488
19   0.19501
20   0.196055
21   0.207024

$$$$

