PCCDB-ID:  13581
public computational chemistry database (PCCDB) project, http://pccdb.org

 21 20  0  0  0  0  0  0  0  0999 V2000
    6.2802   -3.8054   -1.0168 C   0  0  0  0  0  0  0  0  0  0  0  0
    5.6224   -3.6144   -2.1640 C   0  0  0  0  0  0  0  0  0  0  0  0
    4.9447    2.2690    0.9095 C   0  0  0  0  0  0  0  0  0  0  0  0
    5.5429    1.5098   -0.2643 C   0  0  0  0  0  0  0  0  0  0  0  0
    4.2972   -1.7380   -1.4789 C   0  0  0  0  0  0  0  0  0  0  0  0
    5.2632   -0.5565   -1.4092 C   0  0  0  0  0  0  0  0  0  0  0  0
    4.9714    1.4908    2.0933 O   0  0  0  0  0  0  0  0  0  0  0  0
    4.6893   -2.6738   -2.4796 O   0  0  0  0  0  0  0  0  0  0  0  0
    4.7528    0.3393   -0.4382 O   0  0  0  0  0  0  0  0  0  0  0  0
    6.9781   -4.6317   -0.9483 H   0  0  0  0  0  0  0  0  0  0  0  0
    6.1617   -3.1853   -0.1357 H   0  0  0  0  0  0  0  0  0  0  0  0
    5.7816   -4.2568   -3.0260 H   0  0  0  0  0  0  0  0  0  0  0  0
    3.9183    2.5783    0.6532 H   0  0  0  0  0  0  0  0  0  0  0  0
    5.5311    3.1728    1.1053 H   0  0  0  0  0  0  0  0  0  0  0  0
    6.5852    1.2323   -0.0417 H   0  0  0  0  0  0  0  0  0  0  0  0
    5.5343    2.1238   -1.1799 H   0  0  0  0  0  0  0  0  0  0  0  0
    3.3073   -1.3814   -1.7754 H   0  0  0  0  0  0  0  0  0  0  0  0
    4.2085   -2.2248   -0.5004 H   0  0  0  0  0  0  0  0  0  0  0  0
    5.3216   -0.0737   -2.3973 H   0  0  0  0  0  0  0  0  0  0  0  0
    6.2757   -0.8921   -1.1402 H   0  0  0  0  0  0  0  0  0  0  0  0
    4.5747    0.6379    1.8505 H   0  0  0  0  0  0  0  0  0  0  0  0
  1 10  1  0  0  0  0
  1 11  1  0  0  0  0
  2  1  2  0  0  0  0
  3 14  1  0  0  0  0
  3  7  1  0  0  0  0
  4 15  1  0  0  0  0
  4  3  1  0  0  0  0
  5  6  1  0  0  0  0
  5 18  1  0  0  0  0
  6 20  1  0  0  0  0
  6  9  1  0  0  0  0
  8  2  1  0  0  0  0
  8  5  1  0  0  0  0
  9  4  1  0  0  0  0
 12  2  1  0  0  0  0
 13  3  1  0  0  0  0
 16  4  1  0  0  0  0
 17  5  1  0  0  0  0
 19  6  1  0  0  0  0
 21  7  1  0  0  0  0
M  END
>  <HBA>
3

>  <HBD>
1

>  <TPSA>
38.69

>  <cid>
13581

>  <dipole>
1.49

>  <excitation_energy_1>
5.897

>  <excitation_energy_2>
6.02

>  <excitation_energy_3>
6.282

>  <excitation_energy_4>
6.419

>  <homo_energy>
-6.251

>  <homo_lumo_gap>
7.233

>  <logP>
0.155

>  <lumo_energy>
0.982

>  <melting_point>
-46.44

>  <molecular_refractivity>
33.81

>  <oscillator_strength_1>
0.0301

>  <oscillator_strength_2>
0.0055

>  <oscillator_strength_3>
0.0358

>  <oscillator_strength_4>
0.0039

>  <open_babel_can_smiles>
OCCOCCOC=C

>  <mulliken_charges>
21
1   -0.397403
2   0.150524
3   -0.03619
4   -0.033136
5   -0.059008
6   -0.026714
7   -0.619727
8   -0.452034
9   -0.497548
10   0.145706
11   0.143008
12   0.145818
13   0.131569
14   0.147169
15   0.135541
16   0.124973
17   0.166174
18   0.152113
19   0.137223
20   0.143544
21   0.398397

>  <lowdin_charges>
21
1   -0.430423
2   -0.03386
3   -0.139024
4   -0.146033
5   -0.13489
6   -0.140463
7   -0.466878
8   -0.196145
9   -0.283032
10   0.171209
11   0.161725
12   0.161231
13   0.132161
14   0.151775
15   0.13449
16   0.13403
17   0.159352
18   0.146857
19   0.135926
20   0.138534
21   0.343457

$$$$

