PCCDB-ID:  26135
public computational chemistry database (PCCDB) project, http://pccdb.org

 22 23  0  0  0  0  0  0  0  0999 V2000
    0.7711    0.0709    0.1106 C   0  0  0  0  0  0  0  0  0  0  0  0
    6.5317   -2.3322   -0.0905 C   0  0  0  0  0  0  0  0  0  0  0  0
    7.2327   -1.1034   -0.1086 C   0  0  0  0  0  0  0  0  0  0  0  0
    5.1550   -2.3479   -0.0448 C   0  0  0  0  0  0  0  0  0  0  0  0
    6.5431    0.0896   -0.0800 C   0  0  0  0  0  0  0  0  0  0  0  0
    2.9877   -1.1305    0.0351 C   0  0  0  0  0  0  0  0  0  0  0  0
    2.9922    1.2817    0.0473 C   0  0  0  0  0  0  0  0  0  0  0  0
    2.2800    0.0514    0.0649 C   0  0  0  0  0  0  0  0  0  0  0  0
    4.4090   -1.1396   -0.0135 C   0  0  0  0  0  0  0  0  0  0  0  0
    5.1261    0.0980   -0.0316 C   0  0  0  0  0  0  0  0  0  0  0  0
    4.3686    1.3084    0.0006 C   0  0  0  0  0  0  0  0  0  0  0  0
    5.0870    2.4734   -0.0155 O   0  0  0  0  0  0  0  0  0  0  0  0
    0.3620   -0.9411    0.1857 H   0  0  0  0  0  0  0  0  0  0  0  0
    0.3502    0.5364   -0.7903 H   0  0  0  0  0  0  0  0  0  0  0  0
    0.4041    0.6472    0.9694 H   0  0  0  0  0  0  0  0  0  0  0  0
    7.0853   -3.2674   -0.1131 H   0  0  0  0  0  0  0  0  0  0  0  0
    8.3187   -1.1030   -0.1452 H   0  0  0  0  0  0  0  0  0  0  0  0
    4.6157   -3.2922   -0.0308 H   0  0  0  0  0  0  0  0  0  0  0  0
    7.0715    1.0367   -0.0929 H   0  0  0  0  0  0  0  0  0  0  0  0
    2.4599   -2.0812    0.0502 H   0  0  0  0  0  0  0  0  0  0  0  0
    2.4363    2.2187    0.0725 H   0  0  0  0  0  0  0  0  0  0  0  0
    4.4685    3.2200    0.0063 H   0  0  0  0  0  0  0  0  0  0  0  0
  1 13  1  0  0  0  0
  1 15  1  0  0  0  0
  2  4  1  0  0  0  0
  3  2  2  0  0  0  0
  3  5  1  0  0  0  0
  4 18  1  0  0  0  0
  4  9  2  0  0  0  0
  5 10  2  0  0  0  0
  6 20  1  0  0  0  0
  6  8  2  0  0  0  0
  7  8  1  0  0  0  0
  7 21  1  0  0  0  0
  8  1  1  0  0  0  0
  9  6  1  0  0  0  0
 10  9  1  0  0  0  0
 10 11  1  0  0  0  0
 11  7  2  0  0  0  0
 12 11  1  0  0  0  0
 12 22  1  0  0  0  0
 14  1  1  0  0  0  0
 16  2  1  0  0  0  0
 17  3  1  0  0  0  0
 19  5  1  0  0  0  0
M  END
>  <HBA>
1

>  <HBD>
1

>  <TPSA>
20.23

>  <cid>
26135

>  <dipole>
1.63

>  <excitation_energy_1>
4.141

>  <excitation_energy_2>
4.32

>  <excitation_energy_3>
4.698

>  <excitation_energy_4>
5.299

>  <homo_energy>
-5.353

>  <homo_lumo_gap>
4.67

>  <logP>
2.854

>  <lumo_energy>
-0.683

>  <melting_point>
93.46

>  <molecular_refractivity>
50.94

>  <oscillator_strength_1>
0.0605

>  <oscillator_strength_2>
0.0373

>  <oscillator_strength_3>
0.0

>  <oscillator_strength_4>
0.0001

>  <open_babel_can_smiles>
Cc1cc2ccccc2c(c1)O

>  <mulliken_charges>
22
1   -0.532967
2   -0.130719
3   -0.139714
4   -0.200723
5   -0.172524
6   -0.265128
7   -0.253479
8   0.181518
9   0.142143
10   0.081268
11   0.294404
12   -0.64444
13   0.157841
14   0.161041
15   0.158845
16   0.127193
17   0.127211
18   0.126737
19   0.149648
20   0.116729
21   0.105985
22   0.409129

>  <lowdin_charges>
22
1   -0.441234
2   -0.15669
3   -0.160669
4   -0.160549
5   -0.149158
6   -0.194999
7   -0.234092
8   0.010217
9   0.009027
10   -0.027743
11   0.104822
12   -0.377372
13   0.157691
14   0.160127
15   0.159321
16   0.157467
17   0.155136
18   0.156514
19   0.169202
20   0.153415
21   0.149621
22   0.359948

$$$$

