PCCDB-ID:  60990
public computational chemistry database (PCCDB) project, http://pccdb.org

 23 23  0  0  1  0  0  0  0  0999 V2000
    0.8214    0.0791    0.1077 C   0  0  0  0  0  0  0  0  0  0  0  0
    7.1295    0.5312   -1.8969 C   0  0  0  0  0  0  0  0  0  0  0  0
    3.0148   -1.1732   -0.1439 C   0  0  0  0  0  0  0  0  0  0  0  0
    3.0688    1.2252   -0.1290 C   0  0  0  0  0  0  0  0  0  0  0  0
    4.4020   -1.2033   -0.2986 C   0  0  0  0  0  0  0  0  0  0  0  0
    4.4519    1.1982   -0.2851 C   0  0  0  0  0  0  0  0  0  0  0  0
    7.2974    0.6786    0.6274 C   0  0  0  0  0  0  0  0  0  0  0  0
    2.3228    0.0393   -0.0570 C   0  0  0  0  0  0  0  0  0  0  0  0
    6.6568   -0.0413   -0.5544 C   0  0  1  0  0  0  0  0  0  0  0  0
    5.1424   -0.0202   -0.3785 C   0  0  0  0  0  0  0  0  0  0  0  0
    8.0205    1.6461    0.5387 O   0  0  0  0  0  0  0  0  0  0  0  0
    0.4028   -0.9276    0.2044 H   0  0  0  0  0  0  0  0  0  0  0  0
    0.3370    0.5597   -0.7517 H   0  0  0  0  0  0  0  0  0  0  0  0
    0.5312    0.6490    0.9988 H   0  0  0  0  0  0  0  0  0  0  0  0
    8.2211    0.5001   -1.9676 H   0  0  0  0  0  0  0  0  0  0  0  0
    6.8235    1.5757   -2.0064 H   0  0  0  0  0  0  0  0  0  0  0  0
    6.7034   -0.0413   -2.7266 H   0  0  0  0  0  0  0  0  0  0  0  0
    2.4628   -2.1088   -0.0880 H   0  0  0  0  0  0  0  0  0  0  0  0
    2.5583    2.1834   -0.0583 H   0  0  0  0  0  0  0  0  0  0  0  0
    4.9124   -2.1619   -0.3643 H   0  0  0  0  0  0  0  0  0  0  0  0
    5.0031    2.1347   -0.3338 H   0  0  0  0  0  0  0  0  0  0  0  0
    7.0334    0.2530    1.6215 H   0  0  0  0  0  0  0  0  0  0  0  0
    6.9799   -1.0909   -0.4710 H   0  0  0  0  0  0  0  0  0  0  0  0
  1 12  1  0  0  0  0
  1 14  1  0  0  0  0
  2  9  1  0  0  0  0
  3 18  1  0  0  0  0
  3  8  2  0  0  0  0
  4 19  1  0  0  0  0
  4  8  1  0  0  0  0
  5  3  1  0  0  0  0
  6  4  2  0  0  0  0
  7 22  1  0  0  0  0
  8  1  1  0  0  0  0
  9 23  1  1  0  0  0
  9 10  1  0  0  0  0
  9  7  1  0  0  0  0
 10  5  2  0  0  0  0
 10  6  1  0  0  0  0
 11  7  2  0  0  0  0
 13  1  1  0  0  0  0
 15  2  1  0  0  0  0
 16  2  1  0  0  0  0
 17  2  1  0  0  0  0
 20  5  1  0  0  0  0
 21  6  1  0  0  0  0
M  END
>  <HBA>
1

>  <HBD>
0

>  <TPSA>
17.07

>  <cid>
60990

>  <dipole>
2.9

>  <excitation_energy_1>
4.196

>  <excitation_energy_2>
4.972

>  <excitation_energy_3>
5.201

>  <excitation_energy_4>
5.528

>  <homo_energy>
-6.425

>  <homo_lumo_gap>
5.685

>  <logP>
2.297

>  <lumo_energy>
-0.74

>  <melting_point>
42.39

>  <molecular_refractivity>
46.19

>  <oscillator_strength_1>
0.0079

>  <oscillator_strength_2>
0.041

>  <oscillator_strength_3>
0.0183

>  <oscillator_strength_4>
0.0259

>  <open_babel_can_smiles>
O=C[C@@H](c1ccc(cc1)C)C

>  <mulliken_charges>
23
1   -0.531137
2   -0.434364
3   -0.179918
4   -0.175952
5   -0.190462
6   -0.179692
7   0.255264
8   0.178512
9   -0.242491
10   0.157498
11   -0.388513
12   0.156061
13   0.165177
14   0.163938
15   0.158297
16   0.161749
17   0.148202
18   0.124659
19   0.126765
20   0.125392
21   0.142121
22   0.110541
23   0.148353

>  <lowdin_charges>
23
1   -0.443284
2   -0.435524
3   -0.166287
4   -0.161084
5   -0.166135
6   -0.161134
7   0.050414
8   0.003685
9   -0.154507
10   -0.010025
11   -0.217716
12   0.156735
13   0.162978
14   0.162149
15   0.157405
16   0.157949
17   0.155474
18   0.155951
19   0.156673
20   0.155084
21   0.162472
22   0.120338
23   0.15839

$$$$

