PCCDB-ID:  70835
public computational chemistry database (PCCDB) project, http://pccdb.org

 33 34  0  0  0  0  0  0  0  0999 V2000
    5.5390    1.0898    2.6743 C   0  0  0  0  0  0  0  0  0  0  0  0
    3.0131   -6.7370    0.6513 C   0  0  0  0  0  0  0  0  0  0  0  0
    7.8773   -4.4943   -2.2738 C   0  0  0  0  0  0  0  0  0  0  0  0
    4.9068    0.5458    1.3892 C   0  0  0  0  0  0  0  0  0  0  0  0
    5.3190   -0.9006    1.0883 C   0  0  0  0  0  0  0  0  0  0  0  0
    4.6735   -1.4281   -0.1970 C   0  0  0  0  0  0  0  0  0  0  0  0
    5.1019   -7.2721   -0.6647 C   0  0  0  0  0  0  0  0  0  0  0  0
    4.7141   -5.1421   -0.3604 C   0  0  0  0  0  0  0  0  0  0  0  0
    5.8722   -5.3489   -1.0842 C   0  0  0  0  0  0  0  0  0  0  0  0
    4.2226   -3.8451    0.0006 C   0  0  0  0  0  0  0  0  0  0  0  0
    6.2580   -2.9877   -1.2239 C   0  0  0  0  0  0  0  0  0  0  0  0
    6.1194   -6.6725   -1.2762 N   0  0  0  0  0  0  0  0  0  0  0  0
    4.2228   -6.4118   -0.0928 N   0  0  0  0  0  0  0  0  0  0  0  0
    6.6398   -4.2935   -1.5208 N   0  0  0  0  0  0  0  0  0  0  0  0
    5.0607   -2.8188   -0.5000 N   0  0  0  0  0  0  0  0  0  0  0  0
    3.2111   -3.6045    0.6558 O   0  0  0  0  0  0  0  0  0  0  0  0
    6.9361   -2.0353   -1.5851 O   0  0  0  0  0  0  0  0  0  0  0  0
    5.2276    2.1230    2.8658 H   0  0  0  0  0  0  0  0  0  0  0  0
    6.6340    1.0773    2.6125 H   0  0  0  0  0  0  0  0  0  0  0  0
    5.2492    0.4874    3.5439 H   0  0  0  0  0  0  0  0  0  0  0  0
    2.9007   -7.8231    0.6697 H   0  0  0  0  0  0  0  0  0  0  0  0
    2.1428   -6.2825    0.1730 H   0  0  0  0  0  0  0  0  0  0  0  0
    3.0833   -6.3548    1.6722 H   0  0  0  0  0  0  0  0  0  0  0  0
    7.9995   -5.5654   -2.4309 H   0  0  0  0  0  0  0  0  0  0  0  0
    8.7278   -4.0947   -1.7151 H   0  0  0  0  0  0  0  0  0  0  0  0
    7.8185   -3.9742   -3.2329 H   0  0  0  0  0  0  0  0  0  0  0  0
    5.1894    1.1877    0.5430 H   0  0  0  0  0  0  0  0  0  0  0  0
    3.8119    0.6042    1.4666 H   0  0  0  0  0  0  0  0  0  0  0  0
    5.0277   -1.5499    1.9242 H   0  0  0  0  0  0  0  0  0  0  0  0
    6.4099   -0.9615    0.9886 H   0  0  0  0  0  0  0  0  0  0  0  0
    4.9698   -0.8189   -1.0524 H   0  0  0  0  0  0  0  0  0  0  0  0
    3.5860   -1.4255   -0.1066 H   0  0  0  0  0  0  0  0  0  0  0  0
    4.9627   -8.3439   -0.6125 H   0  0  0  0  0  0  0  0  0  0  0  0
  1 18  1  0  0  0  0
  1 20  1  0  0  0  0
  2 21  1  0  0  0  0
  2 23  1  0  0  0  0
  3 25  1  0  0  0  0
  3 14  1  0  0  0  0
  4 28  1  0  0  0  0
  4  1  1  0  0  0  0
  5  4  1  0  0  0  0
  5 29  1  0  0  0  0
  6 32  1  0  0  0  0
  6  5  1  0  0  0  0
  7 33  1  0  0  0  0
  7 13  1  0  0  0  0
  8 13  1  0  0  0  0
  8 10  1  0  0  0  0
  9  8  2  0  0  0  0
 10 16  2  0  0  0  0
 11 15  1  0  0  0  0
 12  9  1  0  0  0  0
 12  7  2  0  0  0  0
 13  2  1  0  0  0  0
 14 11  1  0  0  0  0
 14  9  1  0  0  0  0
 15  6  1  0  0  0  0
 15 10  1  0  0  0  0
 17 11  2  0  0  0  0
 19  1  1  0  0  0  0
 22  2  1  0  0  0  0
 24  3  1  0  0  0  0
 26  3  1  0  0  0  0
 27  4  1  0  0  0  0
 30  5  1  0  0  0  0
 31  6  1  0  0  0  0
M  END
>  <HBA>
6

>  <HBD>
0

>  <TPSA>
61.82

>  <cid>
70835

>  <dipole>
3.7

>  <excitation_energy_1>
4.603

>  <excitation_energy_2>
4.93

>  <excitation_energy_3>
5.322

>  <excitation_energy_4>
5.538

>  <homo_energy>
-5.938

>  <homo_lumo_gap>
5.135

>  <logP>
0.234

>  <lumo_energy>
-0.803

>  <melting_point>
141.55

>  <molecular_refractivity>
66.46

>  <oscillator_strength_1>
0.1407

>  <oscillator_strength_2>
0.0002

>  <oscillator_strength_3>
0.0012

>  <oscillator_strength_4>
0.0309

>  <open_babel_can_smiles>
CCCCn1c(=O)c2n(C)cnc2n(c1=O)C

>  <mulliken_charges>
33
1   -0.44197
2   -0.315612
3   -0.321439
4   -0.253825
5   -0.256387
6   -0.139665
7   0.219445
8   0.217738
9   0.474219
10   0.640709
11   0.788648
12   -0.511288
13   -0.486472
14   -0.589312
15   -0.585429
16   -0.547837
17   -0.531712
18   0.142064
19   0.14451
20   0.142864
21   0.166144
22   0.199123
23   0.198613
24   0.197302
25   0.18056
26   0.182116
27   0.137016
28   0.13526
29   0.144433
30   0.151665
31   0.174149
32   0.17518
33   0.169191

>  <lowdin_charges>
33
1   -0.440355
2   -0.337857
3   -0.340919
4   -0.269709
5   -0.280098
6   -0.194329
7   -0.060252
8   -0.082327
9   0.064521
10   0.157186
11   0.193576
12   -0.205736
13   0.012372
14   -0.056654
15   -0.08945
16   -0.313589
17   -0.313933
18   0.148537
19   0.145801
20   0.147546
21   0.162875
22   0.178599
23   0.176368
24   0.178551
25   0.168197
26   0.168435
27   0.142649
28   0.138827
29   0.147655
30   0.148246
31   0.167574
32   0.165518
33   0.172174

$$$$

