PCCDB-ID:  6590
public computational chemistry database (PCCDB) project, http://pccdb.org

 14 13  0  0  0  0  0  0  0  0999 V2000
    0.8887   -0.0909    0.1031 C   0  0  0  0  0  0  0  0  0  0  0  0
    3.0464   -0.0960    1.4618 C   0  0  0  0  0  0  0  0  0  0  0  0
    2.4277   -0.1143    0.0517 C   0  0  0  0  0  0  0  0  0  0  0  0
    2.9420   -1.2976   -0.7711 C   0  0  0  0  0  0  0  0  0  0  0  0
    3.5788   -1.1912   -1.7886 O   0  0  0  0  0  0  0  0  0  0  0  0
    2.6391   -2.5383   -0.2901 O   0  0  0  0  0  0  0  0  0  0  0  0
    0.5431    0.8143    0.6141 H   0  0  0  0  0  0  0  0  0  0  0  0
    0.4816   -0.9492    0.6539 H   0  0  0  0  0  0  0  0  0  0  0  0
    0.4543   -0.1013   -0.9019 H   0  0  0  0  0  0  0  0  0  0  0  0
    2.7401    0.8101    1.9954 H   0  0  0  0  0  0  0  0  0  0  0  0
    4.1404   -0.1125    1.4190 H   0  0  0  0  0  0  0  0  0  0  0  0
    2.7211   -0.9531    2.0663 H   0  0  0  0  0  0  0  0  0  0  0  0
    2.7733    0.7688   -0.4939 H   0  0  0  0  0  0  0  0  0  0  0  0
    2.1248   -2.4623    0.5305 H   0  0  0  0  0  0  0  0  0  0  0  0
  1  7  1  0  0  0  0
  1  8  1  0  0  0  0
  2 10  1  0  0  0  0
  2 12  1  0  0  0  0
  3  1  1  0  0  0  0
  3  2  1  0  0  0  0
  4  6  1  0  0  0  0
  4  3  1  0  0  0  0
  5  4  2  0  0  0  0
  6 14  1  0  0  0  0
  9  1  1  0  0  0  0
 11  2  1  0  0  0  0
 13  3  1  0  0  0  0
M  END
>  <HBA>
2

>  <HBD>
1

>  <TPSA>
37.3

>  <cid>
6590

>  <dipole>
4.4

>  <excitation_energy_1>
5.616

>  <excitation_energy_2>
6.432

>  <excitation_energy_3>
7.294

>  <excitation_energy_4>
7.529

>  <homo_energy>
-7.181

>  <homo_lumo_gap>
7.519

>  <logP>
0.727

>  <lumo_energy>
0.337

>  <melting_point>
51.92

>  <molecular_refractivity>
23.11

>  <oscillator_strength_1>
0.0025

>  <oscillator_strength_2>
0.0132

>  <oscillator_strength_3>
0.0094

>  <oscillator_strength_4>
0.0026

>  <open_babel_can_smiles>
CC(C(=O)O)C

>  <mulliken_charges>
14
1   -0.454424
2   -0.454719
3   -0.19201
4   0.597081
5   -0.440403
6   -0.569968
7   0.161452
8   0.133058
9   0.172937
10   0.161555
11   0.172894
12   0.133015
13   0.17117
14   0.408364

>  <lowdin_charges>
14
1   -0.444149
2   -0.442636
3   -0.160384
4   0.18935
5   -0.236535
6   -0.360725
7   0.160259
8   0.142818
9   0.16342
10   0.160279
11   0.161938
12   0.1427
13   0.16899
14   0.354674

$$$$

