PCCDB-ID:  28030
public computational chemistry database (PCCDB) project, http://pccdb.org

 24 24  0  0  0  0  0  0  0  0999 V2000
    0.9478    0.6518   -1.5965 C   0  0  0  0  0  0  0  0  0  0  0  0
    3.4510    1.0112    1.4084 C   0  0  0  0  0  0  0  0  0  0  0  0
    1.6576    0.4743   -0.2485 C   0  0  0  0  0  0  0  0  0  0  0  0
    3.8379    2.8465   -1.7222 C   0  0  0  0  0  0  0  0  0  0  0  0
    3.4130    3.7670   -0.5679 C   0  0  0  0  0  0  0  0  0  0  0  0
    3.9179    1.4616   -1.0533 C   0  0  0  0  0  0  0  0  0  0  0  0
    2.3456    2.9339    0.1634 C   0  0  0  0  0  0  0  0  0  0  0  0
    2.8222    1.4459    0.0704 C   0  0  0  0  0  0  0  0  0  0  0  0
    0.1575   -0.0993   -1.7093 H   0  0  0  0  0  0  0  0  0  0  0  0
    1.6353    0.5305   -2.4412 H   0  0  0  0  0  0  0  0  0  0  0  0
    0.4757    1.6360   -1.6918 H   0  0  0  0  0  0  0  0  0  0  0  0
    3.9060    0.0158    1.3272 H   0  0  0  0  0  0  0  0  0  0  0  0
    2.7000    0.9711    2.2075 H   0  0  0  0  0  0  0  0  0  0  0  0
    4.2363    1.7097    1.7223 H   0  0  0  0  0  0  0  0  0  0  0  0
    2.0463   -0.5530   -0.1937 H   0  0  0  0  0  0  0  0  0  0  0  0
    0.9129    0.5556    0.5568 H   0  0  0  0  0  0  0  0  0  0  0  0
    4.7787    3.1469   -2.1977 H   0  0  0  0  0  0  0  0  0  0  0  0
    3.0631    2.8510   -2.5009 H   0  0  0  0  0  0  0  0  0  0  0  0
    3.0425    4.7435   -0.9004 H   0  0  0  0  0  0  0  0  0  0  0  0
    4.2711    3.9528    0.0927 H   0  0  0  0  0  0  0  0  0  0  0  0
    4.9090    1.3359   -0.5985 H   0  0  0  0  0  0  0  0  0  0  0  0
    3.7987    0.6379   -1.7658 H   0  0  0  0  0  0  0  0  0  0  0  0
    1.3817    3.0606   -0.3443 H   0  0  0  0  0  0  0  0  0  0  0  0
    2.1968    3.2487    1.2028 H   0  0  0  0  0  0  0  0  0  0  0  0
  1  3  1  0  0  0  0
  2 14  1  0  0  0  0
  2 13  1  0  0  0  0
  3 15  1  0  0  0  0
  3  8  1  0  0  0  0
  3 16  1  0  0  0  0
  4  6  1  0  0  0  0
  4  5  1  0  0  0  0
  5 20  1  0  0  0  0
  5  7  1  0  0  0  0
  6 21  1  0  0  0  0
  6  8  1  0  0  0  0
  7 24  1  0  0  0  0
  8  7  1  0  0  0  0
  8  2  1  0  0  0  0
  9  1  1  0  0  0  0
 10  1  1  0  0  0  0
 11  1  1  0  0  0  0
 12  2  1  0  0  0  0
 17  4  1  0  0  0  0
 18  4  1  0  0  0  0
 19  5  1  0  0  0  0
 22  6  1  0  0  0  0
 23  7  1  0  0  0  0
M  END
>  <HBA>
0

>  <HBD>
0

>  <TPSA>
0.0

>  <cid>
28030

>  <dipole>
0.05

>  <excitation_energy_1>
7.583

>  <excitation_energy_2>
7.66

>  <excitation_energy_3>
7.776

>  <excitation_energy_4>
7.884

>  <homo_energy>
-8.049

>  <homo_lumo_gap>
10.242

>  <logP>
2.977

>  <lumo_energy>
2.193

>  <melting_point>
13.37

>  <molecular_refractivity>
38.2

>  <oscillator_strength_1>
0.0309

>  <oscillator_strength_2>
0.0071

>  <oscillator_strength_3>
0.0089

>  <oscillator_strength_4>
0.0119

>  <open_babel_can_smiles>
CCC1(C)CCCC1

>  <mulliken_charges>
24
1   -0.455151
2   -0.464702
3   -0.26457
4   -0.268866
5   -0.267676
6   -0.290924
7   -0.288245
8   0.14569
9   0.142568
10   0.146478
11   0.144929
12   0.137745
13   0.136669
14   0.137853
15   0.12652
16   0.126519
17   0.130674
18   0.133836
19   0.131011
20   0.13111
21   0.132398
22   0.132355
23   0.133316
24   0.130464

>  <lowdin_charges>
24
1   -0.451303
2   -0.443762
3   -0.272722
4   -0.281602
5   -0.280031
6   -0.286103
7   -0.284759
8   0.00715
9   0.151514
10   0.147811
11   0.145417
12   0.144463
13   0.144853
14   0.145987
15   0.138147
16   0.13976
17   0.14309
18   0.140139
19   0.142995
20   0.138762
21   0.14218
22   0.143973
23   0.141566
24   0.142474

$$$$

