PCCDB-ID:  24922
public computational chemistry database (PCCDB) project, http://pccdb.org

 26 25  0  0  0  0  0  0  0  0999 V2000
    0.3219    1.1685   -5.0196 C   0  0  0  0  0  0  0  0  0  0  0  0
   -0.6606    1.5346   -4.1900 C   0  0  0  0  0  0  0  0  0  0  0  0
   -4.5436   -2.1092   -5.0638 C   0  0  0  0  0  0  0  0  0  0  0  0
   -5.5371   -1.0137   -4.6911 C   0  0  0  0  0  0  0  0  0  0  0  0
   -4.9104    0.6919   -3.0809 C   0  0  0  0  0  0  0  0  0  0  0  0
   -3.6270    0.3594   -2.3288 C   0  0  0  0  0  0  0  0  0  0  0  0
    1.3226    2.1680   -5.5025 C   0  0  0  0  0  0  0  0  0  0  0  0
   -1.6570    0.5439   -3.7071 C   0  0  0  0  0  0  0  0  0  0  0  0
   -3.7446   -2.5401   -3.9767 O   0  0  0  0  0  0  0  0  0  0  0  0
    1.3193    3.3333   -5.1863 O   0  0  0  0  0  0  0  0  0  0  0  0
    2.2734    1.6865   -6.3449 O   0  0  0  0  0  0  0  0  0  0  0  0
   -1.6453   -0.6359   -4.0204 O   0  0  0  0  0  0  0  0  0  0  0  0
   -4.9082    0.2408   -4.4186 O   0  0  0  0  0  0  0  0  0  0  0  0
   -2.5286    1.1291   -2.8767 O   0  0  0  0  0  0  0  0  0  0  0  0
    0.3857    0.1299   -5.3391 H   0  0  0  0  0  0  0  0  0  0  0  0
   -0.7504    2.5632   -3.8557 H   0  0  0  0  0  0  0  0  0  0  0  0
   -3.9249   -1.7617   -5.9040 H   0  0  0  0  0  0  0  0  0  0  0  0
   -5.1199   -2.9760   -5.4151 H   0  0  0  0  0  0  0  0  0  0  0  0
   -6.1306   -1.3406   -3.8258 H   0  0  0  0  0  0  0  0  0  0  0  0
   -6.2239   -0.8527   -5.5344 H   0  0  0  0  0  0  0  0  0  0  0  0
   -5.0306    1.7818   -3.1092 H   0  0  0  0  0  0  0  0  0  0  0  0
   -5.7577    0.2738   -2.5161 H   0  0  0  0  0  0  0  0  0  0  0  0
   -3.4064   -0.7067   -2.3766 H   0  0  0  0  0  0  0  0  0  0  0  0
   -3.7051    0.6807   -1.2860 H   0  0  0  0  0  0  0  0  0  0  0  0
   -2.9432   -1.9848   -3.9695 H   0  0  0  0  0  0  0  0  0  0  0  0
    2.1405    0.7381   -6.5070 H   0  0  0  0  0  0  0  0  0  0  0  0
  1  2  2  0  0  0  0
  2 16  1  0  0  0  0
  2  8  1  0  0  0  0
  3  4  1  0  0  0  0
  3  9  1  0  0  0  0
  4 13  1  0  0  0  0
  4 19  1  0  0  0  0
  5 22  1  0  0  0  0
  5  6  1  0  0  0  0
  6 24  1  0  0  0  0
  7 10  2  0  0  0  0
  7  1  1  0  0  0  0
  8 14  1  0  0  0  0
  9 25  1  0  0  0  0
 11  7  1  0  0  0  0
 12  8  2  0  0  0  0
 13  5  1  0  0  0  0
 14  6  1  0  0  0  0
 15  1  1  0  0  0  0
 17  3  1  0  0  0  0
 18  3  1  0  0  0  0
 20  4  1  0  0  0  0
 21  5  1  0  0  0  0
 23  6  1  0  0  0  0
 26 11  1  0  0  0  0
M  END
>  <HBA>
6

>  <HBD>
2

>  <TPSA>
93.06

>  <cid>
24922

>  <dipole>
2.49

>  <excitation_energy_1>
3.435

>  <excitation_energy_2>
3.978

>  <excitation_energy_3>
4.352

>  <excitation_energy_4>
4.415

>  <homo_energy>
-6.675

>  <homo_lumo_gap>
4.033

>  <logP>
-0.821

>  <lumo_energy>
-2.642

>  <melting_point>
81.17

>  <molecular_refractivity>
45.4

>  <oscillator_strength_1>
0.0045

>  <oscillator_strength_2>
0.0

>  <oscillator_strength_3>
0.0196

>  <oscillator_strength_4>
0.0001

>  <open_babel_can_smiles>
OCCOCCOC(=O)/C=C/C(=O)O

>  <mulliken_charges>
26
1   -0.198986
2   -0.154268
3   -0.046738
4   -0.035699
5   -0.030327
6   -0.086227
7   0.610847
8   0.64705
9   -0.653151
10   -0.439012
11   -0.572081
12   -0.507263
13   -0.473083
14   -0.458243
15   0.170371
16   0.198418
17   0.133559
18   0.133134
19   0.132316
20   0.133364
21   0.157035
22   0.1365
23   0.184928
24   0.159663
25   0.442854
26   0.41504

>  <lowdin_charges>
26
1   -0.167288
2   -0.129748
3   -0.149453
4   -0.146948
5   -0.135453
6   -0.148564
7   0.191735
8   0.20592
9   -0.490015
10   -0.229293
11   -0.343141
12   -0.277099
13   -0.275678
14   -0.162945
15   0.174236
16   0.193794
17   0.137895
18   0.143903
19   0.138223
20   0.143117
21   0.15059
22   0.143219
23   0.168027
24   0.159298
25   0.346038
26   0.35963

$$$$

