PCCDB-ID:  4838
public computational chemistry database (PCCDB) project, http://pccdb.org

 21 21  0  0  0  0  0  0  0  0999 V2000
    0.6938    1.2617   -0.2374 C   0  0  0  0  0  0  0  0  0  0  0  0
   -1.4669   -0.0761   -0.1876 C   0  0  0  0  0  0  0  0  0  0  0  0
    1.4231   -0.0089    0.2189 C   0  0  0  0  0  0  0  0  0  0  0  0
   -0.6375   -1.2863    0.2645 C   0  0  0  0  0  0  0  0  0  0  0  0
   -0.7623    1.2133    0.2559 C   0  0  0  0  0  0  0  0  0  0  0  0
    0.7152   -1.1864   -0.2797 N   0  0  0  0  0  0  0  0  0  0  0  0
   -3.0943    2.4742    0.4328 O   0  0  0  0  0  0  0  0  0  0  0  0
   -1.0393    3.8933    0.2813 O   0  0  0  0  0  0  0  0  0  0  0  0
   -1.8535    2.6163   -1.7631 O   0  0  0  0  0  0  0  0  0  0  0  0
   -1.6384    2.6991   -0.3232 S   0  0  0  0  0  0  0  0  0  0  0  0
    0.7045    1.3088   -1.3316 H   0  0  0  0  0  0  0  0  0  0  0  0
    1.1967    2.1531    0.1510 H   0  0  0  0  0  0  0  0  0  0  0  0
   -2.4745   -0.1278    0.2368 H   0  0  0  0  0  0  0  0  0  0  0  0
   -1.5527   -0.0834   -1.2789 H   0  0  0  0  0  0  0  0  0  0  0  0
    1.5110    0.0050    1.3243 H   0  0  0  0  0  0  0  0  0  0  0  0
    2.4401   -0.0115   -0.1882 H   0  0  0  0  0  0  0  0  0  0  0  0
   -1.1002   -2.2053   -0.1110 H   0  0  0  0  0  0  0  0  0  0  0  0
   -0.6527   -1.3391    1.3723 H   0  0  0  0  0  0  0  0  0  0  0  0
   -0.7878    1.3054    1.3484 H   0  0  0  0  0  0  0  0  0  0  0  0
    1.2422   -2.0284   -0.0605 H   0  0  0  0  0  0  0  0  0  0  0  0
   -3.2530    3.2889    0.9457 H   0  0  0  0  0  0  0  0  0  0  0  0
  1 12  1  0  0  0  0
  1  3  1  0  0  0  0
  1  5  1  0  0  0  0
  2 13  1  0  0  0  0
  2  5  1  0  0  0  0
  2  4  1  0  0  0  0
  3 15  1  0  0  0  0
  4 18  1  0  0  0  0
  5 19  1  0  0  0  0
  6 20  1  0  0  0  0
  6  3  1  0  0  0  0
  6  4  1  0  0  0  0
  7 21  1  0  0  0  0
  9 10  1  0  0  0  0
 10  5  1  0  0  0  0
 10  8  1  0  0  0  0
 10  7  1  0  0  0  0
 11  1  1  0  0  0  0
 14  2  1  0  0  0  0
 16  3  1  0  0  0  0
 17  4  1  0  0  0  0
M  RAD  2   8   2   9   2
M  END
>  <HBA>
4

>  <HBD>
2

>  <TPSA>
74.78

>  <cid>
4838

>  <dipole>
4.6

>  <excitation_energy_1>
5.396

>  <excitation_energy_2>
5.877

>  <excitation_energy_3>
6.259

>  <excitation_energy_4>
6.353

>  <homo_energy>
-6.395

>  <homo_lumo_gap>
7.246

>  <logP>
1.036

>  <lumo_energy>
0.852

>  <melting_point>
104.84

>  <molecular_refractivity>
41.29

>  <oscillator_strength_1>
0.0042

>  <oscillator_strength_2>
0.0022

>  <oscillator_strength_3>
0.0864

>  <oscillator_strength_4>
0.0098

>  <open_babel_can_smiles>
OS(C1CCNCC1)([O])[O]

>  <mulliken_charges>
21
1   -0.277496
2   -0.270178
3   -0.139094
4   -0.140688
5   -0.322292
6   -0.541949
7   -0.658729
8   -0.536104
9   -0.499261
10   1.22563
11   0.181143
12   0.169663
13   0.165977
14   0.184343
15   0.115678
16   0.152331
17   0.151651
18   0.114216
19   0.183863
20   0.303043
21   0.438252

>  <lowdin_charges>
21
1   -0.283729
2   -0.282044
3   -0.197205
4   -0.198808
5   -0.267433
6   -0.365467
7   -0.591816
8   -0.591283
9   -0.559914
10   1.329984
11   0.165313
12   0.165585
13   0.162209
14   0.167197
15   0.11482
16   0.153069
17   0.154075
18   0.113937
19   0.171261
20   0.260124
21   0.380126

$$$$

