PCCDB-ID:  48560
public computational chemistry database (PCCDB) project, http://pccdb.org

 35 35  0  0  1  0  0  0  0  0999 V2000
    3.1052    4.0729   -2.7654 C   0  0  0  0  0  0  0  0  0  0  0  0
   11.9740    3.3717   -0.3337 C   0  0  0  0  0  0  0  0  0  0  0  0
    4.6374    4.0483   -2.7719 C   0  0  0  0  0  0  0  0  0  0  0  0
   11.1530    2.4358   -0.8092 C   0  0  0  0  0  0  0  0  0  0  0  0
    5.2070    2.7679   -3.4004 C   0  0  0  0  0  0  0  0  0  0  0  0
    6.7393    2.7328   -3.5301 C   0  0  0  0  0  0  0  0  0  0  0  0
    9.6532    2.5623   -0.8365 C   0  0  0  0  0  0  0  0  0  0  0  0
    7.4725    2.6849   -2.1815 C   0  0  0  0  0  0  0  0  0  0  0  0
    9.5811    3.7837   -3.0534 C   0  0  0  0  0  0  0  0  0  0  0  0
    9.4365    1.3328   -3.0380 C   0  0  0  0  0  0  0  0  0  0  0  0
   10.6184    2.4843   -4.6743 C   0  0  0  0  0  0  0  0  0  0  0  0
    9.0285    2.5910   -2.2774 C   0  0  1  0  0  0  0  0  0  0  0  0
   10.2783    3.7434   -4.1157 N   0  0  0  0  0  0  0  0  0  0  0  0
   10.1398    1.2774   -4.0955 N   0  0  0  0  0  0  0  0  0  0  0  0
    9.2930    5.0105   -2.5600 O   0  0  0  0  0  0  0  0  0  0  0  0
    9.0178    0.1521   -2.5230 O   0  0  0  0  0  0  0  0  0  0  0  0
   11.3201    2.4351   -5.6585 O   0  0  0  0  0  0  0  0  0  0  0  0
    2.7226    4.9955   -2.3152 H   0  0  0  0  0  0  0  0  0  0  0  0
    2.6970    3.2294   -2.1954 H   0  0  0  0  0  0  0  0  0  0  0  0
    2.7058    4.0078   -3.7845 H   0  0  0  0  0  0  0  0  0  0  0  0
   13.0516    3.2374   -0.3375 H   0  0  0  0  0  0  0  0  0  0  0  0
   11.6030    4.3103    0.0729 H   0  0  0  0  0  0  0  0  0  0  0  0
    5.0005    4.1589   -1.7404 H   0  0  0  0  0  0  0  0  0  0  0  0
    5.0158    4.9197   -3.3250 H   0  0  0  0  0  0  0  0  0  0  0  0
   11.5660    1.5132   -1.2157 H   0  0  0  0  0  0  0  0  0  0  0  0
    4.7787    2.6496   -4.4046 H   0  0  0  0  0  0  0  0  0  0  0  0
    4.8668    1.8946   -2.8237 H   0  0  0  0  0  0  0  0  0  0  0  0
    7.0756    3.6103   -4.0980 H   0  0  0  0  0  0  0  0  0  0  0  0
    7.0256    1.8551   -4.1230 H   0  0  0  0  0  0  0  0  0  0  0  0
    9.3480    3.4687   -0.2988 H   0  0  0  0  0  0  0  0  0  0  0  0
    9.1962    1.7270   -0.2857 H   0  0  0  0  0  0  0  0  0  0  0  0
    7.1005    1.8319   -1.5951 H   0  0  0  0  0  0  0  0  0  0  0  0
    7.2124    3.5650   -1.5788 H   0  0  0  0  0  0  0  0  0  0  0  0
    8.7505    4.9331   -1.7601 H   0  0  0  0  0  0  0  0  0  0  0  0
    8.4805    0.3005   -1.7295 H   0  0  0  0  0  0  0  0  0  0  0  0
  1 18  1  0  0  0  0
  1 19  1  0  0  0  0
  2 22  1  0  0  0  0
  3  1  1  0  0  0  0
  3 23  1  0  0  0  0
  4  2  2  0  0  0  0
  5 27  1  0  0  0  0
  5  3  1  0  0  0  0
  6  5  1  0  0  0  0
  6  8  1  0  0  0  0
  7  4  1  0  0  0  0
  7 30  1  0  0  0  0
  7 31  1  0  0  0  0
  8 32  1  0  0  0  0
  8 33  1  0  0  0  0
  9 15  1  0  0  0  0
  9 12  1  0  0  0  0
 10 16  1  0  0  0  0
 10 12  1  0  0  0  0
 11 13  2  0  0  0  0
 11 14  1  0  0  0  0
 12  8  1  1  0  0  0
 12  7  1  0  0  0  0
 13  9  2  0  0  0  0
 14 10  2  0  0  0  0
 15 34  1  0  0  0  0
 16 35  1  0  0  0  0
 17 11  2  0  0  0  0
 20  1  1  0  0  0  0
 21  2  1  0  0  0  0
 24  3  1  0  0  0  0
 25  4  1  0  0  0  0
 26  5  1  0  0  0  0
 28  6  1  0  0  0  0
 29  6  1  0  0  0  0
M  END
>  <HBA>
5

>  <HBD>
2

>  <TPSA>
75.27

>  <cid>
48560

>  <dipole>
9.81

>  <excitation_energy_1>
3.992

>  <excitation_energy_2>
4.163

>  <excitation_energy_3>
5.188

>  <excitation_energy_4>
5.318

>  <homo_energy>
-6.863

>  <homo_lumo_gap>
5.382

>  <logP>
2.153

>  <lumo_energy>
-1.48

>  <melting_point>
118.98

>  <molecular_refractivity>
71.37

>  <oscillator_strength_1>
0.0

>  <oscillator_strength_2>
0.0

>  <oscillator_strength_3>
0.0014

>  <oscillator_strength_4>
0.0042

>  <open_babel_can_smiles>
CCCCC[C@@]1(CC=C)C(=N[C](=[N]=C1O)=O)O

>  <mulliken_charges>
35
1   -0.442718
2   -0.325232
3   -0.255214
4   -0.0532
5   -0.254156
6   -0.282786
7   -0.323913
8   -0.284588
9   0.565347
10   0.551507
11   0.622269
12   -0.15566
13   -0.470823
14   -0.471257
15   -0.580007
16   -0.581391
17   -0.4317
18   0.147613
19   0.143894
20   0.149729
21   0.162513
22   0.14443
23   0.125896
24   0.140966
25   0.163096
26   0.146806
27   0.129673
28   0.165836
29   0.165957
30   0.140825
31   0.146342
32   0.131423
33   0.136502
34   0.41597
35   0.416051

>  <lowdin_charges>
35
1   -0.443928
2   -0.309483
3   -0.275817
4   -0.162343
5   -0.274239
6   -0.286937
7   -0.269429
8   -0.275437
9   0.1501
10   0.14331
11   0.170435
12   -0.062906
13   -0.180335
14   -0.182444
15   -0.330189
16   -0.332755
17   -0.207365
18   0.152966
19   0.14866
20   0.149924
21   0.169188
22   0.158035
23   0.133046
24   0.144233
25   0.167823
26   0.15056
27   0.139263
28   0.157711
29   0.160046
30   0.149254
31   0.150988
32   0.141713
33   0.143143
34   0.356321
35   0.356885

$$$$

