PCCDB-ID:  6464
public computational chemistry database (PCCDB) project, http://pccdb.org

 29 29  0  0  1  0  0  0  0  0999 V2000
    2.0763    0.9651   -3.0242 C   0  0  0  0  0  0  0  0  0  0  0  0
    4.9279   -1.5145    1.1768 C   0  0  0  0  0  0  0  0  0  0  0  0
    6.7929    0.1298    0.7832 C   0  0  0  0  0  0  0  0  0  0  0  0
    2.9263    0.0126   -2.6423 C   0  0  0  0  0  0  0  0  0  0  0  0
    3.3734   -0.2090   -1.2208 C   0  0  0  0  0  0  0  0  0  0  0  0
    5.3060   -0.1698    0.5305 C   0  0  0  0  0  0  0  0  0  0  0  0
    5.3319    1.3686   -1.4669 C   0  0  0  0  0  0  0  0  0  0  0  0
    5.6841   -1.0244   -1.8736 C   0  0  0  0  0  0  0  0  0  0  0  0
    7.0297    0.6010   -2.8467 C   0  0  0  0  0  0  0  0  0  0  0  0
    4.9170   -0.0307   -1.0006 C   0  0  2  0  0  0  0  0  0  0  0  0
    6.2645    1.6530   -2.2832 N   0  0  0  0  0  0  0  0  0  0  0  0
    6.6211   -0.7495   -2.6884 N   0  0  0  0  0  0  0  0  0  0  0  0
    4.6724    2.4129   -0.9157 O   0  0  0  0  0  0  0  0  0  0  0  0
    5.3299   -2.3296   -1.7859 O   0  0  0  0  0  0  0  0  0  0  0  0
    8.0278    0.8546   -3.4816 O   0  0  0  0  0  0  0  0  0  0  0  0
    1.7860    1.0846   -4.0637 H   0  0  0  0  0  0  0  0  0  0  0  0
    1.6363    1.6643   -2.3156 H   0  0  0  0  0  0  0  0  0  0  0  0
    5.1023   -1.4540    2.2562 H   0  0  0  0  0  0  0  0  0  0  0  0
    5.5501   -2.3350    0.8023 H   0  0  0  0  0  0  0  0  0  0  0  0
    3.8719   -1.7768    1.0447 H   0  0  0  0  0  0  0  0  0  0  0  0
    7.0051    0.0684    1.8558 H   0  0  0  0  0  0  0  0  0  0  0  0
    7.0771    1.1297    0.4439 H   0  0  0  0  0  0  0  0  0  0  0  0
    7.4379   -0.5958    0.2747 H   0  0  0  0  0  0  0  0  0  0  0  0
    3.3463   -0.6640   -3.3860 H   0  0  0  0  0  0  0  0  0  0  0  0
    3.0747   -1.2153   -0.8998 H   0  0  0  0  0  0  0  0  0  0  0  0
    2.8265    0.4657   -0.5480 H   0  0  0  0  0  0  0  0  0  0  0  0
    4.7180    0.6043    1.0448 H   0  0  0  0  0  0  0  0  0  0  0  0
    3.9488    2.0978   -0.3530 H   0  0  0  0  0  0  0  0  0  0  0  0
    4.6362   -2.4491   -1.1203 H   0  0  0  0  0  0  0  0  0  0  0  0
  1  4  2  0  0  0  0
  1 17  1  0  0  0  0
  2 18  1  0  0  0  0
  3 21  1  0  0  0  0
  4  5  1  0  0  0  0
  5 25  1  0  0  0  0
  5 26  1  0  0  0  0
  6  3  1  0  0  0  0
  6 27  1  0  0  0  0
  6  2  1  0  0  0  0
  7 10  1  0  0  0  0
  7 13  1  0  0  0  0
  8 14  1  0  0  0  0
  8 10  1  0  0  0  0
  9 12  1  0  0  0  0
  9 11  2  0  0  0  0
 10  5  1  6  0  0  0
 10  6  1  0  0  0  0
 11  7  2  0  0  0  0
 12  8  2  0  0  0  0
 13 28  1  0  0  0  0
 14 29  1  0  0  0  0
 15  9  2  0  0  0  0
 16  1  1  0  0  0  0
 19  2  1  0  0  0  0
 20  2  1  0  0  0  0
 22  3  1  0  0  0  0
 23  3  1  0  0  0  0
 24  4  1  0  0  0  0
M  END
>  <HBA>
5

>  <HBD>
2

>  <TPSA>
75.27

>  <cid>
6464

>  <dipole>
9.92

>  <excitation_energy_1>
3.984

>  <excitation_energy_2>
4.176

>  <excitation_energy_3>
5.185

>  <excitation_energy_4>
5.355

>  <homo_energy>
-6.863

>  <homo_lumo_gap>
5.374

>  <logP>
1.228

>  <lumo_energy>
-1.488

>  <melting_point>
120.31

>  <molecular_refractivity>
61.76

>  <oscillator_strength_1>
0.0002

>  <oscillator_strength_2>
0.0001

>  <oscillator_strength_3>
0.0007

>  <oscillator_strength_4>
0.005

>  <open_babel_can_smiles>
C=CC[C@@]1(C(C)C)C(=N[C](=[N]=C1O)=O)O

>  <mulliken_charges>
29
1   -0.327198
2   -0.500325
3   -0.477161
4   -0.047024
5   -0.358246
6   -0.068308
7   0.556115
8   0.530718
9   0.61866
10   -0.135718
11   -0.469648
12   -0.464849
13   -0.577548
14   -0.580598
15   -0.431419
16   0.16347
17   0.14085
18   0.172432
19   0.171607
20   0.147878
21   0.156932
22   0.186345
23   0.176061
24   0.164259
25   0.15264
26   0.138317
27   0.125593
28   0.414975
29   0.421191

>  <lowdin_charges>
29
1   -0.314062
2   -0.461657
3   -0.453143
4   -0.162632
5   -0.275509
6   -0.116733
7   0.151212
8   0.144836
9   0.169977
10   -0.063876
11   -0.182316
12   -0.182092
13   -0.329038
14   -0.334634
15   -0.209262
16   0.170518
17   0.157405
18   0.166379
19   0.160841
20   0.146985
21   0.158161
22   0.169657
23   0.165678
24   0.169676
25   0.152006
26   0.1481
27   0.139906
28   0.356394
29   0.357222

$$$$

