PCCDB-ID:  19054
public computational chemistry database (PCCDB) project, http://pccdb.org

 25 26  0  0  0  0  0  0  0  0999 V2000
    1.0387   -0.1620   -0.0001 C   0  0  0  0  0  0  0  0  0  0  0  0
    5.2242   -4.9808    0.2056 C   0  0  0  0  0  0  0  0  0  0  0  0
    4.6371    1.1511   -0.0136 C   0  0  0  0  0  0  0  0  0  0  0  0
    3.2396    1.1128    0.0011 C   0  0  0  0  0  0  0  0  0  0  0  0
    5.3575   -0.0393   -0.0322 C   0  0  0  0  0  0  0  0  0  0  0  0
    5.4619   -2.5808   -0.0362 C   0  0  0  0  0  0  0  0  0  0  0  0
    3.3498   -3.6047   -0.4337 C   0  0  0  0  0  0  0  0  0  0  0  0
    2.5448   -0.0971   -0.0156 C   0  0  0  0  0  0  0  0  0  0  0  0
    4.6984   -1.2731   -0.0439 C   0  0  0  0  0  0  0  0  0  0  0  0
    3.2987   -1.2847   -0.0486 C   0  0  0  0  0  0  0  0  0  0  0  0
    4.5764   -3.6853    0.3277 N   0  0  0  0  0  0  0  0  0  0  0  0
    2.5901   -2.4611   -0.0703 O   0  0  0  0  0  0  0  0  0  0  0  0
    0.6056    0.8429   -0.0025 H   0  0  0  0  0  0  0  0  0  0  0  0
    0.6711   -0.6927    0.8865 H   0  0  0  0  0  0  0  0  0  0  0  0
    0.6535   -0.7070   -0.8700 H   0  0  0  0  0  0  0  0  0  0  0  0
    6.1077   -5.0050    0.8523 H   0  0  0  0  0  0  0  0  0  0  0  0
    5.5537   -5.2146   -0.8259 H   0  0  0  0  0  0  0  0  0  0  0  0
    4.5398   -5.7697    0.5358 H   0  0  0  0  0  0  0  0  0  0  0  0
    5.1570    2.1048   -0.0022 H   0  0  0  0  0  0  0  0  0  0  0  0
    2.6732    2.0410    0.0234 H   0  0  0  0  0  0  0  0  0  0  0  0
    6.4456   -0.0199   -0.0279 H   0  0  0  0  0  0  0  0  0  0  0  0
    6.2770   -2.5346    0.6970 H   0  0  0  0  0  0  0  0  0  0  0  0
    5.9366   -2.7510   -1.0262 H   0  0  0  0  0  0  0  0  0  0  0  0
    2.7208   -4.4697   -0.2092 H   0  0  0  0  0  0  0  0  0  0  0  0
    3.5336   -3.5679   -1.5280 H   0  0  0  0  0  0  0  0  0  0  0  0
  1 14  1  0  0  0  0
  2 11  1  0  0  0  0
  2 18  1  0  0  0  0
  2 16  1  0  0  0  0
  3 19  1  0  0  0  0
  3  4  1  0  0  0  0
  4 20  1  0  0  0  0
  5 21  1  0  0  0  0
  5  3  2  0  0  0  0
  6 11  1  0  0  0  0
  6 22  1  0  0  0  0
  7 24  1  0  0  0  0
  7 12  1  0  0  0  0
  7 11  1  0  0  0  0
  8  1  1  0  0  0  0
  8  4  2  0  0  0  0
  9  6  1  0  0  0  0
  9  5  1  0  0  0  0
 10  9  2  0  0  0  0
 10  8  1  0  0  0  0
 12 10  1  0  0  0  0
 13  1  1  0  0  0  0
 15  1  1  0  0  0  0
 17  2  1  0  0  0  0
 23  6  1  0  0  0  0
 25  7  1  0  0  0  0
M  END
>  <HBA>
2

>  <HBD>
0

>  <TPSA>
12.47

>  <cid>
19054

>  <dipole>
1.76

>  <excitation_energy_1>
4.927

>  <excitation_energy_2>
5.335

>  <excitation_energy_3>
5.392

>  <excitation_energy_4>
5.539

>  <homo_energy>
-5.706

>  <homo_lumo_gap>
5.88

>  <logP>
1.715

>  <lumo_energy>
0.174

>  <melting_point>
42.65

>  <molecular_refractivity>
52.37

>  <oscillator_strength_1>
0.0349

>  <oscillator_strength_2>
0.0094

>  <oscillator_strength_3>
0.0134

>  <oscillator_strength_4>
0.0512

>  <open_babel_can_smiles>
CN1COc2c(C1)cccc2C

>  <mulliken_charges>
25
1   -0.513032
2   -0.299833
3   -0.128362
4   -0.193573
5   -0.198521
6   -0.179347
7   0.10244
8   0.122516
9   0.109675
10   0.268801
11   -0.394959
12   -0.526293
13   0.145848
14   0.167267
15   0.163009
16   0.158674
17   0.124396
18   0.155699
19   0.122391
20   0.119012
21   0.119287
22   0.158678
23   0.127413
24   0.151604
25   0.117212

>  <lowdin_charges>
25
1   -0.437355
2   -0.355322
3   -0.174378
4   -0.164719
5   -0.160163
6   -0.195808
7   -0.062899
8   -0.021454
9   -0.051755
10   0.085925
11   -0.185207
12   -0.201351
13   0.15292
14   0.164293
15   0.162639
16   0.156698
17   0.122762
18   0.155254
19   0.155792
20   0.154585
21   0.151382
22   0.156961
23   0.125352
24   0.154755
25   0.111092

$$$$

