PCCDB-ID:  11618
public computational chemistry database (PCCDB) project, http://pccdb.org

 19 19  0  0  0  0  0  0  0  0999 V2000
   -1.5392    0.7468    0.0816 C   0  0  0  0  0  0  0  0  0  0  0  0
   -0.2970    1.5105   -0.4136 C   0  0  0  0  0  0  0  0  0  0  0  0
   -1.4946   -0.7790   -0.0894 C   0  0  0  0  0  0  0  0  0  0  0  0
    0.9603    1.2321    0.4293 C   0  0  0  0  0  0  0  0  0  0  0  0
   -0.2291   -1.4582    0.4414 C   0  0  0  0  0  0  0  0  0  0  0  0
    1.7087   -0.0619    0.0606 C   0  0  0  0  0  0  0  0  0  0  0  0
    0.8981   -1.1454   -0.3681 O   0  0  0  0  0  0  0  0  0  0  0  0
   -2.4277    1.1288   -0.4386 H   0  0  0  0  0  0  0  0  0  0  0  0
   -1.6858    0.9862    1.1458 H   0  0  0  0  0  0  0  0  0  0  0  0
   -0.5188    2.5845   -0.3671 H   0  0  0  0  0  0  0  0  0  0  0  0
   -0.1037    1.2771   -1.4693 H   0  0  0  0  0  0  0  0  0  0  0  0
   -1.5711   -1.0350   -1.1545 H   0  0  0  0  0  0  0  0  0  0  0  0
   -2.3706   -1.2229    0.4052 H   0  0  0  0  0  0  0  0  0  0  0  0
    0.6737    1.2167    1.4897 H   0  0  0  0  0  0  0  0  0  0  0  0
    1.6768    2.0584    0.3279 H   0  0  0  0  0  0  0  0  0  0  0  0
   -0.3489   -2.5472    0.3877 H   0  0  0  0  0  0  0  0  0  0  0  0
   -0.0461   -1.2034    1.4974 H   0  0  0  0  0  0  0  0  0  0  0  0
    2.3430   -0.3711    0.9091 H   0  0  0  0  0  0  0  0  0  0  0  0
    2.3734    0.1255   -0.7901 H   0  0  0  0  0  0  0  0  0  0  0  0
  1  9  1  0  0  0  0
  2 10  1  0  0  0  0
  2  1  1  0  0  0  0
  2  4  1  0  0  0  0
  3  1  1  0  0  0  0
  3 13  1  0  0  0  0
  3  5  1  0  0  0  0
  4 14  1  0  0  0  0
  5 17  1  0  0  0  0
  6  4  1  0  0  0  0
  6 18  1  0  0  0  0
  7  6  1  0  0  0  0
  7  5  1  0  0  0  0
  8  1  1  0  0  0  0
 11  2  1  0  0  0  0
 12  3  1  0  0  0  0
 15  4  1  0  0  0  0
 16  5  1  0  0  0  0
 19  6  1  0  0  0  0
M  END
>  <HBA>
1

>  <HBD>
0

>  <TPSA>
9.23

>  <cid>
11618

>  <dipole>
1.31

>  <excitation_energy_1>
6.217

>  <excitation_energy_2>
6.615

>  <excitation_energy_3>
6.642

>  <excitation_energy_4>
6.777

>  <homo_energy>
-6.553

>  <homo_lumo_gap>
8.817

>  <logP>
1.577

>  <lumo_energy>
2.264

>  <melting_point>
-12.93

>  <molecular_refractivity>
29.93

>  <oscillator_strength_1>
0.0146

>  <oscillator_strength_2>
0.0438

>  <oscillator_strength_3>
0.0195

>  <oscillator_strength_4>
0.0106

>  <open_babel_can_smiles>
C1CCCCOC1

>  <mulliken_charges>
19
1   -0.260971
2   -0.249923
3   -0.257496
4   -0.298574
5   -0.032087
6   -0.015369
7   -0.471519
8   0.131742
9   0.125912
10   0.130216
11   0.141834
12   0.14366
13   0.124591
14   0.134498
15   0.136808
16   0.138843
17   0.118526
18   0.118748
19   0.14056

>  <lowdin_charges>
19
1   -0.276056
2   -0.274313
3   -0.290179
4   -0.300745
5   -0.130069
6   -0.135562
7   -0.28054
8   0.14493
9   0.134047
10   0.142483
11   0.144697
12   0.146117
13   0.14426
14   0.137538
15   0.151209
16   0.143102
17   0.126439
18   0.126822
19   0.145819

$$$$

