PCCDB-ID:  34290
public computational chemistry database (PCCDB) project, http://pccdb.org

 27 28  0  0  1  0  0  0  0  0999 V2000
    0.9432    0.0094    0.0294 C   0  0  0  0  0  0  0  0  0  0  0  0
    4.0753    0.7034   -2.3805 C   0  0  0  0  0  0  0  0  0  0  0  0
    5.0784    2.6718   -1.2504 C   0  0  0  0  0  0  0  0  0  0  0  0
    3.1917   -1.0692    0.0920 C   0  0  0  0  0  0  0  0  0  0  0  0
    4.7002   -0.9980    0.0643 C   0  0  0  0  0  0  0  0  0  0  0  0
    4.3428    1.2383    1.1550 C   0  0  0  0  0  0  0  0  0  0  0  0
    2.4464    0.0471    0.0686 C   0  0  0  0  0  0  0  0  0  0  0  0
    5.1469    0.4720    0.0699 C   0  0  2  0  0  0  0  0  0  0  0  0
    4.3822    1.3207   -1.0144 C   0  0  0  0  0  0  0  0  0  0  0  0
    3.2260    1.3768    0.0790 C   0  0  2  0  0  0  0  0  0  0  0  0
    2.2039    2.9128    0.0527 S   0  0  0  0  0  0  0  0  0  0  0  0
    0.5895   -1.0259   -0.0099 H   0  0  0  0  0  0  0  0  0  0  0  0
    0.5518    0.5453   -0.8432 H   0  0  0  0  0  0  0  0  0  0  0  0
    0.4919    0.4827    0.9115 H   0  0  0  0  0  0  0  0  0  0  0  0
    5.0043    0.5695   -2.9493 H   0  0  0  0  0  0  0  0  0  0  0  0
    3.4310    1.3731   -2.9637 H   0  0  0  0  0  0  0  0  0  0  0  0
    3.5751   -0.2642   -2.3119 H   0  0  0  0  0  0  0  0  0  0  0  0
    6.0156    2.5055   -1.7964 H   0  0  0  0  0  0  0  0  0  0  0  0
    5.3184    3.2084   -0.3297 H   0  0  0  0  0  0  0  0  0  0  0  0
    4.4546    3.3326   -1.8634 H   0  0  0  0  0  0  0  0  0  0  0  0
    2.7184   -2.0500    0.0959 H   0  0  0  0  0  0  0  0  0  0  0  0
    5.0884   -1.5207   -0.8232 H   0  0  0  0  0  0  0  0  0  0  0  0
    5.1286   -1.5229    0.9317 H   0  0  0  0  0  0  0  0  0  0  0  0
    4.7905    2.1959    1.4245 H   0  0  0  0  0  0  0  0  0  0  0  0
    4.0705    0.6917    2.0631 H   0  0  0  0  0  0  0  0  0  0  0  0
    6.2387    0.5704    0.0799 H   0  0  0  0  0  0  0  0  0  0  0  0
    1.5202    2.6732    1.1925 H   0  0  0  0  0  0  0  0  0  0  0  0
  1  7  1  0  0  0  0
  1 14  1  0  0  0  0
  2 17  1  0  0  0  0
  2  9  1  0  0  0  0
  3  9  1  0  0  0  0
  3 19  1  0  0  0  0
  4 21  1  0  0  0  0
  5  8  1  0  0  0  0
  5  4  1  0  0  0  0
  5 23  1  0  0  0  0
  6 24  1  0  0  0  0
  6 25  1  0  0  0  0
  7 10  1  0  0  0  0
  7  4  2  0  0  0  0
  8 26  1  1  0  0  0
  8  6  1  0  0  0  0
  9  8  1  0  0  0  0
  9 10  1  0  0  0  0
 10 11  1  1  0  0  0
 10  6  1  0  0  0  0
 11 27  1  0  0  0  0
 12  1  1  0  0  0  0
 13  1  1  0  0  0  0
 15  2  1  0  0  0  0
 16  2  1  0  0  0  0
 18  3  1  0  0  0  0
 20  3  1  0  0  0  0
 22  5  1  0  0  0  0
M  END
>  <HBA>
1

>  <HBD>
1

>  <TPSA>
38.8

>  <cid>
34290

>  <dipole>
1.61

>  <excitation_energy_1>
5.248

>  <excitation_energy_2>
5.542

>  <excitation_energy_3>
5.566

>  <excitation_energy_4>
5.603

>  <homo_energy>
-6.052

>  <homo_lumo_gap>
6.577

>  <logP>
3.051

>  <lumo_energy>
0.525

>  <melting_point>
79.12

>  <molecular_refractivity>
53.19

>  <oscillator_strength_1>
0.0076

>  <oscillator_strength_2>
0.0041

>  <oscillator_strength_3>
0.0119

>  <oscillator_strength_4>
0.0034

>  <open_babel_can_smiles>
CC1=CC[C@@H]2C[C@@]1(S)C2(C)C

>  <mulliken_charges>
27
1   -0.521823
2   -0.464638
3   -0.468728
4   -0.200332
5   -0.282135
6   -0.263919
7   0.229347
8   -0.135888
9   0.125234
10   -0.205371
11   -0.088893
12   0.15042
13   0.176495
14   0.147509
15   0.139039
16   0.147941
17   0.154869
18   0.141005
19   0.155725
20   0.157304
21   0.117999
22   0.145202
23   0.143582
24   0.152764
25   0.13945
26   0.120578
27   0.087266

>  <lowdin_charges>
27
1   -0.439654
2   -0.453484
3   -0.444193
4   -0.195435
5   -0.276138
6   -0.282153
7   -0.01247
8   -0.12791
9   0.014754
10   -0.09712
11   -0.092411
12   0.154631
13   0.167808
14   0.153484
15   0.149735
16   0.155586
17   0.158125
18   0.149438
19   0.156047
20   0.157894
21   0.150312
22   0.150089
23   0.151363
24   0.154378
25   0.145915
26   0.137052
27   0.114357

$$$$

