PCCDB-ID:  8249
public computational chemistry database (PCCDB) project, http://pccdb.org

 30 30  0  0  0  0  0  0  0  0999 V2000
    0.8954    2.8947   -3.3402 C   0  0  0  0  0  0  0  0  0  0  0  0
    0.7287    1.5129   -3.4586 C   0  0  0  0  0  0  0  0  0  0  0  0
    1.4572    3.4224   -2.1777 C   0  0  0  0  0  0  0  0  0  0  0  0
    1.1220    0.6700   -2.4200 C   0  0  0  0  0  0  0  0  0  0  0  0
    1.8495    2.5743   -1.1400 C   0  0  0  0  0  0  0  0  0  0  0  0
    2.1288    0.2574   -0.1323 C   0  0  0  0  0  0  0  0  0  0  0  0
    3.4804   -0.4353   -0.3799 C   0  0  0  0  0  0  0  0  0  0  0  0
    1.6898    1.1869   -1.2462 C   0  0  0  0  0  0  0  0  0  0  0  0
    6.7192    2.4518   -0.7661 C   0  0  0  0  0  0  0  0  0  0  0  0
    5.8721    0.0855   -0.4345 C   0  0  0  0  0  0  0  0  0  0  0  0
    5.5741    2.9958   -0.9908 N   0  0  0  0  0  0  0  0  0  0  0  0
    7.9623    3.0969   -0.7926 N   0  0  0  0  0  0  0  0  0  0  0  0
    6.3467   -1.1115   -0.3872 N   0  0  0  0  0  0  0  0  0  0  0  0
    4.5749    0.5151   -0.3661 N   0  0  0  0  0  0  0  0  0  0  0  0
    6.8536    1.1003   -0.5152 N   0  0  0  0  0  0  0  0  0  0  0  0
    0.5867    3.5538   -4.1472 H   0  0  0  0  0  0  0  0  0  0  0  0
    0.2873    1.0919   -4.3583 H   0  0  0  0  0  0  0  0  0  0  0  0
    1.5895    4.4963   -2.0749 H   0  0  0  0  0  0  0  0  0  0  0  0
    0.9816   -0.4048   -2.5176 H   0  0  0  0  0  0  0  0  0  0  0  0
    2.2881    2.9939   -0.2379 H   0  0  0  0  0  0  0  0  0  0  0  0
    2.1884    0.8060    0.8150 H   0  0  0  0  0  0  0  0  0  0  0  0
    1.3783   -0.5317    0.0025 H   0  0  0  0  0  0  0  0  0  0  0  0
    3.4394   -0.9950   -1.3296 H   0  0  0  0  0  0  0  0  0  0  0  0
    3.6433   -1.1713    0.4190 H   0  0  0  0  0  0  0  0  0  0  0  0
    5.6508    4.0066   -1.0922 H   0  0  0  0  0  0  0  0  0  0  0  0
    7.8972    4.1070   -0.7984 H   0  0  0  0  0  0  0  0  0  0  0  0
    8.6289    2.7719   -0.1004 H   0  0  0  0  0  0  0  0  0  0  0  0
    5.6016   -1.8041   -0.3390 H   0  0  0  0  0  0  0  0  0  0  0  0
    4.4171    1.4710   -0.6928 H   0  0  0  0  0  0  0  0  0  0  0  0
    7.7709    0.6914   -0.6346 H   0  0  0  0  0  0  0  0  0  0  0  0
  1  3  1  0  0  0  0
  2  1  2  0  0  0  0
  2  4  1  0  0  0  0
  3 18  1  0  0  0  0
  3  5  2  0  0  0  0
  4  8  2  0  0  0  0
  5 20  1  0  0  0  0
  6 22  1  0  0  0  0
  6 21  1  0  0  0  0
  7 14  1  0  0  0  0
  7  6  1  0  0  0  0
  7 24  1  0  0  0  0
  8  5  1  0  0  0  0
  8  6  1  0  0  0  0
  9 15  1  0  0  0  0
 10 13  2  0  0  0  0
 10 14  1  0  0  0  0
 11  9  1  0  0  0  0
 12  9  2  0  0  0  0
 12 27  1  0  0  0  0
 13 28  1  0  0  0  0
 15 10  1  0  0  0  0
 16  1  1  0  0  0  0
 17  2  1  0  0  0  0
 19  4  1  0  0  0  0
 23  7  1  0  0  0  0
 25 11  1  0  0  0  0
 26 12  1  0  0  0  0
 29 14  1  0  0  0  0
 30 15  1  0  0  0  0
M  RAD  1  11   2
M  END
>  <HBA>
5

>  <HBD>
3

>  <TPSA>
102.78

>  <cid>
8249

>  <dipole>
3.08

>  <excitation_energy_1>
4.904

>  <excitation_energy_2>
5.02

>  <excitation_energy_3>
5.142

>  <excitation_energy_4>
5.305

>  <homo_energy>
-5.592

>  <homo_lumo_gap>
5.636

>  <logP>
1.918

>  <lumo_energy>
0.044

>  <melting_point>
203.63

>  <molecular_refractivity>
61.32

>  <oscillator_strength_1>
0.0012

>  <oscillator_strength_2>
0.0044

>  <oscillator_strength_3>
0.0041

>  <oscillator_strength_4>
0.0001

>  <open_babel_can_smiles>
N=C(NC(=[NH2])[NH])NCCc1ccccc1

>  <mulliken_charges>
30
1   -0.1305
2   -0.12648
3   -0.125968
4   -0.178267
5   -0.174578
6   -0.374336
7   -0.108826
8   0.165485
9   0.660947
10   0.657549
11   -0.689802
12   -0.757376
13   -0.691523
14   -0.640784
15   -0.665408
16   0.126979
17   0.128151
18   0.125796
19   0.121728
20   0.131426
21   0.155688
22   0.149811
23   0.144075
24   0.145625
25   0.276423
26   0.325167
27   0.328617
28   0.280141
29   0.396565
30   0.343676

>  <lowdin_charges>
30
1   -0.160847
2   -0.154613
3   -0.150878
4   -0.163835
5   -0.164293
6   -0.277569
7   -0.191659
8   -0.008328
9   0.145769
10   0.139726
11   -0.484361
12   -0.499977
13   -0.500918
14   -0.30982
15   -0.256988
16   0.157624
17   0.15733
18   0.154249
19   0.151343
20   0.158798
21   0.15576
22   0.157492
23   0.135663
24   0.145199
25   0.252161
26   0.277489
27   0.28291
28   0.252438
29   0.302429
30   0.297702

$$$$

