PCCDB-ID:  23049
public computational chemistry database (PCCDB) project, http://pccdb.org

 29 30  0  0  1  0  0  0  0  0999 V2000
    0.9305    0.0212   -0.1286 C   0  0  0  0  0  0  0  0  0  0  0  0
    7.2882    1.0837    0.2711 C   0  0  0  0  0  0  0  0  0  0  0  0
    3.0304   -1.3772   -0.3776 C   0  0  0  0  0  0  0  0  0  0  0  0
    2.9708    0.4739    1.3036 C   0  0  0  0  0  0  0  0  0  0  0  0
    3.0334    1.0037   -1.1447 C   0  0  0  0  0  0  0  0  0  0  0  0
    4.5831   -1.3600   -0.3332 C   0  0  0  0  0  0  0  0  0  0  0  0
    4.5271    0.4905    1.3497 C   0  0  0  0  0  0  0  0  0  0  0  0
    4.5898    1.0197   -1.1053 C   0  0  0  0  0  0  0  0  0  0  0  0
    2.4616    0.0308   -0.0875 C   0  0  2  0  0  0  0  0  0  0  0  0
    5.0962    0.0544   -0.0150 C   0  0  2  0  0  0  0  0  0  0  0  0
    6.5222   -0.0721   -0.0064 O   0  0  0  0  0  0  0  0  0  0  0  0
    0.5180   -0.6689    0.6181 H   0  0  0  0  0  0  0  0  0  0  0  0
    0.5622   -0.2938   -1.1128 H   0  0  0  0  0  0  0  0  0  0  0  0
    0.5209    1.0184    0.0772 H   0  0  0  0  0  0  0  0  0  0  0  0
    8.3354    0.7722    0.2189 H   0  0  0  0  0  0  0  0  0  0  0  0
    7.0980    1.4888    1.2754 H   0  0  0  0  0  0  0  0  0  0  0  0
    7.1301    1.8862   -0.4637 H   0  0  0  0  0  0  0  0  0  0  0  0
    2.6296   -2.0874    0.3570 H   0  0  0  0  0  0  0  0  0  0  0  0
    2.6743   -1.7151   -1.3589 H   0  0  0  0  0  0  0  0  0  0  0  0
    2.5683    1.4683    1.5360 H   0  0  0  0  0  0  0  0  0  0  0  0
    2.5710   -0.2065    2.0662 H   0  0  0  0  0  0  0  0  0  0  0  0
    2.6777    0.7047   -2.1387 H   0  0  0  0  0  0  0  0  0  0  0  0
    2.6331    2.0096   -0.9636 H   0  0  0  0  0  0  0  0  0  0  0  0
    5.0165   -1.6758   -1.2888 H   0  0  0  0  0  0  0  0  0  0  0  0
    4.9718   -2.0462    0.4276 H   0  0  0  0  0  0  0  0  0  0  0  0
    4.9115   -0.1873    2.1210 H   0  0  0  0  0  0  0  0  0  0  0  0
    4.8865    1.4943    1.6041 H   0  0  0  0  0  0  0  0  0  0  0  0
    4.9523    2.0348   -0.9067 H   0  0  0  0  0  0  0  0  0  0  0  0
    5.0174    0.7146   -2.0675 H   0  0  0  0  0  0  0  0  0  0  0  0
  1 14  1  0  0  0  0
  1 12  1  0  0  0  0
  2 16  1  0  0  0  0
  3  6  1  0  0  0  0
  3  9  1  0  0  0  0
  3 18  1  0  0  0  0
  4  7  1  0  0  0  0
  4 20  1  0  0  0  0
  4 21  1  0  0  0  0
  5  8  1  0  0  0  0
  5 23  1  0  0  0  0
  5  9  1  0  0  0  0
  6 10  1  0  0  0  0
  6 25  1  0  0  0  0
  7 27  1  0  0  0  0
  7 26  1  0  0  0  0
  8 28  1  0  0  0  0
  8 10  1  0  0  0  0
  9  1  1  6  0  0  0
  9  4  1  0  0  0  0
 10 11  1  1  0  0  0
 10  7  1  0  0  0  0
 11  2  1  0  0  0  0
 13  1  1  0  0  0  0
 15  2  1  0  0  0  0
 17  2  1  0  0  0  0
 19  3  1  0  0  0  0
 22  5  1  0  0  0  0
 24  6  1  0  0  0  0
 29  8  1  0  0  0  0
M  END
>  <HBA>
1

>  <HBD>
0

>  <TPSA>
9.23

>  <cid>
23049

>  <dipole>
1.18

>  <excitation_energy_1>
6.043

>  <excitation_energy_2>
6.41

>  <excitation_energy_3>
6.64

>  <excitation_energy_4>
6.707

>  <homo_energy>
-6.501

>  <homo_lumo_gap>
8.297

>  <logP>
2.746

>  <lumo_energy>
1.796

>  <melting_point>
36.7

>  <molecular_refractivity>
46.82

>  <oscillator_strength_1>
0.0015

>  <oscillator_strength_2>
0.0002

>  <oscillator_strength_3>
0.0088

>  <oscillator_strength_4>
0.0085

>  <open_babel_can_smiles>
CO[C@]12CC[C@](CC1)(CC2)C

>  <mulliken_charges>
29
1   -0.455189
2   -0.200352
3   -0.271316
4   -0.27117
5   -0.271273
6   -0.285724
7   -0.296951
8   -0.296488
9   0.091529
10   0.339269
11   -0.512489
12   0.1378
13   0.137844
14   0.136915
15   0.154227
16   0.131015
17   0.130778
18   0.129462
19   0.129525
20   0.12863
21   0.13132
22   0.131343
23   0.128633
24   0.140632
25   0.140539
26   0.140064
27   0.130709
28   0.130624
29   0.140093

>  <lowdin_charges>
29
1   -0.440723
2   -0.282003
3   -0.282247
4   -0.280469
5   -0.278506
6   -0.285321
7   -0.296782
8   -0.295249
9   0.004638
10   0.115397
11   -0.269187
12   0.14832
13   0.146974
14   0.14618
15   0.152065
16   0.13097
17   0.132263
18   0.143117
19   0.141785
20   0.140866
21   0.144088
22   0.14251
23   0.140652
24   0.149123
25   0.15014
26   0.149245
27   0.142157
28   0.141895
29   0.1481

$$$$

