PCCDB-ID:  18661
public computational chemistry database (PCCDB) project, http://pccdb.org

 27 27  0  0  0  0  0  0  0  0999 V2000
    3.6696    0.5967    0.6060 C   0  0  0  0  0  0  0  0  0  0  0  0
    1.7079   -0.9177    0.9452 C   0  0  0  0  0  0  0  0  0  0  0  0
    1.4261    1.1751   -0.3983 C   0  0  0  0  0  0  0  0  0  0  0  0
    3.4417   -0.0197   -2.3970 C   0  0  0  0  0  0  0  0  0  0  0  0
    3.8066   -0.6459   -3.5794 C   0  0  0  0  0  0  0  0  0  0  0  0
    2.5281   -2.0601   -1.5797 C   0  0  0  0  0  0  0  0  0  0  0  0
    2.7893   -0.7105   -1.3585 C   0  0  0  0  0  0  0  0  0  0  0  0
    2.8818   -2.7030   -2.7722 C   0  0  0  0  0  0  0  0  0  0  0  0
    3.5348   -2.0046   -3.8050 C   0  0  0  0  0  0  0  0  0  0  0  0
    2.3989    0.0200   -0.0624 C   0  0  0  0  0  0  0  0  0  0  0  0
    2.5406   -4.1257   -2.8857 N   0  0  0  0  0  0  0  0  0  0  0  0
    3.9058   -2.6149   -4.9539 O   0  0  0  0  0  0  0  0  0  0  0  0
    2.2157   -4.7142   -1.8496 O   0  0  0  0  0  0  0  0  0  0  0  0
    2.5834   -4.6527   -3.9947 O   0  0  0  0  0  0  0  0  0  0  0  0
    3.4057    1.1297    1.5273 H   0  0  0  0  0  0  0  0  0  0  0  0
    4.1927    1.3044   -0.0465 H   0  0  0  0  0  0  0  0  0  0  0  0
    4.3731   -0.2023    0.8655 H   0  0  0  0  0  0  0  0  0  0  0  0
    1.4532   -0.3581    1.8518 H   0  0  0  0  0  0  0  0  0  0  0  0
    2.3578   -1.7488    1.2408 H   0  0  0  0  0  0  0  0  0  0  0  0
    0.7783   -1.3354    0.5425 H   0  0  0  0  0  0  0  0  0  0  0  0
    1.1461    1.7155    0.5139 H   0  0  0  0  0  0  0  0  0  0  0  0
    0.5091    0.7944   -0.8620 H   0  0  0  0  0  0  0  0  0  0  0  0
    1.8743    1.8989   -1.0878 H   0  0  0  0  0  0  0  0  0  0  0  0
    3.6758    1.0349   -2.2841 H   0  0  0  0  0  0  0  0  0  0  0  0
    4.3161   -0.0797   -4.3572 H   0  0  0  0  0  0  0  0  0  0  0  0
    2.0394   -2.6724   -0.8350 H   0  0  0  0  0  0  0  0  0  0  0  0
    4.3801   -1.9677   -5.5016 H   0  0  0  0  0  0  0  0  0  0  0  0
  1 17  1  0  0  0  0
  1 15  1  0  0  0  0
  2 19  1  0  0  0  0
  2 18  1  0  0  0  0
  3 10  1  0  0  0  0
  3 21  1  0  0  0  0
  4 24  1  0  0  0  0
  4  7  2  0  0  0  0
  5  4  1  0  0  0  0
  6  7  1  0  0  0  0
  6 26  1  0  0  0  0
  7 10  1  0  0  0  0
  8  6  2  0  0  0  0
  9  5  2  0  0  0  0
  9  8  1  0  0  0  0
 10  1  1  0  0  0  0
 10  2  1  0  0  0  0
 11  8  1  0  0  0  0
 11 13  2  0  0  0  0
 12  9  1  0  0  0  0
 14 11  2  0  0  0  0
 16  1  1  0  0  0  0
 20  2  1  0  0  0  0
 22  3  1  0  0  0  0
 23  3  1  0  0  0  0
 25  5  1  0  0  0  0
 27 12  1  0  0  0  0
M  END
>  <HBA>
1

>  <HBD>
1

>  <TPSA>
66.05

>  <cid>
18661

>  <dipole>
6.1

>  <excitation_energy_1>
3.674

>  <excitation_energy_2>
3.77

>  <excitation_energy_3>
4.274

>  <excitation_energy_4>
4.817

>  <homo_energy>
-6.558

>  <homo_lumo_gap>
4.493

>  <logP>
3.121

>  <lumo_energy>
-2.065

>  <melting_point>
92.88

>  <molecular_refractivity>
56.56

>  <oscillator_strength_1>
0.0059

>  <oscillator_strength_2>
0.0576

>  <oscillator_strength_3>
0.0023

>  <oscillator_strength_4>
0.1501

>  <open_babel_can_smiles>
O=N(=O)c1cc(ccc1O)C(C)(C)C

>  <mulliken_charges>
27
1   -0.441342
2   -0.458487
3   -0.440378
4   -0.170414
5   -0.202924
6   -0.249534
7   0.17754
8   0.271413
9   0.329518
10   0.010454
11   0.364669
12   -0.60019
13   -0.406028
14   -0.379413
15   0.144934
16   0.140171
17   0.152016
18   0.145851
19   0.153879
20   0.151632
21   0.144799
22   0.151427
23   0.140239
24   0.141226
25   0.131708
26   0.182732
27   0.414502

>  <lowdin_charges>
27
1   -0.442105
2   -0.445366
3   -0.441312
4   -0.128325
5   -0.208384
6   -0.146908
7   -0.013328
8   -0.028462
9   0.114935
10   0.016931
11   0.308666
12   -0.336163
13   -0.264066
14   -0.232232
15   0.150644
16   0.148233
17   0.154724
18   0.153874
19   0.154739
20   0.153149
21   0.15075
22   0.153899
23   0.148204
24   0.161967
25   0.161153
26   0.191163
27   0.363617

$$$$

