PCCDB-ID:  13261
public computational chemistry database (PCCDB) project, http://pccdb.org

 26 26  0  0  0  0  0  0  0  0999 V2000
    5.6924   -4.0538    0.0547 C   0  0  0  0  0  0  0  0  0  0  0  0
    8.7581    2.2914    0.7029 C   0  0  0  0  0  0  0  0  0  0  0  0
    9.7500    1.4346    0.2251 C   0  0  0  0  0  0  0  0  0  0  0  0
    7.6155    1.7690    1.3068 C   0  0  0  0  0  0  0  0  0  0  0  0
    9.5851    0.0610    0.3630 C   0  0  0  0  0  0  0  0  0  0  0  0
    6.1079   -0.0846    2.0769 C   0  0  0  0  0  0  0  0  0  0  0  0
    5.0833   -0.5320    1.0215 C   0  0  0  0  0  0  0  0  0  0  0  0
    5.0864   -2.9083    0.8241 C   0  0  0  0  0  0  0  0  0  0  0  0
    7.4183    0.3908    1.4812 C   0  0  0  0  0  0  0  0  0  0  0  0
    8.4453   -0.4401    0.9950 C   0  0  0  0  0  0  0  0  0  0  0  0
    8.3913   -1.9058    1.1288 N   0  0  0  0  0  0  0  0  0  0  0  0
    4.3302   -3.0038    1.7634 O   0  0  0  0  0  0  0  0  0  0  0  0
    8.8984   -2.5747    0.2281 O   0  0  0  0  0  0  0  0  0  0  0  0
    7.8726   -2.3868    2.1365 O   0  0  0  0  0  0  0  0  0  0  0  0
    5.5177   -1.7121    0.3233 O   0  0  0  0  0  0  0  0  0  0  0  0
    5.1949   -4.9822    0.3374 H   0  0  0  0  0  0  0  0  0  0  0  0
    6.7590   -4.1209    0.2962 H   0  0  0  0  0  0  0  0  0  0  0  0
    5.6065   -3.8855   -1.0227 H   0  0  0  0  0  0  0  0  0  0  0  0
    8.8701    3.3674    0.6039 H   0  0  0  0  0  0  0  0  0  0  0  0
   10.6430    1.8285   -0.2501 H   0  0  0  0  0  0  0  0  0  0  0  0
    6.8430    2.4476    1.6591 H   0  0  0  0  0  0  0  0  0  0  0  0
   10.3272   -0.6369   -0.0058 H   0  0  0  0  0  0  0  0  0  0  0  0
    6.2621   -0.8955    2.7888 H   0  0  0  0  0  0  0  0  0  0  0  0
    5.6575    0.7528    2.6234 H   0  0  0  0  0  0  0  0  0  0  0  0
    4.9595    0.2313    0.2483 H   0  0  0  0  0  0  0  0  0  0  0  0
    4.1235   -0.7321    1.5024 H   0  0  0  0  0  0  0  0  0  0  0  0
  1 17  1  0  0  0  0
  1 16  1  0  0  0  0
  1  8  1  0  0  0  0
  2  4  2  0  0  0  0
  3  5  2  0  0  0  0
  3  2  1  0  0  0  0
  4  9  1  0  0  0  0
  4 21  1  0  0  0  0
  5 10  1  0  0  0  0
  6 24  1  0  0  0  0
  6 23  1  0  0  0  0
  7 26  1  0  0  0  0
  7  6  1  0  0  0  0
  8 12  2  0  0  0  0
  9  6  1  0  0  0  0
 10 11  1  0  0  0  0
 10  9  2  0  0  0  0
 11 14  2  0  0  0  0
 13 11  2  0  0  0  0
 15  8  1  0  0  0  0
 15  7  1  0  0  0  0
 18  1  1  0  0  0  0
 19  2  1  0  0  0  0
 20  3  1  0  0  0  0
 22  5  1  0  0  0  0
 25  7  1  0  0  0  0
M  END
>  <HBA>
2

>  <HBD>
0

>  <TPSA>
72.12

>  <cid>
13261

>  <dipole>
5.09

>  <excitation_energy_1>
3.72

>  <excitation_energy_2>
4.013

>  <excitation_energy_3>
4.199

>  <excitation_energy_4>
4.293

>  <homo_energy>
-7.236

>  <homo_lumo_gap>
4.819

>  <logP>
2.224

>  <lumo_energy>
-2.416

>  <melting_point>
57.4

>  <molecular_refractivity>
55.94

>  <oscillator_strength_1>
0.0197

>  <oscillator_strength_2>
0.0192

>  <oscillator_strength_3>
0.0046

>  <oscillator_strength_4>
0.0066

>  <open_babel_can_smiles>
CC(=O)OCCc1ccccc1N(=O)=O

>  <mulliken_charges>
26
1   -0.533091
2   -0.101768
3   -0.144872
4   -0.204514
5   -0.133036
6   -0.38062
7   -0.047768
8   0.612528
9   0.178702
10   0.215636
11   0.359632
12   -0.466255
13   -0.382044
14   -0.387804
15   -0.463872
16   0.178298
17   0.20861
18   0.175136
19   0.147387
20   0.149907
21   0.141699
22   0.17897
23   0.213059
24   0.151797
25   0.152713
26   0.181569

>  <lowdin_charges>
26
1   -0.465087
2   -0.131695
3   -0.151444
4   -0.160461
5   -0.137825
6   -0.292605
7   -0.132457
8   0.207436
9   0.017436
10   0.006007
11   0.312419
12   -0.260173
13   -0.244667
14   -0.243137
15   -0.211004
16   0.174723
17   0.188996
18   0.173001
19   0.165278
20   0.168891
21   0.16474
22   0.185896
23   0.185486
24   0.16153
25   0.152539
26   0.166175

$$$$

