PCCDB-ID:  12096
public computational chemistry database (PCCDB) project, http://pccdb.org

 26 25  0  0  0  0  0  0  0  0999 V2000
    1.9063   -0.7082   -4.3640 C   0  0  0  0  0  0  0  0  0  0  0  0
    4.4770   -2.1656   -0.4281 C   0  0  0  0  0  0  0  0  0  0  0  0
    7.0656    1.3044   -1.8600 C   0  0  0  0  0  0  0  0  0  0  0  0
    3.3164   -0.7548   -3.7644 C   0  0  0  0  0  0  0  0  0  0  0  0
    5.3566   -1.3555   -1.3884 C   0  0  0  0  0  0  0  0  0  0  0  0
    5.8092    0.8448   -2.6104 C   0  0  0  0  0  0  0  0  0  0  0  0
    3.4082   -0.0102   -2.4235 C   0  0  0  0  0  0  0  0  0  0  0  0
    4.8037    0.0386   -1.7570 C   0  0  0  0  0  0  0  0  0  0  0  0
    1.8578   -1.2473   -5.3171 H   0  0  0  0  0  0  0  0  0  0  0  0
    1.5881    0.3254   -4.5490 H   0  0  0  0  0  0  0  0  0  0  0  0
    1.1720   -1.1620   -3.6867 H   0  0  0  0  0  0  0  0  0  0  0  0
    4.9730   -3.0992   -0.1382 H   0  0  0  0  0  0  0  0  0  0  0  0
    3.5135   -2.4330   -0.8759 H   0  0  0  0  0  0  0  0  0  0  0  0
    4.2696   -1.6018    0.4902 H   0  0  0  0  0  0  0  0  0  0  0  0
    7.7189    1.8928   -2.5147 H   0  0  0  0  0  0  0  0  0  0  0  0
    7.6557    0.4609   -1.4851 H   0  0  0  0  0  0  0  0  0  0  0  0
    6.8040    1.9339   -1.0002 H   0  0  0  0  0  0  0  0  0  0  0  0
    4.0271   -0.3239   -4.4818 H   0  0  0  0  0  0  0  0  0  0  0  0
    3.6155   -1.8033   -3.6322 H   0  0  0  0  0  0  0  0  0  0  0  0
    5.5283   -1.9366   -2.3053 H   0  0  0  0  0  0  0  0  0  0  0  0
    6.3446   -1.2300   -0.9279 H   0  0  0  0  0  0  0  0  0  0  0  0
    6.1086    0.2528   -3.4865 H   0  0  0  0  0  0  0  0  0  0  0  0
    5.2967    1.7327   -3.0069 H   0  0  0  0  0  0  0  0  0  0  0  0
    2.6886   -0.4572   -1.7240 H   0  0  0  0  0  0  0  0  0  0  0  0
    3.0680    1.0250   -2.5747 H   0  0  0  0  0  0  0  0  0  0  0  0
    4.6707    0.5910   -0.8121 H   0  0  0  0  0  0  0  0  0  0  0  0
  1  4  1  0  0  0  0
  1 11  1  0  0  0  0
  2 12  1  0  0  0  0
  2 14  1  0  0  0  0
  3 16  1  0  0  0  0
  3 17  1  0  0  0  0
  4 19  1  0  0  0  0
  4  7  1  0  0  0  0
  5 21  1  0  0  0  0
  5  2  1  0  0  0  0
  6  3  1  0  0  0  0
  6  8  1  0  0  0  0
  7  8  1  0  0  0  0
  7 24  1  0  0  0  0
  8  5  1  0  0  0  0
  8 26  1  0  0  0  0
  9  1  1  0  0  0  0
 10  1  1  0  0  0  0
 13  2  1  0  0  0  0
 15  3  1  0  0  0  0
 18  4  1  0  0  0  0
 20  5  1  0  0  0  0
 22  6  1  0  0  0  0
 23  6  1  0  0  0  0
 25  7  1  0  0  0  0
M  END
>  <HBA>
0

>  <HBD>
0

>  <TPSA>
0.0

>  <cid>
12096

>  <dipole>
0.07

>  <excitation_energy_1>
7.656

>  <excitation_energy_2>
7.722

>  <excitation_energy_3>
7.737

>  <excitation_energy_4>
7.943

>  <homo_energy>
-8.09

>  <homo_lumo_gap>
10.34

>  <logP>
3.223

>  <lumo_energy>
2.25

>  <melting_point>
-27.89

>  <molecular_refractivity>
40.57

>  <oscillator_strength_1>
0.0047

>  <oscillator_strength_2>
0.0029

>  <oscillator_strength_3>
0.0

>  <oscillator_strength_4>
0.0131

>  <open_babel_can_smiles>
CCCC(CC)CC

>  <mulliken_charges>
26
1   -0.441316
2   -0.44934
3   -0.449279
4   -0.255856
5   -0.257035
6   -0.255014
7   -0.261415
8   -0.060742
9   0.140289
10   0.14078
11   0.14031
12   0.140577
13   0.146087
14   0.140724
15   0.14107
16   0.145808
17   0.140793
18   0.135437
19   0.134465
20   0.130479
21   0.132558
22   0.131146
23   0.127062
24   0.128443
25   0.123344
26   0.110625

>  <lowdin_charges>
26
1   -0.44354
2   -0.446734
3   -0.449469
4   -0.277063
5   -0.278022
6   -0.276637
7   -0.27953
8   -0.127451
9   0.148147
10   0.144784
11   0.146653
12   0.149481
13   0.146659
14   0.146199
15   0.150794
16   0.147542
17   0.146127
18   0.142022
19   0.138662
20   0.138735
21   0.141622
22   0.13962
23   0.140491
24   0.14083
25   0.136914
26   0.133166

$$$$

