PCCDB-ID:  2113
public computational chemistry database (PCCDB) project, http://pccdb.org

 24 23  0  0  1  0  0  0  0  0999 V2000
    2.8772   -1.1655    0.7871 C   0  0  0  0  0  0  0  0  0  0  0  0
    2.6077    2.4578   -0.7343 C   0  0  0  0  0  0  0  0  0  0  0  0
    2.9952    1.2842    0.1775 C   0  0  0  0  0  0  0  0  0  0  0  0
    3.1271    3.8000   -0.2046 C   0  0  0  0  0  0  0  0  0  0  0  0
    2.6915   -0.4365   -1.6157 C   0  0  0  0  0  0  0  0  0  0  0  0
    2.3327   -0.0761   -0.1482 C   0  0  1  0  0  0  0  0  0  0  0  0
    2.4644    4.1523    1.0607 N   0  0  0  0  0  0  0  0  0  0  0  0
    0.8560    0.0624   -0.0677 N   0  0  0  0  0  0  0  0  0  0  0  0
    3.7903   -0.8189   -1.9486 O   0  0  0  0  0  0  0  0  0  0  0  0
    1.6894   -0.2415   -2.4873 O   0  0  0  0  0  0  0  0  0  0  0  0
    3.9439   -1.3214    0.6096 H   0  0  0  0  0  0  0  0  0  0  0  0
    2.3687   -2.1221    0.6129 H   0  0  0  0  0  0  0  0  0  0  0  0
    2.7269   -0.8792    1.8343 H   0  0  0  0  0  0  0  0  0  0  0  0
    1.5151    2.5208   -0.8380 H   0  0  0  0  0  0  0  0  0  0  0  0
    3.0020    2.2973   -1.7454 H   0  0  0  0  0  0  0  0  0  0  0  0
    2.7512    1.5450    1.2153 H   0  0  0  0  0  0  0  0  0  0  0  0
    4.0808    1.1388    0.1304 H   0  0  0  0  0  0  0  0  0  0  0  0
    3.0109    4.5655   -0.9913 H   0  0  0  0  0  0  0  0  0  0  0  0
    4.2030    3.7191   -0.0036 H   0  0  0  0  0  0  0  0  0  0  0  0
    1.5130    4.4649    0.8684 H   0  0  0  0  0  0  0  0  0  0  0  0
    2.9364    4.9457    1.4908 H   0  0  0  0  0  0  0  0  0  0  0  0
    0.5966    0.7584    0.6287 H   0  0  0  0  0  0  0  0  0  0  0  0
    0.4325   -0.8181    0.2217 H   0  0  0  0  0  0  0  0  0  0  0  0
    0.9273    0.0480   -1.9214 H   0  0  0  0  0  0  0  0  0  0  0  0
  1 13  1  0  0  0  0
  2  4  1  0  0  0  0
  2  3  1  0  0  0  0
  3 16  1  0  0  0  0
  4 19  1  0  0  0  0
  4  7  1  0  0  0  0
  6  5  1  6  0  0  0
  6  8  1  0  0  0  0
  6  3  1  0  0  0  0
  6  1  1  0  0  0  0
  7 21  1  0  0  0  0
  8 23  1  0  0  0  0
  8 22  1  0  0  0  0
  9  5  2  0  0  0  0
 10 24  1  0  0  0  0
 10  5  1  0  0  0  0
 11  1  1  0  0  0  0
 12  1  1  0  0  0  0
 14  2  1  0  0  0  0
 15  2  1  0  0  0  0
 17  3  1  0  0  0  0
 18  4  1  0  0  0  0
 20  7  1  0  0  0  0
M  END
>  <HBA>
4

>  <HBD>
3

>  <TPSA>
89.34

>  <cid>
2113

>  <dipole>
5.37

>  <excitation_energy_1>
5.528

>  <excitation_energy_2>
5.678

>  <excitation_energy_3>
5.978

>  <excitation_energy_4>
6.136

>  <homo_energy>
-6.539

>  <homo_lumo_gap>
7.263

>  <logP>
0.928

>  <lumo_energy>
0.724

>  <melting_point>
170.12

>  <molecular_refractivity>
38.18

>  <oscillator_strength_1>
0.003

>  <oscillator_strength_2>
0.0133

>  <oscillator_strength_3>
0.0118

>  <oscillator_strength_4>
0.0023

>  <open_babel_can_smiles>
C[C@](C(=O)O)(CCCN)N

>  <mulliken_charges>
24
1   -0.459965
2   -0.272923
3   -0.275205
4   -0.146468
5   0.620413
6   0.099097
7   -0.718272
8   -0.788059
9   -0.480746
10   -0.593404
11   0.184237
12   0.142615
13   0.142574
14   0.130246
15   0.1592
16   0.161497
17   0.159776
18   0.122552
19   0.143304
20   0.292456
21   0.300935
22   0.322926
23   0.319212
24   0.434001

>  <lowdin_charges>
24
1   -0.444992
2   -0.285487
3   -0.275331
4   -0.203312
5   0.172285
6   0.023761
7   -0.561882
8   -0.549275
9   -0.264928
10   -0.359205
11   0.172087
12   0.14962
13   0.148618
14   0.137027
15   0.155303
16   0.154147
17   0.157779
18   0.125344
19   0.141869
20   0.250426
21   0.258155
22   0.271834
23   0.266855
24   0.359303

$$$$

