PCCDB-ID:  70626
public computational chemistry database (PCCDB) project, http://pccdb.org

 21 21  0  0  1  0  0  0  0  0999 V2000
    1.0275   -0.1118   -0.3374 C   0  0  0  0  0  0  0  0  0  0  0  0
    1.1156    1.5166    2.4879 C   0  0  0  0  0  0  0  0  0  0  0  0
    3.1182   -1.2128    0.6490 C   0  0  0  0  0  0  0  0  0  0  0  0
    3.1772    0.0383    2.8438 C   0  0  0  0  0  0  0  0  0  0  0  0
    2.5209    0.0497   -0.0240 C   0  0  2  0  0  0  0  0  0  0  0  0
    2.5866    1.2780    2.1231 C   0  0  1  0  0  0  0  0  0  0  0  0
    2.7787   -1.2393    2.1280 C   0  0  0  0  0  0  0  0  0  0  0  0
    2.2271   -2.1749    2.6761 O   0  0  0  0  0  0  0  0  0  0  0  0
    2.8413    1.2323    0.7155 O   0  0  0  0  0  0  0  0  0  0  0  0
    0.9009   -0.8418   -1.1456 H   0  0  0  0  0  0  0  0  0  0  0  0
    0.6081    0.8428   -0.6693 H   0  0  0  0  0  0  0  0  0  0  0  0
    0.4500   -0.4698    0.5200 H   0  0  0  0  0  0  0  0  0  0  0  0
    1.0468    1.8435    3.5321 H   0  0  0  0  0  0  0  0  0  0  0  0
    0.5010    0.6176    2.3850 H   0  0  0  0  0  0  0  0  0  0  0  0
    0.6951    2.3034    1.8543 H   0  0  0  0  0  0  0  0  0  0  0  0
    4.2114   -1.1740    0.5515 H   0  0  0  0  0  0  0  0  0  0  0  0
    2.7563   -2.1266    0.1693 H   0  0  0  0  0  0  0  0  0  0  0  0
    2.8532   -0.0050    3.8875 H   0  0  0  0  0  0  0  0  0  0  0  0
    4.2728    0.1123    2.8196 H   0  0  0  0  0  0  0  0  0  0  0  0
    3.0410    0.2092   -0.9749 H   0  0  0  0  0  0  0  0  0  0  0  0
    3.1514    2.1603    2.4439 H   0  0  0  0  0  0  0  0  0  0  0  0
  1  5  1  0  0  0  0
  1 12  1  0  0  0  0
  2 13  1  0  0  0  0
  3  7  1  0  0  0  0
  4 18  1  0  0  0  0
  5 20  1  6  0  0  0
  5  3  1  0  0  0  0
  5  9  1  0  0  0  0
  6 21  1  1  0  0  0
  6  2  1  0  0  0  0
  6  4  1  0  0  0  0
  7  8  2  0  0  0  0
  7  4  1  0  0  0  0
  9  6  1  0  0  0  0
 10  1  1  0  0  0  0
 11  1  1  0  0  0  0
 14  2  1  0  0  0  0
 15  2  1  0  0  0  0
 16  3  1  0  0  0  0
 17  3  1  0  0  0  0
 19  4  1  0  0  0  0
M  END
>  <HBA>
2

>  <HBD>
0

>  <TPSA>
26.3

>  <cid>
70626

>  <dipole>
1.73

>  <excitation_energy_1>
4.191

>  <excitation_energy_2>
5.482

>  <excitation_energy_3>
6.198

>  <excitation_energy_4>
6.471

>  <homo_energy>
-6.555

>  <homo_lumo_gap>
6.033

>  <logP>
1.143

>  <lumo_energy>
-0.522

>  <melting_point>
7.79

>  <molecular_refractivity>
34.93

>  <oscillator_strength_1>
0.0

>  <oscillator_strength_2>
0.0128

>  <oscillator_strength_3>
0.0112

>  <oscillator_strength_4>
0.0224

>  <open_babel_can_smiles>
C[C@@H]1O[C@H](C)CC(=O)C1

>  <mulliken_charges>
21
1   -0.464978
2   -0.464621
3   -0.356203
4   -0.35702
5   0.136002
6   0.136581
7   0.437519
8   -0.446199
9   -0.490656
10   0.148124
11   0.16043
12   0.158806
13   0.14797
14   0.158561
15   0.16036
16   0.161725
17   0.163431
18   0.1636
19   0.161879
20   0.142399
21   0.142291

>  <lowdin_charges>
21
1   -0.464306
2   -0.462966
3   -0.320602
4   -0.318324
5   0.008503
6   0.009072
7   0.155038
8   -0.233505
9   -0.277102
10   0.157087
11   0.160521
12   0.155314
13   0.155259
14   0.154859
15   0.161459
16   0.164455
17   0.166958
18   0.165413
19   0.164559
20   0.148763
21   0.149543

$$$$

