PCCDB-ID:  45454
public computational chemistry database (PCCDB) project, http://pccdb.org

 13 12  0  0  0  0  0  0  0  0999 V2000
    1.3658    0.5047   -0.0286 C   0  0  0  0  0  0  0  0  0  0  0  0
    2.1513   -1.6578    0.5390 C   0  0  0  0  0  0  0  0  0  0  0  0
    1.1801    1.4592    2.2768 C   0  0  0  0  0  0  0  0  0  0  0  0
    4.4397   -2.4395    0.0541 C   0  0  0  0  0  0  0  0  0  0  0  0
    0.8445    0.9250    1.2520 N   0  0  0  0  0  0  0  0  0  0  0  0
    3.2882   -2.4982    0.4010 N   0  0  0  0  0  0  0  0  0  0  0  0
    2.4704   -0.3532    0.0729 O   0  0  0  0  0  0  0  0  0  0  0  0
    1.4887    2.1455    3.6697 S   0  0  0  0  0  0  0  0  0  0  0  0
    5.9613   -2.5056   -0.3717 S   0  0  0  0  0  0  0  0  0  0  0  0
    1.7174    1.3823   -0.5787 H   0  0  0  0  0  0  0  0  0  0  0  0
    0.5435    0.0320   -0.5804 H   0  0  0  0  0  0  0  0  0  0  0  0
    1.8534   -1.6322    1.5953 H   0  0  0  0  0  0  0  0  0  0  0  0
    1.3209   -2.0801   -0.0472 H   0  0  0  0  0  0  0  0  0  0  0  0
  1  7  1  0  0  0  0
  1  5  1  0  0  0  0
  2 12  1  0  0  0  0
  3  8  2  0  0  0  0
  4  6  2  0  0  0  0
  5  3  2  0  0  0  0
  6  2  1  0  0  0  0
  7  2  1  0  0  0  0
  9  4  2  0  0  0  0
 10  1  1  0  0  0  0
 11  1  1  0  0  0  0
 13  2  1  0  0  0  0
M  END
>  <HBA>
5

>  <HBD>
0

>  <TPSA>
98.13

>  <cid>
45454

>  <dipole>
3.17

>  <excitation_energy_1>
4.306

>  <excitation_energy_2>
4.566

>  <excitation_energy_3>
5.057

>  <excitation_energy_4>
5.183

>  <homo_energy>
-6.969

>  <homo_lumo_gap>
5.84

>  <logP>
1.124

>  <lumo_energy>
-1.129

>  <melting_point>
64.64

>  <molecular_refractivity>
40.75

>  <oscillator_strength_1>
0.0001

>  <oscillator_strength_2>
0.0002

>  <oscillator_strength_3>
0.0056

>  <oscillator_strength_4>
0.0107

>  <open_babel_can_smiles>
S=C=NCOCN=C=S

>  <mulliken_charges>
13
1   0.06432
2   0.097633
3   0.239296
4   0.2481
5   -0.384929
6   -0.384797
7   -0.438562
8   -0.077911
9   -0.075493
10   0.196901
11   0.168051
12   0.18418
13   0.163213

>  <lowdin_charges>
13
1   -0.048011
2   -0.038953
3   -0.03577
4   -0.029877
5   -0.144938
6   -0.120498
7   -0.246169
8   0.008118
9   0.015558
10   0.176247
11   0.152376
12   0.159346
13   0.152571

$$$$

