PCCDB-ID:  7562
public computational chemistry database (PCCDB) project, http://pccdb.org

 24 25  0  0  0  0  0  0  0  0999 V2000
   -2.0162   -0.7887   -1.0607 C   0  0  0  0  0  0  0  0  0  0  0  0
   -1.0854   -0.6169   -2.0871 C   0  0  0  0  0  0  0  0  0  0  0  0
   -1.5705   -0.9654    0.2508 C   0  0  0  0  0  0  0  0  0  0  0  0
    0.2809   -0.6233   -1.8024 C   0  0  0  0  0  0  0  0  0  0  0  0
   -0.2032   -0.9713    0.5317 C   0  0  0  0  0  0  0  0  0  0  0  0
    1.4619   -4.0805   -0.0322 C   0  0  0  0  0  0  0  0  0  0  0  0
    1.7712   -3.8628   -1.5292 C   0  0  0  0  0  0  0  0  0  0  0  0
    2.2219   -0.8392   -0.1916 C   0  0  0  0  0  0  0  0  0  0  0  0
    0.7416   -0.8009   -0.4902 C   0  0  0  0  0  0  0  0  0  0  0  0
    2.8569   -2.2413   -0.2711 C   0  0  0  0  0  0  0  0  0  0  0  0
    2.2867   -3.1438    0.6574 O   0  0  0  0  0  0  0  0  0  0  0  0
    2.7325   -2.8100   -1.5611 O   0  0  0  0  0  0  0  0  0  0  0  0
   -3.0806   -0.7799   -1.2803 H   0  0  0  0  0  0  0  0  0  0  0  0
   -1.4227   -0.4734   -3.1105 H   0  0  0  0  0  0  0  0  0  0  0  0
   -2.2879   -1.0946    1.0573 H   0  0  0  0  0  0  0  0  0  0  0  0
    1.0026   -0.4910   -2.6046 H   0  0  0  0  0  0  0  0  0  0  0  0
    0.1399   -1.1102    1.5539 H   0  0  0  0  0  0  0  0  0  0  0  0
    1.7254   -5.0874    0.3102 H   0  0  0  0  0  0  0  0  0  0  0  0
    0.4061   -3.8940    0.1955 H   0  0  0  0  0  0  0  0  0  0  0  0
    0.8755   -3.5729   -2.0906 H   0  0  0  0  0  0  0  0  0  0  0  0
    2.2135   -4.7476   -2.0011 H   0  0  0  0  0  0  0  0  0  0  0  0
    2.4197   -0.4537    0.8162 H   0  0  0  0  0  0  0  0  0  0  0  0
    2.7705   -0.2000   -0.8943 H   0  0  0  0  0  0  0  0  0  0  0  0
    3.9284   -2.1562   -0.0412 H   0  0  0  0  0  0  0  0  0  0  0  0
  1  3  2  0  0  0  0
  2  4  2  0  0  0  0
  2  1  1  0  0  0  0
  3  5  1  0  0  0  0
  3 15  1  0  0  0  0
  4  9  1  0  0  0  0
  5 17  1  0  0  0  0
  6 19  1  0  0  0  0
  6 18  1  0  0  0  0
  6 11  1  0  0  0  0
  7  6  1  0  0  0  0
  8 22  1  0  0  0  0
  9  8  1  0  0  0  0
  9  5  2  0  0  0  0
 10  8  1  0  0  0  0
 10 24  1  0  0  0  0
 10 11  1  0  0  0  0
 12  7  1  0  0  0  0
 12 10  1  0  0  0  0
 13  1  1  0  0  0  0
 14  2  1  0  0  0  0
 16  4  1  0  0  0  0
 20  7  1  0  0  0  0
 21  7  1  0  0  0  0
 23  8  1  0  0  0  0
M  END
>  <HBA>
2

>  <HBD>
0

>  <TPSA>
18.46

>  <cid>
7562

>  <dipole>
1.2

>  <excitation_energy_1>
5.246

>  <excitation_energy_2>
5.541

>  <excitation_energy_3>
5.943

>  <excitation_energy_4>
5.961

>  <homo_energy>
-6.335

>  <homo_lumo_gap>
6.313

>  <logP>
1.602

>  <lumo_energy>
-0.022

>  <melting_point>
9.84

>  <molecular_refractivity>
45.88

>  <oscillator_strength_1>
0.0002

>  <oscillator_strength_2>
0.0971

>  <oscillator_strength_3>
0.0066

>  <oscillator_strength_4>
0.0217

>  <open_babel_can_smiles>
C1COC(O1)Cc1ccccc1

>  <mulliken_charges>
24
1   -0.131251
2   -0.132104
3   -0.132129
4   -0.176771
5   -0.177534
6   -0.049192
7   -0.048074
8   -0.359829
9   0.153148
10   0.367235
11   -0.496061
12   -0.496598
13   0.127964
14   0.128761
15   0.128775
16   0.133956
17   0.133882
18   0.146027
19   0.15218
20   0.152009
21   0.145627
22   0.149225
23   0.149385
24   0.13137

>  <lowdin_charges>
24
1   -0.159201
2   -0.158307
3   -0.160826
4   -0.165377
5   -0.163095
6   -0.140651
7   -0.144
8   -0.299359
9   -0.003805
10   0.111177
11   -0.268196
12   -0.27014
13   0.155173
14   0.156134
15   0.158033
16   0.16092
17   0.15898
18   0.144708
19   0.143762
20   0.146083
21   0.145778
22   0.157556
23   0.15975
24   0.134904

$$$$

