PCCDB-ID:  47469
public computational chemistry database (PCCDB) project, http://pccdb.org

 29 31  0  0  0  0  0  0  0  0999 V2000
    0.8218    0.0317    0.0384 C   0  0  0  0  0  0  0  0  0  0  0  0
    6.6242   -4.8729   -0.3292 C   0  0  0  0  0  0  0  0  0  0  0  0
    7.1205   -3.8220    0.4444 C   0  0  0  0  0  0  0  0  0  0  0  0
    5.4290   -4.7013   -1.0300 C   0  0  0  0  0  0  0  0  0  0  0  0
    6.4281   -2.6142    0.5162 C   0  0  0  0  0  0  0  0  0  0  0  0
    4.7393   -3.4918   -0.9601 C   0  0  0  0  0  0  0  0  0  0  0  0
    2.6345    2.6579    0.0716 C   0  0  0  0  0  0  0  0  0  0  0  0
    3.7809    3.4095    0.0665 C   0  0  0  0  0  0  0  0  0  0  0  0
    3.0737   -1.1165   -0.0786 C   0  0  0  0  0  0  0  0  0  0  0  0
    5.1923    0.0759   -0.0847 C   0  0  0  0  0  0  0  0  0  0  0  0
    2.3289    0.0542   -0.0132 C   0  0  0  0  0  0  0  0  0  0  0  0
    5.2252   -2.4233   -0.1862 C   0  0  0  0  0  0  0  0  0  0  0  0
    4.4934   -1.1326   -0.1154 C   0  0  0  0  0  0  0  0  0  0  0  0
    3.0331    1.2790    0.0144 C   0  0  0  0  0  0  0  0  0  0  0  0
    4.4533    1.2596   -0.0208 C   0  0  0  0  0  0  0  0  0  0  0  0
    4.8796    2.5727    0.0093 N   0  0  0  0  0  0  0  0  0  0  0  0
    0.4380   -0.9928    0.0119 H   0  0  0  0  0  0  0  0  0  0  0  0
    0.3846    0.5769   -0.8083 H   0  0  0  0  0  0  0  0  0  0  0  0
    0.4452    0.5088    0.9526 H   0  0  0  0  0  0  0  0  0  0  0  0
    7.1620   -5.8156   -0.3840 H   0  0  0  0  0  0  0  0  0  0  0  0
    8.0445   -3.9459    1.0036 H   0  0  0  0  0  0  0  0  0  0  0  0
    5.0354   -5.5093   -1.6416 H   0  0  0  0  0  0  0  0  0  0  0  0
    6.8076   -1.8141    1.1460 H   0  0  0  0  0  0  0  0  0  0  0  0
    3.8248   -3.3615   -1.5317 H   0  0  0  0  0  0  0  0  0  0  0  0
    1.6261    3.0454    0.1114 H   0  0  0  0  0  0  0  0  0  0  0  0
    3.9114    4.4823    0.0991 H   0  0  0  0  0  0  0  0  0  0  0  0
    2.5484   -2.0679   -0.0722 H   0  0  0  0  0  0  0  0  0  0  0  0
    6.2772    0.0918   -0.1411 H   0  0  0  0  0  0  0  0  0  0  0  0
    5.8413    2.8738   -0.0064 H   0  0  0  0  0  0  0  0  0  0  0  0
  1 19  1  0  0  0  0
  2  3  2  0  0  0  0
  3  5  1  0  0  0  0
  3 21  1  0  0  0  0
  4  6  2  0  0  0  0
  4  2  1  0  0  0  0
  5 23  1  0  0  0  0
  6 12  1  0  0  0  0
  7 25  1  0  0  0  0
  8  7  2  0  0  0  0
  8 26  1  0  0  0  0
  9 27  1  0  0  0  0
  9 11  2  0  0  0  0
 10 15  1  0  0  0  0
 11 14  1  0  0  0  0
 11  1  1  0  0  0  0
 12 13  1  0  0  0  0
 12  5  2  0  0  0  0
 13 10  2  0  0  0  0
 13  9  1  0  0  0  0
 14  7  1  0  0  0  0
 15 16  1  0  0  0  0
 15 14  2  0  0  0  0
 16  8  1  0  0  0  0
 17  1  1  0  0  0  0
 18  1  1  0  0  0  0
 20  2  1  0  0  0  0
 22  4  1  0  0  0  0
 24  6  1  0  0  0  0
 28 10  1  0  0  0  0
 29 16  1  0  0  0  0
M  END
>  <HBA>
0

>  <HBD>
1

>  <TPSA>
15.79

>  <cid>
47469

>  <dipole>
2.16

>  <excitation_energy_1>
4.184

>  <excitation_energy_2>
4.425

>  <excitation_energy_3>
4.577

>  <excitation_energy_4>
4.622

>  <homo_energy>
-5.206

>  <homo_lumo_gap>
4.664

>  <logP>
4.143

>  <lumo_energy>
-0.542

>  <melting_point>
138.04

>  <molecular_refractivity>
68.7

>  <oscillator_strength_1>
0.2903

>  <oscillator_strength_2>
0.1121

>  <oscillator_strength_3>
0.0215

>  <oscillator_strength_4>
0.0146

>  <open_babel_can_smiles>
Cc1cc(cc2c1cc[nH]2)c1ccccc1

>  <mulliken_charges>
29
1   -0.530292
2   -0.128552
3   -0.134574
4   -0.13459
5   -0.173928
6   -0.173811
7   -0.233994
8   0.050223
9   -0.259636
10   -0.228154
11   0.125437
12   0.084884
13   0.087394
14   0.060466
15   0.324396
16   -0.685109
17   0.153353
18   0.158703
19   0.159455
20   0.125648
21   0.125925
22   0.126845
23   0.125966
24   0.130997
25   0.127298
26   0.149012
27   0.116724
28   0.122918
29   0.327

>  <lowdin_charges>
29
1   -0.440559
2   -0.162495
3   -0.155827
4   -0.157017
5   -0.166355
6   -0.16291
7   -0.226497
8   -0.119531
9   -0.19281
10   -0.193696
11   0.000934
12   0.002436
13   -0.007038
14   -0.036692
15   0.030514
16   -0.196496
17   0.155715
18   0.15934
19   0.159144
20   0.156048
21   0.155659
22   0.15727
23   0.157472
24   0.158835
25   0.162802
26   0.162951
27   0.154217
28   0.154802
29   0.289785

$$$$

