PCCDB-ID:  14238
public computational chemistry database (PCCDB) project, http://pccdb.org

 16 15  0  0  0  0  0  0  0  0999 V2000
    0.9251   -0.2441   -0.0027 C   0  0  0  0  0  0  0  0  0  0  0  0
    5.5417   -0.9016   -1.6691 C   0  0  0  0  0  0  0  0  0  0  0  0
    5.3326   -0.6555    0.7982 C   0  0  0  0  0  0  0  0  0  0  0  0
    2.4033   -0.3854    0.2118 C   0  0  0  0  0  0  0  0  0  0  0  0
    3.3036   -0.5736   -0.7665 C   0  0  0  0  0  0  0  0  0  0  0  0
    4.7535   -0.7175   -0.5955 C   0  0  0  0  0  0  0  0  0  0  0  0
    0.5555    0.7151    0.3857 H   0  0  0  0  0  0  0  0  0  0  0  0
    0.3686   -1.0294    0.5275 H   0  0  0  0  0  0  0  0  0  0  0  0
    0.6637   -0.3027   -1.0647 H   0  0  0  0  0  0  0  0  0  0  0  0
    6.6187   -1.0109   -1.5774 H   0  0  0  0  0  0  0  0  0  0  0  0
    5.1317   -0.9488   -2.6750 H   0  0  0  0  0  0  0  0  0  0  0  0
    6.4190   -0.7803    0.7800 H   0  0  0  0  0  0  0  0  0  0  0  0
    4.9107   -1.4400    1.4394 H   0  0  0  0  0  0  0  0  0  0  0  0
    5.1085    0.3048    1.2799 H   0  0  0  0  0  0  0  0  0  0  0  0
    2.7409   -0.3278    1.2463 H   0  0  0  0  0  0  0  0  0  0  0  0
    2.9472   -0.6277   -1.7964 H   0  0  0  0  0  0  0  0  0  0  0  0
  1  4  1  0  0  0  0
  1  7  1  0  0  0  0
  1  8  1  0  0  0  0
  2 10  1  0  0  0  0
  2  6  2  0  0  0  0
  3 14  1  0  0  0  0
  3 13  1  0  0  0  0
  4 15  1  0  0  0  0
  5  6  1  0  0  0  0
  5  4  2  0  0  0  0
  6  3  1  0  0  0  0
  9  1  1  0  0  0  0
 11  2  1  0  0  0  0
 12  3  1  0  0  0  0
 16  5  1  0  0  0  0
M  END
>  <HBA>
0

>  <HBD>
0

>  <TPSA>
0.0

>  <cid>
14238

>  <dipole>
0.59

>  <excitation_energy_1>
5.42

>  <excitation_energy_2>
5.603

>  <excitation_energy_3>
5.924

>  <excitation_energy_4>
6.027

>  <homo_energy>
-5.87

>  <homo_lumo_gap>
5.535

>  <logP>
2.139

>  <lumo_energy>
-0.335

>  <melting_point>
-33.95

>  <molecular_refractivity>
30.01

>  <oscillator_strength_1>
0.6129

>  <oscillator_strength_2>
0.0001

>  <oscillator_strength_3>
0.0076

>  <oscillator_strength_4>
0.0

>  <open_babel_can_smiles>
C/C=C/C(=C)C

>  <mulliken_charges>
16
1   -0.488254
2   -0.415703
3   -0.52794
4   -0.103874
5   -0.14731
6   0.239029
7   0.15615
8   0.156428
9   0.154059
10   0.134496
11   0.136162
12   0.152027
13   0.15792
14   0.157969
15   0.124486
16   0.114355

>  <lowdin_charges>
16
1   -0.43761
2   -0.351469
3   -0.441736
4   -0.159906
5   -0.169705
6   0.01198
7   0.157351
8   0.15862
9   0.153676
10   0.153846
11   0.154412
12   0.155696
13   0.158895
14   0.157804
15   0.149653
16   0.148493

$$$$

