PCCDB-ID:  48811
public computational chemistry database (PCCDB) project, http://pccdb.org

 37 37  0  0  1  0  0  0  0  0999 V2000
    0.7171    0.5285   -0.0037 C   0  0  0  0  0  0  0  0  0  0  0  0
    8.1356    4.0196    0.0360 C   0  0  0  0  0  0  0  0  0  0  0  0
    9.4363    2.3623   -1.3575 C   0  0  0  0  0  0  0  0  0  0  0  0
    2.2223    0.2689   -0.1181 C   0  0  0  0  0  0  0  0  0  0  0  0
    5.5745    2.3252   -0.6668 C   0  0  0  0  0  0  0  0  0  0  0  0
    7.0324    1.8551   -0.7723 C   0  0  0  0  0  0  0  0  0  0  0  0
    4.6050    1.1549   -0.4503 C   0  0  0  0  0  0  0  0  0  0  0  0
    8.0523    2.9695   -1.0825 C   0  0  0  0  0  0  0  0  0  0  0  0
    2.8925    2.5205    0.8144 C   0  0  0  0  0  0  0  0  0  0  0  0
    2.6501    2.2606   -1.6137 C   0  0  0  0  0  0  0  0  0  0  0  0
    2.0629    4.2275   -0.5261 C   0  0  0  0  0  0  0  0  0  0  0  0
    3.0957    1.5459   -0.3417 C   0  0  2  0  0  0  0  0  0  0  0  0
    2.4359    3.7055    0.7411 N   0  0  0  0  0  0  0  0  0  0  0  0
    2.1962    3.4451   -1.7038 N   0  0  0  0  0  0  0  0  0  0  0  0
    3.2328    2.0751    2.0464 O   0  0  0  0  0  0  0  0  0  0  0  0
    2.7495    1.5581   -2.7669 O   0  0  0  0  0  0  0  0  0  0  0  0
    1.6260    5.3529   -0.6039 O   0  0  0  0  0  0  0  0  0  0  0  0
    0.1826   -0.4145    0.1483 H   0  0  0  0  0  0  0  0  0  0  0  0
    0.3209    0.9963   -0.9112 H   0  0  0  0  0  0  0  0  0  0  0  0
    0.4863    1.1851    0.8417 H   0  0  0  0  0  0  0  0  0  0  0  0
    8.8767    4.7891   -0.2084 H   0  0  0  0  0  0  0  0  0  0  0  0
    8.4398    3.5563    0.9841 H   0  0  0  0  0  0  0  0  0  0  0  0
    7.1802    4.5283    0.2026 H   0  0  0  0  0  0  0  0  0  0  0  0
   10.1632    3.1391   -1.6200 H   0  0  0  0  0  0  0  0  0  0  0  0
    9.4019    1.6420   -2.1837 H   0  0  0  0  0  0  0  0  0  0  0  0
    9.8177    1.8369   -0.4720 H   0  0  0  0  0  0  0  0  0  0  0  0
    2.4168   -0.4364   -0.9373 H   0  0  0  0  0  0  0  0  0  0  0  0
    2.5791   -0.2462    0.7841 H   0  0  0  0  0  0  0  0  0  0  0  0
    5.2991    2.8650   -1.5824 H   0  0  0  0  0  0  0  0  0  0  0  0
    5.4670    3.0390    0.1580 H   0  0  0  0  0  0  0  0  0  0  0  0
    7.1008    1.0903   -1.5604 H   0  0  0  0  0  0  0  0  0  0  0  0
    7.3244    1.3548    0.1642 H   0  0  0  0  0  0  0  0  0  0  0  0
    4.8918    0.6042    0.4569 H   0  0  0  0  0  0  0  0  0  0  0  0
    4.7219    0.4258   -1.2647 H   0  0  0  0  0  0  0  0  0  0  0  0
    7.7195    3.4775   -2.0008 H   0  0  0  0  0  0  0  0  0  0  0  0
    3.5691    1.1668    1.9952 H   0  0  0  0  0  0  0  0  0  0  0  0
    3.1082    0.6736   -2.5941 H   0  0  0  0  0  0  0  0  0  0  0  0
  1 18  1  0  0  0  0
  1 20  1  0  0  0  0
  2 23  1  0  0  0  0
  2 22  1  0  0  0  0
  3  8  1  0  0  0  0
  3 26  1  0  0  0  0
  4  1  1  0  0  0  0
  4 28  1  0  0  0  0
  5  7  1  0  0  0  0
  5 30  1  0  0  0  0
  6  5  1  0  0  0  0
  6 32  1  0  0  0  0
  7 33  1  0  0  0  0
  8  6  1  0  0  0  0
  8  2  1  0  0  0  0
  9 15  1  0  0  0  0
 10 12  1  0  0  0  0
 11 13  2  0  0  0  0
 12  7  1  6  0  0  0
 12  4  1  0  0  0  0
 12  9  1  0  0  0  0
 13  9  2  0  0  0  0
 14 10  2  0  0  0  0
 14 11  1  0  0  0  0
 16 37  1  0  0  0  0
 16 10  1  0  0  0  0
 17 11  2  0  0  0  0
 19  1  1  0  0  0  0
 21  2  1  0  0  0  0
 24  3  1  0  0  0  0
 25  3  1  0  0  0  0
 27  4  1  0  0  0  0
 29  5  1  0  0  0  0
 31  6  1  0  0  0  0
 34  7  1  0  0  0  0
 35  8  1  0  0  0  0
 36 15  1  0  0  0  0
M  END
>  <HBA>
5

>  <HBD>
2

>  <TPSA>
75.27

>  <cid>
48811

>  <dipole>
9.7

>  <excitation_energy_1>
3.995

>  <excitation_energy_2>
4.165

>  <excitation_energy_3>
5.236

>  <excitation_energy_4>
5.478

>  <homo_energy>
-6.882

>  <homo_lumo_gap>
5.382

>  <logP>
2.233

>  <lumo_energy>
-1.499

>  <melting_point>
139.58

>  <molecular_refractivity>
71.85

>  <oscillator_strength_1>
0.0

>  <oscillator_strength_2>
0.0

>  <oscillator_strength_3>
0.0

>  <oscillator_strength_4>
0.0012

>  <open_babel_can_smiles>
CC[C@@]1(CCCC(C)C)C(=N[C](=[N]=C1O)=O)O

>  <mulliken_charges>
37
1   -0.467992
2   -0.449883
3   -0.443607
4   -0.272918
5   -0.286286
6   -0.250744
7   -0.282844
8   -0.070131
9   0.553946
10   0.554225
11   0.619936
12   -0.147451
13   -0.472484
14   -0.471972
15   -0.581294
16   -0.581456
17   -0.431544
18   0.161866
19   0.181124
20   0.180998
21   0.147731
22   0.138397
23   0.155073
24   0.146595
25   0.139494
26   0.139204
27   0.137839
28   0.137879
29   0.164444
30   0.169344
31   0.126462
32   0.126516
33   0.13353
34   0.132766
35   0.129458
36   0.416915
37   0.416867

>  <lowdin_charges>
37
1   -0.453795
2   -0.448148
3   -0.445872
4   -0.270995
5   -0.287926
6   -0.274742
7   -0.271525
8   -0.120412
9   0.145275
10   0.145372
11   0.169283
12   -0.064609
13   -0.18345
14   -0.183058
15   -0.330108
16   -0.33064
17   -0.207684
18   0.162678
19   0.167285
20   0.167412
21   0.153728
22   0.145553
23   0.153167
24   0.152474
25   0.147505
26   0.146405
27   0.144418
28   0.144319
29   0.156744
30   0.158374
31   0.139291
32   0.137577
33   0.142257
34   0.141932
35   0.139232
36   0.356018
37   0.356665

$$$$

