PCCDB-ID:  20296
public computational chemistry database (PCCDB) project, http://pccdb.org

 25 24  0  0  0  0  0  0  0  0999 V2000
    3.8836    1.1033   -1.0643 C   0  0  0  0  0  0  0  0  0  0  0  0
    0.4222   -5.6644    1.8202 C   0  0  0  0  0  0  0  0  0  0  0  0
    2.6841   -1.3744    1.7644 C   0  0  0  0  0  0  0  0  0  0  0  0
    3.3791   -2.4302    2.6320 C   0  0  0  0  0  0  0  0  0  0  0  0
    3.6398   -0.7020    0.7782 C   0  0  0  0  0  0  0  0  0  0  0  0
    2.4450   -3.1292    3.6164 C   0  0  0  0  0  0  0  0  0  0  0  0
    2.9714    0.3308   -0.1238 C   0  0  0  0  0  0  0  0  0  0  0  0
    1.6316   -5.0721    2.5060 C   0  0  0  0  0  0  0  0  0  0  0  0
    1.7727    0.5351   -0.0894 O   0  0  0  0  0  0  0  0  0  0  0  0
    2.6961   -5.6315    2.6581 O   0  0  0  0  0  0  0  0  0  0  0  0
    1.3671   -3.8156    2.9379 O   0  0  0  0  0  0  0  0  0  0  0  0
    4.5251    1.7803   -0.4851 H   0  0  0  0  0  0  0  0  0  0  0  0
    3.2835    1.6916   -1.7614 H   0  0  0  0  0  0  0  0  0  0  0  0
    4.5487    0.4305   -1.6188 H   0  0  0  0  0  0  0  0  0  0  0  0
    0.6444   -6.6857    1.5094 H   0  0  0  0  0  0  0  0  0  0  0  0
    0.1531   -5.0603    0.9474 H   0  0  0  0  0  0  0  0  0  0  0  0
   -0.4379   -5.6571    2.4976 H   0  0  0  0  0  0  0  0  0  0  0  0
    2.2270   -0.6078    2.4033 H   0  0  0  0  0  0  0  0  0  0  0  0
    1.8569   -1.8301    1.2101 H   0  0  0  0  0  0  0  0  0  0  0  0
    4.1847   -1.9644    3.2187 H   0  0  0  0  0  0  0  0  0  0  0  0
    3.8564   -3.1930    2.0041 H   0  0  0  0  0  0  0  0  0  0  0  0
    4.1214   -1.4508    0.1299 H   0  0  0  0  0  0  0  0  0  0  0  0
    4.4724   -0.2101    1.3047 H   0  0  0  0  0  0  0  0  0  0  0  0
    1.9408   -2.4082    4.2663 H   0  0  0  0  0  0  0  0  0  0  0  0
    2.9932   -3.8498    4.2280 H   0  0  0  0  0  0  0  0  0  0  0  0
  1 12  1  0  0  0  0
  1  7  1  0  0  0  0
  2 17  1  0  0  0  0
  2  8  1  0  0  0  0
  3 18  1  0  0  0  0
  3  4  1  0  0  0  0
  4 20  1  0  0  0  0
  4  6  1  0  0  0  0
  5 23  1  0  0  0  0
  5  3  1  0  0  0  0
  6 25  1  0  0  0  0
  6 24  1  0  0  0  0
  7  9  2  0  0  0  0
  7  5  1  0  0  0  0
  8 10  2  0  0  0  0
  8 11  1  0  0  0  0
 11  6  1  0  0  0  0
 13  1  1  0  0  0  0
 14  1  1  0  0  0  0
 15  2  1  0  0  0  0
 16  2  1  0  0  0  0
 19  3  1  0  0  0  0
 21  4  1  0  0  0  0
 22  5  1  0  0  0  0
M  END
>  <HBA>
3

>  <HBD>
0

>  <TPSA>
43.37

>  <cid>
20296

>  <dipole>
1.65

>  <excitation_energy_1>
4.432

>  <excitation_energy_2>
5.805

>  <excitation_energy_3>
6.15

>  <excitation_energy_4>
6.487

>  <homo_energy>
-6.68

>  <homo_lumo_gap>
6.346

>  <logP>
1.309

>  <lumo_energy>
-0.335

>  <melting_point>
5.94

>  <molecular_refractivity>
42.05

>  <oscillator_strength_1>
0.0001

>  <oscillator_strength_2>
0.0012

>  <oscillator_strength_3>
0.0276

>  <oscillator_strength_4>
0.0012

>  <open_babel_can_smiles>
CC(=O)CCCCOC(=O)C

>  <mulliken_charges>
25
1   -0.528576
2   -0.522508
3   -0.244737
4   -0.287685
5   -0.359236
6   -0.049735
7   0.453606
8   0.599951
9   -0.435477
10   -0.470079
11   -0.449693
12   0.171134
13   0.180383
14   0.163877
15   0.181324
16   0.183124
17   0.182251
18   0.144497
19   0.162684
20   0.13447
21   0.15991
22   0.159114
23   0.153131
24   0.149723
25   0.168547

>  <lowdin_charges>
25
1   -0.479274
2   -0.464711
3   -0.275363
4   -0.290724
5   -0.312765
6   -0.135276
7   0.164247
8   0.201721
9   -0.234479
10   -0.268829
11   -0.199655
12   0.173015
13   0.174628
14   0.167447
15   0.174208
16   0.179003
17   0.178358
18   0.150247
19   0.158018
20   0.148532
21   0.156158
22   0.162524
23   0.158321
24   0.153117
25   0.161531

$$$$

