PCCDB-ID:  9210
public computational chemistry database (PCCDB) project, http://pccdb.org

 16 17  0  0  0  0  0  0  0  0999 V2000
   -2.4143    0.6554   -0.0373 C   0  0  0  0  0  0  0  0  0  0  0  0
   -2.3702   -0.7628   -0.0271 C   0  0  0  0  0  0  0  0  0  0  0  0
   -1.2483    1.3874   -0.0233 C   0  0  0  0  0  0  0  0  0  0  0  0
   -1.1683   -1.4358   -0.0035 C   0  0  0  0  0  0  0  0  0  0  0  0
    1.2585    1.3760    0.0196 C   0  0  0  0  0  0  0  0  0  0  0  0
    2.3255   -0.6289    0.0495 C   0  0  0  0  0  0  0  0  0  0  0  0
    0.0016    0.7192    0.0021 C   0  0  0  0  0  0  0  0  0  0  0  0
    0.0480   -0.7063    0.0115 C   0  0  0  0  0  0  0  0  0  0  0  0
    2.4073    0.7324    0.0430 N   0  0  0  0  0  0  0  0  0  0  0  0
    1.2408   -1.3717    0.0356 N   0  0  0  0  0  0  0  0  0  0  0  0
   -3.3759    1.1601   -0.0565 H   0  0  0  0  0  0  0  0  0  0  0  0
   -3.3021   -1.3216   -0.0381 H   0  0  0  0  0  0  0  0  0  0  0  0
   -1.2702    2.4746   -0.0302 H   0  0  0  0  0  0  0  0  0  0  0  0
   -1.1149   -2.5197    0.0047 H   0  0  0  0  0  0  0  0  0  0  0  0
    1.2999    2.4667    0.0150 H   0  0  0  0  0  0  0  0  0  0  0  0
    3.2797   -1.1518    0.0689 H   0  0  0  0  0  0  0  0  0  0  0  0
  1  2  2  0  0  0  0
  1  3  1  0  0  0  0
  2  4  1  0  0  0  0
  3  7  2  0  0  0  0
  4 14  1  0  0  0  0
  4  8  2  0  0  0  0
  5  9  1  0  0  0  0
  6 16  1  0  0  0  0
  7  8  1  0  0  0  0
  7  5  1  0  0  0  0
  8 10  1  0  0  0  0
  9  6  2  0  0  0  0
 10  6  1  0  0  0  0
 11  1  1  0  0  0  0
 12  2  1  0  0  0  0
 13  3  1  0  0  0  0
 15  5  1  0  0  0  0
M  RAD  2   5   2  10   2
M  END
>  <HBA>
2

>  <HBD>
0

>  <TPSA>
25.78

>  <cid>
9210

>  <dipole>
2.99

>  <excitation_energy_1>
3.803

>  <excitation_energy_2>
4.369

>  <excitation_energy_3>
4.686

>  <excitation_energy_4>
4.733

>  <homo_energy>
-6.735

>  <homo_lumo_gap>
4.92

>  <logP>
1.63

>  <lumo_energy>
-1.815

>  <melting_point>
78.66

>  <molecular_refractivity>
39.54

>  <oscillator_strength_1>
0.0023

>  <oscillator_strength_2>
0.0468

>  <oscillator_strength_3>
0.0059

>  <oscillator_strength_4>
0.0003

>  <open_babel_can_smiles>
C1=N[CH]c2c([N]1)cccc2

>  <mulliken_charges>
16
1   -0.131357
2   -0.133399
3   -0.191363
4   -0.139145
5   0.015117
6   0.160923
7   0.14431
8   0.243101
9   -0.394262
10   -0.462121
11   0.141885
12   0.14389
13   0.143554
14   0.152199
15   0.151988
16   0.154679

>  <lowdin_charges>
16
1   -0.152875
2   -0.139181
3   -0.143017
4   -0.148788
5   -0.054032
6   -0.041945
7   -0.039069
8   0.053938
9   -0.162364
10   -0.155364
11   0.164115
12   0.165445
13   0.161923
14   0.171639
15   0.157998
16   0.161576

$$$$

