PCCDB-ID:  27841
public computational chemistry database (PCCDB) project, http://pccdb.org

 31 33  0  0  0  0  0  0  0  0999 V2000
    2.4964    1.8442    0.3887 C   0  0  0  0  0  0  0  0  0  0  0  0
    2.7867    0.4634    0.4812 C   0  0  0  0  0  0  0  0  0  0  0  0
   -2.1649    0.8171   -0.5412 C   0  0  0  0  0  0  0  0  0  0  0  0
    1.2123    2.2558    0.1168 C   0  0  0  0  0  0  0  0  0  0  0  0
   -1.1584    1.7384   -0.3639 C   0  0  0  0  0  0  0  0  0  0  0  0
   -1.8958   -0.5610   -0.4140 C   0  0  0  0  0  0  0  0  0  0  0  0
    1.7915   -0.4743    0.3106 C   0  0  0  0  0  0  0  0  0  0  0  0
   -1.0389   -3.4491   -0.6425 C   0  0  0  0  0  0  0  0  0  0  0  0
   -0.3826   -2.4768    0.0230 C   0  0  0  0  0  0  0  0  0  0  0  0
   -1.4518   -5.7789   -1.3892 C   0  0  0  0  0  0  0  0  0  0  0  0
   -0.1014   -5.4806    0.5569 C   0  0  0  0  0  0  0  0  0  0  0  0
   -1.2688   -7.1521   -1.2422 C   0  0  0  0  0  0  0  0  0  0  0  0
    0.0203   -6.8652    0.6123 C   0  0  0  0  0  0  0  0  0  0  0  0
   -0.8537   -4.8934   -0.4767 C   0  0  0  0  0  0  0  0  0  0  0  0
    0.1630    1.3147   -0.0643 C   0  0  0  0  0  0  0  0  0  0  0  0
   -0.6219   -1.0356   -0.1284 C   0  0  0  0  0  0  0  0  0  0  0  0
    0.4485   -0.0875    0.0489 C   0  0  0  0  0  0  0  0  0  0  0  0
   -0.5454   -7.7095   -0.2634 N   0  0  0  0  0  0  0  0  0  0  0  0
    3.2894    2.5745    0.5243 H   0  0  0  0  0  0  0  0  0  0  0  0
    3.8043    0.1396    0.6822 H   0  0  0  0  0  0  0  0  0  0  0  0
   -3.1772    1.1455   -0.7601 H   0  0  0  0  0  0  0  0  0  0  0  0
    0.9790    3.3145    0.0312 H   0  0  0  0  0  0  0  0  0  0  0  0
   -1.3611    2.8034   -0.4463 H   0  0  0  0  0  0  0  0  0  0  0  0
   -2.7139   -1.2692   -0.5060 H   0  0  0  0  0  0  0  0  0  0  0  0
    2.0461   -1.5276    0.3596 H   0  0  0  0  0  0  0  0  0  0  0  0
   -1.7612   -3.1634   -1.4061 H   0  0  0  0  0  0  0  0  0  0  0  0
    0.3884   -2.7644    0.7341 H   0  0  0  0  0  0  0  0  0  0  0  0
   -2.0517   -5.3957   -2.2108 H   0  0  0  0  0  0  0  0  0  0  0  0
    0.3745   -4.8726    1.3202 H   0  0  0  0  0  0  0  0  0  0  0  0
   -1.7293   -7.8416   -1.9483 H   0  0  0  0  0  0  0  0  0  0  0  0
    0.6013   -7.3265    1.4096 H   0  0  0  0  0  0  0  0  0  0  0  0
  1  2  1  0  0  0  0
  1 19  1  0  0  0  0
  2 20  1  0  0  0  0
  3  6  2  0  0  0  0
  3  5  1  0  0  0  0
  4  1  2  0  0  0  0
  5 15  2  0  0  0  0
  6 16  1  0  0  0  0
  7 25  1  0  0  0  0
  7  2  2  0  0  0  0
  8 14  1  0  0  0  0
  8  9  2  0  0  0  0
  9 27  1  0  0  0  0
 10 12  2  0  0  0  0
 10 14  1  0  0  0  0
 11 13  1  0  0  0  0
 11 29  1  0  0  0  0
 12 18  1  0  0  0  0
 13 31  1  0  0  0  0
 14 11  2  0  0  0  0
 15 17  1  0  0  0  0
 15  4  1  0  0  0  0
 16  9  1  0  0  0  0
 16 17  2  0  0  0  0
 17  7  1  0  0  0  0
 18 13  2  0  0  0  0
 21  3  1  0  0  0  0
 22  4  1  0  0  0  0
 23  5  1  0  0  0  0
 24  6  1  0  0  0  0
 26  8  1  0  0  0  0
 28 10  1  0  0  0  0
 30 12  1  0  0  0  0
M  END
>  <HBA>
1

>  <HBD>
0

>  <TPSA>
12.89

>  <cid>
27841

>  <dipole>
3.15

>  <excitation_energy_1>
3.452

>  <excitation_energy_2>
4.127

>  <excitation_energy_3>
4.164

>  <excitation_energy_4>
4.18

>  <homo_energy>
-5.695

>  <homo_lumo_gap>
3.853

>  <logP>
4.405

>  <lumo_energy>
-1.842

>  <melting_point>
128.64

>  <molecular_refractivity>
77.11

>  <oscillator_strength_1>
0.5214

>  <oscillator_strength_2>
0.0055

>  <oscillator_strength_3>
0.0141

>  <oscillator_strength_4>
0.0236

>  <open_babel_can_smiles>
n1ccc(cc1)/C=C/c1cccc2c1cccc2

>  <mulliken_charges>
31
1   -0.13087
2   -0.135252
3   -0.133747
4   -0.194335
5   -0.187899
6   -0.195656
7   -0.189824
8   -0.173183
9   -0.182771
10   -0.202212
11   -0.187679
12   0.038077
13   0.034355
14   0.188396
15   0.135504
16   0.106989
17   0.0639
18   -0.410393
19   0.132931
20   0.132813
21   0.134068
22   0.132319
23   0.132968
24   0.13399
25   0.132179
26   0.134075
27   0.143326
28   0.133655
29   0.133726
30   0.140234
31   0.140317

>  <lowdin_charges>
31
1   -0.158262
2   -0.152802
3   -0.15707
4   -0.152078
5   -0.149874
6   -0.157158
7   -0.159891
8   -0.160766
9   -0.144573
10   -0.18237
11   -0.181605
12   -0.09021
13   -0.089503
14   0.02158
15   0.001303
16   -0.005929
17   -0.003125
18   -0.153689
19   0.161139
20   0.159118
21   0.160065
22   0.157213
23   0.157853
24   0.162094
25   0.158802
26   0.159043
27   0.159883
28   0.162465
29   0.162964
30   0.15808
31   0.157301

$$$$

