PCCDB-ID:  14073
public computational chemistry database (PCCDB) project, http://pccdb.org

 11 11  0  0  0  0  0  0  0  0999 V2000
    0.9957   -0.0151   -0.0636 C   0  0  0  0  0  0  0  0  0  0  0  0
    3.1017    0.8134   -1.0677 C   0  0  0  0  0  0  0  0  0  0  0  0
    3.1321   -0.6765   -1.1247 C   0  0  0  0  0  0  0  0  0  0  0  0
    2.4521    0.0142   -0.0327 N   0  0  0  0  0  0  0  0  0  0  0  0
    0.6062    0.8397    0.5003 H   0  0  0  0  0  0  0  0  0  0  0  0
    0.6438   -0.9337    0.4187 H   0  0  0  0  0  0  0  0  0  0  0  0
    0.5728    0.0230   -1.0847 H   0  0  0  0  0  0  0  0  0  0  0  0
    2.4686    1.3254   -1.7944 H   0  0  0  0  0  0  0  0  0  0  0  0
    3.9779    1.3760   -0.7521 H   0  0  0  0  0  0  0  0  0  0  0  0
    4.0309   -1.2254   -0.8514 H   0  0  0  0  0  0  0  0  0  0  0  0
    2.5196   -1.1567   -1.8897 H   0  0  0  0  0  0  0  0  0  0  0  0
  1  4  1  0  0  0  0
  1  6  1  0  0  0  0
  1  5  1  0  0  0  0
  2  9  1  0  0  0  0
  2  4  1  0  0  0  0
  3  2  1  0  0  0  0
  3 10  1  0  0  0  0
  3  4  1  0  0  0  0
  7  1  1  0  0  0  0
  8  2  1  0  0  0  0
 11  3  1  0  0  0  0
M  END
>  <HBA>
1

>  <HBD>
0

>  <TPSA>
3.01

>  <cid>
14073

>  <dipole>
1.27

>  <excitation_energy_1>
6.017

>  <excitation_energy_2>
6.372

>  <excitation_energy_3>
6.434

>  <excitation_energy_4>
6.619

>  <homo_energy>
-6.242

>  <homo_lumo_gap>
8.909

>  <logP>
-0.13

>  <lumo_energy>
2.667

>  <melting_point>
-13.28

>  <molecular_refractivity>
21.23

>  <oscillator_strength_1>
0.0281

>  <oscillator_strength_2>
0.0068

>  <oscillator_strength_3>
0.0267

>  <oscillator_strength_4>
0.0503

>  <open_babel_can_smiles>
CN1CC1

>  <mulliken_charges>
11
1   -0.297145
2   -0.191888
3   -0.19188
4   -0.342772
5   0.155453
6   0.155345
7   0.117093
8   0.141306
9   0.156614
10   0.156602
11   0.141274

>  <lowdin_charges>
11
1   -0.354595
2   -0.246587
3   -0.246133
4   -0.192464
5   0.15318
6   0.152675
7   0.122904
8   0.146932
9   0.158728
10   0.158532
11   0.146827

$$$$

