PCCDB-ID:  40160
public computational chemistry database (PCCDB) project, http://pccdb.org

 32 31  0  0  0  0  0  0  0  0999 V2000
    0.7513   -0.8281    0.5427 C   0  0  0  0  0  0  0  0  0  0  0  0
    7.0393   -0.5600    1.9549 C   0  0  0  0  0  0  0  0  0  0  0  0
    6.5541   -6.2222   -1.0816 C   0  0  0  0  0  0  0  0  0  0  0  0
    2.0722   -1.4686    0.1046 C   0  0  0  0  0  0  0  0  0  0  0  0
    6.1292    0.0682    0.8955 C   0  0  0  0  0  0  0  0  0  0  0  0
    5.5165   -5.2071   -0.6151 C   0  0  0  0  0  0  0  0  0  0  0  0
    3.1811   -1.2577    1.1427 C   0  0  0  0  0  0  0  0  0  0  0  0
    5.4121   -0.9532   -0.0016 C   0  0  0  0  0  0  0  0  0  0  0  0
    4.6493   -3.1474    0.9603 C   0  0  0  0  0  0  0  0  0  0  0  0
    4.4774   -1.8305    0.7306 N   0  0  0  0  0  0  0  0  0  0  0  0
    3.8379   -3.8938    1.4882 O   0  0  0  0  0  0  0  0  0  0  0  0
    7.3493   -3.2634   -0.1659 O   0  0  0  0  0  0  0  0  0  0  0  0
    6.3001   -4.0496    0.6077 S   0  0  2  0  0  0  0  0  0  0  0  0
   -0.0320   -0.9922   -0.2049 H   0  0  0  0  0  0  0  0  0  0  0  0
    0.8573    0.2550    0.6810 H   0  0  0  0  0  0  0  0  0  0  0  0
    0.4007   -1.2529    1.4907 H   0  0  0  0  0  0  0  0  0  0  0  0
    7.5651    0.2149    2.5235 H   0  0  0  0  0  0  0  0  0  0  0  0
    7.7820   -1.2176    1.4923 H   0  0  0  0  0  0  0  0  0  0  0  0
    6.4617   -1.1571    2.6704 H   0  0  0  0  0  0  0  0  0  0  0  0
    6.1183   -6.8774   -1.8437 H   0  0  0  0  0  0  0  0  0  0  0  0
    6.9019   -6.8494   -0.2533 H   0  0  0  0  0  0  0  0  0  0  0  0
    7.4194   -5.7150   -1.5190 H   0  0  0  0  0  0  0  0  0  0  0  0
    2.3887   -1.0489   -0.8597 H   0  0  0  0  0  0  0  0  0  0  0  0
    1.9372   -2.5459   -0.0427 H   0  0  0  0  0  0  0  0  0  0  0  0
    6.7224    0.7088    0.2293 H   0  0  0  0  0  0  0  0  0  0  0  0
    5.3949    0.7295    1.3759 H   0  0  0  0  0  0  0  0  0  0  0  0
    4.6670   -5.6632   -0.1021 H   0  0  0  0  0  0  0  0  0  0  0  0
    5.1547   -4.5952   -1.4487 H   0  0  0  0  0  0  0  0  0  0  0  0
    2.8953   -1.7182    2.0921 H   0  0  0  0  0  0  0  0  0  0  0  0
    3.3404   -0.1891    1.3199 H   0  0  0  0  0  0  0  0  0  0  0  0
    6.1471   -1.5789   -0.5073 H   0  0  0  0  0  0  0  0  0  0  0  0
    4.8279   -0.4286   -0.7686 H   0  0  0  0  0  0  0  0  0  0  0  0
  1 15  1  0  0  0  0
  1 16  1  0  0  0  0
  2 17  1  0  0  0  0
  2 19  1  0  0  0  0
  3  6  1  0  0  0  0
  3 21  1  0  0  0  0
  4  1  1  0  0  0  0
  4  7  1  0  0  0  0
  5 26  1  0  0  0  0
  5  2  1  0  0  0  0
  6 27  1  0  0  0  0
  6 13  1  0  0  0  0
  7 30  1  0  0  0  0
  7 29  1  0  0  0  0
  8 10  1  0  0  0  0
  8  5  1  0  0  0  0
  9 11  2  0  0  0  0
 10  9  1  0  0  0  0
 10  7  1  0  0  0  0
 13 12  2  6  0  0  0
 13  9  1  0  0  0  0
 14  1  1  0  0  0  0
 18  2  1  0  0  0  0
 20  3  1  0  0  0  0
 22  3  1  0  0  0  0
 23  4  1  0  0  0  0
 24  4  1  0  0  0  0
 25  5  1  0  0  0  0
 28  6  1  0  0  0  0
 31  8  1  0  0  0  0
 32  8  1  0  0  0  0
M  END
>  <HBA>
3

>  <HBD>
0

>  <TPSA>
56.59

>  <cid>
40160

>  <dipole>
2.78

>  <excitation_energy_1>
4.748

>  <excitation_energy_2>
5.447

>  <excitation_energy_3>
5.613

>  <excitation_energy_4>
5.732

>  <homo_energy>
-6.057

>  <homo_lumo_gap>
5.919

>  <logP>
2.863

>  <lumo_energy>
-0.139

>  <melting_point>
25.11

>  <molecular_refractivity>
57.14

>  <oscillator_strength_1>
0.0328

>  <oscillator_strength_2>
0.0211

>  <oscillator_strength_3>
0.0106

>  <oscillator_strength_4>
0.0264

>  <open_babel_can_smiles>
CCCN(C(=O)[S@](=O)CC)CCC

>  <mulliken_charges>
32
1   -0.449073
2   -0.461067
3   -0.465145
4   -0.258922
5   -0.254865
6   -0.448104
7   -0.149314
8   -0.194302
9   0.34676
10   -0.381579
11   -0.494185
12   -0.639863
13   0.756
14   0.152145
15   0.143422
16   0.153181
17   0.143185
18   0.184237
19   0.143978
20   0.161368
21   0.16402
22   0.183874
23   0.137024
24   0.164027
25   0.144523
26   0.134315
27   0.20295
28   0.181516
29   0.178204
30   0.150318
31   0.226014
32   0.145357

>  <lowdin_charges>
32
1   -0.442946
2   -0.458825
3   -0.452864
4   -0.278981
5   -0.28159
6   -0.405983
7   -0.195879
8   -0.215982
9   0.018732
10   -0.077825
11   -0.29553
12   -0.676488
13   0.75704
14   0.156494
15   0.145397
16   0.152495
17   0.152659
18   0.168264
19   0.148697
20   0.162882
21   0.159737
22   0.169569
23   0.141484
24   0.154525
25   0.152686
26   0.139665
27   0.183682
28   0.165678
29   0.166488
30   0.14928
31   0.189914
32   0.147524

$$$$

