PCCDB-ID:  34627
public computational chemistry database (PCCDB) project, http://pccdb.org

 27 27  0  0  0  0  0  0  0  0999 V2000
    1.0271   -0.1050   -0.9833 C   0  0  0  0  0  0  0  0  0  0  0  0
    4.5765   -0.7943    3.9502 C   0  0  0  0  0  0  0  0  0  0  0  0
    2.8467    1.3303   -0.0351 C   0  0  0  0  0  0  0  0  0  0  0  0
    3.1967   -1.1643   -0.3191 C   0  0  0  0  0  0  0  0  0  0  0  0
    3.3738    1.2328    1.4116 C   0  0  0  0  0  0  0  0  0  0  0  0
    3.7090   -1.2536    1.1335 C   0  0  0  0  0  0  0  0  0  0  0  0
    6.0880    1.0227    3.2309 C   0  0  0  0  0  0  0  0  0  0  0  0
    2.2663    0.0139   -0.4990 C   0  0  0  0  0  0  0  0  0  0  0  0
    4.9666    0.0353    2.9756 C   0  0  0  0  0  0  0  0  0  0  0  0
    4.3751    0.0615    1.5752 C   0  0  0  0  0  0  0  0  0  0  0  0
    7.2168    0.7930    2.3836 O   0  0  0  0  0  0  0  0  0  0  0  0
    0.3693    0.7546   -1.0901 H   0  0  0  0  0  0  0  0  0  0  0  0
    0.6259   -1.0653   -1.2995 H   0  0  0  0  0  0  0  0  0  0  0  0
    5.0322   -0.7557    4.9373 H   0  0  0  0  0  0  0  0  0  0  0  0
    3.7923   -1.5333    3.8158 H   0  0  0  0  0  0  0  0  0  0  0  0
    3.6886    1.6056   -0.6901 H   0  0  0  0  0  0  0  0  0  0  0  0
    2.1038    2.1321   -0.1167 H   0  0  0  0  0  0  0  0  0  0  0  0
    2.6991   -2.0975   -0.6067 H   0  0  0  0  0  0  0  0  0  0  0  0
    4.0652   -1.0453   -0.9864 H   0  0  0  0  0  0  0  0  0  0  0  0
    2.5319    1.0757    2.0993 H   0  0  0  0  0  0  0  0  0  0  0  0
    3.8430    2.1830    1.6943 H   0  0  0  0  0  0  0  0  0  0  0  0
    4.4172   -2.0858    1.2315 H   0  0  0  0  0  0  0  0  0  0  0  0
    2.8583   -1.4790    1.7905 H   0  0  0  0  0  0  0  0  0  0  0  0
    6.3764    0.9981    4.2926 H   0  0  0  0  0  0  0  0  0  0  0  0
    5.7731    2.0466    2.9999 H   0  0  0  0  0  0  0  0  0  0  0  0
    5.2157    0.2550    0.8915 H   0  0  0  0  0  0  0  0  0  0  0  0
    7.5136   -0.1155    2.5530 H   0  0  0  0  0  0  0  0  0  0  0  0
  1  8  2  0  0  0  0
  2 14  1  0  0  0  0
  3  5  1  0  0  0  0
  4  6  1  0  0  0  0
  5 10  1  0  0  0  0
  5 21  1  0  0  0  0
  5 20  1  0  0  0  0
  6 22  1  0  0  0  0
  6 10  1  0  0  0  0
  6 23  1  0  0  0  0
  7 24  1  0  0  0  0
  8  4  1  0  0  0  0
  8  3  1  0  0  0  0
  9  7  1  0  0  0  0
  9  2  2  0  0  0  0
 10  9  1  0  0  0  0
 11 27  1  0  0  0  0
 11  7  1  0  0  0  0
 12  1  1  0  0  0  0
 13  1  1  0  0  0  0
 15  2  1  0  0  0  0
 16  3  1  0  0  0  0
 17  3  1  0  0  0  0
 18  4  1  0  0  0  0
 19  4  1  0  0  0  0
 25  7  1  0  0  0  0
 26 10  1  0  0  0  0
M  END
>  <HBA>
1

>  <HBD>
1

>  <TPSA>
20.23

>  <cid>
34627

>  <dipole>
1.26

>  <excitation_energy_1>
5.884

>  <excitation_energy_2>
6.064

>  <excitation_energy_3>
6.277

>  <excitation_energy_4>
6.334

>  <homo_energy>
-6.514

>  <homo_lumo_gap>
6.825

>  <logP>
2.281

>  <lumo_energy>
0.31

>  <melting_point>
-22.38

>  <molecular_refractivity>
48.28

>  <oscillator_strength_1>
0.0017

>  <oscillator_strength_2>
0.0957

>  <oscillator_strength_3>
0.0457

>  <oscillator_strength_4>
0.0118

>  <open_babel_can_smiles>
OCC(=C)C1CCC(=C)CC1

>  <mulliken_charges>
27
1   -0.417232
2   -0.409928
3   -0.328022
4   -0.330327
5   -0.265205
6   -0.268687
7   -0.098883
8   0.239816
9   0.182209
10   -0.149153
11   -0.608584
12   0.130501
13   0.130166
14   0.134483
15   0.144377
16   0.142516
17   0.138697
18   0.137396
19   0.140361
20   0.139725
21   0.135305
22   0.134174
23   0.137137
24   0.127416
25   0.152251
26   0.142788
27   0.386705

>  <lowdin_charges>
27
1   -0.366564
2   -0.356567
3   -0.275641
4   -0.274529
5   -0.273052
6   -0.275605
7   -0.1312
8   0.004385
9   -0.017987
10   -0.134142
11   -0.464995
12   0.153862
13   0.153023
14   0.154562
15   0.159407
16   0.148725
17   0.150635
18   0.149548
19   0.147159
20   0.144781
21   0.144745
22   0.146107
23   0.1425
24   0.131445
25   0.149136
26   0.150311
27   0.339953

$$$$

