PCCDB-ID:  8023
public computational chemistry database (PCCDB) project, http://pccdb.org

 13 12  0  0  0  0  0  0  0  0999 V2000
    2.6591    0.8415    0.2370 C   0  0  0  0  0  0  0  0  0  0  0  0
    5.2139   -2.6572   -0.0634 C   0  0  0  0  0  0  0  0  0  0  0  0
    2.3387   -0.4476    0.3900 C   0  0  0  0  0  0  0  0  0  0  0  0
    4.5189   -1.3083   -0.0059 C   0  0  0  0  0  0  0  0  0  0  0  0
    3.1424   -1.5369    0.2964 O   0  0  0  0  0  0  0  0  0  0  0  0
    1.8838    1.5910    0.3470 H   0  0  0  0  0  0  0  0  0  0  0  0
    3.6587    1.1914    0.0076 H   0  0  0  0  0  0  0  0  0  0  0  0
    6.2760   -2.5246   -0.2965 H   0  0  0  0  0  0  0  0  0  0  0  0
    4.7655   -3.2900   -0.8359 H   0  0  0  0  0  0  0  0  0  0  0  0
    5.1318   -3.1752    0.8973 H   0  0  0  0  0  0  0  0  0  0  0  0
    1.3244   -0.7628    0.6217 H   0  0  0  0  0  0  0  0  0  0  0  0
    4.5986   -0.7769   -0.9652 H   0  0  0  0  0  0  0  0  0  0  0  0
    4.9608   -0.6649    0.7686 H   0  0  0  0  0  0  0  0  0  0  0  0
  1  6  1  0  0  0  0
  1  3  2  0  0  0  0
  2  4  1  0  0  0  0
  2 10  1  0  0  0  0
  3 11  1  0  0  0  0
  4  5  1  0  0  0  0
  4 13  1  0  0  0  0
  5  3  1  0  0  0  0
  7  1  1  0  0  0  0
  8  2  1  0  0  0  0
  9  2  1  0  0  0  0
 12  4  1  0  0  0  0
M  END
>  <HBA>
1

>  <HBD>
0

>  <TPSA>
9.23

>  <cid>
8023

>  <dipole>
0.96

>  <excitation_energy_1>
5.841

>  <excitation_energy_2>
6.152

>  <excitation_energy_3>
6.334

>  <excitation_energy_4>
6.743

>  <homo_energy>
-6.071

>  <homo_lumo_gap>
7.331

>  <logP>
1.166

>  <lumo_energy>
1.26

>  <melting_point>
-54.78

>  <molecular_refractivity>
21.95

>  <oscillator_strength_1>
0.0504

>  <oscillator_strength_2>
0.0

>  <oscillator_strength_3>
0.0028

>  <oscillator_strength_4>
0.2381

>  <open_babel_can_smiles>
CCOC=C

>  <mulliken_charges>
13
1   -0.40195
2   -0.45616
3   0.15819
4   -0.0286
5   -0.445003
6   0.140014
7   0.139551
8   0.147576
9   0.162246
10   0.162172
11   0.140258
12   0.140866
13   0.140838

>  <lowdin_charges>
13
1   -0.431361
2   -0.447124
3   -0.036456
4   -0.123482
5   -0.200576
6   0.168493
7   0.160032
8   0.15525
9   0.160325
10   0.159029
11   0.156411
12   0.138948
13   0.140511

$$$$

