PCCDB-ID:  7189
public computational chemistry database (PCCDB) project, http://pccdb.org

 28 29  0  0  0  0  0  0  0  0999 V2000
   -1.0978   -2.0804    1.8381 C   0  0  0  0  0  0  0  0  0  0  0  0
    8.9783   -0.7910    0.4040 C   0  0  0  0  0  0  0  0  0  0  0  0
   -1.1664   -1.3711    0.6383 C   0  0  0  0  0  0  0  0  0  0  0  0
    0.1478   -2.3357    2.4218 C   0  0  0  0  0  0  0  0  0  0  0  0
    8.0211   -1.5862    1.0354 C   0  0  0  0  0  0  0  0  0  0  0  0
    8.5780    0.1729   -0.5264 C   0  0  0  0  0  0  0  0  0  0  0  0
    0.0026   -0.9215    0.0280 C   0  0  0  0  0  0  0  0  0  0  0  0
    1.3139   -1.8869    1.8120 C   0  0  0  0  0  0  0  0  0  0  0  0
    6.6669   -1.4129    0.7479 C   0  0  0  0  0  0  0  0  0  0  0  0
    7.2285    0.3387   -0.8201 C   0  0  0  0  0  0  0  0  0  0  0  0
    2.4533   -0.6716   -0.0893 C   0  0  0  0  0  0  0  0  0  0  0  0
    3.7446   -0.8077    0.2745 C   0  0  0  0  0  0  0  0  0  0  0  0
    1.2643   -1.1695    0.6002 C   0  0  0  0  0  0  0  0  0  0  0  0
    6.2538   -0.4461   -0.1819 C   0  0  0  0  0  0  0  0  0  0  0  0
    4.8182   -0.2088   -0.5568 C   0  0  0  0  0  0  0  0  0  0  0  0
    4.5495    0.4874   -1.5345 O   0  0  0  0  0  0  0  0  0  0  0  0
   -2.0068   -2.4335    2.3172 H   0  0  0  0  0  0  0  0  0  0  0  0
   10.0324   -0.9229    0.6336 H   0  0  0  0  0  0  0  0  0  0  0  0
   -2.1293   -1.1683    0.1777 H   0  0  0  0  0  0  0  0  0  0  0  0
    0.2067   -2.8875    3.3561 H   0  0  0  0  0  0  0  0  0  0  0  0
    8.3275   -2.3426    1.7528 H   0  0  0  0  0  0  0  0  0  0  0  0
    9.3208    0.7914   -1.0231 H   0  0  0  0  0  0  0  0  0  0  0  0
   -0.0523   -0.3683   -0.9064 H   0  0  0  0  0  0  0  0  0  0  0  0
    2.2724   -2.0941    2.2786 H   0  0  0  0  0  0  0  0  0  0  0  0
    5.9420   -2.0549    1.2375 H   0  0  0  0  0  0  0  0  0  0  0  0
    6.8961    1.0751   -1.5441 H   0  0  0  0  0  0  0  0  0  0  0  0
    2.2745   -0.1210   -1.0121 H   0  0  0  0  0  0  0  0  0  0  0  0
    4.0189   -1.3321    1.1833 H   0  0  0  0  0  0  0  0  0  0  0  0
  1 17  1  0  0  0  0
  1  4  1  0  0  0  0
  2 18  1  0  0  0  0
  2  5  2  0  0  0  0
  3  1  2  0  0  0  0
  4 20  1  0  0  0  0
  5 21  1  0  0  0  0
  6  2  1  0  0  0  0
  7 13  2  0  0  0  0
  7  3  1  0  0  0  0
  8 24  1  0  0  0  0
  8  4  2  0  0  0  0
  9  5  1  0  0  0  0
  9 25  1  0  0  0  0
 10  6  2  0  0  0  0
 10 14  1  0  0  0  0
 11 12  2  0  0  0  0
 11 13  1  0  0  0  0
 12 28  1  0  0  0  0
 13  8  1  0  0  0  0
 14  9  2  0  0  0  0
 15 14  1  0  0  0  0
 15 12  1  0  0  0  0
 16 15  2  0  0  0  0
 19  3  1  0  0  0  0
 22  6  1  0  0  0  0
 23  7  1  0  0  0  0
 26 10  1  0  0  0  0
 27 11  1  0  0  0  0
M  END
>  <HBA>
1

>  <HBD>
0

>  <TPSA>
17.07

>  <cid>
7189

>  <dipole>
3.05

>  <excitation_energy_1>
3.237

>  <excitation_energy_2>
3.847

>  <excitation_energy_3>
4.159

>  <excitation_energy_4>
4.277

>  <homo_energy>
-6.313

>  <homo_lumo_gap>
4.218

>  <logP>
3.583

>  <lumo_energy>
-2.095

>  <melting_point>
88.29

>  <molecular_refractivity>
66.25

>  <oscillator_strength_1>
0.0002

>  <oscillator_strength_2>
0.7378

>  <oscillator_strength_3>
0.0198

>  <oscillator_strength_4>
0.02

>  <open_babel_can_smiles>
O=C(c1ccccc1)/C=C/c1ccccc1

>  <mulliken_charges>
28
1   -0.123618
2   -0.118497
3   -0.13182
4   -0.131421
5   -0.137548
6   -0.134214
7   -0.18594
8   -0.170168
9   -0.172821
10   -0.153499
11   -0.153714
12   -0.202432
13   0.168992
14   0.068183
15   0.378054
16   -0.492085
17   0.136781
18   0.135714
19   0.137632
20   0.135934
21   0.133849
22   0.136825
23   0.141834
24   0.132315
25   0.134786
26   0.163129
27   0.168104
28   0.135643

>  <lowdin_charges>
28
1   -0.147115
2   -0.140153
3   -0.154213
4   -0.15171
5   -0.158244
6   -0.156586
7   -0.146446
8   -0.147113
9   -0.153187
10   -0.129003
11   -0.095696
12   -0.213202
13   -0.008283
14   -0.042681
15   0.151294
16   -0.26479
17   0.161885
18   0.159124
19   0.161673
20   0.16033
21   0.160257
22   0.162333
23   0.162524
24   0.158894
25   0.160656
26   0.17764
27   0.175558
28   0.156257

$$$$

