PCCDB-ID:  54557
public computational chemistry database (PCCDB) project, http://pccdb.org

 36 36  0  0  0  0  0  0  0  0999 V2000
    4.8438   -3.0510   -0.6128 C   0  0  0  0  0  0  0  0  0  0  0  0
    8.5826    4.1212   -0.6896 C   0  0  0  0  0  0  0  0  0  0  0  0
    5.9343   -2.1200   -1.1550 C   0  0  0  0  0  0  0  0  0  0  0  0
    7.4235    3.1714   -0.9521 C   0  0  0  0  0  0  0  0  0  0  0  0
   11.2690   -0.6842   -5.1531 C   0  0  0  0  0  0  0  0  0  0  0  0
   11.6096    0.5522   -4.5981 C   0  0  0  0  0  0  0  0  0  0  0  0
   10.0641   -1.2770   -4.7895 C   0  0  0  0  0  0  0  0  0  0  0  0
   10.7502    1.1767   -3.7014 C   0  0  0  0  0  0  0  0  0  0  0  0
    7.0617   -2.9058   -1.8275 C   0  0  0  0  0  0  0  0  0  0  0  0
    7.9162   -1.3703   -3.5021 C   0  0  0  0  0  0  0  0  0  0  0  0
    9.1875   -0.6665   -3.8823 C   0  0  0  0  0  0  0  0  0  0  0  0
    9.5359    0.5802   -3.3128 C   0  0  0  0  0  0  0  0  0  0  0  0
    8.4014    1.0154   -1.2644 C   0  0  0  0  0  0  0  0  0  0  0  0
    8.6989    1.3277   -2.4685 N   0  0  0  0  0  0  0  0  0  0  0  0
    8.6960   -0.0903   -0.5680 O   0  0  0  0  0  0  0  0  0  0  0  0
    8.1576   -2.1013   -2.2809 O   0  0  0  0  0  0  0  0  0  0  0  0
    7.7072    1.8421   -0.4667 O   0  0  0  0  0  0  0  0  0  0  0  0
    4.0464   -2.4788   -0.1277 H   0  0  0  0  0  0  0  0  0  0  0  0
    5.2491   -3.7503    0.1286 H   0  0  0  0  0  0  0  0  0  0  0  0
    4.3871   -3.6443   -1.4145 H   0  0  0  0  0  0  0  0  0  0  0  0
    8.3072    5.1373   -0.9955 H   0  0  0  0  0  0  0  0  0  0  0  0
    9.4650    3.8190   -1.2604 H   0  0  0  0  0  0  0  0  0  0  0  0
    8.8378    4.1383    0.3750 H   0  0  0  0  0  0  0  0  0  0  0  0
    6.3603   -1.5181   -0.3438 H   0  0  0  0  0  0  0  0  0  0  0  0
    5.4908   -1.4153   -1.8700 H   0  0  0  0  0  0  0  0  0  0  0  0
    7.1827    3.1206   -2.0163 H   0  0  0  0  0  0  0  0  0  0  0  0
    6.5332    3.4705   -0.3923 H   0  0  0  0  0  0  0  0  0  0  0  0
   11.9307   -1.1745   -5.8613 H   0  0  0  0  0  0  0  0  0  0  0  0
   12.5444    1.0353   -4.8710 H   0  0  0  0  0  0  0  0  0  0  0  0
    9.7851   -2.2389   -5.2144 H   0  0  0  0  0  0  0  0  0  0  0  0
   10.9989    2.1459   -3.2796 H   0  0  0  0  0  0  0  0  0  0  0  0
    6.6753   -3.4897   -2.6774 H   0  0  0  0  0  0  0  0  0  0  0  0
    7.5049   -3.6111   -1.1157 H   0  0  0  0  0  0  0  0  0  0  0  0
    7.6202   -2.0859   -4.2815 H   0  0  0  0  0  0  0  0  0  0  0  0
    7.0965   -0.6549   -3.3599 H   0  0  0  0  0  0  0  0  0  0  0  0
    8.7610   -0.8651   -1.1819 H   0  0  0  0  0  0  0  0  0  0  0  0
  1 18  1  0  0  0  0
  1 19  1  0  0  0  0
  2 23  1  0  0  0  0
  3  1  1  0  0  0  0
  3 24  1  0  0  0  0
  4  2  1  0  0  0  0
  4 17  1  0  0  0  0
  4 27  1  0  0  0  0
  5  7  2  0  0  0  0
  5  6  1  0  0  0  0
  6  8  2  0  0  0  0
  7 11  1  0  0  0  0
  8 12  1  0  0  0  0
  8 31  1  0  0  0  0
  9  3  1  0  0  0  0
  9 33  1  0  0  0  0
 10 35  1  0  0  0  0
 10 16  1  0  0  0  0
 11 10  1  0  0  0  0
 11 12  2  0  0  0  0
 12 14  1  0  0  0  0
 13 15  1  0  0  0  0
 13 17  1  0  0  0  0
 14 13  2  0  0  0  0
 16  9  1  0  0  0  0
 20  1  1  0  0  0  0
 21  2  1  0  0  0  0
 22  2  1  0  0  0  0
 25  3  1  0  0  0  0
 26  4  1  0  0  0  0
 28  5  1  0  0  0  0
 29  6  1  0  0  0  0
 30  7  1  0  0  0  0
 32  9  1  0  0  0  0
 34 10  1  0  0  0  0
 36 15  1  0  0  0  0
M  END
>  <HBA>
4

>  <HBD>
1

>  <TPSA>
47.56

>  <cid>
54557

>  <dipole>
2.02

>  <excitation_energy_1>
4.835

>  <excitation_energy_2>
5.237

>  <excitation_energy_3>
5.54

>  <excitation_energy_4>
5.671

>  <homo_energy>
-5.804

>  <homo_lumo_gap>
5.701

>  <logP>
3.255

>  <lumo_energy>
-0.103

>  <melting_point>
53.21

>  <molecular_refractivity>
67.51

>  <oscillator_strength_1>
0.0338

>  <oscillator_strength_2>
0.1686

>  <oscillator_strength_3>
0.0072

>  <oscillator_strength_4>
0.0018

>  <open_babel_can_smiles>
CCCOCc1ccccc1/N=C(/OCC)\O

>  <mulliken_charges>
36
1   -0.451488
2   -0.461639
3   -0.290001
4   -0.032515
5   -0.129977
6   -0.134648
7   -0.186162
8   -0.145354
9   -0.011414
10   -0.130797
11   0.131185
12   0.204224
13   0.672907
14   -0.553022
15   -0.612599
16   -0.506771
17   -0.455403
18   0.155022
19   0.148224
20   0.144368
21   0.145992
22   0.170579
23   0.158968
24   0.169934
25   0.142675
26   0.171332
27   0.149539
28   0.125506
29   0.129036
30   0.124214
31   0.13066
32   0.129152
33   0.151852
34   0.138949
35   0.15358
36   0.453892

>  <lowdin_charges>
36
1   -0.44699
2   -0.453694
3   -0.297556
4   -0.122819
5   -0.175076
6   -0.147734
7   -0.150491
8   -0.170096
9   -0.136277
10   -0.133485
11   -0.053609
12   0.052848
13   0.202684
14   -0.256857
15   -0.370329
16   -0.281307
17   -0.179579
18   0.158355
19   0.150839
20   0.148653
21   0.156017
22   0.161905
23   0.155483
24   0.16004
25   0.146171
26   0.156896
27   0.151071
28   0.158157
29   0.157869
30   0.154694
31   0.160194
32   0.135115
33   0.152402
34   0.143384
35   0.14568
36   0.367444

$$$$

