PCCDB-ID:  41717
public computational chemistry database (PCCDB) project, http://pccdb.org

 34 33  0  0  1  0  0  0  0  0999 V2000
    2.2757    1.5644    1.3591 C   0  0  0  0  0  0  0  0  0  0  0  0
    1.8792    5.3948   -3.4987 C   0  0  0  0  0  0  0  0  0  0  0  0
    4.5078    1.7228   -5.2674 C   0  0  0  0  0  0  0  0  0  0  0  0
    3.7371    1.9883    1.1687 C   0  0  0  0  0  0  0  0  0  0  0  0
    2.3050    3.9492   -3.2157 C   0  0  0  0  0  0  0  0  0  0  0  0
    4.0125    1.3802   -3.8577 C   0  0  0  0  0  0  0  0  0  0  0  0
    4.0275    2.7112   -0.1575 C   0  0  0  0  0  0  0  0  0  0  0  0
    3.8240    3.8140   -3.0438 C   0  0  0  0  0  0  0  0  0  0  0  0
    3.8148    1.8349   -1.4006 C   0  0  0  0  0  0  0  0  0  0  0  0
    4.3704    2.3986   -2.7350 C   0  0  1  0  0  0  0  0  0  0  0  0
    5.8322    2.5529   -2.5641 N   0  0  0  0  0  0  0  0  0  0  0  0
    2.1217    1.1036    2.3419 H   0  0  0  0  0  0  0  0  0  0  0  0
    1.9596    0.8371    0.6026 H   0  0  0  0  0  0  0  0  0  0  0  0
    1.6025    2.4285    1.2888 H   0  0  0  0  0  0  0  0  0  0  0  0
    0.7929    5.4750   -3.6204 H   0  0  0  0  0  0  0  0  0  0  0  0
    2.3463    5.7739   -4.4162 H   0  0  0  0  0  0  0  0  0  0  0  0
    2.1734    6.0624   -2.6796 H   0  0  0  0  0  0  0  0  0  0  0  0
    4.2976    0.8998   -5.9595 H   0  0  0  0  0  0  0  0  0  0  0  0
    5.5910    1.8935   -5.2853 H   0  0  0  0  0  0  0  0  0  0  0  0
    4.0226    2.6193   -5.6694 H   0  0  0  0  0  0  0  0  0  0  0  0
    4.3860    1.1038    1.2471 H   0  0  0  0  0  0  0  0  0  0  0  0
    4.0262    2.6491    1.9974 H   0  0  0  0  0  0  0  0  0  0  0  0
    1.9577    3.3067   -4.0355 H   0  0  0  0  0  0  0  0  0  0  0  0
    1.7925    3.5947   -2.3118 H   0  0  0  0  0  0  0  0  0  0  0  0
    4.4317    0.4069   -3.5620 H   0  0  0  0  0  0  0  0  0  0  0  0
    2.9242    1.2364   -3.8866 H   0  0  0  0  0  0  0  0  0  0  0  0
    5.0653    3.0629   -0.1590 H   0  0  0  0  0  0  0  0  0  0  0  0
    3.3931    3.6072   -0.2160 H   0  0  0  0  0  0  0  0  0  0  0  0
    4.1605    4.4842   -2.2439 H   0  0  0  0  0  0  0  0  0  0  0  0
    4.3117    4.1824   -3.9587 H   0  0  0  0  0  0  0  0  0  0  0  0
    2.7487    1.6100   -1.5294 H   0  0  0  0  0  0  0  0  0  0  0  0
    4.3027    0.8617   -1.2294 H   0  0  0  0  0  0  0  0  0  0  0  0
    6.2384    2.9745   -3.3985 H   0  0  0  0  0  0  0  0  0  0  0  0
    6.2632    1.6320   -2.4726 H   0  0  0  0  0  0  0  0  0  0  0  0
  1 12  1  0  0  0  0
  2  5  1  0  0  0  0
  2 17  1  0  0  0  0
  3  6  1  0  0  0  0
  4 21  1  0  0  0  0
  4  1  1  0  0  0  0
  4 22  1  0  0  0  0
  5  8  1  0  0  0  0
  5 24  1  0  0  0  0
  6 25  1  0  0  0  0
  7  4  1  0  0  0  0
  8 10  1  0  0  0  0
  8 29  1  0  0  0  0
  9 32  1  0  0  0  0
  9  7  1  0  0  0  0
 10  6  1  6  0  0  0
 10 11  1  0  0  0  0
 10  9  1  0  0  0  0
 11 34  1  0  0  0  0
 13  1  1  0  0  0  0
 14  1  1  0  0  0  0
 15  2  1  0  0  0  0
 16  2  1  0  0  0  0
 18  3  1  0  0  0  0
 19  3  1  0  0  0  0
 20  3  1  0  0  0  0
 23  5  1  0  0  0  0
 26  6  1  0  0  0  0
 27  7  1  0  0  0  0
 28  7  1  0  0  0  0
 30  8  1  0  0  0  0
 31  9  1  0  0  0  0
 33 11  1  0  0  0  0
M  END
>  <HBA>
1

>  <HBD>
1

>  <TPSA>
26.02

>  <cid>
41717

>  <dipole>
1.24

>  <excitation_energy_1>
5.581

>  <excitation_energy_2>
6.14

>  <excitation_energy_3>
6.214

>  <excitation_energy_4>
6.36

>  <homo_energy>
-6.193

>  <homo_lumo_gap>
8.06

>  <logP>
3.784

>  <lumo_energy>
1.867

>  <melting_point>
36.05

>  <molecular_refractivity>
52.93

>  <oscillator_strength_1>
0.025

>  <oscillator_strength_2>
0.001

>  <oscillator_strength_3>
0.0006

>  <oscillator_strength_4>
0.0075

>  <open_babel_can_smiles>
CCCC[C@](CCC)(CC)N

>  <mulliken_charges>
34
1   -0.442658
2   -0.442534
3   -0.4546
4   -0.251534
5   -0.262138
6   -0.257621
7   -0.257163
8   -0.262827
9   -0.258733
10   0.186694
11   -0.723187
12   0.139661
13   0.143804
14   0.138265
15   0.141013
16   0.140413
17   0.143649
18   0.145454
19   0.128752
20   0.148932
21   0.126171
22   0.128636
23   0.134022
24   0.138623
25   0.118928
26   0.131409
27   0.159436
28   0.123615
29   0.149559
30   0.118989
31   0.131947
32   0.114211
33   0.293819
34   0.286992

>  <lowdin_charges>
34
1   -0.449248
2   -0.442297
3   -0.451026
4   -0.273056
5   -0.278111
6   -0.288193
7   -0.280881
8   -0.283407
9   -0.277685
10   0.058212
11   -0.546761
12   0.14786
13   0.146715
14   0.144928
15   0.146966
16   0.145882
17   0.148005
18   0.153497
19   0.138214
20   0.148915
21   0.136717
22   0.14127
23   0.140905
24   0.142892
25   0.136178
26   0.140009
27   0.154878
28   0.13579
29   0.152529
30   0.136897
31   0.139511
32   0.134391
33   0.251259
34   0.248242

$$$$

