PCCDB-ID:  37555
public computational chemistry database (PCCDB) project, http://pccdb.org

 28 27  0  0  1  0  0  0  0  0999 V2000
    5.5750   -3.2782    5.2780 C   0  0  0  0  0  0  0  0  0  0  0  0
    5.4428   -4.6839   -0.3430 C   0  0  0  0  0  0  0  0  0  0  0  0
    6.9618   -2.7560    0.3413 C   0  0  0  0  0  0  0  0  0  0  0  0
    7.3187   -5.0626    1.3002 C   0  0  0  0  0  0  0  0  0  0  0  0
    4.0916   -5.6640    6.8846 C   0  0  0  0  0  0  0  0  0  0  0  0
    4.3999   -3.9927    4.6172 C   0  0  1  0  0  0  0  0  0  0  0  0
    4.3887   -2.9883    1.9075 C   0  0  0  0  0  0  0  0  0  0  0  0
    6.2902   -4.0628    0.7703 C   0  0  0  0  0  0  0  0  0  0  0  0
    4.0155   -2.3395    0.9582 O   0  0  0  0  0  0  0  0  0  0  0  0
    5.4397   -3.8176    1.9684 O   0  0  0  0  0  0  0  0  0  0  0  0
    3.0994   -4.5798    5.7958 S   0  0  0  0  0  0  0  0  0  0  0  0
    3.4797   -2.8783    3.4568 S   0  0  0  0  0  0  0  0  0  0  0  0
    6.1152   -3.9541    5.9506 H   0  0  0  0  0  0  0  0  0  0  0  0
    5.2339   -2.4120    5.8522 H   0  0  0  0  0  0  0  0  0  0  0  0
    6.2782   -2.9393    4.5103 H   0  0  0  0  0  0  0  0  0  0  0  0
    6.0935   -4.9683   -1.1775 H   0  0  0  0  0  0  0  0  0  0  0  0
    4.6922   -3.9824   -0.7104 H   0  0  0  0  0  0  0  0  0  0  0  0
    4.9390   -5.5869    0.0179 H   0  0  0  0  0  0  0  0  0  0  0  0
    7.6716   -2.9621   -0.4676 H   0  0  0  0  0  0  0  0  0  0  0  0
    7.5177   -2.3183    1.1776 H   0  0  0  0  0  0  0  0  0  0  0  0
    6.2280   -2.0312   -0.0141 H   0  0  0  0  0  0  0  0  0  0  0  0
    8.0193   -5.3328    0.5032 H   0  0  0  0  0  0  0  0  0  0  0  0
    6.8279   -5.9757    1.6523 H   0  0  0  0  0  0  0  0  0  0  0  0
    7.8888   -4.6317    2.1295 H   0  0  0  0  0  0  0  0  0  0  0  0
    3.3751   -6.1583    7.5464 H   0  0  0  0  0  0  0  0  0  0  0  0
    4.8013   -5.1015    7.4962 H   0  0  0  0  0  0  0  0  0  0  0  0
    4.6187   -6.4312    6.3088 H   0  0  0  0  0  0  0  0  0  0  0  0
    4.7437   -4.8461    4.0302 H   0  0  0  0  0  0  0  0  0  0  0  0
  1 14  1  0  0  0  0
  1 13  1  0  0  0  0
  2 18  1  0  0  0  0
  2  8  1  0  0  0  0
  3  8  1  0  0  0  0
  3 20  1  0  0  0  0
  4 23  1  0  0  0  0
  4 24  1  0  0  0  0
  5 26  1  0  0  0  0
  5 25  1  0  0  0  0
  6 28  1  6  0  0  0
  6  1  1  0  0  0  0
  6 11  1  0  0  0  0
  7 10  1  0  0  0  0
  7 12  1  0  0  0  0
  8  4  1  0  0  0  0
  8 10  1  0  0  0  0
  9  7  2  0  0  0  0
 11  5  1  0  0  0  0
 12  6  1  0  0  0  0
 15  1  1  0  0  0  0
 16  2  1  0  0  0  0
 17  2  1  0  0  0  0
 19  3  1  0  0  0  0
 21  3  1  0  0  0  0
 22  4  1  0  0  0  0
 27  5  1  0  0  0  0
M  END
>  <HBA>
4

>  <HBD>
0

>  <TPSA>
76.9

>  <cid>
37555

>  <dipole>
5.14

>  <excitation_energy_1>
5.097

>  <excitation_energy_2>
5.371

>  <excitation_energy_3>
5.675

>  <excitation_energy_4>
5.728

>  <homo_energy>
-6.188

>  <homo_lumo_gap>
6.46

>  <logP>
3.364

>  <lumo_energy>
0.272

>  <melting_point>
23.85

>  <molecular_refractivity>
57.46

>  <oscillator_strength_1>
0.0005

>  <oscillator_strength_2>
0.0088

>  <oscillator_strength_3>
0.0034

>  <oscillator_strength_4>
0.0045

>  <open_babel_can_smiles>
CS[C@@H](SC(=O)OC(C)(C)C)C

>  <mulliken_charges>
28
1   -0.437143
2   -0.466687
3   -0.46603
4   -0.451724
5   -0.596131
6   -0.402512
7   0.462482
8   0.298598
9   -0.45531
10   -0.477386
11   0.123828
12   0.166068
13   0.152022
14   0.176228
15   0.165956
16   0.147946
17   0.191248
18   0.153196
19   0.148062
20   0.150843
21   0.191453
22   0.152649
23   0.155799
24   0.155627
25   0.190729
26   0.183679
27   0.17701
28   0.209501

>  <lowdin_charges>
28
1   -0.45364
2   -0.457884
3   -0.45818
4   -0.446011
5   -0.551881
6   -0.324523
7   0.090157
8   0.148204
9   -0.258534
10   -0.199145
11   0.108406
12   0.174632
13   0.154897
14   0.167073
15   0.16262
16   0.158729
17   0.175788
18   0.157524
19   0.15865
20   0.156704
21   0.175865
22   0.159464
23   0.157709
24   0.158064
25   0.182086
26   0.165044
27   0.163918
28   0.17426

$$$$

