PCCDB-ID:  11449
public computational chemistry database (PCCDB) project, http://pccdb.org

 24 23  0  0  0  0  0  0  0  0999 V2000
    0.8390   -0.0672    0.1690 C   0  0  0  0  0  0  0  0  0  0  0  0
    8.6679    3.8520   -2.0185 C   0  0  0  0  0  0  0  0  0  0  0  0
    2.3511   -0.1132   -0.0723 C   0  0  0  0  0  0  0  0  0  0  0  0
    2.9350    1.2382   -0.5044 C   0  0  0  0  0  0  0  0  0  0  0  0
    4.4503    1.1954   -0.7365 C   0  0  0  0  0  0  0  0  0  0  0  0
    5.0246    2.5504   -1.1515 C   0  0  0  0  0  0  0  0  0  0  0  0
    7.1726    3.8713   -1.8131 C   0  0  0  0  0  0  0  0  0  0  0  0
    6.5214    2.5354   -1.3689 C   0  0  0  0  0  0  0  0  0  0  0  0
    6.4760    4.8551   -1.9735 O   0  0  0  0  0  0  0  0  0  0  0  0
    7.2259    1.5547   -1.2172 O   0  0  0  0  0  0  0  0  0  0  0  0
    0.4525   -1.0461    0.4744 H   0  0  0  0  0  0  0  0  0  0  0  0
    0.3016    0.2348   -0.7385 H   0  0  0  0  0  0  0  0  0  0  0  0
    0.5849    0.6521    0.9574 H   0  0  0  0  0  0  0  0  0  0  0  0
    9.1725    3.5471   -1.0948 H   0  0  0  0  0  0  0  0  0  0  0  0
    9.0082    4.8420   -2.3269 H   0  0  0  0  0  0  0  0  0  0  0  0
    8.9367    3.1052   -2.7741 H   0  0  0  0  0  0  0  0  0  0  0  0
    2.5775   -0.8667   -0.8399 H   0  0  0  0  0  0  0  0  0  0  0  0
    2.8590   -0.4499    0.8425 H   0  0  0  0  0  0  0  0  0  0  0  0
    2.7016    1.9945    0.2600 H   0  0  0  0  0  0  0  0  0  0  0  0
    2.4320    1.5726   -1.4240 H   0  0  0  0  0  0  0  0  0  0  0  0
    4.6878    0.4511   -1.5075 H   0  0  0  0  0  0  0  0  0  0  0  0
    4.9576    0.8517    0.1740 H   0  0  0  0  0  0  0  0  0  0  0  0
    4.8043    3.3278   -0.4050 H   0  0  0  0  0  0  0  0  0  0  0  0
    4.5558    2.9259   -2.0726 H   0  0  0  0  0  0  0  0  0  0  0  0
  1 11  1  0  0  0  0
  1 13  1  0  0  0  0
  2  7  1  0  0  0  0
  2 14  1  0  0  0  0
  3  1  1  0  0  0  0
  3 18  1  0  0  0  0
  4  3  1  0  0  0  0
  4 19  1  0  0  0  0
  5  4  1  0  0  0  0
  5 22  1  0  0  0  0
  6  5  1  0  0  0  0
  6 23  1  0  0  0  0
  7  8  1  0  0  0  0
  8 10  2  0  0  0  0
  8  6  1  0  0  0  0
  9  7  2  0  0  0  0
 12  1  1  0  0  0  0
 15  2  1  0  0  0  0
 16  2  1  0  0  0  0
 17  3  1  0  0  0  0
 20  4  1  0  0  0  0
 21  5  1  0  0  0  0
 24  6  1  0  0  0  0
M  END
>  <HBA>
2

>  <HBD>
0

>  <TPSA>
34.14

>  <cid>
11449

>  <dipole>
0.28

>  <excitation_energy_1>
2.668

>  <excitation_energy_2>
4.464

>  <excitation_energy_3>
5.632

>  <excitation_energy_4>
5.705

>  <homo_energy>
-6.544

>  <homo_lumo_gap>
4.27

>  <logP>
1.725

>  <lumo_energy>
-2.275

>  <melting_point>
14.89

>  <molecular_refractivity>
40.97

>  <oscillator_strength_1>
0.0

>  <oscillator_strength_2>
0.0

>  <oscillator_strength_3>
0.0

>  <oscillator_strength_4>
0.0022

>  <open_babel_can_smiles>
CCCCCC(=O)C(=O)C

>  <mulliken_charges>
24
1   -0.442005
2   -0.522696
3   -0.247915
4   -0.249524
5   -0.250527
6   -0.357111
7   0.392555
8   0.382039
9   -0.418092
10   -0.432328
11   0.143428
12   0.141923
13   0.1419
14   0.186764
15   0.17751
16   0.187033
17   0.132872
18   0.132908
19   0.128169
20   0.128497
21   0.145453
22   0.14642
23   0.176033
24   0.176694

>  <lowdin_charges>
24
1   -0.445449
2   -0.469905
3   -0.272926
4   -0.275941
5   -0.272548
6   -0.305879
7   0.136975
8   0.132606
9   -0.206784
10   -0.208898
11   0.150045
12   0.147012
13   0.147299
14   0.182789
15   0.172638
16   0.183488
17   0.141034
18   0.140686
19   0.138696
20   0.138528
21   0.149558
22   0.149655
23   0.173765
24   0.173556

$$$$

