PCCDB-ID:  44981
public computational chemistry database (PCCDB) project, http://pccdb.org

 26 25  0  0  1  0  0  0  0  0999 V2000
    5.2853    2.0373   -3.0379 C   0  0  0  0  0  0  0  0  0  0  0  0
    0.3917    1.2208    1.1613 C   0  0  0  0  0  0  0  0  0  0  0  0
    4.3486    1.2187   -2.1444 C   0  0  0  0  0  0  0  0  0  0  0  0
    4.7625    1.2425   -0.6673 C   0  0  0  0  0  0  0  0  0  0  0  0
    1.1031   -2.3996   -1.2485 C   0  0  0  0  0  0  0  0  0  0  0  0
    3.8646    0.4139    0.2413 C   0  0  0  0  0  0  0  0  0  0  0  0
    0.7737   -1.0829   -0.6828 C   0  0  0  0  0  0  0  0  0  0  0  0
    1.6249    0.3351    1.0591 C   0  0  2  0  0  0  0  0  0  0  0  0
    1.3533   -3.4313   -1.7157 N   0  0  0  0  0  0  0  0  0  0  0  0
    2.5450    0.9770    0.2221 O   0  0  0  0  0  0  0  0  0  0  0  0
    1.3304   -0.9959    0.6197 O   0  0  0  0  0  0  0  0  0  0  0  0
    4.9692    1.9996   -4.0864 H   0  0  0  0  0  0  0  0  0  0  0  0
    6.3142    1.6602   -2.9868 H   0  0  0  0  0  0  0  0  0  0  0  0
    5.3037    3.0910   -2.7336 H   0  0  0  0  0  0  0  0  0  0  0  0
    0.6574    2.1685    1.6384 H   0  0  0  0  0  0  0  0  0  0  0  0
   -0.3787    0.7255    1.7595 H   0  0  0  0  0  0  0  0  0  0  0  0
   -0.0132    1.4480    0.1699 H   0  0  0  0  0  0  0  0  0  0  0  0
    4.3254    0.1766   -2.4944 H   0  0  0  0  0  0  0  0  0  0  0  0
    3.3241    1.5998   -2.2344 H   0  0  0  0  0  0  0  0  0  0  0  0
    4.7782    2.2778   -0.3008 H   0  0  0  0  0  0  0  0  0  0  0  0
    5.7868    0.8572   -0.5640 H   0  0  0  0  0  0  0  0  0  0  0  0
    4.2437    0.4239    1.2750 H   0  0  0  0  0  0  0  0  0  0  0  0
    3.8280   -0.6326   -0.0895 H   0  0  0  0  0  0  0  0  0  0  0  0
   -0.3202   -0.9737   -0.6645 H   0  0  0  0  0  0  0  0  0  0  0  0
    1.1851   -0.3081   -1.3422 H   0  0  0  0  0  0  0  0  0  0  0  0
    2.0635    0.1582    2.0506 H   0  0  0  0  0  0  0  0  0  0  0  0
  1 13  1  0  0  0  0
  1 14  1  0  0  0  0
  1  3  1  0  0  0  0
  2 15  1  0  0  0  0
  2 16  1  0  0  0  0
  3  4  1  0  0  0  0
  4 21  1  0  0  0  0
  4 20  1  0  0  0  0
  4  6  1  0  0  0  0
  5  7  1  0  0  0  0
  6 22  1  0  0  0  0
  7 24  1  0  0  0  0
  7 11  1  0  0  0  0
  8  2  1  0  0  0  0
  8 26  1  1  0  0  0
  9  5  3  0  0  0  0
 10  6  1  0  0  0  0
 10  8  1  0  0  0  0
 11  8  1  0  0  0  0
 12  1  1  0  0  0  0
 17  2  1  0  0  0  0
 18  3  1  0  0  0  0
 19  3  1  0  0  0  0
 23  6  1  0  0  0  0
 25  7  1  0  0  0  0
M  END
>  <HBA>
3

>  <HBD>
0

>  <TPSA>
42.25

>  <cid>
44981

>  <dipole>
4.08

>  <excitation_energy_1>
6.847

>  <excitation_energy_2>
7.034

>  <excitation_energy_3>
7.15

>  <excitation_energy_4>
7.209

>  <homo_energy>
-7.701

>  <homo_lumo_gap>
8.112

>  <logP>
1.689

>  <lumo_energy>
0.411

>  <melting_point>
-11.89

>  <molecular_refractivity>
42.49

>  <oscillator_strength_1>
0.0024

>  <oscillator_strength_2>
0.0042

>  <oscillator_strength_3>
0.0195

>  <oscillator_strength_4>
0.0053

>  <open_babel_can_smiles>
CCCCO[C@H](OCC#N)C

>  <mulliken_charges>
26
1   -0.442874
2   -0.475101
3   -0.252644
4   -0.268518
5   0.352677
6   -0.033916
7   -0.085353
8   0.353624
9   -0.467953
10   -0.478397
11   -0.476245
12   0.145644
13   0.142789
14   0.143298
15   0.167259
16   0.162898
17   0.15946
18   0.134515
19   0.147241
20   0.14313
21   0.136786
22   0.128929
23   0.148612
24   0.181362
25   0.198802
26   0.133972

>  <lowdin_charges>
26
1   -0.440042
2   -0.46143
3   -0.273045
4   -0.27931
5   -0.016615
6   -0.127334
7   -0.12963
8   0.101085
9   -0.110239
10   -0.264545
11   -0.265364
12   0.150174
13   0.145811
14   0.145926
15   0.168422
16   0.164714
17   0.159197
18   0.139858
19   0.144942
20   0.146348
21   0.147431
22   0.133641
23   0.139578
24   0.164887
25   0.177387
26   0.138152

$$$$

