PCCDB-ID:  32065
public computational chemistry database (PCCDB) project, http://pccdb.org

 20 21  0  0  1  0  0  0  0  0999 V2000
    0.8126    0.0611   -0.0606 C   0  0  0  0  0  0  0  0  0  0  0  0
    3.0317    1.0794    0.8416 C   0  0  0  0  0  0  0  0  0  0  0  0
    3.8052    0.3760    2.0004 C   0  0  0  0  0  0  0  0  0  0  0  0
    3.8768   -3.3198    1.9846 C   0  0  0  0  0  0  0  0  0  0  0  0
    3.0738   -3.5425    0.8637 C   0  0  0  0  0  0  0  0  0  0  0  0
    2.3466   -0.0280   -0.0299 C   0  0  1  0  0  0  0  0  0  0  0  0
    3.6401   -1.0942    1.7169 C   0  0  0  0  0  0  0  0  0  0  0  0
    2.8345   -1.3169    0.5906 C   0  0  0  0  0  0  0  0  0  0  0  0
    4.1706   -2.0878    2.4305 N   0  0  0  0  0  0  0  0  0  0  0  0
    2.5380   -2.5398    0.1495 N   0  0  0  0  0  0  0  0  0  0  0  0
    0.4873    0.9927   -0.5376 H   0  0  0  0  0  0  0  0  0  0  0  0
    0.3980    0.0368    0.9545 H   0  0  0  0  0  0  0  0  0  0  0  0
    0.3905   -0.7808   -0.6189 H   0  0  0  0  0  0  0  0  0  0  0  0
    3.7169    1.6754    0.2314 H   0  0  0  0  0  0  0  0  0  0  0  0
    2.2817    1.7723    1.2361 H   0  0  0  0  0  0  0  0  0  0  0  0
    3.3992    0.6270    2.9880 H   0  0  0  0  0  0  0  0  0  0  0  0
    4.8651    0.6552    2.0243 H   0  0  0  0  0  0  0  0  0  0  0  0
    4.2952   -4.1567    2.5405 H   0  0  0  0  0  0  0  0  0  0  0  0
    2.8553   -4.5556    0.5315 H   0  0  0  0  0  0  0  0  0  0  0  0
    2.7064    0.0273   -1.0661 H   0  0  0  0  0  0  0  0  0  0  0  0
  1  6  1  0  0  0  0
  1 12  1  0  0  0  0
  2 15  1  0  0  0  0
  2  3  1  0  0  0  0
  3 17  1  0  0  0  0
  3 16  1  0  0  0  0
  4  9  1  0  0  0  0
  4 18  1  0  0  0  0
  5  4  2  0  0  0  0
  6 20  1  6  0  0  0
  6  8  1  0  0  0  0
  6  2  1  0  0  0  0
  7  3  1  0  0  0  0
  7  9  2  0  0  0  0
  8  7  1  0  0  0  0
 10  8  2  0  0  0  0
 10  5  1  0  0  0  0
 11  1  1  0  0  0  0
 13  1  1  0  0  0  0
 14  2  1  0  0  0  0
 19  5  1  0  0  0  0
M  END
>  <HBA>
2

>  <HBD>
0

>  <TPSA>
25.78

>  <cid>
32065

>  <dipole>
0.86

>  <excitation_energy_1>
3.885

>  <excitation_energy_2>
4.797

>  <excitation_energy_3>
4.921

>  <excitation_energy_4>
5.675

>  <homo_energy>
-6.487

>  <homo_lumo_gap>
5.233

>  <logP>
1.526

>  <lumo_energy>
-1.254

>  <melting_point>
64.25

>  <molecular_refractivity>
39.46

>  <oscillator_strength_1>
0.0057

>  <oscillator_strength_2>
0.0

>  <oscillator_strength_3>
0.1612

>  <oscillator_strength_4>
0.0

>  <open_babel_can_smiles>
C[C@H]1CCc2c1nccn2

>  <mulliken_charges>
20
1   -0.44696
2   -0.303304
3   -0.342089
4   0.022326
5   0.022523
6   -0.143861
7   0.276006
8   0.285016
9   -0.446016
10   -0.452315
11   0.144975
12   0.142756
13   0.167125
14   0.149454
15   0.149298
16   0.166195
17   0.1663
18   0.145365
19   0.145179
20   0.152027

>  <lowdin_charges>
20
1   -0.440844
2   -0.28414
3   -0.280924
4   -0.111601
5   -0.110095
6   -0.128052
7   0.022006
8   0.020423
9   -0.126596
10   -0.126683
11   0.150711
12   0.147183
13   0.162285
14   0.153493
15   0.152619
16   0.161842
17   0.161586
18   0.162538
19   0.160409
20   0.15384

$$$$

