PCCDB-ID:  30271
public computational chemistry database (PCCDB) project, http://pccdb.org

 36 36  0  0  0  0  0  0  0  0999 V2000
    1.4589    0.9151   -0.4164 C   0  0  0  0  0  0  0  0  0  0  0  0
    6.6242    2.6348    4.0941 C   0  0  0  0  0  0  0  0  0  0  0  0
    7.0761    4.0342    2.1960 C   0  0  0  0  0  0  0  0  0  0  0  0
    5.6363   -4.2040    3.4940 C   0  0  0  0  0  0  0  0  0  0  0  0
    3.7926   -3.1038    1.6421 C   0  0  0  0  0  0  0  0  0  0  0  0
    2.9205   -2.4680    0.7682 C   0  0  0  0  0  0  0  0  0  0  0  0
    5.4163    2.2824    2.0165 C   0  0  0  0  0  0  0  0  0  0  0  0
    4.0184    1.9117    2.5254 C   0  0  0  0  0  0  0  0  0  0  0  0
    4.4019   -0.9211    2.5163 C   0  0  0  0  0  0  0  0  0  0  0  0
    1.7569   -0.5663   -0.2773 C   0  0  0  0  0  0  0  0  0  0  0  0
    4.5411   -2.3149    2.5246 C   0  0  0  0  0  0  0  0  0  0  0  0
    2.7460   -1.0771    0.7290 C   0  0  0  0  0  0  0  0  0  0  0  0
    3.5146   -0.2989    1.6370 C   0  0  0  0  0  0  0  0  0  0  0  0
    6.0638    3.2529    2.8972 N   0  0  0  0  0  0  0  0  0  0  0  0
    1.1732   -1.3625   -1.0043 O   0  0  0  0  0  0  0  0  0  0  0  0
    5.4366   -2.7982    3.4276 O   0  0  0  0  0  0  0  0  0  0  0  0
    3.3358    1.0522    1.6064 O   0  0  0  0  0  0  0  0  0  0  0  0
    2.3633    1.4794   -0.6643 H   0  0  0  0  0  0  0  0  0  0  0  0
    1.0821    1.3314    0.5233 H   0  0  0  0  0  0  0  0  0  0  0  0
    0.7134    1.0341   -1.2054 H   0  0  0  0  0  0  0  0  0  0  0  0
    7.0290    3.4118    4.7511 H   0  0  0  0  0  0  0  0  0  0  0  0
    7.4376    1.9170    3.8687 H   0  0  0  0  0  0  0  0  0  0  0  0
    5.8484    2.1031    4.6534 H   0  0  0  0  0  0  0  0  0  0  0  0
    7.4893    4.7882    2.8748 H   0  0  0  0  0  0  0  0  0  0  0  0
    6.6213    4.5554    1.3472 H   0  0  0  0  0  0  0  0  0  0  0  0
    7.9173    3.4225    1.8152 H   0  0  0  0  0  0  0  0  0  0  0  0
    6.3868   -4.3611    4.2706 H   0  0  0  0  0  0  0  0  0  0  0  0
    6.0087   -4.6021    2.5417 H   0  0  0  0  0  0  0  0  0  0  0  0
    4.7124   -4.7282    3.7690 H   0  0  0  0  0  0  0  0  0  0  0  0
    3.8825   -4.1831    1.6289 H   0  0  0  0  0  0  0  0  0  0  0  0
    2.3276   -3.0493    0.0699 H   0  0  0  0  0  0  0  0  0  0  0  0
    5.2878    2.7392    1.0293 H   0  0  0  0  0  0  0  0  0  0  0  0
    6.0276    1.3725    1.8678 H   0  0  0  0  0  0  0  0  0  0  0  0
    3.4069    2.8156    2.5769 H   0  0  0  0  0  0  0  0  0  0  0  0
    4.0346    1.4615    3.5236 H   0  0  0  0  0  0  0  0  0  0  0  0
    5.0136   -0.3578    3.2085 H   0  0  0  0  0  0  0  0  0  0  0  0
  1 10  1  0  0  0  0
  1 19  1  0  0  0  0
  2 23  1  0  0  0  0
  2 21  1  0  0  0  0
  3 24  1  0  0  0  0
  3 14  1  0  0  0  0
  4 29  1  0  0  0  0
  4 27  1  0  0  0  0
  5 11  2  0  0  0  0
  6  5  1  0  0  0  0
  7  8  1  0  0  0  0
  7 14  1  0  0  0  0
  8 34  1  0  0  0  0
  8 35  1  0  0  0  0
  9 11  1  0  0  0  0
  9 36  1  0  0  0  0
 10 12  1  0  0  0  0
 11 16  1  0  0  0  0
 12  6  2  0  0  0  0
 12 13  1  0  0  0  0
 13  9  2  0  0  0  0
 14  2  1  0  0  0  0
 15 10  2  0  0  0  0
 16  4  1  0  0  0  0
 17 13  1  0  0  0  0
 17  8  1  0  0  0  0
 18  1  1  0  0  0  0
 20  1  1  0  0  0  0
 22  2  1  0  0  0  0
 25  3  1  0  0  0  0
 26  3  1  0  0  0  0
 28  4  1  0  0  0  0
 30  5  1  0  0  0  0
 31  6  1  0  0  0  0
 32  7  1  0  0  0  0
 33  7  1  0  0  0  0
M  END
>  <HBA>
4

>  <HBD>
0

>  <TPSA>
38.77

>  <cid>
30271

>  <dipole>
4.86

>  <excitation_energy_1>
3.88

>  <excitation_energy_2>
4.307

>  <excitation_energy_3>
4.586

>  <excitation_energy_4>
4.804

>  <homo_energy>
-5.924

>  <homo_lumo_gap>
4.969

>  <logP>
1.838

>  <lumo_energy>
-0.955

>  <melting_point>
51.07

>  <molecular_refractivity>
66.94

>  <oscillator_strength_1>
0.0001

>  <oscillator_strength_2>
0.0773

>  <oscillator_strength_3>
0.0878

>  <oscillator_strength_4>
0.1935

>  <open_babel_can_smiles>
COc1ccc(c(c1)OCCN(C)C)C(=O)C

>  <mulliken_charges>
36
1   -0.511266
2   -0.306006
3   -0.296961
4   -0.21797
5   -0.196374
6   -0.184768
7   -0.146641
8   -0.041996
9   -0.256128
10   0.407357
11   0.386836
12   0.027091
13   0.326912
14   -0.372149
15   -0.469733
16   -0.506671
17   -0.535912
18   0.165871
19   0.16794
20   0.163311
21   0.155041
22   0.124828
23   0.15112
24   0.151255
25   0.153399
26   0.123027
27   0.172254
28   0.158119
29   0.158326
30   0.133816
31   0.169558
32   0.152309
33   0.13386
34   0.167779
35   0.149561
36   0.143004

>  <lowdin_charges>
36
1   -0.472227
2   -0.362092
3   -0.358001
4   -0.277361
5   -0.232828
6   -0.10855
7   -0.215988
8   -0.134893
9   -0.248645
10   0.16827
11   0.122529
12   -0.102734
13   0.122564
14   -0.184314
15   -0.265577
16   -0.192631
17   -0.189276
18   0.168981
19   0.17001
20   0.164852
21   0.155075
22   0.124277
23   0.150069
24   0.15254
25   0.152582
26   0.124129
27   0.164922
28   0.149145
29   0.14952
30   0.162473
31   0.181862
32   0.153555
33   0.12997
34   0.161581
35   0.143442
36   0.172769

$$$$

