PCCDB-ID:  46434
public computational chemistry database (PCCDB) project, http://pccdb.org

 24 23  0  0  1  0  0  0  0  0999 V2000
    3.2658   -1.1075    0.6215 C   0  0  0  0  0  0  0  0  0  0  0  0
    3.4998    2.6488   -2.8844 C   0  0  0  0  0  0  0  0  0  0  0  0
    1.4573    2.4918   -1.4169 C   0  0  0  0  0  0  0  0  0  0  0  0
    2.9292    0.3475    0.2766 C   0  0  0  0  0  0  0  0  0  0  0  0
    2.9715    2.2403   -1.4996 C   0  0  0  0  0  0  0  0  0  0  0  0
    3.3366    0.7639   -1.1580 C   0  0  1  0  0  0  0  0  0  0  0  0
    4.8214    0.4880   -1.3904 C   0  0  0  0  0  0  0  0  0  0  0  0
    5.3466   -0.3277   -2.2094 N   0  0  0  0  0  0  0  0  0  0  0  0
    5.6797    1.2081   -0.6062 O   0  0  0  0  0  0  0  0  0  0  0  0
    2.9224   -1.3549    1.6320 H   0  0  0  0  0  0  0  0  0  0  0  0
    4.3431   -1.2963    0.5756 H   0  0  0  0  0  0  0  0  0  0  0  0
    2.7769   -1.8003   -0.0743 H   0  0  0  0  0  0  0  0  0  0  0  0
    3.2423    3.6918   -3.1006 H   0  0  0  0  0  0  0  0  0  0  0  0
    3.0532    2.0270   -3.6707 H   0  0  0  0  0  0  0  0  0  0  0  0
    4.5869    2.5476   -2.9558 H   0  0  0  0  0  0  0  0  0  0  0  0
    1.2256    3.5208   -1.7144 H   0  0  0  0  0  0  0  0  0  0  0  0
    1.0584    2.3461   -0.4082 H   0  0  0  0  0  0  0  0  0  0  0  0
    0.9135    1.8219   -2.0955 H   0  0  0  0  0  0  0  0  0  0  0  0
    3.4085    1.0172    1.0069 H   0  0  0  0  0  0  0  0  0  0  0  0
    1.8518    0.5038    0.3958 H   0  0  0  0  0  0  0  0  0  0  0  0
    3.4531    2.8925   -0.7519 H   0  0  0  0  0  0  0  0  0  0  0  0
    2.7887    0.1210   -1.8610 H   0  0  0  0  0  0  0  0  0  0  0  0
    4.6124   -0.8050   -2.7336 H   0  0  0  0  0  0  0  0  0  0  0  0
    5.1713    1.8029   -0.0343 H   0  0  0  0  0  0  0  0  0  0  0  0
  1 10  1  0  0  0  0
  2  5  1  0  0  0  0
  3 17  1  0  0  0  0
  4 20  1  0  0  0  0
  4  1  1  0  0  0  0
  4 19  1  0  0  0  0
  5  3  1  0  0  0  0
  5  6  1  0  0  0  0
  5 21  1  0  0  0  0
  6 22  1  6  0  0  0
  6  4  1  0  0  0  0
  7  6  1  0  0  0  0
  7  9  1  0  0  0  0
  8  7  2  0  0  0  0
  9 24  1  0  0  0  0
 11  1  1  0  0  0  0
 12  1  1  0  0  0  0
 13  2  1  0  0  0  0
 14  2  1  0  0  0  0
 15  2  1  0  0  0  0
 16  3  1  0  0  0  0
 18  3  1  0  0  0  0
 23  8  1  0  0  0  0
M  END
>  <HBA>
2

>  <HBD>
1

>  <TPSA>
43.09

>  <cid>
46434

>  <dipole>
4.32

>  <excitation_energy_1>
6.107

>  <excitation_energy_2>
6.289

>  <excitation_energy_3>
6.353

>  <excitation_energy_4>
6.622

>  <homo_energy>
-6.906

>  <homo_lumo_gap>
7.78

>  <logP>
1.854

>  <lumo_energy>
0.873

>  <melting_point>
48.41

>  <molecular_refractivity>
38.67

>  <oscillator_strength_1>
0.0009

>  <oscillator_strength_2>
0.0073

>  <oscillator_strength_3>
0.0012

>  <oscillator_strength_4>
0.002

>  <open_babel_can_smiles>
CC[C@H](C(=N)O)C(C)C

>  <mulliken_charges>
24
1   -0.45419
2   -0.456317
3   -0.450879
4   -0.26937
5   -0.081199
6   -0.167322
7   0.491337
8   -0.593329
9   -0.589204
10   0.147801
11   0.174592
12   0.145466
13   0.144932
14   0.143142
15   0.1747
16   0.149678
17   0.149088
18   0.145172
19   0.120725
20   0.150026
21   0.108726
22   0.126405
23   0.28096
24   0.40906

>  <lowdin_charges>
24
1   -0.447499
2   -0.447546
3   -0.445729
4   -0.276129
5   -0.124157
6   -0.164616
7   0.124455
8   -0.401443
9   -0.369513
10   0.152896
11   0.160807
12   0.150753
13   0.150502
14   0.149961
15   0.16245
16   0.15326
17   0.15006
18   0.150566
19   0.135191
20   0.149176
21   0.129358
22   0.14856
23   0.255556
24   0.35308

$$$$

