PCCDB-ID:  12040
public computational chemistry database (PCCDB) project, http://pccdb.org

 24 23  0  0  1  0  0  0  0  0999 V2000
    0.7697   -0.3981    2.1342 C   0  0  0  0  0  0  0  0  0  0  0  0
    6.6223    1.4620    0.1799 C   0  0  0  0  0  0  0  0  0  0  0  0
    4.6586    1.1518   -1.3745 C   0  0  0  0  0  0  0  0  0  0  0  0
    2.3012   -0.4255    2.1328 C   0  0  0  0  0  0  0  0  0  0  0  0
    2.9159    0.5203    1.0927 C   0  0  0  0  0  0  0  0  0  0  0  0
    5.0904    1.4813    0.0635 C   0  0  0  0  0  0  0  0  0  0  0  0
    4.4522    0.5397    1.1118 C   0  0  1  0  0  0  0  0  0  0  0  0
    4.9325    0.8481    2.4283 O   0  0  0  0  0  0  0  0  0  0  0  0
    0.3597   -1.0893    2.8794 H   0  0  0  0  0  0  0  0  0  0  0  0
    0.3629   -0.6844    1.1561 H   0  0  0  0  0  0  0  0  0  0  0  0
    0.3897    0.6046    2.3674 H   0  0  0  0  0  0  0  0  0  0  0  0
    7.0746    2.1932   -0.5002 H   0  0  0  0  0  0  0  0  0  0  0  0
    7.0177    0.4723   -0.0845 H   0  0  0  0  0  0  0  0  0  0  0  0
    6.9444    1.6857    1.1999 H   0  0  0  0  0  0  0  0  0  0  0  0
    5.1888    1.7922   -2.0888 H   0  0  0  0  0  0  0  0  0  0  0  0
    3.5860    1.2980   -1.5363 H   0  0  0  0  0  0  0  0  0  0  0  0
    4.8991    0.1105   -1.6270 H   0  0  0  0  0  0  0  0  0  0  0  0
    2.6498   -1.4491    1.9344 H   0  0  0  0  0  0  0  0  0  0  0  0
    2.6838   -0.1638    3.1257 H   0  0  0  0  0  0  0  0  0  0  0  0
    2.5471    1.5460    1.2624 H   0  0  0  0  0  0  0  0  0  0  0  0
    2.5637    0.2339    0.0937 H   0  0  0  0  0  0  0  0  0  0  0  0
    4.7424    2.5024    0.2967 H   0  0  0  0  0  0  0  0  0  0  0  0
    4.8213   -0.4793    0.9290 H   0  0  0  0  0  0  0  0  0  0  0  0
    4.6082    1.7378    2.6468 H   0  0  0  0  0  0  0  0  0  0  0  0
  1 11  1  0  0  0  0
  1  9  1  0  0  0  0
  2 14  1  0  0  0  0
  3  6  1  0  0  0  0
  4  1  1  0  0  0  0
  4 19  1  0  0  0  0
  5  7  1  0  0  0  0
  5 20  1  0  0  0  0
  5  4  1  0  0  0  0
  6  2  1  0  0  0  0
  6 22  1  0  0  0  0
  6  7  1  0  0  0  0
  7 23  1  6  0  0  0
  7  8  1  0  0  0  0
  8 24  1  0  0  0  0
 10  1  1  0  0  0  0
 12  2  1  0  0  0  0
 13  2  1  0  0  0  0
 15  3  1  0  0  0  0
 16  3  1  0  0  0  0
 17  3  1  0  0  0  0
 18  4  1  0  0  0  0
 21  5  1  0  0  0  0
M  END
>  <HBA>
1

>  <HBD>
1

>  <TPSA>
20.23

>  <cid>
12040

>  <dipole>
1.5

>  <excitation_energy_1>
6.434

>  <excitation_energy_2>
6.972

>  <excitation_energy_3>
7.183

>  <excitation_energy_4>
7.26

>  <homo_energy>
-7.037

>  <homo_lumo_gap>
8.988

>  <logP>
1.803

>  <lumo_energy>
1.951

>  <melting_point>
-8.61

>  <molecular_refractivity>
36.92

>  <oscillator_strength_1>
0.0045

>  <oscillator_strength_2>
0.0061

>  <oscillator_strength_3>
0.0168

>  <oscillator_strength_4>
0.0144

>  <open_babel_can_smiles>
CCC[C@@H](C(C)C)O

>  <mulliken_charges>
24
1   -0.442997
2   -0.439394
3   -0.453478
4   -0.243236
5   -0.277809
6   -0.088214
7   0.14717
8   -0.623679
9   0.143395
10   0.13913
11   0.138253
12   0.134691
13   0.137087
14   0.158348
15   0.144248
16   0.146445
17   0.14155
18   0.130491
19   0.146787
20   0.113131
21   0.135811
22   0.105271
23   0.126604
24   0.380394

>  <lowdin_charges>
24
1   -0.445317
2   -0.446893
3   -0.445841
4   -0.272054
5   -0.291989
6   -0.136
7   -0.001471
8   -0.460314
9   0.151151
10   0.144412
11   0.144006
12   0.146764
13   0.145398
14   0.156634
15   0.15283
16   0.147552
17   0.146076
18   0.13943
19   0.147151
20   0.131171
21   0.146083
22   0.12743
23   0.138048
24   0.335742

$$$$

