PCCDB-ID:  28371
public computational chemistry database (PCCDB) project, http://pccdb.org

 24 23  0  0  1  0  0  0  0  0999 V2000
   -0.0888   -2.4950   -0.0378 C   0  0  0  0  0  0  0  0  0  0  0  0
   -0.3553   -0.9898    0.1491 C   0  0  0  0  0  0  0  0  0  0  0  0
   -1.6283    0.9377    1.2431 C   0  0  0  0  0  0  0  0  0  0  0  0
    0.7087   -3.1319    1.0931 C   0  0  0  0  0  0  0  0  0  0  0  0
   -1.3393    1.8309    0.0258 C   0  0  0  0  0  0  0  0  0  0  0  0
   -2.8516   -1.1593    0.4552 C   0  0  0  0  0  0  0  0  0  0  0  0
   -1.5417   -0.6046    1.0660 C   0  0  1  0  0  0  0  0  0  0  0  0
    0.8363   -2.6470    2.1999 O   0  0  0  0  0  0  0  0  0  0  0  0
    1.2881   -4.3166    0.8268 O   0  0  0  0  0  0  0  0  0  0  0  0
   -0.5377    2.7339    0.0883 O   0  0  0  0  0  0  0  0  0  0  0  0
   -2.0252    1.5836   -1.1024 O   0  0  0  0  0  0  0  0  0  0  0  0
   -3.3504   -0.7214   -0.5682 O   0  0  0  0  0  0  0  0  0  0  0  0
   -3.3796   -2.1800    1.1198 O   0  0  0  0  0  0  0  0  0  0  0  0
   -1.4489   -1.1959    2.3644 O   0  0  0  0  0  0  0  0  0  0  0  0
    0.4611   -2.6421   -0.9762 H   0  0  0  0  0  0  0  0  0  0  0  0
   -1.0256   -3.0606   -0.1470 H   0  0  0  0  0  0  0  0  0  0  0  0
   -0.5496   -0.5522   -0.8334 H   0  0  0  0  0  0  0  0  0  0  0  0
    0.5472   -0.5044    0.5380 H   0  0  0  0  0  0  0  0  0  0  0  0
   -2.6184    1.1925    1.6422 H   0  0  0  0  0  0  0  0  0  0  0  0
   -0.8947    1.2133    2.0026 H   0  0  0  0  0  0  0  0  0  0  0  0
    1.1246   -4.5822   -0.0939 H   0  0  0  0  0  0  0  0  0  0  0  0
   -2.6234    0.8030   -0.9923 H   0  0  0  0  0  0  0  0  0  0  0  0
   -2.8223   -2.2571    1.9356 H   0  0  0  0  0  0  0  0  0  0  0  0
   -0.5446   -1.5640    2.4945 H   0  0  0  0  0  0  0  0  0  0  0  0
  1  2  1  0  0  0  0
  1  4  1  0  0  0  0
  2 18  1  0  0  0  0
  2  7  1  0  0  0  0
  3 19  1  0  0  0  0
  3 20  1  0  0  0  0
  4  8  2  0  0  0  0
  5 10  2  0  0  0  0
  5  3  1  0  0  0  0
  6 13  1  0  0  0  0
  7  6  1  6  0  0  0
  7  3  1  0  0  0  0
  7 14  1  0  0  0  0
  9  4  1  0  0  0  0
 11 22  1  0  0  0  0
 11  5  1  0  0  0  0
 12  6  2  0  0  0  0
 13 23  1  0  0  0  0
 14 24  1  0  0  0  0
 15  1  1  0  0  0  0
 16  1  1  0  0  0  0
 17  2  1  0  0  0  0
 21  9  1  0  0  0  0
M  END
>  <HBA>
7

>  <HBD>
4

>  <TPSA>
132.13

>  <cid>
28371

>  <dipole>
6.07

>  <excitation_energy_1>
5.357

>  <excitation_energy_2>
5.551

>  <excitation_energy_3>
5.623

>  <excitation_energy_4>
5.832

>  <homo_energy>
-7.053

>  <homo_lumo_gap>
5.989

>  <logP>
-0.858

>  <lumo_energy>
-1.064

>  <melting_point>
233.89

>  <molecular_refractivity>
42.28

>  <oscillator_strength_1>
0.0081

>  <oscillator_strength_2>
0.0002

>  <oscillator_strength_3>
0.0013

>  <oscillator_strength_4>
0.0007

>  <open_babel_can_smiles>
OC(=O)CC[C@](C(=O)O)(CC(=O)O)O

>  <mulliken_charges>
24
1   -0.428914
2   -0.323083
3   -0.390155
4   0.628962
5   0.577808
6   0.612905
7   0.21816
8   -0.460263
9   -0.541875
10   -0.448599
11   -0.59406
12   -0.491834
13   -0.565125
14   -0.71211
15   0.180726
16   0.206066
17   0.190763
18   0.190739
19   0.185242
20   0.195207
21   0.425363
22   0.447482
23   0.44488
24   0.451714

>  <lowdin_charges>
24
1   -0.329608
2   -0.290644
3   -0.320782
4   0.210724
5   0.178899
6   0.183723
7   0.08123
8   -0.251856
9   -0.322715
10   -0.250867
11   -0.368125
12   -0.267696
13   -0.321246
14   -0.469302
15   0.173608
16   0.182899
17   0.179985
18   0.17474
19   0.177207
20   0.186053
21   0.368282
22   0.360294
23   0.372977
24   0.362221

$$$$

