PCCDB-ID:  29349
public computational chemistry database (PCCDB) project, http://pccdb.org

 11 10  0  0  0  0  0  0  0  0999 V2000
    0.9092    0.0920   -0.1042 C   0  0  0  0  0  0  0  0  0  0  0  0
    0.1493    0.7991    0.9288 C   0  0  0  0  0  0  0  0  0  0  0  0
    2.4210    0.1032    0.2026 C   0  0  0  0  0  0  0  0  0  0  0  0
    4.1984   -0.8877   -1.2831 C   0  0  0  0  0  0  0  0  0  0  0  0
   -0.4352    1.3571    1.7614 N   0  0  0  0  0  0  0  0  0  0  0  0
    3.1300   -0.6062   -0.8204 N   0  0  0  0  0  0  0  0  0  0  0  0
    5.5506   -1.3287   -1.9868 S   0  0  0  0  0  0  0  0  0  0  0  0
    0.7254    0.5618   -1.0768 H   0  0  0  0  0  0  0  0  0  0  0  0
    0.5539   -0.9426   -0.1703 H   0  0  0  0  0  0  0  0  0  0  0  0
    2.6065   -0.3715    1.1732 H   0  0  0  0  0  0  0  0  0  0  0  0
    2.7846    1.1361    0.2579 H   0  0  0  0  0  0  0  0  0  0  0  0
  1  3  1  0  0  0  0
  1  2  1  0  0  0  0
  2  5  3  0  0  0  0
  3 11  1  0  0  0  0
  3 10  1  0  0  0  0
  4  6  2  0  0  0  0
  6  3  1  0  0  0  0
  7  4  2  0  0  0  0
  8  1  1  0  0  0  0
  9  1  1  0  0  0  0
M  END
>  <HBA>
3

>  <HBD>
0

>  <TPSA>
68.24

>  <cid>
29349

>  <dipole>
0.87

>  <excitation_energy_1>
4.5

>  <excitation_energy_2>
5.103

>  <excitation_energy_3>
5.56

>  <excitation_energy_4>
6.169

>  <homo_energy>
-7.113

>  <homo_lumo_gap>
6.082

>  <logP>
1.003

>  <lumo_energy>
-1.031

>  <melting_point>
58.08

>  <molecular_refractivity>
30.25

>  <oscillator_strength_1>
0.0001

>  <oscillator_strength_2>
0.0132

>  <oscillator_strength_3>
0.0002

>  <oscillator_strength_4>
0.0255

>  <open_babel_can_smiles>
N#CCCN=C=S

>  <mulliken_charges>
11
1   -0.34463
2   0.350411
3   -0.1453
4   0.210232
5   -0.457074
6   -0.351132
7   -0.090386
8   0.214818
9   0.215565
10   0.199254
11   0.198243

>  <lowdin_charges>
11
1   -0.27462
2   -0.019225
3   -0.160267
4   -0.040542
5   -0.109586
6   -0.116629
7   -0.009405
8   0.191462
9   0.191197
10   0.174713
11   0.172903

$$$$

