PCCDB-ID:  61239
public computational chemistry database (PCCDB) project, http://pccdb.org

 11 10  0  0  0  0  0  0  0  0999 V2000
    1.0374    0.0783   -0.0397 C   0  0  0  0  0  0  0  0  0  0  0  0
    5.6200   -0.8730    0.8822 C   0  0  0  0  0  0  0  0  0  0  0  0
    2.2428    0.0230    0.0073 C   0  0  0  0  0  0  0  0  0  0  0  0
    4.1121   -0.9658    0.9882 C   0  0  0  0  0  0  0  0  0  0  0  0
    3.5477   -0.0165    0.0377 O   0  0  0  0  0  0  0  0  0  0  0  0
   -0.0235    0.1387   -0.0930 H   0  0  0  0  0  0  0  0  0  0  0  0
    6.0846   -1.5739    1.5841 H   0  0  0  0  0  0  0  0  0  0  0  0
    5.9636    0.1377    1.1231 H   0  0  0  0  0  0  0  0  0  0  0  0
    5.9535   -1.1231   -0.1296 H   0  0  0  0  0  0  0  0  0  0  0  0
    3.7526   -0.7035    1.9896 H   0  0  0  0  0  0  0  0  0  0  0  0
    3.7421   -1.9658    0.7350 H   0  0  0  0  0  0  0  0  0  0  0  0
  1  3  3  0  0  0  0
  2  4  1  0  0  0  0
  2  8  1  0  0  0  0
  2  7  1  0  0  0  0
  3  5  1  0  0  0  0
  4 10  1  0  0  0  0
  5  4  1  0  0  0  0
  6  1  1  0  0  0  0
  9  2  1  0  0  0  0
 11  4  1  0  0  0  0
M  END
>  <HBA>
1

>  <HBD>
0

>  <TPSA>
9.23

>  <cid>
61239

>  <dipole>
2.12

>  <excitation_energy_1>
5.97

>  <excitation_energy_2>
6.126

>  <excitation_energy_3>
6.505

>  <excitation_energy_4>
6.628

>  <homo_energy>
-6.302

>  <homo_lumo_gap>
8.174

>  <logP>
0.614

>  <lumo_energy>
1.872

>  <melting_point>
-16.84

>  <molecular_refractivity>
20.59

>  <oscillator_strength_1>
0.0421

>  <oscillator_strength_2>
0.0025

>  <oscillator_strength_3>
0.0076

>  <oscillator_strength_4>
0.0457

>  <open_babel_can_smiles>
CCOC#C

>  <mulliken_charges>
11
1   -0.191278
2   -0.462634
3   0.19915
4   -0.039073
5   -0.498716
6   0.178307
7   0.156553
8   0.17017
9   0.170189
10   0.158674
11   0.158659

>  <lowdin_charges>
11
1   -0.318161
2   -0.448733
3   0.027444
4   -0.105718
5   -0.149034
6   0.205097
7   0.163745
8   0.162949
9   0.162948
10   0.149725
11   0.149738

$$$$

