PCCDB-ID:  25724
public computational chemistry database (PCCDB) project, http://pccdb.org

 30 31  0  0  0  0  0  0  0  0999 V2000
   -0.8873    0.0473    1.5979 C   0  0  0  0  0  0  0  0  0  0  0  0
    0.6386   -0.0376    1.8998 C   0  0  0  0  0  0  0  0  0  0  0  0
   -1.1746    1.5403    1.3071 C   0  0  0  0  0  0  0  0  0  0  0  0
    1.1764    1.4076    1.7621 C   0  0  0  0  0  0  0  0  0  0  0  0
    2.6279    4.9104   -3.4700 C   0  0  0  0  0  0  0  0  0  0  0  0
    4.0195    3.5074   -2.1128 C   0  0  0  0  0  0  0  0  0  0  0  0
    3.7849    5.3304   -4.1233 C   0  0  0  0  0  0  0  0  0  0  0  0
    5.1129    3.9991   -2.8274 C   0  0  0  0  0  0  0  0  0  0  0  0
    2.7400    3.9653   -2.4464 C   0  0  0  0  0  0  0  0  0  0  0  0
    0.1711    2.1251    0.8502 C   0  0  0  0  0  0  0  0  0  0  0  0
    1.4835    3.5200   -1.7506 C   0  0  0  0  0  0  0  0  0  0  0  0
    5.0139    4.8889   -3.8217 N   0  0  0  0  0  0  0  0  0  0  0  0
    0.3838    1.7320   -0.5651 N   0  0  0  0  0  0  0  0  0  0  0  0
    1.5545    2.3110   -1.1021 N   0  0  0  0  0  0  0  0  0  0  0  0
    0.4544    4.1881   -1.7687 O   0  0  0  0  0  0  0  0  0  0  0  0
   -1.4965   -0.3229    2.4292 H   0  0  0  0  0  0  0  0  0  0  0  0
   -1.1349   -0.5631    0.7243 H   0  0  0  0  0  0  0  0  0  0  0  0
    1.1300   -0.6992    1.1797 H   0  0  0  0  0  0  0  0  0  0  0  0
    0.8421   -0.4451    2.8956 H   0  0  0  0  0  0  0  0  0  0  0  0
   -1.4823    2.0613    2.2216 H   0  0  0  0  0  0  0  0  0  0  0  0
   -1.9746    1.6903    0.5718 H   0  0  0  0  0  0  0  0  0  0  0  0
    2.1996    1.4552    1.3743 H   0  0  0  0  0  0  0  0  0  0  0  0
    1.1803    1.9127    2.7361 H   0  0  0  0  0  0  0  0  0  0  0  0
    1.6511    5.3004   -3.7350 H   0  0  0  0  0  0  0  0  0  0  0  0
    4.1784    2.8114   -1.2945 H   0  0  0  0  0  0  0  0  0  0  0  0
    3.7249    6.0589   -4.9299 H   0  0  0  0  0  0  0  0  0  0  0  0
    6.1194    3.6627   -2.5845 H   0  0  0  0  0  0  0  0  0  0  0  0
    0.2124    3.2176    0.9609 H   0  0  0  0  0  0  0  0  0  0  0  0
   -0.3874    2.1230   -1.1107 H   0  0  0  0  0  0  0  0  0  0  0  0
    2.2475    1.6381   -1.4017 H   0  0  0  0  0  0  0  0  0  0  0  0
  1  2  1  0  0  0  0
  1 16  1  0  0  0  0
  2 19  1  0  0  0  0
  3  1  1  0  0  0  0
  3 20  1  0  0  0  0
  4  2  1  0  0  0  0
  4 23  1  0  0  0  0
  5  9  2  0  0  0  0
  6 25  1  0  0  0  0
  7 12  2  0  0  0  0
  7  5  1  0  0  0  0
  8 27  1  0  0  0  0
  8  6  2  0  0  0  0
  9  6  1  0  0  0  0
  9 11  1  0  0  0  0
 10 28  1  0  0  0  0
 10  3  1  0  0  0  0
 10  4  1  0  0  0  0
 11 14  1  0  0  0  0
 12  8  1  0  0  0  0
 13 10  1  0  0  0  0
 14 13  1  0  0  0  0
 15 11  2  0  0  0  0
 17  1  1  0  0  0  0
 18  2  1  0  0  0  0
 21  3  1  0  0  0  0
 22  4  1  0  0  0  0
 24  5  1  0  0  0  0
 26  7  1  0  0  0  0
 29 13  1  0  0  0  0
 30 14  1  0  0  0  0
M  END
>  <HBA>
4

>  <HBD>
2

>  <TPSA>
54.02

>  <cid>
25724

>  <dipole>
2.29

>  <excitation_energy_1>
4.229

>  <excitation_energy_2>
4.354

>  <excitation_energy_3>
4.589

>  <excitation_energy_4>
5.017

>  <homo_energy>
-6.637

>  <homo_lumo_gap>
5.029

>  <logP>
2.04

>  <lumo_energy>
-1.608

>  <melting_point>
128.0

>  <molecular_refractivity>
57.15

>  <oscillator_strength_1>
0.0151

>  <oscillator_strength_2>
0.0182

>  <oscillator_strength_3>
0.0003

>  <oscillator_strength_4>
0.0473

>  <open_babel_can_smiles>
O=C(c1ccncc1)NNC1CCCC1

>  <mulliken_charges>
30
1   -0.261136
2   -0.263165
3   -0.289352
4   -0.263665
5   -0.163332
6   -0.191685
7   0.035811
8   0.038472
9   0.091057
10   0.032531
11   0.555834
12   -0.399225
13   -0.436767
14   -0.490142
15   -0.514442
16   0.134774
17   0.146775
18   0.14065
19   0.134398
20   0.142788
21   0.137763
22   0.131446
23   0.137086
24   0.170165
25   0.143765
26   0.150211
27   0.147814
28   0.138342
29   0.322966
30   0.340265

>  <lowdin_charges>
30
1   -0.285597
2   -0.285189
3   -0.28657
4   -0.285786
5   -0.151878
6   -0.179269
7   -0.084819
8   -0.087549
9   -0.017479
10   -0.068923
11   0.152919
12   -0.138056
13   -0.288561
14   -0.2215
15   -0.300359
16   0.145525
17   0.149717
18   0.147653
19   0.144075
20   0.149589
21   0.14739
22   0.14251
23   0.145331
24   0.182377
25   0.1658
26   0.161492
27   0.159658
28   0.134471
29   0.26495
30   0.288078

$$$$

