PCCDB-ID:  6672
public computational chemistry database (PCCDB) project, http://pccdb.org

 20 20  0  0  0  0  0  0  0  0999 V2000
    0.8270   -0.0242    0.0621 C   0  0  0  0  0  0  0  0  0  0  0  0
    5.2648   -2.6357   -0.0057 C   0  0  0  0  0  0  0  0  0  0  0  0
    4.4600    1.0640    0.3849 C   0  0  0  0  0  0  0  0  0  0  0  0
    3.0705    1.0844    0.2969 C   0  0  0  0  0  0  0  0  0  0  0  0
    5.1487   -0.1430    0.2973 C   0  0  0  0  0  0  0  0  0  0  0  0
    2.3348   -0.0949    0.1360 C   0  0  0  0  0  0  0  0  0  0  0  0
    4.4734   -1.3526    0.1006 C   0  0  0  0  0  0  0  0  0  0  0  0
    3.0692   -1.2908    0.0327 C   0  0  0  0  0  0  0  0  0  0  0  0
    2.3262   -2.5484   -0.1566 N   0  0  0  0  0  0  0  0  0  0  0  0
    1.3338   -2.7415    0.5462 O   0  0  0  0  0  0  0  0  0  0  0  0
    2.7389   -3.3375   -1.0070 O   0  0  0  0  0  0  0  0  0  0  0  0
    0.5144    1.0090   -0.1156 H   0  0  0  0  0  0  0  0  0  0  0  0
    0.3694   -0.3699    0.9939 H   0  0  0  0  0  0  0  0  0  0  0  0
    0.4180   -0.6480   -0.7383 H   0  0  0  0  0  0  0  0  0  0  0  0
    6.2843   -2.4719    0.3554 H   0  0  0  0  0  0  0  0  0  0  0  0
    5.3151   -2.9835   -1.0419 H   0  0  0  0  0  0  0  0  0  0  0  0
    4.8219   -3.4491    0.5768 H   0  0  0  0  0  0  0  0  0  0  0  0
    5.0079    1.9919    0.5236 H   0  0  0  0  0  0  0  0  0  0  0  0
    2.5365    2.0287    0.3584 H   0  0  0  0  0  0  0  0  0  0  0  0
    6.2323   -0.1563    0.3749 H   0  0  0  0  0  0  0  0  0  0  0  0
  1  6  1  0  0  0  0
  1 13  1  0  0  0  0
  2  7  1  0  0  0  0
  2 15  1  0  0  0  0
  2 17  1  0  0  0  0
  3 18  1  0  0  0  0
  4 19  1  0  0  0  0
  4  3  1  0  0  0  0
  5 20  1  0  0  0  0
  5  3  2  0  0  0  0
  6  4  2  0  0  0  0
  7  5  1  0  0  0  0
  8  7  2  0  0  0  0
  8  6  1  0  0  0  0
  9  8  1  0  0  0  0
  9 10  2  0  0  0  0
 11  9  2  0  0  0  0
 12  1  1  0  0  0  0
 14  1  1  0  0  0  0
 16  2  1  0  0  0  0
M  END
>  <HBA>
0

>  <HBD>
0

>  <TPSA>
45.82

>  <cid>
6672

>  <dipole>
3.77

>  <excitation_energy_1>
3.685

>  <excitation_energy_2>
3.92

>  <excitation_energy_3>
4.298

>  <excitation_energy_4>
4.605

>  <homo_energy>
-7.012

>  <homo_lumo_gap>
4.887

>  <logP>
2.735

>  <lumo_energy>
-2.125

>  <melting_point>
51.79

>  <molecular_refractivity>
45.2

>  <oscillator_strength_1>
0.0267

>  <oscillator_strength_2>
0.0178

>  <oscillator_strength_3>
0.0003

>  <oscillator_strength_4>
0.0698

>  <open_babel_can_smiles>
O=N(=O)c1c(C)cccc1C

>  <mulliken_charges>
20
1   -0.518191
2   -0.518105
3   -0.096292
4   -0.206642
5   -0.206683
6   0.187899
7   0.188043
8   0.147361
9   0.327796
10   -0.380011
11   -0.380062
12   0.153383
13   0.193012
14   0.172911
15   0.153382
16   0.192958
17   0.172904
18   0.142142
19   0.137085
20   0.137111

>  <lowdin_charges>
20
1   -0.442088
2   -0.441192
3   -0.137053
4   -0.165725
5   -0.163014
6   0.020013
7   0.020243
8   -0.009718
9   0.304197
10   -0.239733
11   -0.240369
12   0.156338
13   0.178399
14   0.168803
15   0.156479
16   0.177208
17   0.168797
18   0.165247
19   0.162679
20   0.160487

$$$$

