PCCDB-ID:  15133
public computational chemistry database (PCCDB) project, http://pccdb.org

 22 22  0  0  0  0  0  0  0  0999 V2000
   -0.8080    1.2084    0.0367 C   0  0  0  0  0  0  0  0  0  0  0  0
   -1.4141   -0.0456   -0.0036 C   0  0  0  0  0  0  0  0  0  0  0  0
    0.5845    1.3188    0.0462 C   0  0  0  0  0  0  0  0  0  0  0  0
    0.7645   -1.0819   -0.0211 C   0  0  0  0  0  0  0  0  0  0  0  0
   -1.2738   -2.5769   -0.1087 C   0  0  0  0  0  0  0  0  0  0  0  0
    2.8986    0.2905   -0.0108 C   0  0  0  0  0  0  0  0  0  0  0  0
   -0.6276   -1.2059   -0.0346 C   0  0  0  0  0  0  0  0  0  0  0  0
    1.3858    0.1737    0.0117 C   0  0  0  0  0  0  0  0  0  0  0  0
   -2.4802   -2.6536    0.7258 N   0  0  0  0  0  0  0  0  0  0  0  0
    3.5389   -0.7657    0.7837 N   0  0  0  0  0  0  0  0  0  0  0  0
   -1.4211    2.1058    0.0685 H   0  0  0  0  0  0  0  0  0  0  0  0
   -2.4953   -0.1428    0.0062 H   0  0  0  0  0  0  0  0  0  0  0  0
    1.0507    2.3013    0.0872 H   0  0  0  0  0  0  0  0  0  0  0  0
    1.3917   -1.9697   -0.0241 H   0  0  0  0  0  0  0  0  0  0  0  0
   -0.5104   -3.3390    0.1274 H   0  0  0  0  0  0  0  0  0  0  0  0
   -1.5902   -2.7728   -1.1433 H   0  0  0  0  0  0  0  0  0  0  0  0
    3.1766    1.3155    0.2930 H   0  0  0  0  0  0  0  0  0  0  0  0
    3.2565    0.1724   -1.0437 H   0  0  0  0  0  0  0  0  0  0  0  0
   -2.2193   -2.5692    1.7075 H   0  0  0  0  0  0  0  0  0  0  0  0
   -2.9132   -3.5694    0.6187 H   0  0  0  0  0  0  0  0  0  0  0  0
    3.3123   -0.6342    1.7687 H   0  0  0  0  0  0  0  0  0  0  0  0
    4.5515   -0.6867    0.7057 H   0  0  0  0  0  0  0  0  0  0  0  0
  1  3  1  0  0  0  0
  1 11  1  0  0  0  0
  2 12  1  0  0  0  0
  2  1  2  0  0  0  0
  3 13  1  0  0  0  0
  4  8  1  0  0  0  0
  5  7  1  0  0  0  0
  5 15  1  0  0  0  0
  5  9  1  0  0  0  0
  6  8  1  0  0  0  0
  6 17  1  0  0  0  0
  6 10  1  0  0  0  0
  7  4  2  0  0  0  0
  7  2  1  0  0  0  0
  8  3  2  0  0  0  0
  9 19  1  0  0  0  0
 10 21  1  0  0  0  0
 14  4  1  0  0  0  0
 16  5  1  0  0  0  0
 18  6  1  0  0  0  0
 20  9  1  0  0  0  0
 22 10  1  0  0  0  0
M  END
>  <HBA>
2

>  <HBD>
2

>  <TPSA>
52.04

>  <cid>
15133

>  <dipole>
1.69

>  <excitation_energy_1>
5.12

>  <excitation_energy_2>
5.371

>  <excitation_energy_3>
5.434

>  <excitation_energy_4>
5.661

>  <homo_energy>
-6.068

>  <homo_lumo_gap>
6.275

>  <logP>
2.005

>  <lumo_energy>
0.207

>  <melting_point>
120.49

>  <molecular_refractivity>
41.79

>  <oscillator_strength_1>
0.0008

>  <oscillator_strength_2>
0.0227

>  <oscillator_strength_3>
0.0461

>  <oscillator_strength_4>
0.0251

>  <open_babel_can_smiles>
NCc1cccc(c1)CN

>  <mulliken_charges>
22
1   -0.130261
2   -0.166286
3   -0.189579
4   -0.232633
5   -0.209418
6   -0.208302
7   0.147286
8   0.147582
9   -0.71508
10   -0.714585
11   0.123545
12   0.14636
13   0.115157
14   0.140904
15   0.123999
16   0.15525
17   0.120436
18   0.156036
19   0.297294
20   0.297108
21   0.297444
22   0.297741

>  <lowdin_charges>
22
1   -0.158355
2   -0.159979
3   -0.174185
4   -0.173035
5   -0.202015
6   -0.199657
7   -0.014297
8   -0.015168
9   -0.552464
10   -0.550624
11   0.155057
12   0.165317
13   0.150361
14   0.16473
15   0.126386
16   0.150348
17   0.122613
18   0.150542
19   0.253191
20   0.254463
21   0.253163
22   0.253607

$$$$

