PCCDB-ID:  14018
public computational chemistry database (PCCDB) project, http://pccdb.org

 26 25  0  0  0  0  0  0  0  0999 V2000
    2.6014   -1.1014    0.9326 C   0  0  0  0  0  0  0  0  0  0  0  0
    1.0422    2.1357    1.8133 C   0  0  0  0  0  0  0  0  0  0  0  0
    5.2075    0.6850   -1.0320 C   0  0  0  0  0  0  0  0  0  0  0  0
    2.5430    2.3487   -0.9513 C   0  0  0  0  0  0  0  0  0  0  0  0
    2.3054    0.0109   -0.0818 C   0  0  0  0  0  0  0  0  0  0  0  0
    2.5462    1.9811    1.5516 C   0  0  0  0  0  0  0  0  0  0  0  0
    4.5229    1.2787    0.2061 C   0  0  0  0  0  0  0  0  0  0  0  0
    2.9720    1.3887    0.1778 C   0  0  0  0  0  0  0  0  0  0  0  0
    2.0808   -2.0234    0.6487 H   0  0  0  0  0  0  0  0  0  0  0  0
    2.2685   -0.8370    1.9427 H   0  0  0  0  0  0  0  0  0  0  0  0
    3.6706   -1.3350    0.9870 H   0  0  0  0  0  0  0  0  0  0  0  0
    0.8755    2.6013    2.7916 H   0  0  0  0  0  0  0  0  0  0  0  0
    0.5234    1.1706    1.8205 H   0  0  0  0  0  0  0  0  0  0  0  0
    0.5545    2.7699    1.0649 H   0  0  0  0  0  0  0  0  0  0  0  0
    6.2956    0.6892   -0.8994 H   0  0  0  0  0  0  0  0  0  0  0  0
    4.9891    1.2568   -1.9405 H   0  0  0  0  0  0  0  0  0  0  0  0
    4.9069   -0.3534   -1.2115 H   0  0  0  0  0  0  0  0  0  0  0  0
    1.4550    2.4748   -0.9798 H   0  0  0  0  0  0  0  0  0  0  0  0
    2.8472    1.9741   -1.9350 H   0  0  0  0  0  0  0  0  0  0  0  0
    2.9910    3.3416   -0.8175 H   0  0  0  0  0  0  0  0  0  0  0  0
    1.2187    0.1569   -0.1385 H   0  0  0  0  0  0  0  0  0  0  0  0
    2.6016   -0.3353   -1.0809 H   0  0  0  0  0  0  0  0  0  0  0  0
    2.9770    1.3624    2.3504 H   0  0  0  0  0  0  0  0  0  0  0  0
    3.0237    2.9662    1.6531 H   0  0  0  0  0  0  0  0  0  0  0  0
    4.9260    2.2869    0.3792 H   0  0  0  0  0  0  0  0  0  0  0  0
    4.8185    0.6896    1.0847 H   0  0  0  0  0  0  0  0  0  0  0  0
  1 11  1  0  0  0  0
  1 10  1  0  0  0  0
  2 13  1  0  0  0  0
  2 12  1  0  0  0  0
  3 15  1  0  0  0  0
  3  7  1  0  0  0  0
  4 20  1  0  0  0  0
  4  8  1  0  0  0  0
  5  8  1  0  0  0  0
  5  1  1  0  0  0  0
  6 24  1  0  0  0  0
  6  2  1  0  0  0  0
  6 23  1  0  0  0  0
  7 25  1  0  0  0  0
  7 26  1  0  0  0  0
  8  7  1  0  0  0  0
  8  6  1  0  0  0  0
  9  1  1  0  0  0  0
 14  2  1  0  0  0  0
 16  3  1  0  0  0  0
 17  3  1  0  0  0  0
 18  4  1  0  0  0  0
 19  4  1  0  0  0  0
 21  5  1  0  0  0  0
 22  5  1  0  0  0  0
M  END
>  <HBA>
0

>  <HBD>
0

>  <TPSA>
0.0

>  <cid>
14018

>  <dipole>
0.04

>  <excitation_energy_1>
7.483

>  <excitation_energy_2>
7.552

>  <excitation_energy_3>
7.721

>  <excitation_energy_4>
7.907

>  <homo_energy>
-7.995

>  <homo_lumo_gap>
9.987

>  <logP>
3.223

>  <lumo_energy>
1.992

>  <melting_point>
-9.2

>  <molecular_refractivity>
40.31

>  <oscillator_strength_1>
0.0144

>  <oscillator_strength_2>
0.001

>  <oscillator_strength_3>
0.0074

>  <oscillator_strength_4>
0.0012

>  <open_babel_can_smiles>
CCC(CC)(CC)C

>  <mulliken_charges>
26
1   -0.457251
2   -0.456652
3   -0.456615
4   -0.45828
5   -0.260335
6   -0.254408
7   -0.254466
8   0.113208
9   0.141167
10   0.14624
11   0.146245
12   0.141319
13   0.146328
14   0.145182
15   0.141314
16   0.14541
17   0.146095
18   0.140654
19   0.140842
20   0.134573
21   0.130397
22   0.130113
23   0.129218
24   0.125234
25   0.125109
26   0.129359

>  <lowdin_charges>
26
1   -0.44787
2   -0.451038
3   -0.447215
4   -0.442914
5   -0.275301
6   -0.276203
7   -0.275769
8   0.006984
9   0.150521
10   0.146913
11   0.146146
12   0.150271
13   0.147292
14   0.1487
15   0.148644
16   0.147907
17   0.146205
18   0.145485
19   0.147062
20   0.144662
21   0.139429
22   0.140629
23   0.140915
24   0.139219
25   0.138894
26   0.140432

$$$$

