PCCDB-ID:  12149
public computational chemistry database (PCCDB) project, http://pccdb.org

 17 17  0  0  0  0  0  0  0  0999 V2000
    0.7229   -0.2054   -0.3382 C   0  0  0  0  0  0  0  0  0  0  0  0
    3.0392   -1.1527    0.0707 C   0  0  0  0  0  0  0  0  0  0  0  0
    2.8069    1.2277   -0.1664 C   0  0  0  0  0  0  0  0  0  0  0  0
    4.4139   -1.0152    0.2351 C   0  0  0  0  0  0  0  0  0  0  0  0
    4.1783    1.3896   -0.0044 C   0  0  0  0  0  0  0  0  0  0  0  0
    7.5156    0.5492    0.5108 C   0  0  0  0  0  0  0  0  0  0  0  0
    2.2097   -0.0410   -0.1340 C   0  0  0  0  0  0  0  0  0  0  0  0
    4.9911    0.2635    0.2005 C   0  0  0  0  0  0  0  0  0  0  0  0
    6.3461    0.4166    0.3644 N   0  0  0  0  0  0  0  0  0  0  0  0
    9.0895    0.7274    0.7051 S   0  0  0  0  0  0  0  0  0  0  0  0
    0.3469   -1.1055    0.1590 H   0  0  0  0  0  0  0  0  0  0  0  0
    0.4757   -0.2952   -1.4044 H   0  0  0  0  0  0  0  0  0  0  0  0
    0.1674    0.6540    0.0517 H   0  0  0  0  0  0  0  0  0  0  0  0
    2.6011   -2.1473    0.1029 H   0  0  0  0  0  0  0  0  0  0  0  0
    2.1867    2.1073   -0.3206 H   0  0  0  0  0  0  0  0  0  0  0  0
    5.0469   -1.8822    0.3942 H   0  0  0  0  0  0  0  0  0  0  0  0
    4.6314    2.3754   -0.0298 H   0  0  0  0  0  0  0  0  0  0  0  0
  1  7  1  0  0  0  0
  1 13  1  0  0  0  0
  1 11  1  0  0  0  0
  2 14  1  0  0  0  0
  2  4  2  0  0  0  0
  3  7  2  0  0  0  0
  3  5  1  0  0  0  0
  4 16  1  0  0  0  0
  5  8  2  0  0  0  0
  6 10  2  0  0  0  0
  7  2  1  0  0  0  0
  8  4  1  0  0  0  0
  8  9  1  0  0  0  0
  9  6  2  0  0  0  0
 12  1  1  0  0  0  0
 15  3  1  0  0  0  0
 17  5  1  0  0  0  0
M  END
>  <HBA>
2

>  <HBD>
0

>  <TPSA>
44.45

>  <cid>
12149

>  <dipole>
4.56

>  <excitation_energy_1>
4.425

>  <excitation_energy_2>
4.509

>  <excitation_energy_3>
4.684

>  <excitation_energy_4>
5.016

>  <homo_energy>
-6.125

>  <homo_lumo_gap>
4.939

>  <logP>
2.729

>  <lumo_energy>
-1.186

>  <melting_point>
64.94

>  <molecular_refractivity>
46.09

>  <oscillator_strength_1>
0.0

>  <oscillator_strength_2>
0.4934

>  <oscillator_strength_3>
0.0063

>  <oscillator_strength_4>
0.0

>  <open_babel_can_smiles>
S=C=Nc1ccc(cc1)C

>  <mulliken_charges>
17
1   -0.53215
2   -0.193729
3   -0.192692
4   -0.12188
5   -0.122334
6   0.13535
7   0.186963
8   0.270155
9   -0.378183
10   -0.125851
11   0.162081
12   0.172201
13   0.16281
14   0.135689
15   0.135712
16   0.15291
17   0.152947

>  <lowdin_charges>
17
1   -0.441801
2   -0.157168
3   -0.158202
4   -0.156343
5   -0.155014
6   -0.045947
7   0.006424
8   0.053766
9   -0.053178
10   -0.048455
11   0.161549
12   0.164358
13   0.162304
14   0.161285
15   0.162486
16   0.172542
17   0.171394

$$$$

