PCCDB-ID:  30490
public computational chemistry database (PCCDB) project, http://pccdb.org

 38 40  0  0  0  0  0  0  0  0999 V2000
   -1.5625   -0.7200    0.3602 C   0  0  0  0  0  0  0  0  0  0  0  0
    3.0930    2.3083   -3.8629 C   0  0  0  0  0  0  0  0  0  0  0  0
    4.1953   -1.0965    2.2834 C   0  0  0  0  0  0  0  0  0  0  0  0
   -0.8153   -1.3801   -0.6179 C   0  0  0  0  0  0  0  0  0  0  0  0
   -0.9257    0.1971    1.1923 C   0  0  0  0  0  0  0  0  0  0  0  0
    2.2774    2.7604   -2.8228 C   0  0  0  0  0  0  0  0  0  0  0  0
    3.7858    1.1103   -3.7081 C   0  0  0  0  0  0  0  0  0  0  0  0
    3.5315   -1.9883    1.2269 C   0  0  0  0  0  0  0  0  0  0  0  0
    3.4874    0.2620    2.3661 C   0  0  0  0  0  0  0  0  0  0  0  0
    0.5481   -1.1270   -0.7504 C   0  0  0  0  0  0  0  0  0  0  0  0
    0.4440    0.4439    1.0567 C   0  0  0  0  0  0  0  0  0  0  0  0
    2.1634    2.0201   -1.6488 C   0  0  0  0  0  0  0  0  0  0  0  0
    3.6725    0.3730   -2.5251 C   0  0  0  0  0  0  0  0  0  0  0  0
    3.5107   -1.2889   -0.1394 C   0  0  0  0  0  0  0  0  0  0  0  0
    3.3663    0.9359    0.9861 C   0  0  0  0  0  0  0  0  0  0  0  0
    1.2145   -0.2187    0.0910 C   0  0  0  0  0  0  0  0  0  0  0  0
    2.8630    0.8139   -1.4697 C   0  0  0  0  0  0  0  0  0  0  0  0
    2.7224    0.0523   -0.1294 C   0  0  0  0  0  0  0  0  0  0  0  0
   -2.6265   -0.9144    0.4652 H   0  0  0  0  0  0  0  0  0  0  0  0
    3.1807    2.8808   -4.7825 H   0  0  0  0  0  0  0  0  0  0  0  0
    5.2511   -0.9444    2.0136 H   0  0  0  0  0  0  0  0  0  0  0  0
    4.1891   -1.5882    3.2644 H   0  0  0  0  0  0  0  0  0  0  0  0
   -1.2967   -2.0895   -1.2863 H   0  0  0  0  0  0  0  0  0  0  0  0
   -1.4908    0.7287    1.9538 H   0  0  0  0  0  0  0  0  0  0  0  0
    1.7224    3.6893   -2.9282 H   0  0  0  0  0  0  0  0  0  0  0  0
    4.4197    0.7388   -4.5095 H   0  0  0  0  0  0  0  0  0  0  0  0
    2.5064   -2.2319    1.5367 H   0  0  0  0  0  0  0  0  0  0  0  0
    4.0682   -2.9415    1.1396 H   0  0  0  0  0  0  0  0  0  0  0  0
    4.0319    0.9341    3.0423 H   0  0  0  0  0  0  0  0  0  0  0  0
    2.4943    0.1157    2.8072 H   0  0  0  0  0  0  0  0  0  0  0  0
    1.0992   -1.6322   -1.5384 H   0  0  0  0  0  0  0  0  0  0  0  0
    0.9027    1.1705    1.7178 H   0  0  0  0  0  0  0  0  0  0  0  0
    1.5047    2.3762   -0.8616 H   0  0  0  0  0  0  0  0  0  0  0  0
    4.2260   -0.5556   -2.4428 H   0  0  0  0  0  0  0  0  0  0  0  0
    3.1159   -1.9657   -0.9046 H   0  0  0  0  0  0  0  0  0  0  0  0
    4.5495   -1.0734   -0.4228 H   0  0  0  0  0  0  0  0  0  0  0  0
    4.3735    1.1984    0.6354 H   0  0  0  0  0  0  0  0  0  0  0  0
    2.8319    1.8885    1.0748 H   0  0  0  0  0  0  0  0  0  0  0  0
  1 19  1  0  0  0  0
  1  5  2  0  0  0  0
  2  7  2  0  0  0  0
  2  6  1  0  0  0  0
  3  9  1  0  0  0  0
  3 22  1  0  0  0  0
  4  1  1  0  0  0  0
  5 24  1  0  0  0  0
  6 12  2  0  0  0  0
  7 13  1  0  0  0  0
  8 27  1  0  0  0  0
  8  3  1  0  0  0  0
  9 30  1  0  0  0  0
  9 29  1  0  0  0  0
 10  4  2  0  0  0  0
 10 16  1  0  0  0  0
 11  5  1  0  0  0  0
 11 32  1  0  0  0  0
 12 17  1  0  0  0  0
 12 33  1  0  0  0  0
 13 34  1  0  0  0  0
 13 17  2  0  0  0  0
 14 18  1  0  0  0  0
 14  8  1  0  0  0  0
 15 38  1  0  0  0  0
 15  9  1  0  0  0  0
 16 11  2  0  0  0  0
 17 18  1  0  0  0  0
 18 16  1  0  0  0  0
 18 15  1  0  0  0  0
 20  2  1  0  0  0  0
 21  3  1  0  0  0  0
 23  4  1  0  0  0  0
 25  6  1  0  0  0  0
 26  7  1  0  0  0  0
 28  8  1  0  0  0  0
 31 10  1  0  0  0  0
 35 14  1  0  0  0  0
 36 14  1  0  0  0  0
 37 15  1  0  0  0  0
M  END
>  <HBA>
0

>  <HBD>
0

>  <TPSA>
0.0

>  <cid>
30490

>  <dipole>
0.29

>  <excitation_energy_1>
5.163

>  <excitation_energy_2>
5.208

>  <excitation_energy_3>
5.449

>  <excitation_energy_4>
5.639

>  <homo_energy>
-6.161

>  <homo_lumo_gap>
6.063

>  <logP>
4.937

>  <lumo_energy>
-0.098

>  <melting_point>
63.75

>  <molecular_refractivity>
77.7

>  <oscillator_strength_1>
0.0317

>  <oscillator_strength_2>
0.0049

>  <oscillator_strength_3>
0.0805

>  <oscillator_strength_4>
0.0113

>  <open_babel_can_smiles>
C1CCC(CC1)(c1ccccc1)c1ccccc1

>  <mulliken_charges>
38
1   -0.129736
2   -0.128017
3   -0.255169
4   -0.129745
5   -0.132452
6   -0.133432
7   -0.13325
8   -0.261734
9   -0.265398
10   -0.177778
11   -0.198048
12   -0.17368
13   -0.195425
14   -0.289178
15   -0.281072
16   0.163833
17   0.162077
18   -0.062667
19   0.126894
20   0.125461
21   0.126059
22   0.130264
23   0.127743
24   0.126642
25   0.126676
26   0.12518
27   0.143584
28   0.129107
29   0.131008
30   0.138396
31   0.131769
32   0.128478
33   0.130461
34   0.12575
35   0.138096
36   0.134184
37   0.13885
38   0.136269

>  <lowdin_charges>
38
1   -0.159482
2   -0.162048
3   -0.274962
4   -0.155762
5   -0.158617
6   -0.155218
7   -0.158253
8   -0.27855
9   -0.284963
10   -0.161431
11   -0.178915
12   -0.161776
13   -0.176201
14   -0.278006
15   -0.277623
16   0.001861
17   0.001693
18   0.008769
19   0.154887
20   0.156083
21   0.134423
22   0.14314
23   0.157888
24   0.15727
25   0.155944
26   0.156275
27   0.145436
28   0.143747
29   0.146036
30   0.142858
31   0.158781
32   0.159289
33   0.159605
34   0.157833
35   0.146135
36   0.141134
37   0.148037
38   0.144684

$$$$

