PCCDB-ID:  34545
public computational chemistry database (PCCDB) project, http://pccdb.org

 30 31  0  0  0  0  0  0  0  0999 V2000
   -0.0017    0.0468   -0.0091 C   0  0  0  0  0  0  0  0  0  0  0  0
    4.1536   -2.6214   -1.0666 C   0  0  0  0  0  0  0  0  0  0  0  0
   10.5949    0.1770    0.1903 C   0  0  0  0  0  0  0  0  0  0  0  0
    9.9647    1.3247    0.6740 C   0  0  0  0  0  0  0  0  0  0  0  0
    9.8277   -0.8965   -0.2809 C   0  0  0  0  0  0  0  0  0  0  0  0
    8.5729    1.3991    0.6869 C   0  0  0  0  0  0  0  0  0  0  0  0
    8.4395   -0.8281   -0.2713 C   0  0  0  0  0  0  0  0  0  0  0  0
    2.3115    1.0095    0.3925 C   0  0  0  0  0  0  0  0  0  0  0  0
    3.6950    0.9037    0.3704 C   0  0  0  0  0  0  0  0  0  0  0  0
    2.1331   -1.2103   -0.5194 C   0  0  0  0  0  0  0  0  0  0  0  0
    1.5046   -0.0496   -0.0505 C   0  0  0  0  0  0  0  0  0  0  0  0
    3.5226   -1.3484   -0.5549 C   0  0  0  0  0  0  0  0  0  0  0  0
    7.8028    0.3273    0.2151 C   0  0  0  0  0  0  0  0  0  0  0  0
    4.3113   -0.2678   -0.0987 C   0  0  0  0  0  0  0  0  0  0  0  0
    6.3989    0.5166    0.2764 N   0  0  0  0  0  0  0  0  0  0  0  0
    5.7132   -0.4508   -0.1557 N   0  0  0  0  0  0  0  0  0  0  0  0
   -0.3335    1.0820    0.1189 H   0  0  0  0  0  0  0  0  0  0  0  0
   -0.4137   -0.5364    0.8253 H   0  0  0  0  0  0  0  0  0  0  0  0
   -0.4546   -0.3439   -0.9275 H   0  0  0  0  0  0  0  0  0  0  0  0
    3.3861   -3.3179   -1.4183 H   0  0  0  0  0  0  0  0  0  0  0  0
    4.7366   -3.1208   -0.2849 H   0  0  0  0  0  0  0  0  0  0  0  0
    4.8453   -2.4233   -1.8918 H   0  0  0  0  0  0  0  0  0  0  0  0
   11.6798    0.1149    0.1785 H   0  0  0  0  0  0  0  0  0  0  0  0
   10.5559    2.1593    1.0408 H   0  0  0  0  0  0  0  0  0  0  0  0
   10.3208   -1.7893   -0.6567 H   0  0  0  0  0  0  0  0  0  0  0  0
    8.0551    2.2788    1.0572 H   0  0  0  0  0  0  0  0  0  0  0  0
    7.8299   -1.6490   -0.6316 H   0  0  0  0  0  0  0  0  0  0  0  0
    1.8461    1.9231    0.7552 H   0  0  0  0  0  0  0  0  0  0  0  0
    4.3262    1.7176    0.7093 H   0  0  0  0  0  0  0  0  0  0  0  0
    1.5183   -2.0365   -0.8718 H   0  0  0  0  0  0  0  0  0  0  0  0
  1 17  1  0  0  0  0
  1 18  1  0  0  0  0
  2 12  1  0  0  0  0
  2 21  1  0  0  0  0
  3  4  2  0  0  0  0
  4  6  1  0  0  0  0
  4 24  1  0  0  0  0
  5  7  2  0  0  0  0
  5  3  1  0  0  0  0
  6 26  1  0  0  0  0
  7 13  1  0  0  0  0
  8 28  1  0  0  0  0
  9  8  1  0  0  0  0
  9 29  1  0  0  0  0
 10 11  1  0  0  0  0
 11  1  1  0  0  0  0
 11  8  2  0  0  0  0
 12 10  2  0  0  0  0
 12 14  1  0  0  0  0
 13 15  1  0  0  0  0
 13  6  2  0  0  0  0
 14  9  2  0  0  0  0
 16 14  1  0  0  0  0
 16 15  1  0  0  0  0
 19  1  1  0  0  0  0
 20  2  1  0  0  0  0
 22  2  1  0  0  0  0
 23  3  1  0  0  0  0
 25  5  1  0  0  0  0
 27  7  1  0  0  0  0
 30 10  1  0  0  0  0
M  RAD  2  15   2  16   2
M  END
>  <HBA>
2

>  <HBD>
0

>  <TPSA>
24.72

>  <cid>
34545

>  <dipole>
0.56

>  <excitation_energy_1>
2.537

>  <excitation_energy_2>
3.462

>  <excitation_energy_3>
3.791

>  <excitation_energy_4>
4.043

>  <homo_energy>
-5.916

>  <homo_lumo_gap>
3.81

>  <logP>
4.719

>  <lumo_energy>
-2.106

>  <melting_point>
70.49

>  <molecular_refractivity>
66.99

>  <oscillator_strength_1>
0.0

>  <oscillator_strength_2>
0.7899

>  <oscillator_strength_3>
0.0197

>  <oscillator_strength_4>
0.0188

>  <open_babel_can_smiles>
Cc1ccc(c(c1)C)[N][N]c1ccccc1

>  <mulliken_charges>
30
1   -0.53304
2   -0.5167
3   -0.118583
4   -0.138547
5   -0.146019
6   -0.141001
7   -0.12622
8   -0.204285
9   -0.119673
10   -0.255538
11   0.201513
12   0.167959
13   0.27091
14   0.213176
15   -0.30966
16   -0.31336
17   0.158013
18   0.168378
19   0.16211
20   0.145939
21   0.169512
22   0.171124
23   0.133232
24   0.134226
25   0.134456
26   0.140478
27   0.153389
28   0.125568
29   0.154567
30   0.118074

>  <lowdin_charges>
30
1   -0.44277
2   -0.443019
3   -0.14561
4   -0.158116
5   -0.154005
6   -0.148041
7   -0.153609
8   -0.171469
9   -0.146456
10   -0.181509
11   0.01515
12   0.013717
13   0.013049
14   -0.00535
15   -0.084754
16   -0.08274
17   0.157536
18   0.164992
19   0.161521
20   0.153268
21   0.167502
22   0.167573
23   0.157487
24   0.161108
25   0.159847
26   0.167358
27   0.1731
28   0.156066
29   0.174006
30   0.15417

$$$$

