PCCDB-ID:  51817
public computational chemistry database (PCCDB) project, http://pccdb.org

 23 22  0  0  0  0  0  0  0  0999 V2000
    0.8273    0.0959    0.1603 C   0  0  0  0  0  0  0  0  0  0  0  0
    2.3565    0.0076    0.1363 C   0  0  0  0  0  0  0  0  0  0  0  0
    2.8766   -1.2968   -0.4824 C   0  0  0  0  0  0  0  0  0  0  0  0
    4.4076   -1.3867   -0.5087 C   0  0  0  0  0  0  0  0  0  0  0  0
    4.9275   -2.6999   -1.1054 C   0  0  0  0  0  0  0  0  0  0  0  0
    6.4727   -2.7555   -1.1199 C   0  0  0  0  0  0  0  0  0  0  0  0
    7.0030   -4.0100   -1.6397 C   0  0  0  0  0  0  0  0  0  0  0  0
    7.4270   -5.0609   -2.0760 C   0  0  0  0  0  0  0  0  0  0  0  0
    7.9154   -6.2424   -2.5690 C   0  0  0  0  0  0  0  0  0  0  0  0
    8.3328   -7.2494   -2.9876 N   0  0  0  0  0  0  0  0  0  0  0  0
    0.4892    1.0372    0.6079 H   0  0  0  0  0  0  0  0  0  0  0  0
    0.3913   -0.7252    0.7424 H   0  0  0  0  0  0  0  0  0  0  0  0
    0.4107    0.0403   -0.8528 H   0  0  0  0  0  0  0  0  0  0  0  0
    2.7458    0.1006    1.1601 H   0  0  0  0  0  0  0  0  0  0  0  0
    2.7645    0.8611   -0.4234 H   0  0  0  0  0  0  0  0  0  0  0  0
    2.4871   -1.3930   -1.5066 H   0  0  0  0  0  0  0  0  0  0  0  0
    2.4710   -2.1510    0.0794 H   0  0  0  0  0  0  0  0  0  0  0  0
    4.7966   -1.2767    0.5145 H   0  0  0  0  0  0  0  0  0  0  0  0
    4.8129   -0.5403   -1.0825 H   0  0  0  0  0  0  0  0  0  0  0  0
    4.5549   -2.8223   -2.1300 H   0  0  0  0  0  0  0  0  0  0  0  0
    4.5452   -3.5511   -0.5286 H   0  0  0  0  0  0  0  0  0  0  0  0
    6.8569   -2.6056   -0.1008 H   0  0  0  0  0  0  0  0  0  0  0  0
    6.8681   -1.9248   -1.7213 H   0  0  0  0  0  0  0  0  0  0  0  0
  1 11  1  0  0  0  0
  1 12  1  0  0  0  0
  2  1  1  0  0  0  0
  2 14  1  0  0  0  0
  3 17  1  0  0  0  0
  3  2  1  0  0  0  0
  4  3  1  0  0  0  0
  4 18  1  0  0  0  0
  5 21  1  0  0  0  0
  5  4  1  0  0  0  0
  6  5  1  0  0  0  0
  6 22  1  0  0  0  0
  7  6  1  0  0  0  0
  8  7  3  0  0  0  0
  9  8  1  0  0  0  0
 10  9  3  0  0  0  0
 13  1  1  0  0  0  0
 15  2  1  0  0  0  0
 16  3  1  0  0  0  0
 19  4  1  0  0  0  0
 20  5  1  0  0  0  0
 23  6  1  0  0  0  0
M  END
>  <HBA>
1

>  <HBD>
0

>  <TPSA>
23.79

>  <cid>
51817

>  <dipole>
5.67

>  <excitation_energy_1>
5.026

>  <excitation_energy_2>
5.195

>  <excitation_energy_3>
5.197

>  <excitation_energy_4>
7.068

>  <homo_energy>
-7.636

>  <homo_lumo_gap>
6.648

>  <logP>
2.484

>  <lumo_energy>
-0.988

>  <melting_point>
22.69

>  <molecular_refractivity>
43.29

>  <oscillator_strength_1>
0.0

>  <oscillator_strength_2>
0.0038

>  <oscillator_strength_3>
0.0003

>  <oscillator_strength_4>
0.0627

>  <open_babel_can_smiles>
CCCCCCC#CC#N

>  <mulliken_charges>
23
1   -0.442669
2   -0.248827
3   -0.249134
4   -0.252538
5   -0.263968
6   -0.412518
7   0.003821
8   0.458982
9   -0.033564
10   -0.471378
11   0.145384
12   0.143784
13   0.143771
14   0.132553
15   0.132533
16   0.132674
17   0.132667
18   0.133686
19   0.133748
20   0.154416
21   0.154588
22   0.185788
23   0.186202

>  <lowdin_charges>
23
1   -0.44474
2   -0.271716
3   -0.273731
4   -0.275247
5   -0.265419
6   -0.262302
7   0.030639
8   -0.092635
9   0.001199
10   -0.092996
11   0.151536
12   0.14859
13   0.146937
14   0.138988
15   0.140705
16   0.139576
17   0.141245
18   0.139988
19   0.141804
20   0.15122
21   0.153049
22   0.175737
23   0.177572

$$$$

