PCCDB-ID:  61631
public computational chemistry database (PCCDB) project, http://pccdb.org

 30 29  0  0  0  0  0  0  0  0999 V2000
    2.9762    0.5353    2.3511 C   0  0  0  0  0  0  0  0  0  0  0  0
   12.2352    2.6442   -3.7463 C   0  0  0  0  0  0  0  0  0  0  0  0
    4.1933    0.3207    1.4454 C   0  0  0  0  0  0  0  0  0  0  0  0
    4.1545    1.1696    0.1684 C   0  0  0  0  0  0  0  0  0  0  0  0
    5.3726    0.9605   -0.7403 C   0  0  0  0  0  0  0  0  0  0  0  0
    5.3316    1.8161   -2.0209 C   0  0  0  0  0  0  0  0  0  0  0  0
    6.5119    1.5766   -2.9224 C   0  0  0  0  0  0  0  0  0  0  0  0
    7.4088    2.4990   -3.2775 C   0  0  0  0  0  0  0  0  0  0  0  0
    8.5835    2.2376   -4.1793 C   0  0  0  0  0  0  0  0  0  0  0  0
    9.8862    2.7940   -3.6252 C   0  0  0  0  0  0  0  0  0  0  0  0
    9.9838    3.7076   -2.8357 O   0  0  0  0  0  0  0  0  0  0  0  0
   10.9498    2.1547   -4.1633 O   0  0  0  0  0  0  0  0  0  0  0  0
    3.0341   -0.0839    3.2536 H   0  0  0  0  0  0  0  0  0  0  0  0
    2.0446    0.2796    1.8311 H   0  0  0  0  0  0  0  0  0  0  0  0
    2.8990    1.5821    2.6700 H   0  0  0  0  0  0  0  0  0  0  0  0
   12.9669    2.0268   -4.2685 H   0  0  0  0  0  0  0  0  0  0  0  0
   12.3513    2.5450   -2.6638 H   0  0  0  0  0  0  0  0  0  0  0  0
   12.3543    3.6960   -4.0204 H   0  0  0  0  0  0  0  0  0  0  0  0
    4.2631   -0.7416    1.1714 H   0  0  0  0  0  0  0  0  0  0  0  0
    5.1110    0.5511    2.0049 H   0  0  0  0  0  0  0  0  0  0  0  0
    4.0831    2.2326    0.4426 H   0  0  0  0  0  0  0  0  0  0  0  0
    3.2367    0.9385   -0.3932 H   0  0  0  0  0  0  0  0  0  0  0  0
    5.4428   -0.1018   -1.0172 H   0  0  0  0  0  0  0  0  0  0  0  0
    6.2919    1.1936   -0.1857 H   0  0  0  0  0  0  0  0  0  0  0  0
    5.2802    2.8796   -1.7527 H   0  0  0  0  0  0  0  0  0  0  0  0
    4.4018    1.5871   -2.5652 H   0  0  0  0  0  0  0  0  0  0  0  0
    6.6308    0.5541   -3.2896 H   0  0  0  0  0  0  0  0  0  0  0  0
    7.3165    3.5189   -2.9073 H   0  0  0  0  0  0  0  0  0  0  0  0
    8.4382    2.7274   -5.1563 H   0  0  0  0  0  0  0  0  0  0  0  0
    8.7060    1.1708   -4.3919 H   0  0  0  0  0  0  0  0  0  0  0  0
  1 15  1  0  0  0  0
  1 13  1  0  0  0  0
  2 17  1  0  0  0  0
  3 20  1  0  0  0  0
  3  1  1  0  0  0  0
  4 21  1  0  0  0  0
  4  3  1  0  0  0  0
  5 24  1  0  0  0  0
  5  4  1  0  0  0  0
  6 25  1  0  0  0  0
  6  5  1  0  0  0  0
  7  6  1  0  0  0  0
  8  7  2  0  0  0  0
  8 28  1  0  0  0  0
  9 10  1  0  0  0  0
  9  8  1  0  0  0  0
 10 11  2  0  0  0  0
 12  2  1  0  0  0  0
 12 10  1  0  0  0  0
 14  1  1  0  0  0  0
 16  2  1  0  0  0  0
 18  2  1  0  0  0  0
 19  3  1  0  0  0  0
 22  4  1  0  0  0  0
 23  5  1  0  0  0  0
 26  6  1  0  0  0  0
 27  7  1  0  0  0  0
 29  9  1  0  0  0  0
 30  9  1  0  0  0  0
M  END
>  <HBA>
2

>  <HBD>
0

>  <TPSA>
26.3

>  <cid>
61631

>  <dipole>
1.54

>  <excitation_energy_1>
5.733

>  <excitation_energy_2>
6.037

>  <excitation_energy_3>
6.288

>  <excitation_energy_4>
6.56

>  <homo_energy>
-6.566

>  <homo_lumo_gap>
6.977

>  <logP>
2.686

>  <lumo_energy>
0.411

>  <melting_point>
-6.99

>  <molecular_refractivity>
50.99

>  <oscillator_strength_1>
0.001

>  <oscillator_strength_2>
0.0014

>  <oscillator_strength_3>
0.0052

>  <oscillator_strength_4>
0.0738

>  <open_babel_can_smiles>
CCCCC/C=C/CC(=O)OC

>  <mulliken_charges>
30
1   -0.441646
2   -0.218221
3   -0.246833
4   -0.245978
5   -0.253745
6   -0.301987
7   -0.09519
8   -0.085521
9   -0.414004
10   0.62209
11   -0.472986
12   -0.450719
13   0.141687
14   0.140776
15   0.141845
16   0.163723
17   0.171473
18   0.169243
19   0.129585
20   0.131989
21   0.128802
22   0.12598
23   0.12737
24   0.139393
25   0.13947
26   0.137498
27   0.115232
28   0.144008
29   0.183137
30   0.17353

>  <lowdin_charges>
30
1   -0.443519
2   -0.2763
3   -0.270572
4   -0.273543
5   -0.271928
6   -0.268821
7   -0.159362
8   -0.166115
9   -0.293752
10   0.195685
11   -0.263607
12   -0.194941
13   0.149404
14   0.146004
15   0.145289
16   0.161529
17   0.157959
18   0.157271
19   0.136933
20   0.139959
21   0.136824
22   0.137129
23   0.136218
24   0.144006
25   0.145032
26   0.146174
27   0.143067
28   0.159803
29   0.176089
30   0.168084

$$$$

