PCCDB-ID:  19158
public computational chemistry database (PCCDB) project, http://pccdb.org

 36 37  0  0  1  0  0  0  0  0999 V2000
    5.0546   -1.9159   -3.3878 C   0  0  0  0  0  0  0  0  0  0  0  0
    2.9667   -0.8017   -2.9874 C   0  0  0  0  0  0  0  0  0  0  0  0
   11.6178    2.3336   -0.8809 C   0  0  0  0  0  0  0  0  0  0  0  0
   10.9559    2.9497    0.2103 C   0  0  0  0  0  0  0  0  0  0  0  0
   10.8923    1.8064   -1.9251 C   0  0  0  0  0  0  0  0  0  0  0  0
    9.5819    3.0267    0.2368 C   0  0  0  0  0  0  0  0  0  0  0  0
    8.6879    1.3384   -2.9858 C   0  0  0  0  0  0  0  0  0  0  0  0
    7.3141    1.4141   -2.9563 C   0  0  0  0  0  0  0  0  0  0  0  0
    4.5061    0.9225   -0.9474 C   0  0  0  0  0  0  0  0  0  0  0  0
    4.8318   -0.4874   -1.4561 C   0  0  0  0  0  0  0  0  0  0  0  0
    7.3848    2.5501   -0.8247 C   0  0  0  0  0  0  0  0  0  0  0  0
    4.5963    3.3498   -1.4120 C   0  0  0  0  0  0  0  0  0  0  0  0
    9.4729    1.8675   -1.9277 C   0  0  0  0  0  0  0  0  0  0  0  0
    8.8031    2.4895   -0.8240 C   0  0  0  0  0  0  0  0  0  0  0  0
    6.6427    2.0231   -1.8622 C   0  0  0  0  0  0  0  0  0  0  0  0
    5.1150    2.0421   -1.8417 C   0  0  1  0  0  0  0  0  0  0  0  0
    4.1762    4.3715   -1.0537 N   0  0  0  0  0  0  0  0  0  0  0  0
    4.4165   -0.7233   -2.8404 N   0  0  0  0  0  0  0  0  0  0  0  0
    4.7704   -2.0347   -4.4390 H   0  0  0  0  0  0  0  0  0  0  0  0
    4.7755   -2.8444   -2.8528 H   0  0  0  0  0  0  0  0  0  0  0  0
    6.1432   -1.8087   -3.3385 H   0  0  0  0  0  0  0  0  0  0  0  0
    2.7144   -0.9311   -4.0451 H   0  0  0  0  0  0  0  0  0  0  0  0
    2.4926    0.1226   -2.6446 H   0  0  0  0  0  0  0  0  0  0  0  0
    2.5221   -1.6448   -2.4230 H   0  0  0  0  0  0  0  0  0  0  0  0
   12.7030    2.2803   -0.8898 H   0  0  0  0  0  0  0  0  0  0  0  0
   11.5401    3.3635    1.0277 H   0  0  0  0  0  0  0  0  0  0  0  0
   11.3969    1.3343   -2.7649 H   0  0  0  0  0  0  0  0  0  0  0  0
    9.0723    3.5014    1.0719 H   0  0  0  0  0  0  0  0  0  0  0  0
    9.1905    0.8723   -3.8302 H   0  0  0  0  0  0  0  0  0  0  0  0
    6.7246    1.0020   -3.7706 H   0  0  0  0  0  0  0  0  0  0  0  0
    4.8982    1.0216    0.0712 H   0  0  0  0  0  0  0  0  0  0  0  0
    3.4229    1.0743   -0.8834 H   0  0  0  0  0  0  0  0  0  0  0  0
    4.3828   -1.2253   -0.7613 H   0  0  0  0  0  0  0  0  0  0  0  0
    5.9164   -0.6339   -1.4089 H   0  0  0  0  0  0  0  0  0  0  0  0
    6.8860    3.0391    0.0095 H   0  0  0  0  0  0  0  0  0  0  0  0
    4.7548    1.8660   -2.8623 H   0  0  0  0  0  0  0  0  0  0  0  0
  1 21  1  0  0  0  0
  1 20  1  0  0  0  0
  1 18  1  0  0  0  0
  2 18  1  0  0  0  0
  2 23  1  0  0  0  0
  2 24  1  0  0  0  0
  3  4  2  0  0  0  0
  4  6  1  0  0  0  0
  4 26  1  0  0  0  0
  5  3  1  0  0  0  0
  6 28  1  0  0  0  0
  7  8  2  0  0  0  0
  7 13  1  0  0  0  0
  8 15  1  0  0  0  0
  9 32  1  0  0  0  0
  9 31  1  0  0  0  0
 10 34  1  0  0  0  0
 10  9  1  0  0  0  0
 10 33  1  0  0  0  0
 11 14  1  0  0  0  0
 11 35  1  0  0  0  0
 12 17  3  0  0  0  0
 13  5  2  0  0  0  0
 13 14  1  0  0  0  0
 14  6  2  0  0  0  0
 15 16  1  0  0  0  0
 15 11  2  0  0  0  0
 16 36  1  6  0  0  0
 16 12  1  0  0  0  0
 16  9  1  0  0  0  0
 18 10  1  0  0  0  0
 19  1  1  0  0  0  0
 22  2  1  0  0  0  0
 25  3  1  0  0  0  0
 27  5  1  0  0  0  0
 29  7  1  0  0  0  0
 30  8  1  0  0  0  0
M  END
>  <HBA>
2

>  <HBD>
0

>  <TPSA>
27.03

>  <cid>
19158

>  <dipole>
4.67

>  <excitation_energy_1>
4.295

>  <excitation_energy_2>
4.324

>  <excitation_energy_3>
4.409

>  <excitation_energy_4>
5.025

>  <homo_energy>
-5.957

>  <homo_lumo_gap>
4.754

>  <logP>
3.399

>  <lumo_energy>
-1.203

>  <melting_point>
85.71

>  <molecular_refractivity>
75.59

>  <oscillator_strength_1>
0.0252

>  <oscillator_strength_2>
0.0272

>  <oscillator_strength_3>
0.0016

>  <oscillator_strength_4>
0.0024

>  <open_babel_can_smiles>
N#C[C@@H](c1ccc2c(c1)cccc2)CCN(C)C

>  <mulliken_charges>
36
1   -0.298339
2   -0.304785
3   -0.1335
4   -0.136873
5   -0.191844
6   -0.186826
7   -0.195724
8   -0.186709
9   -0.277542
10   -0.125042
11   -0.25095
12   0.345287
13   0.140317
14   0.134508
15   0.148473
16   -0.236071
17   -0.484082
18   -0.375995
19   0.150442
20   0.123217
21   0.154321
22   0.154049
23   0.155588
24   0.123764
25   0.132537
26   0.13352
27   0.131273
28   0.135826
29   0.132787
30   0.146128
31   0.157762
32   0.159208
33   0.121052
34   0.155633
35   0.14689
36   0.2017

>  <lowdin_charges>
36
1   -0.353745
2   -0.359829
3   -0.153934
4   -0.157
5   -0.156922
6   -0.155218
7   -0.155486
8   -0.168999
9   -0.268526
10   -0.203923
11   -0.160244
12   -0.014721
13   -0.000319
14   0.00226
15   -0.004986
16   -0.124666
17   -0.137237
18   -0.188253
19   0.149535
20   0.123983
21   0.149851
22   0.151967
23   0.152105
24   0.12536
25   0.157827
26   0.161428
27   0.159199
28   0.161543
29   0.160184
30   0.166567
31   0.158264
32   0.153199
33   0.127167
34   0.152045
35   0.166179
36   0.185344

$$$$

