PCCDB-ID:  14282
public computational chemistry database (PCCDB) project, http://pccdb.org

 16 16  0  0  0  0  0  0  0  0999 V2000
    3.1175    1.2507   -0.4093 C   0  0  0  0  0  0  0  0  0  0  0  0
    2.6871   -2.4295    0.7233 C   0  0  0  0  0  0  0  0  0  0  0  0
    4.3156   -0.8173    1.4247 C   0  0  0  0  0  0  0  0  0  0  0  0
    3.2949   -3.3381    1.5855 C   0  0  0  0  0  0  0  0  0  0  0  0
    4.8481   -1.8034    2.2576 C   0  0  0  0  0  0  0  0  0  0  0  0
    2.5458   -0.1507   -0.3003 C   0  0  0  0  0  0  0  0  0  0  0  0
    3.2053   -1.1320    0.6332 C   0  0  0  0  0  0  0  0  0  0  0  0
    4.3595   -3.0453    2.3470 N   0  0  0  0  0  0  0  0  0  0  0  0
    1.5710   -0.4866   -0.9514 O   0  0  0  0  0  0  0  0  0  0  0  0
    4.1647    1.2248   -0.7336 H   0  0  0  0  0  0  0  0  0  0  0  0
    3.0895    1.7623    0.5605 H   0  0  0  0  0  0  0  0  0  0  0  0
    2.5277    1.8157   -1.1328 H   0  0  0  0  0  0  0  0  0  0  0  0
    1.8255   -2.7025    0.1237 H   0  0  0  0  0  0  0  0  0  0  0  0
    4.7673    0.1694    1.4054 H   0  0  0  0  0  0  0  0  0  0  0  0
    2.9116   -4.3531    1.6733 H   0  0  0  0  0  0  0  0  0  0  0  0
    5.7108   -1.5823    2.8839 H   0  0  0  0  0  0  0  0  0  0  0  0
  1  6  1  0  0  0  0
  1 11  1  0  0  0  0
  2  4  1  0  0  0  0
  3  5  2  0  0  0  0
  4 15  1  0  0  0  0
  4  8  2  0  0  0  0
  5  8  1  0  0  0  0
  5 16  1  0  0  0  0
  6  7  1  0  0  0  0
  7  2  2  0  0  0  0
  7  3  1  0  0  0  0
  9  6  2  0  0  0  0
 10  1  1  0  0  0  0
 12  1  1  0  0  0  0
 13  2  1  0  0  0  0
 14  3  1  0  0  0  0
M  END
>  <HBA>
2

>  <HBD>
0

>  <TPSA>
29.96

>  <cid>
14282

>  <dipole>
2.34

>  <excitation_energy_1>
3.584

>  <excitation_energy_2>
4.09

>  <excitation_energy_3>
4.637

>  <excitation_energy_4>
5.163

>  <homo_energy>
-7.045

>  <homo_lumo_gap>
5.012

>  <logP>
1.284

>  <lumo_energy>
-2.033

>  <melting_point>
53.72

>  <molecular_refractivity>
34.43

>  <oscillator_strength_1>
0.0

>  <oscillator_strength_2>
0.0022

>  <oscillator_strength_3>
0.0444

>  <oscillator_strength_4>
0.0

>  <open_babel_can_smiles>
CC(=O)c1ccncc1

>  <mulliken_charges>
16
1   -0.544563
2   -0.164795
3   -0.190451
4   0.038064
5   0.038107
6   0.41731
7   0.092933
8   -0.397255
9   -0.438355
10   0.175394
11   0.175782
12   0.187113
13   0.170775
14   0.14189
15   0.150178
16   0.147874

>  <lowdin_charges>
16
1   -0.474442
2   -0.147305
3   -0.17067
4   -0.087214
5   -0.088679
6   0.163216
7   -0.027756
8   -0.134811
9   -0.225741
10   0.171461
11   0.172708
12   0.179491
13   0.182517
14   0.166734
15   0.160352
16   0.160138

$$$$

