PCCDB-ID:  34876
public computational chemistry database (PCCDB) project, http://pccdb.org

 32 33  0  0  0  0  0  0  0  0999 V2000
    3.5309   -2.8919   -2.6212 C   0  0  0  0  0  0  0  0  0  0  0  0
    3.0030   -0.4069    0.9122 C   0  0  0  0  0  0  0  0  0  0  0  0
    6.9141    5.4127   -4.8133 C   0  0  0  0  0  0  0  0  0  0  0  0
    4.5177    1.1026   -3.5999 C   0  0  0  0  0  0  0  0  0  0  0  0
    4.2220   -0.2275   -3.2975 C   0  0  0  0  0  0  0  0  0  0  0  0
    5.5819    5.4385   -4.0308 C   0  0  0  0  0  0  0  0  0  0  0  0
    7.0206    3.9438   -5.2486 C   0  0  0  0  0  0  0  0  0  0  0  0
    3.3611    1.8037   -1.6029 C   0  0  0  0  0  0  0  0  0  0  0  0
    4.0906    2.1348   -2.7585 C   0  0  0  0  0  0  0  0  0  0  0  0
    3.5021   -0.5520   -2.1433 C   0  0  0  0  0  0  0  0  0  0  0  0
    3.0736    0.4867   -1.2825 C   0  0  0  0  0  0  0  0  0  0  0  0
    4.2871    3.5929   -3.0121 C   0  0  0  0  0  0  0  0  0  0  0  0
    5.1923    4.0184   -3.9697 N   0  0  0  0  0  0  0  0  0  0  0  0
    3.6111    4.4510   -2.4448 O   0  0  0  0  0  0  0  0  0  0  0  0
    3.1607   -1.8167   -1.7708 O   0  0  0  0  0  0  0  0  0  0  0  0
    2.3112    0.2158   -0.1714 O   0  0  0  0  0  0  0  0  0  0  0  0
    6.3635    3.2194   -4.2082 O   0  0  0  0  0  0  0  0  0  0  0  0
    3.1465   -3.7947   -2.1435 H   0  0  0  0  0  0  0  0  0  0  0  0
    4.6212   -2.9695   -2.7228 H   0  0  0  0  0  0  0  0  0  0  0  0
    3.0814   -2.7878   -3.6170 H   0  0  0  0  0  0  0  0  0  0  0  0
    3.8299    0.2252    1.2632 H   0  0  0  0  0  0  0  0  0  0  0  0
    3.3889   -1.3921    0.6300 H   0  0  0  0  0  0  0  0  0  0  0  0
    2.2696   -0.5191    1.7141 H   0  0  0  0  0  0  0  0  0  0  0  0
    7.7474    5.6797   -4.1577 H   0  0  0  0  0  0  0  0  0  0  0  0
    6.9154    6.0979   -5.6653 H   0  0  0  0  0  0  0  0  0  0  0  0
    5.0803    1.3279   -4.4962 H   0  0  0  0  0  0  0  0  0  0  0  0
    4.5524   -1.0071   -3.9746 H   0  0  0  0  0  0  0  0  0  0  0  0
    4.7932    5.9957   -4.5412 H   0  0  0  0  0  0  0  0  0  0  0  0
    5.6889    5.8526   -3.0227 H   0  0  0  0  0  0  0  0  0  0  0  0
    8.0416    3.5582   -5.2932 H   0  0  0  0  0  0  0  0  0  0  0  0
    6.5156    3.7712   -6.2094 H   0  0  0  0  0  0  0  0  0  0  0  0
    2.9991    2.5943   -0.9552 H   0  0  0  0  0  0  0  0  0  0  0  0
  1 18  1  0  0  0  0
  1 15  1  0  0  0  0
  2 21  1  0  0  0  0
  2 23  1  0  0  0  0
  3 24  1  0  0  0  0
  3  6  1  0  0  0  0
  4  5  2  0  0  0  0
  4  9  1  0  0  0  0
  5 10  1  0  0  0  0
  6 13  1  0  0  0  0
  6 29  1  0  0  0  0
  7  3  1  0  0  0  0
  7 17  1  0  0  0  0
  8 11  1  0  0  0  0
  8 32  1  0  0  0  0
  9  8  2  0  0  0  0
 10 15  1  0  0  0  0
 10 11  2  0  0  0  0
 11 16  1  0  0  0  0
 12  9  1  0  0  0  0
 12 14  2  0  0  0  0
 13 12  1  0  0  0  0
 16  2  1  0  0  0  0
 17 13  1  0  0  0  0
 19  1  1  0  0  0  0
 20  1  1  0  0  0  0
 22  2  1  0  0  0  0
 25  3  1  0  0  0  0
 26  4  1  0  0  0  0
 27  5  1  0  0  0  0
 28  6  1  0  0  0  0
 30  7  1  0  0  0  0
 31  7  1  0  0  0  0
M  END
>  <HBA>
5

>  <HBD>
0

>  <TPSA>
48.0

>  <cid>
34876

>  <dipole>
5.14

>  <excitation_energy_1>
4.415

>  <excitation_energy_2>
4.606

>  <excitation_energy_3>
4.775

>  <excitation_energy_4>
5.058

>  <homo_energy>
-5.799

>  <homo_lumo_gap>
5.083

>  <logP>
1.419

>  <lumo_energy>
-0.716

>  <melting_point>
67.71

>  <molecular_refractivity>
65.02

>  <oscillator_strength_1>
0.1394

>  <oscillator_strength_2>
0.1193

>  <oscillator_strength_3>
0.0457

>  <oscillator_strength_4>
0.0696

>  <open_babel_can_smiles>
COc1cc(ccc1OC)C(=O)N1CCCO1

>  <mulliken_charges>
32
1   -0.217295
2   -0.209273
3   -0.334131
4   -0.161867
5   -0.215832
6   -0.105987
7   -0.017385
8   -0.213597
9   0.069072
10   0.360607
11   0.310854
12   0.547964
13   -0.255387
14   -0.517706
15   -0.502683
16   -0.519773
17   -0.384926
18   0.172849
19   0.154099
20   0.157753
21   0.139774
22   0.15675
23   0.159078
24   0.163057
25   0.15675
26   0.150667
27   0.133798
28   0.174733
29   0.17455
30   0.161483
31   0.145697
32   0.166308

>  <lowdin_charges>
32
1   -0.274422
2   -0.275881
3   -0.301126
4   -0.142694
5   -0.216587
6   -0.195559
7   -0.13201
8   -0.147663
9   -0.054803
10   0.089606
11   0.066986
12   0.162096
13   -0.018483
14   -0.302557
15   -0.187656
16   -0.222272
17   -0.207726
18   0.164832
19   0.144215
20   0.148062
21   0.139666
22   0.146071
23   0.157082
24   0.158677
25   0.159625
26   0.171065
27   0.164124
28   0.165653
29   0.159263
30   0.157984
31   0.138782
32   0.185647

$$$$

