PCCDB-ID:  14283
public computational chemistry database (PCCDB) project, http://pccdb.org

 22 22  0  0  0  0  0  0  0  0999 V2000
    0.9071    1.1921   -0.5212 C   0  0  0  0  0  0  0  0  0  0  0  0
    1.5195   -0.0768    0.0889 C   0  0  0  0  0  0  0  0  0  0  0  0
   -0.4968    1.4539    0.0437 C   0  0  0  0  0  0  0  0  0  0  0  0
    0.6093   -1.2915   -0.1407 C   0  0  0  0  0  0  0  0  0  0  0  0
   -1.4165    0.2289   -0.1218 C   0  0  0  0  0  0  0  0  0  0  0  0
   -0.8178   -1.0807    0.4338 C   0  0  0  0  0  0  0  0  0  0  0  0
   -0.8503   -1.1846    1.9639 C   0  0  0  0  0  0  0  0  0  0  0  0
   -1.2769   -0.3538    2.8235 N   0  0  0  0  0  0  0  0  0  0  0  0
   -0.3650   -2.3648    2.4563 O   0  0  0  0  0  0  0  0  0  0  0  0
    0.8460    1.0744   -1.6135 H   0  0  0  0  0  0  0  0  0  0  0  0
    1.5557    2.0568   -0.3350 H   0  0  0  0  0  0  0  0  0  0  0  0
    1.6722    0.0694    1.1672 H   0  0  0  0  0  0  0  0  0  0  0  0
    2.5081   -0.2706   -0.3453 H   0  0  0  0  0  0  0  0  0  0  0  0
   -0.9540    2.3188   -0.4530 H   0  0  0  0  0  0  0  0  0  0  0  0
   -0.4046    1.7180    1.1050 H   0  0  0  0  0  0  0  0  0  0  0  0
    1.0770   -2.1932    0.2759 H   0  0  0  0  0  0  0  0  0  0  0  0
    0.5147   -1.4715   -1.2204 H   0  0  0  0  0  0  0  0  0  0  0  0
   -1.6044    0.0756   -1.1932 H   0  0  0  0  0  0  0  0  0  0  0  0
   -2.3973    0.4158    0.3329 H   0  0  0  0  0  0  0  0  0  0  0  0
   -1.4459   -1.9127    0.0762 H   0  0  0  0  0  0  0  0  0  0  0  0
   -1.6143    0.4910    2.3651 H   0  0  0  0  0  0  0  0  0  0  0  0
   -0.1442   -2.9546    1.7202 H   0  0  0  0  0  0  0  0  0  0  0  0
  1 11  1  0  0  0  0
  1  3  1  0  0  0  0
  1  2  1  0  0  0  0
  2 12  1  0  0  0  0
  3 15  1  0  0  0  0
  4  2  1  0  0  0  0
  4 16  1  0  0  0  0
  4  6  1  0  0  0  0
  5  3  1  0  0  0  0
  5 19  1  0  0  0  0
  5  6  1  0  0  0  0
  6  7  1  0  0  0  0
  7  9  1  0  0  0  0
  7  8  2  0  0  0  0
 10  1  1  0  0  0  0
 13  2  1  0  0  0  0
 14  3  1  0  0  0  0
 17  4  1  0  0  0  0
 18  5  1  0  0  0  0
 20  6  1  0  0  0  0
 21  8  1  0  0  0  0
 22  9  1  0  0  0  0
M  END
>  <HBA>
2

>  <HBD>
1

>  <TPSA>
43.09

>  <cid>
14283

>  <dipole>
4.36

>  <excitation_energy_1>
5.942

>  <excitation_energy_2>
6.206

>  <excitation_energy_3>
6.354

>  <excitation_energy_4>
6.785

>  <homo_energy>
-6.942

>  <homo_lumo_gap>
7.69

>  <logP>
1.752

>  <lumo_energy>
0.748

>  <melting_point>
70.99

>  <molecular_refractivity>
36.56

>  <oscillator_strength_1>
0.0008

>  <oscillator_strength_2>
0.0118

>  <oscillator_strength_3>
0.0072

>  <oscillator_strength_4>
0.0015

>  <open_babel_can_smiles>
OC(=N)C1CCCCC1

>  <mulliken_charges>
22
1   -0.256355
2   -0.261863
3   -0.2674
4   -0.274928
5   -0.289982
6   -0.187356
7   0.490782
8   -0.59858
9   -0.582075
10   0.12826
11   0.138232
12   0.153203
13   0.137318
14   0.138443
15   0.143471
16   0.123681
17   0.140135
18   0.138158
19   0.144771
20   0.144366
21   0.291329
22   0.406392

>  <lowdin_charges>
22
1   -0.275523
2   -0.27772
3   -0.282448
4   -0.277844
5   -0.28106
6   -0.169755
7   0.12426
8   -0.400262
9   -0.369645
10   0.135218
11   0.148247
12   0.147923
13   0.147329
14   0.148687
15   0.14223
16   0.138791
17   0.143381
18   0.146399
19   0.148123
20   0.153887
21   0.257641
22   0.352139

$$$$

