PCCDB-ID:  7366
public computational chemistry database (PCCDB) project, http://pccdb.org

 24 24  0  0  0  0  0  0  0  0999 V2000
    0.9054   -0.1974   -0.2155 C   0  0  0  0  0  0  0  0  0  0  0  0
    3.2143   -0.3727   -1.2194 C   0  0  0  0  0  0  0  0  0  0  0  0
    2.6273    1.5482    0.2681 C   0  0  0  0  0  0  0  0  0  0  0  0
    3.6873   -2.4329    3.4131 C   0  0  0  0  0  0  0  0  0  0  0  0
    3.1407   -3.0103    2.2651 C   0  0  0  0  0  0  0  0  0  0  0  0
    3.8258   -1.0483    3.4739 C   0  0  0  0  0  0  0  0  0  0  0  0
    2.7408   -2.2078    1.1986 C   0  0  0  0  0  0  0  0  0  0  0  0
    3.4220   -0.2486    2.4006 C   0  0  0  0  0  0  0  0  0  0  0  0
    2.8703   -0.8083    1.2399 C   0  0  0  0  0  0  0  0  0  0  0  0
    2.4133    0.0401    0.0384 C   0  0  0  0  0  0  0  0  0  0  0  0
    0.5631    0.3995   -1.0699 H   0  0  0  0  0  0  0  0  0  0  0  0
    0.3110    0.0889    0.6596 H   0  0  0  0  0  0  0  0  0  0  0  0
    0.6892   -1.2480   -0.4359 H   0  0  0  0  0  0  0  0  0  0  0  0
    2.8864    0.2095   -2.0894 H   0  0  0  0  0  0  0  0  0  0  0  0
    3.0805   -1.4328   -1.4583 H   0  0  0  0  0  0  0  0  0  0  0  0
    4.2865   -0.1958   -1.0761 H   0  0  0  0  0  0  0  0  0  0  0  0
    2.2894    2.1067   -0.6121 H   0  0  0  0  0  0  0  0  0  0  0  0
    3.6839    1.7914    0.4279 H   0  0  0  0  0  0  0  0  0  0  0  0
    2.0576    1.9144    1.1298 H   0  0  0  0  0  0  0  0  0  0  0  0
    4.0002   -3.0557    4.2470 H   0  0  0  0  0  0  0  0  0  0  0  0
    3.0250   -4.0893    2.1988 H   0  0  0  0  0  0  0  0  0  0  0  0
    4.2495   -0.5802    4.3590 H   0  0  0  0  0  0  0  0  0  0  0  0
    2.3204   -2.6846    0.3173 H   0  0  0  0  0  0  0  0  0  0  0  0
    3.5434    0.8259    2.4829 H   0  0  0  0  0  0  0  0  0  0  0  0
  1 10  1  0  0  0  0
  1 12  1  0  0  0  0
  2 16  1  0  0  0  0
  2 10  1  0  0  0  0
  3 18  1  0  0  0  0
  3 19  1  0  0  0  0
  4  6  1  0  0  0  0
  4 20  1  0  0  0  0
  5  4  2  0  0  0  0
  6 22  1  0  0  0  0
  7  9  2  0  0  0  0
  7  5  1  0  0  0  0
  8 24  1  0  0  0  0
  8  6  2  0  0  0  0
  9  8  1  0  0  0  0
 10  3  1  0  0  0  0
 10  9  1  0  0  0  0
 11  1  1  0  0  0  0
 13  1  1  0  0  0  0
 14  2  1  0  0  0  0
 15  2  1  0  0  0  0
 17  3  1  0  0  0  0
 21  5  1  0  0  0  0
 23  7  1  0  0  0  0
M  END
>  <HBA>
0

>  <HBD>
0

>  <TPSA>
0.0

>  <cid>
7366

>  <dipole>
0.3

>  <excitation_energy_1>
5.32

>  <excitation_energy_2>
5.928

>  <excitation_energy_3>
5.947

>  <excitation_energy_4>
6.141

>  <homo_energy>
-6.4

>  <homo_lumo_gap>
6.523

>  <logP>
2.984

>  <lumo_energy>
0.122

>  <melting_point>
12.1

>  <molecular_refractivity>
45.71

>  <oscillator_strength_1>
0.0008

>  <oscillator_strength_2>
0.0275

>  <oscillator_strength_3>
0.0009

>  <oscillator_strength_4>
0.0

>  <open_babel_can_smiles>
CC(c1ccccc1)(C)C

>  <mulliken_charges>
24
1   -0.438207
2   -0.438042
3   -0.457098
4   -0.130171
5   -0.130531
6   -0.130165
7   -0.187279
8   -0.195352
9   0.179042
10   0.017674
11   0.137375
12   0.147289
13   0.142394
14   0.137419
15   0.142538
16   0.147073
17   0.140538
18   0.14536
19   0.145339
20   0.12563
21   0.125799
22   0.125478
23   0.123091
24   0.124806

>  <lowdin_charges>
24
1   -0.439554
2   -0.436604
3   -0.444374
4   -0.163522
5   -0.154372
6   -0.157294
7   -0.16647
8   -0.171526
9   0.001024
10   0.016882
11   0.146979
12   0.152206
13   0.147111
14   0.146845
15   0.147036
16   0.149787
17   0.150787
18   0.148071
19   0.150137
20   0.156857
21   0.153639
22   0.156094
23   0.153814
24   0.156446

$$$$

