PCCDB-ID:  31892
public computational chemistry database (PCCDB) project, http://pccdb.org

 20 20  0  0  0  0  0  0  0  0999 V2000
    0.9198    0.0333    0.0499 C   0  0  0  0  0  0  0  0  0  0  0  0
    7.6063   -0.4830    1.4026 C   0  0  0  0  0  0  0  0  0  0  0  0
    3.1204    1.2830   -0.1256 C   0  0  0  0  0  0  0  0  0  0  0  0
    4.5151    1.3012   -0.1548 C   0  0  0  0  0  0  0  0  0  0  0  0
    3.1743   -1.1032    0.1417 C   0  0  0  0  0  0  0  0  0  0  0  0
    2.4298    0.0768    0.0265 C   0  0  0  0  0  0  0  0  0  0  0  0
    4.5700   -1.0913    0.0920 C   0  0  0  0  0  0  0  0  0  0  0  0
    5.2663    0.1261   -0.0501 C   0  0  0  0  0  0  0  0  0  0  0  0
    5.3000   -2.2432    0.1882 O   0  0  0  0  0  0  0  0  0  0  0  0
    7.0447    0.2015   -0.2041 S   0  0  0  0  0  0  0  0  0  0  0  0
    0.4961    1.0300    0.2069 H   0  0  0  0  0  0  0  0  0  0  0  0
    0.5472   -0.6210    0.8465 H   0  0  0  0  0  0  0  0  0  0  0  0
    0.5179   -0.3503   -0.8972 H   0  0  0  0  0  0  0  0  0  0  0  0
    8.6990   -0.4413    1.3852 H   0  0  0  0  0  0  0  0  0  0  0  0
    7.2829   -1.5190    1.5143 H   0  0  0  0  0  0  0  0  0  0  0  0
    7.2375    0.1230    2.2341 H   0  0  0  0  0  0  0  0  0  0  0  0
    2.5677    2.2151   -0.2089 H   0  0  0  0  0  0  0  0  0  0  0  0
    5.0439    2.2441   -0.2581 H   0  0  0  0  0  0  0  0  0  0  0  0
    2.6580   -2.0559    0.2624 H   0  0  0  0  0  0  0  0  0  0  0  0
    4.6886   -2.9932    0.2567 H   0  0  0  0  0  0  0  0  0  0  0  0
  1 11  1  0  0  0  0
  1 12  1  0  0  0  0
  2 15  1  0  0  0  0
  2 16  1  0  0  0  0
  3  6  1  0  0  0  0
  4  3  2  0  0  0  0
  4  8  1  0  0  0  0
  5 19  1  0  0  0  0
  6  1  1  0  0  0  0
  6  5  2  0  0  0  0
  7  5  1  0  0  0  0
  7  9  1  0  0  0  0
  8  7  2  0  0  0  0
  9 20  1  0  0  0  0
 10  8  1  0  0  0  0
 10  2  1  0  0  0  0
 13  1  1  0  0  0  0
 14  2  1  0  0  0  0
 17  3  1  0  0  0  0
 18  4  1  0  0  0  0
M  END
>  <HBA>
2

>  <HBD>
1

>  <TPSA>
45.53

>  <cid>
31892

>  <dipole>
3.1

>  <excitation_energy_1>
4.403

>  <excitation_energy_2>
4.694

>  <excitation_energy_3>
4.891

>  <excitation_energy_4>
5.117

>  <homo_energy>
-5.603

>  <homo_lumo_gap>
5.331

>  <logP>
2.422

>  <lumo_energy>
-0.272

>  <melting_point>
61.94

>  <molecular_refractivity>
45.15

>  <oscillator_strength_1>
0.0894

>  <oscillator_strength_2>
0.0004

>  <oscillator_strength_3>
0.0004

>  <oscillator_strength_4>
0.0466

>  <open_babel_can_smiles>
CSc1ccc(cc1O)C

>  <mulliken_charges>
20
1   -0.531023
2   -0.588227
3   -0.17663
4   -0.15345
5   -0.238366
6   0.17309
7   0.354774
8   -0.138105
9   -0.631934
10   0.102586
11   0.159262
12   0.15862
13   0.167007
14   0.175845
15   0.200239
16   0.17747
17   0.122185
18   0.147032
19   0.110131
20   0.409495

>  <lowdin_charges>
20
1   -0.442374
2   -0.54361
3   -0.190091
4   -0.144714
5   -0.223045
6   0.014405
7   0.102112
8   -0.166132
9   -0.368429
10   0.140549
11   0.158961
12   0.159872
13   0.163055
14   0.170159
15   0.170656
16   0.163694
17   0.156673
18   0.168655
19   0.150072
20   0.359531

$$$$

