PCCDB-ID:  10541
public computational chemistry database (PCCDB) project, http://pccdb.org

 17 16  0  0  0  0  0  0  0  0999 V2000
    2.6673   -0.5092   -1.0208 C   0  0  0  0  0  0  0  0  0  0  0  0
    0.5149   -0.6801    2.4514 C   0  0  0  0  0  0  0  0  0  0  0  0
    3.9978   -3.2349    2.0750 C   0  0  0  0  0  0  0  0  0  0  0  0
    3.4784   -0.1477    2.7887 O   0  0  0  0  0  0  0  0  0  0  0  0
    3.0486    0.0301    0.2569 O   0  0  0  0  0  0  0  0  0  0  0  0
    1.4835   -1.4299    1.6938 O   0  0  0  0  0  0  0  0  0  0  0  0
    3.7816   -2.1809    1.1197 O   0  0  0  0  0  0  0  0  0  0  0  0
    2.9967   -0.8583    1.5887 P   0  0  0  0  0  0  0  0  0  0  0  0
    2.7017    0.3238   -1.7248 H   0  0  0  0  0  0  0  0  0  0  0  0
    1.6535   -0.9196   -0.9809 H   0  0  0  0  0  0  0  0  0  0  0  0
    3.3702   -1.2878   -1.3287 H   0  0  0  0  0  0  0  0  0  0  0  0
    0.2161    0.2205    1.9044 H   0  0  0  0  0  0  0  0  0  0  0  0
    0.9238   -0.3980    3.4246 H   0  0  0  0  0  0  0  0  0  0  0  0
   -0.3498   -1.3342    2.5777 H   0  0  0  0  0  0  0  0  0  0  0  0
    4.6528   -3.9602    1.5898 H   0  0  0  0  0  0  0  0  0  0  0  0
    3.0469   -3.7099    2.3361 H   0  0  0  0  0  0  0  0  0  0  0  0
    4.4797   -2.8415    2.9746 H   0  0  0  0  0  0  0  0  0  0  0  0
  1 10  1  0  0  0  0
  1  5  1  0  0  0  0
  2 14  1  0  0  0  0
  2 13  1  0  0  0  0
  3 16  1  0  0  0  0
  3 17  1  0  0  0  0
  5  8  1  0  0  0  0
  6  2  1  0  0  0  0
  7  8  1  0  0  0  0
  7  3  1  0  0  0  0
  8  6  1  0  0  0  0
  8  4  2  0  0  0  0
  9  1  1  0  0  0  0
 11  1  1  0  0  0  0
 12  2  1  0  0  0  0
 15  3  1  0  0  0  0
M  END
>  <HBA>
4

>  <HBD>
0

>  <TPSA>
54.57

>  <cid>
10541

>  <dipole>
3.64

>  <excitation_energy_1>
7.23

>  <excitation_energy_2>
7.389

>  <excitation_energy_3>
7.69

>  <excitation_energy_4>
7.732

>  <homo_energy>
-7.725

>  <homo_lumo_gap>
9.222

>  <logP>
1.034

>  <lumo_energy>
1.497

>  <melting_point>
-33.64

>  <molecular_refractivity>
28.45

>  <oscillator_strength_1>
0.0236

>  <oscillator_strength_2>
0.0136

>  <oscillator_strength_3>
0.0118

>  <oscillator_strength_4>
0.0025

>  <open_babel_can_smiles>
COP(=O)(OC)OC

>  <mulliken_charges>
17
1   -0.220822
2   -0.222453
3   -0.220033
4   -0.55191
5   -0.498964
6   -0.544206
7   -0.524771
8   1.228827
9   0.172146
10   0.165598
11   0.176155
12   0.163247
13   0.187815
14   0.166059
15   0.171388
16   0.168659
17   0.183264

>  <lowdin_charges>
17
1   -0.269102
2   -0.271985
3   -0.271613
4   -0.57703
5   -0.382008
6   -0.41001
7   -0.391913
8   1.120079
9   0.164176
10   0.155141
11   0.162246
12   0.154237
13   0.168836
14   0.160399
15   0.164606
16   0.15721
17   0.166732

$$$$

