PCCDB-ID:  20559
public computational chemistry database (PCCDB) project, http://pccdb.org

 20 20  0  0  1  0  0  0  0  0999 V2000
    1.2722   -0.1947    0.0442 C   0  0  0  0  0  0  0  0  0  0  0  0
    3.5568    3.9434   -1.8670 C   0  0  0  0  0  0  0  0  0  0  0  0
    3.5462    2.8453   -2.7267 C   0  0  0  0  0  0  0  0  0  0  0  0
    3.3227    3.7567   -0.5022 C   0  0  0  0  0  0  0  0  0  0  0  0
    3.3040    1.5656   -2.2230 C   0  0  0  0  0  0  0  0  0  0  0  0
    3.0750    2.4796   -0.0015 C   0  0  0  0  0  0  0  0  0  0  0  0
    4.6227   -0.3541    1.3758 C   0  0  0  0  0  0  0  0  0  0  0  0
    2.7517   -0.0253   -0.3365 C   0  0  1  0  0  0  0  0  0  0  0  0
    3.0621    1.3726   -0.8595 C   0  0  0  0  0  0  0  0  0  0  0  0
    3.5805   -0.3727    0.7959 N   0  0  0  0  0  0  0  0  0  0  0  0
    5.9628   -0.4000    2.2374 S   0  0  0  0  0  0  0  0  0  0  0  0
    0.6432    0.0108   -0.8270 H   0  0  0  0  0  0  0  0  0  0  0  0
    0.9953    0.5004    0.8428 H   0  0  0  0  0  0  0  0  0  0  0  0
    1.0797   -1.2160    0.3873 H   0  0  0  0  0  0  0  0  0  0  0  0
    3.7515    4.9393   -2.2552 H   0  0  0  0  0  0  0  0  0  0  0  0
    3.7346    2.9798   -3.7884 H   0  0  0  0  0  0  0  0  0  0  0  0
    3.3355    4.6071    0.1740 H   0  0  0  0  0  0  0  0  0  0  0  0
    3.3046    0.7109   -2.8959 H   0  0  0  0  0  0  0  0  0  0  0  0
    2.9015    2.3400    1.0624 H   0  0  0  0  0  0  0  0  0  0  0  0
    2.9851   -0.7484   -1.1290 H   0  0  0  0  0  0  0  0  0  0  0  0
  1 14  1  0  0  0  0
  1 13  1  0  0  0  0
  2  4  2  0  0  0  0
  3  5  2  0  0  0  0
  3  2  1  0  0  0  0
  4  6  1  0  0  0  0
  4 17  1  0  0  0  0
  5  9  1  0  0  0  0
  6 19  1  0  0  0  0
  7 11  2  0  0  0  0
  8 20  1  6  0  0  0
  8  1  1  0  0  0  0
  8 10  1  0  0  0  0
  9  8  1  0  0  0  0
  9  6  2  0  0  0  0
 10  7  2  0  0  0  0
 12  1  1  0  0  0  0
 15  2  1  0  0  0  0
 16  3  1  0  0  0  0
 18  5  1  0  0  0  0
M  END
>  <HBA>
2

>  <HBD>
0

>  <TPSA>
44.45

>  <cid>
20559

>  <dipole>
3.9

>  <excitation_energy_1>
4.646

>  <excitation_energy_2>
5.069

>  <excitation_energy_3>
5.252

>  <excitation_energy_4>
5.371

>  <homo_energy>
-6.542

>  <homo_lumo_gap>
5.929

>  <logP>
2.85

>  <lumo_energy>
-0.612

>  <melting_point>
55.23

>  <molecular_refractivity>
50.18

>  <oscillator_strength_1>
0.0027

>  <oscillator_strength_2>
0.0207

>  <oscillator_strength_3>
0.0003

>  <oscillator_strength_4>
0.0131

>  <open_babel_can_smiles>
C[C@@H](c1ccccc1)N=C=S

>  <mulliken_charges>
20
1   -0.433944
2   -0.126121
3   -0.127061
4   -0.128906
5   -0.187446
6   -0.173294
7   0.207763
8   -0.078778
9   0.171032
10   -0.331831
11   -0.134046
12   0.160139
13   0.164682
14   0.164273
15   0.135941
16   0.136024
17   0.138263
18   0.13048
19   0.143115
20   0.169717

>  <lowdin_charges>
20
1   -0.440701
2   -0.151758
3   -0.149163
4   -0.149775
5   -0.165782
6   -0.154786
7   -0.043291
8   -0.029507
9   -0.013011
10   -0.10009
11   -0.052797
12   0.162034
13   0.16179
14   0.160623
15   0.160516
16   0.159363
17   0.162651
18   0.158003
19   0.162
20   0.163683

$$$$

