PCCDB-ID:  180
public computational chemistry database (PCCDB) project, http://pccdb.org

 10  9  0  0  0  0  0  0  0  0999 V2000
    1.0017   -0.0243   -0.1181 C   0  0  0  0  0  0  0  0  0  0  0  0
    3.2775    0.0754    1.1920 C   0  0  0  0  0  0  0  0  0  0  0  0
    2.5269   -0.0246   -0.1319 C   0  0  0  0  0  0  0  0  0  0  0  0
    3.1348   -0.1038   -1.1819 O   0  0  0  0  0  0  0  0  0  0  0  0
    0.5742    0.0527    0.8845 H   0  0  0  0  0  0  0  0  0  0  0  0
    0.6413   -0.9437   -0.5933 H   0  0  0  0  0  0  0  0  0  0  0  0
    0.6403    0.8109   -0.7285 H   0  0  0  0  0  0  0  0  0  0  0  0
    2.6204    0.1418    2.0625 H   0  0  0  0  0  0  0  0  0  0  0  0
    3.9301    0.9553    1.1658 H   0  0  0  0  0  0  0  0  0  0  0  0
    3.9287   -0.7995    1.2989 H   0  0  0  0  0  0  0  0  0  0  0  0
  1  5  1  0  0  0  0
  2 10  1  0  0  0  0
  2  8  1  0  0  0  0
  3  1  1  0  0  0  0
  3  2  1  0  0  0  0
  4  3  2  0  0  0  0
  6  1  1  0  0  0  0
  7  1  1  0  0  0  0
  9  2  1  0  0  0  0
M  END
>  <HBA>
1

>  <HBD>
0

>  <TPSA>
17.07

>  <cid>
180

>  <dipole>
2.61

>  <excitation_energy_1>
4.299

>  <excitation_energy_2>
6.181

>  <excitation_energy_3>
7.054

>  <excitation_energy_4>
7.387

>  <homo_energy>
-6.615

>  <homo_lumo_gap>
6.147

>  <logP>
0.595

>  <lumo_energy>
-0.468

>  <melting_point>
-3.18

>  <molecular_refractivity>
16.73

>  <oscillator_strength_1>
0.0

>  <oscillator_strength_2>
0.0529

>  <oscillator_strength_3>
0.0027

>  <oscillator_strength_4>
0.0

>  <open_babel_can_smiles>
CC(=O)C

>  <mulliken_charges>
10
1   -0.523737
2   -0.523639
3   0.434615
4   -0.43064
5   0.1511
6   0.185325
7   0.185312
8   0.151063
9   0.185295
10   0.185307

>  <lowdin_charges>
10
1   -0.481662
2   -0.48138
3   0.172889
4   -0.243023
5   0.155775
6   0.18008
7   0.180522
8   0.156685
9   0.180023
10   0.18009

$$$$

