PCCDB-ID:  15612
public computational chemistry database (PCCDB) project, http://pccdb.org

 35 34  0  0  0  0  0  0  0  0999 V2000
    3.4205    2.2583   -2.1971 C   0  0  0  0  0  0  0  0  0  0  0  0
   -7.3740   -6.1458   -5.4215 C   0  0  0  0  0  0  0  0  0  0  0  0
   -1.3033   -2.4397   -3.1719 C   0  0  0  0  0  0  0  0  0  0  0  0
    0.2166   -2.5004   -2.9729 C   0  0  0  0  0  0  0  0  0  0  0  0
   -1.8956   -3.7385   -3.7341 C   0  0  0  0  0  0  0  0  0  0  0  0
    0.8067   -1.1948   -2.4259 C   0  0  0  0  0  0  0  0  0  0  0  0
   -3.4144   -3.6716   -3.9349 C   0  0  0  0  0  0  0  0  0  0  0  0
    2.3338   -1.2749   -2.2257 C   0  0  0  0  0  0  0  0  0  0  0  0
   -3.9931   -4.9727   -4.4946 C   0  0  0  0  0  0  0  0  0  0  0  0
    2.9065    0.0154   -1.6780 C   0  0  0  0  0  0  0  0  0  0  0  0
   -5.4941   -4.9160   -4.7028 C   0  0  0  0  0  0  0  0  0  0  0  0
    3.2784    0.1973   -0.5389 O   0  0  0  0  0  0  0  0  0  0  0  0
   -6.2056   -3.9606   -4.4796 O   0  0  0  0  0  0  0  0  0  0  0  0
    2.9273    0.9807   -2.6297 O   0  0  0  0  0  0  0  0  0  0  0  0
   -5.9582   -6.0937   -5.1837 O   0  0  0  0  0  0  0  0  0  0  0  0
    3.3700    2.9048   -3.0740 H   0  0  0  0  0  0  0  0  0  0  0  0
    4.4510    2.1726   -1.8418 H   0  0  0  0  0  0  0  0  0  0  0  0
    2.8011    2.6574   -1.3892 H   0  0  0  0  0  0  0  0  0  0  0  0
   -7.5708   -7.1496   -5.7996 H   0  0  0  0  0  0  0  0  0  0  0  0
   -7.6691   -5.3933   -6.1580 H   0  0  0  0  0  0  0  0  0  0  0  0
   -7.9274   -5.9691   -4.4952 H   0  0  0  0  0  0  0  0  0  0  0  0
   -1.5483   -1.6071   -3.8474 H   0  0  0  0  0  0  0  0  0  0  0  0
   -1.7876   -2.2049   -2.2129 H   0  0  0  0  0  0  0  0  0  0  0  0
    0.6998   -2.7425   -3.9310 H   0  0  0  0  0  0  0  0  0  0  0  0
    0.4626   -3.3263   -2.2895 H   0  0  0  0  0  0  0  0  0  0  0  0
   -1.6510   -4.5716   -3.0582 H   0  0  0  0  0  0  0  0  0  0  0  0
   -1.4090   -3.9735   -4.6926 H   0  0  0  0  0  0  0  0  0  0  0  0
    0.3315   -0.9493   -1.4665 H   0  0  0  0  0  0  0  0  0  0  0  0
    0.5786   -0.3686   -3.1109 H   0  0  0  0  0  0  0  0  0  0  0  0
   -3.6666   -2.8459   -4.6118 H   0  0  0  0  0  0  0  0  0  0  0  0
   -3.9078   -3.4378   -2.9832 H   0  0  0  0  0  0  0  0  0  0  0  0
    2.8161   -1.4998   -3.1846 H   0  0  0  0  0  0  0  0  0  0  0  0
    2.5855   -2.0694   -1.5172 H   0  0  0  0  0  0  0  0  0  0  0  0
   -3.7764   -5.8217   -3.8323 H   0  0  0  0  0  0  0  0  0  0  0  0
   -3.5303   -5.2295   -5.4573 H   0  0  0  0  0  0  0  0  0  0  0  0
  1 17  1  0  0  0  0
  1 18  1  0  0  0  0
  2 15  1  0  0  0  0
  2 21  1  0  0  0  0
  3  4  1  0  0  0  0
  3 23  1  0  0  0  0
  4  6  1  0  0  0  0
  4 25  1  0  0  0  0
  5  3  1  0  0  0  0
  5 26  1  0  0  0  0
  6  8  1  0  0  0  0
  6 28  1  0  0  0  0
  7  5  1  0  0  0  0
  7 31  1  0  0  0  0
  8 10  1  0  0  0  0
  8 33  1  0  0  0  0
  9  7  1  0  0  0  0
  9 34  1  0  0  0  0
 10 12  2  0  0  0  0
 11  9  1  0  0  0  0
 11 13  2  0  0  0  0
 14  1  1  0  0  0  0
 14 10  1  0  0  0  0
 15 11  1  0  0  0  0
 16  1  1  0  0  0  0
 19  2  1  0  0  0  0
 20  2  1  0  0  0  0
 22  3  1  0  0  0  0
 24  4  1  0  0  0  0
 27  5  1  0  0  0  0
 29  6  1  0  0  0  0
 30  7  1  0  0  0  0
 32  8  1  0  0  0  0
 35  9  1  0  0  0  0
M  END
>  <HBA>
4

>  <HBD>
0

>  <TPSA>
52.6

>  <cid>
15612

>  <dipole>
2.46

>  <excitation_energy_1>
5.715

>  <excitation_energy_2>
5.85

>  <excitation_energy_3>
6.987

>  <excitation_energy_4>
7.003

>  <homo_energy>
-7.178

>  <homo_lumo_gap>
7.576

>  <logP>
2.063

>  <lumo_energy>
0.397

>  <melting_point>
-5.0

>  <molecular_refractivity>
57.56

>  <oscillator_strength_1>
0.0038

>  <oscillator_strength_2>
0.0006

>  <oscillator_strength_3>
0.0153

>  <oscillator_strength_4>
0.018

>  <open_babel_can_smiles>
COC(=O)CCCCCCCC(=O)OC

>  <mulliken_charges>
35
1   -0.217154
2   -0.217223
3   -0.255331
4   -0.253795
5   -0.257927
6   -0.269214
7   -0.248992
8   -0.330654
9   -0.362617
10   0.59653
11   0.620954
12   -0.47439
13   -0.478272
14   -0.445857
15   -0.45471
16   0.162116
17   0.169573
18   0.168997
19   0.163248
20   0.168973
21   0.16931
22   0.132521
23   0.133572
24   0.130701
25   0.132598
26   0.128565
27   0.127862
28   0.146887
29   0.151739
30   0.149186
31   0.148947
32   0.15908
33   0.164894
34   0.169979
35   0.169905

>  <lowdin_charges>
35
1   -0.278976
2   -0.278172
3   -0.27396
4   -0.274432
5   -0.275119
6   -0.269809
7   -0.271052
8   -0.295994
9   -0.30176
10   0.193246
11   0.197426
12   -0.264278
13   -0.264904
14   -0.197892
15   -0.19935
16   0.159847
17   0.157622
18   0.159578
19   0.159163
20   0.159387
21   0.158985
22   0.141219
23   0.141018
24   0.13914
25   0.14083
26   0.138747
27   0.137671
28   0.147163
29   0.1501
30   0.151407
31   0.15054
32   0.162346
33   0.165277
34   0.167816
35   0.167168

$$$$

