PCCDB-ID:  34224
public computational chemistry database (PCCDB) project, http://pccdb.org

 20 20  0  0  0  0  0  0  0  0999 V2000
    0.8377    0.0221   -0.1742 C   0  0  0  0  0  0  0  0  0  0  0  0
    2.2049   -2.5420   -0.3718 C   0  0  0  0  0  0  0  0  0  0  0  0
    4.4516    1.1013    0.3748 C   0  0  0  0  0  0  0  0  0  0  0  0
    3.0657    1.1191    0.2235 C   0  0  0  0  0  0  0  0  0  0  0  0
    5.1195   -0.1110    0.2824 C   0  0  0  0  0  0  0  0  0  0  0  0
    5.2797   -2.5166   -0.0315 C   0  0  0  0  0  0  0  0  0  0  0  0
    2.3389   -0.0532   -0.0168 C   0  0  0  0  0  0  0  0  0  0  0  0
    3.0117   -1.2909   -0.1120 C   0  0  0  0  0  0  0  0  0  0  0  0
    4.4207   -1.3070    0.0407 C   0  0  0  0  0  0  0  0  0  0  0  0
    4.9493   -3.6720   -0.2278 O   0  0  0  0  0  0  0  0  0  0  0  0
    0.4848    1.0530   -0.0772 H   0  0  0  0  0  0  0  0  0  0  0  0
    0.3187   -0.5818    0.5809 H   0  0  0  0  0  0  0  0  0  0  0  0
    0.5123   -0.3522   -1.1528 H   0  0  0  0  0  0  0  0  0  0  0  0
    1.4554   -2.6887    0.4172 H   0  0  0  0  0  0  0  0  0  0  0  0
    2.8362   -3.4256   -0.4206 H   0  0  0  0  0  0  0  0  0  0  0  0
    1.6495   -2.4545   -1.3150 H   0  0  0  0  0  0  0  0  0  0  0  0
    4.9967    2.0222    0.5610 H   0  0  0  0  0  0  0  0  0  0  0  0
    2.5303    2.0634    0.2917 H   0  0  0  0  0  0  0  0  0  0  0  0
    6.2008   -0.1486    0.3958 H   0  0  0  0  0  0  0  0  0  0  0  0
    6.3573   -2.2790    0.1201 H   0  0  0  0  0  0  0  0  0  0  0  0
  1 11  1  0  0  0  0
  1  7  1  0  0  0  0
  1 12  1  0  0  0  0
  2  8  1  0  0  0  0
  2 14  1  0  0  0  0
  3 17  1  0  0  0  0
  4 18  1  0  0  0  0
  4  3  2  0  0  0  0
  5  3  1  0  0  0  0
  5 19  1  0  0  0  0
  6  9  1  0  0  0  0
  6 20  1  0  0  0  0
  7  4  1  0  0  0  0
  8  7  2  0  0  0  0
  8  9  1  0  0  0  0
  9  5  2  0  0  0  0
 10  6  2  0  0  0  0
 13  1  1  0  0  0  0
 15  2  1  0  0  0  0
 16  2  1  0  0  0  0
M  END
>  <HBA>
1

>  <HBD>
0

>  <TPSA>
17.07

>  <cid>
34224

>  <dipole>
3.17

>  <excitation_energy_1>
3.641

>  <excitation_energy_2>
4.387

>  <excitation_energy_3>
5.077

>  <excitation_energy_4>
5.569

>  <homo_energy>
-6.716

>  <homo_lumo_gap>
5.14

>  <logP>
2.116

>  <lumo_energy>
-1.576

>  <melting_point>
46.76

>  <molecular_refractivity>
41.76

>  <oscillator_strength_1>
0.0002

>  <oscillator_strength_2>
0.0388

>  <oscillator_strength_3>
0.2158

>  <oscillator_strength_4>
0.0001

>  <open_babel_can_smiles>
O=Cc1cccc(c1C)C

>  <mulliken_charges>
20
1   -0.53054
2   -0.557428
3   -0.128288
4   -0.171759
5   -0.192312
6   0.189905
7   0.128209
8   0.092197
9   0.057409
10   -0.412729
11   0.155789
12   0.165786
13   0.165765
14   0.157417
15   0.213535
16   0.157587
17   0.136146
18   0.131301
19   0.138884
20   0.103127

>  <lowdin_charges>
20
1   -0.44156
2   -0.459073
3   -0.16333
4   -0.14483
5   -0.143115
6   0.045881
7   -0.006297
8   0.022437
9   -0.063947
10   -0.231345
11   0.156832
12   0.163339
13   0.161906
14   0.160735
15   0.187161
16   0.160196
17   0.161792
18   0.158548
19   0.158237
20   0.116432

$$$$

