PCCDB-ID:  66948
public computational chemistry database (PCCDB) project, http://pccdb.org

 11 11  0  0  0  0  0  0  0  0999 V2000
    0.9629   -0.0704   -0.0383 C   0  0  0  0  0  0  0  0  0  0  0  0
    3.1449    1.1965    0.1604 C   0  0  0  0  0  0  0  0  0  0  0  0
    4.4012    0.7949    0.4190 C   0  0  0  0  0  0  0  0  0  0  0  0
    2.2816    0.0208    0.1670 C   0  0  0  0  0  0  0  0  0  0  0  0
    4.3866   -0.6722    0.6025 C   0  0  0  0  0  0  0  0  0  0  0  0
    5.2711   -1.4487    0.8465 O   0  0  0  0  0  0  0  0  0  0  0  0
    3.0603   -1.0867    0.4360 O   0  0  0  0  0  0  0  0  0  0  0  0
    0.3834    0.8211   -0.2481 H   0  0  0  0  0  0  0  0  0  0  0  0
    0.4510   -1.0247   -0.0003 H   0  0  0  0  0  0  0  0  0  0  0  0
    2.7851    2.2009   -0.0258 H   0  0  0  0  0  0  0  0  0  0  0  0
    5.3066    1.3807    0.4952 H   0  0  0  0  0  0  0  0  0  0  0  0
  1  9  1  0  0  0  0
  1  4  2  0  0  0  0
  2  4  1  0  0  0  0
  2  3  2  0  0  0  0
  3 11  1  0  0  0  0
  3  5  1  0  0  0  0
  4  7  1  0  0  0  0
  5  6  2  0  0  0  0
  7  5  1  0  0  0  0
  8  1  1  0  0  0  0
 10  2  1  0  0  0  0
M  END
>  <HBA>
2

>  <HBD>
0

>  <TPSA>
26.3

>  <cid>
66948

>  <dipole>
4.4

>  <excitation_energy_1>
4.243

>  <excitation_energy_2>
4.768

>  <excitation_energy_3>
5.649

>  <excitation_energy_4>
6.283

>  <homo_energy>
-6.912

>  <homo_lumo_gap>
4.71

>  <logP>
0.613

>  <lumo_energy>
-2.201

>  <melting_point>
1.73

>  <molecular_refractivity>
24.37

>  <oscillator_strength_1>
0.0

>  <oscillator_strength_2>
0.4024

>  <oscillator_strength_3>
0.0673

>  <oscillator_strength_4>
0.0069

>  <open_babel_can_smiles>
C=C1C=CC(=O)O1

>  <mulliken_charges>
11
1   -0.432332
2   -0.141843
3   -0.190865
4   0.436847
5   0.593164
6   -0.450166
7   -0.498612
8   0.163873
9   0.177759
10   0.169683
11   0.172493

>  <lowdin_charges>
11
1   -0.339674
2   -0.130705
3   -0.188087
4   0.103659
5   0.202123
6   -0.215452
7   -0.159505
8   0.177885
9   0.184691
10   0.179174
11   0.185891

$$$$

