PCCDB-ID:  41401
public computational chemistry database (PCCDB) project, http://pccdb.org

 14 13  0  0  0  0  0  0  0  0999 V2000
    1.1114    0.1315    0.1580 C   0  0  0  0  0  0  0  0  0  0  0  0
    0.2950    0.9043    0.8794 C   0  0  0  0  0  0  0  0  0  0  0  0
    2.6121    0.1381    0.2497 C   0  0  0  0  0  0  0  0  0  0  0  0
   -1.1838    0.7868    0.7233 C   0  0  0  0  0  0  0  0  0  0  0  0
    3.0063    1.0543    1.2437 O   0  0  0  0  0  0  0  0  0  0  0  0
    3.1111   -1.1620    0.4991 O   0  0  0  0  0  0  0  0  0  0  0  0
   -1.7363   -0.0029   -0.0057 O   0  0  0  0  0  0  0  0  0  0  0  0
   -1.9218    1.6515    1.4740 O   0  0  0  0  0  0  0  0  0  0  0  0
    0.6854   -0.5835   -0.5422 H   0  0  0  0  0  0  0  0  0  0  0  0
    0.7100    1.6268    1.5782 H   0  0  0  0  0  0  0  0  0  0  0  0
    3.0442    0.4013   -0.7267 H   0  0  0  0  0  0  0  0  0  0  0  0
    3.9756    1.0250    1.2823 H   0  0  0  0  0  0  0  0  0  0  0  0
    2.6885   -1.4750    1.3176 H   0  0  0  0  0  0  0  0  0  0  0  0
   -1.3376    2.2231    1.9986 H   0  0  0  0  0  0  0  0  0  0  0  0
  1  3  1  0  0  0  0
  1  2  2  0  0  0  0
  2 10  1  0  0  0  0
  3  6  1  0  0  0  0
  3  5  1  0  0  0  0
  4  2  1  0  0  0  0
  4  8  1  0  0  0  0
  5 12  1  0  0  0  0
  6 13  1  0  0  0  0
  7  4  2  0  0  0  0
  8 14  1  0  0  0  0
  9  1  1  0  0  0  0
 11  3  1  0  0  0  0
M  END
>  <HBA>
4

>  <HBD>
3

>  <TPSA>
77.76

>  <cid>
41401

>  <dipole>
4.61

>  <excitation_energy_1>
4.5

>  <excitation_energy_2>
5.565

>  <excitation_energy_3>
5.96

>  <excitation_energy_4>
6.432

>  <homo_energy>
-7.456

>  <homo_lumo_gap>
5.921

>  <logP>
-1.062

>  <lumo_energy>
-1.535

>  <melting_point>
98.95

>  <molecular_refractivity>
24.96

>  <oscillator_strength_1>
0.0001

>  <oscillator_strength_2>
0.0365

>  <oscillator_strength_3>
0.2478

>  <oscillator_strength_4>
0.0488

>  <open_babel_can_smiles>
OC(/C=C/C(=O)O)O

>  <mulliken_charges>
14
1   -0.137953
2   -0.212172
3   0.280011
4   0.604475
5   -0.612071
6   -0.597269
7   -0.452306
8   -0.577544
9   0.187393
10   0.160098
11   0.151509
12   0.402634
13   0.393322
14   0.409873

>  <lowdin_charges>
14
1   -0.129753
2   -0.21757
3   0.090105
4   0.194251
5   -0.449238
6   -0.445585
7   -0.245265
8   -0.356011
9   0.186942
10   0.17018
11   0.144552
12   0.351004
13   0.346949
14   0.359439

$$$$

