PCCDB-ID:  7764
public computational chemistry database (PCCDB) project, http://pccdb.org

 15 14  0  0  0  0  0  0  0  0999 V2000
    3.0648   -1.0079    0.9535 C   0  0  0  0  0  0  0  0  0  0  0  0
    2.6568    0.2099    0.1403 C   0  0  0  0  0  0  0  0  0  0  0  0
    4.6679    0.3205   -2.9743 C   0  0  0  0  0  0  0  0  0  0  0  0
    6.0218    0.7223   -3.3498 C   0  0  0  0  0  0  0  0  0  0  0  0
    4.3723    0.5156   -1.4838 C   0  0  0  0  0  0  0  0  0  0  0  0
    7.0885    1.0300   -3.6837 N   0  0  0  0  0  0  0  0  0  0  0  0
    5.1391    0.9706   -0.6710 O   0  0  0  0  0  0  0  0  0  0  0  0
    3.1161    0.1026   -1.2356 O   0  0  0  0  0  0  0  0  0  0  0  0
    2.6495   -0.9309    1.9647 H   0  0  0  0  0  0  0  0  0  0  0  0
    4.1535   -1.0717    1.0358 H   0  0  0  0  0  0  0  0  0  0  0  0
    2.6868   -1.9281    0.4964 H   0  0  0  0  0  0  0  0  0  0  0  0
    3.0580    1.1309    0.5694 H   0  0  0  0  0  0  0  0  0  0  0  0
    1.5714    0.2920    0.0503 H   0  0  0  0  0  0  0  0  0  0  0  0
    4.5071   -0.7336   -3.2303 H   0  0  0  0  0  0  0  0  0  0  0  0
    3.9343    0.8918   -3.5558 H   0  0  0  0  0  0  0  0  0  0  0  0
  1 10  1  0  0  0  0
  1  9  1  0  0  0  0
  2 12  1  0  0  0  0
  2  1  1  0  0  0  0
  3  5  1  0  0  0  0
  4  3  1  0  0  0  0
  5  8  1  0  0  0  0
  5  7  2  0  0  0  0
  6  4  3  0  0  0  0
  8  2  1  0  0  0  0
 11  1  1  0  0  0  0
 13  2  1  0  0  0  0
 14  3  1  0  0  0  0
 15  3  1  0  0  0  0
M  END
>  <HBA>
3

>  <HBD>
0

>  <TPSA>
50.09

>  <cid>
7764

>  <dipole>
5.46

>  <excitation_energy_1>
5.863

>  <excitation_energy_2>
7.199

>  <excitation_energy_3>
7.546

>  <excitation_energy_4>
7.565

>  <homo_energy>
-8.041

>  <homo_lumo_gap>
7.763

>  <logP>
0.463

>  <lumo_energy>
-0.278

>  <melting_point>
20.44

>  <molecular_refractivity>
27.18

>  <oscillator_strength_1>
0.0007

>  <oscillator_strength_2>
0.0047

>  <oscillator_strength_3>
0.0011

>  <oscillator_strength_4>
0.0521

>  <open_babel_can_smiles>
CCOC(=O)CC#N

>  <mulliken_charges>
15
1   -0.464648
2   -0.050021
3   -0.444988
4   0.387617
5   0.636678
6   -0.458108
7   -0.445972
8   -0.458336
9   0.15873
10   0.180783
11   0.160903
12   0.178679
13   0.161472
14   0.228158
15   0.229051

>  <lowdin_charges>
15
1   -0.452316
2   -0.122208
3   -0.299145
4   -0.007723
5   0.202954
6   -0.104758
7   -0.238349
8   -0.194073
9   0.162995
10   0.165888
11   0.158482
12   0.163183
13   0.154884
14   0.203569
15   0.206617

$$$$

