PCCDB-ID:  2138
public computational chemistry database (PCCDB) project, http://pccdb.org

 25 25  0  0  0  0  0  0  0  0999 V2000
   -0.6171    0.8481    0.6082 C   0  0  0  0  0  0  0  0  0  0  0  0
    1.2898   -0.0542   -0.5596 C   0  0  0  0  0  0  0  0  0  0  0  0
   -1.2352   -0.3987    0.5568 C   0  0  0  0  0  0  0  0  0  0  0  0
    0.6702   -1.3004   -0.6148 C   0  0  0  0  0  0  0  0  0  0  0  0
    1.3451    2.3906    0.0977 C   0  0  0  0  0  0  0  0  0  0  0  0
    0.6502    1.0376    0.0423 C   0  0  0  0  0  0  0  0  0  0  0  0
   -0.6018   -1.4902   -0.0534 C   0  0  0  0  0  0  0  0  0  0  0  0
    2.3747    2.4014    1.2177 C   0  0  0  0  0  0  0  0  0  0  0  0
   -1.2760   -2.8255   -0.0877 C   0  0  0  0  0  0  0  0  0  0  0  0
    1.8013    2.6532    2.6316 C   0  0  0  0  0  0  0  0  0  0  0  0
   -0.9816   -3.5992   -1.2040 N   0  0  0  0  0  0  0  0  0  0  0  0
   -2.0385   -3.3115    0.8249 N   0  0  0  0  0  0  0  0  0  0  0  0
    3.5586    2.2144    1.0563 O   0  0  0  0  0  0  0  0  0  0  0  0
    2.7132    2.4463    3.5918 O   0  0  0  0  0  0  0  0  0  0  0  0
    0.6614    3.0137    2.8327 O   0  0  0  0  0  0  0  0  0  0  0  0
   -1.1195    1.6824    1.0888 H   0  0  0  0  0  0  0  0  0  0  0  0
    2.2823    0.0743   -0.9843 H   0  0  0  0  0  0  0  0  0  0  0  0
   -2.2299   -0.5244    0.9758 H   0  0  0  0  0  0  0  0  0  0  0  0
    1.1808   -2.1419   -1.0731 H   0  0  0  0  0  0  0  0  0  0  0  0
    0.6122    3.1836    0.2673 H   0  0  0  0  0  0  0  0  0  0  0  0
    1.8837    2.5851   -0.8339 H   0  0  0  0  0  0  0  0  0  0  0  0
   -0.9119   -3.1052   -2.0851 H   0  0  0  0  0  0  0  0  0  0  0  0
   -1.5478   -4.4392   -1.2530 H   0  0  0  0  0  0  0  0  0  0  0  0
   -2.0573   -2.6933    1.6378 H   0  0  0  0  0  0  0  0  0  0  0  0
    2.2711    2.6384    4.4410 H   0  0  0  0  0  0  0  0  0  0  0  0
  1 16  1  0  0  0  0
  2  6  1  0  0  0  0
  3  1  1  0  0  0  0
  3 18  1  0  0  0  0
  4  2  2  0  0  0  0
  4  7  1  0  0  0  0
  5 20  1  0  0  0  0
  5  8  1  0  0  0  0
  6  5  1  0  0  0  0
  6  1  2  0  0  0  0
  7  3  2  0  0  0  0
  8 10  1  0  0  0  0
  9  7  1  0  0  0  0
  9 12  1  0  0  0  0
 10 15  2  0  0  0  0
 10 14  1  0  0  0  0
 11  9  2  0  0  0  0
 12 24  1  0  0  0  0
 13  8  2  0  0  0  0
 14 25  1  0  0  0  0
 17  2  1  0  0  0  0
 19  4  1  0  0  0  0
 21  5  1  0  0  0  0
 22 11  1  0  0  0  0
 23 11  1  0  0  0  0
M  RAD  1  12   2
M  END
>  <HBA>
5

>  <HBD>
3

>  <TPSA>
104.24

>  <cid>
2138

>  <dipole>
2.14

>  <excitation_energy_1>
3.079

>  <excitation_energy_2>
3.566

>  <excitation_energy_3>
3.95

>  <excitation_energy_4>
4.034

>  <homo_energy>
-6.395

>  <homo_lumo_gap>
4.035

>  <logP>
0.967

>  <lumo_energy>
-2.359

>  <melting_point>
194.76

>  <molecular_refractivity>
54.26

>  <oscillator_strength_1>
0.0134

>  <oscillator_strength_2>
0.0093

>  <oscillator_strength_3>
0.0073

>  <oscillator_strength_4>
0.0097

>  <open_babel_can_smiles>
OC(=O)C(=O)Cc1ccc(cc1)C(=[NH2])[NH]

>  <mulliken_charges>
25
1   -0.177535
2   -0.172339
3   -0.182181
4   -0.176518
5   -0.4258
6   0.137417
7   0.100293
8   0.409694
9   0.371819
10   0.531266
11   -0.736081
12   -0.619177
13   -0.400911
14   -0.533999
15   -0.449958
16   0.155211
17   0.146909
18   0.144702
19   0.154001
20   0.186362
21   0.180351
22   0.322309
23   0.334656
24   0.280605
25   0.418905

>  <lowdin_charges>
25
1   -0.159298
2   -0.156124
3   -0.150791
4   -0.155447
5   -0.297877
6   -0.001993
7   -0.033515
8   0.139013
9   0.09162
10   0.160897
11   -0.478227
12   -0.433618
13   -0.176665
14   -0.3136
15   -0.24611
16   0.170826
17   0.165042
18   0.164121
19   0.171078
20   0.180192
21   0.175393
22   0.277796
23   0.28509
24   0.25278
25   0.369417

$$$$

