PCCDB-ID:  35453
public computational chemistry database (PCCDB) project, http://pccdb.org

 21 22  0  0  0  0  0  0  0  0999 V2000
    3.5316    0.0059   -1.0296 C   0  0  0  0  0  0  0  0  0  0  0  0
    2.4719    0.0298    0.0744 C   0  0  0  0  0  0  0  0  0  0  0  0
    2.2545    4.5841    0.8159 C   0  0  0  0  0  0  0  0  0  0  0  0
    2.7706    4.9339    2.0673 C   0  0  0  0  0  0  0  0  0  0  0  0
    2.2166    3.2501    0.3845 C   0  0  0  0  0  0  0  0  0  0  0  0
    3.2713    3.9595    2.9448 C   0  0  0  0  0  0  0  0  0  0  0  0
    2.7126    2.2889    1.2566 C   0  0  0  0  0  0  0  0  0  0  0  0
    3.2262    2.6511    2.5067 C   0  0  0  0  0  0  0  0  0  0  0  0
    3.4107    0.4255    2.3507 C   0  0  0  0  0  0  0  0  0  0  0  0
    2.8264    0.9014    1.1878 N   0  0  0  0  0  0  0  0  0  0  0  0
    3.6786   -0.7118    2.6483 O   0  0  0  0  0  0  0  0  0  0  0  0
    3.6499    1.5224    3.1731 O   0  0  0  0  0  0  0  0  0  0  0  0
    3.2100   -0.6545   -1.8425 H   0  0  0  0  0  0  0  0  0  0  0  0
    4.4830   -0.3685   -0.6393 H   0  0  0  0  0  0  0  0  0  0  0  0
    3.6984    1.0048   -1.4465 H   0  0  0  0  0  0  0  0  0  0  0  0
    2.3377   -0.9679    0.4998 H   0  0  0  0  0  0  0  0  0  0  0  0
    1.5031    0.3613   -0.3162 H   0  0  0  0  0  0  0  0  0  0  0  0
    1.8759    5.3608    0.1580 H   0  0  0  0  0  0  0  0  0  0  0  0
    2.7868    5.9767    2.3689 H   0  0  0  0  0  0  0  0  0  0  0  0
    1.8147    2.9859   -0.5885 H   0  0  0  0  0  0  0  0  0  0  0  0
    3.6748    4.2123    3.9193 H   0  0  0  0  0  0  0  0  0  0  0  0
  1 14  1  0  0  0  0
  1  2  1  0  0  0  0
  2 16  1  0  0  0  0
  2 10  1  0  0  0  0
  3  4  1  0  0  0  0
  4 19  1  0  0  0  0
  4  6  2  0  0  0  0
  5  3  2  0  0  0  0
  5  7  1  0  0  0  0
  6 21  1  0  0  0  0
  7  8  2  0  0  0  0
  8  6  1  0  0  0  0
  8 12  1  0  0  0  0
  9 11  2  0  0  0  0
  9 12  1  0  0  0  0
 10  7  1  0  0  0  0
 10  9  1  0  0  0  0
 13  1  1  0  0  0  0
 15  1  1  0  0  0  0
 17  2  1  0  0  0  0
 18  3  1  0  0  0  0
 20  5  1  0  0  0  0
M  END
>  <HBA>
3

>  <HBD>
0

>  <TPSA>
35.14

>  <cid>
35453

>  <dipole>
4.18

>  <excitation_energy_1>
4.858

>  <excitation_energy_2>
5.363

>  <excitation_energy_3>
5.46

>  <excitation_energy_4>
5.796

>  <homo_energy>
-5.992

>  <homo_lumo_gap>
5.616

>  <logP>
1.614

>  <lumo_energy>
-0.376

>  <melting_point>
84.83

>  <molecular_refractivity>
46.54

>  <oscillator_strength_1>
0.1003

>  <oscillator_strength_2>
0.0452

>  <oscillator_strength_3>
0.0315

>  <oscillator_strength_4>
0.0116

>  <open_babel_can_smiles>
CCn1c(=O)oc2c1cccc2

>  <mulliken_charges>
21
1   -0.448213
2   -0.156506
3   -0.145705
4   -0.142515
5   -0.17376
6   -0.189585
7   0.351868
8   0.318029
9   0.767725
10   -0.570063
11   -0.497295
12   -0.520478
13   0.15667
14   0.174087
15   0.157878
16   0.192222
17   0.159258
18   0.135247
19   0.136564
20   0.140448
21   0.154121

>  <lowdin_charges>
21
1   -0.45095
2   -0.188045
3   -0.158668
4   -0.162094
5   -0.187756
6   -0.168713
7   0.02527
8   0.078272
9   0.208575
10   -0.067936
11   -0.265253
12   -0.136551
13   0.160653
14   0.164513
15   0.154885
16   0.176066
17   0.154232
18   0.163261
19   0.161759
20   0.16423
21   0.174249

$$$$

