PCCDB-ID:  17709
public computational chemistry database (PCCDB) project, http://pccdb.org

 27 28  0  0  0  0  0  0  0  0999 V2000
    2.1583    0.1271    2.3773 C   0  0  0  0  0  0  0  0  0  0  0  0
    3.4833    0.0946    1.9431 C   0  0  0  0  0  0  0  0  0  0  0  0
    1.2366   -0.7718    1.8328 C   0  0  0  0  0  0  0  0  0  0  0  0
    7.1293   -3.9679   -1.3548 C   0  0  0  0  0  0  0  0  0  0  0  0
    6.5920   -4.1323   -0.0755 C   0  0  0  0  0  0  0  0  0  0  0  0
    3.8976   -0.8229    0.9742 C   0  0  0  0  0  0  0  0  0  0  0  0
    1.6337   -1.6953    0.8691 C   0  0  0  0  0  0  0  0  0  0  0  0
    6.3819   -3.3417   -2.3475 C   0  0  0  0  0  0  0  0  0  0  0  0
    5.3076   -3.6663    0.1973 C   0  0  0  0  0  0  0  0  0  0  0  0
    3.7000   -1.2040   -3.0145 C   0  0  0  0  0  0  0  0  0  0  0  0
    2.9657   -1.7200    0.4429 C   0  0  0  0  0  0  0  0  0  0  0  0
    5.0987   -2.8322   -2.0879 C   0  0  0  0  0  0  0  0  0  0  0  0
    4.5716   -3.0124   -0.7923 C   0  0  0  0  0  0  0  0  0  0  0  0
    4.3896   -2.2610   -3.1582 N   0  0  0  0  0  0  0  0  0  0  0  0
    2.9863   -0.6907   -4.0307 O   0  0  0  0  0  0  0  0  0  0  0  0
    3.2599   -2.6301   -0.5521 O   0  0  0  0  0  0  0  0  0  0  0  0
    1.8460    0.8437    3.1312 H   0  0  0  0  0  0  0  0  0  0  0  0
    4.2091    0.7902    2.3562 H   0  0  0  0  0  0  0  0  0  0  0  0
    0.2008   -0.7572    2.1615 H   0  0  0  0  0  0  0  0  0  0  0  0
    8.1245   -4.3392   -1.5824 H   0  0  0  0  0  0  0  0  0  0  0  0
    7.1606   -4.6346    0.7018 H   0  0  0  0  0  0  0  0  0  0  0  0
    4.9301   -0.8469    0.6430 H   0  0  0  0  0  0  0  0  0  0  0  0
    0.9330   -2.4013    0.4347 H   0  0  0  0  0  0  0  0  0  0  0  0
    6.7745   -3.2247   -3.3530 H   0  0  0  0  0  0  0  0  0  0  0  0
    4.8591   -3.8034    1.1767 H   0  0  0  0  0  0  0  0  0  0  0  0
    3.6063   -0.5851   -2.1211 H   0  0  0  0  0  0  0  0  0  0  0  0
    3.1140   -1.2961   -4.7868 H   0  0  0  0  0  0  0  0  0  0  0  0
  1 17  1  0  0  0  0
  2 18  1  0  0  0  0
  2  1  1  0  0  0  0
  3 19  1  0  0  0  0
  3  1  2  0  0  0  0
  4  5  2  0  0  0  0
  5  9  1  0  0  0  0
  5 21  1  0  0  0  0
  6  2  2  0  0  0  0
  7  3  1  0  0  0  0
  8 12  2  0  0  0  0
  8  4  1  0  0  0  0
  9 25  1  0  0  0  0
 10 26  1  0  0  0  0
 11  7  2  0  0  0  0
 11  6  1  0  0  0  0
 12 13  1  0  0  0  0
 13 16  1  0  0  0  0
 13  9  2  0  0  0  0
 14 10  2  0  0  0  0
 14 12  1  0  0  0  0
 15 10  1  0  0  0  0
 16 11  1  0  0  0  0
 20  4  1  0  0  0  0
 22  6  1  0  0  0  0
 23  7  1  0  0  0  0
 24  8  1  0  0  0  0
 27 15  1  0  0  0  0
M  END
>  <HBA>
3

>  <HBD>
1

>  <TPSA>
38.33

>  <cid>
17709

>  <dipole>
1.03

>  <excitation_energy_1>
4.534

>  <excitation_energy_2>
4.716

>  <excitation_energy_3>
4.951

>  <excitation_energy_4>
5.1

>  <homo_energy>
-5.84

>  <homo_lumo_gap>
5.342

>  <logP>
3.756

>  <lumo_energy>
-0.498

>  <melting_point>
97.7

>  <molecular_refractivity>
62.85

>  <oscillator_strength_1>
0.0513

>  <oscillator_strength_2>
0.0476

>  <oscillator_strength_3>
0.0386

>  <oscillator_strength_4>
0.1815

>  <open_babel_can_smiles>
O/C=N/c1ccccc1Oc1ccccc1

>  <mulliken_charges>
27
1   -0.12928
2   -0.137693
3   -0.136331
4   -0.132111
5   -0.139762
6   -0.186163
7   -0.173207
8   -0.165245
9   -0.163303
10   0.302109
11   0.347582
12   0.232223
13   0.3051
14   -0.505964
15   -0.549736
16   -0.582718
17   0.129219
18   0.134394
19   0.134458
20   0.131271
21   0.132959
22   0.149204
23   0.143426
24   0.137458
25   0.146712
26   0.165619
27   0.409779

>  <lowdin_charges>
27
1   -0.174463
2   -0.146805
3   -0.143958
4   -0.158935
5   -0.162577
6   -0.206332
7   -0.183376
8   -0.160972
9   -0.174083
10   0.037365
11   0.101242
12   0.026721
13   0.073145
14   -0.206092
15   -0.343469
16   -0.167386
17   0.15934
18   0.161117
19   0.159191
20   0.159103
21   0.161492
22   0.168843
23   0.170107
24   0.164965
25   0.169047
26   0.156885
27   0.359886

$$$$

