PCCDB-ID:  38364
public computational chemistry database (PCCDB) project, http://pccdb.org

 30 29  0  0  1  0  0  0  0  0999 V2000
    4.9041    2.6357    0.3005 C   0  0  0  0  0  0  0  0  0  0  0  0
    4.8116   -8.0922    1.2089 C   0  0  0  0  0  0  0  0  0  0  0  0
    4.5083    1.1850    0.0070 C   0  0  0  0  0  0  0  0  0  0  0  0
    4.9710    0.2035    1.0909 C   0  0  0  0  0  0  0  0  0  0  0  0
    4.5706   -1.2488    0.8075 C   0  0  0  0  0  0  0  0  0  0  0  0
    4.6029   -3.6767    1.5789 C   0  0  0  0  0  0  0  0  0  0  0  0
    5.1262   -4.6731    2.6095 C   0  0  0  0  0  0  0  0  0  0  0  0
    5.3932   -6.7119    1.4110 C   0  0  0  0  0  0  0  0  0  0  0  0
    5.0954   -2.2470    1.8493 C   0  0  1  0  0  0  0  0  0  0  0  0
    6.3624   -6.2693    0.8317 O   0  0  0  0  0  0  0  0  0  0  0  0
    6.5234   -2.2049    1.9501 O   0  0  0  0  0  0  0  0  0  0  0  0
    4.6748   -6.0187    2.3245 O   0  0  0  0  0  0  0  0  0  0  0  0
    4.5663    3.3116   -0.4935 H   0  0  0  0  0  0  0  0  0  0  0  0
    5.9928    2.7388    0.3861 H   0  0  0  0  0  0  0  0  0  0  0  0
    4.4649    2.9837    1.2435 H   0  0  0  0  0  0  0  0  0  0  0  0
    5.4880   -8.6847    0.5918 H   0  0  0  0  0  0  0  0  0  0  0  0
    3.8395   -8.0128    0.7092 H   0  0  0  0  0  0  0  0  0  0  0  0
    4.6447   -8.5845    2.1715 H   0  0  0  0  0  0  0  0  0  0  0  0
    4.9299    0.8804   -0.9618 H   0  0  0  0  0  0  0  0  0  0  0  0
    3.4163    1.1187   -0.1047 H   0  0  0  0  0  0  0  0  0  0  0  0
    4.5524    0.5101    2.0612 H   0  0  0  0  0  0  0  0  0  0  0  0
    6.0613    0.2568    1.2009 H   0  0  0  0  0  0  0  0  0  0  0  0
    4.9426   -1.5512   -0.1847 H   0  0  0  0  0  0  0  0  0  0  0  0
    3.4753   -1.3312    0.7580 H   0  0  0  0  0  0  0  0  0  0  0  0
    3.5056   -3.6942    1.5723 H   0  0  0  0  0  0  0  0  0  0  0  0
    4.9375   -3.9913    0.5814 H   0  0  0  0  0  0  0  0  0  0  0  0
    4.7326   -4.4573    3.6065 H   0  0  0  0  0  0  0  0  0  0  0  0
    6.2162   -4.6556    2.6412 H   0  0  0  0  0  0  0  0  0  0  0  0
    4.7533   -1.9308    2.8442 H   0  0  0  0  0  0  0  0  0  0  0  0
    6.8828   -2.5297    1.1072 H   0  0  0  0  0  0  0  0  0  0  0  0
  1 14  1  0  0  0  0
  1 15  1  0  0  0  0
  2  8  1  0  0  0  0
  2 18  1  0  0  0  0
  3  1  1  0  0  0  0
  3  4  1  0  0  0  0
  4 22  1  0  0  0  0
  4 21  1  0  0  0  0
  5  4  1  0  0  0  0
  5  9  1  0  0  0  0
  6  9  1  0  0  0  0
  6  7  1  0  0  0  0
  7 28  1  0  0  0  0
  7 27  1  0  0  0  0
  8 12  1  0  0  0  0
  9 11  1  0  0  0  0
  9 29  1  1  0  0  0
 10  8  2  0  0  0  0
 12  7  1  0  0  0  0
 13  1  1  0  0  0  0
 16  2  1  0  0  0  0
 17  2  1  0  0  0  0
 19  3  1  0  0  0  0
 20  3  1  0  0  0  0
 23  5  1  0  0  0  0
 24  5  1  0  0  0  0
 25  6  1  0  0  0  0
 26  6  1  0  0  0  0
 30 11  1  0  0  0  0
M  END
>  <HBA>
3

>  <HBD>
1

>  <TPSA>
46.53

>  <cid>
38364

>  <dipole>
2.16

>  <excitation_energy_1>
5.802

>  <excitation_energy_2>
6.681

>  <excitation_energy_3>
6.89

>  <excitation_energy_4>
7.006

>  <homo_energy>
-7.178

>  <homo_lumo_gap>
7.559

>  <logP>
1.491

>  <lumo_energy>
0.381

>  <melting_point>
2.5

>  <molecular_refractivity>
47.82

>  <oscillator_strength_1>
0.001

>  <oscillator_strength_2>
0.0272

>  <oscillator_strength_3>
0.0086

>  <oscillator_strength_4>
0.0417

>  <open_babel_can_smiles>
CCCC[C@@H](CCOC(=O)C)O

>  <mulliken_charges>
30
1   -0.441142
2   -0.523368
3   -0.248277
4   -0.246094
5   -0.271017
6   -0.305794
7   -0.03868
8   0.601757
9   0.128555
10   -0.474943
11   -0.621399
12   -0.456538
13   0.14139
14   0.143521
15   0.141733
16   0.18188
17   0.181835
18   0.180551
19   0.129147
20   0.128163
21   0.126261
22   0.147657
23   0.120629
24   0.129647
25   0.142498
26   0.150786
27   0.149178
28   0.178929
29   0.132792
30   0.39034

>  <lowdin_charges>
30
1   -0.443399
2   -0.465881
3   -0.269593
4   -0.274134
5   -0.28699
6   -0.303021
7   -0.129035
8   0.199907
9   0.001926
10   -0.273046
11   -0.463118
12   -0.197944
13   0.150031
14   0.145572
15   0.146614
16   0.176763
17   0.178022
18   0.176295
19   0.1378
20   0.135192
21   0.137998
22   0.146354
23   0.135713
24   0.141949
25   0.149126
26   0.151543
27   0.151513
28   0.161121
29   0.139953
30   0.342768

$$$$

