PCCDB-ID:  20931
public computational chemistry database (PCCDB) project, http://pccdb.org

 22 21  0  0  0  0  0  0  0  0999 V2000
    6.9128    1.4138    1.7346 C   0  0  0  0  0  0  0  0  0  0  0  0
    6.7301   -1.7968   -1.1181 C   0  0  0  0  0  0  0  0  0  0  0  0
    8.1544   -2.1879   -1.5538 C   0  0  0  0  0  0  0  0  0  0  0  0
    6.3104   -0.3427   -1.4669 C   0  0  0  0  0  0  0  0  0  0  0  0
    9.2963   -1.5554   -0.7461 C   0  0  0  0  0  0  0  0  0  0  0  0
    5.9682    0.5130   -0.2529 C   0  0  0  0  0  0  0  0  0  0  0  0
    9.4174   -0.1495   -0.8971 O   0  0  0  0  0  0  0  0  0  0  0  0
    7.1213    0.6262    0.5780 O   0  0  0  0  0  0  0  0  0  0  0  0
    7.8540    1.4296    2.2893 H   0  0  0  0  0  0  0  0  0  0  0  0
    6.1253    0.9845    2.3723 H   0  0  0  0  0  0  0  0  0  0  0  0
    6.6302    2.4452    1.4741 H   0  0  0  0  0  0  0  0  0  0  0  0
    6.6368   -1.9572   -0.0350 H   0  0  0  0  0  0  0  0  0  0  0  0
    6.0248   -2.4943   -1.5864 H   0  0  0  0  0  0  0  0  0  0  0  0
    8.2961   -1.9410   -2.6150 H   0  0  0  0  0  0  0  0  0  0  0  0
    8.2587   -3.2799   -1.4706 H   0  0  0  0  0  0  0  0  0  0  0  0
    5.4257   -0.3458   -2.1160 H   0  0  0  0  0  0  0  0  0  0  0  0
    7.1073    0.1564   -2.0279 H   0  0  0  0  0  0  0  0  0  0  0  0
   10.2471   -1.9825   -1.0878 H   0  0  0  0  0  0  0  0  0  0  0  0
    9.1848   -1.8298    0.3168 H   0  0  0  0  0  0  0  0  0  0  0  0
    5.1474    0.0591    0.3273 H   0  0  0  0  0  0  0  0  0  0  0  0
    5.6383    1.5172   -0.5659 H   0  0  0  0  0  0  0  0  0  0  0  0
    8.7239    0.2591   -0.3464 H   0  0  0  0  0  0  0  0  0  0  0  0
  1  9  1  0  0  0  0
  1 10  1  0  0  0  0
  2 12  1  0  0  0  0
  3 15  1  0  0  0  0
  3  2  1  0  0  0  0
  3  5  1  0  0  0  0
  4  2  1  0  0  0  0
  4  6  1  0  0  0  0
  5 19  1  0  0  0  0
  6 20  1  0  0  0  0
  6  8  1  0  0  0  0
  7  5  1  0  0  0  0
  7 22  1  0  0  0  0
  8  1  1  0  0  0  0
 11  1  1  0  0  0  0
 13  2  1  0  0  0  0
 14  3  1  0  0  0  0
 16  4  1  0  0  0  0
 17  4  1  0  0  0  0
 18  5  1  0  0  0  0
 21  6  1  0  0  0  0
M  END
>  <HBA>
2

>  <HBD>
1

>  <TPSA>
29.46

>  <cid>
20931

>  <dipole>
3.14

>  <excitation_energy_1>
6.255

>  <excitation_energy_2>
6.577

>  <excitation_energy_3>
6.62

>  <excitation_energy_4>
6.783

>  <homo_energy>
-6.449

>  <homo_lumo_gap>
8.52

>  <logP>
0.795

>  <lumo_energy>
2.071

>  <melting_point>
-16.89

>  <molecular_refractivity>
33.2

>  <oscillator_strength_1>
0.0026

>  <oscillator_strength_2>
0.0143

>  <oscillator_strength_3>
0.008

>  <oscillator_strength_4>
0.0282

>  <open_babel_can_smiles>
OCCCCCOC

>  <mulliken_charges>
22
1   -0.195142
2   -0.26463
3   -0.268081
4   -0.296818
5   -0.026341
6   -0.021498
7   -0.654286
8   -0.475985
9   0.167078
10   0.139141
11   0.140248
12   0.138684
13   0.132609
14   0.138157
15   0.120569
16   0.136994
17   0.171404
18   0.131125
19   0.109422
20   0.12548
21   0.126692
22   0.42518

>  <lowdin_charges>
22
1   -0.27839
2   -0.281909
3   -0.288797
4   -0.295551
5   -0.131905
6   -0.129671
7   -0.496479
8   -0.273383
9   0.160147
10   0.138851
11   0.13652
12   0.141011
13   0.145497
14   0.141948
15   0.139726
16   0.150209
17   0.161931
18   0.139304
19   0.119451
20   0.129498
21   0.130969
22   0.341024

$$$$

