PCCDB-ID:  20765
public computational chemistry database (PCCDB) project, http://pccdb.org

 15 14  0  0  0  0  0  0  0  0999 V2000
    1.1558    0.0150    0.2732 C   0  0  0  0  0  0  0  0  0  0  0  0
    5.0977   -1.5539   -1.7792 C   0  0  0  0  0  0  0  0  0  0  0  0
    0.5351    0.9855    1.1774 C   0  0  0  0  0  0  0  0  0  0  0  0
    6.5431   -1.4007   -1.9582 C   0  0  0  0  0  0  0  0  0  0  0  0
    2.4766    0.0663    0.0491 C   0  0  0  0  0  0  0  0  0  0  0  0
    4.4353   -0.7116   -0.9735 C   0  0  0  0  0  0  0  0  0  0  0  0
   -0.6527    1.0156    1.4394 O   0  0  0  0  0  0  0  0  0  0  0  0
    7.2253   -2.1161   -2.6674 O   0  0  0  0  0  0  0  0  0  0  0  0
    3.0952   -0.8151   -0.7787 O   0  0  0  0  0  0  0  0  0  0  0  0
    0.5269   -0.7324   -0.2003 H   0  0  0  0  0  0  0  0  0  0  0  0
    4.5886   -2.3530   -2.3091 H   0  0  0  0  0  0  0  0  0  0  0  0
    1.2379    1.7225    1.6298 H   0  0  0  0  0  0  0  0  0  0  0  0
    7.0005   -0.5603   -1.3871 H   0  0  0  0  0  0  0  0  0  0  0  0
    3.1235    0.8106    0.5140 H   0  0  0  0  0  0  0  0  0  0  0  0
    4.9296    0.0958   -0.4327 H   0  0  0  0  0  0  0  0  0  0  0  0
  1  3  1  0  0  0  0
  2  6  2  0  0  0  0
  3  7  2  0  0  0  0
  3 12  1  0  0  0  0
  4  2  1  0  0  0  0
  4 13  1  0  0  0  0
  5  1  2  0  0  0  0
  5 14  1  0  0  0  0
  6  9  1  0  0  0  0
  6 15  1  0  0  0  0
  8  4  2  0  0  0  0
  9  5  1  0  0  0  0
 10  1  1  0  0  0  0
 11  2  1  0  0  0  0
M  END
>  <HBA>
3

>  <HBD>
0

>  <TPSA>
43.37

>  <cid>
20765

>  <dipole>
2.25

>  <excitation_energy_1>
3.672

>  <excitation_energy_2>
3.705

>  <excitation_energy_3>
4.712

>  <excitation_energy_4>
5.021

>  <homo_energy>
-7.127

>  <homo_lumo_gap>
4.936

>  <logP>
0.428

>  <lumo_energy>
-2.191

>  <melting_point>
47.52

>  <molecular_refractivity>
31.49

>  <oscillator_strength_1>
0.0001

>  <oscillator_strength_2>
0.0

>  <oscillator_strength_3>
0.9333

>  <oscillator_strength_4>
0.0

>  <open_babel_can_smiles>
O=C/C=C/O/C=C/C=O

>  <mulliken_charges>
15
1   -0.209178
2   -0.209142
3   0.235654
4   0.235582
5   0.158105
6   0.158082
7   -0.413684
8   -0.413666
9   -0.420868
10   0.176222
11   0.176238
12   0.099173
13   0.099203
14   0.164137
15   0.164143

>  <lowdin_charges>
15
1   -0.217503
2   -0.219439
3   0.03884
4   0.042194
5   -0.012868
6   -0.009152
7   -0.22572
8   -0.226774
9   -0.096195
10   0.187247
11   0.187029
12   0.114615
13   0.113629
14   0.162248
15   0.161848

$$$$

