PCCDB-ID:  307
public computational chemistry database (PCCDB) project, http://pccdb.org

 18 18  0  0  0  0  0  0  0  0999 V2000
   -1.6424   -0.0120   -0.0612 C   0  0  0  0  0  0  0  0  0  0  0  0
   -0.9463    1.1964    0.0505 C   0  0  0  0  0  0  0  0  0  0  0  0
   -0.9383   -1.2164   -0.0918 C   0  0  0  0  0  0  0  0  0  0  0  0
    3.4961    0.9683    0.3046 C   0  0  0  0  0  0  0  0  0  0  0  0
    0.4418    1.2022    0.1314 C   0  0  0  0  0  0  0  0  0  0  0  0
    0.4524   -1.2106   -0.0111 C   0  0  0  0  0  0  0  0  0  0  0  0
    2.6270   -0.0571    0.1846 C   0  0  0  0  0  0  0  0  0  0  0  0
    4.9385    0.7206    0.3734 C   0  0  0  0  0  0  0  0  0  0  0  0
    1.1683   -0.0046    0.1027 C   0  0  0  0  0  0  0  0  0  0  0  0
    5.7847    1.5908    0.4788 O   0  0  0  0  0  0  0  0  0  0  0  0
   -2.7270   -0.0116   -0.1246 H   0  0  0  0  0  0  0  0  0  0  0  0
   -1.4905    2.1364    0.0739 H   0  0  0  0  0  0  0  0  0  0  0  0
   -1.4713   -2.1592   -0.1782 H   0  0  0  0  0  0  0  0  0  0  0  0
    3.1847    2.0084    0.3562 H   0  0  0  0  0  0  0  0  0  0  0  0
    0.9679    2.1480    0.2173 H   0  0  0  0  0  0  0  0  0  0  0  0
    0.9993   -2.1503   -0.0349 H   0  0  0  0  0  0  0  0  0  0  0  0
    3.0511   -1.0623    0.1430 H   0  0  0  0  0  0  0  0  0  0  0  0
    5.2278   -0.3545    0.3205 H   0  0  0  0  0  0  0  0  0  0  0  0
  1  2  1  0  0  0  0
  2 12  1  0  0  0  0
  2  5  2  0  0  0  0
  3  1  2  0  0  0  0
  3  6  1  0  0  0  0
  4 14  1  0  0  0  0
  4  8  1  0  0  0  0
  5 15  1  0  0  0  0
  6  9  2  0  0  0  0
  7  4  2  0  0  0  0
  8 10  2  0  0  0  0
  9  5  1  0  0  0  0
  9  7  1  0  0  0  0
 11  1  1  0  0  0  0
 13  3  1  0  0  0  0
 16  6  1  0  0  0  0
 17  7  1  0  0  0  0
 18  8  1  0  0  0  0
M  END
>  <HBA>
1

>  <HBD>
0

>  <TPSA>
17.07

>  <cid>
307

>  <dipole>
4.56

>  <excitation_energy_1>
3.399

>  <excitation_energy_2>
4.34

>  <excitation_energy_3>
4.42

>  <excitation_energy_4>
5.493

>  <homo_energy>
-6.577

>  <homo_lumo_gap>
4.49

>  <logP>
1.899

>  <lumo_energy>
-2.087

>  <melting_point>
57.9

>  <molecular_refractivity>
41.54

>  <oscillator_strength_1>
0.0001

>  <oscillator_strength_2>
0.6488

>  <oscillator_strength_3>
0.0609

>  <oscillator_strength_4>
0.1013

>  <open_babel_can_smiles>
O=C/C=C/c1ccccc1

>  <mulliken_charges>
18
1   -0.122824
2   -0.130397
3   -0.130075
4   -0.159673
5   -0.170338
6   -0.186495
7   -0.167172
8   0.233955
9   0.167599
10   -0.422675
11   0.140107
12   0.140631
13   0.13968
14   0.150532
15   0.141711
16   0.137763
17   0.141397
18   0.096274

>  <lowdin_charges>
18
1   -0.140497
2   -0.150989
3   -0.153357
4   -0.196099
5   -0.143583
6   -0.149141
7   -0.110784
8   0.042494
9   -0.008882
10   -0.235984
11   0.16089
12   0.163225
13   0.162961
14   0.16618
15   0.163623
16   0.160781
17   0.159501
18   0.109659

$$$$

