PCCDB-ID:  6764
public computational chemistry database (PCCDB) project, http://pccdb.org

 22 24  0  0  0  0  0  0  0  0999 V2000
    2.9011   -1.4735   -0.0282 C   0  0  0  0  0  0  0  0  0  0  0  0
   -2.8532   -1.5852    0.0275 C   0  0  0  0  0  0  0  0  0  0  0  0
    1.5163   -1.5563   -0.0281 C   0  0  0  0  0  0  0  0  0  0  0  0
   -1.4663   -1.6140    0.0290 C   0  0  0  0  0  0  0  0  0  0  0  0
    3.4968   -0.2075   -0.0023 C   0  0  0  0  0  0  0  0  0  0  0  0
   -3.4976   -0.3433   -0.0007 C   0  0  0  0  0  0  0  0  0  0  0  0
    0.7431   -0.3826   -0.0028 C   0  0  0  0  0  0  0  0  0  0  0  0
   -0.7392   -0.4113    0.0027 C   0  0  0  0  0  0  0  0  0  0  0  0
    1.4561    0.8381    0.0186 C   0  0  0  0  0  0  0  0  0  0  0  0
   -1.4991    0.7807   -0.0204 C   0  0  0  0  0  0  0  0  0  0  0  0
    0.7266    2.1502    0.0392 C   0  0  0  0  0  0  0  0  0  0  0  0
   -0.8211    2.1203   -0.0411 C   0  0  0  0  0  0  0  0  0  0  0  0
    2.7947    0.9212    0.0205 N   0  0  0  0  0  0  0  0  0  0  0  0
   -2.8399    0.8118   -0.0236 N   0  0  0  0  0  0  0  0  0  0  0  0
    1.2946    3.2177    0.1118 O   0  0  0  0  0  0  0  0  0  0  0  0
   -1.4302    3.1649   -0.1130 O   0  0  0  0  0  0  0  0  0  0  0  0
    3.5123   -2.3708   -0.0483 H   0  0  0  0  0  0  0  0  0  0  0  0
   -3.4291   -2.5054    0.0474 H   0  0  0  0  0  0  0  0  0  0  0  0
    1.0460   -2.5332   -0.0503 H   0  0  0  0  0  0  0  0  0  0  0  0
   -0.9584   -2.5719    0.0547 H   0  0  0  0  0  0  0  0  0  0  0  0
    4.5802   -0.1032   -0.0006 H   0  0  0  0  0  0  0  0  0  0  0  0
   -4.5842   -0.2811   -0.0033 H   0  0  0  0  0  0  0  0  0  0  0  0
  1  3  2  0  0  0  0
  1  5  1  0  0  0  0
  2  4  1  0  0  0  0
  2 18  1  0  0  0  0
  3  7  1  0  0  0  0
  4 20  1  0  0  0  0
  5 21  1  0  0  0  0
  5 13  2  0  0  0  0
  6  2  2  0  0  0  0
  7  8  1  0  0  0  0
  7  9  2  0  0  0  0
  8  4  2  0  0  0  0
  9 13  1  0  0  0  0
  9 11  1  0  0  0  0
 10  8  1  0  0  0  0
 11 15  2  0  0  0  0
 12 10  1  0  0  0  0
 12 11  1  0  0  0  0
 14 10  2  0  0  0  0
 14  6  1  0  0  0  0
 16 12  2  0  0  0  0
 17  1  1  0  0  0  0
 19  3  1  0  0  0  0
 22  6  1  0  0  0  0
M  END
>  <HBA>
4

>  <HBD>
0

>  <TPSA>
59.92

>  <cid>
6764

>  <dipole>
8.92

>  <excitation_energy_1>
2.082

>  <excitation_energy_2>
3.139

>  <excitation_energy_3>
3.233

>  <excitation_energy_4>
3.239

>  <homo_energy>
-6.689

>  <homo_lumo_gap>
3.453

>  <logP>
1.523

>  <lumo_energy>
-3.235

>  <melting_point>
167.3

>  <molecular_refractivity>
56.13

>  <oscillator_strength_1>
0.0

>  <oscillator_strength_2>
0.0157

>  <oscillator_strength_3>
0.0001

>  <oscillator_strength_4>
0.0

>  <open_babel_can_smiles>
O=C1c2ncccc2c2c(C1=O)nccc2

>  <mulliken_charges>
22
1   -0.140276
2   -0.140151
3   -0.152547
4   -0.152624
5   0.052333
6   0.052208
7   0.102573
8   0.102643
9   0.147225
10   0.147204
11   0.376602
12   0.37659
13   -0.454199
14   -0.454152
15   -0.398279
16   -0.39831
17   0.153914
18   0.153901
19   0.153735
20   0.153654
21   0.158973
22   0.158982

>  <lowdin_charges>
22
1   -0.154467
2   -0.154196
3   -0.130792
4   -0.131084
5   -0.075037
6   -0.075099
7   -0.0109
8   -0.010878
9   0.001161
10   0.000972
11   0.118243
12   0.118809
13   -0.102058
14   -0.101964
15   -0.148861
16   -0.149085
17   0.172776
18   0.172601
19   0.166298
20   0.166521
21   0.163546
22   0.163492

$$$$

