PCCDB-ID:  66595
public computational chemistry database (PCCDB) project, http://pccdb.org

 27 28  0  0  0  0  0  0  0  0999 V2000
    1.3397   -1.8173    0.2683 C   0  0  0  0  0  0  0  0  0  0  0  0
    9.8758   -0.4085    2.3607 C   0  0  0  0  0  0  0  0  0  0  0  0
    2.7488   -2.3078    0.5478 C   0  0  0  0  0  0  0  0  0  0  0  0
    5.5934   -0.1558    1.4006 C   0  0  0  0  0  0  0  0  0  0  0  0
    6.9391   -0.2271    1.7022 C   0  0  0  0  0  0  0  0  0  0  0  0
    9.5650   -2.8664    2.0637 C   0  0  0  0  0  0  0  0  0  0  0  0
    5.5117   -2.5727    1.1578 C   0  0  0  0  0  0  0  0  0  0  0  0
    9.0313   -1.6166    2.0544 C   0  0  0  0  0  0  0  0  0  0  0  0
    4.8687   -1.3348    1.1249 C   0  0  0  0  0  0  0  0  0  0  0  0
    7.6227   -1.4617    1.7442 C   0  0  0  0  0  0  0  0  0  0  0  0
    6.8741   -2.6207    1.4655 C   0  0  0  0  0  0  0  0  0  0  0  0
    8.7924   -4.0628    1.7780 C   0  0  0  0  0  0  0  0  0  0  0  0
    9.2011   -5.2005    1.7721 O   0  0  0  0  0  0  0  0  0  0  0  0
    3.5542   -1.1604    0.8394 O   0  0  0  0  0  0  0  0  0  0  0  0
    7.4392   -3.8602    1.4803 O   0  0  0  0  0  0  0  0  0  0  0  0
    0.6870   -2.6662    0.0389 H   0  0  0  0  0  0  0  0  0  0  0  0
    1.3313   -1.1318   -0.5848 H   0  0  0  0  0  0  0  0  0  0  0  0
    0.9338   -1.2920    1.1384 H   0  0  0  0  0  0  0  0  0  0  0  0
   10.9092   -0.6958    2.5707 H   0  0  0  0  0  0  0  0  0  0  0  0
    9.4875    0.1340    3.2315 H   0  0  0  0  0  0  0  0  0  0  0  0
    9.8800    0.2946    1.5187 H   0  0  0  0  0  0  0  0  0  0  0  0
    3.1635   -2.8366   -0.3213 H   0  0  0  0  0  0  0  0  0  0  0  0
    2.7656   -2.9962    1.4038 H   0  0  0  0  0  0  0  0  0  0  0  0
    5.0688    0.7931    1.3692 H   0  0  0  0  0  0  0  0  0  0  0  0
    7.4820    0.6890    1.9118 H   0  0  0  0  0  0  0  0  0  0  0  0
   10.6116   -3.0383    2.2897 H   0  0  0  0  0  0  0  0  0  0  0  0
    5.0003   -3.5048    0.9560 H   0  0  0  0  0  0  0  0  0  0  0  0
  1  3  1  0  0  0  0
  1 18  1  0  0  0  0
  2 19  1  0  0  0  0
  2 20  1  0  0  0  0
  3 14  1  0  0  0  0
  3 23  1  0  0  0  0
  4  5  2  0  0  0  0
  5 10  1  0  0  0  0
  5 25  1  0  0  0  0
  6 26  1  0  0  0  0
  7 11  1  0  0  0  0
  8  6  2  0  0  0  0
  8  2  1  0  0  0  0
  9  7  2  0  0  0  0
  9  4  1  0  0  0  0
 10  8  1  0  0  0  0
 11 15  1  0  0  0  0
 11 10  2  0  0  0  0
 12  6  1  0  0  0  0
 13 12  2  0  0  0  0
 14  9  1  0  0  0  0
 15 12  1  0  0  0  0
 16  1  1  0  0  0  0
 17  1  1  0  0  0  0
 21  2  1  0  0  0  0
 22  3  1  0  0  0  0
 24  4  1  0  0  0  0
 27  7  1  0  0  0  0
M  END
>  <HBA>
3

>  <HBD>
0

>  <TPSA>
39.44

>  <cid>
66595

>  <dipole>
4.75

>  <excitation_energy_1>
4.08

>  <excitation_energy_2>
4.531

>  <excitation_energy_3>
4.609

>  <excitation_energy_4>
5.103

>  <homo_energy>
-5.943

>  <homo_lumo_gap>
4.463

>  <logP>
2.5

>  <lumo_energy>
-1.48

>  <melting_point>
92.61

>  <molecular_refractivity>
58.75

>  <oscillator_strength_1>
0.3254

>  <oscillator_strength_2>
0.0193

>  <oscillator_strength_3>
0.0

>  <oscillator_strength_4>
0.0505

>  <open_babel_can_smiles>
CCOc1ccc2c(c1)oc(=O)cc2C

>  <mulliken_charges>
27
1   -0.458385
2   -0.536868
3   -0.03574
4   -0.17435
5   -0.20581
6   -0.306077
7   -0.261124
8   0.202126
9   0.395164
10   0.078827
11   0.314119
12   0.604118
13   -0.475503
14   -0.515358
15   -0.521845
16   0.154201
17   0.166098
18   0.166136
19   0.171227
20   0.174074
21   0.173905
22   0.149981
23   0.14997
24   0.143782
25   0.138735
26   0.151257
27   0.15734

>  <lowdin_charges>
27
1   -0.44872
2   -0.441134
3   -0.125229
4   -0.190857
5   -0.142771
6   -0.225421
7   -0.235533
8   0.044528
9   0.120579
10   -0.065061
11   0.123738
12   0.195228
13   -0.247771
14   -0.191318
15   -0.137656
16   0.161087
17   0.161835
18   0.162182
19   0.16577
20   0.168856
21   0.168549
22   0.144272
23   0.144024
24   0.170833
25   0.165531
26   0.174995
27   0.179465

$$$$

