PCCDB-ID:  13134
public computational chemistry database (PCCDB) project, http://pccdb.org

 14 13  0  0  0  0  0  0  0  0999 V2000
    1.4662   -0.7807   -0.3800 C   0  0  0  0  0  0  0  0  0  0  0  0
    4.2865   -2.9436    1.3165 C   0  0  0  0  0  0  0  0  0  0  0  0
    4.5827   -0.0222    1.7421 O   0  0  0  0  0  0  0  0  0  0  0  0
    2.0815    0.0409    2.5462 O   0  0  0  0  0  0  0  0  0  0  0  0
    2.8053   -0.5274    0.0871 O   0  0  0  0  0  0  0  0  0  0  0  0
    3.2749   -2.1732    1.9892 O   0  0  0  0  0  0  0  0  0  0  0  0
    3.0781   -0.6120    1.6765 P   0  0  0  0  0  0  0  0  0  0  0  0
    1.4731   -0.5777   -1.4520 H   0  0  0  0  0  0  0  0  0  0  0  0
    0.7553   -0.1213    0.1248 H   0  0  0  0  0  0  0  0  0  0  0  0
    1.1871   -1.8254   -0.2047 H   0  0  0  0  0  0  0  0  0  0  0  0
    4.1526   -3.9755    1.6449 H   0  0  0  0  0  0  0  0  0  0  0  0
    5.2820   -2.5890    1.5981 H   0  0  0  0  0  0  0  0  0  0  0  0
    4.1651   -2.8803    0.2306 H   0  0  0  0  0  0  0  0  0  0  0  0
    4.5714    0.8469    2.1752 H   0  0  0  0  0  0  0  0  0  0  0  0
  1 10  1  0  0  0  0
  1  5  1  0  0  0  0
  1  9  1  0  0  0  0
  2 12  1  0  0  0  0
  2 11  1  0  0  0  0
  2  6  1  0  0  0  0
  3 14  1  0  0  0  0
  5  7  1  0  0  0  0
  7  3  1  0  0  0  0
  7  6  1  0  0  0  0
  7  4  2  0  0  0  0
  8  1  1  0  0  0  0
 13  2  1  0  0  0  0
M  END
>  <HBA>
4

>  <HBD>
1

>  <TPSA>
65.57

>  <cid>
13134

>  <dipole>
2.88

>  <excitation_energy_1>
6.98

>  <excitation_energy_2>
7.24

>  <excitation_energy_3>
7.488

>  <excitation_energy_4>
7.67

>  <homo_energy>
-7.856

>  <homo_lumo_gap>
8.939

>  <logP>
0.38

>  <lumo_energy>
1.083

>  <melting_point>
11.42

>  <molecular_refractivity>
23.72

>  <oscillator_strength_1>
0.0124

>  <oscillator_strength_2>
0.0315

>  <oscillator_strength_3>
0.0022

>  <oscillator_strength_4>
0.0033

>  <open_babel_can_smiles>
COP(=O)(OC)O

>  <mulliken_charges>
14
1   -0.224134
2   -0.225179
3   -0.655326
4   -0.547516
5   -0.519402
6   -0.505391
7   1.189746
8   0.171824
9   0.18712
10   0.164068
11   0.174064
12   0.17796
13   0.166821
14   0.445347

>  <lowdin_charges>
14
1   -0.268578
2   -0.266492
3   -0.567943
4   -0.581448
5   -0.402323
6   -0.389204
7   1.123493
8   0.161408
9   0.169793
10   0.153093
11   0.163293
12   0.161401
13   0.154259
14   0.389249

$$$$

