PCCDB-ID:  25742
public computational chemistry database (PCCDB) project, http://pccdb.org

 18 17  0  0  0  0  0  0  0  0999 V2000
    1.8333   -0.4877    0.6854 C   0  0  0  0  0  0  0  0  0  0  0  0
    3.0256   -0.2351   -0.2394 C   0  0  0  0  0  0  0  0  0  0  0  0
    2.0991    1.5576   -1.8173 C   0  0  0  0  0  0  0  0  0  0  0  0
    1.0973    2.6538   -1.3949 C   0  0  0  0  0  0  0  0  0  0  0  0
    4.0603    1.8827   -0.3683 N   0  0  0  0  0  0  0  0  0  0  0  0
    3.0558    1.1237   -0.7845 N   0  0  0  0  0  0  0  0  0  0  0  0
    1.5595    3.9612   -1.6306 O   0  0  0  0  0  0  0  0  0  0  0  0
    4.0813    3.0361   -0.8158 O   0  0  0  0  0  0  0  0  0  0  0  0
    1.8700   -1.5150    1.0641 H   0  0  0  0  0  0  0  0  0  0  0  0
    0.8783   -0.3587    0.1641 H   0  0  0  0  0  0  0  0  0  0  0  0
    1.8537    0.1961    1.5399 H   0  0  0  0  0  0  0  0  0  0  0  0
    3.0221   -0.9449   -1.0765 H   0  0  0  0  0  0  0  0  0  0  0  0
    3.9670   -0.3577    0.3013 H   0  0  0  0  0  0  0  0  0  0  0  0
    2.6694    1.9264   -2.6782 H   0  0  0  0  0  0  0  0  0  0  0  0
    1.5635    0.6529   -2.1179 H   0  0  0  0  0  0  0  0  0  0  0  0
    0.8131    2.4893   -0.3410 H   0  0  0  0  0  0  0  0  0  0  0  0
    0.1892    2.5336   -1.9974 H   0  0  0  0  0  0  0  0  0  0  0  0
    2.4807    3.9820   -1.3088 H   0  0  0  0  0  0  0  0  0  0  0  0
  1  9  1  0  0  0  0
  1 11  1  0  0  0  0
  2 13  1  0  0  0  0
  2  1  1  0  0  0  0
  3  4  1  0  0  0  0
  3  6  1  0  0  0  0
  4 16  1  0  0  0  0
  6  5  1  0  0  0  0
  6  2  1  0  0  0  0
  7  4  1  0  0  0  0
  7 18  1  0  0  0  0
  8  5  2  0  0  0  0
 10  1  1  0  0  0  0
 12  2  1  0  0  0  0
 14  3  1  0  0  0  0
 15  3  1  0  0  0  0
 17  4  1  0  0  0  0
M  END
>  <HBA>
4

>  <HBD>
1

>  <TPSA>
52.9

>  <cid>
25742

>  <dipole>
5.04

>  <excitation_energy_1>
3.452

>  <excitation_energy_2>
4.963

>  <excitation_energy_3>
5.683

>  <excitation_energy_4>
6.001

>  <homo_energy>
-6.485

>  <homo_lumo_gap>
5.255

>  <logP>
-0.018

>  <lumo_energy>
-1.23

>  <melting_point>
15.07

>  <molecular_refractivity>
30.14

>  <oscillator_strength_1>
0.0011

>  <oscillator_strength_2>
0.0062

>  <oscillator_strength_3>
0.1419

>  <oscillator_strength_4>
0.0026

>  <open_babel_can_smiles>
OCCN(N=O)CC

>  <mulliken_charges>
18
1   -0.449793
2   -0.142111
3   -0.193144
4   -0.008756
5   0.155679
6   -0.194503
7   -0.63264
8   -0.406354
9   0.161292
10   0.156382
11   0.170535
12   0.159661
13   0.186147
14   0.191136
15   0.155628
16   0.125001
17   0.144945
18   0.420893

>  <lowdin_charges>
18
1   -0.451985
2   -0.198165
3   -0.236269
4   -0.134731
5   0.05737
6   -0.028717
7   -0.474189
8   -0.287614
9   0.161789
10   0.153924
11   0.162852
12   0.152217
13   0.171222
14   0.173618
15   0.162653
16   0.126731
17   0.148916
18   0.340375

$$$$

