PCCDB-ID:  7460
public computational chemistry database (PCCDB) project, http://pccdb.org

 26 26  0  0  1  0  0  0  0  0999 V2000
    2.5995   -1.5160    0.3970 C   0  0  0  0  0  0  0  0  0  0  0  0
    3.1686    0.7730    1.3173 C   0  0  0  0  0  0  0  0  0  0  0  0
    5.5784    4.0242   -1.1122 C   0  0  0  0  0  0  0  0  0  0  0  0
    3.3600    2.8627   -1.6210 C   0  0  0  0  0  0  0  0  0  0  0  0
    5.3406    1.5282   -1.1981 C   0  0  0  0  0  0  0  0  0  0  0  0
    2.5435    1.7979   -1.6103 C   0  0  0  0  0  0  0  0  0  0  0  0
    4.5508    0.2669   -1.4557 C   0  0  0  0  0  0  0  0  0  0  0  0
    2.5011    0.0012    0.1703 C   0  0  0  0  0  0  0  0  0  0  0  0
    4.7944    2.7514   -1.3039 C   0  0  0  0  0  0  0  0  0  0  0  0
    3.0180    0.4069   -1.2485 C   0  0  1  0  0  0  0  0  0  0  0  0
    2.1440   -1.7946    1.3546 H   0  0  0  0  0  0  0  0  0  0  0  0
    3.6415   -1.8571    0.4225 H   0  0  0  0  0  0  0  0  0  0  0  0
    2.0844   -2.0743   -0.3944 H   0  0  0  0  0  0  0  0  0  0  0  0
    2.6911    0.5255    2.2732 H   0  0  0  0  0  0  0  0  0  0  0  0
    3.0910    1.8546    1.1694 H   0  0  0  0  0  0  0  0  0  0  0  0
    4.2321    0.5213    1.4052 H   0  0  0  0  0  0  0  0  0  0  0  0
    5.1671    4.6282   -0.2919 H   0  0  0  0  0  0  0  0  0  0  0  0
    5.5428    4.6523   -2.0131 H   0  0  0  0  0  0  0  0  0  0  0  0
    6.6295    3.8188   -0.8859 H   0  0  0  0  0  0  0  0  0  0  0  0
    2.9654    3.8519   -1.8487 H   0  0  0  0  0  0  0  0  0  0  0  0
    6.4010    1.4214   -0.9736 H   0  0  0  0  0  0  0  0  0  0  0  0
    1.4810    1.9222   -1.8149 H   0  0  0  0  0  0  0  0  0  0  0  0
    4.9419   -0.5511   -0.8381 H   0  0  0  0  0  0  0  0  0  0  0  0
    4.7399   -0.0449   -2.4960 H   0  0  0  0  0  0  0  0  0  0  0  0
    1.4305    0.2594    0.1813 H   0  0  0  0  0  0  0  0  0  0  0  0
    2.5323   -0.2957   -1.9408 H   0  0  0  0  0  0  0  0  0  0  0  0
  1 12  1  0  0  0  0
  1 11  1  0  0  0  0
  2 16  1  0  0  0  0
  2 14  1  0  0  0  0
  3 19  1  0  0  0  0
  3 17  1  0  0  0  0
  4  6  2  0  0  0  0
  4  9  1  0  0  0  0
  5 21  1  0  0  0  0
  6 10  1  0  0  0  0
  7 10  1  0  0  0  0
  7  5  1  0  0  0  0
  7 23  1  0  0  0  0
  8 25  1  0  0  0  0
  8  1  1  0  0  0  0
  8  2  1  0  0  0  0
  9  5  2  0  0  0  0
  9  3  1  0  0  0  0
 10 26  1  6  0  0  0
 10  8  1  0  0  0  0
 13  1  1  0  0  0  0
 15  2  1  0  0  0  0
 18  3  1  0  0  0  0
 20  4  1  0  0  0  0
 22  6  1  0  0  0  0
 24  7  1  0  0  0  0
M  END
>  <HBA>
0

>  <HBD>
0

>  <TPSA>
0.0

>  <cid>
7460

>  <dipole>
0.16

>  <excitation_energy_1>
4.556

>  <excitation_energy_2>
4.975

>  <excitation_energy_3>
5.394

>  <excitation_energy_4>
5.49

>  <homo_energy>
-5.437

>  <homo_lumo_gap>
5.091

>  <logP>
3.165

>  <lumo_energy>
-0.346

>  <melting_point>
16.36

>  <molecular_refractivity>
47.12

>  <oscillator_strength_1>
0.0967

>  <oscillator_strength_2>
0.0036

>  <oscillator_strength_3>
0.0051

>  <oscillator_strength_4>
0.0058

>  <open_babel_can_smiles>
CC1=CC[C@H](C=C1)C(C)C

>  <mulliken_charges>
26
1   -0.449238
2   -0.442469
3   -0.525423
4   -0.15175
5   -0.189988
6   -0.128737
7   -0.317697
8   -0.070492
9   0.193385
10   -0.112627
11   0.142031
12   0.142283
13   0.137776
14   0.134098
15   0.153127
16   0.141354
17   0.154681
18   0.152962
19   0.151655
20   0.117074
21   0.114564
22   0.122092
23   0.140462
24   0.148612
25   0.118847
26   0.123417

>  <lowdin_charges>
26
1   -0.447493
2   -0.444032
3   -0.43914
4   -0.176643
5   -0.179063
6   -0.157033
7   -0.276626
8   -0.117306
9   -0.018367
10   -0.127922
11   0.149562
12   0.144215
13   0.146928
14   0.14522
15   0.154087
16   0.145671
17   0.156048
18   0.15525
19   0.154148
20   0.151429
21   0.147155
22   0.149923
23   0.150471
24   0.152006
25   0.134811
26   0.146701

$$$$

