PCCDB-ID:  17436
public computational chemistry database (PCCDB) project, http://pccdb.org

 18 17  0  0  0  0  0  0  0  0999 V2000
    4.7468   -2.1889   -3.6039 C   0  0  0  0  0  0  0  0  0  0  0  0
    6.9031    0.4281    0.3816 C   0  0  0  0  0  0  0  0  0  0  0  0
    3.7079   -2.3034   -2.4978 C   0  0  0  0  0  0  0  0  0  0  0  0
    5.4264    0.6663    0.5937 C   0  0  0  0  0  0  0  0  0  0  0  0
    4.6044   -1.1162   -0.6489 C   0  0  0  0  0  0  0  0  0  0  0  0
    4.4304    0.0456    0.0968 N   0  0  0  0  0  0  0  0  0  0  0  0
    5.1223    1.7082    1.4035 O   0  0  0  0  0  0  0  0  0  0  0  0
    5.3853   -2.0264   -0.4206 O   0  0  0  0  0  0  0  0  0  0  0  0
    3.7017   -1.1329   -1.6517 O   0  0  0  0  0  0  0  0  0  0  0  0
    4.6712   -3.0496   -4.2784 H   0  0  0  0  0  0  0  0  0  0  0  0
    5.7561   -2.1721   -3.1828 H   0  0  0  0  0  0  0  0  0  0  0  0
    4.5908   -1.2773   -4.1904 H   0  0  0  0  0  0  0  0  0  0  0  0
    7.3880    0.2354    1.3466 H   0  0  0  0  0  0  0  0  0  0  0  0
    7.3655    1.3213   -0.0573 H   0  0  0  0  0  0  0  0  0  0  0  0
    7.0763   -0.4343   -0.2591 H   0  0  0  0  0  0  0  0  0  0  0  0
    3.8837   -3.1874   -1.8800 H   0  0  0  0  0  0  0  0  0  0  0  0
    2.6949   -2.3419   -2.9065 H   0  0  0  0  0  0  0  0  0  0  0  0
    5.9414    2.1256    1.7141 H   0  0  0  0  0  0  0  0  0  0  0  0
  1 11  1  0  0  0  0
  1  3  1  0  0  0  0
  2  4  1  0  0  0  0
  2 13  1  0  0  0  0
  3 16  1  0  0  0  0
  3  9  1  0  0  0  0
  4  7  1  0  0  0  0
  5  8  2  0  0  0  0
  5  6  1  0  0  0  0
  6  4  2  0  0  0  0
  7 18  1  0  0  0  0
  9  5  1  0  0  0  0
 10  1  1  0  0  0  0
 12  1  1  0  0  0  0
 14  2  1  0  0  0  0
 15  2  1  0  0  0  0
 17  3  1  0  0  0  0
M  END
>  <HBA>
4

>  <HBD>
1

>  <TPSA>
55.4

>  <cid>
17436

>  <dipole>
3.38

>  <excitation_energy_1>
4.833

>  <excitation_energy_2>
5.932

>  <excitation_energy_3>
6.061

>  <excitation_energy_4>
6.476

>  <homo_energy>
-6.86

>  <homo_lumo_gap>
6.223

>  <logP>
0.67

>  <lumo_energy>
-0.637

>  <melting_point>
45.45

>  <molecular_refractivity>
30.82

>  <oscillator_strength_1>
0.0006

>  <oscillator_strength_2>
0.0333

>  <oscillator_strength_3>
0.0627

>  <oscillator_strength_4>
0.0415

>  <open_babel_can_smiles>
CCOC(=O)/N=C(/O)\C

>  <mulliken_charges>
18
1   -0.462451
2   -0.556495
3   -0.037301
4   0.516982
5   0.696879
6   -0.450508
7   -0.554058
8   -0.499372
9   -0.439263
10   0.14836
11   0.168853
12   0.156902
13   0.181829
14   0.173013
15   0.219513
16   0.169264
17   0.153055
18   0.414798

>  <lowdin_charges>
18
1   -0.456028
2   -0.484502
3   -0.126591
4   0.180953
5   0.207291
6   -0.185389
7   -0.33767
8   -0.30483
9   -0.180973
10   0.158107
11   0.160722
12   0.155815
13   0.175824
14   0.170125
15   0.195789
16   0.158419
17   0.151793
18   0.361146

$$$$

