PCCDB-ID:  61099
public computational chemistry database (PCCDB) project, http://pccdb.org

 22 21  0  0  1  0  0  0  0  0999 V2000
    4.6265    1.2760    0.7327 C   0  0  0  0  0  0  0  0  0  0  0  0
    2.9579   -2.0293    3.4800 C   0  0  0  0  0  0  0  0  0  0  0  0
    4.2496   -0.0733    1.3518 C   0  0  0  0  0  0  0  0  0  0  0  0
    0.7809   -1.6599    2.2449 C   0  0  0  0  0  0  0  0  0  0  0  0
    2.3160   -1.5899    2.1556 C   0  0  1  0  0  0  0  0  0  0  0  0
    2.7538   -0.1823    1.6852 C   0  0  1  0  0  0  0  0  0  0  0  0
    0.2966   -2.9464    2.6179 O   0  0  0  0  0  0  0  0  0  0  0  0
    2.3506    0.8339    2.6117 O   0  0  0  0  0  0  0  0  0  0  0  0
    5.7054    1.3437    0.5545 H   0  0  0  0  0  0  0  0  0  0  0  0
    4.3330    2.0991    1.3914 H   0  0  0  0  0  0  0  0  0  0  0  0
    4.1179    1.4230   -0.2278 H   0  0  0  0  0  0  0  0  0  0  0  0
    2.5449   -2.9924    3.7918 H   0  0  0  0  0  0  0  0  0  0  0  0
    2.7366   -1.3143    4.2836 H   0  0  0  0  0  0  0  0  0  0  0  0
    4.0454   -2.1314    3.4013 H   0  0  0  0  0  0  0  0  0  0  0  0
    4.8367   -0.2361    2.2673 H   0  0  0  0  0  0  0  0  0  0  0  0
    4.5209   -0.8901    0.6687 H   0  0  0  0  0  0  0  0  0  0  0  0
    0.3378   -1.3352    1.2892 H   0  0  0  0  0  0  0  0  0  0  0  0
    0.4252   -0.9714    3.0164 H   0  0  0  0  0  0  0  0  0  0  0  0
    2.6340   -2.2954    1.3694 H   0  0  0  0  0  0  0  0  0  0  0  0
    2.1850    0.0570    0.7763 H   0  0  0  0  0  0  0  0  0  0  0  0
    0.5366   -3.5635    1.9090 H   0  0  0  0  0  0  0  0  0  0  0  0
    2.8858    0.7233    3.4140 H   0  0  0  0  0  0  0  0  0  0  0  0
  1  3  1  0  0  0  0
  1 10  1  0  0  0  0
  2 12  1  0  0  0  0
  2 13  1  0  0  0  0
  3  6  1  0  0  0  0
  3 15  1  0  0  0  0
  4  7  1  0  0  0  0
  4 18  1  0  0  0  0
  5 19  1  6  0  0  0
  5  4  1  0  0  0  0
  5  2  1  0  0  0  0
  6 20  1  6  0  0  0
  6  5  1  0  0  0  0
  6  8  1  0  0  0  0
  8 22  1  0  0  0  0
  9  1  1  0  0  0  0
 11  1  1  0  0  0  0
 14  2  1  0  0  0  0
 16  3  1  0  0  0  0
 17  4  1  0  0  0  0
 21  7  1  0  0  0  0
M  END
>  <HBA>
2

>  <HBD>
2

>  <TPSA>
40.46

>  <cid>
61099

>  <dipole>
2.38

>  <excitation_energy_1>
6.252

>  <excitation_energy_2>
6.555

>  <excitation_energy_3>
6.819

>  <excitation_energy_4>
7.083

>  <homo_energy>
-6.974

>  <homo_lumo_gap>
8.732

>  <logP>
0.386

>  <lumo_energy>
1.758

>  <melting_point>
10.67

>  <molecular_refractivity>
33.28

>  <oscillator_strength_1>
0.0071

>  <oscillator_strength_2>
0.0015

>  <oscillator_strength_3>
0.0005

>  <oscillator_strength_4>
0.0096

>  <open_babel_can_smiles>
CC[C@@H]([C@H](CO)C)O

>  <mulliken_charges>
22
1   -0.441289
2   -0.46793
3   -0.275168
4   -0.03043
5   -0.11216
6   0.136035
7   -0.614431
8   -0.627789
9   0.140903
10   0.159125
11   0.142532
12   0.168832
13   0.131425
14   0.144066
15   0.127277
16   0.132099
17   0.117377
18   0.160635
19   0.107037
20   0.128582
21   0.384628
22   0.388643

>  <lowdin_charges>
22
1   -0.44455
2   -0.45443
3   -0.291597
4   -0.139437
5   -0.160601
6   -0.003237
7   -0.466873
8   -0.463367
9   0.147562
10   0.156595
11   0.147491
12   0.164442
13   0.142532
14   0.146268
15   0.138493
16   0.145656
17   0.126691
18   0.155053
19   0.133358
20   0.140527
21   0.339965
22   0.339459

$$$$

