PCCDB-ID:  12092
public computational chemistry database (PCCDB) project, http://pccdb.org

 23 23  0  0  0  0  0  0  0  0999 V2000
    1.4699    0.1690    1.2121 C   0  0  0  0  0  0  0  0  0  0  0  0
    3.0884   -1.3240    0.0073 C   0  0  0  0  0  0  0  0  0  0  0  0
    3.0719    3.4932   -0.8578 C   0  0  0  0  0  0  0  0  0  0  0  0
    4.6252    2.0595   -2.0121 C   0  0  0  0  0  0  0  0  0  0  0  0
    2.5658    2.4006   -0.1705 C   0  0  0  0  0  0  0  0  0  0  0  0
    4.1312    0.9587   -1.3323 C   0  0  0  0  0  0  0  0  0  0  0  0
    4.1104    3.3453   -1.7897 C   0  0  0  0  0  0  0  0  0  0  0  0
    3.0857    1.0989   -0.3841 C   0  0  0  0  0  0  0  0  0  0  0  0
    4.6786    4.4751   -2.5458 C   0  0  0  0  0  0  0  0  0  0  0  0
    2.5953    0.0103    0.3062 N   0  0  0  0  0  0  0  0  0  0  0  0
    4.0977    5.6721   -2.2436 O   0  0  0  0  0  0  0  0  0  0  0  0
    5.5752    4.3974   -3.3669 O   0  0  0  0  0  0  0  0  0  0  0  0
    1.2391   -0.7948    1.6687 H   0  0  0  0  0  0  0  0  0  0  0  0
    0.5670    0.5270    0.6958 H   0  0  0  0  0  0  0  0  0  0  0  0
    1.7014    0.8754    2.0200 H   0  0  0  0  0  0  0  0  0  0  0  0
    2.5912   -2.0439    0.6593 H   0  0  0  0  0  0  0  0  0  0  0  0
    4.1689   -1.4018    0.1848 H   0  0  0  0  0  0  0  0  0  0  0  0
    2.8937   -1.6155   -1.0353 H   0  0  0  0  0  0  0  0  0  0  0  0
    2.6551    4.4777   -0.6740 H   0  0  0  0  0  0  0  0  0  0  0  0
    5.4255    1.9403   -2.7356 H   0  0  0  0  0  0  0  0  0  0  0  0
    1.7616    2.5586    0.5377 H   0  0  0  0  0  0  0  0  0  0  0  0
    4.5552   -0.0162   -1.5399 H   0  0  0  0  0  0  0  0  0  0  0  0
    4.5567    6.3244   -2.8034 H   0  0  0  0  0  0  0  0  0  0  0  0
  1 13  1  0  0  0  0
  1 15  1  0  0  0  0
  2 17  1  0  0  0  0
  2 10  1  0  0  0  0
  2 16  1  0  0  0  0
  3 19  1  0  0  0  0
  3  5  2  0  0  0  0
  4  7  2  0  0  0  0
  4  6  1  0  0  0  0
  5 21  1  0  0  0  0
  6  8  2  0  0  0  0
  7  3  1  0  0  0  0
  8  5  1  0  0  0  0
  8 10  1  0  0  0  0
  9 11  1  0  0  0  0
  9  7  1  0  0  0  0
 10  1  1  0  0  0  0
 12  9  2  0  0  0  0
 14  1  1  0  0  0  0
 18  2  1  0  0  0  0
 20  4  1  0  0  0  0
 22  6  1  0  0  0  0
 23 11  1  0  0  0  0
M  END
>  <HBA>
3

>  <HBD>
1

>  <TPSA>
40.54

>  <cid>
12092

>  <dipole>
4.64

>  <excitation_energy_1>
4.366

>  <excitation_energy_2>
4.552

>  <excitation_energy_3>
4.741

>  <excitation_energy_4>
5.053

>  <homo_energy>
-5.41

>  <homo_lumo_gap>
4.718

>  <logP>
1.451

>  <lumo_energy>
-0.691

>  <melting_point>
104.99

>  <molecular_refractivity>
47.61

>  <oscillator_strength_1>
0.5147

>  <oscillator_strength_2>
0.0215

>  <oscillator_strength_3>
0.0224

>  <oscillator_strength_4>
0.0

>  <open_babel_can_smiles>
CN(c1ccc(cc1)C(=O)O)C

>  <mulliken_charges>
23
1   -0.313902
2   -0.31393
3   -0.173782
4   -0.16971
5   -0.199536
6   -0.200098
7   0.072891
8   0.3797
9   0.525067
10   -0.473227
11   -0.591921
12   -0.491022
13   0.158572
14   0.161548
15   0.166036
16   0.158404
17   0.166578
18   0.162134
19   0.154333
20   0.158509
21   0.128034
22   0.12951
23   0.405812

>  <lowdin_charges>
23
1   -0.350218
2   -0.347811
3   -0.126256
4   -0.11788
5   -0.212447
6   -0.212237
7   -0.081108
8   0.071389
9   0.191734
10   -0.104211
11   -0.374765
12   -0.289893
13   0.159703
14   0.149357
15   0.153963
16   0.161088
17   0.151831
18   0.148195
19   0.170836
20   0.175141
21   0.161489
22   0.161482
23   0.360619

$$$$

