PCCDB-ID:  15413
public computational chemistry database (PCCDB) project, http://pccdb.org

 18 17  0  0  0  0  0  0  0  0999 V2000
    1.0866    0.0347    0.0867 C   0  0  0  0  0  0  0  0  0  0  0  0
    3.0536   -0.0797   -1.4807 C   0  0  0  0  0  0  0  0  0  0  0  0
    3.0539    1.5633    0.4488 C   0  0  0  0  0  0  0  0  0  0  0  0
    4.5004   -1.0069    0.9791 C   0  0  0  0  0  0  0  0  0  0  0  0
    2.6089    0.1714   -0.0300 C   0  0  0  0  0  0  0  0  0  0  0  0
    3.1016   -0.8607    0.8480 O   0  0  0  0  0  0  0  0  0  0  0  0
    0.5777    0.7718   -0.5438 H   0  0  0  0  0  0  0  0  0  0  0  0
    0.7720    0.1851    1.1246 H   0  0  0  0  0  0  0  0  0  0  0  0
    0.7722   -0.9673   -0.2225 H   0  0  0  0  0  0  0  0  0  0  0  0
    2.5633    0.6280   -2.1585 H   0  0  0  0  0  0  0  0  0  0  0  0
    2.7833   -1.0953   -1.7898 H   0  0  0  0  0  0  0  0  0  0  0  0
    4.1347    0.0429   -1.6070 H   0  0  0  0  0  0  0  0  0  0  0  0
    2.5591    2.3450   -0.1383 H   0  0  0  0  0  0  0  0  0  0  0  0
    4.1343    1.7095    0.3418 H   0  0  0  0  0  0  0  0  0  0  0  0
    2.7890    1.7046    1.5022 H   0  0  0  0  0  0  0  0  0  0  0  0
    4.6543   -1.8332    1.6792 H   0  0  0  0  0  0  0  0  0  0  0  0
    4.9867   -0.1109    1.3922 H   0  0  0  0  0  0  0  0  0  0  0  0
    4.9945   -1.2634    0.0305 H   0  0  0  0  0  0  0  0  0  0  0  0
  1  8  1  0  0  0  0
  2  5  1  0  0  0  0
  3 15  1  0  0  0  0
  4 17  1  0  0  0  0
  4 16  1  0  0  0  0
  5  1  1  0  0  0  0
  5  3  1  0  0  0  0
  5  6  1  0  0  0  0
  6  4  1  0  0  0  0
  7  1  1  0  0  0  0
  9  1  1  0  0  0  0
 10  2  1  0  0  0  0
 11  2  1  0  0  0  0
 12  2  1  0  0  0  0
 13  3  1  0  0  0  0
 14  3  1  0  0  0  0
 18  4  1  0  0  0  0
M  END
>  <HBA>
1

>  <HBD>
0

>  <TPSA>
9.23

>  <cid>
15413

>  <dipole>
1.18

>  <excitation_energy_1>
6.266

>  <excitation_energy_2>
6.69

>  <excitation_energy_3>
6.998

>  <excitation_energy_4>
7.08

>  <homo_energy>
-6.656

>  <homo_lumo_gap>
8.852

>  <logP>
1.431

>  <lumo_energy>
2.196

>  <melting_point>
-23.83

>  <molecular_refractivity>
27.27

>  <oscillator_strength_1>
0.0007

>  <oscillator_strength_2>
0.0172

>  <oscillator_strength_3>
0.0098

>  <oscillator_strength_4>
0.0002

>  <open_babel_can_smiles>
COC(C)(C)C

>  <mulliken_charges>
18
1   -0.443222
2   -0.460366
3   -0.460637
4   -0.19734
5   0.329158
6   -0.485712
7   0.134413
8   0.150437
9   0.150612
10   0.141892
11   0.151743
12   0.141323
13   0.142035
14   0.141323
15   0.151784
16   0.154566
17   0.129045
18   0.128946

>  <lowdin_charges>
18
1   -0.4438
2   -0.45665
3   -0.455834
4   -0.284648
5   0.132042
6   -0.278258
7   0.149283
8   0.154281
9   0.154889
10   0.154723
11   0.154659
12   0.146827
13   0.15471
14   0.146852
15   0.154078
16   0.154364
17   0.131518
18   0.130963

$$$$

