PCCDB-ID:  21457
public computational chemistry database (PCCDB) project, http://pccdb.org

 17 16  0  0  0  0  0  0  0  0999 V2000
    0.8957   -0.2377   -0.1443 C   0  0  0  0  0  0  0  0  0  0  0  0
    2.3391    1.8503   -0.1179 C   0  0  0  0  0  0  0  0  0  0  0  0
    4.8148   -0.0808    0.0951 C   0  0  0  0  0  0  0  0  0  0  0  0
    3.3581   -0.4651   -0.0013 C   0  0  0  0  0  0  0  0  0  0  0  0
    5.3283   -0.2978    1.5118 C   0  0  0  0  0  0  0  0  0  0  0  0
    2.2883    0.3430   -0.0791 C   0  0  0  0  0  0  0  0  0  0  0  0
    6.2178   -1.0600    1.8153 O   0  0  0  0  0  0  0  0  0  0  0  0
    0.2807    0.1183    0.6940 H   0  0  0  0  0  0  0  0  0  0  0  0
    0.9064   -1.3315   -0.1171 H   0  0  0  0  0  0  0  0  0  0  0  0
    0.3803    0.0763   -1.0627 H   0  0  0  0  0  0  0  0  0  0  0  0
    1.8171    2.2760    0.7501 H   0  0  0  0  0  0  0  0  0  0  0  0
    1.8195    2.2299   -1.0082 H   0  0  0  0  0  0  0  0  0  0  0  0
    3.3543    2.2545   -0.1248 H   0  0  0  0  0  0  0  0  0  0  0  0
    4.9673    0.9768   -0.1554 H   0  0  0  0  0  0  0  0  0  0  0  0
    5.4303   -0.6854   -0.5803 H   0  0  0  0  0  0  0  0  0  0  0  0
    3.1783   -1.5398    0.0278 H   0  0  0  0  0  0  0  0  0  0  0  0
    4.7962    0.3002    2.2863 H   0  0  0  0  0  0  0  0  0  0  0  0
  1  9  1  0  0  0  0
  1  6  1  0  0  0  0
  1  8  1  0  0  0  0
  2  6  1  0  0  0  0
  2 11  1  0  0  0  0
  3  5  1  0  0  0  0
  4 16  1  0  0  0  0
  4  3  1  0  0  0  0
  5  7  2  0  0  0  0
  5 17  1  0  0  0  0
  6  4  2  0  0  0  0
 10  1  1  0  0  0  0
 12  2  1  0  0  0  0
 13  2  1  0  0  0  0
 14  3  1  0  0  0  0
 15  3  1  0  0  0  0
M  END
>  <HBA>
1

>  <HBD>
0

>  <TPSA>
17.07

>  <cid>
21457

>  <dipole>
3.24

>  <excitation_energy_1>
4.134

>  <excitation_energy_2>
5.213

>  <excitation_energy_3>
5.949

>  <excitation_energy_4>
6.205

>  <homo_energy>
-6.427

>  <homo_lumo_gap>
5.72

>  <logP>
1.542

>  <lumo_energy>
-0.708

>  <melting_point>
18.37

>  <molecular_refractivity>
30.68

>  <oscillator_strength_1>
0.0114

>  <oscillator_strength_2>
0.063

>  <oscillator_strength_3>
0.0022

>  <oscillator_strength_4>
0.0999

>  <open_babel_can_smiles>
O=CCC=C(C)C

>  <mulliken_charges>
17
1   -0.506964
2   -0.514796
3   -0.374918
4   -0.184353
5   0.259198
6   0.197869
7   -0.379275
8   0.154884
9   0.156968
10   0.154699
11   0.160083
12   0.158488
13   0.15284
14   0.160593
15   0.169212
16   0.131602
17   0.103871

>  <lowdin_charges>
17
1   -0.437927
2   -0.44612
3   -0.306935
4   -0.194332
5   0.054068
6   0.002239
7   -0.21552
8   0.156915
9   0.155578
10   0.156369
11   0.160939
12   0.159634
13   0.153836
14   0.163244
15   0.168517
16   0.152344
17   0.117149

$$$$

