PCCDB-ID:  31623
public computational chemistry database (PCCDB) project, http://pccdb.org

 27 29  0  0  1  0  0  0  0  0999 V2000
   -3.7177   -0.6070   -0.0313 C   0  0  0  0  0  0  0  0  0  0  0  0
   -3.6416    0.7921    0.0185 C   0  0  0  0  0  0  0  0  0  0  0  0
    3.6160    0.7534   -0.0064 C   0  0  0  0  0  0  0  0  0  0  0  0
   -2.5487   -1.3547   -0.0338 C   0  0  0  0  0  0  0  0  0  0  0  0
    3.6966   -0.6300   -0.0522 C   0  0  0  0  0  0  0  0  0  0  0  0
   -2.4079    1.4198    0.0556 C   0  0  0  0  0  0  0  0  0  0  0  0
    2.3844    1.3995    0.0318 C   0  0  0  0  0  0  0  0  0  0  0  0
   -1.2780   -0.7549    0.0132 C   0  0  0  0  0  0  0  0  0  0  0  0
    2.5305   -1.4252   -0.0614 C   0  0  0  0  0  0  0  0  0  0  0  0
   -1.2244    0.6562    0.0486 C   0  0  0  0  0  0  0  0  0  0  0  0
    1.2159    0.6283    0.0288 C   0  0  0  0  0  0  0  0  0  0  0  0
    1.2414   -0.7899   -0.0123 C   0  0  2  0  0  0  0  0  0  0  0  0
   -0.0185   -1.5503    0.0252 C   0  0  0  0  0  0  0  0  0  0  0  0
    2.6421   -2.7791   -0.1427 N   0  0  0  0  0  0  0  0  0  0  0  0
    0.0105   -2.8493    0.0693 N   0  0  0  0  0  0  0  0  0  0  0  0
   -0.0030    1.2854    0.0737 N   0  0  0  0  0  0  0  0  0  0  0  0
   -4.6823   -1.1035   -0.0705 H   0  0  0  0  0  0  0  0  0  0  0  0
   -4.5489    1.3898    0.0227 H   0  0  0  0  0  0  0  0  0  0  0  0
    4.5298    1.3422   -0.0013 H   0  0  0  0  0  0  0  0  0  0  0  0
   -2.6276   -2.4370   -0.0815 H   0  0  0  0  0  0  0  0  0  0  0  0
    4.6640   -1.1243   -0.0898 H   0  0  0  0  0  0  0  0  0  0  0  0
   -2.3399    2.5050    0.0875 H   0  0  0  0  0  0  0  0  0  0  0  0
    2.3188    2.4837    0.0654 H   0  0  0  0  0  0  0  0  0  0  0  0
    3.5483   -3.1995   -0.0051 H   0  0  0  0  0  0  0  0  0  0  0  0
    1.7833   -3.3187   -0.0177 H   0  0  0  0  0  0  0  0  0  0  0  0
   -0.9244   -3.2537    0.1124 H   0  0  0  0  0  0  0  0  0  0  0  0
    0.0130    2.2950    0.1003 H   0  0  0  0  0  0  0  0  0  0  0  0
  1  2  2  0  0  0  0
  2 18  1  0  0  0  0
  2  6  1  0  0  0  0
  3 19  1  0  0  0  0
  3  7  1  0  0  0  0
  4  1  1  0  0  0  0
  4  8  2  0  0  0  0
  5  3  1  0  0  0  0
  6 22  1  0  0  0  0
  7 23  1  0  0  0  0
  8 13  1  0  0  0  0
  8 10  1  0  0  0  0
  9  5  2  0  0  0  0
 10  6  2  0  0  0  0
 10 16  1  0  0  0  0
 11  7  2  0  0  0  0
 11 16  1  0  0  0  0
 12  9  1  1  0  0  0
 12 13  1  0  0  0  0
 12 11  1  0  0  0  0
 13 15  2  0  0  0  0
 14  9  1  0  0  0  0
 14 25  1  0  0  0  0
 14 24  1  0  0  0  0
 15 26  1  0  0  0  0
 16 27  1  0  0  0  0
 17  1  1  0  0  0  0
 20  4  1  0  0  0  0
 21  5  1  0  0  0  0
M  RAD  2   3   2  12   2
M  END
>  <HBA>
3

>  <HBD>
2

>  <TPSA>
64.93

>  <cid>
31623

>  <dipole>
2.13

>  <excitation_energy_1>
3.156

>  <excitation_energy_2>
3.855

>  <excitation_energy_3>
4.04

>  <excitation_energy_4>
4.26

>  <homo_energy>
-4.863

>  <homo_lumo_gap>
3.799

>  <logP>
3.715

>  <lumo_energy>
-1.064

>  <melting_point>
208.81

>  <molecular_refractivity>
68.06

>  <oscillator_strength_1>
0.0706

>  <oscillator_strength_2>
0.037

>  <oscillator_strength_3>
0.1903

>  <oscillator_strength_4>
0.0011

>  <open_babel_can_smiles>
NC1=C[CH]C=C2[C]1C(=N)c1c(N2)cccc1

>  <mulliken_charges>
27
1   -0.136206
2   -0.132658
3   -0.134857
4   -0.219183
5   -0.188
6   -0.18157
7   -0.210616
8   0.105119
9   0.29369
10   0.350789
11   0.332744
12   0.046188
13   0.3095
14   -0.821673
15   -0.747261
16   -0.841938
17   0.130524
18   0.134704
19   0.125847
20   0.131268
21   0.109751
22   0.12563
23   0.109725
24   0.317689
25   0.381879
26   0.285799
27   0.323115

>  <lowdin_charges>
27
1   -0.177832
2   -0.13858
3   -0.128061
4   -0.13857
5   -0.231475
6   -0.190954
7   -0.241848
8   -0.057682
9   0.097025
10   0.064654
11   0.071445
12   -0.089965
13   0.071324
14   -0.469456
15   -0.438219
16   -0.205875
17   0.159764
18   0.161808
19   0.15817
20   0.154958
21   0.151143
22   0.153904
23   0.148075
24   0.276543
25   0.307145
26   0.246336
27   0.286222

$$$$

