PCCDB-ID:  10679
public computational chemistry database (PCCDB) project, http://pccdb.org

 27 29  0  0  0  0  0  0  0  0999 V2000
   -3.0286   -1.1999    0.0282 C   0  0  0  0  0  0  0  0  0  0  0  0
    3.0288   -1.1997    0.0312 C   0  0  0  0  0  0  0  0  0  0  0  0
   -1.6665   -1.4969    0.0300 C   0  0  0  0  0  0  0  0  0  0  0  0
    1.6668   -1.4968    0.0317 C   0  0  0  0  0  0  0  0  0  0  0  0
    0.0000    1.8240    0.0628 C   0  0  0  0  0  0  0  0  0  0  0  0
   -2.5399    1.1775    0.0512 C   0  0  0  0  0  0  0  0  0  0  0  0
    2.5399    1.1776    0.0536 C   0  0  0  0  0  0  0  0  0  0  0  0
   -1.1864    0.8776    0.0526 C   0  0  0  0  0  0  0  0  0  0  0  0
    1.1865    0.8777    0.0538 C   0  0  0  0  0  0  0  0  0  0  0  0
   -3.4830    0.1317    0.0384 C   0  0  0  0  0  0  0  0  0  0  0  0
    3.4832    0.1319    0.0418 C   0  0  0  0  0  0  0  0  0  0  0  0
   -0.7333   -0.4585    0.0421 C   0  0  0  0  0  0  0  0  0  0  0  0
    0.7335   -0.4585    0.0428 C   0  0  0  0  0  0  0  0  0  0  0  0
   -4.8555    0.4143    0.0989 N   0  0  0  0  0  0  0  0  0  0  0  0
    4.8556    0.4146    0.1036 N   0  0  0  0  0  0  0  0  0  0  0  0
   -3.7574   -2.0078    0.0218 H   0  0  0  0  0  0  0  0  0  0  0  0
    3.7577   -2.0075    0.0258 H   0  0  0  0  0  0  0  0  0  0  0  0
   -1.3448   -2.5355    0.0196 H   0  0  0  0  0  0  0  0  0  0  0  0
    1.3452   -2.5354    0.0210 H   0  0  0  0  0  0  0  0  0  0  0  0
   -0.0005    2.4720    0.9504 H   0  0  0  0  0  0  0  0  0  0  0  0
    0.0004    2.4924   -0.8096 H   0  0  0  0  0  0  0  0  0  0  0  0
   -2.8836    2.2106    0.0633 H   0  0  0  0  0  0  0  0  0  0  0  0
    2.8836    2.2108    0.0660 H   0  0  0  0  0  0  0  0  0  0  0  0
   -5.4492   -0.3156   -0.2769 H   0  0  0  0  0  0  0  0  0  0  0  0
   -5.1132    1.3182   -0.2793 H   0  0  0  0  0  0  0  0  0  0  0  0
    5.4496   -0.3148   -0.2725 H   0  0  0  0  0  0  0  0  0  0  0  0
    5.1135    1.3189   -0.2733 H   0  0  0  0  0  0  0  0  0  0  0  0
  1  3  2  0  0  0  0
  1 10  1  0  0  0  0
  2  4  2  0  0  0  0
  2 11  1  0  0  0  0
  3 12  1  0  0  0  0
  4 13  1  0  0  0  0
  5 20  1  0  0  0  0
  6  8  1  0  0  0  0
  6 22  1  0  0  0  0
  7  9  1  0  0  0  0
  7 23  1  0  0  0  0
  8  5  1  0  0  0  0
  9  5  1  0  0  0  0
 10  6  2  0  0  0  0
 10 14  1  0  0  0  0
 11  7  2  0  0  0  0
 11 15  1  0  0  0  0
 12 13  1  0  0  0  0
 12  8  2  0  0  0  0
 13  9  2  0  0  0  0
 16  1  1  0  0  0  0
 17  2  1  0  0  0  0
 18  3  1  0  0  0  0
 19  4  1  0  0  0  0
 21  5  1  0  0  0  0
 24 14  1  0  0  0  0
 25 14  1  0  0  0  0
 26 15  1  0  0  0  0
 27 15  1  0  0  0  0
M  END
>  <HBA>
2

>  <HBD>
2

>  <TPSA>
52.04

>  <cid>
10679

>  <dipole>
2.5

>  <excitation_energy_1>
3.721

>  <excitation_energy_2>
4.138

>  <excitation_energy_3>
4.224

>  <excitation_energy_4>
4.249

>  <homo_energy>
-4.558

>  <homo_lumo_gap>
4.463

>  <logP>
3.585

>  <lumo_energy>
-0.095

>  <melting_point>
173.82

>  <molecular_refractivity>
63.7

>  <oscillator_strength_1>
0.0542

>  <oscillator_strength_2>
0.3012

>  <oscillator_strength_3>
0.0016

>  <oscillator_strength_4>
0.3261

>  <open_babel_can_smiles>
Nc1ccc2c(c1)Cc1c2ccc(c1)N

>  <mulliken_charges>
27
1   -0.185661
2   -0.18565
3   -0.203709
4   -0.203731
5   -0.422539
6   -0.257946
7   -0.257963
8   0.102946
9   0.102927
10   0.316594
11   0.316617
12   0.085159
13   0.085213
14   -0.790388
15   -0.790401
16   0.111631
17   0.111647
18   0.123081
19   0.123076
20   0.169623
21   0.165126
22   0.109359
23   0.10935
24   0.316459
25   0.316357
26   0.316468
27   0.316356

>  <lowdin_charges>
27
1   -0.202177
2   -0.202166
3   -0.154841
4   -0.154838
5   -0.274592
6   -0.206732
7   -0.206748
8   0.002361
9   0.002361
10   0.057994
11   0.057999
12   -0.032834
13   -0.032836
14   -0.494166
15   -0.494162
16   0.151498
17   0.151507
18   0.153825
19   0.153825
20   0.167546
21   0.165302
22   0.148829
23   0.14882
24   0.274379
25   0.272733
26   0.274393
27   0.272721

$$$$

