PCCDB-ID:  41092
public computational chemistry database (PCCDB) project, http://pccdb.org

 24 24  0  0  1  0  0  0  0  0999 V2000
    1.3185    0.0392   -0.4798 C   0  0  0  0  0  0  0  0  0  0  0  0
    2.7881    2.5620    0.6702 C   0  0  0  0  0  0  0  0  0  0  0  0
    4.0286   -2.2663   -0.0196 C   0  0  0  0  0  0  0  0  0  0  0  0
    4.2048    1.4180    3.3328 C   0  0  0  0  0  0  0  0  0  0  0  0
    2.7716    0.0225    0.0224 C   0  0  1  0  0  0  0  0  0  0  0  0
    3.0981    1.1367    1.0116 C   0  0  0  0  0  0  0  0  0  0  0  0
    3.1604   -1.2784    0.7645 C   0  0  2  0  0  0  0  0  0  0  0  0
    3.6943    0.6778    2.1351 C   0  0  0  0  0  0  0  0  0  0  0  0
    3.8441   -0.7922    2.0492 C   0  0  0  0  0  0  0  0  0  0  0  0
    4.4213   -1.5039    2.8556 O   0  0  0  0  0  0  0  0  0  0  0  0
    1.0863    0.9576   -1.0303 H   0  0  0  0  0  0  0  0  0  0  0  0
    0.6133   -0.0426    0.3563 H   0  0  0  0  0  0  0  0  0  0  0  0
    1.1380   -0.8048   -1.1552 H   0  0  0  0  0  0  0  0  0  0  0  0
    3.1721    2.8156   -0.3271 H   0  0  0  0  0  0  0  0  0  0  0  0
    3.2139    3.2654    1.3906 H   0  0  0  0  0  0  0  0  0  0  0  0
    1.7036    2.7319    0.6380 H   0  0  0  0  0  0  0  0  0  0  0  0
    3.4928   -2.6671   -0.8874 H   0  0  0  0  0  0  0  0  0  0  0  0
    4.3213   -3.1000    0.6261 H   0  0  0  0  0  0  0  0  0  0  0  0
    4.9455   -1.7843   -0.3796 H   0  0  0  0  0  0  0  0  0  0  0  0
    4.2425    2.5000    3.1776 H   0  0  0  0  0  0  0  0  0  0  0  0
    5.2086    1.0629    3.5910 H   0  0  0  0  0  0  0  0  0  0  0  0
    3.5739    1.2226    4.2094 H   0  0  0  0  0  0  0  0  0  0  0  0
    3.4264    0.1496   -0.8551 H   0  0  0  0  0  0  0  0  0  0  0  0
    2.2438   -1.7977    1.0827 H   0  0  0  0  0  0  0  0  0  0  0  0
  1  5  1  0  0  0  0
  1 12  1  0  0  0  0
  2  6  1  0  0  0  0
  2 15  1  0  0  0  0
  3 18  1  0  0  0  0
  3  7  1  0  0  0  0
  4 21  1  0  0  0  0
  4 22  1  0  0  0  0
  5 23  1  6  0  0  0
  5  7  1  0  0  0  0
  5  6  1  0  0  0  0
  6  8  2  0  0  0  0
  7 24  1  1  0  0  0
  7  9  1  0  0  0  0
  8  4  1  0  0  0  0
  9  8  1  0  0  0  0
  9 10  2  0  0  0  0
 11  1  1  0  0  0  0
 13  1  1  0  0  0  0
 14  2  1  0  0  0  0
 16  2  1  0  0  0  0
 17  3  1  0  0  0  0
 19  3  1  0  0  0  0
 20  4  1  0  0  0  0
M  END
>  <HBA>
1

>  <HBD>
0

>  <TPSA>
17.07

>  <cid>
41092

>  <dipole>
3.69

>  <excitation_energy_1>
3.813

>  <excitation_energy_2>
5.488

>  <excitation_energy_3>
5.853

>  <excitation_energy_4>
6.181

>  <homo_energy>
-6.226

>  <homo_lumo_gap>
5.309

>  <logP>
2.178

>  <lumo_energy>
-0.917

>  <melting_point>
32.04

>  <molecular_refractivity>
42.99

>  <oscillator_strength_1>
0.0004

>  <oscillator_strength_2>
0.2928

>  <oscillator_strength_3>
0.0011

>  <oscillator_strength_4>
0.0093

>  <open_babel_can_smiles>
CC1=C(C)C(=O)[C@@H]([C@H]1C)C

>  <mulliken_charges>
24
1   -0.45769
2   -0.53102
3   -0.450818
4   -0.521079
5   -0.15054
6   0.10969
7   -0.174898
8   0.074409
9   0.388993
10   -0.488394
11   0.146383
12   0.149426
13   0.152846
14   0.162998
15   0.165408
16   0.171309
17   0.141403
18   0.171664
19   0.145239
20   0.148042
21   0.177213
22   0.168805
23   0.142713
24   0.157897

>  <lowdin_charges>
24
1   -0.446624
2   -0.444608
3   -0.439865
4   -0.4381
5   -0.126494
6   0.018074
7   -0.154391
8   -0.064758
9   0.141126
10   -0.259047
11   0.150481
12   0.150767
13   0.155332
14   0.16247
15   0.163749
16   0.165895
17   0.149481
18   0.165839
19   0.149499
20   0.152142
21   0.170985
22   0.16716
23   0.149106
24   0.161779

$$$$

