PCCDB-ID:  66883
public computational chemistry database (PCCDB) project, http://pccdb.org

 27 27  0  0  0  0  0  0  0  0999 V2000
    0.9534   -0.2432    1.1477 C   0  0  0  0  0  0  0  0  0  0  0  0
    1.5856   -0.6080   -0.1880 C   0  0  0  0  0  0  0  0  0  0  0  0
    8.2174   -1.0080    0.3775 C   0  0  0  0  0  0  0  0  0  0  0  0
    6.2561    0.5439    0.0449 C   0  0  0  0  0  0  0  0  0  0  0  0
    9.5917   -1.1906    0.4959 C   0  0  0  0  0  0  0  0  0  0  0  0
    5.2390   -0.3392    0.0742 C   0  0  0  0  0  0  0  0  0  0  0  0
    8.5828    1.3595    0.1066 C   0  0  0  0  0  0  0  0  0  0  0  0
    7.6838    0.2756    0.1798 C   0  0  0  0  0  0  0  0  0  0  0  0
   10.4738   -0.1099    0.4211 C   0  0  0  0  0  0  0  0  0  0  0  0
    9.9566    1.1867    0.2234 C   0  0  0  0  0  0  0  0  0  0  0  0
    3.8501    0.1280   -0.0859 C   0  0  0  0  0  0  0  0  0  0  0  0
   11.8257   -0.2323    0.5284 O   0  0  0  0  0  0  0  0  0  0  0  0
   10.8575    2.2103    0.1585 O   0  0  0  0  0  0  0  0  0  0  0  0
    3.4989    1.2843   -0.2436 O   0  0  0  0  0  0  0  0  0  0  0  0
    2.9874   -0.9214   -0.0398 O   0  0  0  0  0  0  0  0  0  0  0  0
   -0.1238   -0.0846    1.0201 H   0  0  0  0  0  0  0  0  0  0  0  0
    1.3923    0.6782    1.5407 H   0  0  0  0  0  0  0  0  0  0  0  0
    1.0990   -1.0448    1.8795 H   0  0  0  0  0  0  0  0  0  0  0  0
    1.4796    0.2074   -0.9079 H   0  0  0  0  0  0  0  0  0  0  0  0
    1.1443   -1.5181   -0.6032 H   0  0  0  0  0  0  0  0  0  0  0  0
    7.5619   -1.8701    0.4416 H   0  0  0  0  0  0  0  0  0  0  0  0
    5.9779    1.5875   -0.0978 H   0  0  0  0  0  0  0  0  0  0  0  0
    9.9954   -2.1900    0.6487 H   0  0  0  0  0  0  0  0  0  0  0  0
    5.3815   -1.4065    0.2088 H   0  0  0  0  0  0  0  0  0  0  0  0
    8.1901    2.3636   -0.0468 H   0  0  0  0  0  0  0  0  0  0  0  0
   12.0435   -1.1685    0.6598 H   0  0  0  0  0  0  0  0  0  0  0  0
   10.3735    3.0397    0.0220 H   0  0  0  0  0  0  0  0  0  0  0  0
  1 17  1  0  0  0  0
  1 18  1  0  0  0  0
  2 15  1  0  0  0  0
  2  1  1  0  0  0  0
  3 21  1  0  0  0  0
  3  5  2  0  0  0  0
  4  6  2  0  0  0  0
  4  8  1  0  0  0  0
  5 23  1  0  0  0  0
  6 24  1  0  0  0  0
  7  8  2  0  0  0  0
  7 10  1  0  0  0  0
  8  3  1  0  0  0  0
  9  5  1  0  0  0  0
  9 12  1  0  0  0  0
 10  9  2  0  0  0  0
 11 15  1  0  0  0  0
 11  6  1  0  0  0  0
 12 26  1  0  0  0  0
 13 10  1  0  0  0  0
 14 11  2  0  0  0  0
 16  1  1  0  0  0  0
 19  2  1  0  0  0  0
 20  2  1  0  0  0  0
 22  4  1  0  0  0  0
 25  7  1  0  0  0  0
 27 13  1  0  0  0  0
M  END
>  <HBA>
4

>  <HBD>
2

>  <TPSA>
66.76

>  <cid>
66883

>  <dipole>
2.08

>  <excitation_energy_1>
3.838

>  <excitation_energy_2>
4.377

>  <excitation_energy_3>
4.495

>  <excitation_energy_4>
4.847

>  <homo_energy>
-5.671

>  <homo_lumo_gap>
4.128

>  <logP>
1.674

>  <lumo_energy>
-1.543

>  <melting_point>
119.24

>  <molecular_refractivity>
56.28

>  <oscillator_strength_1>
0.4324

>  <oscillator_strength_2>
0.1561

>  <oscillator_strength_3>
0.0001

>  <oscillator_strength_4>
0.0

>  <open_babel_can_smiles>
CCOC(=O)/C=C/c1ccc(c(c1)O)O

>  <mulliken_charges>
27
1   -0.460682
2   -0.040951
3   -0.184176
4   -0.151031
5   -0.197795
6   -0.215422
7   -0.269751
8   0.173021
9   0.32692
10   0.328046
11   0.624697
12   -0.623211
13   -0.632744
14   -0.508717
15   -0.483267
16   0.146862
17   0.175919
18   0.154777
19   0.169105
20   0.148214
21   0.135552
22   0.162709
23   0.126252
24   0.144144
25   0.12914
26   0.411514
27   0.410875

>  <lowdin_charges>
27
1   -0.454282
2   -0.128747
3   -0.156267
4   -0.100585
5   -0.201165
6   -0.209996
7   -0.198749
8   -0.016608
9   0.087815
10   0.077313
11   0.19253
12   -0.356641
13   -0.365712
14   -0.289177
15   -0.200002
16   0.155223
17   0.165494
18   0.15538
19   0.158718
20   0.15052
21   0.163549
22   0.171812
23   0.157212
24   0.163427
25   0.158143
26   0.359495
27   0.361301

$$$$

