PCCDB-ID:  16256
public computational chemistry database (PCCDB) project, http://pccdb.org

 25 24  0  0  0  0  0  0  0  0999 V2000
    0.9547   -0.0741   -0.9531 C   0  0  0  0  0  0  0  0  0  0  0  0
    2.4606   -3.8762   -0.4468 C   0  0  0  0  0  0  0  0  0  0  0  0
    4.5631    1.7081    1.5936 C   0  0  0  0  0  0  0  0  0  0  0  0
    1.7594   -1.0813   -1.7909 C   0  0  0  0  0  0  0  0  0  0  0  0
    2.9099   -2.4654   -0.0562 C   0  0  0  0  0  0  0  0  0  0  0  0
    4.1227   -0.6990   -1.2660 C   0  0  0  0  0  0  0  0  0  0  0  0
    4.7228    0.4242    0.8083 C   0  0  0  0  0  0  0  0  0  0  0  0
    3.0140   -1.5630   -1.2094 N   0  0  0  0  0  0  0  0  0  0  0  0
    5.3592   -0.5388    1.1869 O   0  0  0  0  0  0  0  0  0  0  0  0
    4.0625    0.4959   -0.3664 O   0  0  0  0  0  0  0  0  0  0  0  0
    0.0279    0.1916   -1.4760 H   0  0  0  0  0  0  0  0  0  0  0  0
    1.5298    0.8392   -0.7780 H   0  0  0  0  0  0  0  0  0  0  0  0
    0.6755   -0.4914    0.0209 H   0  0  0  0  0  0  0  0  0  0  0  0
    2.4365   -4.5219    0.4388 H   0  0  0  0  0  0  0  0  0  0  0  0
    3.1518   -4.3126   -1.1756 H   0  0  0  0  0  0  0  0  0  0  0  0
    1.4566   -3.8847   -0.8858 H   0  0  0  0  0  0  0  0  0  0  0  0
    5.1413    1.6471    2.5164 H   0  0  0  0  0  0  0  0  0  0  0  0
    3.5059    1.8715    1.8290 H   0  0  0  0  0  0  0  0  0  0  0  0
    4.8981    2.5617    0.9957 H   0  0  0  0  0  0  0  0  0  0  0  0
    2.0017   -0.6328   -2.7628 H   0  0  0  0  0  0  0  0  0  0  0  0
    1.1340   -1.9557   -2.0067 H   0  0  0  0  0  0  0  0  0  0  0  0
    3.8965   -2.5099    0.4120 H   0  0  0  0  0  0  0  0  0  0  0  0
    2.2295   -2.0599    0.7102 H   0  0  0  0  0  0  0  0  0  0  0  0
    4.1916   -0.2387   -2.2537 H   0  0  0  0  0  0  0  0  0  0  0  0
    5.0416   -1.2265   -1.0120 H   0  0  0  0  0  0  0  0  0  0  0  0
  1 12  1  0  0  0  0
  1 13  1  0  0  0  0
  2  5  1  0  0  0  0
  2 14  1  0  0  0  0
  3 18  1  0  0  0  0
  3 17  1  0  0  0  0
  4  8  1  0  0  0  0
  4  1  1  0  0  0  0
  5 22  1  0  0  0  0
  5 23  1  0  0  0  0
  6  8  1  0  0  0  0
  6 25  1  0  0  0  0
  6 10  1  0  0  0  0
  7  9  2  0  0  0  0
  7  3  1  0  0  0  0
  8  5  1  0  0  0  0
 10  7  1  0  0  0  0
 11  1  1  0  0  0  0
 15  2  1  0  0  0  0
 16  2  1  0  0  0  0
 19  3  1  0  0  0  0
 20  4  1  0  0  0  0
 21  4  1  0  0  0  0
 24  6  1  0  0  0  0
M  END
>  <HBA>
3

>  <HBD>
0

>  <TPSA>
29.54

>  <cid>
16256

>  <dipole>
1.95

>  <excitation_energy_1>
5.336

>  <excitation_energy_2>
5.518

>  <excitation_energy_3>
5.786

>  <excitation_energy_4>
5.888

>  <homo_energy>
-5.943

>  <homo_lumo_gap>
6.452

>  <logP>
0.849

>  <lumo_energy>
0.509

>  <melting_point>
-12.15

>  <molecular_refractivity>
39.94

>  <oscillator_strength_1>
0.0072

>  <oscillator_strength_2>
0.0217

>  <oscillator_strength_3>
0.0052

>  <oscillator_strength_4>
0.0024

>  <open_babel_can_smiles>
CCN(COC(=O)C)CC

>  <mulliken_charges>
25
1   -0.450078
2   -0.44187
3   -0.522011
4   -0.138743
5   -0.143246
6   0.044873
7   0.60641
8   -0.35226
9   -0.479281
10   -0.467965
11   0.138764
12   0.164231
13   0.146242
14   0.144084
15   0.152203
16   0.14424
17   0.178989
18   0.178757
19   0.178262
20   0.138733
21   0.143893
22   0.175587
23   0.1302
24   0.150433
25   0.179551

>  <lowdin_charges>
25
1   -0.464511
2   -0.451751
3   -0.465402
4   -0.197765
5   -0.200893
6   -0.08093
7   0.200082
8   -0.157732
9   -0.280482
10   -0.236087
11   0.150436
12   0.157542
13   0.148392
14   0.153086
15   0.154121
16   0.146102
17   0.173372
18   0.174696
19   0.17623
20   0.144076
21   0.145506
22   0.163975
23   0.131518
24   0.151443
25   0.164975

$$$$

