PCCDB-ID:  11748
public computational chemistry database (PCCDB) project, http://pccdb.org

 13 12  0  0  0  0  0  0  0  0999 V2000
    4.1530    0.5828   -1.1296 C   0  0  0  0  0  0  0  0  0  0  0  0
    0.5468   -2.2375    0.6586 C   0  0  0  0  0  0  0  0  0  0  0  0
    2.6847    0.4358   -0.8144 C   0  0  0  0  0  0  0  0  0  0  0  0
    2.2958   -0.9252   -0.1879 C   0  0  0  0  0  0  0  0  0  0  0  0
    1.8489    1.2872   -1.0183 O   0  0  0  0  0  0  0  0  0  0  0  0
    3.1053   -1.8029    0.0288 O   0  0  0  0  0  0  0  0  0  0  0  0
    0.9880   -0.9990    0.0735 O   0  0  0  0  0  0  0  0  0  0  0  0
    4.7493    0.4618   -0.2181 H   0  0  0  0  0  0  0  0  0  0  0  0
    4.3334    1.5637   -1.5721 H   0  0  0  0  0  0  0  0  0  0  0  0
    4.4751   -0.2096   -1.8145 H   0  0  0  0  0  0  0  0  0  0  0  0
   -0.5273   -2.1243    0.8025 H   0  0  0  0  0  0  0  0  0  0  0  0
    1.0502   -2.4078    1.6139 H   0  0  0  0  0  0  0  0  0  0  0  0
    0.7622   -3.0734   -0.0123 H   0  0  0  0  0  0  0  0  0  0  0  0
  1  3  1  0  0  0  0
  1  8  1  0  0  0  0
  2 11  1  0  0  0  0
  2 12  1  0  0  0  0
  3  4  1  0  0  0  0
  4  6  2  0  0  0  0
  4  7  1  0  0  0  0
  5  3  2  0  0  0  0
  7  2  1  0  0  0  0
  9  1  1  0  0  0  0
 10  1  1  0  0  0  0
 13  2  1  0  0  0  0
M  END
>  <HBA>
3

>  <HBD>
0

>  <TPSA>
43.37

>  <cid>
11748

>  <dipole>
1.4

>  <excitation_energy_1>
3.291

>  <excitation_energy_2>
5.067

>  <excitation_energy_3>
5.939

>  <excitation_energy_4>
6.538

>  <homo_energy>
-6.934

>  <homo_lumo_gap>
4.931

>  <logP>
-0.252

>  <lumo_energy>
-2.003

>  <melting_point>
8.6

>  <molecular_refractivity>
22.83

>  <oscillator_strength_1>
0.0

>  <oscillator_strength_2>
0.0002

>  <oscillator_strength_3>
0.0379

>  <oscillator_strength_4>
0.0008

>  <open_babel_can_smiles>
COC(=O)C(=O)C

>  <mulliken_charges>
13
1   -0.522231
2   -0.224697
3   0.39093
4   0.561971
5   -0.400256
6   -0.467288
7   -0.42256
8   0.18846
9   0.180015
10   0.188601
11   0.176255
12   0.175401
13   0.175399

>  <lowdin_charges>
13
1   -0.467988
2   -0.274309
3   0.142053
4   0.157181
5   -0.185
6   -0.249005
7   -0.155102
8   0.183533
9   0.173864
10   0.184207
11   0.165042
12   0.162287
13   0.163237

$$$$

