PCCDB-ID:  19169
public computational chemistry database (PCCDB) project, http://pccdb.org

 18 17  0  0  0  0  0  0  0  0999 V2000
    0.7467    0.6352   -0.1849 C   0  0  0  0  0  0  0  0  0  0  0  0
    4.3539    1.4544    0.1228 C   0  0  0  0  0  0  0  0  0  0  0  0
    1.9790   -1.5211   -1.4859 C   0  0  0  0  0  0  0  0  0  0  0  0
    3.1219    3.6053    1.4330 C   0  0  0  0  0  0  0  0  0  0  0  0
    2.0805    0.5383   -0.3030 C   0  0  0  0  0  0  0  0  0  0  0  0
    3.0201    1.5512    0.2411 C   0  0  0  0  0  0  0  0  0  0  0  0
    2.7524   -0.4760   -0.9238 O   0  0  0  0  0  0  0  0  0  0  0  0
    2.3481    2.5666    0.8600 O   0  0  0  0  0  0  0  0  0  0  0  0
    0.3203    1.4843    0.3300 H   0  0  0  0  0  0  0  0  0  0  0  0
    0.0666   -0.1057   -0.5847 H   0  0  0  0  0  0  0  0  0  0  0  0
    4.7804    0.6032   -0.3884 H   0  0  0  0  0  0  0  0  0  0  0  0
    5.0338    2.1965    0.5208 H   0  0  0  0  0  0  0  0  0  0  0  0
    2.6916   -2.2251   -1.9197 H   0  0  0  0  0  0  0  0  0  0  0  0
    1.3102   -1.1447   -2.2713 H   0  0  0  0  0  0  0  0  0  0  0  0
    1.3795   -2.0301   -0.7195 H   0  0  0  0  0  0  0  0  0  0  0  0
    2.4097    4.3043    1.8755 H   0  0  0  0  0  0  0  0  0  0  0  0
    3.7204    4.1233    0.6719 H   0  0  0  0  0  0  0  0  0  0  0  0
    3.7918    3.2200    2.2132 H   0  0  0  0  0  0  0  0  0  0  0  0
  1  9  1  0  0  0  0
  2  6  2  0  0  0  0
  2 12  1  0  0  0  0
  3  7  1  0  0  0  0
  3 15  1  0  0  0  0
  4 16  1  0  0  0  0
  4 18  1  0  0  0  0
  5  1  2  0  0  0  0
  5  6  1  0  0  0  0
  6  8  1  0  0  0  0
  7  5  1  0  0  0  0
  8  4  1  0  0  0  0
 10  1  1  0  0  0  0
 11  2  1  0  0  0  0
 13  3  1  0  0  0  0
 14  3  1  0  0  0  0
 17  4  1  0  0  0  0
M  END
>  <HBA>
2

>  <HBD>
0

>  <TPSA>
18.46

>  <cid>
19169

>  <dipole>
0.02

>  <excitation_energy_1>
5.395

>  <excitation_energy_2>
5.517

>  <excitation_energy_3>
5.532

>  <excitation_energy_4>
5.676

>  <homo_energy>
-5.75

>  <homo_lumo_gap>
5.725

>  <logP>
1.307

>  <lumo_energy>
-0.024

>  <melting_point>
-78.82

>  <molecular_refractivity>
32.18

>  <oscillator_strength_1>
0.4235

>  <oscillator_strength_2>
0.0

>  <oscillator_strength_3>
0.0

>  <oscillator_strength_4>
0.0296

>  <open_babel_can_smiles>
COC(=C)C(=C)OC

>  <mulliken_charges>
18
1   -0.444821
2   -0.444848
3   -0.212735
4   -0.212758
5   0.383079
6   0.383087
7   -0.50101
8   -0.500991
9   0.166295
10   0.139448
11   0.166295
12   0.13945
13   0.165305
14   0.152214
15   0.152226
16   0.165309
17   0.1522
18   0.152255

>  <lowdin_charges>
18
1   -0.419811
2   -0.419803
3   -0.279545
4   -0.279629
5   0.093534
6   0.093537
7   -0.195553
8   -0.195535
9   0.180994
10   0.164035
11   0.180985
12   0.164034
13   0.161902
14   0.146887
15   0.147553
16   0.161922
17   0.147479
18   0.147013

$$$$

