PCCDB-ID:  31904
public computational chemistry database (PCCDB) project, http://pccdb.org

 25 24  0  0  1  0  0  0  0  0999 V2000
    0.8631    0.8899    0.1478 C   0  0  0  0  0  0  0  0  0  0  0  0
    1.2411   -0.0211    2.4872 C   0  0  0  0  0  0  0  0  0  0  0  0
    4.8500    1.5808   -2.8104 C   0  0  0  0  0  0  0  0  0  0  0  0
    3.1519    0.0722    0.8641 C   0  0  0  0  0  0  0  0  0  0  0  0
    5.0118    0.3192   -0.5989 C   0  0  0  0  0  0  0  0  0  0  0  0
    1.8553    0.7489    1.3098 C   0  0  0  0  0  0  0  0  0  0  0  0
    5.6473    1.3619   -1.5210 C   0  0  2  0  0  0  0  0  0  0  0  0
    5.8242    2.5802   -0.8040 O   0  0  0  0  0  0  0  0  0  0  0  0
    3.7821    0.8594   -0.1353 O   0  0  0  0  0  0  0  0  0  0  0  0
   -0.0351    1.4327    0.4649 H   0  0  0  0  0  0  0  0  0  0  0  0
    0.5454   -0.0965   -0.2159 H   0  0  0  0  0  0  0  0  0  0  0  0
    1.3129    1.4291   -0.6905 H   0  0  0  0  0  0  0  0  0  0  0  0
    0.3221    0.4646    2.8334 H   0  0  0  0  0  0  0  0  0  0  0  0
    1.9307   -0.0775    3.3380 H   0  0  0  0  0  0  0  0  0  0  0  0
    0.9819   -1.0473    2.1960 H   0  0  0  0  0  0  0  0  0  0  0  0
    4.7985    0.6609   -3.4057 H   0  0  0  0  0  0  0  0  0  0  0  0
    5.3275    2.3592   -3.4132 H   0  0  0  0  0  0  0  0  0  0  0  0
    3.8264    1.8965   -2.5826 H   0  0  0  0  0  0  0  0  0  0  0  0
    2.9370   -0.9355    0.4668 H   0  0  0  0  0  0  0  0  0  0  0  0
    3.8332   -0.0526    1.7230 H   0  0  0  0  0  0  0  0  0  0  0  0
    5.6814    0.1257    0.2540 H   0  0  0  0  0  0  0  0  0  0  0  0
    4.8437   -0.6333   -1.1280 H   0  0  0  0  0  0  0  0  0  0  0  0
    2.1263    1.7563    1.6575 H   0  0  0  0  0  0  0  0  0  0  0  0
    6.6575    1.0166   -1.7740 H   0  0  0  0  0  0  0  0  0  0  0  0
    4.9712    2.7416   -0.3654 H   0  0  0  0  0  0  0  0  0  0  0  0
  1 10  1  0  0  0  0
  1  6  1  0  0  0  0
  2 13  1  0  0  0  0
  2 14  1  0  0  0  0
  3 18  1  0  0  0  0
  3  7  1  0  0  0  0
  4  6  1  0  0  0  0
  4 20  1  0  0  0  0
  5  9  1  0  0  0  0
  5 21  1  0  0  0  0
  6 23  1  0  0  0  0
  6  2  1  0  0  0  0
  7 24  1  6  0  0  0
  7  8  1  0  0  0  0
  7  5  1  0  0  0  0
  8 25  1  0  0  0  0
  9  4  1  0  0  0  0
 11  1  1  0  0  0  0
 12  1  1  0  0  0  0
 15  2  1  0  0  0  0
 16  3  1  0  0  0  0
 17  3  1  0  0  0  0
 19  4  1  0  0  0  0
 22  5  1  0  0  0  0
M  END
>  <HBA>
2

>  <HBD>
1

>  <TPSA>
29.46

>  <cid>
31904

>  <dipole>
2.29

>  <excitation_energy_1>
6.665

>  <excitation_energy_2>
6.715

>  <excitation_energy_3>
6.963

>  <excitation_energy_4>
6.988

>  <homo_energy>
-6.98

>  <homo_lumo_gap>
9.059

>  <logP>
1.04

>  <lumo_energy>
2.079

>  <melting_point>
-17.56

>  <molecular_refractivity>
38.01

>  <oscillator_strength_1>
0.0171

>  <oscillator_strength_2>
0.0305

>  <oscillator_strength_3>
0.0019

>  <oscillator_strength_4>
0.0137

>  <open_babel_can_smiles>
CC(COC[C@H](O)C)C

>  <mulliken_charges>
25
1   -0.443796
2   -0.450414
3   -0.453367
4   0.006574
5   -0.026276
6   -0.093076
7   0.125131
8   -0.632445
9   -0.500653
10   0.14078
11   0.135791
12   0.16214
13   0.149087
14   0.143535
15   0.142036
16   0.132944
17   0.156358
18   0.154776
19   0.116127
20   0.120749
21   0.13019
22   0.120436
23   0.13385
24   0.133687
25   0.395837

>  <lowdin_charges>
25
1   -0.447242
2   -0.444158
3   -0.461714
4   -0.129042
5   -0.146672
6   -0.126938
7   -0.004541
8   -0.467634
9   -0.280936
10   0.149298
11   0.144408
12   0.158575
13   0.153956
14   0.149547
15   0.14607
16   0.147948
17   0.159306
18   0.153446
19   0.124807
20   0.129442
21   0.135575
22   0.130711
23   0.141826
24   0.143536
25   0.340428

$$$$

