PCCDB-ID:  10984
public computational chemistry database (PCCDB) project, http://pccdb.org

 22 21  0  0  0  0  0  0  0  0999 V2000
    1.2318   -0.3742   -0.6245 C   0  0  0  0  0  0  0  0  0  0  0  0
    3.4453    0.0510   -1.7661 C   0  0  0  0  0  0  0  0  0  0  0  0
    3.0942    0.7162    0.6826 C   0  0  0  0  0  0  0  0  0  0  0  0
    4.5687    0.7418    1.0611 C   0  0  0  0  0  0  0  0  0  0  0  0
    2.7537   -0.2885   -0.4359 C   0  0  0  0  0  0  0  0  0  0  0  0
    5.9349    1.8162    2.6582 C   0  0  0  0  0  0  0  0  0  0  0  0
    6.9643    1.2493    2.1654 N   0  0  0  0  0  0  0  0  0  0  0  0
    5.8401    2.6800    3.7063 O   0  0  0  0  0  0  0  0  0  0  0  0
    4.6989    1.6348    2.1862 O   0  0  0  0  0  0  0  0  0  0  0  0
    0.9697   -1.1134   -1.3904 H   0  0  0  0  0  0  0  0  0  0  0  0
    0.8208    0.5931   -0.9414 H   0  0  0  0  0  0  0  0  0  0  0  0
    0.7288   -0.6606    0.3066 H   0  0  0  0  0  0  0  0  0  0  0  0
    3.1593   -0.6633   -2.5470 H   0  0  0  0  0  0  0  0  0  0  0  0
    4.5375    0.0279   -1.6849 H   0  0  0  0  0  0  0  0  0  0  0  0
    3.1566    1.0526   -2.1111 H   0  0  0  0  0  0  0  0  0  0  0  0
    2.7822    1.7259    0.3821 H   0  0  0  0  0  0  0  0  0  0  0  0
    2.5169    0.4653    1.5819 H   0  0  0  0  0  0  0  0  0  0  0  0
    5.2097    1.1039    0.2524 H   0  0  0  0  0  0  0  0  0  0  0  0
    4.9330   -0.2501    1.3521 H   0  0  0  0  0  0  0  0  0  0  0  0
    3.1070   -1.2807   -0.1144 H   0  0  0  0  0  0  0  0  0  0  0  0
    7.8207    1.5066    2.6555 H   0  0  0  0  0  0  0  0  0  0  0  0
    6.7310    2.8283    4.0580 H   0  0  0  0  0  0  0  0  0  0  0  0
  1  5  1  0  0  0  0
  1 12  1  0  0  0  0
  2 14  1  0  0  0  0
  2  5  1  0  0  0  0
  3  4  1  0  0  0  0
  3 17  1  0  0  0  0
  4 19  1  0  0  0  0
  4  9  1  0  0  0  0
  5 20  1  0  0  0  0
  5  3  1  0  0  0  0
  6  8  1  0  0  0  0
  7 21  1  0  0  0  0
  7  6  2  0  0  0  0
  8 22  1  0  0  0  0
  9  6  1  0  0  0  0
 10  1  1  0  0  0  0
 11  1  1  0  0  0  0
 13  2  1  0  0  0  0
 15  2  1  0  0  0  0
 16  3  1  0  0  0  0
 18  4  1  0  0  0  0
M  END
>  <HBA>
3

>  <HBD>
1

>  <TPSA>
52.32

>  <cid>
10984

>  <dipole>
0.95

>  <excitation_energy_1>
5.896

>  <excitation_energy_2>
6.403

>  <excitation_energy_3>
7.071

>  <excitation_energy_4>
7.214

>  <homo_energy>
-7.012

>  <homo_lumo_gap>
8.321

>  <logP>
1.828

>  <lumo_energy>
1.309

>  <melting_point>
50.46

>  <molecular_refractivity>
35.34

>  <oscillator_strength_1>
0.0052

>  <oscillator_strength_2>
0.0487

>  <oscillator_strength_3>
0.009

>  <oscillator_strength_4>
0.0022

>  <open_babel_can_smiles>
CC(CCOC(=N)O)C

>  <mulliken_charges>
22
1   -0.440881
2   -0.449131
3   -0.271356
4   -0.023036
5   -0.076381
6   0.64536
7   -0.630411
8   -0.571086
9   -0.450904
10   0.141349
11   0.141183
12   0.142376
13   0.143055
14   0.149126
15   0.141338
16   0.14168
17   0.145716
18   0.161979
19   0.154483
20   0.124714
21   0.274099
22   0.406729

>  <lowdin_charges>
22
1   -0.444113
2   -0.446391
3   -0.282517
4   -0.120837
5   -0.11897
6   0.188334
7   -0.474185
8   -0.366198
9   -0.178259
10   0.149502
11   0.146781
12   0.149061
13   0.15092
14   0.148268
15   0.146363
16   0.146478
17   0.151297
18   0.154196
19   0.149259
20   0.135831
21   0.255921
22   0.359258

$$$$

