PCCDB-ID:  13010
public computational chemistry database (PCCDB) project, http://pccdb.org

 15 15  0  0  0  0  0  0  0  0999 V2000
    0.8977   -0.1296   -0.0472 C   0  0  0  0  0  0  0  0  0  0  0  0
    2.7833    2.6128   -0.2576 C   0  0  0  0  0  0  0  0  0  0  0  0
    2.3765    0.0619   -0.0572 C   0  0  0  0  0  0  0  0  0  0  0  0
    3.1378    1.1691   -0.1407 C   0  0  0  0  0  0  0  0  0  0  0  0
    3.2953   -1.1113    0.0393 C   0  0  0  0  0  0  0  0  0  0  0  0
    4.5669    0.7382   -0.0989 C   0  0  0  0  0  0  0  0  0  0  0  0
    3.0249   -2.2772    0.1273 O   0  0  0  0  0  0  0  0  0  0  0  0
    5.5601    1.4103   -0.1460 O   0  0  0  0  0  0  0  0  0  0  0  0
    4.6079   -0.6488    0.0110 O   0  0  0  0  0  0  0  0  0  0  0  0
    0.3648    0.8213   -0.1230 H   0  0  0  0  0  0  0  0  0  0  0  0
    0.5835   -0.6370    0.8725 H   0  0  0  0  0  0  0  0  0  0  0  0
    0.5889   -0.7735   -0.8790 H   0  0  0  0  0  0  0  0  0  0  0  0
    1.7014    2.7648   -0.2729 H   0  0  0  0  0  0  0  0  0  0  0  0
    3.2116    3.0396   -1.1722 H   0  0  0  0  0  0  0  0  0  0  0  0
    3.2071    3.1805    0.5791 H   0  0  0  0  0  0  0  0  0  0  0  0
  1 11  1  0  0  0  0
  2  4  1  0  0  0  0
  2 15  1  0  0  0  0
  3  1  1  0  0  0  0
  3  5  1  0  0  0  0
  4  6  1  0  0  0  0
  4  3  2  0  0  0  0
  5  7  2  0  0  0  0
  6  9  1  0  0  0  0
  8  6  2  0  0  0  0
  9  5  1  0  0  0  0
 10  1  1  0  0  0  0
 12  1  1  0  0  0  0
 13  2  1  0  0  0  0
 14  2  1  0  0  0  0
M  END
>  <HBA>
3

>  <HBD>
0

>  <TPSA>
43.37

>  <cid>
13010

>  <dipole>
4.87

>  <excitation_energy_1>
3.83

>  <excitation_energy_2>
4.5

>  <excitation_energy_3>
4.816

>  <excitation_energy_4>
6.004

>  <homo_energy>
-7.826

>  <homo_lumo_gap>
5.167

>  <logP>
0.406

>  <lumo_energy>
-2.659

>  <melting_point>
46.48

>  <molecular_refractivity>
29.85

>  <oscillator_strength_1>
0.0

>  <oscillator_strength_2>
0.0

>  <oscillator_strength_3>
0.1044

>  <oscillator_strength_4>
0.3011

>  <open_babel_can_smiles>
O=C1OC(=O)C(=C1C)C

>  <mulliken_charges>
15
1   -0.524318
2   -0.524338
3   0.047388
4   0.047212
5   0.587821
6   0.587929
7   -0.426318
8   -0.426312
9   -0.471338
10   0.168349
11   0.191404
12   0.191401
13   0.168336
14   0.191391
15   0.191393

>  <lowdin_charges>
15
1   -0.436651
2   -0.435418
3   -0.025393
4   -0.026444
5   0.201681
6   0.207029
7   -0.18966
8   -0.19182
9   -0.160791
10   0.166165
11   0.181446
12   0.181877
13   0.164471
14   0.181511
15   0.181997

$$$$

