PCCDB-ID:  35309
public computational chemistry database (PCCDB) project, http://pccdb.org

 23 23  0  0  1  0  0  0  0  0999 V2000
    2.4515   -0.5343   -1.5176 C   0  0  0  0  0  0  0  0  0  0  0  0
    7.7768   -0.0317   -0.2251 C   0  0  0  0  0  0  0  0  0  0  0  0
    6.5324   -3.4861    2.9753 C   0  0  0  0  0  0  0  0  0  0  0  0
    2.7015    0.0358   -0.1129 C   0  0  0  0  0  0  0  0  0  0  0  0
    6.7567   -0.8319    0.5349 C   0  0  2  0  0  0  0  0  0  0  0  0
    6.0850   -2.4207    2.0165 C   0  0  0  0  0  0  0  0  0  0  0  0
    4.3877   -1.2327    0.9715 C   0  0  0  0  0  0  0  0  0  0  0  0
    3.1437   -0.9863    0.8170 N   0  0  0  0  0  0  0  0  0  0  0  0
    7.1292   -1.7459    1.3817 N   0  0  0  0  0  0  0  0  0  0  0  0
    5.4448   -0.5593    0.2903 N   0  0  0  0  0  0  0  0  0  0  0  0
    4.8122   -2.2168    1.8574 N   0  0  0  0  0  0  0  0  0  0  0  0
    2.0312    0.2305   -2.1813 H   0  0  0  0  0  0  0  0  0  0  0  0
    1.7483   -1.3706   -1.4603 H   0  0  0  0  0  0  0  0  0  0  0  0
    3.3770   -0.9100   -1.9707 H   0  0  0  0  0  0  0  0  0  0  0  0
    8.7747   -0.3575    0.0694 H   0  0  0  0  0  0  0  0  0  0  0  0
    7.6704    1.0392   -0.0136 H   0  0  0  0  0  0  0  0  0  0  0  0
    7.6575   -0.1729   -1.3063 H   0  0  0  0  0  0  0  0  0  0  0  0
    7.1673   -3.0451    3.7529 H   0  0  0  0  0  0  0  0  0  0  0  0
    7.1468   -4.2267    2.4499 H   0  0  0  0  0  0  0  0  0  0  0  0
    5.6709   -3.9743    3.4323 H   0  0  0  0  0  0  0  0  0  0  0  0
    1.7597    0.4435    0.2734 H   0  0  0  0  0  0  0  0  0  0  0  0
    3.3863    0.9047   -0.1824 H   0  0  0  0  0  0  0  0  0  0  0  0
    5.2090    0.1597   -0.3806 H   0  0  0  0  0  0  0  0  0  0  0  0
  1 13  1  0  0  0  0
  1  4  1  0  0  0  0
  2 16  1  0  0  0  0
  2 15  1  0  0  0  0
  3 20  1  0  0  0  0
  3 18  1  0  0  0  0
  4 21  1  0  0  0  0
  4  8  1  0  0  0  0
  5  2  1  6  0  0  0
  5  9  1  0  0  0  0
  6  3  1  0  0  0  0
  7 11  2  0  0  0  0
  8  7  1  0  0  0  0
  9  6  2  0  0  0  0
 10  5  1  0  0  0  0
 10  7  1  0  0  0  0
 11  6  1  0  0  0  0
 12  1  1  0  0  0  0
 14  1  1  0  0  0  0
 17  2  1  0  0  0  0
 19  3  1  0  0  0  0
 22  4  1  0  0  0  0
 23 10  1  0  0  0  0
M  RAD  2   5   2   8   2
M  END
>  <HBA>
4

>  <HBD>
1

>  <TPSA>
50.7

>  <cid>
35309

>  <dipole>
4.72

>  <excitation_energy_1>
4.003

>  <excitation_energy_2>
4.236

>  <excitation_energy_3>
4.58

>  <excitation_energy_4>
5.023

>  <homo_energy>
-5.968

>  <homo_lumo_gap>
4.825

>  <logP>
0.993

>  <lumo_energy>
-1.143

>  <melting_point>
93.4

>  <molecular_refractivity>
43.87

>  <oscillator_strength_1>
0.0233

>  <oscillator_strength_2>
0.0026

>  <oscillator_strength_3>
0.0011

>  <oscillator_strength_4>
0.0228

>  <open_babel_can_smiles>
CC[N]C1=NC(=N[C](N1)C)C

>  <mulliken_charges>
23
1   -0.439138
2   -0.538921
3   -0.499932
4   -0.162412
5   0.534615
6   0.415186
7   0.630364
8   -0.44182
9   -0.493656
10   -0.664227
11   -0.455054
12   0.140463
13   0.170834
14   0.132893
15   0.203421
16   0.177957
17   0.177771
18   0.17086
19   0.170387
20   0.17906
21   0.155923
22   0.092336
23   0.343091

>  <lowdin_charges>
23
1   -0.452771
2   -0.449817
3   -0.447057
4   -0.203953
5   0.135785
6   0.112933
7   0.111463
8   -0.224429
9   -0.231311
10   -0.233909
11   -0.172176
12   0.150735
13   0.162946
14   0.141505
15   0.187131
16   0.170857
17   0.170669
18   0.171937
19   0.171807
20   0.172876
21   0.152238
22   0.107784
23   0.294759

$$$$

