PCCDB-ID:  18302
public computational chemistry database (PCCDB) project, http://pccdb.org

 17 16  0  0  1  0  0  0  0  0999 V2000
    0.9294   -0.1082   -0.2891 C   0  0  0  0  0  0  0  0  0  0  0  0
    0.3448    0.6625    0.9041 C   0  0  0  0  0  0  0  0  0  0  0  0
    3.0466   -0.8639   -1.4938 C   0  0  0  0  0  0  0  0  0  0  0  0
    2.4560   -0.1345   -0.2922 C   0  0  1  0  0  0  0  0  0  0  0  0
    0.5413    2.0607    0.8150 O   0  0  0  0  0  0  0  0  0  0  0  0
    4.4658   -0.7217   -1.3834 O   0  0  0  0  0  0  0  0  0  0  0  0
    2.9330    1.2151   -0.2953 O   0  0  0  0  0  0  0  0  0  0  0  0
    0.5673    0.3536   -1.2165 H   0  0  0  0  0  0  0  0  0  0  0  0
    0.5659   -1.1450   -0.2655 H   0  0  0  0  0  0  0  0  0  0  0  0
    0.7651    0.2515    1.8404 H   0  0  0  0  0  0  0  0  0  0  0  0
   -0.7390    0.5057    0.9448 H   0  0  0  0  0  0  0  0  0  0  0  0
    2.6740   -0.3998   -2.4185 H   0  0  0  0  0  0  0  0  0  0  0  0
    2.7498   -1.9234   -1.4866 H   0  0  0  0  0  0  0  0  0  0  0  0
    2.8108   -0.6439    0.6202 H   0  0  0  0  0  0  0  0  0  0  0  0
    1.4839    2.1868    0.6054 H   0  0  0  0  0  0  0  0  0  0  0  0
    4.8658   -0.9354   -2.2387 H   0  0  0  0  0  0  0  0  0  0  0  0
    3.8917    1.1545   -0.4510 H   0  0  0  0  0  0  0  0  0  0  0  0
  1  9  1  0  0  0  0
  1  2  1  0  0  0  0
  2 11  1  0  0  0  0
  2 10  1  0  0  0  0
  3 13  1  0  0  0  0
  3  6  1  0  0  0  0
  3  4  1  0  0  0  0
  4  1  1  0  0  0  0
  4 14  1  1  0  0  0
  5  2  1  0  0  0  0
  7  4  1  0  0  0  0
  8  1  1  0  0  0  0
 12  3  1  0  0  0  0
 15  5  1  0  0  0  0
 16  6  1  0  0  0  0
 17  7  1  0  0  0  0
M  END
>  <HBA>
3

>  <HBD>
3

>  <TPSA>
60.69

>  <cid>
18302

>  <dipole>
4.31

>  <excitation_energy_1>
6.147

>  <excitation_energy_2>
6.615

>  <excitation_energy_3>
6.64

>  <excitation_energy_4>
6.739

>  <homo_energy>
-6.634

>  <homo_lumo_gap>
8.019

>  <logP>
-1.278

>  <lumo_energy>
1.385

>  <melting_point>
30.62

>  <molecular_refractivity>
24.83

>  <oscillator_strength_1>
0.0009

>  <oscillator_strength_2>
0.0063

>  <oscillator_strength_3>
0.0156

>  <oscillator_strength_4>
0.0091

>  <open_babel_can_smiles>
OCC[C@@H](CO)O

>  <mulliken_charges>
17
1   -0.29895
2   -0.014883
3   -0.051669
4   0.139364
5   -0.639145
6   -0.636009
7   -0.656056
8   0.150946
9   0.130325
10   0.109777
11   0.137144
12   0.135147
13   0.129481
14   0.128585
15   0.418221
16   0.404361
17   0.41336

>  <lowdin_charges>
17
1   -0.301492
2   -0.126653
3   -0.150007
4   -0.008616
5   -0.48138
6   -0.477049
7   -0.468875
8   0.153279
9   0.149168
10   0.12029
11   0.141399
12   0.137238
13   0.134783
14   0.132642
15   0.343322
16   0.352487
17   0.349465

$$$$

