PCCDB-ID:  66083
public computational chemistry database (PCCDB) project, http://pccdb.org

 17 16  0  0  0  0  0  0  0  0999 V2000
    1.0228    0.1409   -0.0882 C   0  0  0  0  0  0  0  0  0  0  0  0
    2.5602    0.0920   -0.0119 C   0  0  0  0  0  0  0  0  0  0  0  0
    3.0589   -0.4682    1.2470 C   0  0  0  0  0  0  0  0  0  0  0  0
    3.4531   -0.9329    2.2928 C   0  0  0  0  0  0  0  0  0  0  0  0
    3.9407   -1.4385    3.5763 C   0  0  0  0  0  0  0  0  0  0  0  0
    4.4054   -0.3086    4.5175 C   0  0  0  0  0  0  0  0  0  0  0  0
    4.9113   -0.8091    5.7460 O   0  0  0  0  0  0  0  0  0  0  0  0
    0.7019    0.5764   -1.0411 H   0  0  0  0  0  0  0  0  0  0  0  0
    0.6114    0.7487    0.7239 H   0  0  0  0  0  0  0  0  0  0  0  0
    0.5961   -0.8639   -0.0076 H   0  0  0  0  0  0  0  0  0  0  0  0
    2.9647    1.1055   -0.1418 H   0  0  0  0  0  0  0  0  0  0  0  0
    2.9494   -0.4969   -0.8540 H   0  0  0  0  0  0  0  0  0  0  0  0
    4.7797   -2.1313    3.4290 H   0  0  0  0  0  0  0  0  0  0  0  0
    3.1479   -2.0157    4.0767 H   0  0  0  0  0  0  0  0  0  0  0  0
    3.5813    0.4038    4.6735 H   0  0  0  0  0  0  0  0  0  0  0  0
    5.2299    0.2400    4.0533 H   0  0  0  0  0  0  0  0  0  0  0  0
    4.1693   -1.2003    6.2327 H   0  0  0  0  0  0  0  0  0  0  0  0
  1  2  1  0  0  0  0
  1 10  1  0  0  0  0
  1  9  1  0  0  0  0
  2  3  1  0  0  0  0
  3  4  3  0  0  0  0
  4  5  1  0  0  0  0
  5 14  1  0  0  0  0
  5  6  1  0  0  0  0
  6 15  1  0  0  0  0
  6  7  1  0  0  0  0
  7 17  1  0  0  0  0
  8  1  1  0  0  0  0
 11  2  1  0  0  0  0
 12  2  1  0  0  0  0
 13  5  1  0  0  0  0
 16  6  1  0  0  0  0
M  END
>  <HBA>
1

>  <HBD>
1

>  <TPSA>
20.23

>  <cid>
66083

>  <dipole>
1.73

>  <excitation_energy_1>
6.03

>  <excitation_energy_2>
6.156

>  <excitation_energy_3>
6.3

>  <excitation_energy_4>
6.455

>  <homo_energy>
-6.591

>  <homo_lumo_gap>
8.104

>  <logP>
0.782

>  <lumo_energy>
1.513

>  <melting_point>
9.4

>  <molecular_refractivity>
30.28

>  <oscillator_strength_1>
0.0043

>  <oscillator_strength_2>
0.0227

>  <oscillator_strength_3>
0.0073

>  <oscillator_strength_4>
0.0145

>  <open_babel_can_smiles>
OCCC#CCC

>  <mulliken_charges>
17
1   -0.434861
2   -0.390528
3   0.026764
4   0.050837
5   -0.41783
6   -0.027909
7   -0.607706
8   0.14587
9   0.155749
10   0.156818
11   0.166639
12   0.166988
13   0.177362
14   0.151512
15   0.131987
16   0.159472
17   0.388837

>  <lowdin_charges>
17
1   -0.436417
2   -0.257361
3   -0.083273
4   -0.094102
5   -0.278431
6   -0.13265
7   -0.464251
8   0.150869
9   0.155782
10   0.154655
11   0.162892
12   0.164411
13   0.170023
14   0.15727
15   0.132783
16   0.154945
17   0.342853

$$$$

