PCCDB-ID:  16591
public computational chemistry database (PCCDB) project, http://pccdb.org

 20 19  0  0  0  0  0  0  0  0999 V2000
   11.7298    5.7439    0.2208 C   0  0  0  0  0  0  0  0  0  0  0  0
    9.0043    1.5824    5.7918 C   0  0  0  0  0  0  0  0  0  0  0  0
   10.6417    5.0537   -0.1268 C   0  0  0  0  0  0  0  0  0  0  0  0
    8.3094    2.1979    4.5709 C   0  0  0  0  0  0  0  0  0  0  0  0
   10.2309    3.7577    0.5008 C   0  0  0  0  0  0  0  0  0  0  0  0
    8.6968    1.4925    3.2719 C   0  0  0  0  0  0  0  0  0  0  0  0
    8.6991    4.0617    1.5240 S   0  0  0  0  0  0  0  0  0  0  0  0
    7.8782    2.1618    1.7549 S   0  0  0  0  0  0  0  0  0  0  0  0
   11.9880    6.6823   -0.2619 H   0  0  0  0  0  0  0  0  0  0  0  0
   12.4060    5.3931    0.9976 H   0  0  0  0  0  0  0  0  0  0  0  0
    8.7152    2.1053    6.7102 H   0  0  0  0  0  0  0  0  0  0  0  0
   10.0959    1.6443    5.7034 H   0  0  0  0  0  0  0  0  0  0  0  0
    8.7401    0.5248    5.9135 H   0  0  0  0  0  0  0  0  0  0  0  0
    9.9789    5.4397   -0.9004 H   0  0  0  0  0  0  0  0  0  0  0  0
    8.5718    3.2598    4.4914 H   0  0  0  0  0  0  0  0  0  0  0  0
    7.2204    2.1524    4.6930 H   0  0  0  0  0  0  0  0  0  0  0  0
   11.0212    3.3574    1.1420 H   0  0  0  0  0  0  0  0  0  0  0  0
    9.9661    3.0083   -0.2513 H   0  0  0  0  0  0  0  0  0  0  0  0
    8.3798    0.4413    3.2855 H   0  0  0  0  0  0  0  0  0  0  0  0
    9.7815    1.5024    3.1201 H   0  0  0  0  0  0  0  0  0  0  0  0
  1 10  1  0  0  0  0
  2 13  1  0  0  0  0
  2 11  1  0  0  0  0
  3  1  2  0  0  0  0
  3  5  1  0  0  0  0
  4 16  1  0  0  0  0
  4  2  1  0  0  0  0
  5 17  1  0  0  0  0
  5  7  1  0  0  0  0
  6 19  1  0  0  0  0
  6  4  1  0  0  0  0
  7  8  1  0  0  0  0
  8  6  1  0  0  0  0
  9  1  1  0  0  0  0
 12  2  1  0  0  0  0
 14  3  1  0  0  0  0
 15  4  1  0  0  0  0
 18  5  1  0  0  0  0
 20  6  1  0  0  0  0
M  END
>  <HBA>
2

>  <HBD>
0

>  <TPSA>
50.6

>  <cid>
16591

>  <dipole>
2.21

>  <excitation_energy_1>
4.43

>  <excitation_energy_2>
4.511

>  <excitation_energy_3>
5.296

>  <excitation_energy_4>
5.489

>  <homo_energy>
-6.343

>  <homo_lumo_gap>
5.551

>  <logP>
2.964

>  <lumo_energy>
-0.792

>  <melting_point>
-29.22

>  <molecular_refractivity>
45.66

>  <oscillator_strength_1>
0.0066

>  <oscillator_strength_2>
0.0033

>  <oscillator_strength_3>
0.0172

>  <oscillator_strength_4>
0.0339

>  <open_babel_can_smiles>
CCCSSCC=C

>  <mulliken_charges>
20
1   -0.320861
2   -0.44595
3   -0.054067
4   -0.24618
5   -0.452691
6   -0.415714
7   0.016597
8   0.000723
9   0.150464
10   0.14429
11   0.152032
12   0.144236
13   0.144241
14   0.149761
15   0.164325
16   0.150885
17   0.175175
18   0.195746
19   0.175103
20   0.171884

>  <lowdin_charges>
20
1   -0.32121
2   -0.441743
3   -0.153624
4   -0.275389
5   -0.373455
6   -0.37691
7   0.023164
8   0.024686
9   0.164303
10   0.159453
11   0.155226
12   0.145819
13   0.146006
14   0.163168
15   0.154203
16   0.148723
17   0.161559
18   0.174843
19   0.165745
20   0.155431

$$$$

