PCCDB-ID:  32216
public computational chemistry database (PCCDB) project, http://pccdb.org

 27 27  0  0  0  0  0  0  0  0999 V2000
    2.9178    3.4729    3.1994 C   0  0  0  0  0  0  0  0  0  0  0  0
    6.8549    2.7050   -0.9985 C   0  0  0  0  0  0  0  0  0  0  0  0
    6.4550    1.9294   -2.2657 C   0  0  0  0  0  0  0  0  0  0  0  0
    5.9224    3.6119   -4.0090 C   0  0  0  0  0  0  0  0  0  0  0  0
    6.2030    2.3209   -4.6985 C   0  0  0  0  0  0  0  0  0  0  0  0
    4.8966    2.1749    2.9711 C   0  0  0  0  0  0  0  0  0  0  0  0
    4.6488    1.3972    1.6807 C   0  0  0  0  0  0  0  0  0  0  0  0
    6.4726    1.9505    0.2566 C   0  0  0  0  0  0  0  0  0  0  0  0
    6.8860    2.6616   -3.4529 N   0  0  0  0  0  0  0  0  0  0  0  0
    7.2229    1.2692    0.9224 O   0  0  0  0  0  0  0  0  0  0  0  0
    4.3162    3.4640    2.9981 O   0  0  0  0  0  0  0  0  0  0  0  0
    5.1509    2.0977    0.5252 O   0  0  0  0  0  0  0  0  0  0  0  0
    2.6195    4.5202    3.2937 H   0  0  0  0  0  0  0  0  0  0  0  0
    2.6382    2.9382    4.1219 H   0  0  0  0  0  0  0  0  0  0  0  0
    2.3623    3.0293    2.3592 H   0  0  0  0  0  0  0  0  0  0  0  0
    6.3583    3.6811   -1.0000 H   0  0  0  0  0  0  0  0  0  0  0  0
    7.9366    2.8559   -0.9912 H   0  0  0  0  0  0  0  0  0  0  0  0
    5.3652    1.7450   -2.2562 H   0  0  0  0  0  0  0  0  0  0  0  0
    6.9551    0.9535   -2.2721 H   0  0  0  0  0  0  0  0  0  0  0  0
    4.9552    3.7106   -3.5137 H   0  0  0  0  0  0  0  0  0  0  0  0
    6.3397    4.5438   -4.3839 H   0  0  0  0  0  0  0  0  0  0  0  0
    6.8306    2.2893   -5.5865 H   0  0  0  0  0  0  0  0  0  0  0  0
    5.4224    1.5596   -4.6641 H   0  0  0  0  0  0  0  0  0  0  0  0
    5.9724    2.3231    3.0965 H   0  0  0  0  0  0  0  0  0  0  0  0
    4.5358    1.5617    3.8159 H   0  0  0  0  0  0  0  0  0  0  0  0
    3.5822    1.2674    1.4821 H   0  0  0  0  0  0  0  0  0  0  0  0
    5.1261    0.4154    1.7520 H   0  0  0  0  0  0  0  0  0  0  0  0
  1 13  1  0  0  0  0
  1 14  1  0  0  0  0
  2 17  1  0  0  0  0
  2  8  1  0  0  0  0
  3 18  1  0  0  0  0
  3  2  1  0  0  0  0
  4 20  1  0  0  0  0
  4  9  1  0  0  0  0
  5 23  1  0  0  0  0
  5  4  1  0  0  0  0
  5  9  1  0  0  0  0
  6 11  1  0  0  0  0
  6 24  1  0  0  0  0
  6 25  1  0  0  0  0
  7 27  1  0  0  0  0
  7  6  1  0  0  0  0
  8 12  1  0  0  0  0
  8 10  2  0  0  0  0
  9  3  1  0  0  0  0
 11  1  1  0  0  0  0
 12  7  1  0  0  0  0
 15  1  1  0  0  0  0
 16  2  1  0  0  0  0
 19  3  1  0  0  0  0
 21  4  1  0  0  0  0
 22  5  1  0  0  0  0
 26  7  1  0  0  0  0
M  END
>  <HBA>
4

>  <HBD>
0

>  <TPSA>
38.54

>  <cid>
32216

>  <dipole>
3.45

>  <excitation_energy_1>
5.703

>  <excitation_energy_2>
5.807

>  <excitation_energy_3>
6.18

>  <excitation_energy_4>
6.336

>  <homo_energy>
-6.468

>  <homo_lumo_gap>
6.748

>  <logP>
-0.18

>  <lumo_energy>
0.28

>  <melting_point>
-13.11

>  <molecular_refractivity>
47.64

>  <oscillator_strength_1>
0.0034

>  <oscillator_strength_2>
0.0008

>  <oscillator_strength_3>
0.0329

>  <oscillator_strength_4>
0.0292

>  <open_babel_can_smiles>
COCCOC(=O)CCN1CC1

>  <mulliken_charges>
27
1   -0.200822
2   -0.329519
3   -0.13592
4   -0.197185
5   -0.193207
6   -0.045593
7   -0.069017
8   0.597956
9   -0.352011
10   -0.476515
11   -0.447161
12   -0.448018
13   0.163104
14   0.129773
15   0.132787
16   0.168642
17   0.181438
18   0.127815
19   0.160067
20   0.147532
21   0.160357
22   0.16022
23   0.145355
24   0.177613
25   0.121518
26   0.153349
27   0.167444

>  <lowdin_charges>
27
1   -0.281222
2   -0.295293
3   -0.190779
4   -0.245364
5   -0.240415
6   -0.144951
7   -0.148776
8   0.202859
9   -0.193027
10   -0.269383
11   -0.265525
12   -0.194303
13   0.156983
14   0.13191
15   0.132412
16   0.167024
17   0.172716
18   0.124993
19   0.152383
20   0.148036
21   0.160403
22   0.160608
23   0.148641
24   0.162782
25   0.134122
26   0.151696
27   0.161469

$$$$

