PCCDB-ID:  69431
public computational chemistry database (PCCDB) project, http://pccdb.org

  9  8  0  0  0  0  0  0  0  0999 V2000
    1.0350   -0.2082    0.0111 C   0  0  0  0  0  0  0  0  0  0  0  0
    0.3696    0.1483   -1.3232 C   0  0  0  0  0  0  0  0  0  0  0  0
    0.5793    0.1865    1.0605 O   0  0  0  0  0  0  0  0  0  0  0  0
   -0.0364   -1.1094   -1.8336 O   0  0  0  0  0  0  0  0  0  0  0  0
   -0.6700    1.0474   -1.1293 O   0  0  0  0  0  0  0  0  0  0  0  0
    1.9180   -0.8727   -0.0383 H   0  0  0  0  0  0  0  0  0  0  0  0
    1.0936    0.6263   -2.0012 H   0  0  0  0  0  0  0  0  0  0  0  0
   -0.5379   -0.9332   -2.6463 H   0  0  0  0  0  0  0  0  0  0  0  0
   -0.9653    0.9336   -0.2049 H   0  0  0  0  0  0  0  0  0  0  0  0
  1  3  2  0  0  0  0
  2  5  1  0  0  0  0
  2  1  1  0  0  0  0
  4  2  1  0  0  0  0
  5  9  1  0  0  0  0
  6  1  1  0  0  0  0
  7  2  1  0  0  0  0
  8  4  1  0  0  0  0
M  END
>  <HBA>
3

>  <HBD>
2

>  <TPSA>
57.53

>  <cid>
69431

>  <dipole>
1.8

>  <excitation_energy_1>
4.302

>  <excitation_energy_2>
5.692

>  <excitation_energy_3>
5.934

>  <excitation_energy_4>
7.131

>  <homo_energy>
-7.608

>  <homo_lumo_gap>
6.229

>  <logP>
-1.504

>  <lumo_energy>
-1.38

>  <melting_point>
45.05

>  <molecular_refractivity>
14.25

>  <oscillator_strength_1>
0.0001

>  <oscillator_strength_2>
0.004

>  <oscillator_strength_3>
0.0043

>  <oscillator_strength_4>
0.0052

>  <open_babel_can_smiles>
O=CC(O)O

>  <mulliken_charges>
9
1   0.243985
2   0.254591
3   -0.378895
4   -0.610473
5   -0.604917
6   0.142302
7   0.14011
8   0.405288
9   0.408007

>  <lowdin_charges>
9
1   0.054706
2   0.04843
3   -0.199565
4   -0.455654
5   -0.433343
6   0.141464
7   0.140425
8   0.353989
9   0.349549

$$$$

