PCCDB-ID:  33045
public computational chemistry database (PCCDB) project, http://pccdb.org

 27 27  0  0  0  0  0  0  0  0999 V2000
    3.8956   -0.3777   -1.0868 C   0  0  0  0  0  0  0  0  0  0  0  0
    2.6226    0.6639    5.4183 C   0  0  0  0  0  0  0  0  0  0  0  0
    3.3266   -0.9793    2.4278 C   0  0  0  0  0  0  0  0  0  0  0  0
    2.6286   -0.0223   -0.2861 C   0  0  0  0  0  0  0  0  0  0  0  0
    3.8502    1.0737    4.5844 C   0  0  0  0  0  0  0  0  0  0  0  0
    3.0631    3.2622    1.5776 C   0  0  0  0  0  0  0  0  0  0  0  0
    2.8012    2.3213    0.5860 C   0  0  0  0  0  0  0  0  0  0  0  0
    3.4146    2.8271    2.8516 C   0  0  0  0  0  0  0  0  0  0  0  0
    3.2496    0.5091    2.1447 C   0  0  0  0  0  0  0  0  0  0  0  0
    2.8928    0.9500    0.8502 C   0  0  0  0  0  0  0  0  0  0  0  0
    3.5082    1.4622    3.1559 C   0  0  0  0  0  0  0  0  0  0  0  0
    3.6622   -1.0741   -1.9008 H   0  0  0  0  0  0  0  0  0  0  0  0
    4.6565   -0.8439   -0.4508 H   0  0  0  0  0  0  0  0  0  0  0  0
    4.3418    0.5216   -1.5258 H   0  0  0  0  0  0  0  0  0  0  0  0
    2.9119    0.4231    6.4481 H   0  0  0  0  0  0  0  0  0  0  0  0
    2.1231   -0.2139    4.9941 H   0  0  0  0  0  0  0  0  0  0  0  0
    1.8890    1.4770    5.4519 H   0  0  0  0  0  0  0  0  0  0  0  0
    3.8890   -1.5111    1.6533 H   0  0  0  0  0  0  0  0  0  0  0  0
    2.3271   -1.4341    2.4618 H   0  0  0  0  0  0  0  0  0  0  0  0
    3.8098   -1.1957    3.3820 H   0  0  0  0  0  0  0  0  0  0  0  0
    2.1668   -0.9423    0.0894 H   0  0  0  0  0  0  0  0  0  0  0  0
    1.8975    0.4263   -0.9702 H   0  0  0  0  0  0  0  0  0  0  0  0
    4.5892    0.2634    4.6040 H   0  0  0  0  0  0  0  0  0  0  0  0
    4.3343    1.9294    5.0703 H   0  0  0  0  0  0  0  0  0  0  0  0
    2.9951    4.3248    1.3595 H   0  0  0  0  0  0  0  0  0  0  0  0
    2.5183    2.6494   -0.4122 H   0  0  0  0  0  0  0  0  0  0  0  0
    3.6210    3.5557    3.6327 H   0  0  0  0  0  0  0  0  0  0  0  0
  1 13  1  0  0  0  0
  1  4  1  0  0  0  0
  2 17  1  0  0  0  0
  2 15  1  0  0  0  0
  3 19  1  0  0  0  0
  3 20  1  0  0  0  0
  4 21  1  0  0  0  0
  4 10  1  0  0  0  0
  5 23  1  0  0  0  0
  5 24  1  0  0  0  0
  5  2  1  0  0  0  0
  6  8  2  0  0  0  0
  7 10  2  0  0  0  0
  7  6  1  0  0  0  0
  8 11  1  0  0  0  0
  8 27  1  0  0  0  0
  9  3  1  0  0  0  0
  9 11  2  0  0  0  0
 10  9  1  0  0  0  0
 11  5  1  0  0  0  0
 12  1  1  0  0  0  0
 14  1  1  0  0  0  0
 16  2  1  0  0  0  0
 18  3  1  0  0  0  0
 22  4  1  0  0  0  0
 25  6  1  0  0  0  0
 26  7  1  0  0  0  0
M  END
>  <HBA>
0

>  <HBD>
0

>  <TPSA>
0.0

>  <cid>
33045

>  <dipole>
0.52

>  <excitation_energy_1>
5.122

>  <excitation_energy_2>
5.624

>  <excitation_energy_3>
5.769

>  <excitation_energy_4>
5.861

>  <homo_energy>
-6.18

>  <homo_lumo_gap>
6.389

>  <logP>
3.12

>  <lumo_energy>
0.21

>  <melting_point>
15.5

>  <molecular_refractivity>
50.95

>  <oscillator_strength_1>
0.0003

>  <oscillator_strength_2>
0.0068

>  <oscillator_strength_3>
0.0543

>  <oscillator_strength_4>
0.0277

>  <open_babel_can_smiles>
CCc1cccc(c1C)CC

>  <mulliken_charges>
27
1   -0.437345
2   -0.436704
3   -0.544458
4   -0.340922
5   -0.348447
6   -0.123874
7   -0.186533
8   -0.190342
9   0.06743
10   0.125936
11   0.130058
12   0.142143
13   0.149806
14   0.150142
15   0.141426
16   0.149275
17   0.150217
18   0.159838
19   0.161886
20   0.156103
21   0.141273
22   0.141874
23   0.144136
24   0.140976
25   0.122611
26   0.116619
27   0.116877

>  <lowdin_charges>
27
1   -0.443566
2   -0.442574
3   -0.450647
4   -0.275409
5   -0.274968
6   -0.159208
7   -0.170469
8   -0.173982
9   -0.018043
10   -0.009595
11   -0.010413
12   0.149156
13   0.149768
14   0.151724
15   0.147323
16   0.150353
17   0.151942
18   0.159518
19   0.158218
20   0.158629
21   0.148957
22   0.150297
23   0.147359
24   0.149063
25   0.153215
26   0.15081
27   0.152543

$$$$

