PCCDB-ID:  4524
public computational chemistry database (PCCDB) project, http://pccdb.org

 34 33  0  0  0  0  0  0  0  0999 V2000
    4.5753   -2.4279   -3.9846 C   0  0  0  0  0  0  0  0  0  0  0  0
    4.4525    0.6356    1.2631 C   0  0  0  0  0  0  0  0  0  0  0  0
    7.5156    0.7762   -2.6920 C   0  0  0  0  0  0  0  0  0  0  0  0
    6.3943    1.6078   -2.0486 C   0  0  0  0  0  0  0  0  0  0  0  0
    7.2373    0.3202   -4.1401 C   0  0  0  0  0  0  0  0  0  0  0  0
    6.6620    1.9981   -0.5864 C   0  0  0  0  0  0  0  0  0  0  0  0
    6.5792   -1.0568   -4.2873 C   0  0  0  0  0  0  0  0  0  0  0  0
    6.8092    0.8385    0.4215 C   0  0  0  0  0  0  0  0  0  0  0  0
    5.2116   -1.1242   -3.7463 N   0  0  0  0  0  0  0  0  0  0  0  0
    5.2956   -2.3315    0.3355 N   0  0  0  0  0  0  0  0  0  0  0  0
    5.6418    0.0029    0.7066 N   0  0  0  0  0  0  0  0  0  0  0  0
    5.3991   -1.0316   -0.1679 N   0  0  0  0  0  0  0  0  0  0  0  0
    5.8342   -2.4940    1.4077 O   0  0  0  0  0  0  0  0  0  0  0  0
    4.3769   -0.8283   -1.1243 O   0  0  0  0  0  0  0  0  0  0  0  0
    3.5459   -2.4018   -3.6168 H   0  0  0  0  0  0  0  0  0  0  0  0
    5.1130   -3.1956   -3.4196 H   0  0  0  0  0  0  0  0  0  0  0  0
    4.5707   -2.7182   -5.0475 H   0  0  0  0  0  0  0  0  0  0  0  0
    4.7659    1.2821    2.0892 H   0  0  0  0  0  0  0  0  0  0  0  0
    3.7928   -0.1398    1.6624 H   0  0  0  0  0  0  0  0  0  0  0  0
    3.8872    1.2333    0.5348 H   0  0  0  0  0  0  0  0  0  0  0  0
    7.7243   -0.1131   -2.0834 H   0  0  0  0  0  0  0  0  0  0  0  0
    8.4374    1.3743   -2.6777 H   0  0  0  0  0  0  0  0  0  0  0  0
    5.4433    1.0721   -2.1038 H   0  0  0  0  0  0  0  0  0  0  0  0
    6.2638    2.5288   -2.6352 H   0  0  0  0  0  0  0  0  0  0  0  0
    8.1845    0.2682   -4.6920 H   0  0  0  0  0  0  0  0  0  0  0  0
    6.6316    1.0750   -4.6646 H   0  0  0  0  0  0  0  0  0  0  0  0
    5.8636    2.6702   -0.2443 H   0  0  0  0  0  0  0  0  0  0  0  0
    7.5914    2.5848   -0.5313 H   0  0  0  0  0  0  0  0  0  0  0  0
    7.1765   -1.8062   -3.7518 H   0  0  0  0  0  0  0  0  0  0  0  0
    6.5898   -1.3488   -5.3528 H   0  0  0  0  0  0  0  0  0  0  0  0
    7.1166    1.2643    1.3862 H   0  0  0  0  0  0  0  0  0  0  0  0
    7.6095    0.1582    0.1165 H   0  0  0  0  0  0  0  0  0  0  0  0
    4.8331   -0.9071   -2.0135 H   0  0  0  0  0  0  0  0  0  0  0  0
    4.6518   -0.4007   -4.1991 H   0  0  0  0  0  0  0  0  0  0  0  0
  1  9  1  0  0  0  0
  1 15  1  0  0  0  0
  1 16  1  0  0  0  0
  2 19  1  0  0  0  0
  2 18  1  0  0  0  0
  3 22  1  0  0  0  0
  3 21  1  0  0  0  0
  3  4  1  0  0  0  0
  4  6  1  0  0  0  0
  5  3  1  0  0  0  0
  6 28  1  0  0  0  0
  6 27  1  0  0  0  0
  6  8  1  0  0  0  0
  7  5  1  0  0  0  0
  7 29  1  0  0  0  0
  7  9  1  0  0  0  0
  8 11  1  0  0  0  0
  8 31  1  0  0  0  0
 10 13  1  0  0  0  0
 11  2  1  0  0  0  0
 12 10  1  0  0  0  0
 12 11  1  0  0  0  0
 14 12  1  0  0  0  0
 17  1  1  0  0  0  0
 20  2  1  0  0  0  0
 23  4  1  0  0  0  0
 24  4  1  0  0  0  0
 25  5  1  0  0  0  0
 26  5  1  0  0  0  0
 30  7  1  0  0  0  0
 32  8  1  0  0  0  0
 33 14  1  0  0  0  0
 34  9  1  0  0  0  0
M  RAD  2  10   2  13   2
M  END
>  <HBA>
5

>  <HBD>
1

>  <TPSA>
75.58

>  <cid>
4524

>  <dipole>
5.31

>  <excitation_energy_1>
2.965

>  <excitation_energy_2>
3.683

>  <excitation_energy_3>
4.804

>  <excitation_energy_4>
5.46

>  <homo_energy>
-5.782

>  <homo_lumo_gap>
4.77

>  <logP>
0.068

>  <lumo_energy>
-1.012

>  <melting_point>
72.03

>  <molecular_refractivity>
57.47

>  <oscillator_strength_1>
0.0017

>  <oscillator_strength_2>
0.0067

>  <oscillator_strength_3>
0.0388

>  <oscillator_strength_4>
0.0044

>  <open_babel_can_smiles>
CNCCCCCCN(N([N][O])O)C

>  <mulliken_charges>
34
1   -0.309651
2   -0.293567
3   -0.257108
4   -0.268309
5   -0.27967
6   -0.267208
7   -0.118255
8   -0.129701
9   -0.594894
10   0.172218
11   -0.237493
12   0.026121
13   -0.308655
14   -0.553545
15   0.171331
16   0.176612
17   0.138782
18   0.152192
19   0.170599
20   0.152425
21   0.144369
22   0.131067
23   0.145095
24   0.124566
25   0.14224
26   0.130947
27   0.135065
28   0.128678
29   0.153897
30   0.123275
31   0.144418
32   0.159315
33   0.480915
34   0.313929

>  <lowdin_charges>
34
1   -0.36295
2   -0.361317
3   -0.28092
4   -0.289732
5   -0.283109
6   -0.293097
7   -0.201594
8   -0.202582
9   -0.348074
10   0.05702
11   -0.107995
12   0.047898
13   -0.211647
14   -0.427673
15   0.161649
16   0.163218
17   0.133839
18   0.156441
19   0.165029
20   0.142679
21   0.145555
22   0.14195
23   0.148083
24   0.139032
25   0.152303
26   0.141298
27   0.14615
28   0.143092
29   0.149303
30   0.125524
31   0.148944
32   0.15587
33   0.343841
34   0.261971

$$$$

