PCCDB-ID:  9503
public computational chemistry database (PCCDB) project, http://pccdb.org

 38 38  0  0  0  0  0  0  0  0999 V2000
    0.3254    0.6421   -1.3485 C   0  0  0  0  0  0  0  0  0  0  0  0
    2.7251    0.4199   -2.1507 C   0  0  0  0  0  0  0  0  0  0  0  0
    3.6555    5.5423   -0.5384 C   0  0  0  0  0  0  0  0  0  0  0  0
    1.2869    5.7277    0.3604 C   0  0  0  0  0  0  0  0  0  0  0  0
    3.5538    0.0216    6.0758 C   0  0  0  0  0  0  0  0  0  0  0  0
    2.2682    2.7631   -0.0932 C   0  0  0  0  0  0  0  0  0  0  0  0
    2.6424    0.9104    1.4004 C   0  0  0  0  0  0  0  0  0  0  0  0
    3.0898    3.1818    2.1295 C   0  0  0  0  0  0  0  0  0  0  0  0
    1.7876    0.4010   -0.9285 C   0  0  0  0  0  0  0  0  0  0  0  0
    2.7024    5.1758    0.6146 C   0  0  0  0  0  0  0  0  0  0  0  0
    2.2420    1.3821    0.1459 C   0  0  0  0  0  0  0  0  0  0  0  0
    2.6843    3.6759    0.8842 C   0  0  0  0  0  0  0  0  0  0  0  0
    3.0682    1.8131    2.3707 C   0  0  0  0  0  0  0  0  0  0  0  0
    4.3411    0.4490    3.8968 C   0  0  0  0  0  0  0  0  0  0  0  0
    4.4840   -0.1864    4.9793 N   0  0  0  0  0  0  0  0  0  0  0  0
    5.1806    0.2697    2.8505 O   0  0  0  0  0  0  0  0  0  0  0  0
    3.3924    1.3937    3.6640 O   0  0  0  0  0  0  0  0  0  0  0  0
    0.0037   -0.1143   -2.0742 H   0  0  0  0  0  0  0  0  0  0  0  0
    0.2017    1.6257   -1.8168 H   0  0  0  0  0  0  0  0  0  0  0  0
   -0.3480    0.5956   -0.4858 H   0  0  0  0  0  0  0  0  0  0  0  0
    2.4195   -0.3372   -2.8828 H   0  0  0  0  0  0  0  0  0  0  0  0
    3.7608    0.2151   -1.8587 H   0  0  0  0  0  0  0  0  0  0  0  0
    2.7053    1.3947   -2.6522 H   0  0  0  0  0  0  0  0  0  0  0  0
    3.7021    6.6302   -0.6682 H   0  0  0  0  0  0  0  0  0  0  0  0
    3.3192    5.1087   -1.4876 H   0  0  0  0  0  0  0  0  0  0  0  0
    4.6699    5.1770   -0.3455 H   0  0  0  0  0  0  0  0  0  0  0  0
    1.3154    6.8158    0.2277 H   0  0  0  0  0  0  0  0  0  0  0  0
    0.6174    5.5034    1.1979 H   0  0  0  0  0  0  0  0  0  0  0  0
    0.8467    5.2933   -0.5450 H   0  0  0  0  0  0  0  0  0  0  0  0
    2.6264    0.5298    5.7834 H   0  0  0  0  0  0  0  0  0  0  0  0
    4.0348    0.6149    6.8646 H   0  0  0  0  0  0  0  0  0  0  0  0
    3.2995   -0.9500    6.5143 H   0  0  0  0  0  0  0  0  0  0  0  0
    1.9539    3.1359   -1.0648 H   0  0  0  0  0  0  0  0  0  0  0  0
    2.6289   -0.1528    1.6202 H   0  0  0  0  0  0  0  0  0  0  0  0
    3.4202    3.8513    2.9182 H   0  0  0  0  0  0  0  0  0  0  0  0
    1.8414   -0.6044   -0.4896 H   0  0  0  0  0  0  0  0  0  0  0  0
    3.0854    5.6609    1.5226 H   0  0  0  0  0  0  0  0  0  0  0  0
    5.8090   -0.4089    3.1545 H   0  0  0  0  0  0  0  0  0  0  0  0
  1  9  1  0  0  0  0
  1 20  1  0  0  0  0
  2 22  1  0  0  0  0
  2  9  1  0  0  0  0
  3 26  1  0  0  0  0
  3 10  1  0  0  0  0
  4 10  1  0  0  0  0
  4 28  1  0  0  0  0
  5 32  1  0  0  0  0
  5 31  1  0  0  0  0
  6 11  2  0  0  0  0
  6 12  1  0  0  0  0
  7 34  1  0  0  0  0
  7 13  2  0  0  0  0
  8 13  1  0  0  0  0
  8 35  1  0  0  0  0
  9 36  1  0  0  0  0
  9 11  1  0  0  0  0
 10 12  1  0  0  0  0
 10 37  1  0  0  0  0
 11  7  1  0  0  0  0
 12  8  2  0  0  0  0
 13 17  1  0  0  0  0
 14 15  2  0  0  0  0
 15  5  1  0  0  0  0
 16 38  1  0  0  0  0
 16 14  1  0  0  0  0
 17 14  1  0  0  0  0
 18  1  1  0  0  0  0
 19  1  1  0  0  0  0
 21  2  1  0  0  0  0
 23  2  1  0  0  0  0
 24  3  1  0  0  0  0
 25  3  1  0  0  0  0
 27  4  1  0  0  0  0
 29  4  1  0  0  0  0
 30  5  1  0  0  0  0
 33  6  1  0  0  0  0
M  END
>  <HBA>
3

>  <HBD>
1

>  <TPSA>
38.33

>  <cid>
9503

>  <dipole>
1.6

>  <excitation_energy_1>
5.142

>  <excitation_energy_2>
5.599

>  <excitation_energy_3>
5.768

>  <excitation_energy_4>
5.925

>  <homo_energy>
-6.237

>  <homo_lumo_gap>
6.229

>  <logP>
4.043

>  <lumo_energy>
-0.008

>  <melting_point>
73.68

>  <molecular_refractivity>
70.29

>  <oscillator_strength_1>
0.0008

>  <oscillator_strength_2>
0.0748

>  <oscillator_strength_3>
0.0037

>  <oscillator_strength_4>
0.0392

>  <open_babel_can_smiles>
C/N=C(\Oc1cc(cc(c1)C(C)C)C(C)C)/O

>  <mulliken_charges>
38
1   -0.439281
2   -0.438835
3   -0.439418
4   -0.438396
5   -0.323299
6   -0.243241
7   -0.220183
8   -0.242211
9   -0.160532
10   -0.160511
11   0.180377
12   0.183016
13   0.372468
14   0.701048
15   -0.480088
16   -0.590392
17   -0.538952
18   0.142279
19   0.14331
20   0.150625
21   0.14174
22   0.152446
23   0.143254
24   0.142088
25   0.143074
26   0.151944
27   0.14211
28   0.150654
29   0.143207
30   0.152728
31   0.153687
32   0.152341
33   0.121546
34   0.133535
35   0.13426
36   0.130554
37   0.131207
38   0.421839

>  <lowdin_charges>
38
1   -0.442766
2   -0.440773
3   -0.438745
4   -0.440598
5   -0.354308
6   -0.181266
7   -0.187942
8   -0.190822
9   -0.116715
10   -0.117755
11   0.010045
12   0.009764
13   0.107444
14   0.188462
15   -0.263964
16   -0.362309
17   -0.159989
18   0.150009
19   0.146939
20   0.153763
21   0.14958
22   0.153126
23   0.147157
24   0.147129
25   0.147161
26   0.153131
27   0.146966
28   0.153979
29   0.147866
30   0.143875
31   0.152081
32   0.150868
33   0.15241
34   0.162085
35   0.166138
36   0.141971
37   0.143454
38   0.372549

$$$$

