PCCDB-ID:  33559
public computational chemistry database (PCCDB) project, http://pccdb.org

 32 33  0  0  0  0  0  0  0  0999 V2000
    1.5878   -0.1174    0.9780 C   0  0  0  0  0  0  0  0  0  0  0  0
    5.6565    3.7268   -5.6559 C   0  0  0  0  0  0  0  0  0  0  0  0
    3.4500    4.1393   -4.8264 C   0  0  0  0  0  0  0  0  0  0  0  0
    2.7758    0.6353   -3.1040 C   0  0  0  0  0  0  0  0  0  0  0  0
    4.6799    1.8328   -2.2919 C   0  0  0  0  0  0  0  0  0  0  0  0
    5.8104    5.0820   -5.9463 C   0  0  0  0  0  0  0  0  0  0  0  0
    3.5881    5.4932   -5.1115 C   0  0  0  0  0  0  0  0  0  0  0  0
    2.4097    0.3031   -1.7970 C   0  0  0  0  0  0  0  0  0  0  0  0
    4.3364    1.5059   -0.9883 C   0  0  0  0  0  0  0  0  0  0  0  0
    4.3060    1.7401   -4.8113 C   0  0  0  0  0  0  0  0  0  0  0  0
    4.4781    3.2239   -5.0948 C   0  0  0  0  0  0  0  0  0  0  0  0
    3.9091    1.4011   -3.3841 C   0  0  0  0  0  0  0  0  0  0  0  0
    4.7753    5.9893   -5.6782 C   0  0  0  0  0  0  0  0  0  0  0  0
    3.1917    0.7295   -0.7120 C   0  0  0  0  0  0  0  0  0  0  0  0
    4.9409    7.3625   -5.9078 N   0  0  0  0  0  0  0  0  0  0  0  0
    2.8959    0.3874    0.6072 N   0  0  0  0  0  0  0  0  0  0  0  0
    1.5513   -0.2317    2.0647 H   0  0  0  0  0  0  0  0  0  0  0  0
    1.4197   -1.1068    0.5369 H   0  0  0  0  0  0  0  0  0  0  0  0
    0.7572    0.5375    0.6653 H   0  0  0  0  0  0  0  0  0  0  0  0
    6.4752    3.0450   -5.8777 H   0  0  0  0  0  0  0  0  0  0  0  0
    2.5244    3.7838   -4.3796 H   0  0  0  0  0  0  0  0  0  0  0  0
    2.1517    0.2871   -3.9250 H   0  0  0  0  0  0  0  0  0  0  0  0
    5.5616    2.4441   -2.4701 H   0  0  0  0  0  0  0  0  0  0  0  0
    6.7423    5.4422   -6.3776 H   0  0  0  0  0  0  0  0  0  0  0  0
    2.7740    6.1802   -4.8889 H   0  0  0  0  0  0  0  0  0  0  0  0
    1.5149   -0.2877   -1.6306 H   0  0  0  0  0  0  0  0  0  0  0  0
    4.9577    1.8481   -0.1625 H   0  0  0  0  0  0  0  0  0  0  0  0
    5.2452    1.2287   -5.0652 H   0  0  0  0  0  0  0  0  0  0  0  0
    3.5490    1.3210   -5.4890 H   0  0  0  0  0  0  0  0  0  0  0  0
    5.6166    7.5870   -6.6284 H   0  0  0  0  0  0  0  0  0  0  0  0
    4.0756    7.8684   -6.0555 H   0  0  0  0  0  0  0  0  0  0  0  0
    3.3048    1.0145    1.2870 H   0  0  0  0  0  0  0  0  0  0  0  0
  1 17  1  0  0  0  0
  2 11  2  0  0  0  0
  3 21  1  0  0  0  0
  4  8  1  0  0  0  0
  5  9  2  0  0  0  0
  6 13  2  0  0  0  0
  6  2  1  0  0  0  0
  7 25  1  0  0  0  0
  7  3  2  0  0  0  0
  8 26  1  0  0  0  0
  8 14  2  0  0  0  0
  9 14  1  0  0  0  0
  9 27  1  0  0  0  0
 10 12  1  0  0  0  0
 11  3  1  0  0  0  0
 11 10  1  0  0  0  0
 12  4  2  0  0  0  0
 12  5  1  0  0  0  0
 13  7  1  0  0  0  0
 14 16  1  0  0  0  0
 15 13  1  0  0  0  0
 16  1  1  0  0  0  0
 16 32  1  0  0  0  0
 18  1  1  0  0  0  0
 19  1  1  0  0  0  0
 20  2  1  0  0  0  0
 22  4  1  0  0  0  0
 23  5  1  0  0  0  0
 24  6  1  0  0  0  0
 28 10  1  0  0  0  0
 29 10  1  0  0  0  0
 30 15  1  0  0  0  0
 31 15  1  0  0  0  0
M  END
>  <HBA>
2

>  <HBD>
2

>  <TPSA>
38.05

>  <cid>
33559

>  <dipole>
1.6

>  <excitation_energy_1>
4.338

>  <excitation_energy_2>
4.496

>  <excitation_energy_3>
4.564

>  <excitation_energy_4>
4.613

>  <homo_energy>
-4.958

>  <homo_lumo_gap>
5.187

>  <logP>
3.555

>  <lumo_energy>
0.229

>  <melting_point>
123.26

>  <molecular_refractivity>
69.61

>  <oscillator_strength_1>
0.0433

>  <oscillator_strength_2>
0.0174

>  <oscillator_strength_3>
0.0331

>  <oscillator_strength_4>
0.0085

>  <open_babel_can_smiles>
CNc1ccc(cc1)Cc1ccc(cc1)N

>  <mulliken_charges>
32
1   -0.302735
2   -0.207365
3   -0.184527
4   -0.211651
5   -0.181947
6   -0.170473
7   -0.171551
8   -0.18148
9   -0.188553
10   -0.439414
11   0.183834
12   0.184641
13   0.302782
14   0.344912
15   -0.786702
16   -0.636597
17   0.15258
18   0.163878
19   0.144853
20   0.117265
21   0.127643
22   0.115222
23   0.127744
24   0.112187
25   0.113281
26   0.118363
27   0.112411
28   0.14774
29   0.147597
30   0.316311
31   0.316385
32   0.313368

>  <lowdin_charges>
32
1   -0.351818
2   -0.162414
3   -0.149597
4   -0.162899
5   -0.149605
6   -0.202808
7   -0.199615
8   -0.211025
9   -0.198119
10   -0.269922
11   -0.028921
12   -0.031255
13   0.0569
14   0.055929
15   -0.494229
16   -0.302701
17   0.154575
18   0.152488
19   0.137214
20   0.152812
21   0.158267
22   0.151804
23   0.158211
24   0.150642
25   0.151624
26   0.155935
27   0.150847
28   0.152962
29   0.153977
30   0.273565
31   0.2732
32   0.273977

$$$$

