PCCDB-ID:  7978
public computational chemistry database (PCCDB) project, http://pccdb.org

 12 12  0  0  0  0  0  0  0  0999 V2000
   -1.4069   -0.1233    0.0410 C   0  0  0  0  0  0  0  0  0  0  0  0
   -0.6451   -1.2490    0.0425 C   0  0  0  0  0  0  0  0  0  0  0  0
   -0.6874    1.1184    0.0160 C   0  0  0  0  0  0  0  0  0  0  0  0
    1.4095    0.1027    0.0096 C   0  0  0  0  0  0  0  0  0  0  0  0
    2.6865    0.2107    0.0042 N   0  0  0  0  0  0  0  0  0  0  0  0
    0.7126   -1.1435    0.0235 N   0  0  0  0  0  0  0  0  0  0  0  0
    0.6063    1.2430    0.0004 N   0  0  0  0  0  0  0  0  0  0  0  0
   -2.4882   -0.1620    0.0552 H   0  0  0  0  0  0  0  0  0  0  0  0
   -1.0479   -2.2570    0.0565 H   0  0  0  0  0  0  0  0  0  0  0  0
   -1.2552    2.0508    0.0084 H   0  0  0  0  0  0  0  0  0  0  0  0
    3.1375   -0.7084    0.0140 H   0  0  0  0  0  0  0  0  0  0  0  0
    1.2720   -1.9864    0.0230 H   0  0  0  0  0  0  0  0  0  0  0  0
  1  2  1  0  0  0  0
  1  8  1  0  0  0  0
  2  9  1  0  0  0  0
  3  1  2  0  0  0  0
  4  6  1  0  0  0  0
  5  4  1  0  0  0  0
  5 11  1  0  0  0  0
  6  2  1  0  0  0  0
  7  4  2  0  0  0  0
  7  3  1  0  0  0  0
 10  3  1  0  0  0  0
 12  6  1  0  0  0  0
M  RAD  1   5   2
M  END
>  <HBA>
3

>  <HBD>
1

>  <TPSA>
51.8

>  <cid>
7978

>  <dipole>
5.93

>  <excitation_energy_1>
3.672

>  <excitation_energy_2>
4.212

>  <excitation_energy_3>
4.572

>  <excitation_energy_4>
4.805

>  <homo_energy>
-5.744

>  <homo_lumo_gap>
4.403

>  <logP>
0.64

>  <lumo_energy>
-1.342

>  <melting_point>
83.48

>  <molecular_refractivity>
26.44

>  <oscillator_strength_1>
0.0371

>  <oscillator_strength_2>
0.0018

>  <oscillator_strength_3>
0.0025

>  <oscillator_strength_4>
0.0011

>  <open_babel_can_smiles>
[NH]C1=NC=CCN1

>  <mulliken_charges>
12
1   -0.200788
2   0.120775
3   0.068627
4   0.587575
5   -0.607295
6   -0.613678
7   -0.414221
8   0.146554
9   0.17105
10   0.151528
11   0.255906
12   0.333967

>  <lowdin_charges>
12
1   -0.250537
2   -0.047259
3   -0.050465
4   0.112634
5   -0.424258
6   -0.221736
7   -0.153671
8   0.171746
9   0.171738
10   0.161188
11   0.238876
12   0.291744

$$$$

