PCCDB-ID:  52575
public computational chemistry database (PCCDB) project, http://pccdb.org

 27 28  0  0  0  0  0  0  0  0999 V2000
    3.1105   -0.8979   -0.8131 C   0  0  0  0  0  0  0  0  0  0  0  0
    1.7326   -0.4667    1.2721 C   0  0  0  0  0  0  0  0  0  0  0  0
    4.6475    5.3776    1.9881 C   0  0  0  0  0  0  0  0  0  0  0  0
    5.7893    4.6028    2.2155 C   0  0  0  0  0  0  0  0  0  0  0  0
    3.4941    4.8005    1.4474 C   0  0  0  0  0  0  0  0  0  0  0  0
    5.7955    3.2393    1.9047 C   0  0  0  0  0  0  0  0  0  0  0  0
    2.4124    2.5693    0.5760 C   0  0  0  0  0  0  0  0  0  0  0  0
    4.3753    1.2401    0.9616 C   0  0  0  0  0  0  0  0  0  0  0  0
    2.3209    0.1488   -0.0159 C   0  0  0  0  0  0  0  0  0  0  0  0
    3.5050    3.4430    1.1385 C   0  0  0  0  0  0  0  0  0  0  0  0
    4.6457    2.6689    1.3651 C   0  0  0  0  0  0  0  0  0  0  0  0
    3.1312    1.3508    0.1865 N   0  0  0  0  0  0  0  0  0  0  0  0
    2.4709   -1.7491   -1.0719 H   0  0  0  0  0  0  0  0  0  0  0  0
    3.9558   -1.2869   -0.2325 H   0  0  0  0  0  0  0  0  0  0  0  0
    3.5032   -0.4608   -1.7367 H   0  0  0  0  0  0  0  0  0  0  0  0
    1.0497   -1.2878    1.0247 H   0  0  0  0  0  0  0  0  0  0  0  0
    1.1679    0.2702    1.8538 H   0  0  0  0  0  0  0  0  0  0  0  0
    2.5187   -0.8755    1.9177 H   0  0  0  0  0  0  0  0  0  0  0  0
    4.6574    6.4370    2.2308 H   0  0  0  0  0  0  0  0  0  0  0  0
    6.6799    5.0645    2.6337 H   0  0  0  0  0  0  0  0  0  0  0  0
    2.6090    5.4067    1.2695 H   0  0  0  0  0  0  0  0  0  0  0  0
    6.6864    2.6408    2.0804 H   0  0  0  0  0  0  0  0  0  0  0  0
    1.9068    3.0120   -0.2947 H   0  0  0  0  0  0  0  0  0  0  0  0
    1.6295    2.3971    1.3416 H   0  0  0  0  0  0  0  0  0  0  0  0
    4.2842    0.5989    1.8603 H   0  0  0  0  0  0  0  0  0  0  0  0
    5.1813    0.8128    0.3499 H   0  0  0  0  0  0  0  0  0  0  0  0
    1.4778    0.4711   -0.6437 H   0  0  0  0  0  0  0  0  0  0  0  0
  1 14  1  0  0  0  0
  1  9  1  0  0  0  0
  2 17  1  0  0  0  0
  2 18  1  0  0  0  0
  3  4  1  0  0  0  0
  3 19  1  0  0  0  0
  4 20  1  0  0  0  0
  5  3  2  0  0  0  0
  6 22  1  0  0  0  0
  6  4  2  0  0  0  0
  7 10  1  0  0  0  0
  7 24  1  0  0  0  0
  8 11  1  0  0  0  0
  8 25  1  0  0  0  0
  9 12  1  0  0  0  0
  9  2  1  0  0  0  0
 10 11  2  0  0  0  0
 10  5  1  0  0  0  0
 11  6  1  0  0  0  0
 12  7  1  0  0  0  0
 12  8  1  0  0  0  0
 13  1  1  0  0  0  0
 15  1  1  0  0  0  0
 16  2  1  0  0  0  0
 21  5  1  0  0  0  0
 23  7  1  0  0  0  0
 26  8  1  0  0  0  0
 27  9  1  0  0  0  0
M  END
>  <HBA>
1

>  <HBD>
0

>  <TPSA>
3.24

>  <cid>
52575

>  <dipole>
0.62

>  <excitation_energy_1>
4.424

>  <excitation_energy_2>
4.675

>  <excitation_energy_3>
4.871

>  <excitation_energy_4>
5.258

>  <homo_energy>
-5.344

>  <homo_lumo_gap>
5.377

>  <logP>
2.349

>  <lumo_energy>
0.033

>  <melting_point>
35.21

>  <molecular_refractivity>
55.49

>  <oscillator_strength_1>
0.0004

>  <oscillator_strength_2>
0.0093

>  <oscillator_strength_3>
0.0035

>  <oscillator_strength_4>
0.0036

>  <open_babel_can_smiles>
CC(N1Cc2c(C1)cccc2)C

>  <mulliken_charges>
27
1   -0.448543
2   -0.455735
3   -0.132434
4   -0.132802
5   -0.198849
6   -0.197124
7   -0.168202
8   -0.173793
9   0.062236
10   0.114142
11   0.110399
12   -0.431657
13   0.14019
14   0.143353
15   0.154492
16   0.141366
17   0.145713
18   0.143141
19   0.126184
20   0.126182
21   0.125274
22   0.125146
23   0.146137
24   0.128775
25   0.130555
26   0.149242
27   0.126611

>  <lowdin_charges>
27
1   -0.449858
2   -0.467237
3   -0.15649
4   -0.159173
5   -0.164982
6   -0.165092
7   -0.194083
8   -0.195575
9   -0.056479
10   -0.012163
11   -0.010927
12   -0.192911
13   0.151098
14   0.148138
15   0.156392
16   0.152269
17   0.150479
18   0.148382
19   0.154776
20   0.157044
21   0.156795
22   0.15672
23   0.146559
24   0.128151
25   0.129327
26   0.148289
27   0.140551

$$$$

