PCCDB-ID:  27889
public computational chemistry database (PCCDB) project, http://pccdb.org

 20 19  0  0  0  0  0  0  0  0999 V2000
    0.4845    2.0911    1.9641 C   0  0  0  0  0  0  0  0  0  0  0  0
    8.1074    0.0189    1.6923 C   0  0  0  0  0  0  0  0  0  0  0  0
    1.9833    2.0152    2.1987 C   0  0  0  0  0  0  0  0  0  0  0  0
    6.6105    0.1029    1.4485 C   0  0  0  0  0  0  0  0  0  0  0  0
    3.8498    0.7379    1.4395 C   0  0  0  0  0  0  0  0  0  0  0  0
    4.7451    1.3853    2.2020 C   0  0  0  0  0  0  0  0  0  0  0  0
    2.5026    0.9774    1.3764 O   0  0  0  0  0  0  0  0  0  0  0  0
    6.0923    1.1460    2.2649 O   0  0  0  0  0  0  0  0  0  0  0  0
    0.0452    2.8854    2.5774 H   0  0  0  0  0  0  0  0  0  0  0  0
    0.0047    1.1432    2.2274 H   0  0  0  0  0  0  0  0  0  0  0  0
    0.2699    2.3052    0.9123 H   0  0  0  0  0  0  0  0  0  0  0  0
    8.5472   -0.7733    1.0768 H   0  0  0  0  0  0  0  0  0  0  0  0
    8.3146   -0.2026    2.7440 H   0  0  0  0  0  0  0  0  0  0  0  0
    8.5927    0.9665    1.4378 H   0  0  0  0  0  0  0  0  0  0  0  0
    2.2076    1.7986    3.2547 H   0  0  0  0  0  0  0  0  0  0  0  0
    2.4718    2.9688    1.9447 H   0  0  0  0  0  0  0  0  0  0  0  0
    6.1148   -0.8471    1.7022 H   0  0  0  0  0  0  0  0  0  0  0  0
    6.3938    0.3178    0.3905 H   0  0  0  0  0  0  0  0  0  0  0  0
    4.1160   -0.0715    0.7708 H   0  0  0  0  0  0  0  0  0  0  0  0
    4.4789    2.1949    2.8704 H   0  0  0  0  0  0  0  0  0  0  0  0
  1  3  1  0  0  0  0
  1 10  1  0  0  0  0
  1  9  1  0  0  0  0
  2 13  1  0  0  0  0
  3 15  1  0  0  0  0
  4  2  1  0  0  0  0
  4 17  1  0  0  0  0
  4  8  1  0  0  0  0
  5  6  2  0  0  0  0
  6  8  1  0  0  0  0
  6 20  1  0  0  0  0
  7  5  1  0  0  0  0
  7  3  1  0  0  0  0
 11  1  1  0  0  0  0
 12  2  1  0  0  0  0
 14  2  1  0  0  0  0
 16  3  1  0  0  0  0
 18  4  1  0  0  0  0
 19  5  1  0  0  0  0
M  END
>  <HBA>
2

>  <HBD>
0

>  <TPSA>
18.46

>  <cid>
27889

>  <dipole>
0.01

>  <excitation_energy_1>
5.058

>  <excitation_energy_2>
5.094

>  <excitation_energy_3>
5.432

>  <excitation_energy_4>
5.817

>  <homo_energy>
-5.233

>  <homo_lumo_gap>
6.974

>  <logP>
1.531

>  <lumo_energy>
1.742

>  <melting_point>
-34.67

>  <molecular_refractivity>
32.65

>  <oscillator_strength_1>
0.0339

>  <oscillator_strength_2>
0.0

>  <oscillator_strength_3>
0.0

>  <oscillator_strength_4>
0.0039

>  <open_babel_can_smiles>
CCO/C=C/OCC

>  <mulliken_charges>
20
1   -0.455459
2   -0.455448
3   -0.024038
4   -0.024042
5   0.067624
6   0.067576
7   -0.463162
8   -0.463159
9   0.14609
10   0.161217
11   0.161374
12   0.14609
13   0.161234
14   0.161351
15   0.133941
16   0.13395
17   0.133939
18   0.133946
19   0.138486
20   0.138489

>  <lowdin_charges>
20
1   -0.447444
2   -0.447443
3   -0.123367
4   -0.123361
5   -0.11933
6   -0.119339
7   -0.210715
8   -0.210724
9   0.156923
10   0.158744
11   0.157558
12   0.156929
13   0.157457
14   0.158839
15   0.132286
16   0.133784
17   0.133862
18   0.132204
19   0.161569
20   0.161569

$$$$

