PCCDB-ID:  21141
public computational chemistry database (PCCDB) project, http://pccdb.org

 30 31  0  0  0  0  0  0  0  0999 V2000
    2.8824   -3.0248    3.1907 C   0  0  0  0  0  0  0  0  0  0  0  0
    2.0971   -2.8938    0.8852 C   0  0  0  0  0  0  0  0  0  0  0  0
    9.4952   -4.0903   -1.1065 C   0  0  0  0  0  0  0  0  0  0  0  0
   10.6263   -3.3770   -1.5442 C   0  0  0  0  0  0  0  0  0  0  0  0
    8.3625   -3.4449   -0.6223 C   0  0  0  0  0  0  0  0  0  0  0  0
   10.6454   -1.9884   -1.5027 C   0  0  0  0  0  0  0  0  0  0  0  0
    8.0382    0.2071   -0.3283 C   0  0  0  0  0  0  0  0  0  0  0  0
    8.3469   -2.0395   -0.5640 C   0  0  0  0  0  0  0  0  0  0  0  0
    7.4043   -1.0131   -0.1233 C   0  0  0  0  0  0  0  0  0  0  0  0
    9.5062   -1.3489   -1.0108 C   0  0  0  0  0  0  0  0  0  0  0  0
    6.0717   -0.9885    0.4748 C   0  0  0  0  0  0  0  0  0  0  0  0
    5.2525   -2.2858    0.6813 C   0  0  0  0  0  0  0  0  0  0  0  0
    9.2716    0.0128   -0.8554 N   0  0  0  0  0  0  0  0  0  0  0  0
    4.2105   -2.0559    1.5276 N   0  0  0  0  0  0  0  0  0  0  0  0
    3.2450   -3.0379    1.7796 N   0  0  0  0  0  0  0  0  0  0  0  0
    5.5447    0.0729    0.8241 O   0  0  0  0  0  0  0  0  0  0  0  0
    5.5043   -3.3503    0.1371 O   0  0  0  0  0  0  0  0  0  0  0  0
    2.1739   -3.8373    3.3783 H   0  0  0  0  0  0  0  0  0  0  0  0
    2.4115   -2.0751    3.5113 H   0  0  0  0  0  0  0  0  0  0  0  0
    3.7781   -3.1926    3.7939 H   0  0  0  0  0  0  0  0  0  0  0  0
    1.3986   -3.7145    1.0767 H   0  0  0  0  0  0  0  0  0  0  0  0
    2.4426   -2.9678   -0.1487 H   0  0  0  0  0  0  0  0  0  0  0  0
    1.5604   -1.9362    1.0198 H   0  0  0  0  0  0  0  0  0  0  0  0
    9.5044   -5.1760   -1.1505 H   0  0  0  0  0  0  0  0  0  0  0  0
   11.4926   -3.9148   -1.9190 H   0  0  0  0  0  0  0  0  0  0  0  0
    7.4929   -4.0036   -0.3049 H   0  0  0  0  0  0  0  0  0  0  0  0
   11.5105   -1.4216   -1.8370 H   0  0  0  0  0  0  0  0  0  0  0  0
    7.6537    1.1940   -0.1170 H   0  0  0  0  0  0  0  0  0  0  0  0
    9.9241    0.7453   -1.0933 H   0  0  0  0  0  0  0  0  0  0  0  0
    4.0120   -1.0765    1.7385 H   0  0  0  0  0  0  0  0  0  0  0  0
  1 18  1  0  0  0  0
  1 19  1  0  0  0  0
  1 20  1  0  0  0  0
  2 23  1  0  0  0  0
  2 21  1  0  0  0  0
  2 15  1  0  0  0  0
  3  5  2  0  0  0  0
  4  6  2  0  0  0  0
  4  3  1  0  0  0  0
  5  8  1  0  0  0  0
  5 26  1  0  0  0  0
  6 10  1  0  0  0  0
  7  9  2  0  0  0  0
  7 28  1  0  0  0  0
  8  9  1  0  0  0  0
  9 11  1  0  0  0  0
 10 13  1  0  0  0  0
 10  8  2  0  0  0  0
 11 12  1  0  0  0  0
 11 16  2  0  0  0  0
 12 14  1  0  0  0  0
 13  7  1  0  0  0  0
 14 30  1  0  0  0  0
 14 15  1  0  0  0  0
 15  1  1  0  0  0  0
 17 12  2  0  0  0  0
 22  2  1  0  0  0  0
 24  3  1  0  0  0  0
 25  4  1  0  0  0  0
 27  6  1  0  0  0  0
 29 13  1  0  0  0  0
M  END
>  <HBA>
4

>  <HBD>
2

>  <TPSA>
65.2

>  <cid>
21141

>  <dipole>
3.0

>  <excitation_energy_1>
3.13

>  <excitation_energy_2>
3.578

>  <excitation_energy_3>
3.716

>  <excitation_energy_4>
3.809

>  <homo_energy>
-5.782

>  <homo_lumo_gap>
4.087

>  <logP>
1.334

>  <lumo_energy>
-1.695

>  <melting_point>
180.7

>  <molecular_refractivity>
64.0

>  <oscillator_strength_1>
0.0005

>  <oscillator_strength_2>
0.1721

>  <oscillator_strength_3>
0.0105

>  <oscillator_strength_4>
0.03

>  <open_babel_can_smiles>
CN(NC(=O)C(=O)c1c[nH]c2c1cccc2)C

>  <mulliken_charges>
30
1   -0.291687
2   -0.292219
3   -0.142493
4   -0.145533
5   -0.203009
6   -0.164075
7   0.070316
8   0.07059
9   -0.027212
10   0.29997
11   0.335441
12   0.561979
13   -0.676851
14   -0.482033
15   -0.234142
16   -0.523845
17   -0.499253
18   0.159439
19   0.120284
20   0.171932
21   0.15756
22   0.177811
23   0.122209
24   0.127977
25   0.126973
26   0.192
27   0.124107
28   0.185845
29   0.33673
30   0.34119

>  <lowdin_charges>
30
1   -0.358975
2   -0.36005
3   -0.166535
4   -0.158851
5   -0.153652
6   -0.189602
7   -0.069762
8   -0.018832
9   -0.10124
10   0.030463
11   0.135989
12   0.129432
13   -0.170675
14   -0.200469
15   -0.098234
16   -0.285182
17   -0.277941
18   0.158526
19   0.122944
20   0.163027
21   0.157714
22   0.164728
23   0.12443
24   0.156036
25   0.158361
26   0.188489
27   0.157556
28   0.184474
29   0.298368
30   0.279464

$$$$

