PCCDB-ID:  8814
public computational chemistry database (PCCDB) project, http://pccdb.org

 37 37  0  0  0  0  0  0  0  0999 V2000
    0.8832    1.8160    0.9943 C   0  0  0  0  0  0  0  0  0  0  0  0
    2.3998    2.6095   -0.8116 C   0  0  0  0  0  0  0  0  0  0  0  0
    2.6576    3.4951    1.5294 C   0  0  0  0  0  0  0  0  0  0  0  0
    5.2606   -0.4060    1.3240 C   0  0  0  0  0  0  0  0  0  0  0  0
    5.4526    1.5987   -0.1240 C   0  0  0  0  0  0  0  0  0  0  0  0
    6.2030    2.8730    2.3631 C   0  0  0  0  0  0  0  0  0  0  0  0
    4.7825    1.4855    3.6894 C   0  0  0  0  0  0  0  0  0  0  0  0
    6.6405    3.5324    3.5149 C   0  0  0  0  0  0  0  0  0  0  0  0
    5.2043    2.1299    4.8469 C   0  0  0  0  0  0  0  0  0  0  0  0
    3.2324    1.0145    1.0386 C   0  0  0  0  0  0  0  0  0  0  0  0
    5.2589    1.8401    2.4133 C   0  0  0  0  0  0  0  0  0  0  0  0
    6.1406    3.1656    4.7642 C   0  0  0  0  0  0  0  0  0  0  0  0
    2.3370    2.2457    0.6880 C   0  0  0  0  0  0  0  0  0  0  0  0
    4.7928    1.0673    1.1628 C   0  0  0  0  0  0  0  0  0  0  0  0
    6.5242    3.7713    5.9309 O   0  0  0  0  0  0  0  0  0  0  0  0
    0.1772    2.6123    0.7291 H   0  0  0  0  0  0  0  0  0  0  0  0
    0.7503    1.5925    2.0600 H   0  0  0  0  0  0  0  0  0  0  0  0
    0.6038    0.9193    0.4268 H   0  0  0  0  0  0  0  0  0  0  0  0
    1.6435    3.3686   -1.0475 H   0  0  0  0  0  0  0  0  0  0  0  0
    2.1966    1.7342   -1.4416 H   0  0  0  0  0  0  0  0  0  0  0  0
    3.3699    3.0167   -1.1074 H   0  0  0  0  0  0  0  0  0  0  0  0
    1.9344    4.2906    1.3084 H   0  0  0  0  0  0  0  0  0  0  0  0
    3.6577    3.8869    1.3210 H   0  0  0  0  0  0  0  0  0  0  0  0
    2.6062    3.2831    2.6028 H   0  0  0  0  0  0  0  0  0  0  0  0
    5.0134   -0.9902    0.4289 H   0  0  0  0  0  0  0  0  0  0  0  0
    4.7847   -0.8924    2.1821 H   0  0  0  0  0  0  0  0  0  0  0  0
    6.3451   -0.4523    1.4735 H   0  0  0  0  0  0  0  0  0  0  0  0
    5.0587    1.0646   -0.9954 H   0  0  0  0  0  0  0  0  0  0  0  0
    6.5369    1.4378   -0.1022 H   0  0  0  0  0  0  0  0  0  0  0  0
    5.2785    2.6665   -0.2821 H   0  0  0  0  0  0  0  0  0  0  0  0
    6.6196    3.1876    1.4126 H   0  0  0  0  0  0  0  0  0  0  0  0
    4.0603    0.6804    3.7917 H   0  0  0  0  0  0  0  0  0  0  0  0
    7.3737    4.3337    3.4341 H   0  0  0  0  0  0  0  0  0  0  0  0
    4.8215    1.8427    5.8214 H   0  0  0  0  0  0  0  0  0  0  0  0
    3.0057    0.2412    0.2898 H   0  0  0  0  0  0  0  0  0  0  0  0
    2.8574    0.6097    1.9872 H   0  0  0  0  0  0  0  0  0  0  0  0
    7.1705    4.4642    5.7246 H   0  0  0  0  0  0  0  0  0  0  0  0
  1 17  1  0  0  0  0
  2 13  1  0  0  0  0
  3 24  1  0  0  0  0
  4 27  1  0  0  0  0
  4 26  1  0  0  0  0
  5 29  1  0  0  0  0
  5 14  1  0  0  0  0
  6 11  2  0  0  0  0
  6  8  1  0  0  0  0
  7 32  1  0  0  0  0
  7  9  2  0  0  0  0
  8 12  2  0  0  0  0
  9 34  1  0  0  0  0
 10 14  1  0  0  0  0
 10 36  1  0  0  0  0
 11  7  1  0  0  0  0
 12  9  1  0  0  0  0
 12 15  1  0  0  0  0
 13  1  1  0  0  0  0
 13 10  1  0  0  0  0
 13  3  1  0  0  0  0
 14  4  1  0  0  0  0
 14 11  1  0  0  0  0
 16  1  1  0  0  0  0
 18  1  1  0  0  0  0
 19  2  1  0  0  0  0
 20  2  1  0  0  0  0
 21  2  1  0  0  0  0
 22  3  1  0  0  0  0
 23  3  1  0  0  0  0
 25  4  1  0  0  0  0
 28  5  1  0  0  0  0
 30  5  1  0  0  0  0
 31  6  1  0  0  0  0
 33  8  1  0  0  0  0
 35 10  1  0  0  0  0
 37 15  1  0  0  0  0
M  END
>  <HBA>
1

>  <HBD>
1

>  <TPSA>
20.23

>  <cid>
8814

>  <dipole>
1.32

>  <excitation_energy_1>
4.927

>  <excitation_energy_2>
5.04

>  <excitation_energy_3>
5.398

>  <excitation_energy_4>
5.622

>  <homo_energy>
-5.739

>  <homo_lumo_gap>
5.777

>  <logP>
4.106

>  <lumo_energy>
0.038

>  <melting_point>
69.11

>  <molecular_refractivity>
66.7

>  <oscillator_strength_1>
0.0268

>  <oscillator_strength_2>
0.0001

>  <oscillator_strength_3>
0.0046

>  <oscillator_strength_4>
0.0808

>  <open_babel_can_smiles>
CC(c1ccc(cc1)O)(CC(C)(C)C)C

>  <mulliken_charges>
37
1   -0.442256
2   -0.445171
3   -0.446954
4   -0.440003
5   -0.468014
6   -0.202084
7   -0.199405
8   -0.196872
9   -0.161042
10   -0.260248
11   0.180184
12   0.351749
13   0.104008
14   0.012799
15   -0.646146
16   0.136426
17   0.137592
18   0.135681
19   0.135004
20   0.133222
21   0.142398
22   0.129686
23   0.145476
24   0.146743
25   0.137013
26   0.141413
27   0.145855
28   0.143066
29   0.142165
30   0.151222
31   0.126181
32   0.128539
33   0.114461
34   0.13693
35   0.120253
36   0.124118
37   0.406013

>  <lowdin_charges>
37
1   -0.441419
2   -0.447803
3   -0.443935
4   -0.43756
5   -0.442597
6   -0.163726
7   -0.155174
8   -0.21483
9   -0.185852
10   -0.276404
11   -0.016914
12   0.097354
13   0.016191
14   0.014754
15   -0.381681
16   0.146467
17   0.143667
18   0.145275
19   0.146402
20   0.144422
21   0.1484
22   0.144136
23   0.149625
24   0.150406
25   0.145642
26   0.148578
27   0.149031
28   0.15213
29   0.14642
30   0.147187
31   0.159511
32   0.155637
33   0.151388
34   0.165589
35   0.14051
36   0.141537
37   0.357636

$$$$

