PCCDB-ID:  12277
public computational chemistry database (PCCDB) project, http://pccdb.org

 28 27  0  0  1  0  0  0  0  0999 V2000
    2.5087    0.4074   -4.0820 C   0  0  0  0  0  0  0  0  0  0  0  0
    7.0961    3.4612   -2.6411 C   0  0  0  0  0  0  0  0  0  0  0  0
    2.1948   -0.0510   -0.9579 C   0  0  0  0  0  0  0  0  0  0  0  0
    4.3878    3.7619   -1.0778 C   0  0  0  0  0  0  0  0  0  0  0  0
    2.0267    1.4282   -3.0448 C   0  0  0  0  0  0  0  0  0  0  0  0
    6.2601    2.3280   -2.0372 C   0  0  0  0  0  0  0  0  0  0  0  0
    2.6248    1.2631   -1.6229 C   0  0  2  0  0  0  0  0  0  0  0  0
    4.7429    2.5898   -2.0010 C   0  0  1  0  0  0  0  0  0  0  0  0
    4.0893    1.3590   -1.5320 N   0  0  0  0  0  0  0  0  0  0  0  0
    2.0615    0.6080   -5.0619 H   0  0  0  0  0  0  0  0  0  0  0  0
    2.2404   -0.6180   -3.8034 H   0  0  0  0  0  0  0  0  0  0  0  0
    3.5976    0.4442   -4.2089 H   0  0  0  0  0  0  0  0  0  0  0  0
    8.1508    3.1713   -2.7060 H   0  0  0  0  0  0  0  0  0  0  0  0
    7.0454    4.3753   -2.0399 H   0  0  0  0  0  0  0  0  0  0  0  0
    6.7578    3.7098   -3.6549 H   0  0  0  0  0  0  0  0  0  0  0  0
    1.1039   -0.1577   -0.9628 H   0  0  0  0  0  0  0  0  0  0  0  0
    2.5465   -0.0808    0.0777 H   0  0  0  0  0  0  0  0  0  0  0  0
    2.6156   -0.9221   -1.4762 H   0  0  0  0  0  0  0  0  0  0  0  0
    4.8738    4.6848   -1.4102 H   0  0  0  0  0  0  0  0  0  0  0  0
    4.7071    3.5441   -0.0521 H   0  0  0  0  0  0  0  0  0  0  0  0
    3.3099    3.9541   -1.0617 H   0  0  0  0  0  0  0  0  0  0  0  0
    0.9322    1.3750   -2.9621 H   0  0  0  0  0  0  0  0  0  0  0  0
    2.2500    2.4396   -3.4091 H   0  0  0  0  0  0  0  0  0  0  0  0
    6.5995    2.1073   -1.0165 H   0  0  0  0  0  0  0  0  0  0  0  0
    6.4367    1.4142   -2.6244 H   0  0  0  0  0  0  0  0  0  0  0  0
    2.2156    2.0794   -1.0139 H   0  0  0  0  0  0  0  0  0  0  0  0
    4.4337    2.8635   -3.0288 H   0  0  0  0  0  0  0  0  0  0  0  0
    4.4987    0.5632   -2.0199 H   0  0  0  0  0  0  0  0  0  0  0  0
  1 11  1  0  0  0  0
  1  5  1  0  0  0  0
  2 14  1  0  0  0  0
  2  6  1  0  0  0  0
  3 17  1  0  0  0  0
  4 21  1  0  0  0  0
  4 20  1  0  0  0  0
  5 22  1  0  0  0  0
  5  7  1  0  0  0  0
  6  8  1  0  0  0  0
  6 24  1  0  0  0  0
  7  9  1  0  0  0  0
  7 26  1  1  0  0  0
  7  3  1  0  0  0  0
  8 27  1  6  0  0  0
  8  9  1  0  0  0  0
  8  4  1  0  0  0  0
 10  1  1  0  0  0  0
 12  1  1  0  0  0  0
 13  2  1  0  0  0  0
 15  2  1  0  0  0  0
 16  3  1  0  0  0  0
 18  3  1  0  0  0  0
 19  4  1  0  0  0  0
 23  5  1  0  0  0  0
 25  6  1  0  0  0  0
 28  9  1  0  0  0  0
M  END
>  <HBA>
1

>  <HBD>
1

>  <TPSA>
12.03

>  <cid>
12277

>  <dipole>
0.82

>  <excitation_energy_1>
5.254

>  <excitation_energy_2>
5.55

>  <excitation_energy_3>
5.783

>  <excitation_energy_4>
5.875

>  <homo_energy>
-5.687

>  <homo_lumo_gap>
7.668

>  <logP>
2.564

>  <lumo_energy>
1.981

>  <melting_point>
-0.71

>  <molecular_refractivity>
43.37

>  <oscillator_strength_1>
0.0065

>  <oscillator_strength_2>
0.0029

>  <oscillator_strength_3>
0.0205

>  <oscillator_strength_4>
0.0192

>  <open_babel_can_smiles>
CC[C@H](N[C@H](CC)C)C

>  <mulliken_charges>
28
1   -0.454804
2   -0.450459
3   -0.451135
4   -0.448878
5   -0.256853
6   -0.262783
7   0.047556
8   0.078135
9   -0.571981
10   0.145377
11   0.146461
12   0.137553
13   0.144176
14   0.148482
15   0.141833
16   0.137759
17   0.1563
18   0.13567
19   0.140981
20   0.150169
21   0.143534
22   0.127418
23   0.134075
24   0.143371
25   0.120888
26   0.129305
27   0.101723
28   0.286127

>  <lowdin_charges>
28
1   -0.447955
2   -0.444573
3   -0.446161
4   -0.448897
5   -0.290731
6   -0.275717
7   -0.064772
8   -0.058559
9   -0.366423
10   0.152046
11   0.146756
12   0.140999
13   0.150236
14   0.148974
15   0.14561
16   0.146243
17   0.156463
18   0.144099
19   0.150086
20   0.151824
21   0.147231
22   0.140054
23   0.140503
24   0.145622
25   0.136131
26   0.140508
27   0.111857
28   0.248546

$$$$

