PCCDB-ID:  10820
public computational chemistry database (PCCDB) project, http://pccdb.org

 24 24  0  0  0  0  0  0  0  0999 V2000
    1.8263   -0.3077    1.4042 C   0  0  0  0  0  0  0  0  0  0  0  0
    1.3880   -0.2771   -1.0986 C   0  0  0  0  0  0  0  0  0  0  0  0
    4.2933    1.6901   -0.3038 C   0  0  0  0  0  0  0  0  0  0  0  0
    2.0816    2.5432    0.1111 C   0  0  0  0  0  0  0  0  0  0  0  0
    4.7904    2.9895   -0.3777 C   0  0  0  0  0  0  0  0  0  0  0  0
    2.5666    3.8435    0.0399 C   0  0  0  0  0  0  0  0  0  0  0  0
    2.4116    0.0140    0.0158 C   0  0  0  0  0  0  0  0  0  0  0  0
    2.9360    1.4409   -0.0594 C   0  0  0  0  0  0  0  0  0  0  0  0
    3.9269    4.0784   -0.2055 C   0  0  0  0  0  0  0  0  0  0  0  0
    4.3943    5.4851   -0.2706 C   0  0  0  0  0  0  0  0  0  0  0  0
    5.7287    5.5944   -0.5092 O   0  0  0  0  0  0  0  0  0  0  0  0
    3.6875    6.4643   -0.1302 O   0  0  0  0  0  0  0  0  0  0  0  0
    1.5130   -1.3571    1.4545 H   0  0  0  0  0  0  0  0  0  0  0  0
    0.9486    0.3123    1.6212 H   0  0  0  0  0  0  0  0  0  0  0  0
    2.5628   -0.1330    2.1960 H   0  0  0  0  0  0  0  0  0  0  0  0
    1.0697   -1.3256   -1.0627 H   0  0  0  0  0  0  0  0  0  0  0  0
    1.8133   -0.0830   -2.0892 H   0  0  0  0  0  0  0  0  0  0  0  0
    0.4927    0.3464   -0.9909 H   0  0  0  0  0  0  0  0  0  0  0  0
    4.9723    0.8511   -0.4380 H   0  0  0  0  0  0  0  0  0  0  0  0
    1.0236    2.3823    0.3009 H   0  0  0  0  0  0  0  0  0  0  0  0
    5.8439    3.1626   -0.5683 H   0  0  0  0  0  0  0  0  0  0  0  0
    1.9077    4.6955    0.1724 H   0  0  0  0  0  0  0  0  0  0  0  0
    3.2690   -0.6540   -0.1427 H   0  0  0  0  0  0  0  0  0  0  0  0
    5.9109    6.5519   -0.5283 H   0  0  0  0  0  0  0  0  0  0  0  0
  1 13  1  0  0  0  0
  1 14  1  0  0  0  0
  1 15  1  0  0  0  0
  2 16  1  0  0  0  0
  2 18  1  0  0  0  0
  2  7  1  0  0  0  0
  3  8  1  0  0  0  0
  4 20  1  0  0  0  0
  5  3  2  0  0  0  0
  5  9  1  0  0  0  0
  6  4  1  0  0  0  0
  6 22  1  0  0  0  0
  7  1  1  0  0  0  0
  8  7  1  0  0  0  0
  8  4  2  0  0  0  0
  9  6  2  0  0  0  0
 10  9  1  0  0  0  0
 10 12  2  0  0  0  0
 11 10  1  0  0  0  0
 17  2  1  0  0  0  0
 19  3  1  0  0  0  0
 21  5  1  0  0  0  0
 23  7  1  0  0  0  0
 24 11  1  0  0  0  0
M  END
>  <HBA>
2

>  <HBD>
1

>  <TPSA>
37.3

>  <cid>
10820

>  <dipole>
2.34

>  <excitation_energy_1>
4.868

>  <excitation_energy_2>
4.908

>  <excitation_energy_3>
5.18

>  <excitation_energy_4>
6.204

>  <homo_energy>
-6.822

>  <homo_lumo_gap>
5.622

>  <logP>
2.508

>  <lumo_energy>
-1.2

>  <melting_point>
98.15

>  <molecular_refractivity>
47.98

>  <oscillator_strength_1>
0.0155

>  <oscillator_strength_2>
0.0

>  <oscillator_strength_3>
0.3694

>  <oscillator_strength_4>
0.1451

>  <open_babel_can_smiles>
CC(c1ccc(cc1)C(=O)O)C

>  <mulliken_charges>
24
1   -0.440578
2   -0.440153
3   -0.203793
4   -0.19252
5   -0.157865
6   -0.157492
7   -0.163318
8   0.197532
9   0.06992
10   0.534669
11   -0.584872
12   -0.477369
13   0.145319
14   0.146365
15   0.152418
16   0.145263
17   0.15234
18   0.146382
19   0.130357
20   0.13301
21   0.15883
22   0.162912
23   0.132127
24   0.410515

>  <lowdin_charges>
24
1   -0.441206
2   -0.439633
3   -0.171767
4   -0.163083
5   -0.134064
6   -0.128301
7   -0.119542
8   0.01822
9   -0.053785
10   0.198501
11   -0.363916
12   -0.276849
13   0.149619
14   0.149479
15   0.154865
16   0.149581
17   0.153663
18   0.149331
19   0.158509
20   0.156933
21   0.171613
22   0.177335
23   0.14409
24   0.360406

$$$$

