PCCDB-ID:  65020
public computational chemistry database (PCCDB) project, http://pccdb.org

 16 15  0  0  0  0  0  0  0  0999 V2000
    0.9113   -0.0115    0.1758 C   0  0  0  0  0  0  0  0  0  0  0  0
    0.3143   -1.0441    1.1350 C   0  0  0  0  0  0  0  0  0  0  0  0
    2.4308   -0.0692    0.0748 C   0  0  0  0  0  0  0  0  0  0  0  0
   -1.1530   -0.9569    1.1224 N   0  0  0  0  0  0  0  0  0  0  0  0
    4.4055    0.2268    1.2794 N   0  0  0  0  0  0  0  0  0  0  0  0
    2.9650    0.2849    1.3500 O   0  0  0  0  0  0  0  0  0  0  0  0
    0.6175    1.0000    0.4905 H   0  0  0  0  0  0  0  0  0  0  0  0
    0.4847   -0.1682   -0.8226 H   0  0  0  0  0  0  0  0  0  0  0  0
    0.7666   -0.9140    2.1320 H   0  0  0  0  0  0  0  0  0  0  0  0
    0.5897   -2.0503    0.7918 H   0  0  0  0  0  0  0  0  0  0  0  0
    2.7969    0.6294   -0.6912 H   0  0  0  0  0  0  0  0  0  0  0  0
    2.7703   -1.0772   -0.2070 H   0  0  0  0  0  0  0  0  0  0  0  0
   -1.4382   -0.0645    1.5262 H   0  0  0  0  0  0  0  0  0  0  0  0
   -1.5422   -1.6720    1.7355 H   0  0  0  0  0  0  0  0  0  0  0  0
    4.6509   -0.3891    2.0583 H   0  0  0  0  0  0  0  0  0  0  0  0
    4.6907    1.1619    1.5808 H   0  0  0  0  0  0  0  0  0  0  0  0
  1  7  1  0  0  0  0
  1  2  1  0  0  0  0
  2  9  1  0  0  0  0
  3  1  1  0  0  0  0
  3  6  1  0  0  0  0
  4  2  1  0  0  0  0
  4 13  1  0  0  0  0
  4 14  1  0  0  0  0
  5  6  1  0  0  0  0
  5 16  1  0  0  0  0
  5 15  1  0  0  0  0
  8  1  1  0  0  0  0
 10  2  1  0  0  0  0
 11  3  1  0  0  0  0
 12  3  1  0  0  0  0
M  END
>  <HBA>
3

>  <HBD>
2

>  <TPSA>
61.27

>  <cid>
65020

>  <dipole>
1.96

>  <excitation_energy_1>
5.61

>  <excitation_energy_2>
6.227

>  <excitation_energy_3>
6.427

>  <excitation_energy_4>
6.455

>  <homo_energy>
-6.155

>  <homo_lumo_gap>
8.346

>  <logP>
0.626

>  <lumo_energy>
2.191

>  <melting_point>
77.32

>  <molecular_refractivity>
23.03

>  <oscillator_strength_1>
0.0154

>  <oscillator_strength_2>
0.0118

>  <oscillator_strength_3>
0.025

>  <oscillator_strength_4>
0.0043

>  <open_babel_can_smiles>
NCCCON

>  <mulliken_charges>
16
1   -0.276359
2   -0.134232
3   0.020792
4   -0.718272
5   -0.474096
6   -0.430409
7   0.135545
8   0.151664
9   0.132057
10   0.133554
11   0.12547
12   0.123413
13   0.290543
14   0.293674
15   0.31344
16   0.313215

>  <lowdin_charges>
16
1   -0.28636
2   -0.205432
3   -0.1296
4   -0.562287
5   -0.402377
6   -0.259676
7   0.142974
8   0.155931
9   0.125729
10   0.138273
11   0.134465
12   0.129449
13   0.250396
14   0.254441
15   0.257516
16   0.256557

$$$$

