PCCDB-ID:  128
public computational chemistry database (PCCDB) project, http://pccdb.org

 19 19  0  0  1  0  0  0  0  0999 V2000
    1.5188    0.8191    0.2670 C   0  0  0  0  0  0  0  0  0  0  0  0
    0.8182    1.2526    1.5557 C   0  0  0  0  0  0  0  0  0  0  0  0
    4.3055   -0.9521    0.5993 C   0  0  0  0  0  0  0  0  0  0  0  0
    3.0511    0.8094    0.4229 C   0  0  2  0  0  0  0  0  0  0  0  0
    0.9790    2.7452    1.8239 C   0  0  0  0  0  0  0  0  0  0  0  0
    3.8004    0.4869   -0.8557 C   0  0  0  0  0  0  0  0  0  0  0  0
    3.5004   -0.2518    1.3248 N   0  0  0  0  0  0  0  0  0  0  0  0
    4.5393   -0.5653   -0.7403 N   0  0  0  0  0  0  0  0  0  0  0  0
    1.5049    3.5216    1.0618 O   0  0  0  0  0  0  0  0  0  0  0  0
    0.4697    3.1901    2.9997 O   0  0  0  0  0  0  0  0  0  0  0  0
    3.7207    1.1918   -1.9889 O   0  0  0  0  0  0  0  0  0  0  0  0
    1.2328    1.5041   -0.5398 H   0  0  0  0  0  0  0  0  0  0  0  0
    1.1899   -0.1867   -0.0137 H   0  0  0  0  0  0  0  0  0  0  0  0
    1.2172    0.6794    2.4026 H   0  0  0  0  0  0  0  0  0  0  0  0
   -0.2571    1.0326    1.4986 H   0  0  0  0  0  0  0  0  0  0  0  0
    4.8156   -1.8334    0.9793 H   0  0  0  0  0  0  0  0  0  0  0  0
    3.3760    1.7852    0.8101 H   0  0  0  0  0  0  0  0  0  0  0  0
    0.1034    2.4472    3.5084 H   0  0  0  0  0  0  0  0  0  0  0  0
    3.1500    1.9656   -1.8482 H   0  0  0  0  0  0  0  0  0  0  0  0
  1  4  1  0  0  0  0
  1  2  1  0  0  0  0
  2  5  1  0  0  0  0
  2 14  1  0  0  0  0
  3 16  1  0  0  0  0
  3  7  2  0  0  0  0
  4 17  1  1  0  0  0
  4  7  1  0  0  0  0
  5 10  1  0  0  0  0
  6  8  2  0  0  0  0
  6  4  1  0  0  0  0
  8  3  1  0  0  0  0
  9  5  2  0  0  0  0
 10 18  1  0  0  0  0
 11 19  1  0  0  0  0
 11  6  1  0  0  0  0
 12  1  1  0  0  0  0
 13  1  1  0  0  0  0
 15  2  1  0  0  0  0
M  END
>  <HBA>
5

>  <HBD>
2

>  <TPSA>
78.76

>  <cid>
128

>  <dipole>
3.93

>  <excitation_energy_1>
4.898

>  <excitation_energy_2>
5.451

>  <excitation_energy_3>
5.709

>  <excitation_energy_4>
5.754

>  <homo_energy>
-6.996

>  <homo_lumo_gap>
6.046

>  <logP>
-0.858

>  <lumo_energy>
-0.95

>  <melting_point>
139.61

>  <molecular_refractivity>
44.54

>  <oscillator_strength_1>
0.0025

>  <oscillator_strength_2>
0.0755

>  <oscillator_strength_3>
0.0022

>  <oscillator_strength_4>
0.0006

>  <open_babel_can_smiles>
OC(=O)CC[C@H]1N=CN=C1O

>  <mulliken_charges>
19
1   -0.249824
2   -0.413372
3   0.183448
4   -0.108211
5   0.612822
6   0.510144
7   -0.39914
8   -0.445568
9   -0.452415
10   -0.559571
11   -0.576478
12   0.149303
13   0.163963
14   0.202102
15   0.177559
16   0.156012
17   0.201512
18   0.415064
19   0.43265

>  <lowdin_charges>
19
1   -0.263033
2   -0.325728
3   -0.037193
4   -0.110698
5   0.201581
6   0.132467
7   -0.221557
8   -0.209419
9   -0.253573
10   -0.349066
11   -0.314867
12   0.153283
13   0.16254
14   0.181023
15   0.169625
16   0.163648
17   0.182611
18   0.363338
19   0.375019

$$$$

