PCCDB-ID:  41200
public computational chemistry database (PCCDB) project, http://pccdb.org

 40 41  0  0  1  0  0  0  0  0999 V2000
    0.9610   -0.4406   -0.1073 C   0  0  0  0  0  0  0  0  0  0  0  0
    4.4929    3.7088    5.3386 C   0  0  0  0  0  0  0  0  0  0  0  0
    4.7114   -1.3564    0.5165 C   0  0  0  0  0  0  0  0  0  0  0  0
    5.0642    4.9481    1.6732 C   0  0  0  0  0  0  0  0  0  0  0  0
    3.1891   -1.5380    0.4377 C   0  0  0  0  0  0  0  0  0  0  0  0
    4.6180    4.9824    3.1420 C   0  0  0  0  0  0  0  0  0  0  0  0
    5.0894   -0.1410    1.3761 C   0  0  0  0  0  0  0  0  0  0  0  0
    4.4976    3.7224    0.9411 C   0  0  0  0  0  0  0  0  0  0  0  0
    2.8843    0.9452    0.8092 C   0  0  0  0  0  0  0  0  0  0  0  0
    4.3997    2.4629    3.1244 C   0  0  0  0  0  0  0  0  0  0  0  0
    2.4831   -0.2638   -0.0589 C   0  0  2  0  0  0  0  0  0  0  0  0
    4.9684    3.6792    3.8814 C   0  0  2  0  0  0  0  0  0  0  0  0
    4.4121    1.1492    0.8719 C   0  0  1  0  0  0  0  0  0  0  0  0
    4.8701    2.4084    1.6562 C   0  0  1  0  0  0  0  0  0  0  0  0
    0.6774   -1.2790   -0.7551 H   0  0  0  0  0  0  0  0  0  0  0  0
    0.4663    0.4606   -0.4899 H   0  0  0  0  0  0  0  0  0  0  0  0
    0.5562   -0.6422    0.8931 H   0  0  0  0  0  0  0  0  0  0  0  0
    4.9310    4.5538    5.8837 H   0  0  0  0  0  0  0  0  0  0  0  0
    4.7697    2.7891    5.8683 H   0  0  0  0  0  0  0  0  0  0  0  0
    3.4009    3.8082    5.3944 H   0  0  0  0  0  0  0  0  0  0  0  0
    5.1124   -1.2201   -0.4988 H   0  0  0  0  0  0  0  0  0  0  0  0
    5.1818   -2.2640    0.9166 H   0  0  0  0  0  0  0  0  0  0  0  0
    6.1631    4.9188    1.6294 H   0  0  0  0  0  0  0  0  0  0  0  0
    4.7577    5.8699    1.1620 H   0  0  0  0  0  0  0  0  0  0  0  0
    2.8008   -1.7926    1.4364 H   0  0  0  0  0  0  0  0  0  0  0  0
    2.9398   -2.3842   -0.2167 H   0  0  0  0  0  0  0  0  0  0  0  0
    3.5282    5.1341    3.1876 H   0  0  0  0  0  0  0  0  0  0  0  0
    5.0717    5.8397    3.6576 H   0  0  0  0  0  0  0  0  0  0  0  0
    6.1802   -0.0104    1.3847 H   0  0  0  0  0  0  0  0  0  0  0  0
    4.7903   -0.3348    2.4163 H   0  0  0  0  0  0  0  0  0  0  0  0
    4.8631    3.6995   -0.0948 H   0  0  0  0  0  0  0  0  0  0  0  0
    3.4037    3.8168    0.8839 H   0  0  0  0  0  0  0  0  0  0  0  0
    2.4903    0.7887    1.8245 H   0  0  0  0  0  0  0  0  0  0  0  0
    2.3915    1.8464    0.4216 H   0  0  0  0  0  0  0  0  0  0  0  0
    3.3009    2.5132    3.1590 H   0  0  0  0  0  0  0  0  0  0  0  0
    4.6843    1.5439    3.6533 H   0  0  0  0  0  0  0  0  0  0  0  0
    2.8342   -0.0683   -1.0853 H   0  0  0  0  0  0  0  0  0  0  0  0
    6.0666    3.5845    3.8856 H   0  0  0  0  0  0  0  0  0  0  0  0
    4.7573    1.3001   -0.1650 H   0  0  0  0  0  0  0  0  0  0  0  0
    5.9723    2.3643    1.6758 H   0  0  0  0  0  0  0  0  0  0  0  0
  1 11  1  0  0  0  0
  1 17  1  0  0  0  0
  2 20  1  0  0  0  0
  2 19  1  0  0  0  0
  2 18  1  0  0  0  0
  3 22  1  0  0  0  0
  3  7  1  0  0  0  0
  4  6  1  0  0  0  0
  5  3  1  0  0  0  0
  5 25  1  0  0  0  0
  6 27  1  0  0  0  0
  6 28  1  0  0  0  0
  6 12  1  0  0  0  0
  7 29  1  0  0  0  0
  7 30  1  0  0  0  0
  8 14  1  0  0  0  0
  8  4  1  0  0  0  0
  9 13  1  0  0  0  0
  9 33  1  0  0  0  0
 10 35  1  0  0  0  0
 10 36  1  0  0  0  0
 10 12  1  0  0  0  0
 11 37  1  6  0  0  0
 11  5  1  0  0  0  0
 11  9  1  0  0  0  0
 12 38  1  1  0  0  0
 12  2  1  0  0  0  0
 13 39  1  6  0  0  0
 13  7  1  0  0  0  0
 13 14  1  0  0  0  0
 14 40  1  1  0  0  0
 14 10  1  0  0  0  0
 15  1  1  0  0  0  0
 16  1  1  0  0  0  0
 21  3  1  0  0  0  0
 23  4  1  0  0  0  0
 24  4  1  0  0  0  0
 26  5  1  0  0  0  0
 31  8  1  0  0  0  0
 32  8  1  0  0  0  0
 34  9  1  0  0  0  0
M  END
>  <HBA>
0

>  <HBD>
0

>  <TPSA>
0.0

>  <cid>
41200

>  <dipole>
0.15

>  <excitation_energy_1>
6.925

>  <excitation_energy_2>
7.194

>  <excitation_energy_3>
7.203

>  <excitation_energy_4>
7.214

>  <homo_energy>
-7.415

>  <homo_lumo_gap>
9.72

>  <logP>
4.639

>  <lumo_energy>
2.305

>  <melting_point>
13.28

>  <molecular_refractivity>
65.18

>  <oscillator_strength_1>
0.0013

>  <oscillator_strength_2>
0.012

>  <oscillator_strength_3>
0.0079

>  <oscillator_strength_4>
0.0028

>  <open_babel_can_smiles>
C[C@@H]1CCC[C@@H](C1)[C@H]1CCC[C@H](C1)C

>  <mulliken_charges>
40
1   -0.444884
2   -0.445087
3   -0.263113
4   -0.263401
5   -0.252454
6   -0.252023
7   -0.267319
8   -0.267349
9   -0.267518
10   -0.267764
11   -0.073186
12   -0.073189
13   -0.079123
14   -0.078434
15   0.138352
16   0.13809
17   0.137458
18   0.138361
19   0.138124
20   0.137476
21   0.126141
22   0.127786
23   0.126171
24   0.127851
25   0.122553
26   0.125579
27   0.122514
28   0.125522
29   0.124834
30   0.128809
31   0.124856
32   0.128779
33   0.125867
34   0.127969
35   0.125827
36   0.128076
37   0.115403
38   0.115429
39   0.108506
40   0.10851

>  <lowdin_charges>
40
1   -0.444659
2   -0.443048
3   -0.27702
4   -0.2754
5   -0.278429
6   -0.277055
7   -0.276477
8   -0.276407
9   -0.281671
10   -0.279927
11   -0.123425
12   -0.122076
13   -0.127569
14   -0.126333
15   0.147873
16   0.147419
17   0.144302
18   0.148023
19   0.147185
20   0.142816
21   0.135884
22   0.142774
23   0.134448
24   0.142598
25   0.134963
26   0.141596
27   0.133442
28   0.141748
29   0.138297
30   0.135899
31   0.139155
32   0.134983
33   0.136399
34   0.141524
35   0.134905
36   0.141307
37   0.131198
38   0.129864
39   0.13106
40   0.129835

$$$$

