PCCDB-ID:  24442
public computational chemistry database (PCCDB) project, http://pccdb.org

 33 33  0  0  1  0  0  0  0  0999 V2000
    3.0705    6.0246   -3.5781 C   0  0  0  0  0  0  0  0  0  0  0  0
    3.6040    5.1255   -4.6997 C   0  0  0  0  0  0  0  0  0  0  0  0
    4.1278    3.7591   -4.2268 C   0  0  0  0  0  0  0  0  0  0  0  0
    5.3684    3.8243   -3.3249 C   0  0  0  0  0  0  0  0  0  0  0  0
    5.8873    2.4350   -2.9235 C   0  0  0  0  0  0  0  0  0  0  0  0
    7.1097    2.4565   -1.9931 C   0  0  0  0  0  0  0  0  0  0  0  0
    8.4308    2.8731   -2.5897 C   0  0  0  0  0  0  0  0  0  0  0  0
    8.7211    3.0476   -3.8811 C   0  0  0  0  0  0  0  0  0  0  0  0
   10.1596    4.7189   -5.2330 C   0  0  0  0  0  0  0  0  0  0  0  0
   10.0825    3.4344   -4.3878 C   0  0  2  0  0  0  0  0  0  0  0  0
   11.1692    4.4015   -6.3218 C   0  0  0  0  0  0  0  0  0  0  0  0
   10.7003    2.3841   -5.3219 C   0  0  0  0  0  0  0  0  0  0  0  0
   11.7204    5.1390   -7.0852 O   0  0  0  0  0  0  0  0  0  0  0  0
   10.6706    1.1920   -5.2408 O   0  0  0  0  0  0  0  0  0  0  0  0
   11.3815    3.0272   -6.3522 O   0  0  0  0  0  0  0  0  0  0  0  0
    2.6645    6.9588   -3.9824 H   0  0  0  0  0  0  0  0  0  0  0  0
    3.8534    6.2916   -2.8594 H   0  0  0  0  0  0  0  0  0  0  0  0
    2.2663    5.5259   -3.0225 H   0  0  0  0  0  0  0  0  0  0  0  0
    4.4030    5.6515   -5.2420 H   0  0  0  0  0  0  0  0  0  0  0  0
    2.8026    4.9573   -5.4316 H   0  0  0  0  0  0  0  0  0  0  0  0
    4.3649    3.1479   -5.1096 H   0  0  0  0  0  0  0  0  0  0  0  0
    3.3222    3.2273   -3.6985 H   0  0  0  0  0  0  0  0  0  0  0  0
    5.1406    4.3910   -2.4116 H   0  0  0  0  0  0  0  0  0  0  0  0
    6.1602    4.3861   -3.8390 H   0  0  0  0  0  0  0  0  0  0  0  0
    6.1144    1.8449   -3.8223 H   0  0  0  0  0  0  0  0  0  0  0  0
    5.0803    1.8946   -2.4107 H   0  0  0  0  0  0  0  0  0  0  0  0
    7.2511    1.4551   -1.5575 H   0  0  0  0  0  0  0  0  0  0  0  0
    6.8978    3.1089   -1.1323 H   0  0  0  0  0  0  0  0  0  0  0  0
    9.2330    3.0140   -1.8621 H   0  0  0  0  0  0  0  0  0  0  0  0
    7.9565    2.9097   -4.6446 H   0  0  0  0  0  0  0  0  0  0  0  0
   10.4624    5.6117   -4.6818 H   0  0  0  0  0  0  0  0  0  0  0  0
    9.1995    4.9418   -5.7156 H   0  0  0  0  0  0  0  0  0  0  0  0
   10.7741    3.5119   -3.5374 H   0  0  0  0  0  0  0  0  0  0  0  0
  1 18  1  0  0  0  0
  1 17  1  0  0  0  0
  2  3  1  0  0  0  0
  2  1  1  0  0  0  0
  3 22  1  0  0  0  0
  3  4  1  0  0  0  0
  4  5  1  0  0  0  0
  4 23  1  0  0  0  0
  5 26  1  0  0  0  0
  5  6  1  0  0  0  0
  6 27  1  0  0  0  0
  6 28  1  0  0  0  0
  7  6  1  0  0  0  0
  7 29  1  0  0  0  0
  8  7  2  0  0  0  0
  9 31  1  0  0  0  0
  9 10  1  0  0  0  0
 10  8  1  0  0  0  0
 10 33  1  1  0  0  0
 11  9  1  0  0  0  0
 12 14  2  0  0  0  0
 12 10  1  0  0  0  0
 13 11  2  0  0  0  0
 15 11  1  0  0  0  0
 15 12  1  0  0  0  0
 16  1  1  0  0  0  0
 19  2  1  0  0  0  0
 20  2  1  0  0  0  0
 21  3  1  0  0  0  0
 24  4  1  0  0  0  0
 25  5  1  0  0  0  0
 30  8  1  0  0  0  0
 32  9  1  0  0  0  0
M  END
>  <HBA>
3

>  <HBD>
0

>  <TPSA>
43.37

>  <cid>
24442

>  <dipole>
5.01

>  <excitation_energy_1>
5.204

>  <excitation_energy_2>
5.25

>  <excitation_energy_3>
5.732

>  <excitation_energy_4>
5.891

>  <homo_energy>
-7.121

>  <homo_lumo_gap>
6.297

>  <logP>
2.603

>  <lumo_energy>
-0.825

>  <melting_point>
35.65

>  <molecular_refractivity>
58.7

>  <oscillator_strength_1>
0.0042

>  <oscillator_strength_2>
0.0022

>  <oscillator_strength_3>
0.0023

>  <oscillator_strength_4>
0.0034

>  <open_babel_can_smiles>
CCCCCC/C=C/[C@@H]1CC(=O)OC1=O

>  <mulliken_charges>
33
1   -0.443342
2   -0.248966
3   -0.24963
4   -0.254605
5   -0.265816
6   -0.305865
7   -0.111038
8   -0.058273
9   -0.392547
10   -0.266847
11   0.611876
12   0.617163
13   -0.420832
14   -0.415837
15   -0.439159
16   0.144141
17   0.144834
18   0.14175
19   0.127433
20   0.133537
21   0.127547
22   0.128454
23   0.133401
24   0.128488
25   0.140007
26   0.136319
27   0.15861
28   0.145186
29   0.126082
30   0.136131
31   0.199511
32   0.201719
33   0.19057

>  <lowdin_charges>
33
1   -0.449257
2   -0.274678
3   -0.277334
4   -0.281563
5   -0.277962
6   -0.273991
7   -0.145707
8   -0.178556
9   -0.310766
10   -0.154411
11   0.21017
12   0.198755
13   -0.196809
14   -0.187855
15   -0.150752
16   0.151015
17   0.147396
18   0.147512
19   0.13865
20   0.143863
21   0.140429
22   0.139289
23   0.140466
24   0.13917
25   0.143473
26   0.148154
27   0.16003
28   0.152015
29   0.152222
30   0.157689
31   0.185
32   0.184918
33   0.179423

$$$$

