PCCDB-ID:  38442
public computational chemistry database (PCCDB) project, http://pccdb.org

 25 25  0  0  0  0  0  0  0  0999 V2000
   -0.8745    0.3912    0.6440 C   0  0  0  0  0  0  0  0  0  0  0  0
    1.2483   -0.4018   -0.2115 C   0  0  0  0  0  0  0  0  0  0  0  0
   -1.4100   -0.8815    0.4921 C   0  0  0  0  0  0  0  0  0  0  0  0
    0.7241   -1.6758   -0.3653 C   0  0  0  0  0  0  0  0  0  0  0  0
   -0.7873    3.4744    0.0335 C   0  0  0  0  0  0  0  0  0  0  0  0
   -0.8601    4.7168   -0.8519 C   0  0  0  0  0  0  0  0  0  0  0  0
    1.1290    1.9520    0.4178 C   0  0  0  0  0  0  0  0  0  0  0  0
    0.4610    0.6691    0.2735 C   0  0  0  0  0  0  0  0  0  0  0  0
   -0.6089   -1.9008   -0.0193 C   0  0  0  0  0  0  0  0  0  0  0  0
    0.6250    3.1746    0.3884 N   0  0  0  0  0  0  0  0  0  0  0  0
   -1.1738   -3.2443   -0.1782 N   0  0  0  0  0  0  0  0  0  0  0  0
   -2.2283    4.8151   -1.2281 O   0  0  0  0  0  0  0  0  0  0  0  0
    1.3444    4.2006    0.6149 O   0  0  0  0  0  0  0  0  0  0  0  0
   -2.3549   -3.4090    0.1307 O   0  0  0  0  0  0  0  0  0  0  0  0
   -0.4335   -4.1280   -0.6124 O   0  0  0  0  0  0  0  0  0  0  0  0
   -1.4912    1.1601    1.0934 H   0  0  0  0  0  0  0  0  0  0  0  0
    2.2837   -0.2156   -0.4818 H   0  0  0  0  0  0  0  0  0  0  0  0
   -2.4314   -1.1003    0.7783 H   0  0  0  0  0  0  0  0  0  0  0  0
    1.3209   -2.4930   -0.7509 H   0  0  0  0  0  0  0  0  0  0  0  0
   -1.2222    2.6261   -0.4946 H   0  0  0  0  0  0  0  0  0  0  0  0
   -1.3433    3.6454    0.9604 H   0  0  0  0  0  0  0  0  0  0  0  0
   -0.2019    4.5863   -1.7241 H   0  0  0  0  0  0  0  0  0  0  0  0
   -0.5143    5.5927   -0.2943 H   0  0  0  0  0  0  0  0  0  0  0  0
    2.2027    1.9605    0.5718 H   0  0  0  0  0  0  0  0  0  0  0  0
   -2.3507    5.6602   -1.6852 H   0  0  0  0  0  0  0  0  0  0  0  0
  1 16  1  0  0  0  0
  2  8  1  0  0  0  0
  3  1  1  0  0  0  0
  3 18  1  0  0  0  0
  4  2  2  0  0  0  0
  4  9  1  0  0  0  0
  5 10  1  0  0  0  0
  5 21  1  0  0  0  0
  6 23  1  0  0  0  0
  6  5  1  0  0  0  0
  7 24  1  0  0  0  0
  8  7  1  0  0  0  0
  8  1  2  0  0  0  0
  9  3  2  0  0  0  0
 10  7  1  0  0  0  0
 10 13  1  0  0  0  0
 11  9  1  0  0  0  0
 11 14  2  0  0  0  0
 12  6  1  0  0  0  0
 15 11  2  0  0  0  0
 17  2  1  0  0  0  0
 19  4  1  0  0  0  0
 20  5  1  0  0  0  0
 22  6  1  0  0  0  0
 25 12  1  0  0  0  0
M  RAD  2   7   2  13   2
M  END
>  <HBA>
2

>  <HBD>
1

>  <TPSA>
94.8

>  <cid>
38442

>  <dipole>
3.9

>  <excitation_energy_1>
3.23

>  <excitation_energy_2>
3.427

>  <excitation_energy_3>
3.661

>  <excitation_energy_4>
4.143

>  <homo_energy>
-6.177

>  <homo_lumo_gap>
3.404

>  <logP>
1.563

>  <lumo_energy>
-2.773

>  <melting_point>
93.81

>  <molecular_refractivity>
58.06

>  <oscillator_strength_1>
0.4177

>  <oscillator_strength_2>
0.0061

>  <oscillator_strength_3>
0.0024

>  <oscillator_strength_4>
0.0079

>  <open_babel_can_smiles>
OCCN([CH]c1ccc(cc1)N(=O)=O)[O]

>  <mulliken_charges>
25
1   -0.199324
2   -0.194651
3   -0.149574
4   -0.147834
5   -0.173504
6   -0.039737
7   -0.039944
8   0.16615
9   0.274508
10   0.050235
11   0.377286
12   -0.621909
13   -0.471708
14   -0.39681
15   -0.396035
16   0.15976
17   0.154087
18   0.188676
19   0.18797
20   0.186959
21   0.193169
22   0.141377
23   0.167557
24   0.179617
25   0.403682

>  <lowdin_charges>
25
1   -0.165898
2   -0.148153
3   -0.131261
4   -0.134218
5   -0.219257
6   -0.138196
7   -0.158641
8   0.006269
9   9.9e-05
10   0.210605
11   0.307384
12   -0.470609
13   -0.358595
14   -0.247437
15   -0.249721
16   0.172292
17   0.168874
18   0.189602
19   0.191647
20   0.175048
21   0.173917
22   0.13908
23   0.153065
24   0.181789
25   0.352318

$$$$

