PCCDB-ID:  41307
public computational chemistry database (PCCDB) project, http://pccdb.org

 33 35  0  0  1  0  0  0  0  0999 V2000
    1.0665    0.1704   -0.1473 C   0  0  0  0  0  0  0  0  0  0  0  0
    4.6291   -0.0432    4.7071 C   0  0  0  0  0  0  0  0  0  0  0  0
    4.3250    4.2728    4.4468 C   0  0  0  0  0  0  0  0  0  0  0  0
    3.8182    4.8856    3.2754 C   0  0  0  0  0  0  0  0  0  0  0  0
    2.7287   -2.2127    1.2680 C   0  0  0  0  0  0  0  0  0  0  0  0
    2.9899   -1.5169   -0.0686 C   0  0  0  0  0  0  0  0  0  0  0  0
    4.4114    2.9007    4.5372 C   0  0  0  0  0  0  0  0  0  0  0  0
    3.5930   -1.5947    2.3732 C   0  0  0  0  0  0  0  0  0  0  0  0
    3.4062    4.1110    2.2157 C   0  0  0  0  0  0  0  0  0  0  0  0
    2.5892   -0.0331   -0.0060 C   0  0  2  0  0  0  0  0  0  0  0  0
    4.0506    0.6417    3.4893 C   0  0  0  0  0  0  0  0  0  0  0  0
    3.9927    2.0698    3.4612 C   0  0  0  0  0  0  0  0  0  0  0  0
    3.5780   -0.0714    2.3928 C   0  0  0  0  0  0  0  0  0  0  0  0
    3.4796    2.6937    2.2834 C   0  0  0  0  0  0  0  0  0  0  0  0
    3.1001    0.6607    1.2558 C   0  0  0  0  0  0  0  0  0  0  0  0
    3.0575    1.9800    1.2066 N   0  0  0  0  0  0  0  0  0  0  0  0
    0.7143   -0.2279   -1.1065 H   0  0  0  0  0  0  0  0  0  0  0  0
    0.8266    1.2364   -0.1028 H   0  0  0  0  0  0  0  0  0  0  0  0
    0.5110   -0.3338    0.6522 H   0  0  0  0  0  0  0  0  0  0  0  0
    5.5999    0.3902    4.9726 H   0  0  0  0  0  0  0  0  0  0  0  0
    4.7808   -1.1118    4.5535 H   0  0  0  0  0  0  0  0  0  0  0  0
    3.9761    0.0787    5.5814 H   0  0  0  0  0  0  0  0  0  0  0  0
    4.6478    4.8907    5.2804 H   0  0  0  0  0  0  0  0  0  0  0  0
    3.7569    5.9691    3.2179 H   0  0  0  0  0  0  0  0  0  0  0  0
    2.9417   -3.2862    1.1983 H   0  0  0  0  0  0  0  0  0  0  0  0
    1.6674   -2.1224    1.5339 H   0  0  0  0  0  0  0  0  0  0  0  0
    2.4419   -2.0113   -0.8804 H   0  0  0  0  0  0  0  0  0  0  0  0
    4.0582   -1.6030   -0.3136 H   0  0  0  0  0  0  0  0  0  0  0  0
    4.7986    2.4504    5.4455 H   0  0  0  0  0  0  0  0  0  0  0  0
    4.6308   -1.9400    2.2442 H   0  0  0  0  0  0  0  0  0  0  0  0
    3.2677   -1.9848    3.3445 H   0  0  0  0  0  0  0  0  0  0  0  0
    3.0121    4.5473    1.3030 H   0  0  0  0  0  0  0  0  0  0  0  0
    3.0567    0.4959   -0.8460 H   0  0  0  0  0  0  0  0  0  0  0  0
  1 18  1  0  0  0  0
  1 10  1  0  0  0  0
  1 19  1  0  0  0  0
  2 20  1  0  0  0  0
  2 22  1  0  0  0  0
  3  7  1  0  0  0  0
  3 23  1  0  0  0  0
  4  3  2  0  0  0  0
  5 26  1  0  0  0  0
  5  8  1  0  0  0  0
  6 10  1  0  0  0  0
  6  5  1  0  0  0  0
  7 29  1  0  0  0  0
  8 13  1  0  0  0  0
  8 31  1  0  0  0  0
  9 14  2  0  0  0  0
  9  4  1  0  0  0  0
 10 33  1  6  0  0  0
 10 15  1  0  0  0  0
 11  2  1  0  0  0  0
 12 11  1  0  0  0  0
 12  7  2  0  0  0  0
 13 11  2  0  0  0  0
 14 12  1  0  0  0  0
 15 13  1  0  0  0  0
 16 15  2  0  0  0  0
 16 14  1  0  0  0  0
 17  1  1  0  0  0  0
 21  2  1  0  0  0  0
 24  4  1  0  0  0  0
 25  5  1  0  0  0  0
 27  6  1  0  0  0  0
 28  6  1  0  0  0  0
 30  8  1  0  0  0  0
 32  9  1  0  0  0  0
M  END
>  <HBA>
1

>  <HBD>
0

>  <TPSA>
12.89

>  <cid>
41307

>  <dipole>
2.2

>  <excitation_energy_1>
4.183

>  <excitation_energy_2>
4.256

>  <excitation_energy_3>
4.336

>  <excitation_energy_4>
5.217

>  <homo_energy>
-5.935

>  <homo_lumo_gap>
4.721

>  <logP>
3.983

>  <lumo_energy>
-1.214

>  <melting_point>
98.26

>  <molecular_refractivity>
68.95

>  <oscillator_strength_1>
0.0039

>  <oscillator_strength_2>
0.0537

>  <oscillator_strength_3>
0.0595

>  <oscillator_strength_4>
0.0015

>  <open_babel_can_smiles>
C[C@@H]1CCCc2c1nc1ccccc1c2C

>  <mulliken_charges>
33
1   -0.449826
2   -0.542615
3   -0.131542
4   -0.138576
5   -0.273451
6   -0.271054
7   -0.205647
8   -0.35395
9   -0.145183
10   -0.129667
11   0.093037
12   0.110217
13   0.063467
14   0.235516
15   0.251539
16   -0.57364
17   0.138078
18   0.169481
19   0.139288
20   0.168566
21   0.163854
22   0.168995
23   0.128254
24   0.130192
25   0.134195
26   0.142402
27   0.132548
28   0.132764
29   0.12648
30   0.151378
31   0.149305
32   0.138264
33   0.147333

>  <lowdin_charges>
33
1   -0.442616
2   -0.448269
3   -0.159469
4   -0.15466
5   -0.27457
6   -0.278676
7   -0.16604
8   -0.277475
9   -0.153848
10   -0.130483
11   0.014179
12   -0.026804
13   -0.044232
14   0.040302
15   0.046021
16   -0.163372
17   0.146246
18   0.161398
19   0.145481
20   0.164545
21   0.161691
22   0.16553
23   0.158566
24   0.15673
25   0.144873
26   0.141666
27   0.146607
28   0.139621
29   0.158742
30   0.149935
31   0.153062
32   0.167262
33   0.158056

$$$$

