PCCDB-ID:  40095
public computational chemistry database (PCCDB) project, http://pccdb.org

 29 30  0  0  1  0  0  0  0  0999 V2000
   -1.7147    0.7891    0.1510 C   0  0  0  0  0  0  0  0  0  0  0  0
   -0.4964    1.5556   -0.4021 C   0  0  0  0  0  0  0  0  0  0  0  0
   -1.7499   -0.7233   -0.1163 C   0  0  0  0  0  0  0  0  0  0  0  0
    0.8323    1.2692    0.3324 C   0  0  0  0  0  0  0  0  0  0  0  0
   -0.4808   -1.4863    0.3312 C   0  0  0  0  0  0  0  0  0  0  0  0
    4.9859   -1.1594   -0.1239 C   0  0  0  0  0  0  0  0  0  0  0  0
    5.3783   -0.0516    0.8475 C   0  0  0  0  0  0  0  0  0  0  0  0
    1.6202    0.0202   -0.1463 C   0  0  2  0  0  0  0  0  0  0  0  0
    0.6767   -1.1067   -0.5822 C   0  0  0  0  0  0  0  0  0  0  0  0
    2.6112   -0.4447    0.9498 C   0  0  0  0  0  0  0  0  0  0  0  0
    0.7893   -1.6189   -1.6800 O   0  0  0  0  0  0  0  0  0  0  0  0
    3.5226   -2.0022    0.5813 S   0  0  0  0  0  0  0  0  0  0  0  0
    3.8670    0.8924    1.3145 S   0  0  0  0  0  0  0  0  0  0  0  0
   -2.6285    1.2303   -0.2684 H   0  0  0  0  0  0  0  0  0  0  0  0
   -1.7661    0.9638    1.2361 H   0  0  0  0  0  0  0  0  0  0  0  0
   -0.7084    2.6278   -0.3062 H   0  0  0  0  0  0  0  0  0  0  0  0
   -0.3836    1.3654   -1.4790 H   0  0  0  0  0  0  0  0  0  0  0  0
   -1.8940   -0.9130   -1.1875 H   0  0  0  0  0  0  0  0  0  0  0  0
   -2.6182   -1.1534    0.3982 H   0  0  0  0  0  0  0  0  0  0  0  0
    0.6212    1.1850    1.4083 H   0  0  0  0  0  0  0  0  0  0  0  0
    1.5007    2.1301    0.2240 H   0  0  0  0  0  0  0  0  0  0  0  0
   -0.6472   -2.5632    0.2277 H   0  0  0  0  0  0  0  0  0  0  0  0
   -0.2607   -1.2682    1.3842 H   0  0  0  0  0  0  0  0  0  0  0  0
    5.7788   -1.9077   -0.2212 H   0  0  0  0  0  0  0  0  0  0  0  0
    4.7543   -0.7615   -1.1163 H   0  0  0  0  0  0  0  0  0  0  0  0
    6.0738    0.6567    0.3848 H   0  0  0  0  0  0  0  0  0  0  0  0
    5.8394   -0.4702    1.7458 H   0  0  0  0  0  0  0  0  0  0  0  0
    2.1948    0.2730   -1.0434 H   0  0  0  0  0  0  0  0  0  0  0  0
    2.0664   -0.6371    1.8790 H   0  0  0  0  0  0  0  0  0  0  0  0
  1 15  1  0  0  0  0
  2 16  1  0  0  0  0
  2  1  1  0  0  0  0
  2  4  1  0  0  0  0
  3  1  1  0  0  0  0
  3  5  1  0  0  0  0
  3 19  1  0  0  0  0
  4 20  1  0  0  0  0
  5 23  1  0  0  0  0
  6 12  1  0  0  0  0
  6  7  1  0  0  0  0
  7 13  1  0  0  0  0
  7 27  1  0  0  0  0
  8 28  1  6  0  0  0
  8  4  1  0  0  0  0
  8 10  1  0  0  0  0
  9  8  1  0  0  0  0
  9  5  1  0  0  0  0
 10 13  1  0  0  0  0
 10 29  1  0  0  0  0
 11  9  2  0  0  0  0
 12 10  1  0  0  0  0
 14  1  1  0  0  0  0
 17  2  1  0  0  0  0
 18  3  1  0  0  0  0
 21  4  1  0  0  0  0
 22  5  1  0  0  0  0
 24  6  1  0  0  0  0
 25  6  1  0  0  0  0
 26  7  1  0  0  0  0
M  END
>  <HBA>
3

>  <HBD>
0

>  <TPSA>
67.67

>  <cid>
40095

>  <dipole>
1.76

>  <excitation_energy_1>
4.057

>  <excitation_energy_2>
4.515

>  <excitation_energy_3>
4.626

>  <excitation_energy_4>
5.033

>  <homo_energy>
-6.158

>  <homo_lumo_gap>
5.51

>  <logP>
2.942

>  <lumo_energy>
-0.648

>  <melting_point>
55.27

>  <molecular_refractivity>
61.34

>  <oscillator_strength_1>
0.0024

>  <oscillator_strength_2>
0.0023

>  <oscillator_strength_3>
0.0033

>  <oscillator_strength_4>
0.0003

>  <open_babel_can_smiles>
O=C1CCCCC[C@H]1C1SCCS1

>  <mulliken_charges>
29
1   -0.259861
2   -0.276676
3   -0.270686
4   -0.290943
5   -0.334817
6   -0.419427
7   -0.411834
8   -0.137496
9   0.459977
10   -0.445389
11   -0.450143
12   0.137015
13   0.107794
14   0.138762
15   0.131292
16   0.141063
17   0.148979
18   0.158497
19   0.142606
20   0.134503
21   0.171934
22   0.168939
23   0.133379
24   0.187589
25   0.194629
26   0.184465
27   0.19163
28   0.164082
29   0.200136

>  <lowdin_charges>
29
1   -0.277385
2   -0.280389
3   -0.268849
4   -0.282948
5   -0.3062
6   -0.374373
7   -0.375706
8   -0.167523
9   0.15918
10   -0.324584
11   -0.230012
12   0.12144
13   0.084621
14   0.14876
15   0.136527
16   0.149253
17   0.146846
18   0.150895
19   0.150746
20   0.140052
21   0.165727
22   0.168051
23   0.14347
24   0.177074
25   0.166512
26   0.173402
27   0.167591
28   0.163993
29   0.173826

$$$$

