PCCDB-ID:  9098
public computational chemistry database (PCCDB) project, http://pccdb.org

 27 28  0  0  0  0  0  0  0  0999 V2000
    2.7010   -0.5728    0.1934 C   0  0  0  0  0  0  0  0  0  0  0  0
    2.3945    0.6363   -0.7081 C   0  0  0  0  0  0  0  0  0  0  0  0
    1.6658   -1.7047    0.0723 C   0  0  0  0  0  0  0  0  0  0  0  0
    1.3668    1.6531   -0.1674 C   0  0  0  0  0  0  0  0  0  0  0  0
    0.2838   -1.4539    0.6893 C   0  0  0  0  0  0  0  0  0  0  0  0
    0.1948    1.1105    0.6739 C   0  0  0  0  0  0  0  0  0  0  0  0
   -2.7907    0.3068    0.1327 C   0  0  0  0  0  0  0  0  0  0  0  0
   -2.6783   -0.2246   -1.2965 C   0  0  0  0  0  0  0  0  0  0  0  0
   -0.4878   -0.2025    0.2442 C   0  0  0  0  0  0  0  0  0  0  0  0
   -1.7582   -0.3047    0.8878 O   0  0  0  0  0  0  0  0  0  0  0  0
   -0.8725   -0.2173   -1.6191 S   0  0  0  0  0  0  0  0  0  0  0  0
    2.8054   -0.2571    1.2421 H   0  0  0  0  0  0  0  0  0  0  0  0
    3.6777   -0.9832   -0.0948 H   0  0  0  0  0  0  0  0  0  0  0  0
    2.0526    0.2550   -1.6800 H   0  0  0  0  0  0  0  0  0  0  0  0
    3.3244    1.1807   -0.9178 H   0  0  0  0  0  0  0  0  0  0  0  0
    2.0680   -2.6093    0.5469 H   0  0  0  0  0  0  0  0  0  0  0  0
    1.5436   -1.9502   -0.9918 H   0  0  0  0  0  0  0  0  0  0  0  0
    0.9642    2.2155   -1.0176 H   0  0  0  0  0  0  0  0  0  0  0  0
    1.8877    2.3871    0.4618 H   0  0  0  0  0  0  0  0  0  0  0  0
    0.3788   -1.3783    1.7824 H   0  0  0  0  0  0  0  0  0  0  0  0
   -0.3584   -2.3182    0.4888 H   0  0  0  0  0  0  0  0  0  0  0  0
   -0.5748    1.8896    0.7227 H   0  0  0  0  0  0  0  0  0  0  0  0
    0.5251    0.9509    1.7095 H   0  0  0  0  0  0  0  0  0  0  0  0
   -3.7347    0.0293    0.6118 H   0  0  0  0  0  0  0  0  0  0  0  0
   -2.7000    1.4032    0.1391 H   0  0  0  0  0  0  0  0  0  0  0  0
   -3.1850    0.4198   -2.0200 H   0  0  0  0  0  0  0  0  0  0  0  0
   -3.0754   -1.2405   -1.3747 H   0  0  0  0  0  0  0  0  0  0  0  0
  1 12  1  0  0  0  0
  2  4  1  0  0  0  0
  2  1  1  0  0  0  0
  3  1  1  0  0  0  0
  3 16  1  0  0  0  0
  3  5  1  0  0  0  0
  4 19  1  0  0  0  0
  4  6  1  0  0  0  0
  5 20  1  0  0  0  0
  6 22  1  0  0  0  0
  6 23  1  0  0  0  0
  7 25  1  0  0  0  0
  7 24  1  0  0  0  0
  7 10  1  0  0  0  0
  8  7  1  0  0  0  0
  9  6  1  0  0  0  0
  9  5  1  0  0  0  0
  9 10  1  0  0  0  0
 11  8  1  0  0  0  0
 11  9  1  0  0  0  0
 13  1  1  0  0  0  0
 14  2  1  0  0  0  0
 15  2  1  0  0  0  0
 17  3  1  0  0  0  0
 18  4  1  0  0  0  0
 21  5  1  0  0  0  0
 26  8  1  0  0  0  0
 27  8  1  0  0  0  0
M  END
>  <HBA>
2

>  <HBD>
0

>  <TPSA>
34.53

>  <cid>
9098

>  <dipole>
0.97

>  <excitation_energy_1>
5.042

>  <excitation_energy_2>
5.547

>  <excitation_energy_3>
5.684

>  <excitation_energy_4>
5.997

>  <homo_energy>
-5.959

>  <homo_lumo_gap>
6.689

>  <logP>
2.8

>  <lumo_energy>
0.729

>  <melting_point>
27.64

>  <molecular_refractivity>
49.86

>  <oscillator_strength_1>
0.001

>  <oscillator_strength_2>
0.016

>  <oscillator_strength_3>
0.0024

>  <oscillator_strength_4>
0.0074

>  <open_babel_can_smiles>
C1CCCC2(CC1)OCCS2

>  <mulliken_charges>
27
1   -0.256467
2   -0.274061
3   -0.273912
4   -0.264936
5   -0.255951
6   -0.262616
7   -0.031828
8   -0.426926
9   0.143964
10   -0.475191
11   0.042947
12   0.127858
13   0.132099
14   0.149311
15   0.131915
16   0.133403
17   0.150341
18   0.151294
19   0.131365
20   0.141263
21   0.14973
22   0.142456
23   0.141148
24   0.157425
25   0.139662
26   0.175011
27   0.180697

>  <lowdin_charges>
27
1   -0.279253
2   -0.284759
3   -0.278487
4   -0.284588
5   -0.28063
6   -0.291234
7   -0.133677
8   -0.384867
9   0.041662
10   -0.253767
11   0.041233
12   0.136375
13   0.145441
14   0.147032
15   0.145419
16   0.147272
17   0.147028
18   0.152902
19   0.145342
20   0.145692
21   0.156868
22   0.153539
23   0.145634
24   0.156214
25   0.132736
26   0.170484
27   0.160388

$$$$

