PCCDB-ID:  39534
public computational chemistry database (PCCDB) project, http://pccdb.org

 32 32  0  0  0  0  0  0  0  0999 V2000
    1.0488   -0.8217   -0.2337 C   0  0  0  0  0  0  0  0  0  0  0  0
    3.1026   -0.3861    1.1938 C   0  0  0  0  0  0  0  0  0  0  0  0
    5.2882   -1.5173   -2.1872 C   0  0  0  0  0  0  0  0  0  0  0  0
    3.0059   -1.5692   -3.3140 C   0  0  0  0  0  0  0  0  0  0  0  0
   -0.0506    3.9035    1.9001 C   0  0  0  0  0  0  0  0  0  0  0  0
    1.6408    2.6216   -0.0031 C   0  0  0  0  0  0  0  0  0  0  0  0
    2.5091    2.0237   -1.0019 C   0  0  0  0  0  0  0  0  0  0  0  0
    1.3297    3.9332   -0.0269 C   0  0  0  0  0  0  0  0  0  0  0  0
    2.8945    0.7371   -1.0846 C   0  0  0  0  0  0  0  0  0  0  0  0
    2.5472   -0.4806   -0.2348 C   0  0  0  0  0  0  0  0  0  0  0  0
    3.8288   -1.0856   -2.1181 C   0  0  0  0  0  0  0  0  0  0  0  0
    0.5387    4.6272    0.8328 O   0  0  0  0  0  0  0  0  0  0  0  0
    3.7809    0.3482   -2.0587 O   0  0  0  0  0  0  0  0  0  0  0  0
    3.2648   -1.5444   -0.8964 O   0  0  0  0  0  0  0  0  0  0  0  0
    0.4651   -0.0609    0.2935 H   0  0  0  0  0  0  0  0  0  0  0  0
    0.8946   -1.7839    0.2661 H   0  0  0  0  0  0  0  0  0  0  0  0
    0.6643   -0.8965   -1.2547 H   0  0  0  0  0  0  0  0  0  0  0  0
    2.5926    0.3922    1.7701 H   0  0  0  0  0  0  0  0  0  0  0  0
    4.1711   -0.1543    1.1703 H   0  0  0  0  0  0  0  0  0  0  0  0
    2.9652   -1.3447    1.7058 H   0  0  0  0  0  0  0  0  0  0  0  0
    5.7567   -1.1377   -3.1004 H   0  0  0  0  0  0  0  0  0  0  0  0
    5.3557   -2.6095   -2.1843 H   0  0  0  0  0  0  0  0  0  0  0  0
    5.8276   -1.1270   -1.3203 H   0  0  0  0  0  0  0  0  0  0  0  0
    3.4466   -1.2146   -4.2513 H   0  0  0  0  0  0  0  0  0  0  0  0
    1.9822   -1.1897   -3.2473 H   0  0  0  0  0  0  0  0  0  0  0  0
    2.9733   -2.6632   -3.3295 H   0  0  0  0  0  0  0  0  0  0  0  0
   -0.6405    4.6237    2.4699 H   0  0  0  0  0  0  0  0  0  0  0  0
    0.7158    3.4598    2.5503 H   0  0  0  0  0  0  0  0  0  0  0  0
   -0.7065    3.1058    1.5253 H   0  0  0  0  0  0  0  0  0  0  0  0
    1.2378    1.9897    0.7808 H   0  0  0  0  0  0  0  0  0  0  0  0
    2.9143    2.6896   -1.7619 H   0  0  0  0  0  0  0  0  0  0  0  0
    1.7155    4.5999   -0.7935 H   0  0  0  0  0  0  0  0  0  0  0  0
  1 16  1  0  0  0  0
  1 15  1  0  0  0  0
  2 20  1  0  0  0  0
  2 18  1  0  0  0  0
  3 22  1  0  0  0  0
  3 11  1  0  0  0  0
  3 23  1  0  0  0  0
  4 25  1  0  0  0  0
  4 11  1  0  0  0  0
  5 27  1  0  0  0  0
  5 28  1  0  0  0  0
  6 30  1  0  0  0  0
  7  6  1  0  0  0  0
  8  6  2  0  0  0  0
  8 12  1  0  0  0  0
  9  7  2  0  0  0  0
  9 10  1  0  0  0  0
 10  1  1  0  0  0  0
 10  2  1  0  0  0  0
 11 13  1  0  0  0  0
 11 14  1  0  0  0  0
 12  5  1  0  0  0  0
 13  9  1  0  0  0  0
 14 10  1  0  0  0  0
 17  1  1  0  0  0  0
 19  2  1  0  0  0  0
 21  3  1  0  0  0  0
 24  4  1  0  0  0  0
 26  4  1  0  0  0  0
 29  5  1  0  0  0  0
 31  7  1  0  0  0  0
 32  8  1  0  0  0  0
M  END
>  <HBA>
3

>  <HBD>
0

>  <TPSA>
27.69

>  <cid>
39534

>  <dipole>
1.52

>  <excitation_energy_1>
4.395

>  <excitation_energy_2>
4.831

>  <excitation_energy_3>
4.916

>  <excitation_energy_4>
4.954

>  <homo_energy>
-4.838

>  <homo_lumo_gap>
5.023

>  <logP>
2.592

>  <lumo_energy>
0.185

>  <melting_point>
10.89

>  <molecular_refractivity>
55.26

>  <oscillator_strength_1>
0.0031

>  <oscillator_strength_2>
0.0074

>  <oscillator_strength_3>
0.123

>  <oscillator_strength_4>
0.4857

>  <open_babel_can_smiles>
CO/C=C/C=C\1/OC(OC1(C)C)(C)C

>  <mulliken_charges>
32
1   -0.446234
2   -0.444272
3   -0.451496
4   -0.447476
5   -0.212165
6   -0.168422
7   -0.239498
8   0.106755
9   0.343588
10   0.261892
11   0.520655
12   -0.443796
13   -0.528268
14   -0.547127
15   0.145656
16   0.154092
17   0.155633
18   0.144807
19   0.15858
20   0.153276
21   0.152958
22   0.154561
23   0.159052
24   0.1516
25   0.154618
26   0.153304
27   0.167632
28   0.14974
29   0.149392
30   0.120509
31   0.128317
32   0.142136

>  <lowdin_charges>
32
1   -0.448304
2   -0.44312
3   -0.449977
4   -0.45634
5   -0.283028
6   -0.233725
7   -0.214617
8   -0.061145
9   0.065228
10   0.124038
11   0.229722
12   -0.190912
13   -0.20142
14   -0.262467
15   0.154154
16   0.157133
17   0.15611
18   0.153508
19   0.158258
20   0.156581
21   0.160085
22   0.159126
23   0.163
24   0.158566
25   0.157638
26   0.157823
27   0.163366
28   0.14556
29   0.144874
30   0.154928
31   0.165202
32   0.160154

$$$$

