PCCDB-ID:  11317
public computational chemistry database (PCCDB) project, http://pccdb.org

 24 25  0  0  0  0  0  0  0  0999 V2000
    0.8927    0.1281    0.1254 C   0  0  0  0  0  0  0  0  0  0  0  0
    2.3647   -2.4677    0.3304 C   0  0  0  0  0  0  0  0  0  0  0  0
    7.3669   -1.0789    0.3805 C   0  0  0  0  0  0  0  0  0  0  0  0
    6.6715   -2.3093    0.4376 C   0  0  0  0  0  0  0  0  0  0  0  0
    6.6623    0.0992    0.2886 C   0  0  0  0  0  0  0  0  0  0  0  0
    5.2943   -2.3376    0.4013 C   0  0  0  0  0  0  0  0  0  0  0  0
    3.1328    1.2808    0.1166 C   0  0  0  0  0  0  0  0  0  0  0  0
    4.5042    1.3094    0.1532 C   0  0  0  0  0  0  0  0  0  0  0  0
    2.4059    0.0600    0.1727 C   0  0  0  0  0  0  0  0  0  0  0  0
    3.0953   -1.1442    0.2676 C   0  0  0  0  0  0  0  0  0  0  0  0
    5.2424    0.1028    0.2488 C   0  0  0  0  0  0  0  0  0  0  0  0
    4.5301   -1.1399    0.3066 C   0  0  0  0  0  0  0  0  0  0  0  0
    0.5560    1.1668    0.0542 H   0  0  0  0  0  0  0  0  0  0  0  0
    0.4310   -0.3036    1.0220 H   0  0  0  0  0  0  0  0  0  0  0  0
    0.4816   -0.4083   -0.7387 H   0  0  0  0  0  0  0  0  0  0  0  0
    1.2815   -2.3414    0.3013 H   0  0  0  0  0  0  0  0  0  0  0  0
    2.6053   -3.0163    1.2500 H   0  0  0  0  0  0  0  0  0  0  0  0
    2.6406   -3.1190   -0.5089 H   0  0  0  0  0  0  0  0  0  0  0  0
    8.4531   -1.0686    0.4101 H   0  0  0  0  0  0  0  0  0  0  0  0
    7.2291   -3.2395    0.5098 H   0  0  0  0  0  0  0  0  0  0  0  0
    7.1845    1.0524    0.2439 H   0  0  0  0  0  0  0  0  0  0  0  0
    4.7841   -3.2939    0.4464 H   0  0  0  0  0  0  0  0  0  0  0  0
    2.5768    2.2125    0.0430 H   0  0  0  0  0  0  0  0  0  0  0  0
    5.0393    2.2552    0.1092 H   0  0  0  0  0  0  0  0  0  0  0  0
  1  9  1  0  0  0  0
  1 14  1  0  0  0  0
  2 17  1  0  0  0  0
  3 19  1  0  0  0  0
  3  4  2  0  0  0  0
  4 20  1  0  0  0  0
  5  3  1  0  0  0  0
  6  4  1  0  0  0  0
  6 22  1  0  0  0  0
  7  8  2  0  0  0  0
  7  9  1  0  0  0  0
  8 11  1  0  0  0  0
  9 10  2  0  0  0  0
 10 12  1  0  0  0  0
 10  2  1  0  0  0  0
 11  5  2  0  0  0  0
 11 12  1  0  0  0  0
 12  6  2  0  0  0  0
 13  1  1  0  0  0  0
 15  1  1  0  0  0  0
 16  2  1  0  0  0  0
 18  2  1  0  0  0  0
 21  5  1  0  0  0  0
 23  7  1  0  0  0  0
 24  8  1  0  0  0  0
M  END
>  <HBA>
0

>  <HBD>
0

>  <TPSA>
0.0

>  <cid>
11317

>  <dipole>
0.59

>  <excitation_energy_1>
4.192

>  <excitation_energy_2>
4.368

>  <excitation_energy_3>
5.284

>  <excitation_energy_4>
5.467

>  <homo_energy>
-5.562

>  <homo_lumo_gap>
4.659

>  <logP>
3.457

>  <lumo_energy>
-0.903

>  <melting_point>
57.33

>  <molecular_refractivity>
53.88

>  <oscillator_strength_1>
0.0715

>  <oscillator_strength_2>
0.0047

>  <oscillator_strength_3>
0.0045

>  <oscillator_strength_4>
0.0165

>  <open_babel_can_smiles>
Cc1ccc2c(c1C)cccc2

>  <mulliken_charges>
24
1   -0.541434
2   -0.540817
3   -0.135642
4   -0.132789
5   -0.193835
6   -0.199696
7   -0.183609
8   -0.193053
9   0.11742
10   0.066344
11   0.140604
12   0.082024
13   0.154281
14   0.162811
15   0.16283
16   0.156903
17   0.162746
18   0.162806
19   0.127068
20   0.12612
21   0.126997
22   0.126089
23   0.120112
24   0.12572

>  <lowdin_charges>
24
1   -0.445604
2   -0.447172
3   -0.159529
4   -0.158802
5   -0.156237
6   -0.165221
7   -0.16737
8   -0.161293
9   -0.011786
10   -0.012185
11   -0.000968
12   -0.007425
13   0.155292
14   0.160054
15   0.160289
16   0.158887
17   0.160348
18   0.160815
19   0.155089
20   0.157
21   0.156201
22   0.158939
23   0.154355
24   0.156323

$$$$

