PCCDB-ID:  11124
public computational chemistry database (PCCDB) project, http://pccdb.org

 14 13  0  0  0  0  0  0  0  0999 V2000
    0.8008    0.2290    0.1932 C   0  0  0  0  0  0  0  0  0  0  0  0
    4.3390   -2.6286   -1.6104 C   0  0  0  0  0  0  0  0  0  0  0  0
    2.2988   -0.0056    0.0094 C   0  0  0  0  0  0  0  0  0  0  0  0
    2.6044   -1.2829   -0.7493 C   0  0  0  0  0  0  0  0  0  0  0  0
    1.7848   -2.0694   -1.1714 O   0  0  0  0  0  0  0  0  0  0  0  0
    3.9400   -1.4445   -0.9023 O   0  0  0  0  0  0  0  0  0  0  0  0
    0.6240    1.1644    0.7341 H   0  0  0  0  0  0  0  0  0  0  0  0
    0.3418   -0.5887    0.7567 H   0  0  0  0  0  0  0  0  0  0  0  0
    0.2913    0.2864   -0.7732 H   0  0  0  0  0  0  0  0  0  0  0  0
    5.4281   -2.5920   -1.6532 H   0  0  0  0  0  0  0  0  0  0  0  0
    3.9151   -2.6369   -2.6182 H   0  0  0  0  0  0  0  0  0  0  0  0
    4.0061   -3.5255   -1.0805 H   0  0  0  0  0  0  0  0  0  0  0  0
    2.8174   -0.0597    0.9755 H   0  0  0  0  0  0  0  0  0  0  0  0
    2.7725    0.8249   -0.5296 H   0  0  0  0  0  0  0  0  0  0  0  0
  1  7  1  0  0  0  0
  1  8  1  0  0  0  0
  2 12  1  0  0  0  0
  2  6  1  0  0  0  0
  3  1  1  0  0  0  0
  3 13  1  0  0  0  0
  4  3  1  0  0  0  0
  5  4  2  0  0  0  0
  6  4  1  0  0  0  0
  9  1  1  0  0  0  0
 10  2  1  0  0  0  0
 11  2  1  0  0  0  0
 14  3  1  0  0  0  0
M  END
>  <HBA>
2

>  <HBD>
0

>  <TPSA>
26.3

>  <cid>
11124

>  <dipole>
1.65

>  <excitation_energy_1>
5.853

>  <excitation_energy_2>
6.963

>  <excitation_energy_3>
7.489

>  <excitation_energy_4>
7.694

>  <homo_energy>
-7.323

>  <homo_lumo_gap>
7.761

>  <logP>
0.569

>  <lumo_energy>
0.438

>  <melting_point>
-12.79

>  <molecular_refractivity>
22.63

>  <oscillator_strength_1>
0.0009

>  <oscillator_strength_2>
0.019

>  <oscillator_strength_3>
0.0089

>  <oscillator_strength_4>
0.0095

>  <open_babel_can_smiles>
CCC(=O)OC

>  <mulliken_charges>
14
1   -0.435152
2   -0.216762
3   -0.351451
4   0.61749
5   -0.475445
6   -0.452042
7   0.142664
8   0.162319
9   0.162378
10   0.162896
11   0.169316
12   0.168678
13   0.172679
14   0.172432

>  <lowdin_charges>
14
1   -0.439915
2   -0.276306
3   -0.302085
4   0.198862
5   -0.264641
6   -0.199453
7   0.151816
8   0.160442
9   0.159286
10   0.157409
11   0.157658
12   0.158645
13   0.16868
14   0.169604

$$$$

