PCCDB-ID:  46078
public computational chemistry database (PCCDB) project, http://pccdb.org

 32 32  0  0  0  0  0  0  0  0999 V2000
    1.7372    0.4013    2.6797 C   0  0  0  0  0  0  0  0  0  0  0  0
    0.6670   -1.5953    1.5180 C   0  0  0  0  0  0  0  0  0  0  0  0
    4.7252    0.1314   -6.1177 C   0  0  0  0  0  0  0  0  0  0  0  0
    4.5992    1.2296   -5.2650 C   0  0  0  0  0  0  0  0  0  0  0  0
    5.2336   -1.0698   -5.6207 C   0  0  0  0  0  0  0  0  0  0  0  0
    4.9774    1.1234   -3.9260 C   0  0  0  0  0  0  0  0  0  0  0  0
    5.6105   -1.1696   -4.2806 C   0  0  0  0  0  0  0  0  0  0  0  0
    5.8578   -0.2009   -1.9500 C   0  0  0  0  0  0  0  0  0  0  0  0
    4.6653   -0.6214   -1.0733 C   0  0  0  0  0  0  0  0  0  0  0  0
    1.9383   -0.9973    2.1049 C   0  0  0  0  0  0  0  0  0  0  0  0
    5.4887   -0.0765   -3.4116 C   0  0  0  0  0  0  0  0  0  0  0  0
    4.2089   -0.8790    1.2148 C   0  0  0  0  0  0  0  0  0  0  0  0
    5.0911   -0.7399    0.3158 N   0  0  0  0  0  0  0  0  0  0  0  0
    4.5601   -0.9898    2.5236 O   0  0  0  0  0  0  0  0  0  0  0  0
    2.8851   -0.9471    0.9958 O   0  0  0  0  0  0  0  0  0  0  0  0
    1.0086    0.3707    3.4979 H   0  0  0  0  0  0  0  0  0  0  0  0
    1.3606    1.0816    1.9079 H   0  0  0  0  0  0  0  0  0  0  0  0
    2.6762    0.7989    3.0744 H   0  0  0  0  0  0  0  0  0  0  0  0
   -0.0993   -1.6864    2.2952 H   0  0  0  0  0  0  0  0  0  0  0  0
    0.8613   -2.5890    1.1029 H   0  0  0  0  0  0  0  0  0  0  0  0
    0.2749   -0.9579    0.7181 H   0  0  0  0  0  0  0  0  0  0  0  0
    4.4332    0.2123   -7.1615 H   0  0  0  0  0  0  0  0  0  0  0  0
    4.2095    2.1715   -5.6431 H   0  0  0  0  0  0  0  0  0  0  0  0
    5.3412   -1.9295   -6.2775 H   0  0  0  0  0  0  0  0  0  0  0  0
    4.8817    1.9857   -3.2691 H   0  0  0  0  0  0  0  0  0  0  0  0
    6.0106   -2.1081   -3.9019 H   0  0  0  0  0  0  0  0  0  0  0  0
    6.6574   -0.9398   -1.8194 H   0  0  0  0  0  0  0  0  0  0  0  0
    6.2461    0.7523   -1.5709 H   0  0  0  0  0  0  0  0  0  0  0  0
    4.2688   -1.5808   -1.4389 H   0  0  0  0  0  0  0  0  0  0  0  0
    3.8490    0.1074   -1.1858 H   0  0  0  0  0  0  0  0  0  0  0  0
    2.3490   -1.6619    2.8701 H   0  0  0  0  0  0  0  0  0  0  0  0
    5.5321   -0.9348    2.5181 H   0  0  0  0  0  0  0  0  0  0  0  0
  1 18  1  0  0  0  0
  1 16  1  0  0  0  0
  2 10  1  0  0  0  0
  2 19  1  0  0  0  0
  3  5  2  0  0  0  0
  3  4  1  0  0  0  0
  4  6  2  0  0  0  0
  5  7  1  0  0  0  0
  6 11  1  0  0  0  0
  6 25  1  0  0  0  0
  7 26  1  0  0  0  0
  7 11  2  0  0  0  0
  8 27  1  0  0  0  0
  8 28  1  0  0  0  0
  8  9  1  0  0  0  0
  9 13  1  0  0  0  0
 10  1  1  0  0  0  0
 10 31  1  0  0  0  0
 11  8  1  0  0  0  0
 12 14  1  0  0  0  0
 13 12  2  0  0  0  0
 15 12  1  0  0  0  0
 15 10  1  0  0  0  0
 17  1  1  0  0  0  0
 20  2  1  0  0  0  0
 21  2  1  0  0  0  0
 22  3  1  0  0  0  0
 23  4  1  0  0  0  0
 24  5  1  0  0  0  0
 29  9  1  0  0  0  0
 30  9  1  0  0  0  0
 32 14  1  0  0  0  0
M  END
>  <HBA>
3

>  <HBD>
1

>  <TPSA>
38.33

>  <cid>
46078

>  <dipole>
2.32

>  <excitation_energy_1>
5.3

>  <excitation_energy_2>
5.817

>  <excitation_energy_3>
5.864

>  <excitation_energy_4>
5.97

>  <homo_energy>
-6.283

>  <homo_lumo_gap>
6.531

>  <logP>
2.755

>  <lumo_energy>
0.248

>  <melting_point>
53.78

>  <molecular_refractivity>
59.92

>  <oscillator_strength_1>
0.0009

>  <oscillator_strength_2>
0.0009

>  <oscillator_strength_3>
0.0271

>  <oscillator_strength_4>
0.0012

>  <open_babel_can_smiles>
CC(O/C(=N\CCc1ccccc1)/O)C

>  <mulliken_charges>
32
1   -0.458472
2   -0.451918
3   -0.132075
4   -0.128208
5   -0.1279
6   -0.179719
7   -0.181146
8   -0.348648
9   -0.123823
10   0.135684
11   0.166629
12   0.736472
13   -0.514946
14   -0.611515
15   -0.489417
16   0.147879
17   0.15523
18   0.168363
19   0.14877
20   0.16107
21   0.159332
22   0.124482
23   0.124883
24   0.125129
25   0.121127
26   0.122021
27   0.145844
28   0.144108
29   0.140008
30   0.138522
31   0.160828
32   0.421411

>  <lowdin_charges>
32
1   -0.457539
2   -0.447966
3   -0.161412
4   -0.156982
5   -0.157953
6   -0.168886
7   -0.16786
8   -0.276386
9   -0.191063
10   0.015184
11   0.000483
12   0.191416
13   -0.281845
14   -0.373827
15   -0.197398
16   0.157697
17   0.157125
18   0.163326
19   0.157556
20   0.160104
21   0.159367
22   0.153875
23   0.155317
24   0.156052
25   0.154056
26   0.153917
27   0.152398
28   0.150867
29   0.140312
30   0.13824
31   0.153169
32   0.368654

$$$$

