PCCDB-ID:  21061
public computational chemistry database (PCCDB) project, http://pccdb.org

 21 21  0  0  0  0  0  0  0  0999 V2000
    2.7581    1.3070   -0.0474 C   0  0  0  0  0  0  0  0  0  0  0  0
    2.3735   -0.3398    1.7958 C   0  0  0  0  0  0  0  0  0  0  0  0
    3.1552   -2.4320    0.0314 C   0  0  0  0  0  0  0  0  0  0  0  0
    3.5260   -0.8413   -1.7490 C   0  0  0  0  0  0  0  0  0  0  0  0
    3.5914   -3.4558   -0.8027 C   0  0  0  0  0  0  0  0  0  0  0  0
    3.9610   -1.8747   -2.5716 C   0  0  0  0  0  0  0  0  0  0  0  0
    3.0991   -1.0938   -0.4240 C   0  0  0  0  0  0  0  0  0  0  0  0
    3.9898   -3.1984   -2.1189 C   0  0  0  0  0  0  0  0  0  0  0  0
    2.6423   -0.0720    0.3937 N   0  0  0  0  0  0  0  0  0  0  0  0
    4.6081   -4.5210   -3.1703 S   0  0  0  0  0  0  0  0  0  0  0  0
    2.3380    1.9636    0.7167 H   0  0  0  0  0  0  0  0  0  0  0  0
    2.1950    1.4747   -0.9741 H   0  0  0  0  0  0  0  0  0  0  0  0
    3.8019    1.6107   -0.2251 H   0  0  0  0  0  0  0  0  0  0  0  0
    2.0110    0.5735    2.2711 H   0  0  0  0  0  0  0  0  0  0  0  0
    3.2669   -0.6805    2.3427 H   0  0  0  0  0  0  0  0  0  0  0  0
    1.5950   -1.1043    1.9110 H   0  0  0  0  0  0  0  0  0  0  0  0
    2.8600   -2.6796    1.0439 H   0  0  0  0  0  0  0  0  0  0  0  0
    3.5241    0.1679   -2.1430 H   0  0  0  0  0  0  0  0  0  0  0  0
    3.6271   -4.4725   -0.4222 H   0  0  0  0  0  0  0  0  0  0  0  0
    4.2868   -1.6481   -3.5826 H   0  0  0  0  0  0  0  0  0  0  0  0
    3.4398   -4.8729   -3.7582 H   0  0  0  0  0  0  0  0  0  0  0  0
  1  9  1  0  0  0  0
  1 11  1  0  0  0  0
  2 16  1  0  0  0  0
  2 14  1  0  0  0  0
  2 15  1  0  0  0  0
  3 17  1  0  0  0  0
  4  7  2  0  0  0  0
  5 19  1  0  0  0  0
  5  3  2  0  0  0  0
  6  8  2  0  0  0  0
  6  4  1  0  0  0  0
  7  3  1  0  0  0  0
  7  9  1  0  0  0  0
  8  5  1  0  0  0  0
  9  2  1  0  0  0  0
 10  8  1  0  0  0  0
 12  1  1  0  0  0  0
 13  1  1  0  0  0  0
 18  4  1  0  0  0  0
 20  6  1  0  0  0  0
 21 10  1  0  0  0  0
M  END
>  <HBA>
2

>  <HBD>
1

>  <TPSA>
42.04

>  <cid>
21061

>  <dipole>
4.02

>  <excitation_energy_1>
4.449

>  <excitation_energy_2>
4.537

>  <excitation_energy_3>
4.849

>  <excitation_energy_4>
5.154

>  <homo_energy>
-5.249

>  <homo_lumo_gap>
5.35

>  <logP>
2.041

>  <lumo_energy>
0.101

>  <melting_point>
38.43

>  <molecular_refractivity>
47.9

>  <oscillator_strength_1>
0.0337

>  <oscillator_strength_2>
0.073

>  <oscillator_strength_3>
0.2176

>  <oscillator_strength_4>
0.004

>  <open_babel_can_smiles>
CN(c1ccc(cc1)S)C

>  <mulliken_charges>
21
1   -0.31206
2   -0.312049
3   -0.184739
4   -0.184772
5   -0.141709
6   -0.141505
7   0.365392
8   -0.107744
9   -0.470773
10   -0.099334
11   0.155855
12   0.16393
13   0.155507
14   0.155866
15   0.155486
16   0.163993
17   0.126582
18   0.126621
19   0.143438
20   0.143194
21   0.098821

>  <lowdin_charges>
21
1   -0.349785
2   -0.35111
3   -0.208665
4   -0.209428
5   -0.141052
6   -0.14073
7   0.062916
8   -0.163176
9   -0.114277
10   -0.059992
11   0.159399
12   0.152977
13   0.143327
14   0.158668
15   0.145095
16   0.153456
17   0.159879
18   0.160056
19   0.164875
20   0.164643
21   0.112924

$$$$

