PCCDB-ID:  8703
public computational chemistry database (PCCDB) project, http://pccdb.org

 24 24  0  0  0  0  0  0  0  0999 V2000
    0.9759   -1.4861   -0.2920 C   0  0  0  0  0  0  0  0  0  0  0  0
    4.5586   -2.8178   -0.3333 C   0  0  0  0  0  0  0  0  0  0  0  0
    5.2567   -1.7425    0.2091 C   0  0  0  0  0  0  0  0  0  0  0  0
    3.1751   -2.7135   -0.4955 C   0  0  0  0  0  0  0  0  0  0  0  0
    4.5842   -0.5764    0.5776 C   0  0  0  0  0  0  0  0  0  0  0  0
    3.1463    1.9036    1.2104 C   0  0  0  0  0  0  0  0  0  0  0  0
    2.1132    2.8483    1.8227 C   0  0  0  0  0  0  0  0  0  0  0  0
    2.4742   -1.5650   -0.1270 C   0  0  0  0  0  0  0  0  0  0  0  0
    3.1936   -0.4738    0.4217 C   0  0  0  0  0  0  0  0  0  0  0  0
    2.4725    0.6643    0.8323 N   0  0  0  0  0  0  0  0  0  0  0  0
    1.5136    2.2840    2.9731 O   0  0  0  0  0  0  0  0  0  0  0  0
    0.5715   -2.4383   -0.6472 H   0  0  0  0  0  0  0  0  0  0  0  0
    0.6740   -0.7181   -1.0209 H   0  0  0  0  0  0  0  0  0  0  0  0
    0.4782   -1.2395    0.6552 H   0  0  0  0  0  0  0  0  0  0  0  0
    5.0778   -3.7257   -0.6262 H   0  0  0  0  0  0  0  0  0  0  0  0
    6.3340   -1.7983    0.3423 H   0  0  0  0  0  0  0  0  0  0  0  0
    2.6183   -3.5485   -0.9156 H   0  0  0  0  0  0  0  0  0  0  0  0
    5.1502    0.2543    0.9843 H   0  0  0  0  0  0  0  0  0  0  0  0
    3.8930    1.6723    1.9762 H   0  0  0  0  0  0  0  0  0  0  0  0
    3.6669    2.3871    0.3659 H   0  0  0  0  0  0  0  0  0  0  0  0
    1.3552    3.1100    1.0604 H   0  0  0  0  0  0  0  0  0  0  0  0
    2.5965    3.7815    2.1303 H   0  0  0  0  0  0  0  0  0  0  0  0
    1.6717    0.8442    0.2341 H   0  0  0  0  0  0  0  0  0  0  0  0
    1.3690    1.3460    2.7555 H   0  0  0  0  0  0  0  0  0  0  0  0
  1  8  1  0  0  0  0
  1 14  1  0  0  0  0
  2  3  1  0  0  0  0
  3 16  1  0  0  0  0
  3  5  2  0  0  0  0
  4  2  2  0  0  0  0
  4  8  1  0  0  0  0
  5 18  1  0  0  0  0
  6  7  1  0  0  0  0
  6 19  1  0  0  0  0
  7 22  1  0  0  0  0
  7 11  1  0  0  0  0
  8  9  2  0  0  0  0
  9  5  1  0  0  0  0
  9 10  1  0  0  0  0
 10  6  1  0  0  0  0
 12  1  1  0  0  0  0
 13  1  1  0  0  0  0
 15  2  1  0  0  0  0
 17  4  1  0  0  0  0
 20  6  1  0  0  0  0
 21  7  1  0  0  0  0
 23 10  1  0  0  0  0
 24 11  1  0  0  0  0
M  END
>  <HBA>
2

>  <HBD>
2

>  <TPSA>
32.26

>  <cid>
8703

>  <dipole>
1.92

>  <excitation_energy_1>
4.796

>  <excitation_energy_2>
4.847

>  <excitation_energy_3>
5.3

>  <excitation_energy_4>
5.42

>  <homo_energy>
-5.527

>  <homo_lumo_gap>
5.698

>  <logP>
1.472

>  <lumo_energy>
0.171

>  <melting_point>
60.66

>  <molecular_refractivity>
46.68

>  <oscillator_strength_1>
0.0398

>  <oscillator_strength_2>
0.0112

>  <oscillator_strength_3>
0.0288

>  <oscillator_strength_4>
0.1363

>  <open_babel_can_smiles>
OCCNc1ccccc1C

>  <mulliken_charges>
24
1   -0.551909
2   -0.128048
3   -0.143779
4   -0.198891
5   -0.176966
6   -0.141716
7   -0.031059
8   0.153223
9   0.279723
10   -0.690492
11   -0.620983
12   0.16215
13   0.149463
14   0.163699
15   0.121893
16   0.125142
17   0.119019
18   0.126037
19   0.167978
20   0.136074
21   0.113146
22   0.14989
23   0.31752
24   0.398885

>  <lowdin_charges>
24
1   -0.44691
2   -0.181541
3   -0.14899
4   -0.160994
5   -0.20436
6   -0.220636
7   -0.137983
8   -0.033564
9   0.04497
10   -0.314271
11   -0.467616
12   0.162225
13   0.150599
14   0.158247
15   0.155983
16   0.154045
17   0.154162
18   0.158971
19   0.157926
20   0.137239
21   0.121253
22   0.15126
23   0.271581
24   0.338404

$$$$

