PCCDB-ID:  57965
public computational chemistry database (PCCDB) project, http://pccdb.org

 19 18  0  0  0  0  0  0  0  0999 V2000
    0.9288   -0.1079   -0.0668 C   0  0  0  0  0  0  0  0  0  0  0  0
    0.2197   -0.5525   -1.3670 C   0  0  0  0  0  0  0  0  0  0  0  0
    2.4587   -0.0077   -0.1452 C   0  0  0  0  0  0  0  0  0  0  0  0
    3.2634   -1.9085   -1.4837 C   0  0  0  0  0  0  0  0  0  0  0  0
    0.4473    0.4313   -2.5107 C   0  0  0  0  0  0  0  0  0  0  0  0
    3.3415   -2.3718   -2.5517 N   0  0  0  0  0  0  0  0  0  0  0  0
   -0.1949    1.5077   -2.7172 N   0  0  0  0  0  0  0  0  0  0  0  0
    3.5462   -2.0932    0.8237 N   0  0  0  0  0  0  0  0  0  0  0  0
    3.1180   -1.3255   -0.2856 N   0  0  0  0  0  0  0  0  0  0  0  0
    1.5087    0.1749   -3.3254 O   0  0  0  0  0  0  0  0  0  0  0  0
    3.3394   -1.5535    1.8771 O   0  0  0  0  0  0  0  0  0  0  0  0
    0.6596   -0.7903    0.7473 H   0  0  0  0  0  0  0  0  0  0  0  0
    0.5573    0.8847    0.2160 H   0  0  0  0  0  0  0  0  0  0  0  0
   -0.8553   -0.6111   -1.1668 H   0  0  0  0  0  0  0  0  0  0  0  0
    0.5344   -1.5646   -1.6506 H   0  0  0  0  0  0  0  0  0  0  0  0
    2.8583    0.4148    0.7792 H   0  0  0  0  0  0  0  0  0  0  0  0
    2.7865    0.6087   -0.9858 H   0  0  0  0  0  0  0  0  0  0  0  0
   -0.9415    1.6074   -2.0269 H   0  0  0  0  0  0  0  0  0  0  0  0
    1.8173   -0.7409   -3.2254 H   0  0  0  0  0  0  0  0  0  0  0  0
  1 13  1  0  0  0  0
  1 12  1  0  0  0  0
  2 14  1  0  0  0  0
  2  1  1  0  0  0  0
  3  1  1  0  0  0  0
  3 16  1  0  0  0  0
  4  9  1  0  0  0  0
  5  2  1  0  0  0  0
  6  4  3  0  0  0  0
  7  5  2  0  0  0  0
  7 18  1  0  0  0  0
  8 11  1  0  0  0  0
  9  3  1  0  0  0  0
  9  8  1  0  0  0  0
 10 19  1  0  0  0  0
 10  5  1  0  0  0  0
 15  2  1  0  0  0  0
 17  3  1  0  0  0  0
M  RAD  2   8   2  11   2
M  END
>  <HBA>
6

>  <HBD>
1

>  <TPSA>
99.55

>  <cid>
57965

>  <dipole>
4.07

>  <excitation_energy_1>
3.182

>  <excitation_energy_2>
3.946

>  <excitation_energy_3>
4.007

>  <excitation_energy_4>
4.91

>  <homo_energy>
-7.353

>  <homo_lumo_gap>
4.433

>  <logP>
0.417

>  <lumo_energy>
-2.92

>  <melting_point>
105.33

>  <molecular_refractivity>
36.44

>  <oscillator_strength_1>
0.0015

>  <oscillator_strength_2>
0.0001

>  <oscillator_strength_3>
0.0005

>  <oscillator_strength_4>
0.1202

>  <open_babel_can_smiles>
[O][N]N(CCCC(=N)O)C#N

>  <mulliken_charges>
19
1   -0.262732
2   -0.371233
3   -0.193052
4   0.617697
5   0.46177
6   -0.447681
7   -0.567796
8   0.21422
9   -0.383836
10   -0.583223
11   -0.279972
12   0.169865
13   0.169787
14   0.172496
15   0.159865
16   0.203976
17   0.21503
18   0.281238
19   0.423583

>  <lowdin_charges>
19
1   -0.274239
2   -0.314284
3   -0.208966
4   0.023169
5   0.120376
6   -0.130383
7   -0.39394
8   0.110547
9   -0.030231
10   -0.367701
11   -0.165335
12   0.16238
13   0.163927
14   0.167545
15   0.157278
16   0.182781
17   0.185698
18   0.255501
19   0.355877

$$$$

