PCCDB-ID:  54356
public computational chemistry database (PCCDB) project, http://pccdb.org

 25 27  0  0  0  0  0  0  0  0999 V2000
    0.9478   -0.0104    0.0239 C   0  0  0  0  0  0  0  0  0  0  0  0
    1.2858    4.6755    0.0268 C   0  0  0  0  0  0  0  0  0  0  0  0
    2.4109    5.5022    0.0250 C   0  0  0  0  0  0  0  0  0  0  0  0
    4.6277   -1.0774    0.0231 C   0  0  0  0  0  0  0  0  0  0  0  0
    3.2320   -1.0959    0.0234 C   0  0  0  0  0  0  0  0  0  0  0  0
    1.4034    3.2761    0.0263 C   0  0  0  0  0  0  0  0  0  0  0  0
    3.6935    4.9380    0.0237 C   0  0  0  0  0  0  0  0  0  0  0  0
    5.3123    0.1425    0.0227 C   0  0  0  0  0  0  0  0  0  0  0  0
    2.4551    0.0789    0.0236 C   0  0  0  0  0  0  0  0  0  0  0  0
    2.6759    2.7090    0.0245 C   0  0  0  0  0  0  0  0  0  0  0  0
    3.8050    3.5571    0.0231 C   0  0  0  0  0  0  0  0  0  0  0  0
    4.5593    1.3056    0.0232 C   0  0  0  0  0  0  0  0  0  0  0  0
    3.1483    1.2958    0.0239 C   0  0  0  0  0  0  0  0  0  0  0  0
    5.0450    2.7209    0.0228 C   0  0  0  0  0  0  0  0  0  0  0  0
    6.2009    3.1080    0.0226 O   0  0  0  0  0  0  0  0  0  0  0  0
    0.6183   -1.0538    0.0157 H   0  0  0  0  0  0  0  0  0  0  0  0
    0.5134    0.4824   -0.8546 H   0  0  0  0  0  0  0  0  0  0  0  0
    0.5146    0.4681    0.9110 H   0  0  0  0  0  0  0  0  0  0  0  0
    0.2946    5.1215    0.0276 H   0  0  0  0  0  0  0  0  0  0  0  0
    2.2894    6.5816    0.0256 H   0  0  0  0  0  0  0  0  0  0  0  0
    5.1770   -2.0146    0.0224 H   0  0  0  0  0  0  0  0  0  0  0  0
    2.7172   -2.0540    0.0230 H   0  0  0  0  0  0  0  0  0  0  0  0
    0.5076    2.6658    0.0287 H   0  0  0  0  0  0  0  0  0  0  0  0
    4.5881    5.5545    0.0227 H   0  0  0  0  0  0  0  0  0  0  0  0
    6.3972    0.1940    0.0223 H   0  0  0  0  0  0  0  0  0  0  0  0
  1 18  1  0  0  0  0
  2 19  1  0  0  0  0
  3 20  1  0  0  0  0
  3  2  2  0  0  0  0
  4  5  1  0  0  0  0
  5  9  2  0  0  0  0
  6  2  1  0  0  0  0
  6 23  1  0  0  0  0
  7  3  1  0  0  0  0
  8  4  2  0  0  0  0
  8 12  1  0  0  0  0
  9  1  1  0  0  0  0
  9 13  1  0  0  0  0
 10  6  2  0  0  0  0
 11  7  2  0  0  0  0
 11 10  1  0  0  0  0
 12 13  2  0  0  0  0
 13 10  1  0  0  0  0
 14 11  1  0  0  0  0
 14 12  1  0  0  0  0
 15 14  2  0  0  0  0
 16  1  1  0  0  0  0
 17  1  1  0  0  0  0
 21  4  1  0  0  0  0
 22  5  1  0  0  0  0
 24  7  1  0  0  0  0
 25  8  1  0  0  0  0
M  END
>  <HBA>
1

>  <HBD>
0

>  <TPSA>
17.07

>  <cid>
54356

>  <dipole>
3.66

>  <excitation_energy_1>
3.088

>  <excitation_energy_2>
3.145

>  <excitation_energy_3>
3.948

>  <excitation_energy_4>
4.332

>  <homo_energy>
-6.161

>  <homo_lumo_gap>
3.959

>  <logP>
3.206

>  <lumo_energy>
-2.201

>  <melting_point>
104.55

>  <molecular_refractivity>
60.28

>  <oscillator_strength_1>
0.0066

>  <oscillator_strength_2>
0.0

>  <oscillator_strength_3>
0.0374

>  <oscillator_strength_4>
0.0316

>  <open_babel_can_smiles>
Cc1cccc2c1c1ccccc1C2=O

>  <mulliken_charges>
25
1   -0.539211
2   -0.126709
3   -0.135583
4   -0.128215
5   -0.189071
6   -0.204313
7   -0.175727
8   -0.181669
9   0.137173
10   0.08166
11   0.043021
12   0.048966
13   0.007515
14   0.340097
15   -0.466444
16   0.158787
17   0.169615
18   0.169677
19   0.13708
20   0.137873
21   0.136868
22   0.12887
23   0.137144
24   0.157042
25   0.155553

>  <lowdin_charges>
25
1   -0.444001
2   -0.13835
3   -0.153752
4   -0.154744
5   -0.150622
6   -0.168064
7   -0.126734
8   -0.128921
9   0.000345
10   0.005981
11   -0.047961
12   -0.047426
13   -0.007793
14   0.151337
15   -0.225569
16   0.158608
17   0.163853
18   0.163848
19   0.161146
20   0.160214
21   0.162155
22   0.158218
23   0.163591
24   0.17378
25   0.170862

$$$$

