PCCDB-ID:  56385
public computational chemistry database (PCCDB) project, http://pccdb.org

 38 39  0  0  0  0  0  0  0  0999 V2000
    0.7658   -0.9750    2.1844 C   0  0  0  0  0  0  0  0  0  0  0  0
   11.3404    0.2733    0.2112 C   0  0  0  0  0  0  0  0  0  0  0  0
    8.8582   -4.5517    0.1661 C   0  0  0  0  0  0  0  0  0  0  0  0
    2.2961   -1.0336    2.1316 C   0  0  0  0  0  0  0  0  0  0  0  0
    6.3059    1.4406    0.7229 C   0  0  0  0  0  0  0  0  0  0  0  0
    2.8761   -0.0488    1.1093 C   0  0  0  0  0  0  0  0  0  0  0  0
    4.8311    1.2025    0.3957 C   0  0  0  0  0  0  0  0  0  0  0  0
    8.5203    0.2301    0.4505 C   0  0  0  0  0  0  0  0  0  0  0  0
    7.2528   -2.2359    0.4350 C   0  0  0  0  0  0  0  0  0  0  0  0
    4.9757   -1.1801    0.6571 C   0  0  0  0  0  0  0  0  0  0  0  0
    7.1195    0.1741    0.5701 C   0  0  0  0  0  0  0  0  0  0  0  0
    6.4850   -1.0643    0.5642 C   0  0  0  0  0  0  0  0  0  0  0  0
    9.2848   -0.9233    0.3232 C   0  0  0  0  0  0  0  0  0  0  0  0
    8.6361   -2.1854    0.3156 C   0  0  0  0  0  0  0  0  0  0  0  0
    4.3354    0.0436    1.1384 N   0  0  0  0  0  0  0  0  0  0  0  0
   10.6436   -0.9590    0.1987 O   0  0  0  0  0  0  0  0  0  0  0  0
    9.4566   -3.2690    0.1896 O   0  0  0  0  0  0  0  0  0  0  0  0
    0.3671   -1.6867    2.9156 H   0  0  0  0  0  0  0  0  0  0  0  0
    0.3230   -1.2171    1.2103 H   0  0  0  0  0  0  0  0  0  0  0  0
    0.4145    0.0249    2.4678 H   0  0  0  0  0  0  0  0  0  0  0  0
   12.3972    0.0204    0.1049 H   0  0  0  0  0  0  0  0  0  0  0  0
   11.1902    0.8149    1.1553 H   0  0  0  0  0  0  0  0  0  0  0  0
   11.0371    0.9201   -0.6237 H   0  0  0  0  0  0  0  0  0  0  0  0
    8.1665   -4.6616   -0.6806 H   0  0  0  0  0  0  0  0  0  0  0  0
    8.3176   -4.7650    1.0987 H   0  0  0  0  0  0  0  0  0  0  0  0
    9.6792   -5.2628    0.0554 H   0  0  0  0  0  0  0  0  0  0  0  0
    2.6061   -2.0587    1.8931 H   0  0  0  0  0  0  0  0  0  0  0  0
    2.7202   -0.7991    3.1161 H   0  0  0  0  0  0  0  0  0  0  0  0
    6.3806    1.8095    1.7556 H   0  0  0  0  0  0  0  0  0  0  0  0
    6.7046    2.2325    0.0750 H   0  0  0  0  0  0  0  0  0  0  0  0
    2.4835    0.9511    1.3350 H   0  0  0  0  0  0  0  0  0  0  0  0
    2.5040   -0.3105    0.0956 H   0  0  0  0  0  0  0  0  0  0  0  0
    4.7032    1.0752   -0.6991 H   0  0  0  0  0  0  0  0  0  0  0  0
    4.2417    2.0789    0.6872 H   0  0  0  0  0  0  0  0  0  0  0  0
    9.0042    1.2014    0.4557 H   0  0  0  0  0  0  0  0  0  0  0  0
    6.7453   -3.1954    0.4297 H   0  0  0  0  0  0  0  0  0  0  0  0
    4.7225   -2.0017    1.3364 H   0  0  0  0  0  0  0  0  0  0  0  0
    4.5725   -1.4674   -0.3401 H   0  0  0  0  0  0  0  0  0  0  0  0
  1 20  1  0  0  0  0
  1 18  1  0  0  0  0
  2 22  1  0  0  0  0
  3 17  1  0  0  0  0
  3 25  1  0  0  0  0
  4  1  1  0  0  0  0
  4 28  1  0  0  0  0
  5 29  1  0  0  0  0
  6 15  1  0  0  0  0
  6 31  1  0  0  0  0
  6  4  1  0  0  0  0
  7 34  1  0  0  0  0
  7  5  1  0  0  0  0
  7 15  1  0  0  0  0
  8 35  1  0  0  0  0
  8 11  2  0  0  0  0
  9 12  2  0  0  0  0
 10 15  1  0  0  0  0
 10 37  1  0  0  0  0
 11  5  1  0  0  0  0
 12 11  1  0  0  0  0
 12 10  1  0  0  0  0
 13  8  1  0  0  0  0
 14 13  2  0  0  0  0
 14  9  1  0  0  0  0
 16  2  1  0  0  0  0
 16 13  1  0  0  0  0
 17 14  1  0  0  0  0
 19  1  1  0  0  0  0
 21  2  1  0  0  0  0
 23  2  1  0  0  0  0
 24  3  1  0  0  0  0
 26  3  1  0  0  0  0
 27  4  1  0  0  0  0
 30  5  1  0  0  0  0
 32  6  1  0  0  0  0
 33  7  1  0  0  0  0
 36  9  1  0  0  0  0
 38 10  1  0  0  0  0
M  END
>  <HBA>
3

>  <HBD>
0

>  <TPSA>
21.7

>  <cid>
56385

>  <dipole>
0.71

>  <excitation_energy_1>
4.718

>  <excitation_energy_2>
4.921

>  <excitation_energy_3>
5.068

>  <excitation_energy_4>
5.117

>  <homo_energy>
-5.184

>  <homo_lumo_gap>
5.576

>  <logP>
2.41

>  <lumo_energy>
0.392

>  <melting_point>
46.77

>  <molecular_refractivity>
73.28

>  <oscillator_strength_1>
0.0811

>  <oscillator_strength_2>
0.0108

>  <oscillator_strength_3>
0.0005

>  <oscillator_strength_4>
0.0098

>  <open_babel_can_smiles>
CCCN1CCc2c(C1)cc(c(c2)OC)OC

>  <mulliken_charges>
38
1   -0.447372
2   -0.210562
3   -0.210795
4   -0.261575
5   -0.334465
6   -0.091208
7   -0.131072
8   -0.278282
9   -0.268486
10   -0.184647
11   0.125177
12   0.095661
13   0.34453
14   0.341754
15   -0.408382
16   -0.503143
17   -0.502865
18   0.145328
19   0.143169
20   0.142743
21   0.167676
22   0.148693
23   0.147774
24   0.147853
25   0.148246
26   0.167907
27   0.136573
28   0.146273
29   0.155733
30   0.135168
31   0.1306
32   0.103263
33   0.113074
34   0.133664
35   0.122282
36   0.12137
37   0.150452
38   0.117889

>  <lowdin_charges>
38
1   -0.44463
2   -0.276022
3   -0.277276
4   -0.277725
5   -0.276168
6   -0.196994
7   -0.195414
8   -0.2175
9   -0.216541
10   -0.197698
11   -0.021693
12   -0.027003
13   0.080115
14   0.07751
15   -0.186647
16   -0.190727
17   -0.189902
18   0.152722
19   0.14679
20   0.146161
21   0.159887
22   0.143254
23   0.143437
24   0.143134
25   0.143016
26   0.162557
27   0.139839
28   0.147591
29   0.153778
30   0.148915
31   0.140901
32   0.112418
33   0.114432
34   0.145267
35   0.159002
36   0.158632
37   0.152138
38   0.120443

$$$$

