PCCDB-ID:  34089
public computational chemistry database (PCCDB) project, http://pccdb.org

 20 20  0  0  0  0  0  0  0  0999 V2000
    3.3837   -0.5424   -1.0287 C   0  0  0  0  0  0  0  0  0  0  0  0
    4.7988    1.4881    4.4290 C   0  0  0  0  0  0  0  0  0  0  0  0
    2.5447    0.0804    0.0993 C   0  0  0  0  0  0  0  0  0  0  0  0
    4.1212   -0.9059    3.9235 C   0  0  0  0  0  0  0  0  0  0  0  0
    3.5315   -1.8290    3.0606 C   0  0  0  0  0  0  0  0  0  0  0  0
    3.6750    0.7582    2.2753 C   0  0  0  0  0  0  0  0  0  0  0  0
    4.1991    0.4339    3.5312 C   0  0  0  0  0  0  0  0  0  0  0  0
    3.0999   -0.2327    1.4719 C   0  0  0  0  0  0  0  0  0  0  0  0
    3.0284   -1.5181    1.8622 N   0  0  0  0  0  0  0  0  0  0  0  0
    2.9259   -0.3529   -2.0061 H   0  0  0  0  0  0  0  0  0  0  0  0
    3.4614   -1.6245   -0.8860 H   0  0  0  0  0  0  0  0  0  0  0  0
    4.3983   -0.1275   -1.0425 H   0  0  0  0  0  0  0  0  0  0  0  0
    5.5620    1.0645    5.0899 H   0  0  0  0  0  0  0  0  0  0  0  0
    4.0288    1.9409    5.0678 H   0  0  0  0  0  0  0  0  0  0  0  0
    5.2556    2.2963    3.8484 H   0  0  0  0  0  0  0  0  0  0  0  0
    1.5224   -0.3136    0.0422 H   0  0  0  0  0  0  0  0  0  0  0  0
    2.4807    1.1670   -0.0350 H   0  0  0  0  0  0  0  0  0  0  0  0
    4.5136   -1.2293    4.8842 H   0  0  0  0  0  0  0  0  0  0  0  0
    3.4609   -2.8772    3.3496 H   0  0  0  0  0  0  0  0  0  0  0  0
    3.7154    1.7845    1.9174 H   0  0  0  0  0  0  0  0  0  0  0  0
  1 11  1  0  0  0  0
  1  3  1  0  0  0  0
  2 14  1  0  0  0  0
  2 13  1  0  0  0  0
  3  8  1  0  0  0  0
  4 18  1  0  0  0  0
  5 19  1  0  0  0  0
  5  4  2  0  0  0  0
  6  7  2  0  0  0  0
  7  4  1  0  0  0  0
  7  2  1  0  0  0  0
  8  9  2  0  0  0  0
  8  6  1  0  0  0  0
  9  5  1  0  0  0  0
 10  1  1  0  0  0  0
 12  1  1  0  0  0  0
 15  2  1  0  0  0  0
 16  3  1  0  0  0  0
 17  3  1  0  0  0  0
 20  6  1  0  0  0  0
M  END
>  <HBA>
1

>  <HBD>
0

>  <TPSA>
12.89

>  <cid>
34089

>  <dipole>
2.21

>  <excitation_energy_1>
4.911

>  <excitation_energy_2>
5.178

>  <excitation_energy_3>
5.314

>  <excitation_energy_4>
5.995

>  <homo_energy>
-6.68

>  <homo_lumo_gap>
6.251

>  <logP>
1.952

>  <lumo_energy>
-0.43

>  <melting_point>
26.83

>  <molecular_refractivity>
38.98

>  <oscillator_strength_1>
0.0045

>  <oscillator_strength_2>
0.0003

>  <oscillator_strength_3>
0.0466

>  <oscillator_strength_4>
0.0242

>  <open_babel_can_smiles>
CCc1nccc(c1)C

>  <mulliken_charges>
20
1   -0.441129
2   -0.529599
3   -0.311959
4   -0.191843
5   0.037775
6   -0.225534
7   0.199336
8   0.308089
9   -0.468269
10   0.141125
11   0.169847
12   0.141518
13   0.161808
14   0.172828
15   0.162403
16   0.156843
17   0.133207
18   0.125926
19   0.13532
20   0.12231

>  <lowdin_charges>
20
1   -0.437433
2   -0.445333
3   -0.271496
4   -0.194087
5   -0.085566
6   -0.196778
7   0.026588
8   0.05632
9   -0.165262
10   0.14845
11   0.158901
12   0.146089
13   0.162278
14   0.168507
15   0.162417
16   0.157954
17   0.141554
18   0.158781
19   0.152451
20   0.155664

$$$$

