PCCDB-ID:  26384
public computational chemistry database (PCCDB) project, http://pccdb.org

 20 21  0  0  0  0  0  0  0  0999 V2000
    0.9959   -0.0096    0.1514 C   0  0  0  0  0  0  0  0  0  0  0  0
    6.6491    2.2554   -0.1339 C   0  0  0  0  0  0  0  0  0  0  0  0
    7.3499    1.0385   -0.1584 C   0  0  0  0  0  0  0  0  0  0  0  0
    5.2634    2.2534   -0.0685 C   0  0  0  0  0  0  0  0  0  0  0  0
    6.6717   -0.1734   -0.1180 C   0  0  0  0  0  0  0  0  0  0  0  0
    2.4984   -0.0436    0.0792 C   0  0  0  0  0  0  0  0  0  0  0  0
    4.5509    1.0422   -0.0264 C   0  0  0  0  0  0  0  0  0  0  0  0
    5.2714   -0.1745   -0.0517 C   0  0  0  0  0  0  0  0  0  0  0  0
    3.1452   -1.3911    0.0579 C   0  0  0  0  0  0  0  0  0  0  0  0
    3.1665    1.0667    0.0388 N   0  0  0  0  0  0  0  0  0  0  0  0
    4.5282   -1.3399   -0.0076 N   0  0  0  0  0  0  0  0  0  0  0  0
    2.5420   -2.4577    0.0935 O   0  0  0  0  0  0  0  0  0  0  0  0
    0.5895   -1.0216    0.1587 H   0  0  0  0  0  0  0  0  0  0  0  0
    0.5902    0.5415   -0.7040 H   0  0  0  0  0  0  0  0  0  0  0  0
    0.6743    0.5170    1.0570 H   0  0  0  0  0  0  0  0  0  0  0  0
    7.1927    3.1947   -0.1649 H   0  0  0  0  0  0  0  0  0  0  0  0
    8.4349    1.0393   -0.2106 H   0  0  0  0  0  0  0  0  0  0  0  0
    4.6902    3.1749   -0.0486 H   0  0  0  0  0  0  0  0  0  0  0  0
    7.2134   -1.1160   -0.1368 H   0  0  0  0  0  0  0  0  0  0  0  0
    4.9938   -2.2410   -0.0269 H   0  0  0  0  0  0  0  0  0  0  0  0
  1 13  1  0  0  0  0
  1 15  1  0  0  0  0
  2  4  1  0  0  0  0
  3  2  2  0  0  0  0
  3  5  1  0  0  0  0
  4 18  1  0  0  0  0
  4  7  2  0  0  0  0
  5  8  2  0  0  0  0
  6  1  1  0  0  0  0
  7 10  1  0  0  0  0
  8  7  1  0  0  0  0
  8 11  1  0  0  0  0
  9  6  1  0  0  0  0
  9 12  2  0  0  0  0
 10  6  2  0  0  0  0
 11  9  1  0  0  0  0
 14  1  1  0  0  0  0
 16  2  1  0  0  0  0
 17  3  1  0  0  0  0
 19  5  1  0  0  0  0
 20 11  1  0  0  0  0
M  END
>  <HBA>
2

>  <HBD>
1

>  <TPSA>
45.75

>  <cid>
26384

>  <dipole>
3.13

>  <excitation_energy_1>
3.641

>  <excitation_energy_2>
3.907

>  <excitation_energy_3>
4.471

>  <excitation_energy_4>
5.032

>  <homo_energy>
-6.169

>  <homo_lumo_gap>
4.376

>  <logP>
1.232

>  <lumo_energy>
-1.793

>  <melting_point>
150.71

>  <molecular_refractivity>
47.33

>  <oscillator_strength_1>
0.0006

>  <oscillator_strength_2>
0.1479

>  <oscillator_strength_3>
0.1226

>  <oscillator_strength_4>
0.001

>  <open_babel_can_smiles>
O=c1[nH]c2ccccc2nc1C

>  <mulliken_charges>
20
1   -0.512937
2   -0.138066
3   -0.133487
4   -0.159081
5   -0.185169
6   0.24693
7   0.240375
8   0.386327
9   0.575903
10   -0.51343
11   -0.734956
12   -0.516618
13   0.192331
14   0.174851
15   0.175025
16   0.137411
17   0.140284
18   0.150457
19   0.135949
20   0.337899

>  <lowdin_charges>
20
1   -0.450015
2   -0.169599
3   -0.136194
4   -0.140422
5   -0.18944
6   0.0348
7   0.008199
8   0.048612
9   0.135049
10   -0.125315
11   -0.197857
12   -0.299845
13   0.178089
14   0.173713
15   0.173448
16   0.163508
17   0.161927
18   0.173127
19   0.161257
20   0.296959

$$$$

