PCCDB-ID:  51636
public computational chemistry database (PCCDB) project, http://pccdb.org

 36 37  0  0  1  0  0  0  0  0999 V2000
    1.9184   -2.4646   -3.1210 C   0  0  0  0  0  0  0  0  0  0  0  0
    2.3071   -0.2643   -2.2575 C   0  0  0  0  0  0  0  0  0  0  0  0
   11.5913   -2.0231    2.4248 C   0  0  0  0  0  0  0  0  0  0  0  0
    7.1882   -0.8150   -1.7140 C   0  0  0  0  0  0  0  0  0  0  0  0
    5.9029   -1.5441   -2.1150 C   0  0  0  0  0  0  0  0  0  0  0  0
    8.7977   -2.3110    2.0242 C   0  0  0  0  0  0  0  0  0  0  0  0
    7.4418   -2.4198    1.7439 C   0  0  0  0  0  0  0  0  0  0  0  0
    9.1121   -1.2380   -0.1337 C   0  0  0  0  0  0  0  0  0  0  0  0
    3.5310   -2.1577   -1.3498 C   0  0  0  0  0  0  0  0  0  0  0  0
    7.7527   -1.3403   -0.4114 C   0  0  0  0  0  0  0  0  0  0  0  0
    4.8681   -1.4943   -0.9799 C   0  0  1  0  0  0  0  0  0  0  0  0
    9.6423   -1.7135    1.0742 C   0  0  0  0  0  0  0  0  0  0  0  0
    6.8995   -1.9417    0.5428 C   0  0  0  0  0  0  0  0  0  0  0  0
    5.4373   -2.0934    0.3104 C   0  0  0  0  0  0  0  0  0  0  0  0
    2.9042   -1.5645   -2.5354 N   0  0  0  0  0  0  0  0  0  0  0  0
    4.7154   -2.6564    1.1252 O   0  0  0  0  0  0  0  0  0  0  0  0
   10.9842   -1.5556    1.2277 O   0  0  0  0  0  0  0  0  0  0  0  0
    1.5144   -2.0201   -4.0376 H   0  0  0  0  0  0  0  0  0  0  0  0
    1.0672   -2.6829   -2.4459 H   0  0  0  0  0  0  0  0  0  0  0  0
    2.3940   -3.4152   -3.3850 H   0  0  0  0  0  0  0  0  0  0  0  0
    1.8999    0.1571   -3.1830 H   0  0  0  0  0  0  0  0  0  0  0  0
    3.0613    0.4336   -1.8806 H   0  0  0  0  0  0  0  0  0  0  0  0
    1.4881   -0.3145   -1.5125 H   0  0  0  0  0  0  0  0  0  0  0  0
   12.6541   -1.7954    2.3270 H   0  0  0  0  0  0  0  0  0  0  0  0
   11.4610   -3.1060    2.5452 H   0  0  0  0  0  0  0  0  0  0  0  0
   11.1892   -1.5089    3.3070 H   0  0  0  0  0  0  0  0  0  0  0  0
    6.9715    0.2595   -1.6042 H   0  0  0  0  0  0  0  0  0  0  0  0
    7.9445   -0.8921   -2.5042 H   0  0  0  0  0  0  0  0  0  0  0  0
    6.1320   -2.5939   -2.3483 H   0  0  0  0  0  0  0  0  0  0  0  0
    5.4677   -1.1080   -3.0190 H   0  0  0  0  0  0  0  0  0  0  0  0
    9.1864   -2.6874    2.9632 H   0  0  0  0  0  0  0  0  0  0  0  0
    6.7656   -2.8803    2.4574 H   0  0  0  0  0  0  0  0  0  0  0  0
    9.7950   -0.7919   -0.8514 H   0  0  0  0  0  0  0  0  0  0  0  0
    2.8619   -2.1408   -0.4728 H   0  0  0  0  0  0  0  0  0  0  0  0
    3.7264   -3.2144   -1.5689 H   0  0  0  0  0  0  0  0  0  0  0  0
    4.6875   -0.4315   -0.7426 H   0  0  0  0  0  0  0  0  0  0  0  0
  1 15  1  0  0  0  0
  1 19  1  0  0  0  0
  2 22  1  0  0  0  0
  2 23  1  0  0  0  0
  3 25  1  0  0  0  0
  3 26  1  0  0  0  0
  4 27  1  0  0  0  0
  4 10  1  0  0  0  0
  5  4  1  0  0  0  0
  5 11  1  0  0  0  0
  6 31  1  0  0  0  0
  7  6  1  0  0  0  0
  7 32  1  0  0  0  0
  8 12  1  0  0  0  0
  9 11  1  0  0  0  0
  9 34  1  0  0  0  0
 10  8  2  0  0  0  0
 10 13  1  0  0  0  0
 11 36  1  1  0  0  0
 11 14  1  0  0  0  0
 12 17  1  0  0  0  0
 12  6  2  0  0  0  0
 13  7  2  0  0  0  0
 14 13  1  0  0  0  0
 14 16  2  0  0  0  0
 15  2  1  0  0  0  0
 15  9  1  0  0  0  0
 17  3  1  0  0  0  0
 18  1  1  0  0  0  0
 20  1  1  0  0  0  0
 21  2  1  0  0  0  0
 24  3  1  0  0  0  0
 28  4  1  0  0  0  0
 29  5  1  0  0  0  0
 30  5  1  0  0  0  0
 33  8  1  0  0  0  0
 35  9  1  0  0  0  0
M  END
>  <HBA>
3

>  <HBD>
0

>  <TPSA>
29.54

>  <cid>
51636

>  <dipole>
2.53

>  <excitation_energy_1>
3.637

>  <excitation_energy_2>
3.965

>  <excitation_energy_3>
4.612

>  <excitation_energy_4>
4.684

>  <homo_energy>
-5.627

>  <homo_lumo_gap>
4.504

>  <logP>
2.002

>  <lumo_energy>
-1.124

>  <melting_point>
71.72

>  <molecular_refractivity>
68.1

>  <oscillator_strength_1>
0.0018

>  <oscillator_strength_2>
0.0024

>  <oscillator_strength_3>
0.3092

>  <oscillator_strength_4>
0.0653

>  <open_babel_can_smiles>
COc1ccc2c(c1)CC[C@H](C2=O)CN(C)C

>  <mulliken_charges>
36
1   -0.292892
2   -0.301281
3   -0.218519
4   -0.355271
5   -0.270435
6   -0.200873
7   -0.173683
8   -0.256506
9   -0.115735
10   0.136632
11   -0.203026
12   0.39577
13   0.038076
14   0.401359
15   -0.374797
16   -0.493581
17   -0.503924
18   0.1451
19   0.119979
20   0.149153
21   0.147685
22   0.147656
23   0.121269
24   0.173632
25   0.157475
26   0.157259
27   0.155036
28   0.150338
29   0.138471
30   0.16116
31   0.13606
32   0.162268
33   0.134668
34   0.143036
35   0.136869
36   0.151571

>  <lowdin_charges>
36
1   -0.356159
2   -0.360391
3   -0.274653
4   -0.274483
5   -0.274012
6   -0.217889
7   -0.114794
8   -0.199084
9   -0.198484
10   0.018191
11   -0.161256
12   0.118713
13   -0.082622
14   0.154972
15   -0.184525
16   -0.261642
17   -0.190618
18   0.148251
19   0.122148
20   0.149615
21   0.150297
22   0.148442
23   0.122518
24   0.163256
25   0.146532
26   0.149
27   0.152894
28   0.155729
29   0.142567
30   0.15982
31   0.164527
32   0.177776
33   0.166949
34   0.13871
35   0.145857
36   0.153854

$$$$

