PCCDB-ID:  30663
public computational chemistry database (PCCDB) project, http://pccdb.org

 28 29  0  0  0  0  0  0  0  0999 V2000
    2.1596   -1.2393    1.1365 C   0  0  0  0  0  0  0  0  0  0  0  0
    1.6107    0.9156    0.1641 C   0  0  0  0  0  0  0  0  0  0  0  0
    3.9690   -3.7596   -2.9264 C   0  0  0  0  0  0  0  0  0  0  0  0
    3.5774    0.3337   -1.9704 C   0  0  0  0  0  0  0  0  0  0  0  0
    4.1576   -0.0385   -3.1557 C   0  0  0  0  0  0  0  0  0  0  0  0
    4.5469   -4.1349   -4.1204 C   0  0  0  0  0  0  0  0  0  0  0  0
    3.2304   -1.9740   -1.3774 C   0  0  0  0  0  0  0  0  0  0  0  0
    3.8358   -2.3893   -2.5946 C   0  0  0  0  0  0  0  0  0  0  0  0
    3.0881   -0.6361   -1.0400 C   0  0  0  0  0  0  0  0  0  0  0  0
    4.3104   -1.4051   -3.5229 C   0  0  0  0  0  0  0  0  0  0  0  0
    5.0212   -3.1765   -5.0392 C   0  0  0  0  0  0  0  0  0  0  0  0
    4.9070   -1.8224   -4.7458 C   0  0  0  0  0  0  0  0  0  0  0  0
    2.5420   -0.2090    0.1869 N   0  0  0  0  0  0  0  0  0  0  0  0
    5.6007   -3.5244   -6.2318 O   0  0  0  0  0  0  0  0  0  0  0  0
    5.3866   -0.9484   -5.6823 O   0  0  0  0  0  0  0  0  0  0  0  0
    1.8726   -0.7617    2.0779 H   0  0  0  0  0  0  0  0  0  0  0  0
    3.0091   -1.8995    1.3366 H   0  0  0  0  0  0  0  0  0  0  0  0
    1.3111   -1.8609    0.7967 H   0  0  0  0  0  0  0  0  0  0  0  0
    1.4472    1.2623    1.1893 H   0  0  0  0  0  0  0  0  0  0  0  0
    0.6317    0.6493   -0.2715 H   0  0  0  0  0  0  0  0  0  0  0  0
    2.0164    1.7538   -0.4038 H   0  0  0  0  0  0  0  0  0  0  0  0
    3.6105   -4.5127   -2.2302 H   0  0  0  0  0  0  0  0  0  0  0  0
    3.5136    1.3888   -1.7290 H   0  0  0  0  0  0  0  0  0  0  0  0
    4.5095    0.7565   -3.8112 H   0  0  0  0  0  0  0  0  0  0  0  0
    4.6468   -5.1900   -4.3722 H   0  0  0  0  0  0  0  0  0  0  0  0
    2.8676   -2.7533   -0.7167 H   0  0  0  0  0  0  0  0  0  0  0  0
    5.6129   -4.4916   -6.2928 H   0  0  0  0  0  0  0  0  0  0  0  0
    5.2695   -0.0426   -5.3626 H   0  0  0  0  0  0  0  0  0  0  0  0
  1 17  1  0  0  0  0
  1 16  1  0  0  0  0
  2 13  1  0  0  0  0
  2 19  1  0  0  0  0
  3  8  1  0  0  0  0
  3 22  1  0  0  0  0
  4 23  1  0  0  0  0
  4  9  2  0  0  0  0
  5  4  1  0  0  0  0
  6  3  2  0  0  0  0
  7  9  1  0  0  0  0
  7 26  1  0  0  0  0
  8  7  2  0  0  0  0
  9 13  1  0  0  0  0
 10  5  2  0  0  0  0
 10  8  1  0  0  0  0
 11 12  2  0  0  0  0
 11  6  1  0  0  0  0
 12 10  1  0  0  0  0
 13  1  1  0  0  0  0
 14 11  1  0  0  0  0
 15 28  1  0  0  0  0
 15 12  1  0  0  0  0
 18  1  1  0  0  0  0
 20  2  1  0  0  0  0
 21  2  1  0  0  0  0
 24  5  1  0  0  0  0
 25  6  1  0  0  0  0
 27 14  1  0  0  0  0
M  END
>  <HBA>
3

>  <HBD>
2

>  <TPSA>
43.7

>  <cid>
30663

>  <dipole>
2.78

>  <excitation_energy_1>
3.478

>  <excitation_energy_2>
4.154

>  <excitation_energy_3>
4.227

>  <excitation_energy_4>
4.412

>  <homo_energy>
-4.721

>  <homo_lumo_gap>
4.049

>  <logP>
2.317

>  <lumo_energy>
-0.672

>  <melting_point>
139.95

>  <molecular_refractivity>
62.2

>  <oscillator_strength_1>
0.0447

>  <oscillator_strength_2>
0.016

>  <oscillator_strength_3>
0.0017

>  <oscillator_strength_4>
0.005

>  <open_babel_can_smiles>
CN(c1ccc2c(c1)ccc(c2O)O)C

>  <mulliken_charges>
28
1   -0.304556
2   -0.311762
3   -0.21095
4   -0.17517
5   -0.224761
6   -0.195631
7   -0.293812
8   0.145769
9   0.346981
10   0.125758
11   0.31715
12   0.196687
13   -0.470218
14   -0.638912
15   -0.638598
16   0.152431
17   0.165685
18   0.137274
19   0.153776
20   0.142436
21   0.162207
22   0.122105
23   0.12811
24   0.108343
25   0.116406
26   0.123272
27   0.404367
28   0.415611

>  <lowdin_charges>
28
1   -0.355752
2   -0.348712
3   -0.180202
4   -0.175342
5   -0.169212
6   -0.193921
7   -0.212172
8   0.004558
9   0.046325
10   -0.044243
11   0.063441
12   0.069432
13   -0.132925
14   -0.374035
15   -0.369009
16   0.154507
17   0.159422
18   0.132592
19   0.151838
20   0.134514
21   0.157411
22   0.157284
23   0.157554
24   0.146653
25   0.151911
26   0.160437
27   0.353501
28   0.354147

$$$$

