PCCDB-ID:  14857
public computational chemistry database (PCCDB) project, http://pccdb.org

 18 18  0  0  1  0  0  0  0  0999 V2000
   -1.7891    0.1945    0.0821 C   0  0  0  0  0  0  0  0  0  0  0  0
   -1.0078    1.3356    0.2728 C   0  0  0  0  0  0  0  0  0  0  0  0
   -1.1767   -1.0321   -0.1829 C   0  0  0  0  0  0  0  0  0  0  0  0
    0.3827    1.2505    0.2028 C   0  0  0  0  0  0  0  0  0  0  0  0
    0.2129   -1.1182   -0.2578 C   0  0  0  0  0  0  0  0  0  0  0  0
    1.0036    0.0239   -0.0599 C   0  0  0  0  0  0  0  0  0  0  0  0
    2.5214   -0.0646   -0.0835 C   0  0  1  0  0  0  0  0  0  0  0  0
    3.0938   -0.7532    1.0050 O   0  0  0  0  0  0  0  0  0  0  0  0
    3.1537   -2.3508   -1.5251 O   0  0  0  0  0  0  0  0  0  0  0  0
    3.2440    0.0045   -2.8509 O   0  0  0  0  0  0  0  0  0  0  0  0
    3.0569   -0.8803   -1.6828 P   0  0  1  0  0  0  0  0  0  0  0  0
   -2.8720    0.2614    0.1364 H   0  0  0  0  0  0  0  0  0  0  0  0
   -1.4799    2.2921    0.4782 H   0  0  0  0  0  0  0  0  0  0  0  0
   -1.7802   -1.9217   -0.3392 H   0  0  0  0  0  0  0  0  0  0  0  0
    0.9895    2.1390    0.3576 H   0  0  0  0  0  0  0  0  0  0  0  0
    0.6813   -2.0752   -0.4778 H   0  0  0  0  0  0  0  0  0  0  0  0
    2.9555    0.9380   -0.0849 H   0  0  0  0  0  0  0  0  0  0  0  0
    2.8171   -1.6842    0.9547 H   0  0  0  0  0  0  0  0  0  0  0  0
  1 12  1  0  0  0  0
  1  2  2  0  0  0  0
  2 13  1  0  0  0  0
  3  1  1  0  0  0  0
  4  2  1  0  0  0  0
  4 15  1  0  0  0  0
  5  3  2  0  0  0  0
  5  6  1  0  0  0  0
  6  4  2  0  0  0  0
  7 17  1  1  0  0  0
  7  6  1  0  0  0  0
  7  8  1  0  0  0  0
 11 10  1  6  0  0  0
 11  9  2  0  0  0  0
 11  7  1  0  0  0  0
 14  3  1  0  0  0  0
 16  5  1  0  0  0  0
 18  8  1  0  0  0  0
M  RAD  2  10   2  11   2
M  END
>  <HBA>
3

>  <HBD>
1

>  <TPSA>
88.51

>  <cid>
14857

>  <dipole>
4.3

>  <excitation_energy_1>
4.808

>  <excitation_energy_2>
4.88

>  <excitation_energy_3>
5.043

>  <excitation_energy_4>
5.338

>  <homo_energy>
-7.377

>  <homo_lumo_gap>
5.641

>  <logP>
1.85

>  <lumo_energy>
-1.736

>  <melting_point>
57.72

>  <molecular_refractivity>
39.81

>  <oscillator_strength_1>
0.0619

>  <oscillator_strength_2>
0.0581

>  <oscillator_strength_3>
0.0015

>  <oscillator_strength_4>
0.0217

>  <open_babel_can_smiles>
O[C@H](c1ccccc1)[P](=O)[O]

>  <mulliken_charges>
18
1   -0.121443
2   -0.125191
3   -0.127908
4   -0.169161
5   -0.198209
6   0.127606
7   -0.133266
8   -0.581474
9   -0.508995
10   -0.461767
11   0.943012
12   0.144223
13   0.144909
14   0.146935
15   0.144001
16   0.162333
17   0.199511
18   0.414884

>  <lowdin_charges>
18
1   -0.140118
2   -0.145516
3   -0.145587
4   -0.15062
5   -0.166716
6   -0.031011
7   -0.13231
8   -0.421203
9   -0.51575
10   -0.487457
11   0.961659
12   0.163036
13   0.16553
14   0.166734
15   0.164929
16   0.171634
17   0.185266
18   0.3575

$$$$

