PCCDB-ID:  36671
public computational chemistry database (PCCDB) project, http://pccdb.org

 22 22  0  0  1  0  0  0  0  0999 V2000
    0.9444    0.9065   -0.2663 C   0  0  0  0  0  0  0  0  0  0  0  0
    2.4762    0.9410   -0.2823 C   0  0  0  0  0  0  0  0  0  0  0  0
    6.2414   -0.0661   -3.2003 C   0  0  0  0  0  0  0  0  0  0  0  0
    6.5265    1.2883   -2.5920 C   0  0  0  0  0  0  0  0  0  0  0  0
    3.0821    0.1592   -1.4554 C   0  0  0  0  0  0  0  0  0  0  0  0
    5.2202   -0.6779   -2.5965 C   0  0  0  0  0  0  0  0  0  0  0  0
    5.2690    1.5475   -1.7213 C   0  0  0  0  0  0  0  0  0  0  0  0
    4.6202    0.1534   -1.4790 C   0  0  1  0  0  0  0  0  0  0  0  0
    0.5397    1.4610    0.5882 H   0  0  0  0  0  0  0  0  0  0  0  0
    0.5722   -0.1235   -0.2022 H   0  0  0  0  0  0  0  0  0  0  0  0
    0.5283    1.3508   -1.1790 H   0  0  0  0  0  0  0  0  0  0  0  0
    2.8618    0.5300    0.6619 H   0  0  0  0  0  0  0  0  0  0  0  0
    2.8161    1.9848   -0.3209 H   0  0  0  0  0  0  0  0  0  0  0  0
    6.8393   -0.4891   -4.0036 H   0  0  0  0  0  0  0  0  0  0  0  0
    6.6878    2.0730   -3.3423 H   0  0  0  0  0  0  0  0  0  0  0  0
    7.4434    1.2532   -1.9836 H   0  0  0  0  0  0  0  0  0  0  0  0
    2.7124    0.5742   -2.4049 H   0  0  0  0  0  0  0  0  0  0  0  0
    2.7213   -0.8795   -1.4152 H   0  0  0  0  0  0  0  0  0  0  0  0
    4.8579   -1.6756   -2.8343 H   0  0  0  0  0  0  0  0  0  0  0  0
    4.5629    2.1720   -2.2837 H   0  0  0  0  0  0  0  0  0  0  0  0
    5.5006    2.0769   -0.7918 H   0  0  0  0  0  0  0  0  0  0  0  0
    4.9628   -0.2540   -0.5116 H   0  0  0  0  0  0  0  0  0  0  0  0
  1 10  1  0  0  0  0
  1  9  1  0  0  0  0
  2  1  1  0  0  0  0
  2 12  1  0  0  0  0
  3  6  2  0  0  0  0
  3  4  1  0  0  0  0
  4 16  1  0  0  0  0
  4  7  1  0  0  0  0
  5 18  1  0  0  0  0
  5  2  1  0  0  0  0
  6  8  1  0  0  0  0
  7  8  1  0  0  0  0
  7 21  1  0  0  0  0
  8  5  1  0  0  0  0
  8 22  1  1  0  0  0
 11  1  1  0  0  0  0
 13  2  1  0  0  0  0
 14  3  1  0  0  0  0
 15  4  1  0  0  0  0
 17  5  1  0  0  0  0
 19  6  1  0  0  0  0
 20  7  1  0  0  0  0
M  END
>  <HBA>
0

>  <HBD>
0

>  <TPSA>
0.0

>  <cid>
36671

>  <dipole>
0.18

>  <excitation_energy_1>
5.976

>  <excitation_energy_2>
6.431

>  <excitation_energy_3>
6.498

>  <excitation_energy_4>
6.545

>  <homo_energy>
-6.327

>  <homo_lumo_gap>
7.181

>  <logP>
2.753

>  <lumo_energy>
0.854

>  <melting_point>
4.48

>  <molecular_refractivity>
37.98

>  <oscillator_strength_1>
0.0095

>  <oscillator_strength_2>
0.0206

>  <oscillator_strength_3>
0.0071

>  <oscillator_strength_4>
0.0511

>  <open_babel_can_smiles>
CCC[C@@H]1CCC=C1

>  <mulliken_charges>
22
1   -0.441284
2   -0.251642
3   -0.116986
4   -0.304236
5   -0.254913
6   -0.101031
7   -0.286212
8   -0.108592
9   0.141118
10   0.140945
11   0.141683
12   0.129061
13   0.13636
14   0.122233
15   0.138697
16   0.142477
17   0.128696
18   0.124369
19   0.119211
20   0.139055
21   0.134401
22   0.12659

>  <lowdin_charges>
22
1   -0.444649
2   -0.272629
3   -0.172712
4   -0.278288
5   -0.27445
6   -0.173114
7   -0.279643
8   -0.125097
9   0.149736
10   0.145007
11   0.146898
12   0.138341
13   0.139885
14   0.153009
15   0.146362
16   0.146011
17   0.138366
18   0.137024
19   0.150705
20   0.145961
21   0.1449
22   0.138376

$$$$

