PCCDB-ID:  31253
public computational chemistry database (PCCDB) project, http://pccdb.org

 26 25  0  0  0  0  0  0  0  0999 V2000
    3.2669    1.7952   -0.0561 C   0  0  0  0  0  0  0  0  0  0  0  0
    6.5766   -1.0951   -5.0774 C   0  0  0  0  0  0  0  0  0  0  0  0
    8.6714   -0.0410   -4.1077 C   0  0  0  0  0  0  0  0  0  0  0  0
    2.5633   -1.6791   -1.0903 C   0  0  0  0  0  0  0  0  0  0  0  0
    2.6664    0.6351   -0.3574 C   0  0  0  0  0  0  0  0  0  0  0  0
    5.0277    0.1880   -2.6500 C   0  0  0  0  0  0  0  0  0  0  0  0
    6.4966    0.2892   -2.9602 C   0  0  0  0  0  0  0  0  0  0  0  0
    4.7651   -0.5346   -1.3027 C   0  0  0  0  0  0  0  0  0  0  0  0
    7.1809   -0.2535   -3.9795 C   0  0  0  0  0  0  0  0  0  0  0  0
    3.3005   -0.5678   -0.9158 C   0  0  0  0  0  0  0  0  0  0  0  0
    2.7058    2.6227    0.3678 H   0  0  0  0  0  0  0  0  0  0  0  0
    4.3286    1.9648   -0.2113 H   0  0  0  0  0  0  0  0  0  0  0  0
    7.0571   -2.0828   -5.1162 H   0  0  0  0  0  0  0  0  0  0  0  0
    6.7463   -0.6310   -6.0591 H   0  0  0  0  0  0  0  0  0  0  0  0
    5.5014   -1.2506   -4.9640 H   0  0  0  0  0  0  0  0  0  0  0  0
    9.2101   -0.9993   -4.1015 H   0  0  0  0  0  0  0  0  0  0  0  0
    9.0682    0.5759   -3.2953 H   0  0  0  0  0  0  0  0  0  0  0  0
    8.9219    0.4484   -5.0597 H   0  0  0  0  0  0  0  0  0  0  0  0
    1.5056   -1.7080   -0.8397 H   0  0  0  0  0  0  0  0  0  0  0  0
    2.9934   -2.5953   -1.4862 H   0  0  0  0  0  0  0  0  0  0  0  0
    1.5967    0.5426   -0.1674 H   0  0  0  0  0  0  0  0  0  0  0  0
    4.4821   -0.3379   -3.4397 H   0  0  0  0  0  0  0  0  0  0  0  0
    4.5949    1.1964   -2.5980 H   0  0  0  0  0  0  0  0  0  0  0  0
    7.0675    0.8742   -2.2356 H   0  0  0  0  0  0  0  0  0  0  0  0
    5.3514   -0.0460   -0.5128 H   0  0  0  0  0  0  0  0  0  0  0  0
    5.1450   -1.5596   -1.3780 H   0  0  0  0  0  0  0  0  0  0  0  0
  1 11  1  0  0  0  0
  2 15  1  0  0  0  0
  2  9  1  0  0  0  0
  3 16  1  0  0  0  0
  3  9  1  0  0  0  0
  3 17  1  0  0  0  0
  4 10  2  0  0  0  0
  4 19  1  0  0  0  0
  5 21  1  0  0  0  0
  5  1  2  0  0  0  0
  6 23  1  0  0  0  0
  6  8  1  0  0  0  0
  7  6  1  0  0  0  0
  7 24  1  0  0  0  0
  8 10  1  0  0  0  0
  8 25  1  0  0  0  0
  9  7  2  0  0  0  0
 10  5  1  0  0  0  0
 12  1  1  0  0  0  0
 13  2  1  0  0  0  0
 14  2  1  0  0  0  0
 18  3  1  0  0  0  0
 20  4  1  0  0  0  0
 22  6  1  0  0  0  0
 26  8  1  0  0  0  0
M  END
>  <HBA>
0

>  <HBD>
0

>  <TPSA>
0.0

>  <cid>
31253

>  <dipole>
0.4

>  <excitation_energy_1>
4.797

>  <excitation_energy_2>
5.455

>  <excitation_energy_3>
5.607

>  <excitation_energy_4>
5.808

>  <homo_energy>
-5.995

>  <homo_lumo_gap>
5.44

>  <logP>
3.475

>  <lumo_energy>
-0.555

>  <melting_point>
-53.79

>  <molecular_refractivity>
48.76

>  <oscillator_strength_1>
0.0347

>  <oscillator_strength_2>
0.4213

>  <oscillator_strength_3>
0.0065

>  <oscillator_strength_4>
0.0048

>  <open_babel_can_smiles>
C=CC(=C)CCC=C(C)C

>  <mulliken_charges>
26
1   -0.355354
2   -0.513144
3   -0.505904
4   -0.415786
5   -0.102148
6   -0.301509
7   -0.160914
8   -0.349638
9   0.188566
10   0.233356
11   0.143353
12   0.142076
13   0.150657
14   0.15218
15   0.15505
16   0.148426
17   0.150496
18   0.14883
19   0.139978
20   0.139348
21   0.124705
22   0.142816
23   0.150037
24   0.107814
25   0.141844
26   0.144868

>  <lowdin_charges>
26
1   -0.340197
2   -0.44209
3   -0.440268
4   -0.343858
5   -0.143142
6   -0.273701
7   -0.193155
8   -0.272074
9   -0.00963
10   0.006803
11   0.162789
12   0.1562
13   0.153985
14   0.154844
15   0.153997
16   0.151904
17   0.15487
18   0.152184
19   0.154838
20   0.157551
21   0.152222
22   0.149475
23   0.151836
24   0.144479
25   0.148955
26   0.151182

$$$$

