PCCDB-ID:  12590
public computational chemistry database (PCCDB) project, http://pccdb.org

 19 18  0  0  0  0  0  0  0  0999 V2000
    0.9794    0.0743   -0.0710 C   0  0  0  0  0  0  0  0  0  0  0  0
    0.5229    0.7160   -1.3860 C   0  0  0  0  0  0  0  0  0  0  0  0
    2.4625   -0.3128   -0.0898 C   0  0  0  0  0  0  0  0  0  0  0  0
   -0.9604    1.1461   -1.3764 C   0  0  0  0  0  0  0  0  0  0  0  0
    2.9328   -1.0014    1.2103 C   0  0  0  0  0  0  0  0  0  0  0  0
   -1.2416    2.1895   -0.3840 C   0  0  0  0  0  0  0  0  0  0  0  0
    2.2593   -2.2830    1.4477 C   0  0  0  0  0  0  0  0  0  0  0  0
   -1.4383    3.0160    0.4072 N   0  0  0  0  0  0  0  0  0  0  0  0
    1.7136   -3.2944    1.6123 N   0  0  0  0  0  0  0  0  0  0  0  0
    0.3714   -0.8187    0.1284 H   0  0  0  0  0  0  0  0  0  0  0  0
    0.7949    0.7701    0.7588 H   0  0  0  0  0  0  0  0  0  0  0  0
    0.6563    0.0075   -2.2132 H   0  0  0  0  0  0  0  0  0  0  0  0
    1.1446    1.5907   -1.6154 H   0  0  0  0  0  0  0  0  0  0  0  0
    3.0806    0.5825   -0.2326 H   0  0  0  0  0  0  0  0  0  0  0  0
    2.6681   -0.9780   -0.9380 H   0  0  0  0  0  0  0  0  0  0  0  0
   -1.6049    0.2837   -1.1636 H   0  0  0  0  0  0  0  0  0  0  0  0
   -1.2518    1.5236   -2.3638 H   0  0  0  0  0  0  0  0  0  0  0  0
    2.7497   -0.3493    2.0737 H   0  0  0  0  0  0  0  0  0  0  0  0
    4.0137   -1.1827    1.1734 H   0  0  0  0  0  0  0  0  0  0  0  0
  1 10  1  0  0  0  0
  1 11  1  0  0  0  0
  2  4  1  0  0  0  0
  2  1  1  0  0  0  0
  3  1  1  0  0  0  0
  3  5  1  0  0  0  0
  4 16  1  0  0  0  0
  4  6  1  0  0  0  0
  5  7  1  0  0  0  0
  5 18  1  0  0  0  0
  6  8  3  0  0  0  0
  7  9  3  0  0  0  0
 12  2  1  0  0  0  0
 13  2  1  0  0  0  0
 14  3  1  0  0  0  0
 15  3  1  0  0  0  0
 17  4  1  0  0  0  0
 19  5  1  0  0  0  0
M  END
>  <HBA>
2

>  <HBD>
0

>  <TPSA>
47.58

>  <cid>
12590

>  <dipole>
4.18

>  <excitation_energy_1>
7.504

>  <excitation_energy_2>
7.515

>  <excitation_energy_3>
7.71

>  <excitation_energy_4>
7.771

>  <homo_energy>
-8.74

>  <homo_lumo_gap>
9.355

>  <logP>
1.984

>  <lumo_energy>
0.615

>  <melting_point>
40.58

>  <molecular_refractivity>
35.26

>  <oscillator_strength_1>
0.0006

>  <oscillator_strength_2>
0.0

>  <oscillator_strength_3>
0.0249

>  <oscillator_strength_4>
0.0134

>  <open_babel_can_smiles>
N#CCCCCCC#N

>  <mulliken_charges>
19
1   -0.272457
2   -0.265106
3   -0.265272
4   -0.348375
5   -0.348355
6   0.353781
7   0.353844
8   -0.470123
9   -0.470137
10   0.161973
11   0.162006
12   0.15344
13   0.157395
14   0.153537
15   0.157398
16   0.197576
17   0.195647
18   0.197587
19   0.195642

>  <lowdin_charges>
19
1   -0.283897
2   -0.265257
3   -0.265657
4   -0.27595
5   -0.273299
6   -0.017932
7   -0.018616
8   -0.12877
9   -0.128763
10   0.155556
11   0.155754
12   0.153817
13   0.153973
14   0.153692
15   0.154024
16   0.182842
17   0.183622
18   0.182733
19   0.182125

$$$$

