PCCDB-ID:  66055
public computational chemistry database (PCCDB) project, http://pccdb.org

 16 16  0  0  1  0  0  0  0  0999 V2000
    0.9052    0.0038    0.0250 C   0  0  0  0  0  0  0  0  0  0  0  0
    3.0211    1.2146   -0.8418 C   0  0  0  0  0  0  0  0  0  0  0  0
    4.2692    0.5953   -1.4945 C   0  0  0  0  0  0  0  0  0  0  0  0
    2.4315    0.0348   -0.0098 C   0  0  2  0  0  0  0  0  0  0  0  0
    3.9348   -0.8829   -1.3691 C   0  0  0  0  0  0  0  0  0  0  0  0
    2.9760   -1.2013   -0.5991 N   0  0  0  0  0  0  0  0  0  0  0  0
    4.6597   -1.8285   -2.0177 O   0  0  0  0  0  0  0  0  0  0  0  0
    0.5064    0.9191    0.4788 H   0  0  0  0  0  0  0  0  0  0  0  0
    0.5503   -0.8542    0.6045 H   0  0  0  0  0  0  0  0  0  0  0  0
    0.5000   -0.0829   -0.9901 H   0  0  0  0  0  0  0  0  0  0  0  0
    2.3029    1.5107   -1.6159 H   0  0  0  0  0  0  0  0  0  0  0  0
    3.2386    2.0991   -0.2358 H   0  0  0  0  0  0  0  0  0  0  0  0
    5.1928    0.8176   -0.9410 H   0  0  0  0  0  0  0  0  0  0  0  0
    4.4311    0.9090   -2.5338 H   0  0  0  0  0  0  0  0  0  0  0  0
    2.7983    0.0928    1.0268 H   0  0  0  0  0  0  0  0  0  0  0  0
    5.3008   -1.3880   -2.5956 H   0  0  0  0  0  0  0  0  0  0  0  0
  1  8  1  0  0  0  0
  1  9  1  0  0  0  0
  2 12  1  0  0  0  0
  2  4  1  0  0  0  0
  3  5  1  0  0  0  0
  3 13  1  0  0  0  0
  3  2  1  0  0  0  0
  4  1  1  0  0  0  0
  4 15  1  1  0  0  0
  5  6  2  0  0  0  0
  6  4  1  0  0  0  0
  7  5  1  0  0  0  0
 10  1  1  0  0  0  0
 11  2  1  0  0  0  0
 14  3  1  0  0  0  0
 16  7  1  0  0  0  0
M  END
>  <HBA>
2

>  <HBD>
1

>  <TPSA>
29.1

>  <cid>
66055

>  <dipole>
3.68

>  <excitation_energy_1>
5.765

>  <excitation_energy_2>
6.082

>  <excitation_energy_3>
6.146

>  <excitation_energy_4>
6.504

>  <homo_energy>
-6.697

>  <homo_lumo_gap>
7.557

>  <logP>
0.614

>  <lumo_energy>
0.86

>  <melting_point>
45.25

>  <molecular_refractivity>
30.95

>  <oscillator_strength_1>
0.0041

>  <oscillator_strength_2>
0.0117

>  <oscillator_strength_3>
0.0019

>  <oscillator_strength_4>
0.0233

>  <open_babel_can_smiles>
C[C@@H]1CCC(=N1)O

>  <mulliken_charges>
16
1   -0.439833
2   -0.291439
3   -0.375597
4   0.036361
5   0.492297
6   -0.418505
7   -0.58722
8   0.135108
9   0.159009
10   0.143282
11   0.147462
12   0.142362
13   0.165929
14   0.148803
15   0.132775
16   0.409209

>  <lowdin_charges>
16
1   -0.446777
2   -0.290531
3   -0.317363
4   -0.0563
5   0.109249
6   -0.20931
7   -0.355455
8   0.147483
9   0.160176
10   0.148332
11   0.150685
12   0.151392
13   0.15989
14   0.151195
15   0.136194
16   0.36114

$$$$

