PCCDB-ID:  69460
public computational chemistry database (PCCDB) project, http://pccdb.org

 21 22  0  0  0  0  0  0  0  0999 V2000
    2.4678    0.6722   -0.0178 C   0  0  0  0  0  0  0  0  0  0  0  0
    2.4431   -0.7244   -0.0016 C   0  0  0  0  0  0  0  0  0  0  0  0
   -2.4814    0.6346   -0.3086 C   0  0  0  0  0  0  0  0  0  0  0  0
    1.2596    1.3683    0.0018 C   0  0  0  0  0  0  0  0  0  0  0  0
   -1.2751    1.4922    0.0996 C   0  0  0  0  0  0  0  0  0  0  0  0
    1.2298   -1.4034    0.0303 C   0  0  0  0  0  0  0  0  0  0  0  0
   -2.4277   -0.7184    0.4036 C   0  0  0  0  0  0  0  0  0  0  0  0
    0.0267    0.7116    0.0445 C   0  0  0  0  0  0  0  0  0  0  0  0
    0.0112   -0.7012    0.0530 C   0  0  0  0  0  0  0  0  0  0  0  0
   -1.1971   -1.4029    0.0310 N   0  0  0  0  0  0  0  0  0  0  0  0
    3.4112    1.2094   -0.0475 H   0  0  0  0  0  0  0  0  0  0  0  0
    3.3715   -1.2898   -0.0174 H   0  0  0  0  0  0  0  0  0  0  0  0
   -2.4703    0.4599   -1.3914 H   0  0  0  0  0  0  0  0  0  0  0  0
   -3.4187    1.1482   -0.0660 H   0  0  0  0  0  0  0  0  0  0  0  0
    1.2658    2.4570   -0.0119 H   0  0  0  0  0  0  0  0  0  0  0  0
   -1.4342    1.8706    1.1208 H   0  0  0  0  0  0  0  0  0  0  0  0
   -1.2073    2.3794   -0.5425 H   0  0  0  0  0  0  0  0  0  0  0  0
    1.2126   -2.4918    0.0323 H   0  0  0  0  0  0  0  0  0  0  0  0
   -3.2735   -1.3476    0.1045 H   0  0  0  0  0  0  0  0  0  0  0  0
   -2.5044   -0.5608    1.4950 H   0  0  0  0  0  0  0  0  0  0  0  0
   -1.1265   -2.3583    0.3578 H   0  0  0  0  0  0  0  0  0  0  0  0
  1  2  2  0  0  0  0
  1  4  1  0  0  0  0
  2  6  1  0  0  0  0
  3 14  1  0  0  0  0
  3  5  1  0  0  0  0
  3  7  1  0  0  0  0
  4  8  2  0  0  0  0
  5 16  1  0  0  0  0
  6 18  1  0  0  0  0
  6  9  2  0  0  0  0
  7 20  1  0  0  0  0
  8  9  1  0  0  0  0
  8  5  1  0  0  0  0
 10  9  1  0  0  0  0
 10 21  1  0  0  0  0
 10  7  1  0  0  0  0
 11  1  1  0  0  0  0
 12  2  1  0  0  0  0
 13  3  1  0  0  0  0
 15  4  1  0  0  0  0
 17  5  1  0  0  0  0
 19  7  1  0  0  0  0
M  END
>  <HBA>
1

>  <HBD>
1

>  <TPSA>
12.03

>  <cid>
69460

>  <dipole>
1.73

>  <excitation_energy_1>
4.37

>  <excitation_energy_2>
4.544

>  <excitation_energy_3>
4.89

>  <excitation_energy_4>
5.103

>  <homo_energy>
-5.037

>  <homo_lumo_gap>
5.336

>  <logP>
2.183

>  <lumo_energy>
0.299

>  <melting_point>
64.62

>  <molecular_refractivity>
46.34

>  <oscillator_strength_1>
0.028

>  <oscillator_strength_2>
0.0224

>  <oscillator_strength_3>
0.0542

>  <oscillator_strength_4>
0.0065

>  <open_babel_can_smiles>
C1CCc2c(N1)cccc2

>  <mulliken_charges>
21
1   -0.136342
2   -0.136081
3   -0.273343
4   -0.202436
5   -0.339235
6   -0.193724
7   -0.124644
8   0.132418
9   0.297827
10   -0.652885
11   0.11688
12   0.120555
13   0.154066
14   0.135448
15   0.114616
16   0.148524
17   0.146719
18   0.110455
19   0.141155
20   0.129895
21   0.310134

>  <lowdin_charges>
21
1   -0.188798
2   -0.15275
3   -0.277604
4   -0.154309
5   -0.274138
6   -0.198334
7   -0.193796
8   -0.048652
9   0.048394
10   -0.306064
11   0.153287
12   0.154419
13   0.149247
14   0.148597
15   0.148852
16   0.148154
17   0.15325
18   0.147047
19   0.148578
20   0.124612
21   0.270008

$$$$

