PCCDB-ID:  26601
public computational chemistry database (PCCDB) project, http://pccdb.org

 27 27  0  0  0  0  0  0  0  0999 V2000
    1.6653   -0.1799   -2.5299 C   0  0  0  0  0  0  0  0  0  0  0  0
   -1.3796    8.2211   -2.1310 C   0  0  0  0  0  0  0  0  0  0  0  0
    1.9698    3.2090   -0.4065 C   0  0  0  0  0  0  0  0  0  0  0  0
    2.3263    3.0409   -2.7902 C   0  0  0  0  0  0  0  0  0  0  0  0
    1.2764    4.4006   -0.5893 C   0  0  0  0  0  0  0  0  0  0  0  0
    1.6498    4.2465   -2.9759 C   0  0  0  0  0  0  0  0  0  0  0  0
    2.9017    0.2007   -1.7438 C   0  0  0  0  0  0  0  0  0  0  0  0
    2.4873    2.4983   -1.5041 C   0  0  0  0  0  0  0  0  0  0  0  0
    1.1263    4.9172   -1.8764 C   0  0  0  0  0  0  0  0  0  0  0  0
    0.7020    7.2692   -1.5782 C   0  0  0  0  0  0  0  0  0  0  0  0
   -0.0406    8.2914   -1.5710 N   0  0  0  0  0  0  0  0  0  0  0  0
    3.2280    1.3310   -1.2690 N   0  0  0  0  0  0  0  0  0  0  0  0
    3.7593   -0.8289   -1.4893 O   0  0  0  0  0  0  0  0  0  0  0  0
    1.9501    7.2908   -1.0574 O   0  0  0  0  0  0  0  0  0  0  0  0
    0.3692    6.0673   -2.1191 O   0  0  0  0  0  0  0  0  0  0  0  0
    0.9822    0.6644   -2.6275 H   0  0  0  0  0  0  0  0  0  0  0  0
    1.1402   -1.0002   -2.0240 H   0  0  0  0  0  0  0  0  0  0  0  0
    1.9348   -0.5270   -3.5353 H   0  0  0  0  0  0  0  0  0  0  0  0
   -2.0603    8.7977   -1.4948 H   0  0  0  0  0  0  0  0  0  0  0  0
   -1.7685    7.1996   -2.2274 H   0  0  0  0  0  0  0  0  0  0  0  0
   -1.3955    8.6868   -3.1255 H   0  0  0  0  0  0  0  0  0  0  0  0
    2.1135    2.8049    0.5908 H   0  0  0  0  0  0  0  0  0  0  0  0
    2.7601    2.5269   -3.6432 H   0  0  0  0  0  0  0  0  0  0  0  0
    0.8632    4.9348    0.2601 H   0  0  0  0  0  0  0  0  0  0  0  0
    1.5252    4.6714   -3.9670 H   0  0  0  0  0  0  0  0  0  0  0  0
    3.4006   -1.6453   -1.8699 H   0  0  0  0  0  0  0  0  0  0  0  0
    2.0611    8.1979   -0.7218 H   0  0  0  0  0  0  0  0  0  0  0  0
  1 17  1  0  0  0  0
  1  7  1  0  0  0  0
  2 11  1  0  0  0  0
  2 19  1  0  0  0  0
  3 22  1  0  0  0  0
  4  8  1  0  0  0  0
  5  3  1  0  0  0  0
  5 24  1  0  0  0  0
  6  4  2  0  0  0  0
  6  9  1  0  0  0  0
  7 13  1  0  0  0  0
  7 12  2  0  0  0  0
  8 12  1  0  0  0  0
  8  3  2  0  0  0  0
  9  5  2  0  0  0  0
 10 11  2  0  0  0  0
 10 14  1  0  0  0  0
 14 27  1  0  0  0  0
 15  9  1  0  0  0  0
 15 10  1  0  0  0  0
 16  1  1  0  0  0  0
 18  1  1  0  0  0  0
 20  2  1  0  0  0  0
 21  2  1  0  0  0  0
 23  4  1  0  0  0  0
 25  6  1  0  0  0  0
 26 13  1  0  0  0  0
M  END
>  <HBA>
5

>  <HBD>
2

>  <TPSA>
67.43

>  <cid>
26601

>  <dipole>
4.16

>  <excitation_energy_1>
4.645

>  <excitation_energy_2>
4.826

>  <excitation_energy_3>
4.945

>  <excitation_energy_4>
5.458

>  <homo_energy>
-5.742

>  <homo_lumo_gap>
5.499

>  <logP>
1.827

>  <lumo_energy>
-0.242

>  <melting_point>
122.94

>  <molecular_refractivity>
55.44

>  <oscillator_strength_1>
0.1328

>  <oscillator_strength_2>
0.0945

>  <oscillator_strength_3>
0.0138

>  <oscillator_strength_4>
0.0031

>  <open_babel_can_smiles>
C/N=C(\Oc1ccc(cc1)/N=C(/O)\C)/O

>  <mulliken_charges>
27
1   -0.555937
2   -0.322051
3   -0.163956
4   -0.170542
5   -0.147571
6   -0.168306
7   0.48276
8   0.246704
9   0.351863
10   0.702126
11   -0.48213
12   -0.467049
13   -0.568049
14   -0.589458
15   -0.538615
16   0.198653
17   0.172199
18   0.177254
19   0.152002
20   0.151107
21   0.152489
22   0.140298
23   0.130575
24   0.142342
25   0.141763
26   0.408795
27   0.422733

>  <lowdin_charges>
27
1   -0.484808
2   -0.353153
3   -0.164476
4   -0.1834
5   -0.16508
6   -0.167151
7   0.14664
8   0.045595
9   0.092238
10   0.19108
11   -0.265832
12   -0.171791
13   -0.358478
14   -0.359901
15   -0.163533
16   0.184839
17   0.169526
18   0.170362
19   0.152147
20   0.142399
21   0.149458
22   0.166331
23   0.160892
24   0.169301
25   0.16819
26   0.35762
27   0.370987

$$$$

