PCCDB-ID:  12580
public computational chemistry database (PCCDB) project, http://pccdb.org

 22 22  0  0  0  0  0  0  0  0999 V2000
    1.0861    0.0292    0.3992 C   0  0  0  0  0  0  0  0  0  0  0  0
    2.6110   -0.0956    0.3309 C   0  0  0  0  0  0  0  0  0  0  0  0
    3.0779   -1.3586   -0.4202 C   0  0  0  0  0  0  0  0  0  0  0  0
    5.2955   -2.1675    0.5148 C   0  0  0  0  0  0  0  0  0  0  0  0
    5.3213   -0.9200   -1.5316 C   0  0  0  0  0  0  0  0  0  0  0  0
    6.6872   -2.2621    0.4822 C   0  0  0  0  0  0  0  0  0  0  0  0
    6.7099   -1.0033   -1.5813 C   0  0  0  0  0  0  0  0  0  0  0  0
    4.5841   -1.4954   -0.4858 C   0  0  0  0  0  0  0  0  0  0  0  0
    7.3997   -1.6774   -0.5686 C   0  0  0  0  0  0  0  0  0  0  0  0
    8.7651   -1.7368   -0.6634 O   0  0  0  0  0  0  0  0  0  0  0  0
    0.7840    0.9353    0.9366 H   0  0  0  0  0  0  0  0  0  0  0  0
    0.6401   -0.8294    0.9165 H   0  0  0  0  0  0  0  0  0  0  0  0
    0.6454    0.0747   -0.6045 H   0  0  0  0  0  0  0  0  0  0  0  0
    3.0296   -0.1090    1.3463 H   0  0  0  0  0  0  0  0  0  0  0  0
    3.0361    0.7901   -0.1600 H   0  0  0  0  0  0  0  0  0  0  0  0
    2.6636   -1.3397   -1.4376 H   0  0  0  0  0  0  0  0  0  0  0  0
    2.6470   -2.2421    0.0705 H   0  0  0  0  0  0  0  0  0  0  0  0
    4.7546   -2.6315    1.3369 H   0  0  0  0  0  0  0  0  0  0  0  0
    4.7959   -0.3969   -2.3280 H   0  0  0  0  0  0  0  0  0  0  0  0
    7.2175   -2.7950    1.2701 H   0  0  0  0  0  0  0  0  0  0  0  0
    7.2737   -0.5596   -2.3961 H   0  0  0  0  0  0  0  0  0  0  0  0
    9.1102   -2.2260    0.0993 H   0  0  0  0  0  0  0  0  0  0  0  0
  1 12  1  0  0  0  0
  1 11  1  0  0  0  0
  2  1  1  0  0  0  0
  2 14  1  0  0  0  0
  3 17  1  0  0  0  0
  3  2  1  0  0  0  0
  4 18  1  0  0  0  0
  5  8  1  0  0  0  0
  6  4  1  0  0  0  0
  6 20  1  0  0  0  0
  7  5  2  0  0  0  0
  7  9  1  0  0  0  0
  8  3  1  0  0  0  0
  8  4  2  0  0  0  0
  9  6  2  0  0  0  0
 10  9  1  0  0  0  0
 10 22  1  0  0  0  0
 13  1  1  0  0  0  0
 15  2  1  0  0  0  0
 16  3  1  0  0  0  0
 19  5  1  0  0  0  0
 21  7  1  0  0  0  0
M  END
>  <HBA>
1

>  <HBD>
1

>  <TPSA>
20.23

>  <cid>
12580

>  <dipole>
1.36

>  <excitation_energy_1>
4.934

>  <excitation_energy_2>
5.067

>  <excitation_energy_3>
5.502

>  <excitation_energy_4>
5.687

>  <homo_energy>
-5.744

>  <homo_lumo_gap>
5.812

>  <logP>
2.345

>  <lumo_energy>
0.068

>  <melting_point>
46.8

>  <molecular_refractivity>
43.05

>  <oscillator_strength_1>
0.0332

>  <oscillator_strength_2>
0.0003

>  <oscillator_strength_3>
0.0416

>  <oscillator_strength_4>
0.0511

>  <open_babel_can_smiles>
CCCc1ccc(cc1)O

>  <mulliken_charges>
22
1   -0.441454
2   -0.240658
3   -0.342095
4   -0.188627
5   -0.188374
6   -0.19319
7   -0.157484
8   0.172699
9   0.347157
10   -0.645038
11   0.144068
12   0.141229
13   0.141797
14   0.135786
15   0.136967
16   0.137111
17   0.135976
18   0.12259
19   0.123313
20   0.115409
21   0.137196
22   0.405622

>  <lowdin_charges>
22
1   -0.446528
2   -0.270126
3   -0.272136
4   -0.157123
5   -0.155762
6   -0.215783
7   -0.18675
8   -0.020754
9   0.100991
10   -0.38453
11   0.151149
12   0.146968
13   0.145893
14   0.141213
15   0.143221
16   0.145087
17   0.145934
18   0.15563
19   0.156332
20   0.152781
21   0.167171
22   0.357121

$$$$

