PCCDB-ID:  66160
public computational chemistry database (PCCDB) project, http://pccdb.org

 26 27  0  0  1  0  0  0  0  0999 V2000
    0.9563   -0.0365    0.0563 C   0  0  0  0  0  0  0  0  0  0  0  0
    4.2242    0.0133    3.9061 C   0  0  0  0  0  0  0  0  0  0  0  0
    3.9640   -1.1996    3.2689 C   0  0  0  0  0  0  0  0  0  0  0  0
    3.9524    1.2090    3.2417 C   0  0  0  0  0  0  0  0  0  0  0  0
    3.4318   -1.2184    1.9793 C   0  0  0  0  0  0  0  0  0  0  0  0
    3.4204    1.1935    1.9521 C   0  0  0  0  0  0  0  0  0  0  0  0
    3.1527   -0.0213    1.3051 C   0  0  0  0  0  0  0  0  0  0  0  0
    2.9933    1.1649   -0.9299 C   0  0  0  0  0  0  0  0  0  0  0  0
    2.9911   -1.2674   -0.8970 C   0  0  0  0  0  0  0  0  0  0  0  0
    4.7503   -0.0641   -1.7550 C   0  0  0  0  0  0  0  0  0  0  0  0
    2.4994   -0.0399   -0.1017 C   0  0  2  0  0  0  0  0  0  0  0  0
    4.0269    1.1533   -1.6679 N   0  0  0  0  0  0  0  0  0  0  0  0
    4.0246   -1.2774   -1.6352 N   0  0  0  0  0  0  0  0  0  0  0  0
    2.3083    2.3286   -0.8433 O   0  0  0  0  0  0  0  0  0  0  0  0
    2.3044   -2.4272   -0.7791 O   0  0  0  0  0  0  0  0  0  0  0  0
    5.9357   -0.0684   -1.9888 O   0  0  0  0  0  0  0  0  0  0  0  0
    0.6184    0.8324    0.6329 H   0  0  0  0  0  0  0  0  0  0  0  0
    0.6170   -0.8892    0.6557 H   0  0  0  0  0  0  0  0  0  0  0  0
    0.4377   -0.0489   -0.9087 H   0  0  0  0  0  0  0  0  0  0  0  0
    4.6426    0.0266    4.9084 H   0  0  0  0  0  0  0  0  0  0  0  0
    4.1823   -2.1387    3.7694 H   0  0  0  0  0  0  0  0  0  0  0  0
    4.1617    2.1613    3.7208 H   0  0  0  0  0  0  0  0  0  0  0  0
    3.2547   -2.1751    1.4979 H   0  0  0  0  0  0  0  0  0  0  0  0
    3.2344    2.1372    1.4489 H   0  0  0  0  0  0  0  0  0  0  0  0
    1.5074    2.2130   -0.3112 H   0  0  0  0  0  0  0  0  0  0  0  0
    1.5054   -2.2971   -0.2474 H   0  0  0  0  0  0  0  0  0  0  0  0
  1 17  1  0  0  0  0
  1 18  1  0  0  0  0
  2 20  1  0  0  0  0
  3 21  1  0  0  0  0
  3  2  1  0  0  0  0
  4 22  1  0  0  0  0
  4  2  2  0  0  0  0
  5  3  2  0  0  0  0
  6  4  1  0  0  0  0
  7  6  2  0  0  0  0
  7  5  1  0  0  0  0
  8 14  1  0  0  0  0
  8 11  1  0  0  0  0
  9 15  1  0  0  0  0
  9 11  1  0  0  0  0
 10 12  2  0  0  0  0
 10 13  1  0  0  0  0
 11  1  1  1  0  0  0
 11  7  1  0  0  0  0
 12  8  2  0  0  0  0
 13  9  2  0  0  0  0
 14 25  1  0  0  0  0
 15 26  1  0  0  0  0
 16 10  2  0  0  0  0
 19  1  1  0  0  0  0
 23  5  1  0  0  0  0
 24  6  1  0  0  0  0
M  END
>  <HBA>
5

>  <HBD>
2

>  <TPSA>
75.27

>  <cid>
66160

>  <dipole>
9.82

>  <excitation_energy_1>
3.952

>  <excitation_energy_2>
4.362

>  <excitation_energy_3>
4.878

>  <excitation_energy_4>
4.999

>  <homo_energy>
-6.895

>  <homo_lumo_gap>
5.317

>  <logP>
0.968

>  <lumo_energy>
-1.578

>  <melting_point>
162.88

>  <molecular_refractivity>
62.83

>  <oscillator_strength_1>
0.0013

>  <oscillator_strength_2>
0.001

>  <oscillator_strength_3>
0.0225

>  <oscillator_strength_4>
0.0019

>  <open_babel_can_smiles>
O=[C]1=[N]=C([C@](C(=N1)O)(C)c1ccccc1)O

>  <mulliken_charges>
26
1   -0.520547
2   -0.119938
3   -0.130174
4   -0.130176
5   -0.189775
6   -0.189415
7   0.173851
8   0.527627
9   0.527166
10   0.607519
11   -0.195549
12   -0.441447
13   -0.441201
14   -0.577381
15   -0.577575
16   -0.424737
17   0.167445
18   0.167412
19   0.193462
20   0.143043
21   0.145328
22   0.145288
23   0.150424
24   0.149614
25   0.419867
26   0.419869

>  <lowdin_charges>
26
1   -0.456788
2   -0.144352
3   -0.145343
4   -0.145214
5   -0.170423
6   -0.170531
7   -0.007495
8   0.144012
9   0.143846
10   0.175054
11   -0.049546
12   -0.173457
13   -0.173518
14   -0.331464
15   -0.331446
16   -0.207043
17   0.1632
18   0.163278
19   0.170558
20   0.163842
21   0.165769
22   0.165605
23   0.166482
24   0.16629
25   0.359307
26   0.359376

$$$$

