PCCDB-ID:  16447
public computational chemistry database (PCCDB) project, http://pccdb.org

 29 30  0  0  0  0  0  0  0  0999 V2000
    3.0668   -1.3048   -0.0487 C   0  0  0  0  0  0  0  0  0  0  0  0
    3.3687    3.1915   -2.5345 C   0  0  0  0  0  0  0  0  0  0  0  0
    4.2585    2.2444   -3.0425 C   0  0  0  0  0  0  0  0  0  0  0  0
    2.0523    2.8161   -2.2557 C   0  0  0  0  0  0  0  0  0  0  0  0
    2.0307   -2.7211   -4.8703 C   0  0  0  0  0  0  0  0  0  0  0  0
    1.2515   -3.4624   -3.9801 C   0  0  0  0  0  0  0  0  0  0  0  0
    3.8335    0.9349   -3.2703 C   0  0  0  0  0  0  0  0  0  0  0  0
    1.6278    1.5077   -2.4812 C   0  0  0  0  0  0  0  0  0  0  0  0
    2.4220   -1.4309   -4.5233 C   0  0  0  0  0  0  0  0  0  0  0  0
    0.8775   -2.9076   -2.7601 C   0  0  0  0  0  0  0  0  0  0  0  0
    1.5968   -0.9685   -0.1599 C   0  0  0  0  0  0  0  0  0  0  0  0
    2.5117    0.5426   -2.9962 C   0  0  0  0  0  0  0  0  0  0  0  0
    2.0661   -0.8475   -3.2947 C   0  0  0  0  0  0  0  0  0  0  0  0
    1.2865   -1.6153   -2.3918 C   0  0  0  0  0  0  0  0  0  0  0  0
    0.8321   -1.1100   -1.1613 N   0  0  0  0  0  0  0  0  0  0  0  0
    1.0329   -0.4346    0.9604 O   0  0  0  0  0  0  0  0  0  0  0  0
    3.3907   -1.9163   -0.8920 H   0  0  0  0  0  0  0  0  0  0  0  0
    3.2697   -1.8509    0.8808 H   0  0  0  0  0  0  0  0  0  0  0  0
    3.6634   -0.3845   -0.0435 H   0  0  0  0  0  0  0  0  0  0  0  0
    3.6974    4.2120   -2.3563 H   0  0  0  0  0  0  0  0  0  0  0  0
    5.2870    2.5218   -3.2592 H   0  0  0  0  0  0  0  0  0  0  0  0
    1.3488    3.5468   -1.8648 H   0  0  0  0  0  0  0  0  0  0  0  0
    2.3173   -3.1368   -5.8322 H   0  0  0  0  0  0  0  0  0  0  0  0
    0.9287   -4.4679   -4.2369 H   0  0  0  0  0  0  0  0  0  0  0  0
    4.5362    0.2005   -3.6555 H   0  0  0  0  0  0  0  0  0  0  0  0
    0.6038    1.2256   -2.2600 H   0  0  0  0  0  0  0  0  0  0  0  0
    3.0024   -0.8390   -5.2259 H   0  0  0  0  0  0  0  0  0  0  0  0
    0.2631   -3.4662   -2.0601 H   0  0  0  0  0  0  0  0  0  0  0  0
    1.7047   -0.3720    1.6564 H   0  0  0  0  0  0  0  0  0  0  0  0
  1 19  1  0  0  0  0
  1 18  1  0  0  0  0
  2 20  1  0  0  0  0
  2  4  2  0  0  0  0
  3  2  1  0  0  0  0
  4 22  1  0  0  0  0
  5  9  2  0  0  0  0
  5  6  1  0  0  0  0
  6 10  2  0  0  0  0
  7  3  2  0  0  0  0
  7 12  1  0  0  0  0
  8 26  1  0  0  0  0
  8  4  1  0  0  0  0
  9 13  1  0  0  0  0
 10 14  1  0  0  0  0
 10 28  1  0  0  0  0
 11  1  1  0  0  0  0
 11 16  1  0  0  0  0
 12  8  2  0  0  0  0
 13 12  1  0  0  0  0
 13 14  2  0  0  0  0
 14 15  1  0  0  0  0
 15 11  2  0  0  0  0
 16 29  1  0  0  0  0
 17  1  1  0  0  0  0
 21  3  1  0  0  0  0
 23  5  1  0  0  0  0
 24  6  1  0  0  0  0
 25  7  1  0  0  0  0
 27  9  1  0  0  0  0
M  END
>  <HBA>
2

>  <HBD>
1

>  <TPSA>
29.1

>  <cid>
16447

>  <dipole>
3.62

>  <excitation_energy_1>
4.342

>  <excitation_energy_2>
4.661

>  <excitation_energy_3>
4.793

>  <excitation_energy_4>
4.925

>  <homo_energy>
-5.6

>  <homo_lumo_gap>
5.091

>  <logP>
3.385

>  <lumo_energy>
-0.509

>  <melting_point>
96.87

>  <molecular_refractivity>
66.19

>  <oscillator_strength_1>
0.1173

>  <oscillator_strength_2>
0.075

>  <oscillator_strength_3>
0.0013

>  <oscillator_strength_4>
0.0017

>  <open_babel_can_smiles>
C/C(=N\c1ccccc1c1ccccc1)/O

>  <mulliken_charges>
29
1   -0.551507
2   -0.128872
3   -0.137164
4   -0.139337
5   -0.133117
6   -0.136386
7   -0.175457
8   -0.162146
9   -0.190923
10   -0.151695
11   0.494495
12   0.057771
13   0.073978
14   0.175591
15   -0.471322
16   -0.572567
17   0.196318
18   0.160407
19   0.193791
20   0.126588
21   0.126719
22   0.130825
23   0.124826
24   0.12793
25   0.128277
26   0.159596
27   0.132568
28   0.131731
29   0.409084

>  <lowdin_charges>
29
1   -0.482243
2   -0.160471
3   -0.159461
4   -0.159855
5   -0.173161
6   -0.1515
7   -0.170732
8   -0.154079
9   -0.158425
10   -0.177601
11   0.154518
12   -0.004832
13   -0.032858
14   0.044321
15   -0.176805
16   -0.35924
17   0.184383
18   0.163063
19   0.18023
20   0.155406
21   0.15503
22   0.159473
23   0.15631
24   0.156527
25   0.158495
26   0.171061
27   0.16084
28   0.163438
29   0.358164

$$$$

