PCCDB-ID:  19539
public computational chemistry database (PCCDB) project, http://pccdb.org

 26 27  0  0  0  0  0  0  0  0999 V2000
    4.9235    1.2068    2.4261 C   0  0  0  0  0  0  0  0  0  0  0  0
    4.8534   -0.1517    2.7445 C   0  0  0  0  0  0  0  0  0  0  0  0
    4.6951    1.6225    1.1131 C   0  0  0  0  0  0  0  0  0  0  0  0
    4.7893   -4.8490   -1.8452 C   0  0  0  0  0  0  0  0  0  0  0  0
    6.1493   -4.9545   -1.5585 C   0  0  0  0  0  0  0  0  0  0  0  0
    4.5561   -1.0952    1.7608 C   0  0  0  0  0  0  0  0  0  0  0  0
    4.4062    0.6877    0.1174 C   0  0  0  0  0  0  0  0  0  0  0  0
    4.0756   -3.7066   -1.4886 C   0  0  0  0  0  0  0  0  0  0  0  0
    6.0968   -2.7391   -0.5637 C   0  0  0  0  0  0  0  0  0  0  0  0
    6.8075   -3.8919   -0.9294 C   0  0  0  0  0  0  0  0  0  0  0  0
    4.3397   -0.6650    0.4490 C   0  0  0  0  0  0  0  0  0  0  0  0
    4.7298   -2.6556   -0.8383 C   0  0  0  0  0  0  0  0  0  0  0  0
    8.2739   -4.0474   -0.6493 C   0  0  0  0  0  0  0  0  0  0  0  0
    8.8247   -5.1190   -0.5652 O   0  0  0  0  0  0  0  0  0  0  0  0
    8.9910   -2.9009   -0.4867 O   0  0  0  0  0  0  0  0  0  0  0  0
    3.9630   -1.5502   -0.5513 O   0  0  0  0  0  0  0  0  0  0  0  0
    5.1506    1.9363    3.1980 H   0  0  0  0  0  0  0  0  0  0  0  0
    5.0220   -0.4820    3.7658 H   0  0  0  0  0  0  0  0  0  0  0  0
    4.7433    2.6774    0.8577 H   0  0  0  0  0  0  0  0  0  0  0  0
    4.2753   -5.6656   -2.3441 H   0  0  0  0  0  0  0  0  0  0  0  0
    6.7157   -5.8430   -1.8137 H   0  0  0  0  0  0  0  0  0  0  0  0
    4.4857   -2.1511    2.0026 H   0  0  0  0  0  0  0  0  0  0  0  0
    4.2231    0.9891   -0.9091 H   0  0  0  0  0  0  0  0  0  0  0  0
    3.0149   -3.6109   -1.6971 H   0  0  0  0  0  0  0  0  0  0  0  0
    6.5770   -1.9265   -0.0278 H   0  0  0  0  0  0  0  0  0  0  0  0
    8.4544   -2.1338   -0.7445 H   0  0  0  0  0  0  0  0  0  0  0  0
  1  2  1  0  0  0  0
  1 17  1  0  0  0  0
  2 18  1  0  0  0  0
  3  1  2  0  0  0  0
  4  5  2  0  0  0  0
  4  8  1  0  0  0  0
  5 10  1  0  0  0  0
  6 22  1  0  0  0  0
  6  2  2  0  0  0  0
  7 11  2  0  0  0  0
  7  3  1  0  0  0  0
  8 12  2  0  0  0  0
  9 25  1  0  0  0  0
 10 13  1  0  0  0  0
 10  9  2  0  0  0  0
 11  6  1  0  0  0  0
 12  9  1  0  0  0  0
 12 16  1  0  0  0  0
 13 14  2  0  0  0  0
 13 15  1  0  0  0  0
 16 11  1  0  0  0  0
 19  3  1  0  0  0  0
 20  4  1  0  0  0  0
 21  5  1  0  0  0  0
 23  7  1  0  0  0  0
 24  8  1  0  0  0  0
 26 15  1  0  0  0  0
M  END
>  <HBA>
3

>  <HBD>
1

>  <TPSA>
46.53

>  <cid>
19539

>  <dipole>
4.43

>  <excitation_energy_1>
4.246

>  <excitation_energy_2>
4.743

>  <excitation_energy_3>
4.963

>  <excitation_energy_4>
5.017

>  <homo_energy>
-6.376

>  <homo_lumo_gap>
4.985

>  <logP>
3.177

>  <lumo_energy>
-1.391

>  <melting_point>
133.08

>  <molecular_refractivity>
59.92

>  <oscillator_strength_1>
0.044

>  <oscillator_strength_2>
0.004

>  <oscillator_strength_3>
0.0212

>  <oscillator_strength_4>
0.0594

>  <open_babel_can_smiles>
OC(=O)c1cccc(c1)Oc1ccccc1

>  <mulliken_charges>
26
1   -0.125038
2   -0.138118
3   -0.139255
4   -0.139417
5   -0.154326
6   -0.159093
7   -0.167817
8   -0.164248
9   -0.256498
10   0.051663
11   0.330645
12   0.356884
13   0.549554
14   -0.444429
15   -0.57413
16   -0.575708
17   0.136955
18   0.14242
19   0.140267
20   0.146801
21   0.167313
22   0.151921
23   0.145966
24   0.152713
25   0.152204
26   0.41277

>  <lowdin_charges>
26
1   -0.164124
2   -0.145056
3   -0.144858
4   -0.141544
5   -0.146487
6   -0.179372
7   -0.175101
8   -0.163888
9   -0.209662
10   -0.047159
11   0.094302
12   0.107865
13   0.195841
14   -0.238126
15   -0.357711
16   -0.161154
17   0.163281
18   0.162988
19   0.161571
20   0.167896
21   0.18056
22   0.169783
23   0.169097
24   0.172088
25   0.169642
26   0.359326

$$$$

