PCCDB-ID:  7414
public computational chemistry database (PCCDB) project, http://pccdb.org

 15 15  0  0  0  0  0  0  0  0999 V2000
   -1.4691   -0.0715   -0.0310 C   0  0  0  0  0  0  0  0  0  0  0  0
   -0.8458    1.1701    0.1069 C   0  0  0  0  0  0  0  0  0  0  0  0
   -0.6982   -1.2240   -0.2050 C   0  0  0  0  0  0  0  0  0  0  0  0
    0.5453    1.2609    0.0888 C   0  0  0  0  0  0  0  0  0  0  0  0
    0.6903   -1.1351   -0.2392 C   0  0  0  0  0  0  0  0  0  0  0  0
    1.3245    0.1073   -0.0762 C   0  0  0  0  0  0  0  0  0  0  0  0
    2.8194    0.1058   -0.1426 C   0  0  0  0  0  0  0  0  0  0  0  0
    3.4484   -0.7636   -0.7030 O   0  0  0  0  0  0  0  0  0  0  0  0
    3.7709    1.4413    0.6540 S   0  0  0  0  0  0  0  0  0  0  0  0
   -2.5533   -0.1402   -0.0095 H   0  0  0  0  0  0  0  0  0  0  0  0
   -1.4422    2.0705    0.2231 H   0  0  0  0  0  0  0  0  0  0  0  0
   -1.1805   -2.1908   -0.3185 H   0  0  0  0  0  0  0  0  0  0  0  0
    1.0161    2.2356    0.1669 H   0  0  0  0  0  0  0  0  0  0  0  0
    1.3042   -2.0173   -0.3862 H   0  0  0  0  0  0  0  0  0  0  0  0
    2.7773    2.0101    1.3660 H   0  0  0  0  0  0  0  0  0  0  0  0
  1 10  1  0  0  0  0
  1  2  2  0  0  0  0
  2 11  1  0  0  0  0
  3  1  1  0  0  0  0
  4  2  1  0  0  0  0
  4 13  1  0  0  0  0
  5  3  2  0  0  0  0
  5  6  1  0  0  0  0
  6  4  2  0  0  0  0
  7  6  1  0  0  0  0
  7  9  1  0  0  0  0
  8  7  2  0  0  0  0
  9 15  1  0  0  0  0
 12  3  1  0  0  0  0
 14  5  1  0  0  0  0
M  END
>  <HBA>
2

>  <HBD>
1

>  <TPSA>
55.87

>  <cid>
7414

>  <dipole>
4.17

>  <excitation_energy_1>
4.137

>  <excitation_energy_2>
4.725

>  <excitation_energy_3>
4.788

>  <excitation_energy_4>
5.199

>  <homo_energy>
-7.181

>  <homo_lumo_gap>
5.459

>  <logP>
1.757

>  <lumo_energy>
-1.722

>  <melting_point>
59.13

>  <molecular_refractivity>
39.76

>  <oscillator_strength_1>
0.0005

>  <oscillator_strength_2>
0.0591

>  <oscillator_strength_3>
0.0492

>  <oscillator_strength_4>
0.1797

>  <open_babel_can_smiles>
SC(=O)c1ccccc1

>  <mulliken_charges>
15
1   -0.117336
2   -0.133023
3   -0.130846
4   -0.181202
5   -0.147987
6   0.098742
7   0.215237
8   -0.414124
9   -0.02141
10   0.143573
11   0.142932
12   0.144851
13   0.143627
14   0.169077
15   0.087889

>  <lowdin_charges>
15
1   -0.1339
2   -0.153321
3   -0.1506
4   -0.151781
5   -0.127025
6   -0.044381
7   0.058049
8   -0.222923
9   -0.028509
10   0.162398
11   0.164775
12   0.165174
13   0.165066
14   0.179249
15   0.117729

$$$$

