PCCDB-ID:  57413
public computational chemistry database (PCCDB) project, http://pccdb.org

 21 21  0  0  0  0  0  0  0  0999 V2000
   -1.1973   -0.2538    0.6144 C   0  0  0  0  0  0  0  0  0  0  0  0
   -0.4189   -1.4094    0.4105 C   0  0  0  0  0  0  0  0  0  0  0  0
    0.9099    5.3264    0.6335 C   0  0  0  0  0  0  0  0  0  0  0  0
    1.8153    4.9135    1.7066 C   0  0  0  0  0  0  0  0  0  0  0  0
   -0.2287    4.3312    0.3504 C   0  0  0  0  0  0  0  0  0  0  0  0
   -0.3698    0.8422    0.4263 C   0  0  0  0  0  0  0  0  0  0  0  0
    0.8449   -0.9401    0.1081 C   0  0  0  0  0  0  0  0  0  0  0  0
    2.5277    4.6030    2.5686 N   0  0  0  0  0  0  0  0  0  0  0  0
    0.2455    2.9880    0.3198 N   0  0  0  0  0  0  0  0  0  0  0  0
   -0.6943    2.1430    0.5121 N   0  0  0  0  0  0  0  0  0  0  0  0
    2.0622   -1.6088   -0.0611 N   0  0  0  0  0  0  0  0  0  0  0  0
   -1.3456    4.7056    0.0737 O   0  0  0  0  0  0  0  0  0  0  0  0
    2.7625   -1.0414   -1.1572 O   0  0  0  0  0  0  0  0  0  0  0  0
    1.7627   -2.9579   -0.3563 O   0  0  0  0  0  0  0  0  0  0  0  0
    0.9096    0.3962    0.1115 O   0  0  0  0  0  0  0  0  0  0  0  0
   -2.2478   -0.1921    0.8607 H   0  0  0  0  0  0  0  0  0  0  0  0
   -0.7158   -2.4442    0.4634 H   0  0  0  0  0  0  0  0  0  0  0  0
    1.4919    5.4426   -0.2910 H   0  0  0  0  0  0  0  0  0  0  0  0
    0.4614    6.2959    0.8668 H   0  0  0  0  0  0  0  0  0  0  0  0
    3.6427   -0.8622   -0.7839 H   0  0  0  0  0  0  0  0  0  0  0  0
    2.4217   -3.4465    0.1664 H   0  0  0  0  0  0  0  0  0  0  0  0
  1 16  1  0  0  0  0
  2 17  1  0  0  0  0
  2  1  1  0  0  0  0
  3 19  1  0  0  0  0
  3  4  1  0  0  0  0
  4  8  3  0  0  0  0
  5  3  1  0  0  0  0
  6 10  1  0  0  0  0
  6  1  2  0  0  0  0
  7 15  1  0  0  0  0
  7  2  2  0  0  0  0
  9  5  1  0  0  0  0
  9 10  1  0  0  0  0
 11  7  1  0  0  0  0
 12  5  2  0  0  0  0
 13 20  1  0  0  0  0
 13 11  1  0  0  0  0
 14 11  1  0  0  0  0
 14 21  1  0  0  0  0
 15  6  1  0  0  0  0
 18  3  1  0  0  0  0
M  RAD  2   9   2  10   2
M  END
>  <HBA>
8

>  <HBD>
2

>  <TPSA>
122.42

>  <cid>
57413

>  <dipole>
5.78

>  <excitation_energy_1>
2.276

>  <excitation_energy_2>
3.442

>  <excitation_energy_3>
3.562

>  <excitation_energy_4>
4.892

>  <homo_energy>
-6.463

>  <homo_lumo_gap>
3.461

>  <logP>
1.388

>  <lumo_energy>
-3.001

>  <melting_point>
198.9

>  <molecular_refractivity>
44.7

>  <oscillator_strength_1>
0.0003

>  <oscillator_strength_2>
0.3955

>  <oscillator_strength_3>
0.217

>  <oscillator_strength_4>
0.0777

>  <open_babel_can_smiles>
ON(c1ccc(o1)[N][N]C(=O)CC#N)O

>  <mulliken_charges>
21
1   -0.142069
2   -0.184962
3   -0.426653
4   0.364626
5   0.568092
6   0.535482
7   0.633596
8   -0.466882
9   -0.295465
10   -0.288274
11   -0.164069
12   -0.418044
13   -0.458879
14   -0.4646
15   -0.44369
16   0.183468
17   0.175325
18   0.223275
19   0.219939
20   0.425372
21   0.424412

>  <lowdin_charges>
21
1   -0.125297
2   -0.213202
3   -0.298417
4   -0.011886
5   0.15785
6   0.071934
7   0.140238
8   -0.123566
9   -0.145437
10   -0.018209
11   0.070453
12   -0.207903
13   -0.362977
14   -0.365326
15   -0.073978
16   0.190675
17   0.188059
18   0.204488
19   0.198785
20   0.361392
21   0.362324

$$$$

