PCCDB-ID:  13884
public computational chemistry database (PCCDB) project, http://pccdb.org

 22 23  0  0  1  0  0  0  0  0999 V2000
   -1.5777   -0.1058    0.0147 C   0  0  0  0  0  0  0  0  0  0  0  0
   -0.9975    1.1277   -0.2783 C   0  0  0  0  0  0  0  0  0  0  0  0
   -0.7601   -1.2191    0.2258 C   0  0  0  0  0  0  0  0  0  0  0  0
    0.3920    1.2553   -0.3557 C   0  0  0  0  0  0  0  0  0  0  0  0
    0.6255   -1.0917    0.1500 C   0  0  0  0  0  0  0  0  0  0  0  0
    3.4474   -0.0006    1.1512 C   0  0  0  0  0  0  0  0  0  0  0  0
    3.5819    1.4177    1.7085 C   0  0  0  0  0  0  0  0  0  0  0  0
    1.2161    0.1479   -0.1344 C   0  0  0  0  0  0  0  0  0  0  0  0
    2.7324    0.2417   -0.2045 C   0  0  1  0  0  0  0  0  0  0  0  0
    3.6245    2.2869    0.4570 C   0  0  0  0  0  0  0  0  0  0  0  0
    3.9847    3.4278    0.3426 O   0  0  0  0  0  0  0  0  0  0  0  0
    3.1578    1.5612   -0.6074 O   0  0  0  0  0  0  0  0  0  0  0  0
   -2.6583   -0.2033    0.0719 H   0  0  0  0  0  0  0  0  0  0  0  0
   -1.6253    1.9976   -0.4524 H   0  0  0  0  0  0  0  0  0  0  0  0
   -1.2018   -2.1868    0.4484 H   0  0  0  0  0  0  0  0  0  0  0  0
    0.8365    2.2135   -0.6026 H   0  0  0  0  0  0  0  0  0  0  0  0
    1.2535   -1.9664    0.3092 H   0  0  0  0  0  0  0  0  0  0  0  0
    2.8855   -0.6786    1.7970 H   0  0  0  0  0  0  0  0  0  0  0  0
    4.4370   -0.4353    0.9739 H   0  0  0  0  0  0  0  0  0  0  0  0
    4.4698    1.5919    2.3197 H   0  0  0  0  0  0  0  0  0  0  0  0
    2.7059    1.7157    2.2977 H   0  0  0  0  0  0  0  0  0  0  0  0
    3.1040   -0.4429   -0.9738 H   0  0  0  0  0  0  0  0  0  0  0  0
  1 13  1  0  0  0  0
  1  3  2  0  0  0  0
  2  1  1  0  0  0  0
  3 15  1  0  0  0  0
  4  2  2  0  0  0  0
  4  8  1  0  0  0  0
  5  3  1  0  0  0  0
  5 17  1  0  0  0  0
  6  7  1  0  0  0  0
  6 18  1  0  0  0  0
  7 21  1  0  0  0  0
  7 20  1  0  0  0  0
  8  5  2  0  0  0  0
  9 22  1  6  0  0  0
  9  8  1  0  0  0  0
  9  6  1  0  0  0  0
 10  7  1  0  0  0  0
 11 10  2  0  0  0  0
 12  9  1  0  0  0  0
 12 10  1  0  0  0  0
 14  2  1  0  0  0  0
 16  4  1  0  0  0  0
 19  6  1  0  0  0  0
M  END
>  <HBA>
2

>  <HBD>
0

>  <TPSA>
26.3

>  <cid>
13884

>  <dipole>
4.29

>  <excitation_energy_1>
5.3

>  <excitation_energy_2>
5.633

>  <excitation_energy_3>
5.853

>  <excitation_energy_4>
6.108

>  <homo_energy>
-6.825

>  <homo_lumo_gap>
6.471

>  <logP>
2.065

>  <lumo_energy>
-0.354

>  <melting_point>
40.18

>  <molecular_refractivity>
45.0

>  <oscillator_strength_1>
0.0027

>  <oscillator_strength_2>
0.0004

>  <oscillator_strength_3>
0.0392

>  <oscillator_strength_4>
0.0095

>  <open_babel_can_smiles>
O=C1CC[C@H](O1)c1ccccc1

>  <mulliken_charges>
22
1   -0.12603
2   -0.129695
3   -0.131998
4   -0.185886
5   -0.173993
6   -0.30298
7   -0.385094
8   0.127244
9   0.048646
10   0.616652
11   -0.452948
12   -0.458573
13   0.133072
14   0.136425
15   0.133167
16   0.159081
17   0.124991
18   0.164729
19   0.160324
20   0.186314
21   0.191059
22   0.165493

>  <lowdin_charges>
22
1   -0.153927
2   -0.151218
3   -0.152146
4   -0.165127
5   -0.169388
6   -0.290118
7   -0.313731
8   -0.024312
9   0.004502
10   0.189888
11   -0.230777
12   -0.187076
13   0.157616
14   0.161573
15   0.159147
16   0.171414
17   0.155332
18   0.163925
19   0.155726
20   0.177956
21   0.179241
22   0.1615

$$$$

