PCCDB-ID:  70041
public computational chemistry database (PCCDB) project, http://pccdb.org

 30 31  0  0  0  0  0  0  0  0999 V2000
    0.5088   -1.0183    0.1423 C   0  0  0  0  0  0  0  0  0  0  0  0
    5.7595    3.6161    1.2636 C   0  0  0  0  0  0  0  0  0  0  0  0
    4.5334    3.0995    1.6925 C   0  0  0  0  0  0  0  0  0  0  0  0
    6.6868    2.7747    0.6491 C   0  0  0  0  0  0  0  0  0  0  0  0
    2.1324   -4.6728    1.5370 C   0  0  0  0  0  0  0  0  0  0  0  0
    3.4036   -4.6681    2.1026 C   0  0  0  0  0  0  0  0  0  0  0  0
    4.2343    1.7518    1.5016 C   0  0  0  0  0  0  0  0  0  0  0  0
    6.3893    1.4221    0.4671 C   0  0  0  0  0  0  0  0  0  0  0  0
    1.5655   -3.4880    1.0529 C   0  0  0  0  0  0  0  0  0  0  0  0
    4.1189   -3.4686    2.1772 C   0  0  0  0  0  0  0  0  0  0  0  0
    4.8129   -0.5462    0.6426 C   0  0  0  0  0  0  0  0  0  0  0  0
    5.1617    0.9009    0.8856 C   0  0  0  0  0  0  0  0  0  0  0  0
    2.2745   -2.2869    1.1345 C   0  0  0  0  0  0  0  0  0  0  0  0
    3.5706   -2.2833    1.6988 C   0  0  0  0  0  0  0  0  0  0  0  0
    1.8086   -1.0736    0.7086 O   0  0  0  0  0  0  0  0  0  0  0  0
    4.2638   -1.1048    1.8495 O   0  0  0  0  0  0  0  0  0  0  0  0
    0.3428    0.0275   -0.1224 H   0  0  0  0  0  0  0  0  0  0  0  0
   -0.2569   -1.3367    0.8617 H   0  0  0  0  0  0  0  0  0  0  0  0
    0.4348   -1.6376   -0.7614 H   0  0  0  0  0  0  0  0  0  0  0  0
    5.9907    4.6677    1.4124 H   0  0  0  0  0  0  0  0  0  0  0  0
    3.8093    3.7502    2.1761 H   0  0  0  0  0  0  0  0  0  0  0  0
    7.6456    3.1664    0.3194 H   0  0  0  0  0  0  0  0  0  0  0  0
    1.5652   -5.5970    1.4696 H   0  0  0  0  0  0  0  0  0  0  0  0
    3.8414   -5.5864    2.4830 H   0  0  0  0  0  0  0  0  0  0  0  0
    3.2862    1.3413    1.8352 H   0  0  0  0  0  0  0  0  0  0  0  0
    7.1202    0.7660   -0.0010 H   0  0  0  0  0  0  0  0  0  0  0  0
    0.5703   -3.5097    0.6231 H   0  0  0  0  0  0  0  0  0  0  0  0
    5.1099   -3.4275    2.6195 H   0  0  0  0  0  0  0  0  0  0  0  0
    5.7036   -1.1183    0.3463 H   0  0  0  0  0  0  0  0  0  0  0  0
    4.0734   -0.6293   -0.1633 H   0  0  0  0  0  0  0  0  0  0  0  0
  1 15  1  0  0  0  0
  1 18  1  0  0  0  0
  2 20  1  0  0  0  0
  2  3  2  0  0  0  0
  3 21  1  0  0  0  0
  4  2  1  0  0  0  0
  5  6  2  0  0  0  0
  6 10  1  0  0  0  0
  6 24  1  0  0  0  0
  7  3  1  0  0  0  0
  7 25  1  0  0  0  0
  8  4  2  0  0  0  0
  8 12  1  0  0  0  0
  9 13  2  0  0  0  0
  9  5  1  0  0  0  0
 10 28  1  0  0  0  0
 11 12  1  0  0  0  0
 11 16  1  0  0  0  0
 12  7  2  0  0  0  0
 13 14  1  0  0  0  0
 14 16  1  0  0  0  0
 14 10  2  0  0  0  0
 15 13  1  0  0  0  0
 17  1  1  0  0  0  0
 19  1  1  0  0  0  0
 22  4  1  0  0  0  0
 23  5  1  0  0  0  0
 26  8  1  0  0  0  0
 27  9  1  0  0  0  0
 29 11  1  0  0  0  0
 30 11  1  0  0  0  0
M  END
>  <HBA>
2

>  <HBD>
0

>  <TPSA>
18.46

>  <cid>
70041

>  <dipole>
2.28

>  <excitation_energy_1>
5.024

>  <excitation_energy_2>
5.139

>  <excitation_energy_3>
5.288

>  <excitation_energy_4>
5.348

>  <homo_energy>
-5.815

>  <homo_lumo_gap>
5.826

>  <logP>
3.274

>  <lumo_energy>
0.011

>  <melting_point>
44.92

>  <molecular_refractivity>
63.91

>  <oscillator_strength_1>
0.0627

>  <oscillator_strength_2>
0.0038

>  <oscillator_strength_3>
0.0002

>  <oscillator_strength_4>
0.001

>  <open_babel_can_smiles>
COc1ccccc1OCc1ccccc1

>  <mulliken_charges>
30
1   -0.216245
2   -0.127604
3   -0.133115
4   -0.128934
5   -0.134531
6   -0.141591
7   -0.159118
8   -0.185167
9   -0.207185
10   -0.176225
11   -0.098376
12   0.133841
13   0.350952
14   0.319267
15   -0.509637
16   -0.536816
17   0.172051
18   0.154857
19   0.152447
20   0.126568
21   0.1274
22   0.127019
23   0.127472
24   0.127695
25   0.148585
26   0.122626
27   0.13292
28   0.136872
29   0.134514
30   0.15946

>  <lowdin_charges>
30
1   -0.276235
2   -0.156829
3   -0.157527
4   -0.15718
5   -0.15778
6   -0.172444
7   -0.150919
8   -0.167134
9   -0.209219
10   -0.169167
11   -0.120567
12   -0.013126
13   0.076982
14   0.069503
15   -0.197985
16   -0.223713
17   0.162666
18   0.14803
19   0.145379
20   0.154752
21   0.157715
22   0.156275
23   0.15792
24   0.158576
25   0.167651
26   0.155452
27   0.161516
28   0.165831
29   0.138745
30   0.152834

$$$$

