PCCDB-ID:  35753
public computational chemistry database (PCCDB) project, http://pccdb.org

 19 19  0  0  0  0  0  0  0  0999 V2000
    3.0035    0.0710   -1.1163 C   0  0  0  0  0  0  0  0  0  0  0  0
    5.6582    2.6692    3.3686 C   0  0  0  0  0  0  0  0  0  0  0  0
    2.5255    0.0355    0.3366 C   0  0  0  0  0  0  0  0  0  0  0  0
    3.4248    3.1645    2.1726 C   0  0  0  0  0  0  0  0  0  0  0  0
    4.4686    2.3957    2.5144 C   0  0  0  0  0  0  0  0  0  0  0  0
    2.5042    2.3853    1.2870 C   0  0  0  0  0  0  0  0  0  0  0  0
    4.2785    1.0470    1.8520 C   0  0  0  0  0  0  0  0  0  0  0  0
    3.0819    1.1154    1.1437 N   0  0  0  0  0  0  0  0  0  0  0  0
    1.4590    2.7411    0.7806 O   0  0  0  0  0  0  0  0  0  0  0  0
    5.0161    0.0829    1.9213 O   0  0  0  0  0  0  0  0  0  0  0  0
    2.5580   -0.7575   -1.6782 H   0  0  0  0  0  0  0  0  0  0  0  0
    4.0927   -0.0260   -1.1698 H   0  0  0  0  0  0  0  0  0  0  0  0
    2.7092    1.0087   -1.5984 H   0  0  0  0  0  0  0  0  0  0  0  0
    5.6463    3.6903    3.7584 H   0  0  0  0  0  0  0  0  0  0  0  0
    6.5830    2.5159    2.7997 H   0  0  0  0  0  0  0  0  0  0  0  0
    5.6958    1.9681    4.2111 H   0  0  0  0  0  0  0  0  0  0  0  0
    2.8166   -0.9029    0.8169 H   0  0  0  0  0  0  0  0  0  0  0  0
    1.4372    0.1297    0.3873 H   0  0  0  0  0  0  0  0  0  0  0  0
    3.2123    4.1881    2.4556 H   0  0  0  0  0  0  0  0  0  0  0  0
  1  3  1  0  0  0  0
  2 14  1  0  0  0  0
  2 16  1  0  0  0  0
  3 18  1  0  0  0  0
  3 17  1  0  0  0  0
  3  8  1  0  0  0  0
  4 19  1  0  0  0  0
  4  5  2  0  0  0  0
  5  2  1  0  0  0  0
  6  4  1  0  0  0  0
  7 10  2  0  0  0  0
  7  5  1  0  0  0  0
  8  6  1  0  0  0  0
  8  7  1  0  0  0  0
  9  6  2  0  0  0  0
 11  1  1  0  0  0  0
 12  1  1  0  0  0  0
 13  1  1  0  0  0  0
 15  2  1  0  0  0  0
M  END
>  <HBA>
3

>  <HBD>
0

>  <TPSA>
37.38

>  <cid>
35753

>  <dipole>
1.55

>  <excitation_energy_1>
3.544

>  <excitation_energy_2>
3.946

>  <excitation_energy_3>
4.221

>  <excitation_energy_4>
5.541

>  <homo_energy>
-7.217

>  <homo_lumo_gap>
4.863

>  <logP>
0.259

>  <lumo_energy>
-2.354

>  <melting_point>
53.98

>  <molecular_refractivity>
40.39

>  <oscillator_strength_1>
0.0

>  <oscillator_strength_2>
0.0011

>  <oscillator_strength_3>
0.0001

>  <oscillator_strength_4>
0.3132

>  <open_babel_can_smiles>
CCN1C(=O)C=C(C1=O)C

>  <mulliken_charges>
19
1   -0.448985
2   -0.519929
3   -0.14636
4   -0.237426
5   0.116163
6   0.598255
7   0.57213
8   -0.504744
9   -0.48222
10   -0.481205
11   0.152904
12   0.164132
13   0.165891
14   0.16658
15   0.186137
16   0.186291
17   0.174503
18   0.175555
19   0.162327

>  <lowdin_charges>
19
1   -0.449091
2   -0.435287
3   -0.188544
4   -0.184357
5   -0.001555
6   0.170031
7   0.164522
8   -0.094594
9   -0.241246
10   -0.247378
11   0.158784
12   0.156808
13   0.159725
14   0.165507
15   0.178555
16   0.178976
17   0.166081
18   0.164344
19   0.178719

$$$$

