PCCDB-ID:  20945
public computational chemistry database (PCCDB) project, http://pccdb.org

 20 20  0  0  0  0  0  0  0  0999 V2000
    0.9402   -0.0465   -0.0809 C   0  0  0  0  0  0  0  0  0  0  0  0
    5.1472   -2.4700    0.0583 C   0  0  0  0  0  0  0  0  0  0  0  0
    3.1166    1.2882   -0.0491 C   0  0  0  0  0  0  0  0  0  0  0  0
    5.2101    0.0820    0.0198 C   0  0  0  0  0  0  0  0  0  0  0  0
    2.4267    0.0901   -0.0476 C   0  0  0  0  0  0  0  0  0  0  0  0
    4.5196   -1.1157    0.0211 C   0  0  0  0  0  0  0  0  0  0  0  0
    4.5087    1.2844   -0.0154 C   0  0  0  0  0  0  0  0  0  0  0  0
    3.1329   -1.1035   -0.0132 N   0  3  0  0  0  0  0  0  0  0  0  0
    5.2369    2.5481   -0.0158 N   0  0  0  0  0  0  0  0  0  0  0  0
    2.4965   -2.2079   -0.0127 O   0  5  0  0  0  0  0  0  0  0  0  0
    4.5760    3.5881   -0.0473 O   0  0  0  0  0  0  0  0  0  0  0  0
    6.4681    2.4978    0.0153 O   0  0  0  0  0  0  0  0  0  0  0  0
    0.4684    0.9385   -0.1005 H   0  0  0  0  0  0  0  0  0  0  0  0
    0.5860   -0.6057    0.7922 H   0  0  0  0  0  0  0  0  0  0  0  0
    0.6263   -0.6206   -0.9598 H   0  0  0  0  0  0  0  0  0  0  0  0
    6.2360   -2.3833    0.0800 H   0  0  0  0  0  0  0  0  0  0  0  0
    4.8435   -3.0590   -0.8141 H   0  0  0  0  0  0  0  0  0  0  0  0
    4.8065   -3.0277    0.9377 H   0  0  0  0  0  0  0  0  0  0  0  0
    2.5767    2.2261   -0.0766 H   0  0  0  0  0  0  0  0  0  0  0  0
    6.2923    0.0855    0.0458 H   0  0  0  0  0  0  0  0  0  0  0  0
  1  5  1  0  0  0  0
  1 14  1  0  0  0  0
  2 16  1  0  0  0  0
  2 18  1  0  0  0  0
  3  5  2  0  0  0  0
  3  7  1  0  0  0  0
  4  6  1  0  0  0  0
  4 20  1  0  0  0  0
  5  8  1  0  0  0  0
  6  2  1  0  0  0  0
  7  4  2  0  0  0  0
  8 10  1  0  0  0  0
  8  6  2  0  0  0  0
  9  7  1  0  0  0  0
  9 12  2  0  0  0  0
 11  9  2  0  0  0  0
 13  1  1  0  0  0  0
 15  1  1  0  0  0  0
 17  2  1  0  0  0  0
 19  3  1  0  0  0  0
M  CHG  2   8   1  10  -1
M  END
>  <HBA>
1

>  <HBD>
0

>  <TPSA>
71.28

>  <cid>
20945

>  <dipole>
2.22

>  <excitation_energy_1>
3.446

>  <excitation_energy_2>
3.665

>  <excitation_energy_3>
3.709

>  <excitation_energy_4>
4.1

>  <homo_energy>
-6.542

>  <homo_lumo_gap>
3.755

>  <logP>
2.163

>  <lumo_energy>
-2.786

>  <melting_point>
67.29

>  <molecular_refractivity>
46.36

>  <oscillator_strength_1>
0.0

>  <oscillator_strength_2>
0.2802

>  <oscillator_strength_3>
0.0

>  <oscillator_strength_4>
0.0086

>  <open_babel_can_smiles>
O=N(=O)c1cc(C)[n+](c(c1)C)[O-]

>  <mulliken_charges>
20
1   -0.49883
2   -0.498959
3   -0.249829
4   -0.25011
5   0.354811
6   0.354888
7   0.322582
8   -0.105067
9   0.375062
10   -0.490231
11   -0.398737
12   -0.398795
13   0.163528
14   0.191854
15   0.191645
16   0.16356
17   0.19184
18   0.191668
19   0.194516
20   0.194603

>  <lowdin_charges>
20
1   -0.435893
2   -0.434773
3   -0.151165
4   -0.149158
5   0.03508
6   0.036931
7   -0.006375
8   0.208209
9   0.306114
10   -0.355566
11   -0.250242
12   -0.247878
13   0.164705
14   0.181396
15   0.181182
16   0.16326
17   0.181315
18   0.181216
19   0.19687
20   0.194773

$$$$

