PCCDB-ID:  20766
public computational chemistry database (PCCDB) project, http://pccdb.org

 12 11  0  0  0  0  0  0  0  0999 V2000
    3.5799    1.0670    0.2553 C   0  0  0  0  0  0  0  0  0  0  0  0
    4.5497   -1.3322   -0.9494 C   0  0  0  0  0  0  0  0  0  0  0  0
    4.9174   -2.5984   -1.5749 C   0  0  0  0  0  0  0  0  0  0  0  0
    3.2461   -1.0610   -0.7250 C   0  0  0  0  0  0  0  0  0  0  0  0
    6.0592   -2.9443   -1.8260 O   0  0  0  0  0  0  0  0  0  0  0  0
    2.6975    0.0271   -0.1712 O   0  0  0  0  0  0  0  0  0  0  0  0
    2.9425    1.8500    0.6668 H   0  0  0  0  0  0  0  0  0  0  0  0
    4.1549    1.4588   -0.5915 H   0  0  0  0  0  0  0  0  0  0  0  0
    4.2671    0.7000    1.0263 H   0  0  0  0  0  0  0  0  0  0  0  0
    5.3545   -0.6534   -0.6890 H   0  0  0  0  0  0  0  0  0  0  0  0
    4.0564   -3.2629   -1.8218 H   0  0  0  0  0  0  0  0  0  0  0  0
    2.4703   -1.7717   -1.0032 H   0  0  0  0  0  0  0  0  0  0  0  0
  1  7  1  0  0  0  0
  1  9  1  0  0  0  0
  2  4  2  0  0  0  0
  2 10  1  0  0  0  0
  3  2  1  0  0  0  0
  4  6  1  0  0  0  0
  5  3  2  0  0  0  0
  6  1  1  0  0  0  0
  8  1  1  0  0  0  0
 11  3  1  0  0  0  0
 12  4  1  0  0  0  0
M  END
>  <HBA>
2

>  <HBD>
0

>  <TPSA>
26.3

>  <cid>
20766

>  <dipole>
4.04

>  <excitation_energy_1>
3.951

>  <excitation_energy_2>
5.724

>  <excitation_energy_3>
6.393

>  <excitation_energy_4>
6.424

>  <homo_energy>
-6.591

>  <homo_lumo_gap>
5.508

>  <logP>
0.345

>  <lumo_energy>
-1.083

>  <melting_point>
7.33

>  <molecular_refractivity>
22.15

>  <oscillator_strength_1>
0.0001

>  <oscillator_strength_2>
0.4513

>  <oscillator_strength_3>
0.0258

>  <oscillator_strength_4>
0.0303

>  <open_babel_can_smiles>
CO/C=C/C=O

>  <mulliken_charges>
12
1   -0.226093
2   -0.215218
3   0.232973
4   0.143109
5   -0.434744
6   -0.422821
7   0.180683
8   0.169352
9   0.16939
10   0.149446
11   0.089802
12   0.16412

>  <lowdin_charges>
12
1   -0.281077
2   -0.274645
3   0.039463
4   -0.009515
5   -0.249168
6   -0.163073
7   0.170298
8   0.157831
9   0.157728
10   0.17299
11   0.109668
12   0.169499

$$$$

