PCCDB-ID:  297
public computational chemistry database (PCCDB) project, http://pccdb.org

  5  4  0  0  0  0  0  0  0  0999 V2000
    1.0146   -0.0438    0.0887 C   0  0  0  0  0  0  0  0  0  0  0  0
    2.1079   -0.0438    0.0887 H   0  0  0  0  0  0  0  0  0  0  0  0
    0.6502    0.8895    0.5262 H   0  0  0  0  0  0  0  0  0  0  0  0
    0.6502   -0.8894    0.6782 H   0  0  0  0  0  0  0  0  0  0  0  0
    0.6502   -0.1315   -0.9383 H   0  0  0  0  0  0  0  0  0  0  0  0
  1  3  1  0  0  0  0
  1  4  1  0  0  0  0
  2  1  1  0  0  0  0
  5  1  1  0  0  0  0
M  END
>  <HBA>
0

>  <HBD>
0

>  <TPSA>
0.0

>  <cid>
297

>  <dipole>
0.0

>  <excitation_energy_1>
10.103

>  <excitation_energy_2>
10.103

>  <excitation_energy_3>
10.103

>  <excitation_energy_4>
11.272

>  <homo_energy>
-10.588

>  <homo_lumo_gap>
13.796

>  <logP>
0.636

>  <lumo_energy>
3.208

>  <melting_point>
-23.24

>  <molecular_refractivity>
6.92

>  <oscillator_strength_1>
0.1278

>  <oscillator_strength_2>
0.1278

>  <oscillator_strength_3>
0.1278

>  <oscillator_strength_4>
0.0

>  <open_babel_can_smiles>
C

>  <mulliken_charges>
5
1   -0.628108
2   0.157034
3   0.157018
4   0.157027
5   0.15703

>  <lowdin_charges>
5
1   -0.632744
2   0.156782
3   0.158821
4   0.159371
5   0.15777

$$$$

