PCCDB-ID:  8151
public computational chemistry database (PCCDB) project, http://pccdb.org

 17 16  0  0  0  0  0  0  0  0999 V2000
    0.7933    0.6090   -0.5601 C   0  0  0  0  0  0  0  0  0  0  0  0
    6.0521    1.9736   -0.8389 C   0  0  0  0  0  0  0  0  0  0  0  0
   -0.1081   -0.4215   -0.0370 C   0  0  0  0  0  0  0  0  0  0  0  0
    7.3850    1.5357   -0.4152 C   0  0  0  0  0  0  0  0  0  0  0  0
    2.2610    0.3006   -0.2107 C   0  0  0  0  0  0  0  0  0  0  0  0
    4.9616    0.9982   -0.3586 C   0  0  0  0  0  0  0  0  0  0  0  0
   -0.8054   -1.2478    0.3848 N   0  0  0  0  0  0  0  0  0  0  0  0
    8.4320    1.1726   -0.0705 N   0  0  0  0  0  0  0  0  0  0  0  0
    3.3259    1.6214   -0.9108 S   0  0  0  0  0  0  0  0  0  0  0  0
    0.4996    1.5803   -0.1446 H   0  0  0  0  0  0  0  0  0  0  0  0
    0.6662    0.6718   -1.6474 H   0  0  0  0  0  0  0  0  0  0  0  0
    6.0365    2.0528   -1.9324 H   0  0  0  0  0  0  0  0  0  0  0  0
    5.8662    2.9781   -0.4405 H   0  0  0  0  0  0  0  0  0  0  0  0
    2.5506   -0.6681   -0.6295 H   0  0  0  0  0  0  0  0  0  0  0  0
    2.3871    0.2614    0.8757 H   0  0  0  0  0  0  0  0  0  0  0  0
    4.9795    0.9238    0.7331 H   0  0  0  0  0  0  0  0  0  0  0  0
    5.1383    0.0029   -0.7778 H   0  0  0  0  0  0  0  0  0  0  0  0
  1  5  1  0  0  0  0
  1 10  1  0  0  0  0
  1  3  1  0  0  0  0
  2 13  1  0  0  0  0
  2  4  1  0  0  0  0
  2  6  1  0  0  0  0
  3  7  3  0  0  0  0
  4  8  3  0  0  0  0
  5 15  1  0  0  0  0
  6 16  1  0  0  0  0
  9  6  1  0  0  0  0
  9  5  1  0  0  0  0
 11  1  1  0  0  0  0
 12  2  1  0  0  0  0
 14  5  1  0  0  0  0
 17  6  1  0  0  0  0
M  END
>  <HBA>
3

>  <HBD>
0

>  <TPSA>
72.88

>  <cid>
8151

>  <dipole>
2.74

>  <excitation_energy_1>
5.016

>  <excitation_energy_2>
5.746

>  <excitation_energy_3>
6.155

>  <excitation_energy_4>
6.458

>  <homo_energy>
-6.92

>  <homo_lumo_gap>
6.566

>  <logP>
1.547

>  <lumo_energy>
-0.354

>  <melting_point>
50.21

>  <molecular_refractivity>
38.05

>  <oscillator_strength_1>
0.0

>  <oscillator_strength_2>
0.0096

>  <oscillator_strength_3>
0.0082

>  <oscillator_strength_4>
0.0184

>  <open_babel_can_smiles>
N#CCCSCCC#N

>  <mulliken_charges>
17
1   -0.35289
2   -0.352964
3   0.350945
4   0.351021
5   -0.415943
6   -0.415945
7   -0.459522
8   -0.459534
9   0.117706
10   0.213686
11   0.213767
12   0.213691
13   0.213775
14   0.195574
15   0.195539
16   0.195581
17   0.195512

>  <lowdin_charges>
17
1   -0.271677
2   -0.269894
3   -0.017396
4   -0.018636
5   -0.359604
6   -0.359494
7   -0.115832
8   -0.115814
9   0.09774
10   0.190538
11   0.18892
12   0.188735
13   0.190098
14   0.169117
15   0.167282
16   0.167256
17   0.16866

$$$$

