PCCDB-ID:  27778
public computational chemistry database (PCCDB) project, http://pccdb.org

 33 33  0  0  0  0  0  0  0  0999 V2000
    1.1869   -0.6481   -0.3253 C   0  0  0  0  0  0  0  0  0  0  0  0
    5.5613    5.2205    4.4722 C   0  0  0  0  0  0  0  0  0  0  0  0
    9.9379   -0.6760   -0.2905 C   0  0  0  0  0  0  0  0  0  0  0  0
    2.6990   -0.4855   -0.1825 C   0  0  0  0  0  0  0  0  0  0  0  0
    4.9928    4.1335    3.5621 C   0  0  0  0  0  0  0  0  0  0  0  0
    8.9952    0.2530    0.4721 C   0  0  0  0  0  0  0  0  0  0  0  0
    4.2269    0.9005    0.9504 C   0  0  0  0  0  0  0  0  0  0  0  0
    5.7790    2.4013    2.1761 C   0  0  0  0  0  0  0  0  0  0  0  0
    6.6810    0.5996    0.7256 C   0  0  0  0  0  0  0  0  0  0  0  0
    3.0047    0.6185    0.7162 N   0  0  0  0  0  0  0  0  0  0  0  0
    6.0726    3.3665    2.9573 N   0  0  0  0  0  0  0  0  0  0  0  0
    7.6094   -0.0851    0.1803 N   0  0  0  0  0  0  0  0  0  0  0  0
    4.5184    1.9635    1.8090 N   0  0  0  0  0  0  0  0  0  0  0  0
    5.3519    0.2707    0.4471 N   0  0  0  0  0  0  0  0  0  0  0  0
    6.8167    1.6676    1.5954 N   0  0  0  0  0  0  0  0  0  0  0  0
    0.9444   -1.4781   -0.9985 H   0  0  0  0  0  0  0  0  0  0  0  0
    0.7407    0.2679   -0.7261 H   0  0  0  0  0  0  0  0  0  0  0  0
    0.7308   -0.8456    0.6502 H   0  0  0  0  0  0  0  0  0  0  0  0
    4.7571    5.8071    4.9305 H   0  0  0  0  0  0  0  0  0  0  0  0
    6.2053    5.8976    3.9015 H   0  0  0  0  0  0  0  0  0  0  0  0
    6.1647    4.7739    5.2691 H   0  0  0  0  0  0  0  0  0  0  0  0
   10.9848   -0.4326   -0.0768 H   0  0  0  0  0  0  0  0  0  0  0  0
    9.7722   -0.5860   -1.3690 H   0  0  0  0  0  0  0  0  0  0  0  0
    9.7575   -1.7183   -0.0081 H   0  0  0  0  0  0  0  0  0  0  0  0
    3.1387   -0.3164   -1.1817 H   0  0  0  0  0  0  0  0  0  0  0  0
    3.1289   -1.4324    0.1902 H   0  0  0  0  0  0  0  0  0  0  0  0
    4.3609    4.6052    2.7887 H   0  0  0  0  0  0  0  0  0  0  0  0
    4.3252    3.4821    4.1542 H   0  0  0  0  0  0  0  0  0  0  0  0
    9.2170    1.2984    0.1921 H   0  0  0  0  0  0  0  0  0  0  0  0
    9.2042    0.1698    1.5535 H   0  0  0  0  0  0  0  0  0  0  0  0
    3.7052    2.4325    2.1811 H   0  0  0  0  0  0  0  0  0  0  0  0
    5.2404   -0.5102   -0.1832 H   0  0  0  0  0  0  0  0  0  0  0  0
    7.7415    1.9776    1.8565 H   0  0  0  0  0  0  0  0  0  0  0  0
  1  4  1  0  0  0  0
  1 18  1  0  0  0  0
  2 19  1  0  0  0  0
  2 21  1  0  0  0  0
  3 22  1  0  0  0  0
  3 24  1  0  0  0  0
  3  6  1  0  0  0  0
  4 26  1  0  0  0  0
  4 10  1  0  0  0  0
  5 28  1  0  0  0  0
  5  2  1  0  0  0  0
  6 30  1  0  0  0  0
  7 13  1  0  0  0  0
  8 11  2  0  0  0  0
  9 15  1  0  0  0  0
 10  7  2  0  0  0  0
 11  5  1  0  0  0  0
 12  6  1  0  0  0  0
 12  9  2  0  0  0  0
 13  8  1  0  0  0  0
 13 31  1  0  0  0  0
 14  9  1  0  0  0  0
 14  7  1  0  0  0  0
 15 33  1  0  0  0  0
 15  8  1  0  0  0  0
 16  1  1  0  0  0  0
 17  1  1  0  0  0  0
 20  2  1  0  0  0  0
 23  3  1  0  0  0  0
 25  4  1  0  0  0  0
 27  5  1  0  0  0  0
 29  6  1  0  0  0  0
 32 14  1  0  0  0  0
M  END
>  <HBA>
6

>  <HBD>
3

>  <TPSA>
74.76

>  <cid>
27778

>  <dipole>
0.0

>  <excitation_energy_1>
5.338

>  <excitation_energy_2>
5.695

>  <excitation_energy_3>
5.695

>  <excitation_energy_4>
5.708

>  <homo_energy>
-5.938

>  <homo_lumo_gap>
6.319

>  <logP>
1.386

>  <lumo_energy>
0.381

>  <melting_point>
153.51

>  <molecular_refractivity>
62.17

>  <oscillator_strength_1>
0.0022

>  <oscillator_strength_2>
0.1904

>  <oscillator_strength_3>
0.1918

>  <oscillator_strength_4>
0.0011

>  <open_babel_can_smiles>
CC/N=c/1\[nH]/c(=N/CC)/[nH]/c(=N/CC)/[nH]1

>  <mulliken_charges>
33
1   -0.433838
2   -0.433937
3   -0.433913
4   -0.152153
5   -0.152262
6   -0.152235
7   0.767421
8   0.767425
9   0.767352
10   -0.506713
11   -0.506716
12   -0.506614
13   -0.735789
14   -0.735764
15   -0.735814
16   0.135373
17   0.153442
18   0.153511
19   0.135406
20   0.153636
21   0.153391
22   0.13541
23   0.153444
24   0.153556
25   0.130546
26   0.13044
27   0.131216
28   0.129846
29   0.13005
30   0.130971
31   0.357773
32   0.35777
33   0.35777

>  <lowdin_charges>
33
1   -0.443478
2   -0.446181
3   -0.438584
4   -0.200745
5   -0.203685
6   -0.196625
7   0.135013
8   0.135944
9   0.140335
10   -0.267615
11   -0.270037
12   -0.271445
13   -0.249565
14   -0.249463
15   -0.248334
16   0.14791
17   0.15477
18   0.154186
19   0.148332
20   0.155808
21   0.155314
22   0.146012
23   0.152548
24   0.153198
25   0.129651
26   0.130276
27   0.132091
28   0.131402
29   0.12857
30   0.128599
31   0.309259
32   0.308652
33   0.307885

$$$$

