PCCDB-ID:  3077
public computational chemistry database (PCCDB) project, http://pccdb.org

 25 24  0  0  0  0  0  0  0  0999 V2000
    0.9666   -0.5685    0.1271 C   0  0  0  0  0  0  0  0  0  0  0  0
    2.8274    0.3143    1.3550 C   0  0  0  0  0  0  0  0  0  0  0  0
    4.6173   -1.3068   -0.5261 C   0  0  0  0  0  0  0  0  0  0  0  0
    3.1444   -1.5538   -0.1695 C   0  0  0  0  0  0  0  0  0  0  0  0
    5.2820   -2.5945   -1.0195 C   0  0  0  0  0  0  0  0  0  0  0  0
    7.5987   -3.9301   -1.8213 C   0  0  0  0  0  0  0  0  0  0  0  0
    6.7778   -4.9077   -1.8078 N   0  0  0  0  0  0  0  0  0  0  0  0
    8.9602   -3.9608   -2.1027 N   0  0  0  0  0  0  0  0  0  0  0  0
    2.4034   -0.3254    0.1156 N   0  0  0  0  0  0  0  0  0  0  0  0
    7.0585   -2.2803   -1.3603 S   0  0  0  0  0  0  0  0  0  0  0  0
    0.4357    0.3782    0.2748 H   0  0  0  0  0  0  0  0  0  0  0  0
    0.6446   -1.2669    0.9256 H   0  0  0  0  0  0  0  0  0  0  0  0
    0.6531   -0.9870   -0.8356 H   0  0  0  0  0  0  0  0  0  0  0  0
    2.2496    1.2323    1.5072 H   0  0  0  0  0  0  0  0  0  0  0  0
    3.8835    0.5936    1.3030 H   0  0  0  0  0  0  0  0  0  0  0  0
    2.6857   -0.3301    2.2463 H   0  0  0  0  0  0  0  0  0  0  0  0
    5.1644   -0.9271    0.3449 H   0  0  0  0  0  0  0  0  0  0  0  0
    4.6613   -0.5304   -1.2993 H   0  0  0  0  0  0  0  0  0  0  0  0
    3.0827   -2.2737    0.6733 H   0  0  0  0  0  0  0  0  0  0  0  0
    2.6565   -2.0359   -1.0259 H   0  0  0  0  0  0  0  0  0  0  0  0
    4.8196   -2.9625   -1.9389 H   0  0  0  0  0  0  0  0  0  0  0  0
    5.2237   -3.3953   -0.2782 H   0  0  0  0  0  0  0  0  0  0  0  0
    7.2358   -5.7818   -2.0843 H   0  0  0  0  0  0  0  0  0  0  0  0
    9.2665   -4.7523   -2.6560 H   0  0  0  0  0  0  0  0  0  0  0  0
    9.3839   -3.0888   -2.3968 H   0  0  0  0  0  0  0  0  0  0  0  0
  1 11  1  0  0  0  0
  1 12  1  0  0  0  0
  2 14  1  0  0  0  0
  2 16  1  0  0  0  0
  3  4  1  0  0  0  0
  3 17  1  0  0  0  0
  4  9  1  0  0  0  0
  4 19  1  0  0  0  0
  5  3  1  0  0  0  0
  5 22  1  0  0  0  0
  6  7  1  0  0  0  0
  6 10  1  0  0  0  0
  8  6  2  0  0  0  0
  9  1  1  0  0  0  0
  9  2  1  0  0  0  0
 10  5  1  0  0  0  0
 13  1  1  0  0  0  0
 15  2  1  0  0  0  0
 18  3  1  0  0  0  0
 20  4  1  0  0  0  0
 21  5  1  0  0  0  0
 23  7  1  0  0  0  0
 24  8  1  0  0  0  0
 25  8  1  0  0  0  0
M  RAD  1   7   2
M  END
>  <HBA>
4

>  <HBD>
2

>  <TPSA>
78.41

>  <cid>
3077

>  <dipole>
1.49

>  <excitation_energy_1>
5.227

>  <excitation_energy_2>
5.305

>  <excitation_energy_3>
5.365

>  <excitation_energy_4>
5.444

>  <homo_energy>
-5.706

>  <homo_lumo_gap>
6.397

>  <logP>
1.365

>  <lumo_energy>
0.691

>  <melting_point>
70.59

>  <molecular_refractivity>
47.74

>  <oscillator_strength_1>
0.0008

>  <oscillator_strength_2>
0.0119

>  <oscillator_strength_3>
0.0076

>  <oscillator_strength_4>
0.0003

>  <open_babel_can_smiles>
CN(CCCSC(=[NH2])[NH])C

>  <mulliken_charges>
25
1   -0.293559
2   -0.30232
3   -0.288682
4   -0.108523
5   -0.398625
6   0.277193
7   -0.610023
8   -0.728503
9   -0.368421
10   0.106372
11   0.14765
12   0.117126
13   0.148714
14   0.148465
15   0.155139
16   0.116716
17   0.153756
18   0.160964
19   0.11118
20   0.137101
21   0.187451
22   0.195423
23   0.272963
24   0.324264
25   0.338181

>  <lowdin_charges>
25
1   -0.356436
2   -0.357796
3   -0.287267
4   -0.199308
5   -0.356976
6   -0.0069
7   -0.450298
8   -0.493815
9   -0.183187
10   0.120895
11   0.149575
12   0.120705
13   0.1494
14   0.150815
15   0.150111
16   0.120122
17   0.151169
18   0.156528
19   0.117317
20   0.145716
21   0.167865
22   0.172757
23   0.250876
24   0.280104
25   0.288029

$$$$

