PCCDB-ID:  45274
public computational chemistry database (PCCDB) project, http://pccdb.org

 33 33  0  0  0  0  0  0  0  0999 V2000
   -1.3431    3.0220    0.4341 C   0  0  0  0  0  0  0  0  0  0  0  0
    0.1900   -1.2196   -1.8750 C   0  0  0  0  0  0  0  0  0  0  0  0
    4.7407    2.2666   -5.4494 C   0  0  0  0  0  0  0  0  0  0  0  0
    3.2807    0.3544   -5.7166 C   0  0  0  0  0  0  0  0  0  0  0  0
    1.0975    2.6200   -0.1262 C   0  0  0  0  0  0  0  0  0  0  0  0
    2.1198    1.8304   -0.6494 C   0  0  0  0  0  0  0  0  0  0  0  0
   -0.4956    0.9403   -0.7421 C   0  0  0  0  0  0  0  0  0  0  0  0
    3.5831    1.3290   -3.5137 C   0  0  0  0  0  0  0  0  0  0  0  0
   -0.2326    2.1892   -0.1641 C   0  0  0  0  0  0  0  0  0  0  0  0
    0.5081    0.1249   -1.2701 C   0  0  0  0  0  0  0  0  0  0  0  0
    1.8436    0.5864   -1.2375 C   0  0  0  0  0  0  0  0  0  0  0  0
    3.6370    0.0605   -2.6498 C   0  0  0  0  0  0  0  0  0  0  0  0
    2.8662   -0.2648   -1.6933 N   0  0  0  0  0  0  0  0  0  0  0  0
    4.1974    1.0642   -4.8199 N   0  0  0  0  0  0  0  0  0  0  0  0
    4.6448   -0.7654   -2.9945 O   0  0  0  0  0  0  0  0  0  0  0  0
   -1.1601    4.0940    0.2976 H   0  0  0  0  0  0  0  0  0  0  0  0
   -1.4414    2.8472    1.5143 H   0  0  0  0  0  0  0  0  0  0  0  0
   -2.3112    2.7860   -0.0208 H   0  0  0  0  0  0  0  0  0  0  0  0
   -0.8447   -1.5112   -1.6678 H   0  0  0  0  0  0  0  0  0  0  0  0
    0.8622   -1.9905   -1.4820 H   0  0  0  0  0  0  0  0  0  0  0  0
    0.3249   -1.2187   -2.9649 H   0  0  0  0  0  0  0  0  0  0  0  0
    3.9628    3.0086   -5.7014 H   0  0  0  0  0  0  0  0  0  0  0  0
    5.2581    1.9889   -6.3734 H   0  0  0  0  0  0  0  0  0  0  0  0
    5.4661    2.7391   -4.7799 H   0  0  0  0  0  0  0  0  0  0  0  0
    3.8061    0.0867   -6.6387 H   0  0  0  0  0  0  0  0  0  0  0  0
    2.3972    0.9615   -5.9809 H   0  0  0  0  0  0  0  0  0  0  0  0
    2.9367   -0.5682   -5.2395 H   0  0  0  0  0  0  0  0  0  0  0  0
    1.3416    3.5793    0.3259 H   0  0  0  0  0  0  0  0  0  0  0  0
    3.1528    2.1625   -0.5812 H   0  0  0  0  0  0  0  0  0  0  0  0
   -1.5239    0.5833   -0.7784 H   0  0  0  0  0  0  0  0  0  0  0  0
    4.1655    2.1123   -3.0158 H   0  0  0  0  0  0  0  0  0  0  0  0
    2.5469    1.6918   -3.5823 H   0  0  0  0  0  0  0  0  0  0  0  0
    5.0290   -0.3595   -3.8083 H   0  0  0  0  0  0  0  0  0  0  0  0
  1 17  1  0  0  0  0
  2 19  1  0  0  0  0
  2 20  1  0  0  0  0
  2 10  1  0  0  0  0
  3 14  1  0  0  0  0
  3 24  1  0  0  0  0
  4 27  1  0  0  0  0
  4 14  1  0  0  0  0
  5 28  1  0  0  0  0
  6 29  1  0  0  0  0
  6  5  2  0  0  0  0
  7  9  2  0  0  0  0
  8 31  1  0  0  0  0
  8 12  1  0  0  0  0
  9  5  1  0  0  0  0
  9  1  1  0  0  0  0
 10 11  2  0  0  0  0
 10  7  1  0  0  0  0
 11  6  1  0  0  0  0
 12 13  2  0  0  0  0
 13 11  1  0  0  0  0
 14  8  1  0  0  0  0
 15 12  1  0  0  0  0
 16  1  1  0  0  0  0
 18  1  1  0  0  0  0
 21  2  1  0  0  0  0
 22  3  1  0  0  0  0
 23  3  1  0  0  0  0
 25  4  1  0  0  0  0
 26  4  1  0  0  0  0
 30  7  1  0  0  0  0
 32  8  1  0  0  0  0
 33 15  1  0  0  0  0
M  END
>  <HBA>
3

>  <HBD>
1

>  <TPSA>
32.34

>  <cid>
45274

>  <dipole>
4.71

>  <excitation_energy_1>
4.539

>  <excitation_energy_2>
4.744

>  <excitation_energy_3>
4.877

>  <excitation_energy_4>
5.295

>  <homo_energy>
-5.353

>  <homo_lumo_gap>
5.434

>  <logP>
1.877

>  <lumo_energy>
0.082

>  <melting_point>
69.58

>  <molecular_refractivity>
63.2

>  <oscillator_strength_1>
0.1077

>  <oscillator_strength_2>
0.0284

>  <oscillator_strength_3>
0.0431

>  <oscillator_strength_4>
0.0028

>  <open_babel_can_smiles>
CN(C/C(=N\c1ccc(cc1C)C)/O)C

>  <mulliken_charges>
33
1   -0.530079
2   -0.52156
3   -0.299064
4   -0.31267
5   -0.197819
6   -0.153018
7   -0.26165
8   -0.211348
9   0.191649
10   0.164936
11   0.176987
12   0.484946
13   -0.491045
14   -0.428851
15   -0.590061
16   0.151174
17   0.161963
18   0.151828
19   0.143541
20   0.179816
21   0.147003
22   0.138202
23   0.159546
24   0.160092
25   0.160835
26   0.141061
27   0.175724
28   0.114293
29   0.117352
30   0.110146
31   0.175678
32   0.169355
33   0.421039

>  <lowdin_charges>
33
1   -0.437925
2   -0.438558
3   -0.358438
4   -0.363208
5   -0.170796
6   -0.186886
7   -0.175401
8   -0.238226
9   -0.01366
10   -0.014651
11   0.031432
12   0.125072
13   -0.179891
14   -0.187464
15   -0.361105
16   0.153124
17   0.15717
18   0.154664
19   0.150164
20   0.171206
21   0.151167
22   0.134626
23   0.156033
24   0.156911
25   0.156836
26   0.135797
27   0.16283
28   0.150679
29   0.151414
30   0.148263
31   0.169703
32   0.156692
33   0.352429

$$$$

