PCCDB-ID:  28326
public computational chemistry database (PCCDB) project, http://pccdb.org

 16 15  0  0  0  0  0  0  0  0999 V2000
    2.1251   -0.5556    0.0576 C   0  0  0  0  0  0  0  0  0  0  0  0
    2.4493    1.9638    1.6348 C   0  0  0  0  0  0  0  0  0  0  0  0
    3.3943    0.2310    0.2930 C   0  0  0  0  0  0  0  0  0  0  0  0
    2.9402    3.2987    2.2296 C   0  0  0  0  0  0  0  0  0  0  0  0
    2.2178    4.1417    2.8498 N   0  0  0  0  0  0  0  0  0  0  0  0
    3.5480    1.2967    0.9608 N   0  0  0  0  0  0  0  0  0  0  0  0
    4.5124   -0.2856   -0.2872 O   0  0  0  0  0  0  0  0  0  0  0  0
    4.2499    3.5309    2.0491 O   0  0  0  0  0  0  0  0  0  0  0  0
    1.2582   -0.0821    0.5199 H   0  0  0  0  0  0  0  0  0  0  0  0
    2.2244   -1.5664    0.4728 H   0  0  0  0  0  0  0  0  0  0  0  0
    1.9310   -0.6533   -1.0178 H   0  0  0  0  0  0  0  0  0  0  0  0
    1.6110    2.1831    0.9584 H   0  0  0  0  0  0  0  0  0  0  0  0
    2.0524    1.3529    2.4582 H   0  0  0  0  0  0  0  0  0  0  0  0
    1.2532    3.8031    2.8938 H   0  0  0  0  0  0  0  0  0  0  0  0
    4.2847   -1.0938   -0.7720 H   0  0  0  0  0  0  0  0  0  0  0  0
    4.5901    2.7576    1.5428 H   0  0  0  0  0  0  0  0  0  0  0  0
  1  3  1  0  0  0  0
  1 10  1  0  0  0  0
  1  9  1  0  0  0  0
  2  4  1  0  0  0  0
  2 13  1  0  0  0  0
  3  6  2  0  0  0  0
  4  5  2  0  0  0  0
  5 14  1  0  0  0  0
  6  2  1  0  0  0  0
  7  3  1  0  0  0  0
  8  4  1  0  0  0  0
 11  1  1  0  0  0  0
 12  2  1  0  0  0  0
 15  7  1  0  0  0  0
 16  8  1  0  0  0  0
M  END
>  <HBA>
4

>  <HBD>
2

>  <TPSA>
72.19

>  <cid>
28326

>  <dipole>
8.56

>  <excitation_energy_1>
5.58

>  <excitation_energy_2>
5.59

>  <excitation_energy_3>
5.631

>  <excitation_energy_4>
5.821

>  <homo_energy>
-6.544

>  <homo_lumo_gap>
6.226

>  <logP>
-0.301

>  <lumo_energy>
-0.318

>  <melting_point>
98.97

>  <molecular_refractivity>
27.25

>  <oscillator_strength_1>
0.0079

>  <oscillator_strength_2>
0.0048

>  <oscillator_strength_3>
0.0008

>  <oscillator_strength_4>
0.0017

>  <open_babel_can_smiles>
C/C(=N\CC(=N)O)/O

>  <mulliken_charges>
16
1   -0.566144
2   -0.226571
3   0.516763
4   0.477278
5   -0.597284
6   -0.465408
7   -0.568575
8   -0.58245
9   0.191406
10   0.186913
11   0.184164
12   0.166598
13   0.173194
14   0.267662
15   0.413625
16   0.428827

>  <lowdin_charges>
16
1   -0.47925
2   -0.244444
3   0.146021
4   0.115925
5   -0.417533
6   -0.221754
7   -0.353125
8   -0.359963
9   0.179387
10   0.176029
11   0.173651
12   0.158212
13   0.163023
14   0.246447
15   0.361175
16   0.356199

$$$$

