PCCDB-ID:  12376
public computational chemistry database (PCCDB) project, http://pccdb.org

 14 13  0  0  0  0  0  0  0  0999 V2000
    1.2879    0.3366    0.1417 C   0  0  0  0  0  0  0  0  0  0  0  0
    0.1149    1.1796    0.6145 C   0  0  0  0  0  0  0  0  0  0  0  0
    3.1657    1.2500    1.2622 C   0  0  0  0  0  0  0  0  0  0  0  0
   -0.7891    2.1121   -1.3680 C   0  0  0  0  0  0  0  0  0  0  0  0
    2.8090    0.8307    2.3364 O   0  0  0  0  0  0  0  0  0  0  0  0
   -1.2217    1.0506   -1.7466 O   0  0  0  0  0  0  0  0  0  0  0  0
    2.5183    1.0930    0.0945 O   0  0  0  0  0  0  0  0  0  0  0  0
   -0.1048    2.3303   -0.2316 O   0  0  0  0  0  0  0  0  0  0  0  0
    1.1297   -0.0114   -0.8792 H   0  0  0  0  0  0  0  0  0  0  0  0
    1.4088   -0.5184    0.8130 H   0  0  0  0  0  0  0  0  0  0  0  0
    0.3058    1.5896    1.6064 H   0  0  0  0  0  0  0  0  0  0  0  0
   -0.7870    0.5611    0.6336 H   0  0  0  0  0  0  0  0  0  0  0  0
    4.0863    1.8252    1.0834 H   0  0  0  0  0  0  0  0  0  0  0  0
   -0.8987    3.0658   -1.9053 H   0  0  0  0  0  0  0  0  0  0  0  0
  1  2  1  0  0  0  0
  1 10  1  0  0  0  0
  2 12  1  0  0  0  0
  2 11  1  0  0  0  0
  3  5  2  0  0  0  0
  4  8  1  0  0  0  0
  6  4  2  0  0  0  0
  7  1  1  0  0  0  0
  7  3  1  0  0  0  0
  8  2  1  0  0  0  0
  9  1  1  0  0  0  0
 13  3  1  0  0  0  0
 14  4  1  0  0  0  0
M  END
>  <HBA>
4

>  <HBD>
0

>  <TPSA>
52.6

>  <cid>
12376

>  <dipole>
0.89

>  <excitation_energy_1>
5.793

>  <excitation_energy_2>
5.795

>  <excitation_energy_3>
7.09

>  <excitation_energy_4>
7.106

>  <homo_energy>
-7.897

>  <homo_lumo_gap>
7.763

>  <logP>
0.604

>  <lumo_energy>
-0.133

>  <melting_point>
-55.69

>  <molecular_refractivity>
24.69

>  <oscillator_strength_1>
0.0023

>  <oscillator_strength_2>
0.0007

>  <oscillator_strength_3>
0.0001

>  <oscillator_strength_4>
0.0126

>  <open_babel_can_smiles>
O=COCCOC=O

>  <mulliken_charges>
14
1   -0.07926
2   -0.079781
3   0.391613
4   0.391454
5   -0.420889
6   -0.420854
7   -0.406369
8   -0.406181
9   0.190603
10   0.178871
11   0.190773
12   0.17893
13   0.145564
14   0.145527

>  <lowdin_charges>
14
1   -0.143041
2   -0.144598
3   0.091777
4   0.092777
5   -0.253074
6   -0.253462
7   -0.180493
8   -0.181259
9   0.1722
10   0.168669
11   0.172522
12   0.168792
13   0.144188
14   0.145003

$$$$

