PCCDB-ID:  15235
public computational chemistry database (PCCDB) project, http://pccdb.org

 24 23  0  0  0  0  0  0  0  0999 V2000
    1.5510   -0.1889   -1.6044 C   0  0  0  0  0  0  0  0  0  0  0  0
    3.4715    1.2848   -0.9035 C   0  0  0  0  0  0  0  0  0  0  0  0
    3.5620   -2.9236   -2.6457 C   0  0  0  0  0  0  0  0  0  0  0  0
    5.7732   -1.5931    0.8148 C   0  0  0  0  0  0  0  0  0  0  0  0
    3.0798   -0.0803   -1.4920 C   0  0  0  0  0  0  0  0  0  0  0  0
    3.3331   -2.6534   -1.1710 C   0  0  0  0  0  0  0  0  0  0  0  0
    5.1924   -1.1855   -0.5221 C   0  0  0  0  0  0  0  0  0  0  0  0
    3.6560   -1.2372   -0.6386 C   0  0  0  0  0  0  0  0  0  0  0  0
    2.9640   -3.5213   -0.4030 O   0  0  0  0  0  0  0  0  0  0  0  0
    5.8875   -0.8758   -1.4724 O   0  0  0  0  0  0  0  0  0  0  0  0
    1.1542    0.6145   -2.2353 H   0  0  0  0  0  0  0  0  0  0  0  0
    1.0792   -0.0996   -0.6178 H   0  0  0  0  0  0  0  0  0  0  0  0
    1.2259   -1.1416   -2.0374 H   0  0  0  0  0  0  0  0  0  0  0  0
    3.0428    2.0965   -1.5021 H   0  0  0  0  0  0  0  0  0  0  0  0
    4.5568    1.4218   -0.8870 H   0  0  0  0  0  0  0  0  0  0  0  0
    3.0921    1.3955    0.1209 H   0  0  0  0  0  0  0  0  0  0  0  0
    4.5364   -2.5357   -2.9609 H   0  0  0  0  0  0  0  0  0  0  0  0
    2.8035   -2.4142   -3.2517 H   0  0  0  0  0  0  0  0  0  0  0  0
    3.4992   -3.9982   -2.8282 H   0  0  0  0  0  0  0  0  0  0  0  0
    5.3207   -2.5334    1.1522 H   0  0  0  0  0  0  0  0  0  0  0  0
    5.5292   -0.8345    1.5700 H   0  0  0  0  0  0  0  0  0  0  0  0
    6.8578   -1.6953    0.7411 H   0  0  0  0  0  0  0  0  0  0  0  0
    3.5227   -0.1524   -2.4925 H   0  0  0  0  0  0  0  0  0  0  0  0
    3.2259   -1.2047    0.3692 H   0  0  0  0  0  0  0  0  0  0  0  0
  1  5  1  0  0  0  0
  1 12  1  0  0  0  0
  2 15  1  0  0  0  0
  2 16  1  0  0  0  0
  3  6  1  0  0  0  0
  4 20  1  0  0  0  0
  4 21  1  0  0  0  0
  5  2  1  0  0  0  0
  5  8  1  0  0  0  0
  6  8  1  0  0  0  0
  6  9  2  0  0  0  0
  7  4  1  0  0  0  0
  8  7  1  0  0  0  0
  8 24  1  0  0  0  0
 10  7  2  0  0  0  0
 11  1  1  0  0  0  0
 13  1  1  0  0  0  0
 14  2  1  0  0  0  0
 17  3  1  0  0  0  0
 18  3  1  0  0  0  0
 19  3  1  0  0  0  0
 22  4  1  0  0  0  0
 23  5  1  0  0  0  0
M  END
>  <HBA>
2

>  <HBD>
0

>  <TPSA>
34.14

>  <cid>
15235

>  <dipole>
1.54

>  <excitation_energy_1>
3.951

>  <excitation_energy_2>
4.226

>  <excitation_energy_3>
5.524

>  <excitation_energy_4>
6.114

>  <homo_energy>
-6.656

>  <homo_lumo_gap>
5.377

>  <logP>
1.437

>  <lumo_energy>
-1.279

>  <melting_point>
14.89

>  <molecular_refractivity>
40.97

>  <oscillator_strength_1>
0.0095

>  <oscillator_strength_2>
0.0006

>  <oscillator_strength_3>
0.0011

>  <oscillator_strength_4>
0.0433

>  <open_babel_can_smiles>
CC(C(C(=O)C)C(=O)C)C

>  <mulliken_charges>
24
1   -0.456668
2   -0.460203
3   -0.543075
4   -0.532162
5   -0.076638
6   0.439799
7   0.438523
8   -0.231492
9   -0.434054
10   -0.442493
11   0.150129
12   0.148914
13   0.147923
14   0.14857
15   0.163577
16   0.138744
17   0.196258
18   0.177574
19   0.179273
20   0.189953
21   0.176475
22   0.180161
23   0.151655
24   0.149256

>  <lowdin_charges>
24
1   -0.448113
2   -0.445933
3   -0.479596
4   -0.472215
5   -0.116827
6   0.169238
7   0.172111
8   -0.188944
9   -0.232617
10   -0.238444
11   0.155041
12   0.150778
13   0.149934
14   0.154857
15   0.156683
16   0.144238
17   0.182143
18   0.176023
19   0.172495
20   0.180604
21   0.176064
22   0.171271
23   0.151024
24   0.160186

$$$$

