PCCDB-ID:  59821
public computational chemistry database (PCCDB) project, http://pccdb.org

 28 28  0  0  0  0  0  0  0  0999 V2000
    2.3033   -3.5979    0.1367 C   0  0  0  0  0  0  0  0  0  0  0  0
    1.8609   -2.7530    1.3343 C   0  0  0  0  0  0  0  0  0  0  0  0
    2.2260   -1.2571    1.2061 C   0  0  0  0  0  0  0  0  0  0  0  0
    9.2902   -0.0140   -0.9462 C   0  0  0  0  0  0  0  0  0  0  0  0
    8.4434   -0.6913   -0.1519 C   0  0  0  0  0  0  0  0  0  0  0  0
    9.2505   -0.1059   -2.4273 C   0  0  0  0  0  0  0  0  0  0  0  0
    8.3898   -0.5542    1.3118 C   0  0  0  0  0  0  0  0  0  0  0  0
    3.7005   -0.9831    1.1736 C   0  0  0  0  0  0  0  0  0  0  0  0
    6.0763   -0.6984    1.5075 C   0  0  0  0  0  0  0  0  0  0  0  0
   10.2390    0.0835   -3.2087 N   0  0  0  0  0  0  0  0  0  0  0  0
    7.3330   -0.6060    2.0437 N   0  0  0  0  0  0  0  0  0  0  0  0
    4.3337   -0.5831    0.1034 N   0  0  0  0  0  0  0  0  0  0  0  0
    5.6747   -0.4127    0.2868 N   0  0  0  0  0  0  0  0  0  0  0  0
    8.0613   -0.4657   -2.9767 O   0  0  0  0  0  0  0  0  0  0  0  0
    9.5501   -0.3296    1.9676 O   0  0  0  0  0  0  0  0  0  0  0  0
    4.7525   -1.1898    2.5639 S   0  0  0  0  0  0  0  0  0  0  0  0
    2.0090   -4.6449    0.2685 H   0  0  0  0  0  0  0  0  0  0  0  0
    3.3901   -3.5686    0.0022 H   0  0  0  0  0  0  0  0  0  0  0  0
    1.8475   -3.2345   -0.7918 H   0  0  0  0  0  0  0  0  0  0  0  0
    2.2967   -3.1552    2.2585 H   0  0  0  0  0  0  0  0  0  0  0  0
    0.7722   -2.8208    1.4531 H   0  0  0  0  0  0  0  0  0  0  0  0
    1.7712   -0.7009    2.0356 H   0  0  0  0  0  0  0  0  0  0  0  0
    1.8147   -0.8502    0.2756 H   0  0  0  0  0  0  0  0  0  0  0  0
   10.0320    0.6665   -0.5305 H   0  0  0  0  0  0  0  0  0  0  0  0
    7.6822   -1.3308   -0.5829 H   0  0  0  0  0  0  0  0  0  0  0  0
   11.0778    0.3027   -2.6678 H   0  0  0  0  0  0  0  0  0  0  0  0
    7.3399   -0.2834   -2.3504 H   0  0  0  0  0  0  0  0  0  0  0  0
   10.2912   -0.5022    1.3643 H   0  0  0  0  0  0  0  0  0  0  0  0
  1 17  1  0  0  0  0
  1  2  1  0  0  0  0
  2 21  1  0  0  0  0
  2 20  1  0  0  0  0
  3  2  1  0  0  0  0
  3 22  1  0  0  0  0
  4 24  1  0  0  0  0
  4  5  2  0  0  0  0
  5  7  1  0  0  0  0
  6  4  1  0  0  0  0
  7 15  1  0  0  0  0
  7 11  2  0  0  0  0
  8  3  1  0  0  0  0
  8 16  1  0  0  0  0
  9 11  1  0  0  0  0
  9 16  1  0  0  0  0
 10 26  1  0  0  0  0
 10  6  2  0  0  0  0
 12 13  1  0  0  0  0
 12  8  2  0  0  0  0
 13  9  2  0  0  0  0
 14  6  1  0  0  0  0
 14 27  1  0  0  0  0
 18  1  1  0  0  0  0
 19  1  1  0  0  0  0
 23  3  1  0  0  0  0
 25  5  1  0  0  0  0
 28 15  1  0  0  0  0
M  END
>  <HBA>
7

>  <HBD>
2

>  <TPSA>
126.21

>  <cid>
59821

>  <dipole>
3.3

>  <excitation_energy_1>
3.501

>  <excitation_energy_2>
3.898

>  <excitation_energy_3>
4.19

>  <excitation_energy_4>
4.53

>  <homo_energy>
-6.721

>  <homo_lumo_gap>
4.188

>  <logP>
1.244

>  <lumo_energy>
-2.533

>  <melting_point>
176.45

>  <molecular_refractivity>
60.85

>  <oscillator_strength_1>
0.0893

>  <oscillator_strength_2>
0.2926

>  <oscillator_strength_3>
0.0084

>  <oscillator_strength_4>
0.1039

>  <open_babel_can_smiles>
CCCc1nnc(s1)/N=C(/C=C/C(=N)O)\O

>  <mulliken_charges>
28
1   -0.440683
2   -0.26235
3   -0.329635
4   -0.203903
5   -0.161383
6   0.48016
7   0.477064
8   0.119477
9   0.267487
10   -0.570076
11   -0.470061
12   -0.263933
13   -0.32332
14   -0.579163
15   -0.55837
16   0.235582
17   0.14849
18   0.157634
19   0.151524
20   0.146553
21   0.146203
22   0.162634
23   0.180134
24   0.16169
25   0.196478
26   0.286558
27   0.427443
28   0.417766

>  <lowdin_charges>
28
1   -0.443069
2   -0.267453
3   -0.27757
4   -0.185794
5   -0.179998
6   0.126565
7   0.168788
8   -0.094584
9   -0.051532
10   -0.3702
11   -0.171267
12   -0.12303
13   -0.163293
14   -0.358096
15   -0.328938
16   0.277405
17   0.152253
18   0.15226
19   0.1525
20   0.146613
21   0.147326
22   0.16426
23   0.17258
24   0.169291
25   0.191626
26   0.258534
27   0.369666
28   0.365156

$$$$

