PCCDB-ID:  10956
public computational chemistry database (PCCDB) project, http://pccdb.org

 18 17  0  0  0  0  0  0  0  0999 V2000
    1.0080    0.0889    0.1555 C   0  0  0  0  0  0  0  0  0  0  0  0
    2.9643   -0.9950    1.3299 C   0  0  0  0  0  0  0  0  0  0  0  0
    4.5125   -0.7551   -1.3814 C   0  0  0  0  0  0  0  0  0  0  0  0
    2.9788   -0.6821   -1.2122 C   0  0  0  0  0  0  0  0  0  0  0  0
    4.9061   -1.2167   -2.7159 C   0  0  0  0  0  0  0  0  0  0  0  0
    2.5308   -0.1138    0.1481 C   0  0  0  0  0  0  0  0  0  0  0  0
    5.1997   -1.5839   -3.7773 N   0  0  0  0  0  0  0  0  0  0  0  0
    0.6752    0.5324    1.1010 H   0  0  0  0  0  0  0  0  0  0  0  0
    0.4836   -0.8675    0.0343 H   0  0  0  0  0  0  0  0  0  0  0  0
    0.6876    0.7508   -0.6575 H   0  0  0  0  0  0  0  0  0  0  0  0
    2.6134   -0.5713    2.2778 H   0  0  0  0  0  0  0  0  0  0  0  0
    4.0534   -1.0935    1.4022 H   0  0  0  0  0  0  0  0  0  0  0  0
    2.5419   -2.0043    1.2408 H   0  0  0  0  0  0  0  0  0  0  0  0
    4.9565   -1.4319   -0.6425 H   0  0  0  0  0  0  0  0  0  0  0  0
    4.9592    0.2336   -1.2128 H   0  0  0  0  0  0  0  0  0  0  0  0
    2.5553   -1.6855   -1.3511 H   0  0  0  0  0  0  0  0  0  0  0  0
    2.5710   -0.0588   -2.0173 H   0  0  0  0  0  0  0  0  0  0  0  0
    3.0017    0.8742    0.2683 H   0  0  0  0  0  0  0  0  0  0  0  0
  1  8  1  0  0  0  0
  2 12  1  0  0  0  0
  2 11  1  0  0  0  0
  3 15  1  0  0  0  0
  3  4  1  0  0  0  0
  3 14  1  0  0  0  0
  4  6  1  0  0  0  0
  5  3  1  0  0  0  0
  6  1  1  0  0  0  0
  6 18  1  0  0  0  0
  6  2  1  0  0  0  0
  7  5  3  0  0  0  0
  9  1  1  0  0  0  0
 10  1  1  0  0  0  0
 13  2  1  0  0  0  0
 16  4  1  0  0  0  0
 17  4  1  0  0  0  0
M  END
>  <HBA>
1

>  <HBD>
0

>  <TPSA>
23.79

>  <cid>
10956

>  <dipole>
4.22

>  <excitation_energy_1>
7.596

>  <excitation_energy_2>
7.745

>  <excitation_energy_3>
7.853

>  <excitation_energy_4>
8.001

>  <homo_energy>
-8.536

>  <homo_lumo_gap>
9.546

>  <logP>
1.946

>  <lumo_energy>
1.01

>  <melting_point>
7.34

>  <molecular_refractivity>
30.7

>  <oscillator_strength_1>
0.0013

>  <oscillator_strength_2>
0.0398

>  <oscillator_strength_3>
0.0002

>  <oscillator_strength_4>
0.0014

>  <open_babel_can_smiles>
N#CCCC(C)C

>  <mulliken_charges>
18
1   -0.445061
2   -0.451096
3   -0.346244
4   -0.256886
5   0.347157
6   -0.069546
7   -0.474677
8   0.146568
9   0.145178
10   0.146153
11   0.149966
12   0.143825
13   0.145988
14   0.194168
15   0.189531
16   0.152972
17   0.1558
18   0.126205

>  <lowdin_charges>
18
1   -0.444135
2   -0.445217
3   -0.276985
4   -0.267486
5   -0.017453
6   -0.120553
7   -0.132018
8   0.151996
9   0.149022
10   0.151645
11   0.154094
12   0.145468
13   0.148496
14   0.181115
15   0.177981
16   0.151529
17   0.15598
18   0.13652

$$$$

