PCCDB-ID:  18632
public computational chemistry database (PCCDB) project, http://pccdb.org

 13 13  0  0  1  0  0  0  0  0999 V2000
    0.9205   -0.0688   -0.0073 C   0  0  0  0  0  0  0  0  0  0  0  0
    4.5434    1.4269   -0.6181 C   0  0  0  0  0  0  0  0  0  0  0  0
    2.4218    0.0555    0.0668 C   0  0  2  0  0  0  0  0  0  0  0  0
    3.2128    0.7906   -0.9326 C   0  0  2  0  0  0  0  0  0  0  0  0
    3.1741   -0.6474   -0.9379 O   0  0  0  0  0  0  0  0  0  0  0  0
    0.4365    0.6861    0.6242 H   0  0  0  0  0  0  0  0  0  0  0  0
    0.5972   -1.0570    0.3400 H   0  0  0  0  0  0  0  0  0  0  0  0
    0.5717    0.0605   -1.0368 H   0  0  0  0  0  0  0  0  0  0  0  0
    4.4206    2.4933   -0.3930 H   0  0  0  0  0  0  0  0  0  0  0  0
    5.2250    1.3387   -1.4722 H   0  0  0  0  0  0  0  0  0  0  0  0
    5.0126    0.9398    0.2426 H   0  0  0  0  0  0  0  0  0  0  0  0
    2.8494   -0.0334    1.0692 H   0  0  0  0  0  0  0  0  0  0  0  0
    2.6639    1.2417   -1.7637 H   0  0  0  0  0  0  0  0  0  0  0  0
  1  3  1  0  0  0  0
  1  7  1  0  0  0  0
  1  6  1  0  0  0  0
  2  9  1  0  0  0  0
  2 11  1  0  0  0  0
  3 12  1  1  0  0  0
  4 13  1  6  0  0  0
  4  2  1  0  0  0  0
  4  3  1  0  0  0  0
  5  4  1  0  0  0  0
  5  3  1  0  0  0  0
  8  1  1  0  0  0  0
 10  2  1  0  0  0  0
M  END
>  <HBA>
1

>  <HBD>
0

>  <TPSA>
12.53

>  <cid>
18632

>  <dipole>
1.95

>  <excitation_energy_1>
6.855

>  <excitation_energy_2>
7.19

>  <excitation_energy_3>
7.259

>  <excitation_energy_4>
7.461

>  <homo_energy>
-7.034

>  <homo_lumo_gap>
10.041

>  <logP>
0.794

>  <lumo_energy>
3.007

>  <melting_point>
-11.61

>  <molecular_refractivity>
20.31

>  <oscillator_strength_1>
0.0148

>  <oscillator_strength_2>
0.003

>  <oscillator_strength_3>
0.0139

>  <oscillator_strength_4>
0.0019

>  <open_babel_can_smiles>
C[C@H]1O[C@@H]1C

>  <mulliken_charges>
13
1   -0.46649
2   -0.466565
3   0.096999
4   0.096858
5   -0.459457
6   0.148286
7   0.160212
8   0.157854
9   0.148301
10   0.160267
11   0.157842
12   0.132986
13   0.132907

>  <lowdin_charges>
13
1   -0.446835
2   -0.44629
3   -0.023957
4   -0.024174
5   -0.298177
6   0.15765
7   0.159762
8   0.158885
9   0.155
10   0.160584
11   0.160489
12   0.142624
13   0.144439

$$$$

