PCCDB-ID:  7272
public computational chemistry database (PCCDB) project, http://pccdb.org

 18 18  0  0  1  0  0  0  0  0999 V2000
    1.4604    0.2633    0.9744 C   0  0  0  0  0  0  0  0  0  0  0  0
    5.0278   -0.9592   -2.2051 C   0  0  0  0  0  0  0  0  0  0  0  0
    2.4948   -0.1126   -0.0727 C   0  0  2  0  0  0  0  0  0  0  0  0
    3.5396   -0.8121   -2.5307 C   0  0  1  0  0  0  0  0  0  0  0  0
    2.6476    0.9660   -1.1469 C   0  0  0  0  0  0  0  0  0  0  0  0
    2.6813   -1.8194   -1.7723 C   0  0  0  0  0  0  0  0  0  0  0  0
    2.3992    2.1287   -0.9505 O   0  0  0  0  0  0  0  0  0  0  0  0
    2.5264   -2.9492   -2.1618 O   0  0  0  0  0  0  0  0  0  0  0  0
    2.0949   -1.3864   -0.6344 O   0  0  0  0  0  0  0  0  0  0  0  0
    3.0975    0.5527   -2.3530 O   0  0  0  0  0  0  0  0  0  0  0  0
    1.7427    1.2059    1.4478 H   0  0  0  0  0  0  0  0  0  0  0  0
    1.3994   -0.5225    1.7318 H   0  0  0  0  0  0  0  0  0  0  0  0
    0.4780    0.3885    0.5111 H   0  0  0  0  0  0  0  0  0  0  0  0
    5.3564   -1.9736   -2.4498 H   0  0  0  0  0  0  0  0  0  0  0  0
    5.2368   -0.7739   -1.1462 H   0  0  0  0  0  0  0  0  0  0  0  0
    5.6033   -0.2451   -2.8008 H   0  0  0  0  0  0  0  0  0  0  0  0
    3.4758   -0.2484    0.4049 H   0  0  0  0  0  0  0  0  0  0  0  0
    3.3794   -1.0123   -3.5917 H   0  0  0  0  0  0  0  0  0  0  0  0
  1 11  1  0  0  0  0
  1 12  1  0  0  0  0
  2 15  1  0  0  0  0
  3 17  1  1  0  0  0
  3  1  1  0  0  0  0
  4 18  1  6  0  0  0
  4 10  1  0  0  0  0
  4  2  1  0  0  0  0
  4  6  1  0  0  0  0
  5  7  2  0  0  0  0
  5  3  1  0  0  0  0
  6  9  1  0  0  0  0
  8  6  2  0  0  0  0
  9  3  1  0  0  0  0
 10  5  1  0  0  0  0
 13  1  1  0  0  0  0
 14  2  1  0  0  0  0
 16  2  1  0  0  0  0
M  END
>  <HBA>
4

>  <HBD>
0

>  <TPSA>
52.6

>  <cid>
7272

>  <dipole>
2.48

>  <excitation_energy_1>
5.401

>  <excitation_energy_2>
5.445

>  <excitation_energy_3>
6.246

>  <excitation_energy_4>
6.298

>  <homo_energy>
-7.674

>  <homo_lumo_gap>
7.178

>  <logP>
-0.137

>  <lumo_energy>
-0.495

>  <melting_point>
20.9

>  <molecular_refractivity>
31.41

>  <oscillator_strength_1>
0.001

>  <oscillator_strength_2>
0.0022

>  <oscillator_strength_3>
0.0075

>  <oscillator_strength_4>
0.0084

>  <open_babel_can_smiles>
C[C@@H]1OC(=O)[C@H](OC1=O)C

>  <mulliken_charges>
18
1   -0.448937
2   -0.466166
3   0.010378
4   0.019769
5   0.609704
6   0.60181
7   -0.436454
8   -0.439179
9   -0.445741
10   -0.447523
11   0.18264
12   0.169459
13   0.1772
14   0.187151
15   0.159521
16   0.184909
17   0.180892
18   0.200567

>  <lowdin_charges>
18
1   -0.437759
2   -0.446754
3   -0.023046
4   -0.024048
5   0.177026
6   0.178778
7   -0.221312
8   -0.22422
9   -0.173419
10   -0.170883
11   0.176878
12   0.16751
13   0.169731
14   0.176711
15   0.155262
16   0.17439
17   0.162376
18   0.182778

$$$$

