PCCDB-ID:  21901
public computational chemistry database (PCCDB) project, http://pccdb.org

 39 39  0  0  1  0  0  0  0  0999 V2000
    2.2416    1.6477    0.2660 C   0  0  0  0  0  0  0  0  0  0  0  0
    4.3311   -0.3185   -6.6758 C   0  0  0  0  0  0  0  0  0  0  0  0
    3.4643    0.7258    0.2165 C   0  0  0  0  0  0  0  0  0  0  0  0
    5.4522   -1.2695   -6.2386 C   0  0  0  0  0  0  0  0  0  0  0  0
    3.5685   -0.0644   -1.0951 C   0  0  0  0  0  0  0  0  0  0  0  0
    5.1724   -2.0349   -4.9344 C   0  0  0  0  0  0  0  0  0  0  0  0
    4.8009   -0.9780   -1.1447 C   0  0  0  0  0  0  0  0  0  0  0  0
    5.0841   -1.1369   -3.6940 C   0  0  0  0  0  0  0  0  0  0  0  0
    3.0160   -4.7201   -1.3242 C   0  0  0  0  0  0  0  0  0  0  0  0
    5.4827   -4.0007   -1.6488 C   0  0  0  0  0  0  0  0  0  0  0  0
    4.0692   -4.0951   -2.2293 C   0  0  2  0  0  0  0  0  0  0  0  0
    4.8949   -1.8975   -2.3767 C   0  0  0  0  0  0  0  0  0  0  0  0
    1.7261   -4.6432   -1.9034 O   0  0  0  0  0  0  0  0  0  0  0  0
    5.9909   -2.8013   -2.2167 O   0  0  0  0  0  0  0  0  0  0  0  0
    3.7141   -2.7212   -2.4421 O   0  0  0  0  0  0  0  0  0  0  0  0
    2.1911    2.1939    1.2148 H   0  0  0  0  0  0  0  0  0  0  0  0
    1.3110    1.0766    0.1596 H   0  0  0  0  0  0  0  0  0  0  0  0
    2.2681    2.3883   -0.5429 H   0  0  0  0  0  0  0  0  0  0  0  0
    4.5657    0.1506   -7.6383 H   0  0  0  0  0  0  0  0  0  0  0  0
    4.1692    0.4875   -5.9509 H   0  0  0  0  0  0  0  0  0  0  0  0
    3.3811   -0.8559   -6.7903 H   0  0  0  0  0  0  0  0  0  0  0  0
    3.4270    0.0231    1.0611 H   0  0  0  0  0  0  0  0  0  0  0  0
    4.3781    1.3206    0.3572 H   0  0  0  0  0  0  0  0  0  0  0  0
    6.3909   -0.7060   -6.1351 H   0  0  0  0  0  0  0  0  0  0  0  0
    5.6262   -2.0009   -7.0390 H   0  0  0  0  0  0  0  0  0  0  0  0
    3.5892    0.6438   -1.9347 H   0  0  0  0  0  0  0  0  0  0  0  0
    2.6664   -0.6757   -1.2263 H   0  0  0  0  0  0  0  0  0  0  0  0
    5.9679   -2.7716   -4.7753 H   0  0  0  0  0  0  0  0  0  0  0  0
    4.2344   -2.5970   -5.0352 H   0  0  0  0  0  0  0  0  0  0  0  0
    4.8054   -1.6207   -0.2544 H   0  0  0  0  0  0  0  0  0  0  0  0
    5.7207   -0.3802   -1.1013 H   0  0  0  0  0  0  0  0  0  0  0  0
    4.2525   -0.4320   -3.7951 H   0  0  0  0  0  0  0  0  0  0  0  0
    6.0001   -0.5376   -3.6020 H   0  0  0  0  0  0  0  0  0  0  0  0
    3.0489   -4.2220   -0.3408 H   0  0  0  0  0  0  0  0  0  0  0  0
    3.2300   -5.7842   -1.1727 H   0  0  0  0  0  0  0  0  0  0  0  0
    6.1353   -4.8244   -1.9491 H   0  0  0  0  0  0  0  0  0  0  0  0
    5.4623   -3.9466   -0.5489 H   0  0  0  0  0  0  0  0  0  0  0  0
    4.0727   -4.6144   -3.1976 H   0  0  0  0  0  0  0  0  0  0  0  0
    1.5945   -3.7083   -2.1334 H   0  0  0  0  0  0  0  0  0  0  0  0
  1 16  1  0  0  0  0
  2  4  1  0  0  0  0
  2 20  1  0  0  0  0
  3  1  1  0  0  0  0
  3 23  1  0  0  0  0
  3 22  1  0  0  0  0
  4 24  1  0  0  0  0
  4  6  1  0  0  0  0
  5  3  1  0  0  0  0
  6 28  1  0  0  0  0
  6  8  1  0  0  0  0
  7 31  1  0  0  0  0
  7  5  1  0  0  0  0
  7 30  1  0  0  0  0
  8 33  1  0  0  0  0
  8 12  1  0  0  0  0
  9 35  1  0  0  0  0
  9 34  1  0  0  0  0
 10 37  1  0  0  0  0
 11 38  1  6  0  0  0
 11 10  1  0  0  0  0
 11  9  1  0  0  0  0
 12 14  1  0  0  0  0
 12  7  1  0  0  0  0
 13  9  1  0  0  0  0
 14 10  1  0  0  0  0
 15 12  1  0  0  0  0
 15 11  1  0  0  0  0
 17  1  1  0  0  0  0
 18  1  1  0  0  0  0
 19  2  1  0  0  0  0
 21  2  1  0  0  0  0
 25  4  1  0  0  0  0
 26  5  1  0  0  0  0
 27  5  1  0  0  0  0
 29  6  1  0  0  0  0
 32  8  1  0  0  0  0
 36 10  1  0  0  0  0
 39 13  1  0  0  0  0
M  END
>  <HBA>
3

>  <HBD>
1

>  <TPSA>
38.69

>  <cid>
21901

>  <dipole>
1.38

>  <excitation_energy_1>
6.405

>  <excitation_energy_2>
6.499

>  <excitation_energy_3>
6.627

>  <excitation_energy_4>
6.759

>  <homo_energy>
-6.773

>  <homo_lumo_gap>
8.77

>  <logP>
2.471

>  <lumo_energy>
1.997

>  <melting_point>
3.77

>  <molecular_refractivity>
61.05

>  <oscillator_strength_1>
0.0049

>  <oscillator_strength_2>
0.0016

>  <oscillator_strength_3>
0.0123

>  <oscillator_strength_4>
0.0044

>  <open_babel_can_smiles>
CCCCC1(CCCC)OC[C@H](O1)CO

>  <mulliken_charges>
39
1   -0.442316
2   -0.4438
3   -0.248918
4   -0.251828
5   -0.256941
6   -0.263887
7   -0.271423
8   -0.281747
9   -0.032689
10   -0.058532
11   0.11296
12   0.539249
13   -0.619321
14   -0.513618
15   -0.555428
16   0.143169
17   0.142705
18   0.141945
19   0.142128
20   0.143373
21   0.142669
22   0.130896
23   0.131523
24   0.129454
25   0.13168
26   0.132557
27   0.140425
28   0.143526
29   0.140205
30   0.128865
31   0.138805
32   0.148071
33   0.13779
34   0.120548
35   0.143434
36   0.156599
37   0.132923
38   0.141486
39   0.403464

>  <lowdin_charges>
39
1   -0.444789
2   -0.448112
3   -0.272067
4   -0.272706
5   -0.279818
6   -0.280378
7   -0.290454
8   -0.289279
9   -0.140965
10   -0.142723
11   -0.025978
12   0.217588
13   -0.461144
14   -0.258678
15   -0.285773
16   0.150035
17   0.147047
18   0.147013
19   0.149613
20   0.146026
21   0.146682
22   0.139334
23   0.139324
24   0.138102
25   0.143117
26   0.140034
27   0.144682
28   0.148892
29   0.144339
30   0.145302
31   0.149664
32   0.153566
33   0.150832
34   0.127574
35   0.147989
36   0.158723
37   0.130623
38   0.141343
39   0.345419

$$$$

