PCCDB-ID:  9096
public computational chemistry database (PCCDB) project, http://pccdb.org

 27 28  0  0  0  0  0  0  0  0999 V2000
   -2.8373    0.3639    0.2659 C   0  0  0  0  0  0  0  0  0  0  0  0
   -2.2948   -0.4795   -0.8977 C   0  0  0  0  0  0  0  0  0  0  0  0
   -1.7539    1.2969    0.8263 C   0  0  0  0  0  0  0  0  0  0  0  0
    2.8084    0.2845   -0.4118 C   0  0  0  0  0  0  0  0  0  0  0  0
   -1.0315   -1.2503   -0.4898 C   0  0  0  0  0  0  0  0  0  0  0  0
   -0.4950    0.5162    1.2367 C   0  0  0  0  0  0  0  0  0  0  0  0
    2.3455   -0.5452    0.7851 C   0  0  0  0  0  0  0  0  0  0  0  0
    1.6745    1.2268   -0.8141 C   0  0  0  0  0  0  0  0  0  0  0  0
    0.0566   -0.3303    0.0692 C   0  0  0  0  0  0  0  0  0  0  0  0
    1.1085   -1.1919    0.4941 O   0  0  0  0  0  0  0  0  0  0  0  0
    0.4694    0.4935   -1.0236 O   0  0  0  0  0  0  0  0  0  0  0  0
   -3.1894   -0.3037    1.0666 H   0  0  0  0  0  0  0  0  0  0  0  0
   -3.7075    0.9476   -0.0605 H   0  0  0  0  0  0  0  0  0  0  0  0
   -2.0551    0.1758   -1.7443 H   0  0  0  0  0  0  0  0  0  0  0  0
   -3.0591   -1.1850   -1.2472 H   0  0  0  0  0  0  0  0  0  0  0  0
   -2.1385    1.8558    1.6888 H   0  0  0  0  0  0  0  0  0  0  0  0
   -1.4814    2.0365    0.0621 H   0  0  0  0  0  0  0  0  0  0  0  0
    3.0369   -0.3843   -1.2495 H   0  0  0  0  0  0  0  0  0  0  0  0
    3.7152    0.8510   -0.1647 H   0  0  0  0  0  0  0  0  0  0  0  0
   -0.6037   -1.7939   -1.3386 H   0  0  0  0  0  0  0  0  0  0  0  0
   -1.2685   -1.9876    0.2878 H   0  0  0  0  0  0  0  0  0  0  0  0
   -0.7290   -0.1760    2.0559 H   0  0  0  0  0  0  0  0  0  0  0  0
    0.2662    1.2050    1.6191 H   0  0  0  0  0  0  0  0  0  0  0  0
    2.2572    0.0914    1.6801 H   0  0  0  0  0  0  0  0  0  0  0  0
    3.0489   -1.3495    1.0204 H   0  0  0  0  0  0  0  0  0  0  0  0
    1.8802    1.7302   -1.7635 H   0  0  0  0  0  0  0  0  0  0  0  0
    1.5357    2.0061   -0.0476 H   0  0  0  0  0  0  0  0  0  0  0  0
  1  3  1  0  0  0  0
  1 12  1  0  0  0  0
  2  5  1  0  0  0  0
  2  1  1  0  0  0  0
  3  6  1  0  0  0  0
  3 16  1  0  0  0  0
  4 19  1  0  0  0  0
  4  7  1  0  0  0  0
  5  9  1  0  0  0  0
  5 21  1  0  0  0  0
  6 23  1  0  0  0  0
  6 22  1  0  0  0  0
  7 25  1  0  0  0  0
  7 24  1  0  0  0  0
  8  4  1  0  0  0  0
  8 27  1  0  0  0  0
  9 10  1  0  0  0  0
  9  6  1  0  0  0  0
 10  7  1  0  0  0  0
 11  8  1  0  0  0  0
 11  9  1  0  0  0  0
 13  1  1  0  0  0  0
 14  2  1  0  0  0  0
 15  2  1  0  0  0  0
 17  3  1  0  0  0  0
 18  4  1  0  0  0  0
 20  5  1  0  0  0  0
 26  8  1  0  0  0  0
M  END
>  <HBA>
2

>  <HBD>
0

>  <TPSA>
18.46

>  <cid>
9096

>  <dipole>
1.66

>  <excitation_energy_1>
6.322

>  <excitation_energy_2>
6.503

>  <excitation_energy_3>
6.72

>  <excitation_energy_4>
6.788

>  <homo_energy>
-6.732

>  <homo_lumo_gap>
8.936

>  <logP>
2.084

>  <lumo_energy>
2.204

>  <melting_point>
9.73

>  <molecular_refractivity>
43.36

>  <oscillator_strength_1>
0.0088

>  <oscillator_strength_2>
0.0023

>  <oscillator_strength_3>
0.0081

>  <oscillator_strength_4>
0.0133

>  <open_babel_can_smiles>
C1CCC2(CC1)OCCCO2

>  <mulliken_charges>
27
1   -0.259852
2   -0.265451
3   -0.259181
4   -0.285752
5   -0.285061
6   -0.296579
7   -0.03809
8   -0.036859
9   0.542071
10   -0.511524
11   -0.502567
12   0.125932
13   0.129824
14   0.150019
15   0.129492
16   0.128335
17   0.142985
18   0.154675
19   0.133454
20   0.147576
21   0.139024
22   0.141347
23   0.130354
24   0.123702
25   0.149252
26   0.149303
27   0.123569

>  <lowdin_charges>
27
1   -0.279407
2   -0.280692
3   -0.279638
4   -0.307635
5   -0.283255
6   -0.304857
7   -0.13475
8   -0.133662
9   0.203657
10   -0.265692
11   -0.270501
12   0.137084
13   0.144311
14   0.149602
15   0.145114
16   0.143982
17   0.146273
18   0.154343
19   0.151172
20   0.157602
21   0.150436
22   0.151233
23   0.145386
24   0.127491
25   0.152909
26   0.15201
27   0.127485

$$$$

