PCCDB-ID:  62010
public computational chemistry database (PCCDB) project, http://pccdb.org

 18 18  0  0  0  0  0  0  0  0999 V2000
    0.9714   -0.0315   -0.1203 C   0  0  0  0  0  0  0  0  0  0  0  0
    2.8484    0.2954    1.5284 C   0  0  0  0  0  0  0  0  0  0  0  0
    3.1114    1.1543   -0.8894 C   0  0  0  0  0  0  0  0  0  0  0  0
    3.5407   -0.8843   -1.7762 C   0  0  0  0  0  0  0  0  0  0  0  0
    2.4934    0.0580    0.0577 C   0  0  0  0  0  0  0  0  0  0  0  0
    3.1215   -1.2028   -0.4256 N   0  0  0  0  0  0  0  0  0  0  0  0
    4.0021    0.4687   -1.7645 O   0  0  0  0  0  0  0  0  0  0  0  0
    0.4936    0.9255    0.1234 H   0  0  0  0  0  0  0  0  0  0  0  0
    0.5540   -0.8056    0.5316 H   0  0  0  0  0  0  0  0  0  0  0  0
    0.7083   -0.2833   -1.1536 H   0  0  0  0  0  0  0  0  0  0  0  0
    2.3701    1.2066    1.9043 H   0  0  0  0  0  0  0  0  0  0  0  0
    3.9322    0.4071    1.6590 H   0  0  0  0  0  0  0  0  0  0  0  0
    2.5101   -0.5426    2.1485 H   0  0  0  0  0  0  0  0  0  0  0  0
    3.6877    1.9114   -0.3469 H   0  0  0  0  0  0  0  0  0  0  0  0
    2.3224    1.6651   -1.4629 H   0  0  0  0  0  0  0  0  0  0  0  0
    2.6855   -0.9849   -2.4625 H   0  0  0  0  0  0  0  0  0  0  0  0
    4.3549   -1.5279   -2.1178 H   0  0  0  0  0  0  0  0  0  0  0  0
    3.9667   -1.3606    0.1239 H   0  0  0  0  0  0  0  0  0  0  0  0
  1  5  1  0  0  0  0
  1  8  1  0  0  0  0
  1  9  1  0  0  0  0
  2 12  1  0  0  0  0
  2 11  1  0  0  0  0
  2 13  1  0  0  0  0
  3 14  1  0  0  0  0
  3  5  1  0  0  0  0
  4  7  1  0  0  0  0
  4  6  1  0  0  0  0
  5  2  1  0  0  0  0
  6  5  1  0  0  0  0
  6 18  1  0  0  0  0
  7  3  1  0  0  0  0
 10  1  1  0  0  0  0
 15  3  1  0  0  0  0
 16  4  1  0  0  0  0
 17  4  1  0  0  0  0
M  END
>  <HBA>
2

>  <HBD>
1

>  <TPSA>
21.26

>  <cid>
62010

>  <dipole>
1.22

>  <excitation_energy_1>
6.126

>  <excitation_energy_2>
6.464

>  <excitation_energy_3>
6.651

>  <excitation_energy_4>
6.776

>  <homo_energy>
-6.593

>  <homo_lumo_gap>
8.634

>  <logP>
0.671

>  <lumo_energy>
2.041

>  <melting_point>
25.93

>  <molecular_refractivity>
31.87

>  <oscillator_strength_1>
0.0311

>  <oscillator_strength_2>
0.003

>  <oscillator_strength_3>
0.0015

>  <oscillator_strength_4>
0.0064

>  <open_babel_can_smiles>
CC1(C)NCOC1

>  <mulliken_charges>
18
1   -0.434306
2   -0.478331
3   -0.042134
4   0.05857
5   0.175855
6   -0.541296
7   -0.478931
8   0.136449
9   0.152137
10   0.147327
11   0.151708
12   0.144584
13   0.15759
14   0.139647
15   0.128398
16   0.135466
17   0.149605
18   0.297662

>  <lowdin_charges>
18
1   -0.445348
2   -0.448117
3   -0.155284
4   -0.088854
5   0.048962
6   -0.352867
7   -0.289625
8   0.146298
9   0.156445
10   0.151174
11   0.156283
12   0.147407
13   0.156982
14   0.146931
15   0.134207
16   0.128894
17   0.151709
18   0.254801

$$$$

