PCCDB-ID:  9192
public computational chemistry database (PCCDB) project, http://pccdb.org

 21 23  0  0  0  0  0  0  0  0999 V2000
   -3.3055    0.1373    0.0001 C   0  0  0  0  0  0  0  0  0  0  0  0
   -2.7278    1.4268   -0.0000 C   0  0  0  0  0  0  0  0  0  0  0  0
   -2.4995   -0.9813    0.0005 C   0  0  0  0  0  0  0  0  0  0  0  0
   -1.3560    1.5757    0.0005 C   0  0  0  0  0  0  0  0  0  0  0  0
   -0.2481   -2.0287    0.0018 C   0  0  0  0  0  0  0  0  0  0  0  0
    1.1246   -1.9391    0.0015 C   0  0  0  0  0  0  0  0  0  0  0  0
    1.8825    1.6010    0.0003 C   0  0  0  0  0  0  0  0  0  0  0  0
    3.1052    1.0095    0.0005 C   0  0  0  0  0  0  0  0  0  0  0  0
   -1.0851   -0.8676    0.0009 C   0  0  0  0  0  0  0  0  0  0  0  0
   -0.5043    0.4452    0.0007 C   0  0  0  0  0  0  0  0  0  0  0  0
    0.9219    0.5277    0.0002 C   0  0  0  0  0  0  0  0  0  0  0  0
    1.6741   -0.6450    0.0004 C   0  0  0  0  0  0  0  0  0  0  0  0
    3.0110   -0.3586    0.0007 O   0  0  0  0  0  0  0  0  0  0  0  0
   -4.3867    0.0302    0.0011 H   0  0  0  0  0  0  0  0  0  0  0  0
   -3.3684    2.3046   -0.0006 H   0  0  0  0  0  0  0  0  0  0  0  0
   -2.9418   -1.9750    0.0024 H   0  0  0  0  0  0  0  0  0  0  0  0
   -0.9156    2.5693   -0.0007 H   0  0  0  0  0  0  0  0  0  0  0  0
   -0.7253   -3.0051    0.0022 H   0  0  0  0  0  0  0  0  0  0  0  0
    1.7629   -2.8164    0.0018 H   0  0  0  0  0  0  0  0  0  0  0  0
    1.6912    2.6649   -0.0009 H   0  0  0  0  0  0  0  0  0  0  0  0
    4.1114    1.4008   -0.0001 H   0  0  0  0  0  0  0  0  0  0  0  0
  1  3  1  0  0  0  0
  1 14  1  0  0  0  0
  2  1  2  0  0  0  0
  2  4  1  0  0  0  0
  3  9  2  0  0  0  0
  3 16  1  0  0  0  0
  4 10  2  0  0  0  0
  5 18  1  0  0  0  0
  6  5  2  0  0  0  0
  6 19  1  0  0  0  0
  7  8  2  0  0  0  0
  8 13  1  0  0  0  0
  9  5  1  0  0  0  0
 10  9  1  0  0  0  0
 11  7  1  0  0  0  0
 11 12  2  0  0  0  0
 11 10  1  0  0  0  0
 12 13  1  0  0  0  0
 12  6  1  0  0  0  0
 15  2  1  0  0  0  0
 17  4  1  0  0  0  0
 20  7  1  0  0  0  0
 21  8  1  0  0  0  0
M  END
>  <HBA>
1

>  <HBD>
0

>  <TPSA>
13.14

>  <cid>
9192

>  <dipole>
0.62

>  <excitation_energy_1>
4.111

>  <excitation_energy_2>
4.331

>  <excitation_energy_3>
5.023

>  <excitation_energy_4>
5.261

>  <homo_energy>
-5.532

>  <homo_lumo_gap>
4.572

>  <logP>
3.586

>  <lumo_energy>
-0.961

>  <melting_point>
92.22

>  <molecular_refractivity>
53.72

>  <oscillator_strength_1>
0.1452

>  <oscillator_strength_2>
0.0036

>  <oscillator_strength_3>
0.0791

>  <oscillator_strength_4>
0.3908

>  <open_babel_can_smiles>
c1ccc2c(c1)ccc1c2cco1

>  <mulliken_charges>
21
1   -0.128126
2   -0.144546
3   -0.208259
4   -0.175539
5   -0.210313
6   -0.176318
7   -0.21157
8   0.074472
9   0.153215
10   0.058932
11   0.034558
12   0.306485
13   -0.472642
14   0.12834
15   0.129208
16   0.129275
17   0.127732
18   0.13217
19   0.145909
20   0.146986
21   0.16003

>  <lowdin_charges>
21
1   -0.160799
2   -0.156651
3   -0.1535
4   -0.159368
5   -0.158161
6   -0.172238
7   -0.206614
8   -0.059494
9   -0.005497
10   -7.9e-05
11   -0.036861
12   0.076623
13   -0.10961
14   0.156226
15   0.158898
16   0.15663
17   0.156578
18   0.16
19   0.171439
20   0.170066
21   0.172411

$$$$

