PCCDB-ID:  68147
public computational chemistry database (PCCDB) project, http://pccdb.org

 22 23  0  0  1  0  0  0  0  0999 V2000
   -1.4365    0.6544   -0.1859 C   0  0  0  0  0  0  0  0  0  0  0  0
   -0.2243    1.5774   -0.5164 C   0  0  0  0  0  0  0  0  0  0  0  0
   -0.2277   -1.5023    0.5234 C   0  0  0  0  0  0  0  0  0  0  0  0
    1.7454    0.0038   -0.0117 C   0  0  0  0  0  0  0  0  0  0  0  0
   -0.9362   -0.2107    0.9966 C   0  0  1  0  0  0  0  0  0  0  0  0
    0.8566    1.1574    0.5100 C   0  0  2  0  0  0  0  0  0  0  0  0
    0.8997   -1.1938   -0.4786 C   0  0  1  0  0  0  0  0  0  0  0  0
    0.0121    0.7194    1.6387 N   0  0  0  0  0  0  0  0  0  0  0  0
    1.6964   -2.3412   -0.7692 O   0  0  0  0  0  0  0  0  0  0  0  0
   -1.7512    0.0427   -1.0376 H   0  0  0  0  0  0  0  0  0  0  0  0
   -2.2983    1.2505    0.1274 H   0  0  0  0  0  0  0  0  0  0  0  0
   -0.4904    2.6280   -0.3700 H   0  0  0  0  0  0  0  0  0  0  0  0
    0.1257    1.4676   -1.5481 H   0  0  0  0  0  0  0  0  0  0  0  0
   -0.9360   -2.2103    0.0741 H   0  0  0  0  0  0  0  0  0  0  0  0
    0.2039   -2.0057    1.4038 H   0  0  0  0  0  0  0  0  0  0  0  0
    2.4085   -0.3233    0.8056 H   0  0  0  0  0  0  0  0  0  0  0  0
    2.3976    0.3359   -0.8296 H   0  0  0  0  0  0  0  0  0  0  0  0
   -1.7444   -0.4622    1.6926 H   0  0  0  0  0  0  0  0  0  0  0  0
    1.4839    2.0019    0.8165 H   0  0  0  0  0  0  0  0  0  0  0  0
    0.4478   -0.9452   -1.4453 H   0  0  0  0  0  0  0  0  0  0  0  0
    0.5666    0.2454    2.3525 H   0  0  0  0  0  0  0  0  0  0  0  0
    2.1244   -2.6107    0.0596 H   0  0  0  0  0  0  0  0  0  0  0  0
  1 11  1  0  0  0  0
  1  5  1  0  0  0  0
  2 12  1  0  0  0  0
  2  1  1  0  0  0  0
  2  6  1  0  0  0  0
  3  5  1  0  0  0  0
  3 15  1  0  0  0  0
  4  6  1  0  0  0  0
  4 16  1  0  0  0  0
  5  8  1  0  0  0  0
  5 18  1  1  0  0  0
  6 19  1  1  0  0  0
  6  8  1  0  0  0  0
  7 20  1  6  0  0  0
  7  4  1  0  0  0  0
  7  3  1  0  0  0  0
  8 21  1  0  0  0  0
  9  7  1  0  0  0  0
  9 22  1  0  0  0  0
 10  1  1  0  0  0  0
 13  2  1  0  0  0  0
 14  3  1  0  0  0  0
 17  4  1  0  0  0  0
M  END
>  <HBA>
2

>  <HBD>
2

>  <TPSA>
32.26

>  <cid>
68147

>  <dipole>
1.03

>  <excitation_energy_1>
5.32

>  <excitation_energy_2>
5.823

>  <excitation_energy_3>
5.994

>  <excitation_energy_4>
6.061

>  <homo_energy>
-5.957

>  <homo_lumo_gap>
7.886

>  <logP>
0.591

>  <lumo_energy>
1.929

>  <melting_point>
63.73

>  <molecular_refractivity>
39.41

>  <oscillator_strength_1>
0.0163

>  <oscillator_strength_2>
0.0024

>  <oscillator_strength_3>
0.0159

>  <oscillator_strength_4>
0.0115

>  <open_babel_can_smiles>
O[C@@H]1C[C@H]2CC[C@@H](C1)N2

>  <mulliken_charges>
22
1   -0.27305
2   -0.273892
3   -0.285138
4   -0.28468
5   0.00694
6   0.00725
7   0.136872
8   -0.534628
9   -0.627872
10   0.137861
11   0.148045
12   0.147988
13   0.138052
14   0.142066
15   0.109039
16   0.109047
17   0.142
18   0.126012
19   0.126036
20   0.140564
21   0.282457
22   0.379032

>  <lowdin_charges>
22
1   -0.287925
2   -0.284593
3   -0.312907
4   -0.312093
5   -0.073493
6   -0.073949
7   -0.00934
8   -0.362236
9   -0.4599
10   0.145827
11   0.154229
12   0.152133
13   0.144002
14   0.151343
15   0.13262
16   0.132788
17   0.15101
18   0.143095
19   0.143237
20   0.144803
21   0.246181
22   0.335169

$$$$

