PCCDB-ID:  26884
public computational chemistry database (PCCDB) project, http://pccdb.org

 28 28  0  0  0  0  0  0  0  0999 V2000
    3.1069   -1.7484   -0.9741 C   0  0  0  0  0  0  0  0  0  0  0  0
    2.3714    1.5406    1.7346 C   0  0  0  0  0  0  0  0  0  0  0  0
    4.5039    1.8163   -2.7724 C   0  0  0  0  0  0  0  0  0  0  0  0
    4.5229    4.2798   -2.9522 C   0  0  0  0  0  0  0  0  0  0  0  0
    4.0896    0.6196   -2.1870 C   0  0  0  0  0  0  0  0  0  0  0  0
    4.1366    5.5477   -2.7032 C   0  0  0  0  0  0  0  0  0  0  0  0
    3.1992    3.0592   -1.1797 C   0  0  0  0  0  0  0  0  0  0  0  0
    4.0639    3.0580   -2.2936 C   0  0  0  0  0  0  0  0  0  0  0  0
    3.2189    0.6345   -1.0942 C   0  0  0  0  0  0  0  0  0  0  0  0
    2.7785    1.8818   -0.5828 C   0  0  0  0  0  0  0  0  0  0  0  0
    4.6344    6.7311   -3.4345 C   0  0  0  0  0  0  0  0  0  0  0  0
    4.0394    7.8545   -3.5403 N   0  0  0  0  0  0  0  0  0  0  0  0
    5.8307    6.5998   -4.0834 O   0  0  0  0  0  0  0  0  0  0  0  0
    2.7395   -0.4731   -0.4656 O   0  0  0  0  0  0  0  0  0  0  0  0
    1.8828    1.9514    0.4542 O   0  0  0  0  0  0  0  0  0  0  0  0
    2.5976   -2.4777   -0.3422 H   0  0  0  0  0  0  0  0  0  0  0  0
    4.1911   -1.9087   -0.9145 H   0  0  0  0  0  0  0  0  0  0  0  0
    2.7776   -1.8732   -2.0133 H   0  0  0  0  0  0  0  0  0  0  0  0
    3.2405    2.1429    2.0309 H   0  0  0  0  0  0  0  0  0  0  0  0
    2.6396    0.4799    1.7408 H   0  0  0  0  0  0  0  0  0  0  0  0
    1.5540    1.7161    2.4373 H   0  0  0  0  0  0  0  0  0  0  0  0
    5.1765    1.7801   -3.6257 H   0  0  0  0  0  0  0  0  0  0  0  0
    5.2407    4.1111   -3.7560 H   0  0  0  0  0  0  0  0  0  0  0  0
    4.4430   -0.3203   -2.5949 H   0  0  0  0  0  0  0  0  0  0  0  0
    3.3742    5.7565   -1.9565 H   0  0  0  0  0  0  0  0  0  0  0  0
    2.8303    3.9865   -0.7535 H   0  0  0  0  0  0  0  0  0  0  0  0
    3.1355    7.8091   -3.0655 H   0  0  0  0  0  0  0  0  0  0  0  0
    6.3179    5.8634   -3.6831 H   0  0  0  0  0  0  0  0  0  0  0  0
  1 17  1  0  0  0  0
  1 14  1  0  0  0  0
  1 16  1  0  0  0  0
  2 20  1  0  0  0  0
  2 19  1  0  0  0  0
  2 21  1  0  0  0  0
  3  8  2  0  0  0  0
  3  5  1  0  0  0  0
  4  6  2  0  0  0  0
  4  8  1  0  0  0  0
  5  9  2  0  0  0  0
  6 25  1  0  0  0  0
  7 26  1  0  0  0  0
  7 10  2  0  0  0  0
  8  7  1  0  0  0  0
  9 10  1  0  0  0  0
  9 14  1  0  0  0  0
 10 15  1  0  0  0  0
 11  6  1  0  0  0  0
 12 11  2  0  0  0  0
 12 27  1  0  0  0  0
 13 28  1  0  0  0  0
 13 11  1  0  0  0  0
 15  2  1  0  0  0  0
 18  1  1  0  0  0  0
 22  3  1  0  0  0  0
 23  4  1  0  0  0  0
 24  5  1  0  0  0  0
M  END
>  <HBA>
4

>  <HBD>
1

>  <TPSA>
61.55

>  <cid>
26884

>  <dipole>
7.46

>  <excitation_energy_1>
4.053

>  <excitation_energy_2>
4.453

>  <excitation_energy_3>
4.568

>  <excitation_energy_4>
4.969

>  <homo_energy>
-5.848

>  <homo_lumo_gap>
4.305

>  <logP>
1.903

>  <lumo_energy>
-1.543

>  <melting_point>
114.03

>  <molecular_refractivity>
57.23

>  <oscillator_strength_1>
0.6373

>  <oscillator_strength_2>
0.1417

>  <oscillator_strength_3>
0.0047

>  <oscillator_strength_4>
0.0282

>  <open_babel_can_smiles>
COc1cc(/C=C/C(=N)O)ccc1OC

>  <mulliken_charges>
28
1   -0.219855
2   -0.213564
3   -0.203898
4   -0.198531
5   -0.205836
6   -0.187452
7   -0.238376
8   0.17868
9   0.352994
10   0.32365
11   0.471906
12   -0.590508
13   -0.58495
14   -0.502063
15   -0.519448
16   0.176612
17   0.156257
18   0.160485
19   0.141361
20   0.163407
21   0.163278
22   0.133431
23   0.13142
24   0.140587
25   0.143913
26   0.140794
27   0.283838
28   0.401869

>  <lowdin_charges>
28
1   -0.273863
2   -0.2744
3   -0.15336
4   -0.14408
5   -0.20909
6   -0.211201
7   -0.166467
8   -0.020285
9   0.08501
10   0.076036
11   0.124149
12   -0.387621
13   -0.372817
14   -0.18634
15   -0.221308
16   0.167976
17   0.145579
18   0.149215
19   0.140531
20   0.148552
21   0.159541
22   0.15985
23   0.155658
24   0.166525
25   0.164037
26   0.169163
27   0.255128
28   0.353884

$$$$

