PCCDB-ID:  12210
public computational chemistry database (PCCDB) project, http://pccdb.org

 25 24  0  0  0  0  0  0  0  0999 V2000
    5.3681   -0.3732    0.7363 C   0  0  0  0  0  0  0  0  0  0  0  0
   -0.4069   -3.2330    3.4232 C   0  0  0  0  0  0  0  0  0  0  0  0
   -1.8671   -2.6680    1.4435 C   0  0  0  0  0  0  0  0  0  0  0  0
    4.4632   -1.4204    1.3825 C   0  0  0  0  0  0  0  0  0  0  0  0
    0.5407   -1.9115    1.4439 C   0  0  0  0  0  0  0  0  0  0  0  0
    2.0172   -2.2318    1.6902 C   0  0  0  0  0  0  0  0  0  0  0  0
   -0.4410   -3.0065    1.9036 C   0  0  0  0  0  0  0  0  0  0  0  0
    2.9766   -1.1887    1.1227 C   0  0  0  0  0  0  0  0  0  0  0  0
    2.5816   -0.2231    0.4956 O   0  0  0  0  0  0  0  0  0  0  0  0
    6.4197   -0.5787    0.9622 H   0  0  0  0  0  0  0  0  0  0  0  0
    5.1248    0.6300    1.0983 H   0  0  0  0  0  0  0  0  0  0  0  0
    5.2432   -0.3649   -0.3507 H   0  0  0  0  0  0  0  0  0  0  0  0
   -1.1301   -4.0015    3.7209 H   0  0  0  0  0  0  0  0  0  0  0  0
   -0.6637   -2.3104    3.9604 H   0  0  0  0  0  0  0  0  0  0  0  0
    0.5791   -3.5593    3.7730 H   0  0  0  0  0  0  0  0  0  0  0  0
   -2.5753   -3.4536    1.7326 H   0  0  0  0  0  0  0  0  0  0  0  0
   -1.9188   -2.5517    0.3546 H   0  0  0  0  0  0  0  0  0  0  0  0
   -2.2110   -1.7282    1.8948 H   0  0  0  0  0  0  0  0  0  0  0  0
    4.6121   -1.4494    2.4724 H   0  0  0  0  0  0  0  0  0  0  0  0
    4.7173   -2.4324    1.0343 H   0  0  0  0  0  0  0  0  0  0  0  0
    0.4029   -1.7276    0.3717 H   0  0  0  0  0  0  0  0  0  0  0  0
    0.2910   -0.9634    1.9393 H   0  0  0  0  0  0  0  0  0  0  0  0
    2.2821   -3.2047    1.2464 H   0  0  0  0  0  0  0  0  0  0  0  0
    2.2347   -2.3406    2.7621 H   0  0  0  0  0  0  0  0  0  0  0  0
   -0.1463   -3.9490    1.4152 H   0  0  0  0  0  0  0  0  0  0  0  0
  1 10  1  0  0  0  0
  1 11  1  0  0  0  0
  1  4  1  0  0  0  0
  2 13  1  0  0  0  0
  2 15  1  0  0  0  0
  2 14  1  0  0  0  0
  3 16  1  0  0  0  0
  3 18  1  0  0  0  0
  3  7  1  0  0  0  0
  4 19  1  0  0  0  0
  5  6  1  0  0  0  0
  5  7  1  0  0  0  0
  5 22  1  0  0  0  0
  6 24  1  0  0  0  0
  7  2  1  0  0  0  0
  8  4  1  0  0  0  0
  8  6  1  0  0  0  0
  9  8  2  0  0  0  0
 12  1  1  0  0  0  0
 17  3  1  0  0  0  0
 20  4  1  0  0  0  0
 21  5  1  0  0  0  0
 23  6  1  0  0  0  0
 25  7  1  0  0  0  0
M  END
>  <HBA>
1

>  <HBD>
0

>  <TPSA>
17.07

>  <cid>
12210

>  <dipole>
2.52

>  <excitation_energy_1>
4.448

>  <excitation_energy_2>
6.044

>  <excitation_energy_3>
6.626

>  <excitation_energy_4>
6.72

>  <homo_energy>
-6.574

>  <homo_lumo_gap>
6.357

>  <logP>
2.402

>  <lumo_energy>
-0.218

>  <melting_point>
-6.5

>  <molecular_refractivity>
40.77

>  <oscillator_strength_1>
0.0

>  <oscillator_strength_2>
0.0107

>  <oscillator_strength_3>
0.0016

>  <oscillator_strength_4>
0.0008

>  <open_babel_can_smiles>
CCC(=O)CCC(C)C

>  <mulliken_charges>
25
1   -0.432454
2   -0.446073
3   -0.442144
4   -0.34844
5   -0.238953
6   -0.364766
7   -0.069451
8   0.455099
9   -0.445421
10   0.138974
11   0.161845
12   0.159319
13   0.141923
14   0.140268
15   0.139202
16   0.138624
17   0.142313
18   0.141028
19   0.15783
20   0.155614
21   0.147828
22   0.139704
23   0.154128
24   0.156834
25   0.117169

>  <lowdin_charges>
25
1   -0.436353
2   -0.448761
3   -0.442886
4   -0.306209
5   -0.269825
6   -0.310625
7   -0.120412
8   0.162169
9   -0.236177
10   0.148421
11   0.158714
12   0.156105
13   0.150218
14   0.146503
15   0.144914
16   0.148097
17   0.146915
18   0.146984
19   0.158234
20   0.158022
21   0.150603
22   0.146929
23   0.158373
24   0.157328
25   0.132718

$$$$

