PCCDB-ID:  7355
public computational chemistry database (PCCDB) project, http://pccdb.org

 28 27  0  0  0  0  0  0  0  0999 V2000
    3.8240   -0.4581    1.8827 C   0  0  0  0  0  0  0  0  0  0  0  0
    3.6580   -1.6084   -0.3460 C   0  0  0  0  0  0  0  0  0  0  0  0
    8.1405   -0.4368   -5.8424 C   0  0  0  0  0  0  0  0  0  0  0  0
    8.4617   -1.3419   -3.5197 C   0  0  0  0  0  0  0  0  0  0  0  0
    5.0064    1.9082   -2.1099 C   0  0  0  0  0  0  0  0  0  0  0  0
    6.5209    2.0408   -2.0770 C   0  0  0  0  0  0  0  0  0  0  0  0
    3.9655   -0.4378    0.5516 C   0  0  0  0  0  0  0  0  0  0  0  0
    7.9775   -0.3229   -4.5186 C   0  0  0  0  0  0  0  0  0  0  0  0
    4.4606    0.8370   -0.0588 C   0  0  0  0  0  0  0  0  0  0  0  0
    7.2652    0.8984   -4.0249 C   0  0  0  0  0  0  0  0  0  0  0  0
    4.7509    1.8469    0.5531 O   0  0  0  0  0  0  0  0  0  0  0  0
    6.8154    1.7851   -4.7251 O   0  0  0  0  0  0  0  0  0  0  0  0
    4.5477    0.7362   -1.4093 O   0  0  0  0  0  0  0  0  0  0  0  0
    7.1788    0.9054   -2.6707 O   0  0  0  0  0  0  0  0  0  0  0  0
    3.4693   -1.3443    2.4012 H   0  0  0  0  0  0  0  0  0  0  0  0
    4.0617    0.4179    2.4771 H   0  0  0  0  0  0  0  0  0  0  0  0
    3.3202   -2.4667    0.2422 H   0  0  0  0  0  0  0  0  0  0  0  0
    4.5396   -1.9073   -0.9242 H   0  0  0  0  0  0  0  0  0  0  0  0
    2.8783   -1.3569   -1.0738 H   0  0  0  0  0  0  0  0  0  0  0  0
    8.6475   -1.2924   -6.2793 H   0  0  0  0  0  0  0  0  0  0  0  0
    7.7674    0.3301   -6.5132 H   0  0  0  0  0  0  0  0  0  0  0  0
    8.9626   -2.1714   -4.0275 H   0  0  0  0  0  0  0  0  0  0  0  0
    7.6302   -1.7455   -2.9307 H   0  0  0  0  0  0  0  0  0  0  0  0
    9.1626   -0.8966   -2.8048 H   0  0  0  0  0  0  0  0  0  0  0  0
    4.6532    1.7857   -3.1342 H   0  0  0  0  0  0  0  0  0  0  0  0
    4.5595    2.8011   -1.6634 H   0  0  0  0  0  0  0  0  0  0  0  0
    6.8815    2.0756   -1.0487 H   0  0  0  0  0  0  0  0  0  0  0  0
    6.8113    2.9522   -2.6074 H   0  0  0  0  0  0  0  0  0  0  0  0
  1 15  1  0  0  0  0
  1 16  1  0  0  0  0
  2 17  1  0  0  0  0
  2  7  1  0  0  0  0
  3  8  2  0  0  0  0
  4 23  1  0  0  0  0
  4 24  1  0  0  0  0
  5  6  1  0  0  0  0
  5 26  1  0  0  0  0
  5 13  1  0  0  0  0
  6 27  1  0  0  0  0
  7  1  2  0  0  0  0
  8 10  1  0  0  0  0
  8  4  1  0  0  0  0
  9  7  1  0  0  0  0
  9 11  2  0  0  0  0
 10 14  1  0  0  0  0
 12 10  2  0  0  0  0
 13  9  1  0  0  0  0
 14  6  1  0  0  0  0
 18  2  1  0  0  0  0
 19  2  1  0  0  0  0
 20  3  1  0  0  0  0
 21  3  1  0  0  0  0
 22  4  1  0  0  0  0
 25  5  1  0  0  0  0
 28  6  1  0  0  0  0
M  END
>  <HBA>
4

>  <HBD>
0

>  <TPSA>
52.6

>  <cid>
7355

>  <dipole>
2.43

>  <excitation_energy_1>
4.821

>  <excitation_energy_2>
4.823

>  <excitation_energy_3>
5.587

>  <excitation_energy_4>
5.588

>  <homo_energy>
-7.317

>  <homo_lumo_gap>
6.166

>  <logP>
1.225

>  <lumo_energy>
-1.151

>  <melting_point>
-38.69

>  <molecular_refractivity>
51.81

>  <oscillator_strength_1>
0.0006

>  <oscillator_strength_2>
0.0

>  <oscillator_strength_3>
0.0026

>  <oscillator_strength_4>
0.0015

>  <open_babel_can_smiles>
O=C(C(=C)C)OCCOC(=O)C(=C)C

>  <mulliken_charges>
28
1   -0.357062
2   -0.504361
3   -0.357019
4   -0.504218
5   -0.070652
6   -0.071175
7   0.127817
8   0.127636
9   0.590668
10   0.590754
11   -0.495776
12   -0.495775
13   -0.467716
14   -0.467718
15   0.148845
16   0.17878
17   0.150714
18   0.169288
19   0.17009
20   0.148857
21   0.178766
22   0.150679
23   0.169101
24   0.170213
25   0.185213
26   0.174193
27   0.185533
28   0.174327

>  <lowdin_charges>
28
1   -0.290464
2   -0.440204
3   -0.290836
4   -0.441247
5   -0.143066
6   -0.142858
7   -0.032827
8   -0.033174
9   0.199203
10   0.199591
11   -0.276395
12   -0.27648
13   -0.188914
14   -0.188808
15   0.16458
16   0.180793
17   0.157974
18   0.166189
19   0.167026
20   0.164632
21   0.181186
22   0.158212
23   0.166441
24   0.167503
25   0.16904
26   0.166998
27   0.169094
28   0.166811

$$$$

