PCCDB-ID:  14615
public computational chemistry database (PCCDB) project, http://pccdb.org

 35 36  0  0  0  0  0  0  0  0999 V2000
    4.0208    3.7506   -0.1462 C   0  0  0  0  0  0  0  0  0  0  0  0
    1.0680    3.9243    2.2059 C   0  0  0  0  0  0  0  0  0  0  0  0
    3.9751    4.0574    1.3607 C   0  0  0  0  0  0  0  0  0  0  0  0
    1.9906    2.7221    1.9995 C   0  0  0  0  0  0  0  0  0  0  0  0
   10.0548    3.9929    7.1363 C   0  0  0  0  0  0  0  0  0  0  0  0
    8.6897    4.2269    7.3208 C   0  0  0  0  0  0  0  0  0  0  0  0
   10.4917    3.3120    5.9982 C   0  0  0  0  0  0  0  0  0  0  0  0
    7.7690    3.7847    6.3752 C   0  0  0  0  0  0  0  0  0  0  0  0
    9.5750    2.8673    5.0483 C   0  0  0  0  0  0  0  0  0  0  0  0
    5.8679    2.7165    4.1373 C   0  0  0  0  0  0  0  0  0  0  0  0
    4.2126    1.8056    2.3059 C   0  0  0  0  0  0  0  0  0  0  0  0
    8.2007    3.0994    5.2268 C   0  0  0  0  0  0  0  0  0  0  0  0
    5.5649    2.0543    2.9152 C   0  0  0  0  0  0  0  0  0  0  0  0
    7.2305    2.6369    4.2359 C   0  0  0  0  0  0  0  0  0  0  0  0
    6.6509    1.6151    2.3157 N   0  0  0  0  0  0  0  0  0  0  0  0
    3.4052    3.0245    2.2400 N   0  0  0  0  0  0  0  0  0  0  0  0
    7.7118    1.9768    3.1529 O   0  0  0  0  0  0  0  0  0  0  0  0
    4.4517    4.6043   -0.6820 H   0  0  0  0  0  0  0  0  0  0  0  0
    3.0227    3.5704   -0.5614 H   0  0  0  0  0  0  0  0  0  0  0  0
    4.6438    2.8773   -0.3669 H   0  0  0  0  0  0  0  0  0  0  0  0
    0.0222    3.5990    2.1711 H   0  0  0  0  0  0  0  0  0  0  0  0
    1.1966    4.6892    1.4329 H   0  0  0  0  0  0  0  0  0  0  0  0
    1.2541    4.3876    3.1808 H   0  0  0  0  0  0  0  0  0  0  0  0
    3.4104    4.9809    1.5266 H   0  0  0  0  0  0  0  0  0  0  0  0
    4.9920    4.2582    1.7155 H   0  0  0  0  0  0  0  0  0  0  0  0
    1.8128    2.2910    0.9957 H   0  0  0  0  0  0  0  0  0  0  0  0
    1.7088    1.9414    2.7172 H   0  0  0  0  0  0  0  0  0  0  0  0
   10.7721    4.3382    7.8756 H   0  0  0  0  0  0  0  0  0  0  0  0
    8.3411    4.7546    8.2043 H   0  0  0  0  0  0  0  0  0  0  0  0
   11.5515    3.1253    5.8484 H   0  0  0  0  0  0  0  0  0  0  0  0
    6.7096    3.9694    6.5275 H   0  0  0  0  0  0  0  0  0  0  0  0
    9.9148    2.3375    4.1649 H   0  0  0  0  0  0  0  0  0  0  0  0
    5.1667    3.1834    4.8112 H   0  0  0  0  0  0  0  0  0  0  0  0
    3.6754    1.0941    2.9463 H   0  0  0  0  0  0  0  0  0  0  0  0
    4.3580    1.3034    1.3338 H   0  0  0  0  0  0  0  0  0  0  0  0
  1  3  1  0  0  0  0
  2 23  1  0  0  0  0
  3 24  1  0  0  0  0
  3 25  1  0  0  0  0
  3 16  1  0  0  0  0
  4  2  1  0  0  0  0
  4 16  1  0  0  0  0
  4 27  1  0  0  0  0
  5  6  1  0  0  0  0
  5 28  1  0  0  0  0
  6 29  1  0  0  0  0
  7  5  2  0  0  0  0
  8 31  1  0  0  0  0
  8  6  2  0  0  0  0
  9 12  2  0  0  0  0
  9  7  1  0  0  0  0
 10 14  2  0  0  0  0
 10 33  1  0  0  0  0
 11 13  1  0  0  0  0
 11 34  1  0  0  0  0
 12  8  1  0  0  0  0
 13 10  1  0  0  0  0
 14 12  1  0  0  0  0
 15 13  2  0  0  0  0
 15 17  1  0  0  0  0
 16 11  1  0  0  0  0
 17 14  1  0  0  0  0
 18  1  1  0  0  0  0
 19  1  1  0  0  0  0
 20  1  1  0  0  0  0
 21  2  1  0  0  0  0
 22  2  1  0  0  0  0
 26  4  1  0  0  0  0
 30  7  1  0  0  0  0
 32  9  1  0  0  0  0
 35 11  1  0  0  0  0
M  END
>  <HBA>
3

>  <HBD>
0

>  <TPSA>
29.27

>  <cid>
14615

>  <dipole>
2.58

>  <excitation_energy_1>
3.845

>  <excitation_energy_2>
4.63

>  <excitation_energy_3>
4.772

>  <excitation_energy_4>
4.92

>  <homo_energy>
-5.728

>  <homo_lumo_gap>
4.528

>  <logP>
3.183

>  <lumo_energy>
-1.2

>  <melting_point>
60.14

>  <molecular_refractivity>
69.03

>  <oscillator_strength_1>
0.0127

>  <oscillator_strength_2>
0.5854

>  <oscillator_strength_3>
0.0046

>  <oscillator_strength_4>
0.0013

>  <open_babel_can_smiles>
CCN(Cc1noc(c1)c1ccccc1)CC

>  <mulliken_charges>
35
1   -0.463436
2   -0.456709
3   -0.140545
4   -0.104975
5   -0.122207
6   -0.137973
7   -0.133438
8   -0.167717
9   -0.167887
10   -0.287834
11   -0.195402
12   0.087155
13   0.307717
14   0.377994
15   -0.221042
16   -0.389991
17   -0.402138
18   0.145713
19   0.145936
20   0.160529
21   0.14508
22   0.150697
23   0.154665
24   0.14334
25   0.154267
26   0.117941
27   0.135579
28   0.135304
29   0.135709
30   0.137622
31   0.136647
32   0.161702
33   0.154347
34   0.156463
35   0.146888

>  <lowdin_charges>
35
1   -0.467363
2   -0.450264
3   -0.206728
4   -0.196775
5   -0.151714
6   -0.15302
7   -0.149392
8   -0.14775
9   -0.147372
10   -0.240563
11   -0.198685
12   -0.015601
13   0.014429
14   0.094254
15   -0.088178
16   -0.191755
17   -0.078004
18   0.156056
19   0.147314
20   0.155672
21   0.153266
22   0.15049
23   0.154019
24   0.145759
25   0.150894
26   0.118798
27   0.143788
28   0.162061
29   0.161298
30   0.160174
31   0.159719
32   0.174054
33   0.180655
34   0.16015
35   0.140314

$$$$

