PCCDB-ID:  586
public computational chemistry database (PCCDB) project, http://pccdb.org

 18 17  0  0  0  0  0  0  0  0999 V2000
    0.8441    0.9839   -0.2257 C   0  0  0  0  0  0  0  0  0  0  0  0
    2.9033   -0.2835    0.3245 C   0  0  0  0  0  0  0  0  0  0  0  0
    3.4055    0.3099    1.6587 C   0  0  0  0  0  0  0  0  0  0  0  0
    3.0107    1.4990   -1.3419 C   0  0  0  0  0  0  0  0  0  0  0  0
    4.2888    1.5728   -1.1262 N   0  0  0  0  0  0  0  0  0  0  0  0
    2.3151    2.2178   -2.3094 N   0  0  0  0  0  0  0  0  0  0  0  0
    2.2378    0.6837   -0.5502 N   0  0  0  0  0  0  0  0  0  0  0  0
    2.9589   -0.0510    2.7262 O   0  0  0  0  0  0  0  0  0  0  0  0
    4.3587    1.2375    1.5466 O   0  0  0  0  0  0  0  0  0  0  0  0
    0.1805    0.1704   -0.5466 H   0  0  0  0  0  0  0  0  0  0  0  0
    0.5385    1.9107   -0.7120 H   0  0  0  0  0  0  0  0  0  0  0  0
    0.7306    1.1097    0.8578 H   0  0  0  0  0  0  0  0  0  0  0  0
    2.1894   -1.0738    0.5664 H   0  0  0  0  0  0  0  0  0  0  0  0
    3.7475   -0.7142   -0.2227 H   0  0  0  0  0  0  0  0  0  0  0  0
    4.7859    2.0765   -1.8575 H   0  0  0  0  0  0  0  0  0  0  0  0
    2.8989    2.7624   -2.9303 H   0  0  0  0  0  0  0  0  0  0  0  0
    1.5830    1.7163   -2.7984 H   0  0  0  0  0  0  0  0  0  0  0  0
    4.5476    1.4072    0.5717 H   0  0  0  0  0  0  0  0  0  0  0  0
  1 12  1  0  0  0  0
  2 13  1  0  0  0  0
  2  3  1  0  0  0  0
  3  8  2  0  0  0  0
  4  5  1  0  0  0  0
  4  7  1  0  0  0  0
  6  4  2  0  0  0  0
  7  1  1  0  0  0  0
  7  2  1  0  0  0  0
  9  3  1  0  0  0  0
 10  1  1  0  0  0  0
 11  1  1  0  0  0  0
 14  2  1  0  0  0  0
 15  5  1  0  0  0  0
 16  6  1  0  0  0  0
 17  6  1  0  0  0  0
 18  9  1  0  0  0  0
M  RAD  1   5   2
M  END
>  <HBA>
5

>  <HBD>
3

>  <TPSA>
90.41

>  <cid>
586

>  <dipole>
7.81

>  <excitation_energy_1>
5.105

>  <excitation_energy_2>
5.405

>  <excitation_energy_3>
5.817

>  <excitation_energy_4>
5.984

>  <homo_energy>
-6.223

>  <homo_lumo_gap>
6.882

>  <logP>
-0.304

>  <lumo_energy>
0.659

>  <melting_point>
140.11

>  <molecular_refractivity>
32.31

>  <oscillator_strength_1>
0.0083

>  <oscillator_strength_2>
0.0031

>  <oscillator_strength_3>
0.0051

>  <oscillator_strength_4>
0.0011

>  <open_babel_can_smiles>
OC(=O)CN(C(=[NH2])[NH])C

>  <mulliken_charges>
18
1   -0.334884
2   -0.2534
3   0.582674
4   0.654258
5   -0.731602
6   -0.752631
7   -0.408931
8   -0.463813
9   -0.588578
10   0.159616
11   0.181451
12   0.190061
13   0.172655
14   0.188844
15   0.284274
16   0.332913
17   0.336886
18   0.450206

>  <lowdin_charges>
18
1   -0.355778
2   -0.235739
3   0.17166
4   0.142405
5   -0.503592
6   -0.491498
7   -0.114329
8   -0.268329
9   -0.369033
10   0.151396
11   0.170132
12   0.166063
13   0.168883
14   0.177222
15   0.259239
16   0.286453
17   0.288549
18   0.356297

$$$$

