PCCDB-ID:  11567
public computational chemistry database (PCCDB) project, http://pccdb.org

 20 20  0  0  1  0  0  0  0  0999 V2000
    0.8790   -0.0092   -0.1210 C   0  0  0  0  0  0  0  0  0  0  0  0
    4.5064   -1.2262    0.7089 C   0  0  0  0  0  0  0  0  0  0  0  0
    2.9720   -1.2366    0.6612 C   0  0  0  0  0  0  0  0  0  0  0  0
    5.0456    0.0516    1.3841 C   0  0  0  0  0  0  0  0  0  0  0  0
    2.9315    1.2958    0.6129 C   0  0  0  0  0  0  0  0  0  0  0  0
    2.4102    0.0026   -0.0576 C   0  0  2  0  0  0  0  0  0  0  0  0
    4.4479    1.3071    0.7616 C   0  0  0  0  0  0  0  0  0  0  0  0
    5.1304    2.2491    0.4054 O   0  0  0  0  0  0  0  0  0  0  0  0
    0.5121   -0.9040   -0.6375 H   0  0  0  0  0  0  0  0  0  0  0  0
    0.4962    0.8680   -0.6554 H   0  0  0  0  0  0  0  0  0  0  0  0
    0.4439   -0.0023    0.8868 H   0  0  0  0  0  0  0  0  0  0  0  0
    4.9020   -1.2860   -0.3144 H   0  0  0  0  0  0  0  0  0  0  0  0
    4.8810   -2.1098    1.2393 H   0  0  0  0  0  0  0  0  0  0  0  0
    2.5710   -1.2716    1.6861 H   0  0  0  0  0  0  0  0  0  0  0  0
    2.6194   -2.1466    0.1588 H   0  0  0  0  0  0  0  0  0  0  0  0
    6.1360    0.1196    1.3296 H   0  0  0  0  0  0  0  0  0  0  0  0
    4.7640    0.0392    2.4485 H   0  0  0  0  0  0  0  0  0  0  0  0
    2.4926    1.3688    1.6212 H   0  0  0  0  0  0  0  0  0  0  0  0
    2.6310    2.1896    0.0570 H   0  0  0  0  0  0  0  0  0  0  0  0
    2.7932   -0.0105   -1.0900 H   0  0  0  0  0  0  0  0  0  0  0  0
  1  6  1  0  0  0  0
  1 11  1  0  0  0  0
  2 13  1  0  0  0  0
  2  4  1  0  0  0  0
  3  2  1  0  0  0  0
  3 14  1  0  0  0  0
  4 17  1  0  0  0  0
  5  7  1  0  0  0  0
  5 18  1  0  0  0  0
  6 20  1  6  0  0  0
  6  5  1  0  0  0  0
  6  3  1  0  0  0  0
  7  4  1  0  0  0  0
  8  7  2  0  0  0  0
  9  1  1  0  0  0  0
 10  1  1  0  0  0  0
 12  2  1  0  0  0  0
 15  3  1  0  0  0  0
 16  4  1  0  0  0  0
 19  5  1  0  0  0  0
M  END
>  <HBA>
1

>  <HBD>
0

>  <TPSA>
17.07

>  <cid>
11567

>  <dipole>
3.07

>  <excitation_energy_1>
4.217

>  <excitation_energy_2>
6.073

>  <excitation_energy_3>
6.434

>  <excitation_energy_4>
6.472

>  <homo_energy>
-6.37

>  <homo_lumo_gap>
6.068

>  <logP>
1.766

>  <lumo_energy>
-0.302

>  <melting_point>
16.74

>  <molecular_refractivity>
33.85

>  <oscillator_strength_1>
0.0

>  <oscillator_strength_2>
0.0193

>  <oscillator_strength_3>
0.0004

>  <oscillator_strength_4>
0.0111

>  <open_babel_can_smiles>
C[C@@H]1CCCC(=O)C1

>  <mulliken_charges>
20
1   -0.444374
2   -0.274822
3   -0.25921
4   -0.341741
5   -0.34073
6   -0.085467
7   0.448638
8   -0.447045
9   0.144928
10   0.147746
11   0.141247
12   0.14488
13   0.142989
14   0.128627
15   0.137507
16   0.16274
17   0.152581
18   0.148193
19   0.160065
20   0.13325

>  <lowdin_charges>
20
1   -0.443611
2   -0.27456
3   -0.279574
4   -0.304992
5   -0.308095
6   -0.12145
7   0.159643
8   -0.236014
9   0.151481
10   0.153012
11   0.146403
12   0.144476
13   0.150725
14   0.137286
15   0.148291
16   0.161546
17   0.157376
18   0.15641
19   0.162622
20   0.139025

$$$$

