PCCDB-ID:  9405
public computational chemistry database (PCCDB) project, http://pccdb.org

 27 26  0  0  0  0  0  0  0  0999 V2000
    2.9176   -1.9308    0.2494 C   0  0  0  0  0  0  0  0  0  0  0  0
    3.0010    0.5503    0.8129 C   0  0  0  0  0  0  0  0  0  0  0  0
    0.9188   -1.5363   -2.5673 C   0  0  0  0  0  0  0  0  0  0  0  0
    0.7140    0.9893   -2.3438 C   0  0  0  0  0  0  0  0  0  0  0  0
    2.4807   -0.5150   -0.1644 C   0  0  0  0  0  0  0  0  0  0  0  0
    1.6742   -0.1958   -2.5470 C   0  0  0  0  0  0  0  0  0  0  0  0
    4.0979   -0.0010   -1.9803 C   0  0  0  0  0  0  0  0  0  0  0  0
    5.0853   -0.3883   -1.2451 N   0  0  0  0  0  0  0  0  0  0  0  0
    4.2405    0.5949   -3.2565 N   0  0  0  0  0  0  0  0  0  0  0  0
    2.7867   -0.1782   -1.5746 N   0  0  0  0  0  0  0  0  0  0  0  0
    2.5584   -2.1455    1.2637 H   0  0  0  0  0  0  0  0  0  0  0  0
    4.0054   -2.0109    0.2284 H   0  0  0  0  0  0  0  0  0  0  0  0
    2.4994   -2.6867   -0.4234 H   0  0  0  0  0  0  0  0  0  0  0  0
    2.6407    0.3290    1.8245 H   0  0  0  0  0  0  0  0  0  0  0  0
    2.6380    1.5457    0.5322 H   0  0  0  0  0  0  0  0  0  0  0  0
    4.0924    0.5635    0.8263 H   0  0  0  0  0  0  0  0  0  0  0  0
    0.1677   -1.5231   -3.3657 H   0  0  0  0  0  0  0  0  0  0  0  0
    0.3941   -1.7352   -1.6266 H   0  0  0  0  0  0  0  0  0  0  0  0
    1.6069   -2.3654   -2.7594 H   0  0  0  0  0  0  0  0  0  0  0  0
   -0.0604    0.9938   -3.1199 H   0  0  0  0  0  0  0  0  0  0  0  0
    1.2504    1.9441   -2.3906 H   0  0  0  0  0  0  0  0  0  0  0  0
    0.2083    0.9399   -1.3725 H   0  0  0  0  0  0  0  0  0  0  0  0
    1.3873   -0.4808   -0.1086 H   0  0  0  0  0  0  0  0  0  0  0  0
    2.1360   -0.0931   -3.5302 H   0  0  0  0  0  0  0  0  0  0  0  0
    5.9701   -0.0628   -1.6374 H   0  0  0  0  0  0  0  0  0  0  0  0
    5.2104    0.7953   -3.4707 H   0  0  0  0  0  0  0  0  0  0  0  0
    3.6676    1.4212   -3.3985 H   0  0  0  0  0  0  0  0  0  0  0  0
  1 11  1  0  0  0  0
  2 16  1  0  0  0  0
  2 14  1  0  0  0  0
  3  6  1  0  0  0  0
  3 18  1  0  0  0  0
  4 22  1  0  0  0  0
  5 23  1  0  0  0  0
  5  1  1  0  0  0  0
  5  2  1  0  0  0  0
  6  4  1  0  0  0  0
  6 10  1  0  0  0  0
  7 10  1  0  0  0  0
  7  8  1  0  0  0  0
  9  7  2  0  0  0  0
 10  5  1  0  0  0  0
 12  1  1  0  0  0  0
 13  1  1  0  0  0  0
 15  2  1  0  0  0  0
 17  3  1  0  0  0  0
 19  3  1  0  0  0  0
 20  4  1  0  0  0  0
 21  4  1  0  0  0  0
 24  6  1  0  0  0  0
 25  8  1  0  0  0  0
 26  9  1  0  0  0  0
 27  9  1  0  0  0  0
M  RAD  1   8   2
M  END
>  <HBA>
3

>  <HBD>
2

>  <TPSA>
53.11

>  <cid>
9405

>  <dipole>
2.97

>  <excitation_energy_1>
4.742

>  <excitation_energy_2>
5.305

>  <excitation_energy_3>
5.583

>  <excitation_energy_4>
5.611

>  <homo_energy>
-5.48

>  <homo_lumo_gap>
6.928

>  <logP>
1.799

>  <lumo_energy>
1.448

>  <melting_point>
60.96

>  <molecular_refractivity>
44.96

>  <oscillator_strength_1>
0.0048

>  <oscillator_strength_2>
0.0081

>  <oscillator_strength_3>
0.012

>  <oscillator_strength_4>
0.0372

>  <open_babel_can_smiles>
CC(N(C(=[NH2])[NH])C(C)C)C

>  <mulliken_charges>
27
1   -0.447187
2   -0.450154
3   -0.442918
4   -0.439105
5   0.050591
6   0.009172
7   0.582889
8   -0.653632
9   -0.755887
10   -0.422067
11   0.125606
12   0.195451
13   0.134766
14   0.132619
15   0.129926
16   0.184255
17   0.14196
18   0.148176
19   0.160586
20   0.143636
21   0.137119
22   0.150977
23   0.125148
24   0.163871
25   0.257462
26   0.315742
27   0.320996

>  <lowdin_charges>
27
1   -0.457745
2   -0.451206
3   -0.453077
4   -0.454592
5   -0.036937
6   -0.059313
7   0.130063
8   -0.49172
9   -0.51396
10   -0.125659
11   0.142384
12   0.173881
13   0.147173
14   0.146303
15   0.142677
16   0.167628
17   0.152585
18   0.149938
19   0.158952
20   0.152052
21   0.145404
22   0.15096
23   0.136856
24   0.159936
25   0.241983
26   0.271098
27   0.274335

$$$$

