PCCDB-ID:  4980
public computational chemistry database (PCCDB) project, http://pccdb.org

 31 32  0  0  0  0  0  0  0  0999 V2000
    1.2417    1.0633   -0.6343 C   0  0  0  0  0  0  0  0  0  0  0  0
    2.5435    0.1941    1.1773 C   0  0  0  0  0  0  0  0  0  0  0  0
    4.4660   -6.2740   -2.2141 C   0  0  0  0  0  0  0  0  0  0  0  0
    5.0651   -5.5043   -3.2000 C   0  0  0  0  0  0  0  0  0  0  0  0
    3.9250   -5.6898   -1.0509 C   0  0  0  0  0  0  0  0  0  0  0  0
    4.4015   -0.9776   -0.9975 C   0  0  0  0  0  0  0  0  0  0  0  0
    2.9044   -0.6251   -1.0856 C   0  0  0  0  0  0  0  0  0  0  0  0
    5.4504   -1.8969   -3.1479 C   0  0  0  0  0  0  0  0  0  0  0  0
    4.8005   -2.0699   -1.9518 C   0  0  0  0  0  0  0  0  0  0  0  0
    5.1071   -4.1186   -2.9879 C   0  0  0  0  0  0  0  0  0  0  0  0
    3.9747   -4.3139   -0.8539 C   0  0  0  0  0  0  0  0  0  0  0  0
    4.5710   -3.4917   -1.8309 C   0  0  0  0  0  0  0  0  0  0  0  0
    5.6314   -3.1177   -3.7753 N   0  0  0  0  0  0  0  0  0  0  0  0
    2.5337    0.5163   -0.2440 N   0  0  0  0  0  0  0  0  0  0  0  0
    3.4643   -3.7060    0.2652 O   0  0  0  0  0  0  0  0  0  0  0  0
    1.0206    1.9523   -0.0324 H   0  0  0  0  0  0  0  0  0  0  0  0
    0.4025    0.3498   -0.5041 H   0  0  0  0  0  0  0  0  0  0  0  0
    1.2677    1.3644   -1.6873 H   0  0  0  0  0  0  0  0  0  0  0  0
    2.3022    1.0926    1.7564 H   0  0  0  0  0  0  0  0  0  0  0  0
    3.5353   -0.1457    1.4875 H   0  0  0  0  0  0  0  0  0  0  0  0
    1.8131   -0.5950    1.4482 H   0  0  0  0  0  0  0  0  0  0  0  0
    4.4092   -7.3523   -2.3340 H   0  0  0  0  0  0  0  0  0  0  0  0
    5.4826   -5.9549   -4.0958 H   0  0  0  0  0  0  0  0  0  0  0  0
    3.4630   -6.3226   -0.2949 H   0  0  0  0  0  0  0  0  0  0  0  0
    4.6529   -1.2808    0.0241 H   0  0  0  0  0  0  0  0  0  0  0  0
    4.9762   -0.0690   -1.2143 H   0  0  0  0  0  0  0  0  0  0  0  0
    2.3003   -1.5219   -0.8508 H   0  0  0  0  0  0  0  0  0  0  0  0
    2.6816   -0.3547   -2.1247 H   0  0  0  0  0  0  0  0  0  0  0  0
    5.8056   -0.9849   -3.6086 H   0  0  0  0  0  0  0  0  0  0  0  0
    6.1091   -3.2581   -4.6513 H   0  0  0  0  0  0  0  0  0  0  0  0
    3.0840   -4.3890    0.8394 H   0  0  0  0  0  0  0  0  0  0  0  0
  1 17  1  0  0  0  0
  1 14  1  0  0  0  0
  1 16  1  0  0  0  0
  2 21  1  0  0  0  0
  2 20  1  0  0  0  0
  2 19  1  0  0  0  0
  3  5  2  0  0  0  0
  4 10  2  0  0  0  0
  4  3  1  0  0  0  0
  5 11  1  0  0  0  0
  5 24  1  0  0  0  0
  6 25  1  0  0  0  0
  7  6  1  0  0  0  0
  7 27  1  0  0  0  0
  7 14  1  0  0  0  0
  8  9  2  0  0  0  0
  9 12  1  0  0  0  0
  9  6  1  0  0  0  0
 10 12  1  0  0  0  0
 11 15  1  0  0  0  0
 12 11  2  0  0  0  0
 13  8  1  0  0  0  0
 13 10  1  0  0  0  0
 14  2  1  0  0  0  0
 15 31  1  0  0  0  0
 18  1  1  0  0  0  0
 22  3  1  0  0  0  0
 23  4  1  0  0  0  0
 26  6  1  0  0  0  0
 28  7  1  0  0  0  0
 29  8  1  0  0  0  0
 30 13  1  0  0  0  0
M  END
>  <HBA>
2

>  <HBD>
2

>  <TPSA>
39.26

>  <cid>
4980

>  <dipole>
1.48

>  <excitation_energy_1>
4.411

>  <excitation_energy_2>
4.587

>  <excitation_energy_3>
4.613

>  <excitation_energy_4>
4.816

>  <homo_energy>
-4.98

>  <homo_lumo_gap>
5.167

>  <logP>
1.978

>  <lumo_energy>
0.188

>  <melting_point>
141.38

>  <molecular_refractivity>
62.6

>  <oscillator_strength_1>
0.0016

>  <oscillator_strength_2>
0.0821

>  <oscillator_strength_3>
0.0091

>  <oscillator_strength_4>
0.004

>  <open_babel_can_smiles>
CN(CCc1c[nH]c2c1c(O)ccc2)C

>  <mulliken_charges>
31
1   -0.290758
2   -0.296146
3   -0.155248
4   -0.166151
5   -0.200323
6   -0.341482
7   -0.109166
8   -0.009228
9   0.081479
10   0.306636
11   0.253904
12   0.05642
13   -0.692428
14   -0.370367
15   -0.650378
16   0.142671
17   0.11347
18   0.145078
19   0.141754
20   0.154121
21   0.114189
22   0.122171
23   0.115967
24   0.10457
25   0.15669
26   0.139171
27   0.128591
28   0.128114
29   0.145103
30   0.325138
31   0.406437

>  <lowdin_charges>
31
1   -0.35493
2   -0.358103
3   -0.151591
4   -0.210177
5   -0.243137
6   -0.272256
7   -0.199925
8   -0.144129
9   -0.048276
10   0.037135
11   0.100662
12   -0.062252
13   -0.197101
14   -0.186343
15   -0.381762
16   0.146819
17   0.118164
18   0.145934
19   0.147282
20   0.151069
21   0.119355
22   0.15404
23   0.154849
24   0.15015
25   0.1552
26   0.150635
27   0.126682
28   0.13991
29   0.163794
30   0.290005
31   0.358297

$$$$

