PCCDB-ID:  31448
public computational chemistry database (PCCDB) project, http://pccdb.org

 27 27  0  0  1  0  0  0  0  0999 V2000
    1.3193    1.1560   -0.3244 C   0  0  0  0  0  0  0  0  0  0  0  0
    1.5780   -2.0657    2.2544 C   0  0  0  0  0  0  0  0  0  0  0  0
    3.2265    1.0043    2.4789 C   0  0  0  0  0  0  0  0  0  0  0  0
    5.6151    0.5810    1.8866 C   0  0  0  0  0  0  0  0  0  0  0  0
    1.5939   -0.1470   -0.3523 C   0  0  0  0  0  0  0  0  0  0  0  0
    4.1104   -1.4012    2.2405 C   0  0  0  0  0  0  0  0  0  0  0  0
    2.9705   -2.2385    1.6364 C   0  0  2  0  0  0  0  0  0  0  0  0
    2.9882   -0.7516   -0.2862 C   0  0  2  0  0  0  0  0  0  0  0  0
    4.1823    0.0554    1.7339 C   0  0  0  0  0  0  0  0  0  0  0  0
    2.9784   -2.0777    0.2107 O   0  0  0  0  0  0  0  0  0  0  0  0
    3.9604    0.0913    0.3007 O   0  0  0  0  0  0  0  0  0  0  0  0
    0.3062    1.5263   -0.4568 H   0  0  0  0  0  0  0  0  0  0  0  0
    2.1003    1.8946   -0.1703 H   0  0  0  0  0  0  0  0  0  0  0  0
    1.6120   -2.3110    3.3229 H   0  0  0  0  0  0  0  0  0  0  0  0
    0.8777   -2.7544    1.7699 H   0  0  0  0  0  0  0  0  0  0  0  0
    1.1789   -1.0548    2.1508 H   0  0  0  0  0  0  0  0  0  0  0  0
    3.4733    1.0162    3.5474 H   0  0  0  0  0  0  0  0  0  0  0  0
    2.1786    0.7234    2.3740 H   0  0  0  0  0  0  0  0  0  0  0  0
    3.3408    2.0228    2.0937 H   0  0  0  0  0  0  0  0  0  0  0  0
    5.9194    0.5765    2.9395 H   0  0  0  0  0  0  0  0  0  0  0  0
    5.6845    1.6070    1.5102 H   0  0  0  0  0  0  0  0  0  0  0  0
    6.3106   -0.0416    1.3158 H   0  0  0  0  0  0  0  0  0  0  0  0
    0.8074   -0.8761   -0.5428 H   0  0  0  0  0  0  0  0  0  0  0  0
    5.0473   -1.8964    1.9599 H   0  0  0  0  0  0  0  0  0  0  0  0
    4.0543   -1.4105    3.3355 H   0  0  0  0  0  0  0  0  0  0  0  0
    3.2413   -3.2927    1.7670 H   0  0  0  0  0  0  0  0  0  0  0  0
    3.3371   -0.8760   -1.3199 H   0  0  0  0  0  0  0  0  0  0  0  0
  1 13  1  0  0  0  0
  2 14  1  0  0  0  0
  3 17  1  0  0  0  0
  4 20  1  0  0  0  0
  5  1  2  0  0  0  0
  5  8  1  0  0  0  0
  6 25  1  0  0  0  0
  7 26  1  1  0  0  0
  7  6  1  0  0  0  0
  7  2  1  0  0  0  0
  8 27  1  6  0  0  0
  8 10  1  0  0  0  0
  8 11  1  0  0  0  0
  9  4  1  0  0  0  0
  9  6  1  0  0  0  0
  9  3  1  0  0  0  0
 10  7  1  0  0  0  0
 11  9  1  0  0  0  0
 12  1  1  0  0  0  0
 15  2  1  0  0  0  0
 16  2  1  0  0  0  0
 18  3  1  0  0  0  0
 19  3  1  0  0  0  0
 21  4  1  0  0  0  0
 22  4  1  0  0  0  0
 23  5  1  0  0  0  0
 24  6  1  0  0  0  0
M  END
>  <HBA>
2

>  <HBD>
0

>  <TPSA>
18.46

>  <cid>
31448

>  <dipole>
1.78

>  <excitation_energy_1>
5.745

>  <excitation_energy_2>
6.227

>  <excitation_energy_3>
6.354

>  <excitation_energy_4>
6.559

>  <homo_energy>
-6.743

>  <homo_lumo_gap>
7.064

>  <logP>
2.103

>  <lumo_energy>
0.321

>  <melting_point>
-33.45

>  <molecular_refractivity>
45.0

>  <oscillator_strength_1>
0.0004

>  <oscillator_strength_2>
0.0034

>  <oscillator_strength_3>
0.0191

>  <oscillator_strength_4>
0.0645

>  <open_babel_can_smiles>
C=C[C@@H]1O[C@H](C)CC(O1)(C)C

>  <mulliken_charges>
27
1   -0.330573
2   -0.469597
3   -0.460887
4   -0.447527
5   -0.107044
6   -0.290845
7   0.129966
8   0.322437
9   0.315944
10   -0.496092
11   -0.51795
12   0.140672
13   0.154995
14   0.140518
15   0.153937
16   0.164856
17   0.135482
18   0.162301
19   0.14792
20   0.137539
21   0.151078
22   0.15357
23   0.137708
24   0.145438
25   0.134092
26   0.137868
27   0.154193

>  <lowdin_charges>
27
1   -0.329698
2   -0.464948
3   -0.454829
4   -0.442546
5   -0.185961
6   -0.299051
7   0.006964
8   0.10325
9   0.134713
10   -0.271382
11   -0.269893
12   0.159159
13   0.165365
14   0.151092
15   0.158179
16   0.157234
17   0.147595
18   0.15675
19   0.152588
20   0.148454
21   0.15439
22   0.157392
23   0.160544
24   0.154384
25   0.149532
26   0.145876
27   0.154844

$$$$

