PCCDB-ID:  68296
public computational chemistry database (PCCDB) project, http://pccdb.org

  8  8  0  0  0  0  0  0  0  0999 V2000
   -1.1407   -0.0366   -0.0013 C   0  0  0  0  0  0  0  0  0  0  0  0
   -0.4272   -1.1884    0.0007 C   0  0  0  0  0  0  0  0  0  0  0  0
   -0.4403    1.2223   -0.0009 C   0  0  0  0  0  0  0  0  0  0  0  0
   -1.0683    2.7533   -0.0039 S   0  0  0  0  0  0  0  0  0  0  0  0
    1.3106   -1.1172    0.0038 S   0  0  0  0  0  0  0  0  0  0  0  0
    1.3227    0.9959    0.0032 S   0  0  0  0  0  0  0  0  0  0  0  0
   -2.2251   -0.0294   -0.0029 H   0  0  0  0  0  0  0  0  0  0  0  0
   -0.8620   -2.1827    0.0003 H   0  0  0  0  0  0  0  0  0  0  0  0
  1  3  1  0  0  0  0
  1  2  2  0  0  0  0
  2  5  1  0  0  0  0
  3  6  1  0  0  0  0
  4  3  2  0  0  0  0
  6  5  1  0  0  0  0
  7  1  1  0  0  0  0
  8  2  1  0  0  0  0
M  END
>  <HBA>
3

>  <HBD>
0

>  <TPSA>
88.57

>  <cid>
68296

>  <dipole>
4.12

>  <excitation_energy_1>
2.511

>  <excitation_energy_2>
3.054

>  <excitation_energy_3>
3.101

>  <excitation_energy_4>
3.822

>  <homo_energy>
-6.202

>  <homo_lumo_gap>
3.679

>  <logP>
2.539

>  <lumo_energy>
-2.523

>  <melting_point>
43.96

>  <molecular_refractivity>
33.03

>  <oscillator_strength_1>
0.0002

>  <oscillator_strength_2>
0.0

>  <oscillator_strength_3>
0.0162

>  <oscillator_strength_4>
0.2291

>  <open_babel_can_smiles>
S=c1ccss1

>  <mulliken_charges>
8
1   -0.033002
2   -0.33048
3   -0.23303
4   -0.142732
5   0.150482
6   0.18336
7   0.191745
8   0.213656

>  <lowdin_charges>
8
1   -0.180121
2   -0.264003
3   -0.219454
4   -0.104591
5   0.186014
6   0.191651
7   0.191835
8   0.198669

$$$$

