PCCDB-ID:  41447
public computational chemistry database (PCCDB) project, http://pccdb.org

 21 23  0  0  1  0  0  0  0  0999 V2000
    2.5066   -0.0298   -0.0461 C   0  0  0  0  0  0  0  0  0  0  0  0
    1.6457    1.2635   -0.2837 C   0  0  0  0  0  0  0  0  0  0  0  0
    1.5041   -1.2109    0.2237 C   0  0  0  0  0  0  0  0  0  0  0  0
   -1.1068    1.4452   -0.0385 C   0  0  0  0  0  0  0  0  0  0  0  0
    0.2779    0.8346    0.2428 C   0  0  1  0  0  0  0  0  0  0  0  0
    0.1713   -0.6220   -0.2454 C   0  0  2  0  0  0  0  0  0  0  0  0
   -2.0249    0.2455    0.2727 C   0  0  2  0  0  0  0  0  0  0  0  0
   -1.2403   -1.0116    0.1898 C   0  0  1  0  0  0  0  0  0  0  0  0
   -2.2114   -0.6693   -0.8179 O   0  0  0  0  0  0  0  0  0  0  0  0
    3.1859    0.1008    0.8027 H   0  0  0  0  0  0  0  0  0  0  0  0
    3.1342   -0.2415   -0.9180 H   0  0  0  0  0  0  0  0  0  0  0  0
    1.5909    1.4983   -1.3544 H   0  0  0  0  0  0  0  0  0  0  0  0
    2.0651    2.1393    0.2226 H   0  0  0  0  0  0  0  0  0  0  0  0
    1.4708   -1.4491    1.2943 H   0  0  0  0  0  0  0  0  0  0  0  0
    1.7923   -2.1251   -0.3051 H   0  0  0  0  0  0  0  0  0  0  0  0
   -1.2307    1.7424   -1.0872 H   0  0  0  0  0  0  0  0  0  0  0  0
   -1.3366    2.3111    0.5919 H   0  0  0  0  0  0  0  0  0  0  0  0
    0.3592    0.7722    1.3417 H   0  0  0  0  0  0  0  0  0  0  0  0
    0.1641   -0.6224   -1.3455 H   0  0  0  0  0  0  0  0  0  0  0  0
   -2.8933    0.3665    0.9198 H   0  0  0  0  0  0  0  0  0  0  0  0
   -1.4643   -1.9023    0.7751 H   0  0  0  0  0  0  0  0  0  0  0  0
  1  3  1  0  0  0  0
  1 10  1  0  0  0  0
  2  1  1  0  0  0  0
  2 13  1  0  0  0  0
  2  5  1  0  0  0  0
  3 14  1  0  0  0  0
  4  5  1  0  0  0  0
  4  7  1  0  0  0  0
  4 17  1  0  0  0  0
  5 18  1  1  0  0  0
  6 19  1  6  0  0  0
  6  8  1  0  0  0  0
  6  3  1  0  0  0  0
  6  5  1  0  0  0  0
  7 20  1  1  0  0  0
  8  7  1  0  0  0  0
  8 21  1  1  0  0  0
  9  8  1  0  0  0  0
  9  7  1  0  0  0  0
 11  1  1  0  0  0  0
 12  2  1  0  0  0  0
 15  3  1  0  0  0  0
 16  4  1  0  0  0  0
M  END
>  <HBA>
1

>  <HBD>
0

>  <TPSA>
12.53

>  <cid>
41447

>  <dipole>
2.03

>  <excitation_energy_1>
6.584

>  <excitation_energy_2>
6.84

>  <excitation_energy_3>
6.951

>  <excitation_energy_4>
7.007

>  <homo_energy>
-6.876

>  <homo_lumo_gap>
9.184

>  <logP>
1.574

>  <lumo_energy>
2.308

>  <melting_point>
30.89

>  <molecular_refractivity>
35.31

>  <oscillator_strength_1>
0.0136

>  <oscillator_strength_2>
0.0131

>  <oscillator_strength_3>
0.0155

>  <oscillator_strength_4>
0.0152

>  <open_babel_can_smiles>
C1C[C@@H]2[C@@H](C1)[C@H]1[C@@H](C2)O1

>  <mulliken_charges>
21
1   -0.28147
2   -0.276275
3   -0.278829
4   -0.293048
5   -0.093832
6   -0.098188
7   0.06532
8   0.049441
9   -0.455587
10   0.139694
11   0.141468
12   0.136333
13   0.133876
14   0.133855
15   0.138391
16   0.153547
17   0.135414
18   0.123611
19   0.146929
20   0.139766
21   0.139586

>  <lowdin_charges>
21
1   -0.28366
2   -0.285517
3   -0.281852
4   -0.291355
5   -0.125078
6   -0.145632
7   -0.028267
8   -0.031322
9   -0.283954
10   0.147052
11   0.148192
12   0.141289
13   0.146065
14   0.13952
15   0.147371
16   0.154923
17   0.149728
18   0.132634
19   0.147485
20   0.149923
21   0.152454

$$$$

