PCCDB-ID:  24232
public computational chemistry database (PCCDB) project, http://pccdb.org

 22 21  0  0  0  0  0  0  0  0999 V2000
    0.9370    0.1573   -0.0921 C   0  0  0  0  0  0  0  0  0  0  0  0
    2.7371   -1.5882    0.1404 C   0  0  0  0  0  0  0  0  0  0  0  0
    2.6687   -0.0904   -1.9039 C   0  0  0  0  0  0  0  0  0  0  0  0
    5.0380    1.8315    1.2693 C   0  0  0  0  0  0  0  0  0  0  0  0
    4.5540    0.8728    0.1887 C   0  0  0  0  0  0  0  0  0  0  0  0
    2.3992   -0.1873   -0.3947 C   0  0  0  0  0  0  0  0  0  0  0  0
    4.6533    1.3843    2.5572 O   0  0  0  0  0  0  0  0  0  0  0  0
    3.1384    0.8267    0.3238 O   0  0  0  0  0  0  0  0  0  0  0  0
    0.2604   -0.5558   -0.5747 H   0  0  0  0  0  0  0  0  0  0  0  0
    0.7011    1.1635   -0.4531 H   0  0  0  0  0  0  0  0  0  0  0  0
    0.7561    0.1306    0.9877 H   0  0  0  0  0  0  0  0  0  0  0  0
    2.0817   -2.3381   -0.3163 H   0  0  0  0  0  0  0  0  0  0  0  0
    2.5971   -1.6244    1.2261 H   0  0  0  0  0  0  0  0  0  0  0  0
    3.7698   -1.8769   -0.0819 H   0  0  0  0  0  0  0  0  0  0  0  0
    2.0078   -0.7704   -2.4526 H   0  0  0  0  0  0  0  0  0  0  0  0
    3.7002   -0.3618   -2.1531 H   0  0  0  0  0  0  0  0  0  0  0  0
    2.4835    0.9291   -2.2594 H   0  0  0  0  0  0  0  0  0  0  0  0
    4.6431    2.8391    1.0588 H   0  0  0  0  0  0  0  0  0  0  0  0
    6.1318    1.8868    1.2582 H   0  0  0  0  0  0  0  0  0  0  0  0
    5.0045   -0.1160    0.3505 H   0  0  0  0  0  0  0  0  0  0  0  0
    4.8526    1.2344   -0.8070 H   0  0  0  0  0  0  0  0  0  0  0  0
    3.7049    1.1861    2.4762 H   0  0  0  0  0  0  0  0  0  0  0  0
  1 11  1  0  0  0  0
  2 13  1  0  0  0  0
  3  6  1  0  0  0  0
  4  7  1  0  0  0  0
  5  8  1  0  0  0  0
  5 20  1  0  0  0  0
  5  4  1  0  0  0  0
  6  1  1  0  0  0  0
  6  2  1  0  0  0  0
  6  8  1  0  0  0  0
  9  1  1  0  0  0  0
 10  1  1  0  0  0  0
 12  2  1  0  0  0  0
 14  2  1  0  0  0  0
 15  3  1  0  0  0  0
 16  3  1  0  0  0  0
 17  3  1  0  0  0  0
 18  4  1  0  0  0  0
 19  4  1  0  0  0  0
 21  5  1  0  0  0  0
 22  7  1  0  0  0  0
M  END
>  <HBA>
2

>  <HBD>
1

>  <TPSA>
29.46

>  <cid>
24232

>  <dipole>
2.58

>  <excitation_energy_1>
6.509

>  <excitation_energy_2>
6.699

>  <excitation_energy_3>
6.887

>  <excitation_energy_4>
6.964

>  <homo_energy>
-6.95

>  <homo_lumo_gap>
8.887

>  <logP>
0.794

>  <lumo_energy>
1.937

>  <melting_point>
-5.87

>  <molecular_refractivity>
33.24

>  <oscillator_strength_1>
0.0037

>  <oscillator_strength_2>
0.006

>  <oscillator_strength_3>
0.0167

>  <oscillator_strength_4>
0.0029

>  <open_babel_can_smiles>
OCCOC(C)(C)C

>  <mulliken_charges>
22
1   -0.445888
2   -0.457529
3   -0.463108
4   -0.033185
5   -0.035777
6   0.330422
7   -0.624345
8   -0.519015
9   0.139921
10   0.152515
11   0.148206
12   0.144319
13   0.152211
14   0.146695
15   0.146106
16   0.146043
17   0.153278
18   0.127239
19   0.140988
20   0.132013
21   0.121927
22   0.396962

>  <lowdin_charges>
22
1   -0.443469
2   -0.455329
3   -0.456482
4   -0.135872
5   -0.149769
6   0.133732
7   -0.468745
8   -0.287341
9   0.152392
10   0.155553
11   0.152325
12   0.156001
13   0.153918
14   0.150171
15   0.157168
16   0.150147
17   0.155327
18   0.129392
19   0.145611
20   0.134148
21   0.131767
22   0.339354

$$$$

