PCCDB-ID:  71653
public computational chemistry database (PCCDB) project, http://pccdb.org

 18 18  0  0  0  0  0  0  0  0999 V2000
   -0.8305    1.2446    0.0897 C   0  0  0  0  0  0  0  0  0  0  0  0
   -1.4863    0.0608    0.1132 C   0  0  0  0  0  0  0  0  0  0  0  0
    0.5802    1.2703   -0.2070 C   0  0  0  0  0  0  0  0  0  0  0  0
   -0.7651   -1.1735   -0.1591 C   0  0  0  0  0  0  0  0  0  0  0  0
    1.3016    2.5836   -0.2532 C   0  0  0  0  0  0  0  0  0  0  0  0
    2.6306    2.5118   -0.5317 N   0  0  0  0  0  0  0  0  0  0  0  0
   -2.5933   -2.5208    0.0221 N   0  0  0  0  0  0  0  0  0  0  0  0
   -1.1849   -2.3915   -0.2194 N   0  0  0  0  0  0  0  0  0  0  0  0
    1.2652    0.1758   -0.4272 N   0  0  0  0  0  0  0  0  0  0  0  0
    0.6089   -0.9782   -0.3879 N   0  0  0  0  0  0  0  0  0  0  0  0
    0.7019    3.6352   -0.0513 O   0  0  0  0  0  0  0  0  0  0  0  0
   -1.3194    2.1895    0.2983 H   0  0  0  0  0  0  0  0  0  0  0  0
   -2.5384   -0.0202    0.3578 H   0  0  0  0  0  0  0  0  0  0  0  0
    3.0839    1.6212   -0.6698 H   0  0  0  0  0  0  0  0  0  0  0  0
    3.1646    3.3671   -0.5543 H   0  0  0  0  0  0  0  0  0  0  0  0
   -2.7524   -3.5251    0.0684 H   0  0  0  0  0  0  0  0  0  0  0  0
   -3.0933   -2.2128   -0.8174 H   0  0  0  0  0  0  0  0  0  0  0  0
    1.1654   -1.8072   -0.5596 H   0  0  0  0  0  0  0  0  0  0  0  0
  1  2  1  0  0  0  0
  1 12  1  0  0  0  0
  2 13  1  0  0  0  0
  3  1  1  0  0  0  0
  4  2  2  0  0  0  0
  5  3  1  0  0  0  0
  5 11  2  0  0  0  0
  6  5  1  0  0  0  0
  7 16  1  0  0  0  0
  8  4  1  0  0  0  0
  8  7  1  0  0  0  0
  9 10  1  0  0  0  0
  9  3  2  0  0  0  0
 10  4  1  0  0  0  0
 14  6  1  0  0  0  0
 15  6  1  0  0  0  0
 17  7  1  0  0  0  0
 18 10  1  0  0  0  0
M  RAD  1   8   2
M  END
>  <HBA>
6

>  <HBD>
3

>  <TPSA>
106.92

>  <cid>
71653

>  <dipole>
2.72

>  <excitation_energy_1>
2.67

>  <excitation_energy_2>
4.002

>  <excitation_energy_3>
4.157

>  <excitation_energy_4>
4.278

>  <homo_energy>
-5.26

>  <homo_lumo_gap>
3.429

>  <logP>
0.335

>  <lumo_energy>
-1.831

>  <melting_point>
214.6

>  <molecular_refractivity>
37.33

>  <oscillator_strength_1>
0.0069

>  <oscillator_strength_2>
0.0135

>  <oscillator_strength_3>
0.1633

>  <oscillator_strength_4>
0.1101

>  <open_babel_can_smiles>
N[N]C1=CCC(=NN1)C(=O)N

>  <mulliken_charges>
18
1   -0.133039
2   -0.165872
3   0.242058
4   0.569304
5   0.580006
6   -0.76604
7   -0.591323
8   -0.462128
9   -0.329461
10   -0.461135
11   -0.52007
12   0.184689
13   0.174989
14   0.355931
15   0.343748
16   0.322033
17   0.302276
18   0.354034

>  <lowdin_charges>
18
1   -0.129947
2   -0.161818
3   -0.03369
4   0.056739
5   0.161215
6   -0.460062
7   -0.467556
8   -0.221177
9   -0.081593
10   -0.131615
11   -0.311267
12   0.190732
13   0.182907
14   0.296623
15   0.295417
16   0.262703
17   0.251257
18   0.301131

$$$$

