PCCDB-ID:  4786
public computational chemistry database (PCCDB) project, http://pccdb.org

 24 24  0  0  1  0  0  0  0  0999 V2000
    2.3760   -0.1036    2.0699 C   0  0  0  0  0  0  0  0  0  0  0  0
    7.3984   -1.6205    1.7066 C   0  0  0  0  0  0  0  0  0  0  0  0
    6.2842   -2.4610    1.7061 C   0  0  0  0  0  0  0  0  0  0  0  0
    7.3133   -0.3627    1.1051 C   0  0  0  0  0  0  0  0  0  0  0  0
    5.0907   -2.0463    1.1124 C   0  0  0  0  0  0  0  0  0  0  0  0
    6.1221    0.0465    0.5062 C   0  0  0  0  0  0  0  0  0  0  0  0
    2.8358    0.6021    0.7908 C   0  0  1  0  0  0  0  0  0  0  0  0
    4.9952   -0.7868    0.5066 C   0  0  0  0  0  0  0  0  0  0  0  0
    3.6985   -0.3115   -0.1293 C   0  0  1  0  0  0  0  0  0  0  0  0
    1.6608    1.1463    0.1002 N   0  0  0  0  0  0  0  0  0  0  0  0
    2.8529   -1.3906   -0.5265 O   0  0  0  0  0  0  0  0  0  0  0  0
    3.2271   -0.4425    2.6680 H   0  0  0  0  0  0  0  0  0  0  0  0
    1.7598   -0.9761    1.8287 H   0  0  0  0  0  0  0  0  0  0  0  0
    1.7753    0.5874    2.6677 H   0  0  0  0  0  0  0  0  0  0  0  0
    8.3279   -1.9436    2.1678 H   0  0  0  0  0  0  0  0  0  0  0  0
    6.3430   -3.4425    2.1695 H   0  0  0  0  0  0  0  0  0  0  0  0
    8.1780    0.2957    1.0950 H   0  0  0  0  0  0  0  0  0  0  0  0
    4.2214   -2.6967    1.1122 H   0  0  0  0  0  0  0  0  0  0  0  0
    6.0662    1.0222    0.0270 H   0  0  0  0  0  0  0  0  0  0  0  0
    3.4738    1.4518    1.0677 H   0  0  0  0  0  0  0  0  0  0  0  0
    3.9576    0.2998   -1.0117 H   0  0  0  0  0  0  0  0  0  0  0  0
    1.1193    0.3607   -0.2616 H   0  0  0  0  0  0  0  0  0  0  0  0
    1.9570    1.6758   -0.7206 H   0  0  0  0  0  0  0  0  0  0  0  0
    3.3574   -1.9546   -1.1332 H   0  0  0  0  0  0  0  0  0  0  0  0
  1 14  1  0  0  0  0
  1 12  1  0  0  0  0
  2 15  1  0  0  0  0
  3  2  1  0  0  0  0
  3 16  1  0  0  0  0
  4  2  2  0  0  0  0
  5  3  2  0  0  0  0
  6  8  2  0  0  0  0
  6  4  1  0  0  0  0
  7 20  1  1  0  0  0
  7  1  1  0  0  0  0
  8  5  1  0  0  0  0
  9 21  1  6  0  0  0
  9  8  1  0  0  0  0
  9  7  1  0  0  0  0
 10  7  1  0  0  0  0
 11  9  1  0  0  0  0
 13  1  1  0  0  0  0
 17  4  1  0  0  0  0
 18  5  1  0  0  0  0
 19  6  1  0  0  0  0
 22 10  1  0  0  0  0
 23 10  1  0  0  0  0
 24 11  1  0  0  0  0
M  END
>  <HBA>
2

>  <HBD>
2

>  <TPSA>
46.25

>  <cid>
4786

>  <dipole>
2.54

>  <excitation_energy_1>
5.12

>  <excitation_energy_2>
5.294

>  <excitation_energy_3>
5.38

>  <excitation_energy_4>
5.638

>  <homo_energy>
-6.052

>  <homo_lumo_gap>
5.927

>  <logP>
1.768

>  <lumo_energy>
-0.125

>  <melting_point>
78.69

>  <molecular_refractivity>
44.89

>  <oscillator_strength_1>
0.0112

>  <oscillator_strength_2>
0.1211

>  <oscillator_strength_3>
0.016

>  <oscillator_strength_4>
0.0069

>  <open_babel_can_smiles>
O[C@H](c1ccccc1)[C@@H](N)C

>  <mulliken_charges>
24
1   -0.447783
2   -0.128844
3   -0.129782
4   -0.130736
5   -0.183972
6   -0.18137
7   0.020133
8   0.116205
9   0.067217
10   -0.705436
11   -0.635356
12   0.149545
13   0.153917
14   0.157167
15   0.129804
16   0.130598
17   0.130393
18   0.139993
19   0.12316
20   0.131084
21   0.106152
22   0.306395
23   0.286387
24   0.395126

>  <lowdin_charges>
24
1   -0.454315
2   -0.159654
3   -0.153134
4   -0.154966
5   -0.171071
6   -0.166682
7   -0.07101
8   -0.027981
9   -0.021528
10   -0.545962
11   -0.461969
12   0.155751
13   0.154603
14   0.160779
15   0.158022
16   0.157122
17   0.158476
18   0.163667
19   0.153299
20   0.14266
21   0.126572
22   0.259331
23   0.249071
24   0.348919

$$$$

