PCCDB-ID:  36557
public computational chemistry database (PCCDB) project, http://pccdb.org

 31 32  0  0  0  0  0  0  0  0999 V2000
    0.9319   -0.0571    0.1562 C   0  0  0  0  0  0  0  0  0  0  0  0
    2.9338   -1.5486   -0.2289 C   0  0  0  0  0  0  0  0  0  0  0  0
    3.4707    1.1454   -3.5631 C   0  0  0  0  0  0  0  0  0  0  0  0
    3.5947    2.5161   -3.3535 C   0  0  0  0  0  0  0  0  0  0  0  0
    3.1155    0.3230   -2.4936 C   0  0  0  0  0  0  0  0  0  0  0  0
    3.3622    3.0611   -2.0926 C   0  0  0  0  0  0  0  0  0  0  0  0
    3.1655    6.1978    1.0484 C   0  0  0  0  0  0  0  0  0  0  0  0
    2.7010    5.5369    2.3773 C   0  0  0  0  0  0  0  0  0  0  0  0
    2.4611   -0.0948   -0.0651 C   0  0  0  0  0  0  0  0  0  0  0  0
    2.8756    0.8279   -1.2114 C   0  0  0  0  0  0  0  0  0  0  0  0
    3.0006    2.2288   -1.0235 C   0  0  0  0  0  0  0  0  0  0  0  0
    2.8691    4.0477    0.7034 C   0  0  0  0  0  0  0  0  0  0  0  0
    3.2077    5.1068    0.0708 N   0  0  0  0  0  0  0  0  0  0  0  0
    2.7517    2.7610    0.2583 N   0  0  0  0  0  0  0  0  0  0  0  0
    2.5583    4.1392    2.0388 O   0  0  0  0  0  0  0  0  0  0  0  0
    0.6457   -0.6736    1.0169 H   0  0  0  0  0  0  0  0  0  0  0  0
    0.4144   -0.4459   -0.7282 H   0  0  0  0  0  0  0  0  0  0  0  0
    0.5632    0.9600    0.3285 H   0  0  0  0  0  0  0  0  0  0  0  0
    2.7307   -2.1111    0.6892 H   0  0  0  0  0  0  0  0  0  0  0  0
    4.0084   -1.6023   -0.4320 H   0  0  0  0  0  0  0  0  0  0  0  0
    2.4069   -2.0588   -1.0431 H   0  0  0  0  0  0  0  0  0  0  0  0
    3.6503    0.7145   -4.5441 H   0  0  0  0  0  0  0  0  0  0  0  0
    3.8739    3.1751   -4.1714 H   0  0  0  0  0  0  0  0  0  0  0  0
    3.0285   -0.7454   -2.6632 H   0  0  0  0  0  0  0  0  0  0  0  0
    3.4588    4.1246   -1.9165 H   0  0  0  0  0  0  0  0  0  0  0  0
    4.1558    6.6604    1.1447 H   0  0  0  0  0  0  0  0  0  0  0  0
    2.4728    6.9808    0.7164 H   0  0  0  0  0  0  0  0  0  0  0  0
    1.7324    5.9024    2.7322 H   0  0  0  0  0  0  0  0  0  0  0  0
    3.4315    5.6180    3.1876 H   0  0  0  0  0  0  0  0  0  0  0  0
    2.9457    0.2670    0.8555 H   0  0  0  0  0  0  0  0  0  0  0  0
    2.4705    2.1172    0.9807 H   0  0  0  0  0  0  0  0  0  0  0  0
  1 18  1  0  0  0  0
  1 16  1  0  0  0  0
  2  9  1  0  0  0  0
  2 19  1  0  0  0  0
  3  4  2  0  0  0  0
  3  5  1  0  0  0  0
  4  6  1  0  0  0  0
  5 10  2  0  0  0  0
  6 25  1  0  0  0  0
  6 11  2  0  0  0  0
  7 26  1  0  0  0  0
  7  8  1  0  0  0  0
  8 28  1  0  0  0  0
  8 29  1  0  0  0  0
  9  1  1  0  0  0  0
  9 30  1  0  0  0  0
 10 11  1  0  0  0  0
 10  9  1  0  0  0  0
 11 14  1  0  0  0  0
 12 15  1  0  0  0  0
 13 12  2  0  0  0  0
 13  7  1  0  0  0  0
 14 12  1  0  0  0  0
 14 31  1  0  0  0  0
 15  8  1  0  0  0  0
 17  1  1  0  0  0  0
 20  2  1  0  0  0  0
 21  2  1  0  0  0  0
 22  3  1  0  0  0  0
 23  4  1  0  0  0  0
 24  5  1  0  0  0  0
 27  7  1  0  0  0  0
M  END
>  <HBA>
3

>  <HBD>
1

>  <TPSA>
33.62

>  <cid>
36557

>  <dipole>
2.18

>  <excitation_energy_1>
4.803

>  <excitation_energy_2>
4.962

>  <excitation_energy_3>
5.157

>  <excitation_energy_4>
5.404

>  <homo_energy>
-5.464

>  <homo_lumo_gap>
5.657

>  <logP>
2.117

>  <lumo_energy>
0.193

>  <melting_point>
71.54

>  <molecular_refractivity>
65.92

>  <oscillator_strength_1>
0.0345

>  <oscillator_strength_2>
0.0364

>  <oscillator_strength_3>
0.309

>  <oscillator_strength_4>
0.0034

>  <open_babel_can_smiles>
CC(c1ccccc1NC1=NCCO1)C

>  <mulliken_charges>
31
1   -0.438667
2   -0.450955
3   -0.125405
4   -0.14813
5   -0.210679
6   -0.165872
7   -0.16197
8   -0.057608
9   -0.181868
10   0.140452
11   0.287657
12   0.761231
13   -0.498539
14   -0.779343
15   -0.513477
16   0.143275
17   0.154059
18   0.148579
19   0.143945
20   0.155571
21   0.148859
22   0.120753
23   0.126846
24   0.121618
25   0.188141
26   0.152639
27   0.15259
28   0.156366
29   0.156761
30   0.125201
31   0.347968

>  <lowdin_charges>
31
1   -0.446486
2   -0.442197
3   -0.175352
4   -0.152625
5   -0.1632
6   -0.187587
7   -0.207979
8   -0.13855
9   -0.125315
10   -0.034491
11   0.053871
12   0.165409
13   -0.272845
14   -0.236148
15   -0.234138
16   0.149274
17   0.155416
18   0.149395
19   0.151941
20   0.154067
21   0.150122
22   0.154256
23   0.157883
24   0.154836
25   0.186769
26   0.147728
27   0.149493
28   0.150179
29   0.151544
30   0.137081
31   0.297648

$$$$

