PCCDB-ID:  186
public computational chemistry database (PCCDB) project, http://pccdb.org

 13 12  0  0  0  0  0  0  0  0999 V2000
    1.3059    0.9517    0.5640 C   0  0  0  0  0  0  0  0  0  0  0  0
    2.6837    0.4584    0.2272 C   0  0  0  0  0  0  0  0  0  0  0  0
    3.1993    0.5123   -0.8732 O   0  0  0  0  0  0  0  0  0  0  0  0
    4.9138   -1.7566    2.2737 O   0  0  0  0  0  0  0  0  0  0  0  0
    5.1734   -1.1231   -0.1062 O   0  0  0  0  0  0  0  0  0  0  0  0
    5.7810    0.6526    1.7826 O   0  0  0  0  0  0  0  0  0  0  0  0
    3.3097   -0.0610    1.3193 O   0  0  0  0  0  0  0  0  0  0  0  0
    4.9391   -0.4660    1.3230 P   0  0  0  0  0  0  0  0  0  0  0  0
    0.7817    1.2275   -0.3512 H   0  0  0  0  0  0  0  0  0  0  0  0
    1.3880    1.8244    1.2215 H   0  0  0  0  0  0  0  0  0  0  0  0
    0.7516    0.1819    1.1088 H   0  0  0  0  0  0  0  0  0  0  0  0
    5.3726   -1.5575    3.1070 H   0  0  0  0  0  0  0  0  0  0  0  0
    4.6885   -0.5870   -0.7788 H   0  0  0  0  0  0  0  0  0  0  0  0
  1 11  1  0  0  0  0
  1 10  1  0  0  0  0
  2  1  1  0  0  0  0
  2  7  1  0  0  0  0
  3  2  2  0  0  0  0
  4 12  1  0  0  0  0
  5  8  1  0  0  0  0
  7  8  1  0  0  0  0
  8  6  2  0  0  0  0
  8  4  1  0  0  0  0
  9  1  1  0  0  0  0
 13  5  1  0  0  0  0
M  END
>  <HBA>
5

>  <HBD>
2

>  <TPSA>
93.64

>  <cid>
186

>  <dipole>
3.53

>  <excitation_energy_1>
5.871

>  <excitation_energy_2>
6.644

>  <excitation_energy_3>
6.753

>  <excitation_energy_4>
7.17

>  <homo_energy>
-8.313

>  <homo_lumo_gap>
7.429

>  <logP>
-0.358

>  <lumo_energy>
-0.884

>  <melting_point>
77.21

>  <molecular_refractivity>
24.0

>  <oscillator_strength_1>
0.0009

>  <oscillator_strength_2>
0.0138

>  <oscillator_strength_3>
0.0312

>  <oscillator_strength_4>
0.0104

>  <open_babel_can_smiles>
CC(=O)OP(=O)(O)O

>  <mulliken_charges>
13
1   -0.52177
2   0.61835
3   -0.475077
4   -0.61277
5   -0.636535
6   -0.511075
7   -0.502913
8   1.132249
9   0.194916
10   0.204782
11   0.198196
12   0.450115
13   0.46153

>  <lowdin_charges>
13
1   -0.45861
2   0.234802
3   -0.256701
4   -0.541859
5   -0.554279
6   -0.561495
7   -0.335309
8   1.131277
9   0.183588
10   0.19242
11   0.188579
12   0.39259
13   0.384997

$$$$

