PCCDB-ID:  17567
public computational chemistry database (PCCDB) project, http://pccdb.org

 14 13  0  0  0  0  0  0  0  0999 V2000
    0.9277   -0.0328   -0.0150 C   0  0  0  0  0  0  0  0  0  0  0  0
    3.0993   -0.7885    1.0671 C   0  0  0  0  0  0  0  0  0  0  0  0
    2.9238   -0.5853   -1.4232 C   0  0  0  0  0  0  0  0  0  0  0  0
    2.4652   -0.0091   -0.0997 C   0  0  0  0  0  0  0  0  0  0  0  0
    3.5746   -0.0182   -2.3585 N   0  0  0  0  0  0  0  0  0  0  0  0
    0.5874    0.3800    0.9415 H   0  0  0  0  0  0  0  0  0  0  0  0
    0.5463   -1.0587   -0.0902 H   0  0  0  0  0  0  0  0  0  0  0  0
    0.4739    0.5542   -0.8208 H   0  0  0  0  0  0  0  0  0  0  0  0
    2.7693   -0.3797    2.0289 H   0  0  0  0  0  0  0  0  0  0  0  0
    4.1931   -0.7399    1.0328 H   0  0  0  0  0  0  0  0  0  0  0  0
    2.8086   -1.8459    1.0367 H   0  0  0  0  0  0  0  0  0  0  0  0
    2.6491   -1.6370   -1.5855 H   0  0  0  0  0  0  0  0  0  0  0  0
    2.8043    1.0360   -0.0512 H   0  0  0  0  0  0  0  0  0  0  0  0
    3.7781    0.9581   -2.1035 H   0  0  0  0  0  0  0  0  0  0  0  0
  1  6  1  0  0  0  0
  2  9  1  0  0  0  0
  3  4  1  0  0  0  0
  4 13  1  0  0  0  0
  4  1  1  0  0  0  0
  4  2  1  0  0  0  0
  5 14  1  0  0  0  0
  5  3  2  0  0  0  0
  7  1  1  0  0  0  0
  8  1  1  0  0  0  0
 10  2  1  0  0  0  0
 11  2  1  0  0  0  0
 12  3  1  0  0  0  0
M  END
>  <HBA>
1

>  <HBD>
1

>  <TPSA>
23.85

>  <cid>
17567

>  <dipole>
2.56

>  <excitation_energy_1>
5.339

>  <excitation_energy_2>
6.486

>  <excitation_energy_3>
6.897

>  <excitation_energy_4>
7.155

>  <homo_energy>
-6.89

>  <homo_lumo_gap>
7.021

>  <logP>
1.392

>  <lumo_energy>
0.131

>  <melting_point>
6.06

>  <molecular_refractivity>
24.93

>  <oscillator_strength_1>
0.0011

>  <oscillator_strength_2>
0.0098

>  <oscillator_strength_3>
0.0279

>  <oscillator_strength_4>
0.0501

>  <open_babel_can_smiles>
N=CC(C)C

>  <mulliken_charges>
14
1   -0.447971
2   -0.448216
3   0.092321
4   -0.122365
5   -0.518179
6   0.150247
7   0.149031
8   0.15582
9   0.150226
10   0.155822
11   0.148945
12   0.132006
13   0.126262
14   0.27605

>  <lowdin_charges>
14
1   -0.442138
2   -0.438239
3   -0.06723
4   -0.141416
5   -0.349792
6   0.153676
7   0.150428
8   0.156604
9   0.153496
10   0.153487
11   0.149829
12   0.141243
13   0.138779
14   0.241273

$$$$

