PCCDB-ID:  48373
public computational chemistry database (PCCDB) project, http://pccdb.org

 24 25  0  0  0  0  0  0  0  0999 V2000
    3.2684   -1.1198   -0.1463 C   0  0  0  0  0  0  0  0  0  0  0  0
    7.0501    4.1731   -0.1410 C   0  0  0  0  0  0  0  0  0  0  0  0
    4.3957    1.6388   -0.0960 C   0  0  0  0  0  0  0  0  0  0  0  0
    2.1479    2.5890   -0.1373 C   0  0  0  0  0  0  0  0  0  0  0  0
    3.1659    6.0327   -0.0860 C   0  0  0  0  0  0  0  0  0  0  0  0
    2.3766    0.1123   -0.1593 C   0  0  0  0  0  0  0  0  0  0  0  0
    3.0087    1.4684   -0.1285 C   0  0  0  0  0  0  0  0  0  0  0  0
    4.9996    2.9109   -0.0658 C   0  0  0  0  0  0  0  0  0  0  0  0
    2.7501    3.8237   -0.1098 C   0  0  0  0  0  0  0  0  0  0  0  0
    4.1351    4.0033   -0.0720 C   0  0  0  0  0  0  0  0  0  0  0  0
    1.1602   -0.0058   -0.1934 O   0  0  0  0  0  0  0  0  0  0  0  0
    6.3603    2.9293   -0.0225 O   0  0  0  0  0  0  0  0  0  0  0  0
    2.1312    5.0521   -0.1063 O   0  0  0  0  0  0  0  0  0  0  0  0
    4.4275    5.3498   -0.0382 O   0  0  0  0  0  0  0  0  0  0  0  0
    3.9024   -1.1410    0.7479 H   0  0  0  0  0  0  0  0  0  0  0  0
    3.9328   -1.1362   -1.0184 H   0  0  0  0  0  0  0  0  0  0  0  0
    2.6337   -2.0073   -0.1604 H   0  0  0  0  0  0  0  0  0  0  0  0
    8.1112    3.9175   -0.1200 H   0  0  0  0  0  0  0  0  0  0  0  0
    6.8164    4.8444    0.6910 H   0  0  0  0  0  0  0  0  0  0  0  0
    6.8120    4.6735   -1.0860 H   0  0  0  0  0  0  0  0  0  0  0  0
    5.0671    0.7878   -0.0917 H   0  0  0  0  0  0  0  0  0  0  0  0
    1.0740    2.4551   -0.1633 H   0  0  0  0  0  0  0  0  0  0  0  0
    3.0627    6.6612    0.8063 H   0  0  0  0  0  0  0  0  0  0  0  0
    3.1178    6.6413   -0.9977 H   0  0  0  0  0  0  0  0  0  0  0  0
  1 15  1  0  0  0  0
  2 18  1  0  0  0  0
  2 12  1  0  0  0  0
  2 19  1  0  0  0  0
  3 21  1  0  0  0  0
  3  8  2  0  0  0  0
  4  7  2  0  0  0  0
  4  9  1  0  0  0  0
  5 14  1  0  0  0  0
  5 23  1  0  0  0  0
  6  1  1  0  0  0  0
  6  7  1  0  0  0  0
  7  3  1  0  0  0  0
  8 12  1  0  0  0  0
  9 13  1  0  0  0  0
  9 10  2  0  0  0  0
 10  8  1  0  0  0  0
 10 14  1  0  0  0  0
 11  6  2  0  0  0  0
 13  5  1  0  0  0  0
 16  1  1  0  0  0  0
 17  1  1  0  0  0  0
 20  2  1  0  0  0  0
 22  4  1  0  0  0  0
 24  5  1  0  0  0  0
M  END
>  <HBA>
4

>  <HBD>
0

>  <TPSA>
44.76

>  <cid>
48373

>  <dipole>
4.44

>  <excitation_energy_1>
3.821

>  <excitation_energy_2>
4.104

>  <excitation_energy_3>
4.208

>  <excitation_energy_4>
5.263

>  <homo_energy>
-5.867

>  <homo_lumo_gap>
4.607

>  <logP>
1.627

>  <lumo_energy>
-1.26

>  <melting_point>
79.78

>  <molecular_refractivity>
49.19

>  <oscillator_strength_1>
0.0001

>  <oscillator_strength_2>
0.0284

>  <oscillator_strength_3>
0.1623

>  <oscillator_strength_4>
0.0101

>  <open_babel_can_smiles>
COc1cc(cc2c1OCO2)C(=O)C

>  <mulliken_charges>
24
1   -0.542828
2   -0.213428
3   -0.260965
4   -0.226734
5   0.197606
6   0.406878
7   0.070648
8   0.344082
9   0.343401
10   0.280977
11   -0.456669
12   -0.522315
13   -0.532078
14   -0.54467
15   0.171031
16   0.171036
17   0.179877
18   0.167059
19   0.165995
20   0.160004
21   0.144596
22   0.172571
23   0.163035
24   0.160892

>  <lowdin_charges>
24
1   -0.475234
2   -0.274584
3   -0.183744
4   -0.174804
5   0.018141
6   0.159573
7   -0.045702
8   0.078183
9   0.080501
10   0.040418
11   -0.24701
12   -0.200849
13   -0.200838
14   -0.213553
15   0.169968
16   0.170216
17   0.174562
18   0.159373
19   0.154533
20   0.151243
21   0.174026
22   0.186357
23   0.150811
24   0.148413

$$$$

