PCCDB-ID:  13164
public computational chemistry database (PCCDB) project, http://pccdb.org

 30 29  0  0  0  0  0  0  0  0999 V2000
    5.0534    2.3753    1.9515 C   0  0  0  0  0  0  0  0  0  0  0  0
    9.7028    3.7320   -5.8426 C   0  0  0  0  0  0  0  0  0  0  0  0
    4.6290    1.1940    1.0733 C   0  0  0  0  0  0  0  0  0  0  0  0
    9.2869    2.4761   -5.7230 C   0  0  0  0  0  0  0  0  0  0  0  0
    4.8783    1.4311   -0.4221 C   0  0  0  0  0  0  0  0  0  0  0  0
    4.4547    0.2454   -1.3008 C   0  0  0  0  0  0  0  0  0  0  0  0
    4.6042    0.4760   -2.8137 C   0  0  0  0  0  0  0  0  0  0  0  0
    6.0548    0.6312   -3.2909 C   0  0  0  0  0  0  0  0  0  0  0  0
    6.1504    0.7943   -4.8232 C   0  0  0  0  0  0  0  0  0  0  0  0
    7.5907    0.8960   -5.2657 C   0  0  0  0  0  0  0  0  0  0  0  0
    8.3382   -0.0362   -5.4484 O   0  0  0  0  0  0  0  0  0  0  0  0
    7.9699    2.2096   -5.3877 O   0  0  0  0  0  0  0  0  0  0  0  0
    4.8612    2.1754    3.0118 H   0  0  0  0  0  0  0  0  0  0  0  0
    4.5073    3.2873    1.6803 H   0  0  0  0  0  0  0  0  0  0  0  0
    6.1241    2.5870    1.8415 H   0  0  0  0  0  0  0  0  0  0  0  0
   10.7350    3.9349   -6.1036 H   0  0  0  0  0  0  0  0  0  0  0  0
    9.0364    4.5737   -5.6844 H   0  0  0  0  0  0  0  0  0  0  0  0
    3.5617    0.9837    1.2328 H   0  0  0  0  0  0  0  0  0  0  0  0
    5.1671    0.2895    1.3908 H   0  0  0  0  0  0  0  0  0  0  0  0
    9.8986    1.5933   -5.8677 H   0  0  0  0  0  0  0  0  0  0  0  0
    5.9440    1.6520   -0.5740 H   0  0  0  0  0  0  0  0  0  0  0  0
    4.3318    2.3316   -0.7417 H   0  0  0  0  0  0  0  0  0  0  0  0
    3.4025    0.0091   -1.0884 H   0  0  0  0  0  0  0  0  0  0  0  0
    5.0294   -0.6468   -1.0114 H   0  0  0  0  0  0  0  0  0  0  0  0
    4.0285    1.3670   -3.1047 H   0  0  0  0  0  0  0  0  0  0  0  0
    4.1479   -0.3696   -3.3474 H   0  0  0  0  0  0  0  0  0  0  0  0
    6.6398   -0.2485   -2.9921 H   0  0  0  0  0  0  0  0  0  0  0  0
    6.5224    1.5007   -2.8130 H   0  0  0  0  0  0  0  0  0  0  0  0
    5.6012    1.6857   -5.1420 H   0  0  0  0  0  0  0  0  0  0  0  0
    5.7161   -0.0818   -5.3161 H   0  0  0  0  0  0  0  0  0  0  0  0
  1 13  1  0  0  0  0
  2  4  2  0  0  0  0
  2 17  1  0  0  0  0
  3 18  1  0  0  0  0
  3 19  1  0  0  0  0
  3  1  1  0  0  0  0
  4 12  1  0  0  0  0
  5  3  1  0  0  0  0
  6 23  1  0  0  0  0
  6 24  1  0  0  0  0
  6  5  1  0  0  0  0
  7  6  1  0  0  0  0
  8 27  1  0  0  0  0
  8  7  1  0  0  0  0
  8 28  1  0  0  0  0
  9  8  1  0  0  0  0
 10  9  1  0  0  0  0
 11 10  2  0  0  0  0
 12 10  1  0  0  0  0
 14  1  1  0  0  0  0
 15  1  1  0  0  0  0
 16  2  1  0  0  0  0
 20  4  1  0  0  0  0
 21  5  1  0  0  0  0
 22  5  1  0  0  0  0
 25  7  1  0  0  0  0
 26  7  1  0  0  0  0
 29  9  1  0  0  0  0
 30  9  1  0  0  0  0
M  END
>  <HBA>
2

>  <HBD>
0

>  <TPSA>
26.3

>  <cid>
13164

>  <dipole>
1.83

>  <excitation_energy_1>
5.553

>  <excitation_energy_2>
5.883

>  <excitation_energy_3>
6.571

>  <excitation_energy_4>
6.881

>  <homo_energy>
-6.748

>  <homo_lumo_gap>
6.471

>  <logP>
3.034

>  <lumo_energy>
-0.278

>  <melting_point>
-37.38

>  <molecular_refractivity>
50.99

>  <oscillator_strength_1>
0.0029

>  <oscillator_strength_2>
0.3244

>  <oscillator_strength_3>
0.0543

>  <oscillator_strength_4>
0.026

>  <open_babel_can_smiles>
CCCCCCCC(=O)OC=C

>  <mulliken_charges>
30
1   -0.44204
2   -0.3885
3   -0.24732
4   0.154022
5   -0.248959
6   -0.256658
7   -0.256404
8   -0.272039
9   -0.34058
10   0.609212
11   -0.462595
12   -0.454189
13   0.142677
14   0.141429
15   0.142102
16   0.154376
17   0.154653
18   0.130554
19   0.131735
20   0.182897
21   0.132895
22   0.12658
23   0.130929
24   0.130924
25   0.131499
26   0.133076
27   0.1547
28   0.153387
29   0.16299
30   0.168647

>  <lowdin_charges>
30
1   -0.441517
2   -0.362563
3   -0.270535
4   -0.036461
5   -0.276251
6   -0.273863
7   -0.276027
8   -0.271273
9   -0.29717
10   0.210823
11   -0.254293
12   -0.15815
13   0.148311
14   0.14653
15   0.144984
16   0.171519
17   0.169996
18   0.13717
19   0.139909
20   0.175126
21   0.137532
22   0.137599
23   0.14123
24   0.140168
25   0.140228
26   0.143927
27   0.151841
28   0.149653
29   0.163626
30   0.167933

$$$$

