PCCDB-ID:  21326
public computational chemistry database (PCCDB) project, http://pccdb.org

 17 17  0  0  0  0  0  0  0  0999 V2000
    1.1502    0.8592   -0.2756 C   0  0  0  0  0  0  0  0  0  0  0  0
    2.0927   -2.2205   -0.0707 C   0  0  0  0  0  0  0  0  0  0  0  0
    4.7267    0.6793    0.1203 C   0  0  0  0  0  0  0  0  0  0  0  0
    2.5502    0.3423   -0.0975 C   0  0  0  0  0  0  0  0  0  0  0  0
    2.9370   -0.9791   -0.0275 C   0  0  0  0  0  0  0  0  0  0  0  0
    1.5912   -2.7593    1.2859 C   0  0  0  0  0  0  0  0  0  0  0  0
    3.5767    1.2662   -0.0124 N   0  0  0  0  0  0  0  0  0  0  0  0
    1.1214   -3.8623    1.3996 O   0  0  0  0  0  0  0  0  0  0  0  0
    1.6681   -1.9128    2.3355 O   0  0  0  0  0  0  0  0  0  0  0  0
    4.6768   -1.0633    0.1581 S   0  0  0  0  0  0  0  0  0  0  0  0
    0.4054    0.0601   -0.2466 H   0  0  0  0  0  0  0  0  0  0  0  0
    1.0574    1.3830   -1.2340 H   0  0  0  0  0  0  0  0  0  0  0  0
    0.9082    1.5827    0.5106 H   0  0  0  0  0  0  0  0  0  0  0  0
    2.6152   -3.0497   -0.5558 H   0  0  0  0  0  0  0  0  0  0  0  0
    1.1967   -2.0388   -0.6764 H   0  0  0  0  0  0  0  0  0  0  0  0
    5.6700    1.2070    0.2048 H   0  0  0  0  0  0  0  0  0  0  0  0
    2.1009   -1.0869    2.0479 H   0  0  0  0  0  0  0  0  0  0  0  0
  1 11  1  0  0  0  0
  1  4  1  0  0  0  0
  1 13  1  0  0  0  0
  2  5  1  0  0  0  0
  2  6  1  0  0  0  0
  3 10  1  0  0  0  0
  3 16  1  0  0  0  0
  4  5  2  0  0  0  0
  4  7  1  0  0  0  0
  5 10  1  0  0  0  0
  6  8  2  0  0  0  0
  6  9  1  0  0  0  0
  7  3  2  0  0  0  0
 12  1  1  0  0  0  0
 14  2  1  0  0  0  0
 15  2  1  0  0  0  0
 17  9  1  0  0  0  0
M  END
>  <HBA>
4

>  <HBD>
1

>  <TPSA>
78.43

>  <cid>
21326

>  <dipole>
3.67

>  <excitation_energy_1>
5.153

>  <excitation_energy_2>
5.264

>  <excitation_energy_3>
5.463

>  <excitation_energy_4>
5.561

>  <homo_energy>
-6.898

>  <homo_lumo_gap>
5.644

>  <logP>
1.079

>  <lumo_energy>
-1.254

>  <melting_point>
103.22

>  <molecular_refractivity>
38.62

>  <oscillator_strength_1>
0.1029

>  <oscillator_strength_2>
0.0376

>  <oscillator_strength_3>
0.0002

>  <oscillator_strength_4>
0.003

>  <open_babel_can_smiles>
Cc1ncsc1CC(=O)O

>  <mulliken_charges>
17
1   -0.506099
2   -0.430973
3   -0.120744
4   0.273667
5   -0.229296
6   0.594098
7   -0.37567
8   -0.437073
9   -0.560786
10   0.248418
11   0.156505
12   0.183302
13   0.181954
14   0.204269
15   0.206401
16   0.191389
17   0.420637

>  <lowdin_charges>
17
1   -0.443717
2   -0.313993
3   -0.225305
4   0.005192
5   -0.212366
6   0.185963
7   -0.154027
8   -0.238257
9   -0.34696
10   0.303204
11   0.160604
12   0.17467
13   0.174994
14   0.191315
15   0.190059
16   0.187424
17   0.361201

$$$$

