PCCDB-ID:  19462
public computational chemistry database (PCCDB) project, http://pccdb.org

 15 15  0  0  0  0  0  0  0  0999 V2000
    0.9853    0.0072    0.0361 C   0  0  0  0  0  0  0  0  0  0  0  0
    5.9528    1.4357    0.0588 C   0  0  0  0  0  0  0  0  0  0  0  0
    3.3398    1.1882    0.0465 C   0  0  0  0  0  0  0  0  0  0  0  0
    3.3430   -1.0359    0.0509 C   0  0  0  0  0  0  0  0  0  0  0  0
    2.4895    0.0268    0.0437 C   0  0  0  0  0  0  0  0  0  0  0  0
    4.6309    0.7499    0.0535 C   0  0  0  0  0  0  0  0  0  0  0  0
    4.6457   -0.6179    0.0568 O   0  0  0  0  0  0  0  0  0  0  0  0
    0.5855    1.0261    0.0456 H   0  0  0  0  0  0  0  0  0  0  0  0
    0.5779   -0.5123    0.9117 H   0  0  0  0  0  0  0  0  0  0  0  0
    0.5864   -0.4922   -0.8550 H   0  0  0  0  0  0  0  0  0  0  0  0
    5.8088    2.5197    0.0664 H   0  0  0  0  0  0  0  0  0  0  0  0
    6.5465    1.1759   -0.8267 H   0  0  0  0  0  0  0  0  0  0  0  0
    6.5453    1.1630    0.9411 H   0  0  0  0  0  0  0  0  0  0  0  0
    3.0160    2.2211    0.0419 H   0  0  0  0  0  0  0  0  0  0  0  0
    3.1973   -2.1060    0.0522 H   0  0  0  0  0  0  0  0  0  0  0  0
  1  5  1  0  0  0  0
  1  8  1  0  0  0  0
  1  9  1  0  0  0  0
  2 11  1  0  0  0  0
  2 13  1  0  0  0  0
  3  6  2  0  0  0  0
  4 15  1  0  0  0  0
  4  7  1  0  0  0  0
  5  3  1  0  0  0  0
  5  4  2  0  0  0  0
  6  7  1  0  0  0  0
  6  2  1  0  0  0  0
 10  1  1  0  0  0  0
 12  2  1  0  0  0  0
 14  3  1  0  0  0  0
M  END
>  <HBA>
1

>  <HBD>
0

>  <TPSA>
13.14

>  <cid>
19462

>  <dipole>
0.7

>  <excitation_energy_1>
5.285

>  <excitation_energy_2>
5.603

>  <excitation_energy_3>
5.688

>  <excitation_energy_4>
5.938

>  <homo_energy>
-5.595

>  <homo_lumo_gap>
6.248

>  <logP>
1.896

>  <lumo_energy>
0.653

>  <melting_point>
11.22

>  <molecular_refractivity>
28.64

>  <oscillator_strength_1>
0.0003

>  <oscillator_strength_2>
0.0

>  <oscillator_strength_3>
0.1473

>  <oscillator_strength_4>
0.0126

>  <open_babel_can_smiles>
Cc1occ(c1)C

>  <mulliken_charges>
15
1   -0.529611
2   -0.526312
3   -0.242027
4   0.027218
5   0.113009
6   0.347486
7   -0.438475
8   0.156355
9   0.162029
10   0.162153
11   0.16361
12   0.168673
13   0.16875
14   0.124886
15   0.142254

>  <lowdin_charges>
15
1   -0.438848
2   -0.439993
3   -0.232426
4   -0.103508
5   -0.043901
6   0.068437
7   -0.110317
8   0.158326
9   0.16107
10   0.160952
11   0.16512
12   0.165498
13   0.165675
14   0.160729
15   0.163185

$$$$

