PCCDB-ID:  27254
public computational chemistry database (PCCDB) project, http://pccdb.org

 30 31  0  0  1  0  0  0  0  0999 V2000
    0.9137    0.0759    0.1924 C   0  0  0  0  0  0  0  0  0  0  0  0
    5.4321   -1.2207   -1.9739 C   0  0  0  0  0  0  0  0  0  0  0  0
    5.2188   -1.2291    0.5079 C   0  0  0  0  0  0  0  0  0  0  0  0
    2.7905    2.6791   -0.4124 C   0  0  0  0  0  0  0  0  0  0  0  0
    2.4790   -0.6919   -2.2586 C   0  0  0  0  0  0  0  0  0  0  0  0
    2.5599    0.8641   -2.2748 C   0  0  0  0  0  0  0  0  0  0  0  0
    2.4332    0.0780    0.0156 C   0  0  1  0  0  0  0  0  0  0  0  0
    3.0445   -1.0513   -0.8637 C   0  0  2  0  0  0  0  0  0  0  0  0
    4.5148    0.8264   -0.7961 C   0  0  0  0  0  0  0  0  0  0  0  0
    4.5707   -0.7221   -0.7996 C   0  0  0  0  0  0  0  0  0  0  0  0
    3.0395    1.2405   -0.8300 C   0  0  2  0  0  0  0  0  0  0  0  0
    5.4762    1.5666   -0.7728 O   0  0  0  0  0  0  0  0  0  0  0  0
    0.5891   -0.8439    0.6941 H   0  0  0  0  0  0  0  0  0  0  0  0
    0.3695    0.1446   -0.7546 H   0  0  0  0  0  0  0  0  0  0  0  0
    0.5962    0.9195    0.8160 H   0  0  0  0  0  0  0  0  0  0  0  0
    5.4085   -2.3156   -2.0349 H   0  0  0  0  0  0  0  0  0  0  0  0
    6.4701   -0.9079   -1.8221 H   0  0  0  0  0  0  0  0  0  0  0  0
    5.1131   -0.8191   -2.9398 H   0  0  0  0  0  0  0  0  0  0  0  0
    5.3249   -2.3202    0.4742 H   0  0  0  0  0  0  0  0  0  0  0  0
    4.6366   -0.9774    1.3994 H   0  0  0  0  0  0  0  0  0  0  0  0
    6.2149   -0.7901    0.6253 H   0  0  0  0  0  0  0  0  0  0  0  0
    1.7300    2.9419   -0.4993 H   0  0  0  0  0  0  0  0  0  0  0  0
    3.3676    3.3656   -1.0410 H   0  0  0  0  0  0  0  0  0  0  0  0
    3.1031    2.8497    0.6242 H   0  0  0  0  0  0  0  0  0  0  0  0
    3.0304   -1.1586   -3.0783 H   0  0  0  0  0  0  0  0  0  0  0  0
    1.4429   -1.0334   -2.3486 H   0  0  0  0  0  0  0  0  0  0  0  0
    1.5835    1.3220   -2.4681 H   0  0  0  0  0  0  0  0  0  0  0  0
    3.2459    1.2496   -3.0371 H   0  0  0  0  0  0  0  0  0  0  0  0
    2.8780    0.0769    1.0187 H   0  0  0  0  0  0  0  0  0  0  0  0
    2.8137   -2.0727   -0.5412 H   0  0  0  0  0  0  0  0  0  0  0  0
  1 13  1  0  0  0  0
  1 15  1  0  0  0  0
  2 17  1  0  0  0  0
  2 10  1  0  0  0  0
  3 21  1  0  0  0  0
  3 20  1  0  0  0  0
  4 24  1  0  0  0  0
  5  8  1  0  0  0  0
  6  5  1  0  0  0  0
  6 11  1  0  0  0  0
  7  1  1  0  0  0  0
  7 29  1  1  0  0  0
  8 10  1  0  0  0  0
  8 30  1  1  0  0  0
  8  7  1  0  0  0  0
  9 12  2  0  0  0  0
 10  9  1  0  0  0  0
 10  3  1  0  0  0  0
 11  9  1  0  0  0  0
 11  4  1  1  0  0  0
 11  7  1  0  0  0  0
 14  1  1  0  0  0  0
 16  2  1  0  0  0  0
 18  2  1  0  0  0  0
 19  3  1  0  0  0  0
 22  4  1  0  0  0  0
 23  4  1  0  0  0  0
 25  5  1  0  0  0  0
 26  5  1  0  0  0  0
 27  6  1  0  0  0  0
 28  6  1  0  0  0  0
M  END
>  <HBA>
1

>  <HBD>
0

>  <TPSA>
17.07

>  <cid>
27254

>  <dipole>
2.78

>  <excitation_energy_1>
4.176

>  <excitation_energy_2>
5.73

>  <excitation_energy_3>
6.13

>  <excitation_energy_4>
6.183

>  <homo_energy>
-6.153

>  <homo_lumo_gap>
5.94

>  <logP>
2.648

>  <lumo_energy>
-0.212

>  <melting_point>
74.04

>  <molecular_refractivity>
50.44

>  <oscillator_strength_1>
0.0

>  <oscillator_strength_2>
0.006

>  <oscillator_strength_3>
0.0052

>  <oscillator_strength_4>
0.0152

>  <open_babel_can_smiles>
C[C@H]1[C@H]2CC[C@]1(C)C(=O)C2(C)C

>  <mulliken_charges>
30
1   -0.461317
2   -0.461853
3   -0.461354
4   -0.472702
5   -0.285228
6   -0.299238
7   -0.107354
8   -0.12141
9   0.439647
10   0.044562
11   0.029078
12   -0.479628
13   0.147003
14   0.147269
15   0.150914
16   0.142651
17   0.164872
18   0.147713
19   0.144643
20   0.148009
21   0.166431
22   0.138872
23   0.162899
24   0.148371
25   0.14368
26   0.141671
27   0.147405
28   0.151222
29   0.128947
30   0.114224

>  <lowdin_charges>
30
1   -0.447886
2   -0.435512
3   -0.435405
4   -0.43915
5   -0.28832
6   -0.283005
7   -0.131956
8   -0.135982
9   0.156331
10   -0.022017
11   -0.027138
12   -0.236736
13   0.153641
14   0.15052
15   0.155142
16   0.148177
17   0.1614
18   0.150805
19   0.148933
20   0.15008
21   0.161061
22   0.147712
23   0.164175
24   0.153775
25   0.150261
26   0.146325
27   0.150636
28   0.152565
29   0.141684
30   0.139884

$$$$

