PCCDB-ID:  31244
public computational chemistry database (PCCDB) project, http://pccdb.org

 18 18  0  0  0  0  0  0  0  0999 V2000
    2.3263   -1.0413    0.9671 C   0  0  0  0  0  0  0  0  0  0  0  0
    4.2390   -1.7301   -3.3868 C   0  0  0  0  0  0  0  0  0  0  0  0
    3.5308   -3.6648   -2.1204 C   0  0  0  0  0  0  0  0  0  0  0  0
    3.8344   -0.8979   -2.3556 C   0  0  0  0  0  0  0  0  0  0  0  0
    3.1192   -2.8437   -1.0771 C   0  0  0  0  0  0  0  0  0  0  0  0
    4.5261   -4.0019   -4.3853 C   0  0  0  0  0  0  0  0  0  0  0  0
    4.0931   -3.1238   -3.2846 C   0  0  0  0  0  0  0  0  0  0  0  0
    3.2706   -1.4508   -1.1925 C   0  0  0  0  0  0  0  0  0  0  0  0
    4.4445   -5.2176   -4.3835 O   0  0  0  0  0  0  0  0  0  0  0  0
    2.9036   -0.5566   -0.2389 O   0  0  0  0  0  0  0  0  0  0  0  0
    2.1162   -0.1571    1.5708 H   0  0  0  0  0  0  0  0  0  0  0  0
    3.0206   -1.6953    1.5094 H   0  0  0  0  0  0  0  0  0  0  0  0
    1.3908   -1.5815    0.7751 H   0  0  0  0  0  0  0  0  0  0  0  0
    4.6744   -1.3018   -4.2873 H   0  0  0  0  0  0  0  0  0  0  0  0
    3.4230   -4.7432   -2.0520 H   0  0  0  0  0  0  0  0  0  0  0  0
    3.9384    0.1806   -2.4173 H   0  0  0  0  0  0  0  0  0  0  0  0
    2.6859   -3.2837   -0.1864 H   0  0  0  0  0  0  0  0  0  0  0  0
    4.9536   -3.4653   -5.2627 H   0  0  0  0  0  0  0  0  0  0  0  0
  1 12  1  0  0  0  0
  1 11  1  0  0  0  0
  2  7  2  0  0  0  0
  2  4  1  0  0  0  0
  3 15  1  0  0  0  0
  3  5  2  0  0  0  0
  4  8  2  0  0  0  0
  5 17  1  0  0  0  0
  6  9  2  0  0  0  0
  6  7  1  0  0  0  0
  7  3  1  0  0  0  0
  8  5  1  0  0  0  0
  8 10  1  0  0  0  0
 10  1  1  0  0  0  0
 13  1  1  0  0  0  0
 14  2  1  0  0  0  0
 16  4  1  0  0  0  0
 18  6  1  0  0  0  0
M  END
>  <HBA>
2

>  <HBD>
0

>  <TPSA>
26.3

>  <cid>
31244

>  <dipole>
4.02

>  <excitation_energy_1>
3.778

>  <excitation_energy_2>
4.631

>  <excitation_energy_3>
4.779

>  <excitation_energy_4>
5.469

>  <homo_energy>
-6.357

>  <homo_lumo_gap>
4.95

>  <logP>
1.508

>  <lumo_energy>
-1.407

>  <melting_point>
43.19

>  <molecular_refractivity>
38.32

>  <oscillator_strength_1>
0.0001

>  <oscillator_strength_2>
0.3613

>  <oscillator_strength_3>
0.0016

>  <oscillator_strength_4>
0.0

>  <open_babel_can_smiles>
COc1ccc(cc1)C=O

>  <mulliken_charges>
18
1   -0.221005
2   -0.181997
3   -0.167868
4   -0.175381
5   -0.194079
6   0.188148
7   0.096074
8   0.386127
9   -0.41811
10   -0.498335
11   0.176706
12   0.15953
13   0.159489
14   0.141439
15   0.164776
16   0.146662
17   0.141237
18   0.096587

>  <lowdin_charges>
18
1   -0.279203
2   -0.133035
3   -0.110707
4   -0.181235
5   -0.210346
6   0.039402
7   -0.074709
8   0.117351
9   -0.239603
10   -0.186019
11   0.167511
12   0.151362
13   0.149687
14   0.163607
15   0.174625
16   0.168819
17   0.166975
18   0.115518

$$$$

