PCCDB-ID:  9227
public computational chemistry database (PCCDB) project, http://pccdb.org

 14 15  0  0  0  0  0  0  0  0999 V2000
    0.9062   -1.4024   -0.0027 C   0  0  0  0  0  0  0  0  0  0  0  0
    2.0686   -0.6383   -0.0046 C   0  0  0  0  0  0  0  0  0  0  0  0
    0.9613    1.3894   -0.0005 C   0  0  0  0  0  0  0  0  0  0  0  0
   -2.3341   -0.0504    0.0049 C   0  0  0  0  0  0  0  0  0  0  0  0
   -0.3049   -0.7019    0.0002 C   0  0  0  0  0  0  0  0  0  0  0  0
   -0.2588    0.7114    0.0016 C   0  0  0  0  0  0  0  0  0  0  0  0
    2.1088    0.7131   -0.0036 N   0  0  0  0  0  0  0  0  0  0  0  0
   -1.6190   -1.1477    0.0025 N   0  0  0  0  0  0  0  0  0  0  0  0
   -1.5873    1.1035    0.0053 N   0  0  0  0  0  0  0  0  0  0  0  0
    0.9354   -2.4870   -0.0038 H   0  0  0  0  0  0  0  0  0  0  0  0
    3.0391   -1.1298   -0.0071 H   0  0  0  0  0  0  0  0  0  0  0  0
    1.0231    2.4770    0.0003 H   0  0  0  0  0  0  0  0  0  0  0  0
   -3.4167   -0.0167    0.0079 H   0  0  0  0  0  0  0  0  0  0  0  0
   -1.9435    2.0478   -0.0009 H   0  0  0  0  0  0  0  0  0  0  0  0
  1  5  2  0  0  0  0
  2  7  2  0  0  0  0
  2  1  1  0  0  0  0
  3 12  1  0  0  0  0
  3  6  2  0  0  0  0
  4  9  1  0  0  0  0
  4 13  1  0  0  0  0
  5  6  1  0  0  0  0
  5  8  1  0  0  0  0
  6  9  1  0  0  0  0
  7  3  1  0  0  0  0
  8  4  2  0  0  0  0
 10  1  1  0  0  0  0
 11  2  1  0  0  0  0
 14  9  1  0  0  0  0
M  END
>  <HBA>
2

>  <HBD>
1

>  <TPSA>
41.57

>  <cid>
9227

>  <dipole>
3.77

>  <excitation_energy_1>
4.776

>  <excitation_energy_2>
4.987

>  <excitation_energy_3>
5.441

>  <excitation_energy_4>
5.637

>  <homo_energy>
-6.501

>  <homo_lumo_gap>
5.663

>  <logP>
0.958

>  <lumo_energy>
-0.838

>  <melting_point>
125.94

>  <molecular_refractivity>
33.89

>  <oscillator_strength_1>
0.0021

>  <oscillator_strength_2>
0.0617

>  <oscillator_strength_3>
0.0659

>  <oscillator_strength_4>
0.001

>  <open_babel_can_smiles>
c1ncc2c(c1)nc[nH]2

>  <mulliken_charges>
14
1   -0.183782
2   0.020164
3   0.015149
4   0.235379
5   0.254812
6   0.319532
7   -0.429147
8   -0.484882
9   -0.681101
10   0.146995
11   0.140047
12   0.137158
13   0.169574
14   0.340103

>  <lowdin_charges>
14
1   -0.170549
2   -0.105812
3   -0.10876
4   -0.044732
5   0.02602
6   -0.006265
7   -0.15596
8   -0.18725
9   -0.197857
10   0.170748
11   0.157142
12   0.153215
13   0.170617
14   0.299442

$$$$

