PCCDB-ID:  22443
public computational chemistry database (PCCDB) project, http://pccdb.org

 26 25  0  0  0  0  0  0  0  0999 V2000
    0.8136    0.3940   -0.2405 C   0  0  0  0  0  0  0  0  0  0  0  0
    7.5316   -0.8400   -4.0207 C   0  0  0  0  0  0  0  0  0  0  0  0
    2.3391    0.4450   -0.1090 C   0  0  0  0  0  0  0  0  0  0  0  0
    3.0509    0.6952   -1.4450 C   0  0  0  0  0  0  0  0  0  0  0  0
    4.5790    0.7338   -1.3195 C   0  0  0  0  0  0  0  0  0  0  0  0
    5.2832    0.9980   -2.6680 C   0  0  0  0  0  0  0  0  0  0  0  0
    6.7703    1.0980   -2.5180 C   0  0  0  0  0  0  0  0  0  0  0  0
    7.6983    0.3170   -3.0854 C   0  0  0  0  0  0  0  0  0  0  0  0
    9.1138    0.6230   -2.7554 N   0  0  0  0  0  0  0  0  0  0  0  0
    9.3713    1.5561   -1.9944 O   0  0  0  0  0  0  0  0  0  0  0  0
    9.9653   -0.0978   -3.2802 O   0  0  0  0  0  0  0  0  0  0  0  0
    0.3351    0.2225    0.7302 H   0  0  0  0  0  0  0  0  0  0  0  0
    0.5000   -0.4132   -0.9138 H   0  0  0  0  0  0  0  0  0  0  0  0
    0.4185    1.3339   -0.6451 H   0  0  0  0  0  0  0  0  0  0  0  0
    6.4731   -1.0203   -4.2189 H   0  0  0  0  0  0  0  0  0  0  0  0
    7.9693   -1.7513   -3.6012 H   0  0  0  0  0  0  0  0  0  0  0  0
    8.0388   -0.6541   -4.9728 H   0  0  0  0  0  0  0  0  0  0  0  0
    2.7018   -0.4984    0.3226 H   0  0  0  0  0  0  0  0  0  0  0  0
    2.6198    1.2333    0.6037 H   0  0  0  0  0  0  0  0  0  0  0  0
    2.6965    1.6441   -1.8742 H   0  0  0  0  0  0  0  0  0  0  0  0
    2.7638   -0.0888   -2.1613 H   0  0  0  0  0  0  0  0  0  0  0  0
    4.9406   -0.2177   -0.9069 H   0  0  0  0  0  0  0  0  0  0  0  0
    4.8703    1.5112   -0.5994 H   0  0  0  0  0  0  0  0  0  0  0  0
    4.9140    1.9527   -3.0723 H   0  0  0  0  0  0  0  0  0  0  0  0
    5.0002    0.2242   -3.3894 H   0  0  0  0  0  0  0  0  0  0  0  0
    7.1387    1.8824   -1.8614 H   0  0  0  0  0  0  0  0  0  0  0  0
  1  3  1  0  0  0  0
  1 12  1  0  0  0  0
  2 16  1  0  0  0  0
  2  8  1  0  0  0  0
  3 18  1  0  0  0  0
  3 19  1  0  0  0  0
  4  5  1  0  0  0  0
  4  3  1  0  0  0  0
  5 22  1  0  0  0  0
  5 23  1  0  0  0  0
  6  7  1  0  0  0  0
  6  5  1  0  0  0  0
  7 26  1  0  0  0  0
  8  9  1  0  0  0  0
  8  7  2  0  0  0  0
  9 10  2  0  0  0  0
 11  9  2  0  0  0  0
 13  1  1  0  0  0  0
 14  1  1  0  0  0  0
 15  2  1  0  0  0  0
 17  2  1  0  0  0  0
 20  4  1  0  0  0  0
 21  4  1  0  0  0  0
 24  6  1  0  0  0  0
 25  6  1  0  0  0  0
M  END
>  <HBA>
0

>  <HBD>
0

>  <TPSA>
45.82

>  <cid>
22443

>  <dipole>
4.8

>  <excitation_energy_1>
3.723

>  <excitation_energy_2>
4.261

>  <excitation_energy_3>
4.726

>  <excitation_energy_4>
6.017

>  <homo_energy>
-7.502

>  <homo_lumo_gap>
5.374

>  <logP>
3.27

>  <lumo_energy>
-2.128

>  <melting_point>
16.08

>  <molecular_refractivity>
48.2

>  <oscillator_strength_1>
0.0

>  <oscillator_strength_2>
0.0011

>  <oscillator_strength_3>
0.2512

>  <oscillator_strength_4>
0.1099

>  <open_babel_can_smiles>
CCCCC/C=C(/N(=O)=O)\C

>  <mulliken_charges>
26
1   -0.442573
2   -0.510563
3   -0.249021
4   -0.247961
5   -0.259975
6   -0.316038
7   -0.138917
8   0.271678
9   0.415932
10   -0.406494
11   -0.392155
12   0.146113
13   0.142979
14   0.143285
15   0.158598
16   0.185336
17   0.185495
18   0.134155
19   0.134476
20   0.131414
21   0.130708
22   0.144121
23   0.142176
24   0.160279
25   0.150467
26   0.186484

>  <lowdin_charges>
26
1   -0.44509
2   -0.442396
3   -0.27261
4   -0.275321
5   -0.271768
6   -0.272217
7   -0.122178
8   -0.004587
9   0.303732
10   -0.258577
11   -0.252034
12   0.151601
13   0.147993
14   0.147525
15   0.161353
16   0.17632
17   0.175945
18   0.141027
19   0.141829
20   0.13971
21   0.140059
22   0.146022
23   0.145928
24   0.160579
25   0.151271
26   0.185883

$$$$

