PCCDB-ID:  14496
public computational chemistry database (PCCDB) project, http://pccdb.org

 11 11  0  0  0  0  0  0  0  0999 V2000
    0.3408    1.0488    0.0393 C   0  0  0  0  0  0  0  0  0  0  0  0
   -1.0586    0.3614   -0.0145 C   0  0  0  0  0  0  0  0  0  0  0  0
    1.0481   -0.3410    0.0800 C   0  0  0  0  0  0  0  0  0  0  0  0
   -0.3420   -1.0007    0.0253 C   0  0  0  0  0  0  0  0  0  0  0  0
   -0.7222   -2.1424    0.0157 O   0  0  0  0  0  0  0  0  0  0  0  0
    0.5050    1.6608    0.9295 H   0  0  0  0  0  0  0  0  0  0  0  0
    0.5799    1.6471   -0.8432 H   0  0  0  0  0  0  0  0  0  0  0  0
   -1.6422    0.5253   -0.9277 H   0  0  0  0  0  0  0  0  0  0  0  0
   -1.7161    0.5383    0.8444 H   0  0  0  0  0  0  0  0  0  0  0  0
    1.6087   -0.5705    0.9933 H   0  0  0  0  0  0  0  0  0  0  0  0
    1.6845   -0.5840   -0.7787 H   0  0  0  0  0  0  0  0  0  0  0  0
  1  3  1  0  0  0  0
  1  6  1  0  0  0  0
  2  4  1  0  0  0  0
  2  1  1  0  0  0  0
  2  9  1  0  0  0  0
  3 10  1  0  0  0  0
  4  3  1  0  0  0  0
  5  4  2  0  0  0  0
  7  1  1  0  0  0  0
  8  2  1  0  0  0  0
 11  3  1  0  0  0  0
M  END
>  <HBA>
1

>  <HBD>
0

>  <TPSA>
17.07

>  <cid>
14496

>  <dipole>
2.78

>  <excitation_energy_1>
4.233

>  <excitation_energy_2>
6.309

>  <excitation_energy_3>
6.683

>  <excitation_energy_4>
6.904

>  <homo_energy>
-6.593

>  <homo_lumo_gap>
6.008

>  <logP>
0.739

>  <lumo_energy>
-0.585

>  <melting_point>
18.73

>  <molecular_refractivity>
19.43

>  <oscillator_strength_1>
0.0

>  <oscillator_strength_2>
0.0662

>  <oscillator_strength_3>
0.0006

>  <oscillator_strength_4>
0.0082

>  <open_babel_can_smiles>
O=C1CCC1

>  <mulliken_charges>
11
1   -0.295784
2   -0.357918
3   -0.357991
4   0.423117
5   -0.414041
6   0.15237
7   0.152444
8   0.174438
9   0.174455
10   0.174448
11   0.174461

>  <lowdin_charges>
11
1   -0.286643
2   -0.324997
3   -0.326185
4   0.154998
5   -0.206055
6   0.153398
7   0.153541
8   0.170323
9   0.170594
10   0.170378
11   0.170646

$$$$

