PCCDB-ID:  72418
public computational chemistry database (PCCDB) project, http://pccdb.org

 14 14  0  0  1  0  0  0  0  0999 V2000
   -0.6439   -1.1900   -0.2343 C   0  0  0  0  0  0  0  0  0  0  0  0
    0.8041   -0.8499    0.1196 C   0  0  0  0  0  0  0  0  0  0  0  0
   -1.5557   -0.0517    0.2455 C   0  0  1  0  0  0  0  0  0  0  0  0
   -1.7309   -0.0910    1.7838 C   0  0  0  0  0  0  0  0  0  0  0  0
   -2.0086   -1.1295    2.3352 O   0  0  0  0  0  0  0  0  0  0  0  0
   -1.5879    1.0585    2.4553 O   0  0  0  0  0  0  0  0  0  0  0  0
    1.1723    0.8798   -0.4277 S   0  0  0  0  0  0  0  0  0  0  0  0
   -0.8792    1.5309   -0.4270 S   0  0  0  0  0  0  0  0  0  0  0  0
   -0.9479   -2.1168    0.2620 H   0  0  0  0  0  0  0  0  0  0  0  0
   -0.7525   -1.3112   -1.3157 H   0  0  0  0  0  0  0  0  0  0  0  0
    1.5111   -1.5022   -0.4003 H   0  0  0  0  0  0  0  0  0  0  0  0
    0.9760   -0.9281    1.1968 H   0  0  0  0  0  0  0  0  0  0  0  0
   -2.5555   -0.1582   -0.1901 H   0  0  0  0  0  0  0  0  0  0  0  0
   -1.3128    1.7574    1.8219 H   0  0  0  0  0  0  0  0  0  0  0  0
  1  2  1  0  0  0  0
  1  3  1  0  0  0  0
  1  9  1  0  0  0  0
  2 12  1  0  0  0  0
  3 13  1  6  0  0  0
  3  4  1  0  0  0  0
  4  5  2  0  0  0  0
  4  6  1  0  0  0  0
  7  8  1  0  0  0  0
  7  2  1  0  0  0  0
  8  3  1  0  0  0  0
 10  1  1  0  0  0  0
 11  2  1  0  0  0  0
 14  6  1  0  0  0  0
M  END
>  <HBA>
4

>  <HBD>
1

>  <TPSA>
87.9

>  <cid>
72418

>  <dipole>
2.47

>  <excitation_energy_1>
3.049

>  <excitation_energy_2>
4.451

>  <excitation_energy_3>
4.734

>  <excitation_energy_4>
4.999

>  <homo_energy>
-6.136

>  <homo_lumo_gap>
4.338

>  <logP>
1.225

>  <lumo_energy>
-1.799

>  <melting_point>
92.44

>  <molecular_refractivity>
36.18

>  <oscillator_strength_1>
0.0011

>  <oscillator_strength_2>
0.0

>  <oscillator_strength_3>
0.0001

>  <oscillator_strength_4>
0.0001

>  <open_babel_can_smiles>
OC(=O)[C@@H]1CCSS1

>  <mulliken_charges>
14
1   -0.277848
2   -0.429663
3   -0.377505
4   0.609087
5   -0.444647
6   -0.554554
7   0.04248
8   -0.009865
9   0.203803
10   0.179776
11   0.201147
12   0.205034
13   0.223276
14   0.429478

>  <lowdin_charges>
14
1   -0.274329
2   -0.371079
3   -0.268732
4   0.180079
5   -0.246228
6   -0.337488
7   0.031317
8   0.028894
9   0.183642
10   0.165173
11   0.18381
12   0.169985
13   0.197689
14   0.357267

$$$$

