PCCDB-ID:  46479
public computational chemistry database (PCCDB) project, http://pccdb.org

 22 22  0  0  0  0  0  0  0  0999 V2000
    0.9637    0.0007    0.1055 C   0  0  0  0  0  0  0  0  0  0  0  0
    5.3351    2.5018    0.0886 C   0  0  0  0  0  0  0  0  0  0  0  0
    6.7322   -0.0719    0.0803 C   0  0  0  0  0  0  0  0  0  0  0  0
    3.2016    1.1896    0.0997 C   0  0  0  0  0  0  0  0  0  0  0  0
    2.4876   -2.4677    0.0996 C   0  0  0  0  0  0  0  0  0  0  0  0
    2.4705   -0.0207    0.1014 C   0  0  0  0  0  0  0  0  0  0  0  0
    4.5787    1.2002    0.0925 C   0  0  0  0  0  0  0  0  0  0  0  0
    3.1728   -1.2160    0.0977 C   0  0  0  0  0  0  0  0  0  0  0  0
    4.6269   -1.2588    0.0915 C   0  0  0  0  0  0  0  0  0  0  0  0
    1.8788   -3.4602    0.1015 N   0  0  0  0  0  0  0  0  0  0  0  0
    5.2669    0.0163    0.0885 N   0  0  0  0  0  0  0  0  0  0  0  0
    5.3140   -2.2735    0.0884 O   0  0  0  0  0  0  0  0  0  0  0  0
    0.5813    1.0247    0.1183 H   0  0  0  0  0  0  0  0  0  0  0  0
    0.5678   -0.5305    0.9784 H   0  0  0  0  0  0  0  0  0  0  0  0
    0.5643   -0.5091   -0.7786 H   0  0  0  0  0  0  0  0  0  0  0  0
    4.6284    3.3342    0.0917 H   0  0  0  0  0  0  0  0  0  0  0  0
    5.9701    2.6028   -0.7995 H   0  0  0  0  0  0  0  0  0  0  0  0
    5.9788    2.6033    0.9703 H   0  0  0  0  0  0  0  0  0  0  0  0
    7.1727    0.9216    0.0715 H   0  0  0  0  0  0  0  0  0  0  0  0
    7.0557   -0.6334   -0.7992 H   0  0  0  0  0  0  0  0  0  0  0  0
    7.0669   -0.6225    0.9627 H   0  0  0  0  0  0  0  0  0  0  0  0
    2.6733    2.1358    0.1040 H   0  0  0  0  0  0  0  0  0  0  0  0
  1 13  1  0  0  0  0
  1 14  1  0  0  0  0
  2 16  1  0  0  0  0
  2  7  1  0  0  0  0
  2 18  1  0  0  0  0
  3 11  1  0  0  0  0
  3 21  1  0  0  0  0
  4  6  1  0  0  0  0
  4 22  1  0  0  0  0
  5 10  3  0  0  0  0
  6  1  1  0  0  0  0
  7  4  2  0  0  0  0
  8  5  1  0  0  0  0
  8  6  2  0  0  0  0
  9  8  1  0  0  0  0
 11  9  1  0  0  0  0
 11  7  1  0  0  0  0
 12  9  2  0  0  0  0
 15  1  1  0  0  0  0
 17  2  1  0  0  0  0
 19  3  1  0  0  0  0
 20  3  1  0  0  0  0
M  END
>  <HBA>
3

>  <HBD>
0

>  <TPSA>
45.79

>  <cid>
46479

>  <dipole>
8.51

>  <excitation_energy_1>
3.938

>  <excitation_energy_2>
4.438

>  <excitation_energy_3>
5.246

>  <excitation_energy_4>
5.394

>  <homo_energy>
-6.101

>  <homo_lumo_gap>
4.329

>  <logP>
0.874

>  <lumo_energy>
-1.771

>  <melting_point>
89.34

>  <molecular_refractivity>
46.61

>  <oscillator_strength_1>
0.2131

>  <oscillator_strength_2>
0.0

>  <oscillator_strength_3>
0.0037

>  <oscillator_strength_4>
0.0095

>  <open_babel_can_smiles>
N#Cc1c(C)cc(n(c1=O)C)C

>  <mulliken_charges>
22
1   -0.53633
2   -0.544408
3   -0.322587
4   -0.306305
5   0.26345
6   0.230025
7   0.426342
8   -0.048562
9   0.595197
10   -0.49241
11   -0.53624
12   -0.520816
13   0.160362
14   0.192463
15   0.192344
16   0.181592
17   0.184175
18   0.184163
19   0.163933
20   0.197993
21   0.197549
22   0.138069

>  <lowdin_charges>
22
1   -0.441468
2   -0.446601
3   -0.348915
4   -0.238393
5   -0.001586
6   0.0605
7   0.085283
8   -0.096478
9   0.158966
10   -0.124322
11   -0.034392
12   -0.300971
13   0.160278
14   0.180883
15   0.180778
16   0.174217
17   0.172544
18   0.172583
19   0.16313
20   0.178529
21   0.178206
22   0.167227

$$$$

