PCCDB-ID:  16717
public computational chemistry database (PCCDB) project, http://pccdb.org

 24 25  0  0  0  0  0  0  0  0999 V2000
   -1.4361   -0.0825    0.2654 C   0  0  0  0  0  0  0  0  0  0  0  0
   -0.6067   -1.0538    0.8288 C   0  0  0  0  0  0  0  0  0  0  0  0
   -0.8703    0.9551   -0.4779 C   0  0  0  0  0  0  0  0  0  0  0  0
    4.8804    1.4038   -0.4463 C   0  0  0  0  0  0  0  0  0  0  0  0
    0.7745   -0.9879    0.6503 C   0  0  0  0  0  0  0  0  0  0  0  0
    0.5108    1.0197   -0.6562 C   0  0  0  0  0  0  0  0  0  0  0  0
    3.4989    1.3578   -0.2669 C   0  0  0  0  0  0  0  0  0  0  0  0
    5.6170    0.2396   -0.6491 C   0  0  0  0  0  0  0  0  0  0  0  0
    3.5773   -1.0469   -0.4925 C   0  0  0  0  0  0  0  0  0  0  0  0
    1.3590    0.0495   -0.0959 C   0  0  0  0  0  0  0  0  0  0  0  0
    2.8313    0.1216   -0.2867 C   0  0  0  0  0  0  0  0  0  0  0  0
    4.9680   -1.0060   -0.6735 C   0  0  0  0  0  0  0  0  0  0  0  0
    5.7002   -2.1890   -0.8272 N   0  0  0  0  0  0  0  0  0  0  0  0
   -2.5127   -0.1331    0.4047 H   0  0  0  0  0  0  0  0  0  0  0  0
   -1.0347   -1.8612    1.4175 H   0  0  0  0  0  0  0  0  0  0  0  0
   -1.5065    1.7133   -0.9275 H   0  0  0  0  0  0  0  0  0  0  0  0
    5.3955    2.3608   -0.4231 H   0  0  0  0  0  0  0  0  0  0  0  0
    1.4130   -1.7333    1.1162 H   0  0  0  0  0  0  0  0  0  0  0  0
    0.9395    1.8173   -1.2565 H   0  0  0  0  0  0  0  0  0  0  0  0
    2.9417    2.2707   -0.0815 H   0  0  0  0  0  0  0  0  0  0  0  0
    6.6953    0.2880   -0.7833 H   0  0  0  0  0  0  0  0  0  0  0  0
    3.0666   -2.0061   -0.5367 H   0  0  0  0  0  0  0  0  0  0  0  0
    6.5772   -2.0811   -1.3220 H   0  0  0  0  0  0  0  0  0  0  0  0
    5.1689   -2.9700   -1.1927 H   0  0  0  0  0  0  0  0  0  0  0  0
  1 14  1  0  0  0  0
  1  2  2  0  0  0  0
  2 15  1  0  0  0  0
  3  1  1  0  0  0  0
  4 17  1  0  0  0  0
  4  7  2  0  0  0  0
  5  2  1  0  0  0  0
  5 18  1  0  0  0  0
  6  3  2  0  0  0  0
  6 10  1  0  0  0  0
  7 20  1  0  0  0  0
  8  4  1  0  0  0  0
  9 11  2  0  0  0  0
 10  5  2  0  0  0  0
 11  7  1  0  0  0  0
 11 10  1  0  0  0  0
 12  8  2  0  0  0  0
 12  9  1  0  0  0  0
 13 12  1  0  0  0  0
 16  3  1  0  0  0  0
 19  6  1  0  0  0  0
 21  8  1  0  0  0  0
 22  9  1  0  0  0  0
 23 13  1  0  0  0  0
 24 13  1  0  0  0  0
M  END
>  <HBA>
1

>  <HBD>
1

>  <TPSA>
26.02

>  <cid>
16717

>  <dipole>
1.75

>  <excitation_energy_1>
4.204

>  <excitation_energy_2>
4.739

>  <excitation_energy_3>
4.758

>  <excitation_energy_4>
4.887

>  <homo_energy>
-5.418

>  <homo_lumo_gap>
4.882

>  <logP>
3.517

>  <lumo_energy>
-0.536

>  <melting_point>
90.75

>  <molecular_refractivity>
56.28

>  <oscillator_strength_1>
0.0769

>  <oscillator_strength_2>
0.0046

>  <oscillator_strength_3>
0.005

>  <oscillator_strength_4>
0.2205

>  <open_babel_can_smiles>
Nc1cccc(c1)c1ccccc1

>  <mulliken_charges>
24
1   -0.127408
2   -0.134548
3   -0.134085
4   -0.138374
5   -0.173087
6   -0.172939
7   -0.185162
8   -0.172547
9   -0.227549
10   0.082609
11   0.089464
12   0.312948
13   -0.789533
14   0.127482
15   0.128244
16   0.128355
17   0.126116
18   0.132265
19   0.131918
20   0.124824
21   0.1155
22   0.11754
23   0.318786
24   0.319182

>  <lowdin_charges>
24
1   -0.157602
2   -0.156482
3   -0.157156
4   -0.144841
5   -0.163875
6   -0.162051
7   -0.193011
8   -0.199142
9   -0.206709
10   0.000579
11   0.00906
12   0.060721
13   -0.490194
14   0.155016
15   0.157857
16   0.158308
17   0.1567
18   0.160596
19   0.160302
20   0.157821
21   0.150422
22   0.153418
23   0.274576
24   0.275687

$$$$

