PCCDB-ID:  11877
public computational chemistry database (PCCDB) project, http://pccdb.org

 22 22  0  0  0  0  0  0  0  0999 V2000
    1.4544   -0.6782    1.1644 C   0  0  0  0  0  0  0  0  0  0  0  0
    1.5614    1.1625   -0.4564 C   0  0  0  0  0  0  0  0  0  0  0  0
    3.3893   -3.1799   -1.6584 C   0  0  0  0  0  0  0  0  0  0  0  0
    4.2227   -2.6631   -2.6576 C   0  0  0  0  0  0  0  0  0  0  0  0
    2.7166   -2.3406   -0.7832 C   0  0  0  0  0  0  0  0  0  0  0  0
    4.4017   -1.2912   -2.7263 C   0  0  0  0  0  0  0  0  0  0  0  0
    2.8487   -0.9296   -0.8416 C   0  0  0  0  0  0  0  0  0  0  0  0
    3.7659   -0.4390   -1.8143 C   0  0  0  0  0  0  0  0  0  0  0  0
    2.0880   -0.1251   -0.0211 N   0  0  0  0  0  0  0  0  0  0  0  0
    4.2244    0.9506   -1.8403 N   0  0  0  0  0  0  0  0  0  0  0  0
    4.2685    1.5719   -0.7744 O   0  0  0  0  0  0  0  0  0  0  0  0
    4.6064    1.4115   -2.9204 O   0  0  0  0  0  0  0  0  0  0  0  0
    1.2430    0.1402    1.8589 H   0  0  0  0  0  0  0  0  0  0  0  0
    2.1280   -1.3753    1.6694 H   0  0  0  0  0  0  0  0  0  0  0  0
    0.5055   -1.1958    0.9472 H   0  0  0  0  0  0  0  0  0  0  0  0
    2.0633    2.0039    0.0333 H   0  0  0  0  0  0  0  0  0  0  0  0
    0.4879    1.2009   -0.2317 H   0  0  0  0  0  0  0  0  0  0  0  0
    1.6741    1.2772   -1.5370 H   0  0  0  0  0  0  0  0  0  0  0  0
    3.2386   -4.2532   -1.5773 H   0  0  0  0  0  0  0  0  0  0  0  0
    4.7350   -3.3195   -3.3530 H   0  0  0  0  0  0  0  0  0  0  0  0
    2.0298   -2.7739   -0.0660 H   0  0  0  0  0  0  0  0  0  0  0  0
    5.0661   -0.8434   -3.4554 H   0  0  0  0  0  0  0  0  0  0  0  0
  1 14  1  0  0  0  0
  1 13  1  0  0  0  0
  2 17  1  0  0  0  0
  2  9  1  0  0  0  0
  2 16  1  0  0  0  0
  3 19  1  0  0  0  0
  3  5  2  0  0  0  0
  4  3  1  0  0  0  0
  5 21  1  0  0  0  0
  6  4  2  0  0  0  0
  6  8  1  0  0  0  0
  7  5  1  0  0  0  0
  7  9  1  0  0  0  0
  8  7  2  0  0  0  0
  9  1  1  0  0  0  0
 10  8  1  0  0  0  0
 10 11  2  0  0  0  0
 12 10  2  0  0  0  0
 15  1  1  0  0  0  0
 18  2  1  0  0  0  0
 20  4  1  0  0  0  0
 22  6  1  0  0  0  0
M  END
>  <HBA>
1

>  <HBD>
0

>  <TPSA>
49.06

>  <cid>
11877

>  <dipole>
4.71

>  <excitation_energy_1>
2.98

>  <excitation_energy_2>
3.726

>  <excitation_energy_3>
4.323

>  <excitation_energy_4>
4.606

>  <homo_energy>
-5.695

>  <homo_lumo_gap>
3.752

>  <logP>
2.184

>  <lumo_energy>
-1.943

>  <melting_point>
52.46

>  <molecular_refractivity>
49.47

>  <oscillator_strength_1>
0.0714

>  <oscillator_strength_2>
0.0107

>  <oscillator_strength_3>
0.001

>  <oscillator_strength_4>
0.0145

>  <open_babel_can_smiles>
O=N(=O)c1ccccc1N(C)C

>  <mulliken_charges>
22
1   -0.322816
2   -0.330761
3   -0.119671
4   -0.14668
5   -0.199374
6   -0.151275
7   0.358716
8   0.207233
9   -0.449915
10   0.341261
11   -0.395323
12   -0.39508
13   0.171505
14   0.173514
15   0.150852
16   0.190944
17   0.152209
18   0.170388
19   0.139099
20   0.138245
21   0.139667
22   0.177262

>  <lowdin_charges>
22
1   -0.353051
2   -0.34837
3   -0.12657
4   -0.183517
5   -0.200825
6   -0.132866
7   0.069048
8   -0.037833
9   -0.096375
10   0.303315
11   -0.255198
12   -0.262618
13   0.164524
14   0.16513
15   0.141546
16   0.166016
17   0.148279
18   0.160391
19   0.161243
20   0.165496
21   0.167273
22   0.184962

$$$$

