PCCDB-ID:  19482
public computational chemistry database (PCCDB) project, http://pccdb.org

 37 39  0  0  1  0  0  0  0  0999 V2000
    2.9019    1.2023   -3.1525 C   0  0  0  0  0  0  0  0  0  0  0  0
    3.3577    0.1419   -2.1456 C   0  0  0  0  0  0  0  0  0  0  0  0
    3.8983   -1.1239   -2.8174 C   0  0  0  0  0  0  0  0  0  0  0  0
    7.2338   -5.2528   -2.1755 C   0  0  0  0  0  0  0  0  0  0  0  0
    5.8850   -5.3088   -4.3009 C   0  0  0  0  0  0  0  0  0  0  0  0
    4.9645   -6.3449   -2.1986 C   0  0  0  0  0  0  0  0  0  0  0  0
    6.2203   -3.1290   -3.0836 C   0  0  0  0  0  0  0  0  0  0  0  0
    5.3055   -4.1597   -0.9919 C   0  0  0  0  0  0  0  0  0  0  0  0
    3.9533   -4.2227   -3.1062 C   0  0  0  0  0  0  0  0  0  0  0  0
    6.8733   -4.4761   -3.4576 C   0  0  1  0  0  0  0  0  0  0  0  0
    5.9519   -5.5104   -1.3574 C   0  0  2  0  0  0  0  0  0  0  0  0
    4.6031   -5.5720   -3.4833 C   0  0  1  0  0  0  0  0  0  0  0  0
    4.9307   -3.3597   -2.2616 C   0  0  2  0  0  0  0  0  0  0  0  0
    4.3757   -2.0718   -1.8090 N   0  0  0  0  0  0  0  0  0  0  0  0
    2.5140    2.0919   -2.6440 H   0  0  0  0  0  0  0  0  0  0  0  0
    2.1078    0.8197   -3.8056 H   0  0  0  0  0  0  0  0  0  0  0  0
    3.7322    1.5224   -3.7940 H   0  0  0  0  0  0  0  0  0  0  0  0
    2.5142   -0.1283   -1.4926 H   0  0  0  0  0  0  0  0  0  0  0  0
    4.1380    0.5475   -1.4901 H   0  0  0  0  0  0  0  0  0  0  0  0
    4.7409   -0.8462   -3.4618 H   0  0  0  0  0  0  0  0  0  0  0  0
    3.1184   -1.5356   -3.4856 H   0  0  0  0  0  0  0  0  0  0  0  0
    7.9552   -4.6798   -1.5768 H   0  0  0  0  0  0  0  0  0  0  0  0
    7.7170   -6.2056   -2.4331 H   0  0  0  0  0  0  0  0  0  0  0  0
    6.3477   -6.2611   -4.5949 H   0  0  0  0  0  0  0  0  0  0  0  0
    5.6375   -4.7742   -5.2288 H   0  0  0  0  0  0  0  0  0  0  0  0
    4.0562   -6.5559   -1.6169 H   0  0  0  0  0  0  0  0  0  0  0  0
    5.4121   -7.3153   -2.4547 H   0  0  0  0  0  0  0  0  0  0  0  0
    5.9914   -2.5729   -4.0020 H   0  0  0  0  0  0  0  0  0  0  0  0
    6.9103   -2.5096   -2.4958 H   0  0  0  0  0  0  0  0  0  0  0  0
    5.9860   -3.5537   -0.3805 H   0  0  0  0  0  0  0  0  0  0  0  0
    4.3996   -4.3288   -0.3895 H   0  0  0  0  0  0  0  0  0  0  0  0
    3.0310   -4.3948   -2.5313 H   0  0  0  0  0  0  0  0  0  0  0  0
    3.6647   -3.6835   -4.0180 H   0  0  0  0  0  0  0  0  0  0  0  0
    7.7845   -4.2846   -4.0399 H   0  0  0  0  0  0  0  0  0  0  0  0
    6.2037   -6.0527   -0.4363 H   0  0  0  0  0  0  0  0  0  0  0  0
    3.8975   -6.1626   -4.0833 H   0  0  0  0  0  0  0  0  0  0  0  0
    3.6077   -2.2691   -1.1661 H   0  0  0  0  0  0  0  0  0  0  0  0
  1 15  1  0  0  0  0
  1  2  1  0  0  0  0
  2 18  1  0  0  0  0
  2 19  1  0  0  0  0
  3  2  1  0  0  0  0
  3 14  1  0  0  0  0
  4 22  1  0  0  0  0
  4 11  1  0  0  0  0
  5 12  1  0  0  0  0
  5 10  1  0  0  0  0
  6 26  1  0  0  0  0
  6 11  1  0  0  0  0
  7 29  1  0  0  0  0
  7 13  1  0  0  0  0
  8 31  1  0  0  0  0
  8 30  1  0  0  0  0
  9 32  1  0  0  0  0
  9 13  1  0  0  0  0
 10 34  1  6  0  0  0
 10  7  1  0  0  0  0
 10  4  1  0  0  0  0
 11  8  1  0  0  0  0
 11 35  1  1  0  0  0
 12 36  1  6  0  0  0
 12  9  1  0  0  0  0
 12  6  1  0  0  0  0
 13 14  1  1  0  0  0
 13  8  1  0  0  0  0
 14 37  1  0  0  0  0
 16  1  1  0  0  0  0
 17  1  1  0  0  0  0
 20  3  1  0  0  0  0
 21  3  1  0  0  0  0
 23  4  1  0  0  0  0
 24  5  1  0  0  0  0
 25  5  1  0  0  0  0
 27  6  1  0  0  0  0
 28  7  1  0  0  0  0
 33  9  1  0  0  0  0
M  END
>  <HBA>
1

>  <HBD>
1

>  <TPSA>
12.03

>  <cid>
19482

>  <dipole>
0.76

>  <excitation_energy_1>
5.128

>  <excitation_energy_2>
5.445

>  <excitation_energy_3>
5.636

>  <excitation_energy_4>
5.782

>  <homo_energy>
-5.646

>  <homo_lumo_gap>
7.559

>  <logP>
3.346

>  <lumo_energy>
1.913

>  <melting_point>
74.73

>  <molecular_refractivity>
61.1

>  <oscillator_strength_1>
0.0007

>  <oscillator_strength_2>
0.0057

>  <oscillator_strength_3>
0.0061

>  <oscillator_strength_4>
0.0267

>  <open_babel_can_smiles>
CCCN[C@]12C[C@H]3C[C@@H](C2)C[C@@H](C1)C3

>  <mulliken_charges>
37
1   -0.445657
2   -0.258795
3   -0.106674
4   -0.263624
5   -0.265032
6   -0.263998
7   -0.275219
8   -0.28068
9   -0.27721
10   -0.092639
11   -0.089983
12   -0.089264
13   0.223377
14   -0.590535
15   0.144409
16   0.141585
17   0.143066
18   0.123919
19   0.14685
20   0.138698
21   0.109977
22   0.126711
23   0.123478
24   0.124569
25   0.12428
26   0.123543
27   0.124289
28   0.125568
29   0.135992
30   0.138921
31   0.11396
32   0.113742
33   0.128013
34   0.114695
35   0.114628
36   0.113571
37   0.28147

>  <lowdin_charges>
37
1   -0.446935
2   -0.277769
3   -0.206502
4   -0.282305
5   -0.281238
6   -0.281293
7   -0.284399
8   -0.282925
9   -0.294403
10   -0.131066
11   -0.131328
12   -0.132633
13   0.052507
14   -0.358813
15   0.151582
16   0.147088
17   0.147862
18   0.135972
19   0.148983
20   0.141758
21   0.11641
22   0.141774
23   0.138942
24   0.139616
25   0.138963
26   0.138905
27   0.13905
28   0.139923
29   0.147817
30   0.1488
31   0.134588
32   0.134896
33   0.140973
34   0.139215
35   0.139218
36   0.139517
37   0.247251

$$$$

