PCCDB-ID:  18411
public computational chemistry database (PCCDB) project, http://pccdb.org

 28 29  0  0  0  0  0  0  0  0999 V2000
    1.9836    1.2570    0.2131 C   0  0  0  0  0  0  0  0  0  0  0  0
    2.4099   -0.0757    0.1506 C   0  0  0  0  0  0  0  0  0  0  0  0
   -4.1439   -1.3830   -1.5460 C   0  0  0  0  0  0  0  0  0  0  0  0
    0.6214    1.5850    0.1712 C   0  0  0  0  0  0  0  0  0  0  0  0
    1.4886   -1.1264    0.0427 C   0  0  0  0  0  0  0  0  0  0  0  0
   -3.6135   -2.5900   -2.3498 C   0  0  0  0  0  0  0  0  0  0  0  0
   -3.5659   -1.2245   -0.1317 C   0  0  0  0  0  0  0  0  0  0  0  0
   -0.2819    0.5383    0.0657 C   0  0  0  0  0  0  0  0  0  0  0  0
    0.1437   -0.7901    0.0024 C   0  0  0  0  0  0  0  0  0  0  0  0
   -4.0987   -3.9137   -1.7556 C   0  0  0  0  0  0  0  0  0  0  0  0
   -1.7714    0.5495    0.0048 C   0  0  0  0  0  0  0  0  0  0  0  0
   -1.0610   -1.6578   -0.1124 C   0  0  0  0  0  0  0  0  0  0  0  0
   -2.1616   -0.8079   -0.1085 N   0  0  0  0  0  0  0  0  0  0  0  0
   -5.1470   -4.4223   -2.0792 O   0  0  0  0  0  0  0  0  0  0  0  0
   -3.3269   -4.4679   -0.7973 O   0  0  0  0  0  0  0  0  0  0  0  0
   -2.5384    1.4869    0.0473 O   0  0  0  0  0  0  0  0  0  0  0  0
   -1.0934   -2.8794   -0.2008 O   0  0  0  0  0  0  0  0  0  0  0  0
    2.7226    2.0486    0.2958 H   0  0  0  0  0  0  0  0  0  0  0  0
    3.4725   -0.2971    0.1865 H   0  0  0  0  0  0  0  0  0  0  0  0
   -5.2326   -1.4799   -1.4537 H   0  0  0  0  0  0  0  0  0  0  0  0
   -3.9552   -0.4599   -2.1062 H   0  0  0  0  0  0  0  0  0  0  0  0
    0.2807    2.6145    0.2199 H   0  0  0  0  0  0  0  0  0  0  0  0
    1.8082   -2.1626   -0.0063 H   0  0  0  0  0  0  0  0  0  0  0  0
   -2.5204   -2.5615   -2.4169 H   0  0  0  0  0  0  0  0  0  0  0  0
   -4.0142   -2.5382   -3.3654 H   0  0  0  0  0  0  0  0  0  0  0  0
   -3.6471   -2.1552    0.4369 H   0  0  0  0  0  0  0  0  0  0  0  0
   -4.1167   -0.4469    0.4032 H   0  0  0  0  0  0  0  0  0  0  0  0
   -2.5132   -3.9390   -0.6377 H   0  0  0  0  0  0  0  0  0  0  0  0
  1 18  1  0  0  0  0
  2 19  1  0  0  0  0
  2  1  2  0  0  0  0
  3 20  1  0  0  0  0
  3  7  1  0  0  0  0
  4  1  1  0  0  0  0
  4 22  1  0  0  0  0
  5  2  1  0  0  0  0
  6 10  1  0  0  0  0
  6  3  1  0  0  0  0
  7 13  1  0  0  0  0
  7 27  1  0  0  0  0
  7 26  1  0  0  0  0
  8  4  2  0  0  0  0
  9  5  2  0  0  0  0
  9  8  1  0  0  0  0
 10 15  1  0  0  0  0
 11 16  2  0  0  0  0
 11  8  1  0  0  0  0
 12 13  1  0  0  0  0
 12  9  1  0  0  0  0
 13 11  1  0  0  0  0
 14 10  2  0  0  0  0
 15 28  1  0  0  0  0
 17 12  2  0  0  0  0
 21  3  1  0  0  0  0
 23  5  1  0  0  0  0
 24  6  1  0  0  0  0
 25  6  1  0  0  0  0
M  END
>  <HBA>
5

>  <HBD>
1

>  <TPSA>
74.68

>  <cid>
18411

>  <dipole>
8.11

>  <excitation_energy_1>
3.673

>  <excitation_energy_2>
3.889

>  <excitation_energy_3>
4.017

>  <excitation_energy_4>
4.441

>  <homo_energy>
-6.827

>  <homo_lumo_gap>
4.038

>  <logP>
1.085

>  <lumo_energy>
-2.789

>  <melting_point>
175.15

>  <molecular_refractivity>
62.91

>  <oscillator_strength_1>
0.0

>  <oscillator_strength_2>
0.0002

>  <oscillator_strength_3>
0.0005

>  <oscillator_strength_4>
0.0609

>  <open_babel_can_smiles>
OC(=O)CCCN1C(=O)c2c(C1=O)cccc2

>  <mulliken_charges>
28
1   -0.127142
2   -0.127384
3   -0.27256
4   -0.177314
5   -0.177702
6   -0.36747
7   -0.179179
8   0.052445
9   0.044832
10   0.571148
11   0.576285
12   0.605054
13   -0.525489
14   -0.452877
15   -0.598638
16   -0.46658
17   -0.524702
18   0.155573
19   0.155776
20   0.174956
21   0.162542
22   0.172223
23   0.172785
24   0.150659
25   0.177215
26   0.184605
27   0.189658
28   0.451281

>  <lowdin_charges>
28
1   -0.134781
2   -0.132519
3   -0.271156
4   -0.123911
5   -0.123289
6   -0.317717
7   -0.203355
8   -0.036007
9   -0.036086
10   0.186212
11   0.179191
12   0.179486
13   -0.086546
14   -0.259155
15   -0.370084
16   -0.230608
17   -0.26883
18   0.171647
19   0.16919
20   0.163769
21   0.158311
22   0.179829
23   0.179992
24   0.151269
25   0.173206
26   0.168818
27   0.178544
28   0.354583

$$$$

