PCCDB-ID:  9251
public computational chemistry database (PCCDB) project, http://pccdb.org

 10 10  0  0  0  0  0  0  0  0999 V2000
    0.3287    1.0098    0.0188 C   0  0  0  0  0  0  0  0  0  0  0  0
   -1.1010    0.4163    0.0744 C   0  0  0  0  0  0  0  0  0  0  0  0
    1.1121   -0.3179    0.1696 C   0  0  0  0  0  0  0  0  0  0  0  0
   -0.4538   -1.3168    0.2678 S   0  0  0  0  0  0  0  0  0  0  0  0
    0.5276    1.7149    0.8316 H   0  0  0  0  0  0  0  0  0  0  0  0
    0.5391    1.5220   -0.9251 H   0  0  0  0  0  0  0  0  0  0  0  0
   -1.6884    0.5442   -0.8381 H   0  0  0  0  0  0  0  0  0  0  0  0
   -1.6993    0.7371    0.9308 H   0  0  0  0  0  0  0  0  0  0  0  0
    1.7155   -0.3957    1.0774 H   0  0  0  0  0  0  0  0  0  0  0  0
    1.7281   -0.5892   -0.6913 H   0  0  0  0  0  0  0  0  0  0  0  0
  1  2  1  0  0  0  0
  1  3  1  0  0  0  0
  1  5  1  0  0  0  0
  2  4  1  0  0  0  0
  2  8  1  0  0  0  0
  3  4  1  0  0  0  0
  3  9  1  0  0  0  0
  6  1  1  0  0  0  0
  7  2  1  0  0  0  0
 10  3  1  0  0  0  0
M  END
>  <HBA>
1

>  <HBD>
0

>  <TPSA>
25.3

>  <cid>
9251

>  <dipole>
2.11

>  <excitation_energy_1>
4.306

>  <excitation_energy_2>
5.38

>  <excitation_energy_3>
5.501

>  <excitation_energy_4>
6.123

>  <homo_energy>
-5.891

>  <homo_lumo_gap>
6.079

>  <logP>
1.123

>  <lumo_energy>
0.188

>  <melting_point>
6.98

>  <molecular_refractivity>
22.01

>  <oscillator_strength_1>
0.0

>  <oscillator_strength_2>
0.0

>  <oscillator_strength_3>
0.0232

>  <oscillator_strength_4>
0.0184

>  <open_babel_can_smiles>
C1CCS1

>  <mulliken_charges>
10
1   -0.259459
2   -0.408586
3   -0.40868
4   0.067023
5   0.156605
6   0.156626
7   0.174091
8   0.174121
9   0.17414
10   0.17412

>  <lowdin_charges>
10
1   -0.282516
2   -0.362759
3   -0.362525
4   0.063983
5   0.154773
6   0.154177
7   0.158487
8   0.158986
9   0.15849
10   0.158904

$$$$

