PCCDB-ID:  56487
public computational chemistry database (PCCDB) project, http://pccdb.org

 30 31  0  0  1  0  0  0  0  0999 V2000
    1.1694    0.9335   -1.0558 C   0  0  0  0  0  0  0  0  0  0  0  0
    2.6240    0.5451   -0.7724 C   0  0  0  0  0  0  0  0  0  0  0  0
    2.7621   -3.3729   -0.7638 C   0  0  0  0  0  0  0  0  0  0  0  0
    3.8993   -0.4295   -3.5986 C   0  0  0  0  0  0  0  0  0  0  0  0
    1.8196   -1.5734   -3.4035 C   0  0  0  0  0  0  0  0  0  0  0  0
    2.2490   -1.9591   -0.4715 C   0  0  0  0  0  0  0  0  0  0  0  0
    3.7437   -0.4941   -4.9819 C   0  0  0  0  0  0  0  0  0  0  0  0
    1.7577   -1.5842   -4.7987 C   0  0  0  0  0  0  0  0  0  0  0  0
    2.9192   -0.9865   -2.7639 C   0  0  0  0  0  0  0  0  0  0  0  0
    4.2703   -3.4024   -0.8601 C   0  0  0  0  0  0  0  0  0  0  0  0
    4.5399   -1.0930   -0.8487 C   0  0  0  0  0  0  0  0  0  0  0  0
    3.0481   -0.8772   -1.2362 C   0  0  1  0  0  0  0  0  0  0  0  0
    2.6956   -1.0613   -5.5944 N   0  0  0  0  0  0  0  0  0  0  0  0
    5.0608   -2.3983   -0.8747 N   0  0  0  0  0  0  0  0  0  0  0  0
    4.8400   -4.6208   -0.9653 O   0  0  0  0  0  0  0  0  0  0  0  0
    5.2635   -0.1593   -0.5626 O   0  0  0  0  0  0  0  0  0  0  0  0
    0.9875    1.9580   -0.7135 H   0  0  0  0  0  0  0  0  0  0  0  0
    0.4538    0.2878   -0.5331 H   0  0  0  0  0  0  0  0  0  0  0  0
    0.9363    0.8965   -2.1252 H   0  0  0  0  0  0  0  0  0  0  0  0
    2.8224    0.6159    0.3042 H   0  0  0  0  0  0  0  0  0  0  0  0
    3.2989    1.2655   -1.2431 H   0  0  0  0  0  0  0  0  0  0  0  0
    2.3683   -3.7445   -1.7201 H   0  0  0  0  0  0  0  0  0  0  0  0
    2.4275   -4.0771    0.0102 H   0  0  0  0  0  0  0  0  0  0  0  0
    4.7800    0.0455   -3.1776 H   0  0  0  0  0  0  0  0  0  0  0  0
    1.0036   -2.0143   -2.8396 H   0  0  0  0  0  0  0  0  0  0  0  0
    2.3556   -1.7522    0.6007 H   0  0  0  0  0  0  0  0  0  0  0  0
    1.1788   -1.8976   -0.6889 H   0  0  0  0  0  0  0  0  0  0  0  0
    4.5049   -0.0685   -5.6337 H   0  0  0  0  0  0  0  0  0  0  0  0
    0.9036   -2.0388   -5.2992 H   0  0  0  0  0  0  0  0  0  0  0  0
    4.1557   -5.3082   -0.9175 H   0  0  0  0  0  0  0  0  0  0  0  0
  1  2  1  0  0  0  0
  1 17  1  0  0  0  0
  1 18  1  0  0  0  0
  2 20  1  0  0  0  0
  3  6  1  0  0  0  0
  3 23  1  0  0  0  0
  4 24  1  0  0  0  0
  4  9  2  0  0  0  0
  5 25  1  0  0  0  0
  5  9  1  0  0  0  0
  6 26  1  0  0  0  0
  7  4  1  0  0  0  0
  8  5  2  0  0  0  0
  9 12  1  0  0  0  0
 10  3  1  0  0  0  0
 11 16  2  0  0  0  0
 12 11  1  0  0  0  0
 12  2  1  1  0  0  0
 12  6  1  0  0  0  0
 13  7  2  0  0  0  0
 13  8  1  0  0  0  0
 14 10  2  0  0  0  0
 14 11  1  0  0  0  0
 15 30  1  0  0  0  0
 15 10  1  0  0  0  0
 19  1  1  0  0  0  0
 21  2  1  0  0  0  0
 22  3  1  0  0  0  0
 27  6  1  0  0  0  0
 28  7  1  0  0  0  0
 29  8  1  0  0  0  0
M  END
>  <HBA>
4

>  <HBD>
1

>  <TPSA>
59.06

>  <cid>
56487

>  <dipole>
6.35

>  <excitation_energy_1>
4.022

>  <excitation_energy_2>
4.805

>  <excitation_energy_3>
4.859

>  <excitation_energy_4>
5.032

>  <homo_energy>
-6.71

>  <homo_lumo_gap>
5.456

>  <logP>
1.495

>  <lumo_energy>
-1.254

>  <melting_point>
118.16

>  <molecular_refractivity>
62.93

>  <oscillator_strength_1>
0.002

>  <oscillator_strength_2>
0.0061

>  <oscillator_strength_3>
0.0009

>  <oscillator_strength_4>
0.0002

>  <open_babel_can_smiles>
CC[C@@]1(CCC(=NC1=O)O)c1ccncc1

>  <mulliken_charges>
30
1   -0.464086
2   -0.243363
3   -0.388761
4   -0.183572
5   -0.198259
6   -0.306492
7   0.035249
8   0.034933
9   0.161602
10   0.524739
11   0.546281
12   -0.082645
13   -0.405192
14   -0.456437
15   -0.554357
16   -0.460174
17   0.154081
18   0.138069
19   0.157341
20   0.144946
21   0.165977
22   0.186993
23   0.168885
24   0.170227
25   0.126375
26   0.162862
27   0.15943
28   0.147913
29   0.140539
30   0.416895

>  <lowdin_charges>
30
1   -0.451333
2   -0.263872
3   -0.319687
4   -0.179902
5   -0.199767
6   -0.272002
7   -0.08611
8   -0.090747
9   0.018869
10   0.163691
11   0.165547
12   -0.030012
13   -0.148869
14   -0.187414
15   -0.326352
16   -0.231578
17   0.156741
18   0.144468
19   0.153412
20   0.149225
21   0.163197
22   0.173074
23   0.166472
24   0.179196
25   0.15985
26   0.157289
27   0.154716
28   0.161613
29   0.157008
30   0.363276

$$$$

