PCCDB-ID:  34214
public computational chemistry database (PCCDB) project, http://pccdb.org

 26 26  0  0  1  0  0  0  0  0999 V2000
    9.6326   -1.6896   -1.6607 C   0  0  0  0  0  0  0  0  0  0  0  0
    7.6492   -6.5165    2.4734 C   0  0  0  0  0  0  0  0  0  0  0  0
    8.6721   -1.2306   -1.0938 C   0  0  0  0  0  0  0  0  0  0  0  0
    7.5087   -0.6514   -0.4261 C   0  0  0  0  0  0  0  0  0  0  0  0
    6.5602   -2.7774    3.0965 C   0  0  0  0  0  0  0  0  0  0  0  0
    5.9433   -1.0274    1.3064 C   0  0  0  0  0  0  0  0  0  0  0  0
    7.1338   -5.2926    3.1929 C   0  0  0  0  0  0  0  0  0  0  0  0
    5.4511   -2.0945    2.2727 C   0  0  1  0  0  0  0  0  0  0  0  0
    6.8587   -4.0568    2.3154 C   0  0  1  0  0  0  0  0  0  0  0  0
    5.6049   -4.2581    1.4451 C   0  0  0  0  0  0  0  0  0  0  0  0
    6.9362   -5.2622    4.3915 O   0  0  0  0  0  0  0  0  0  0  0  0
    5.3045   -5.2188    0.7837 O   0  0  0  0  0  0  0  0  0  0  0  0
    7.0264   -1.5530    0.5614 O   0  0  0  0  0  0  0  0  0  0  0  0
    4.8161   -3.1561    1.5231 O   0  0  0  0  0  0  0  0  0  0  0  0
   10.4833   -2.1002   -2.1561 H   0  0  0  0  0  0  0  0  0  0  0  0
    8.6361   -6.3049    2.0412 H   0  0  0  0  0  0  0  0  0  0  0  0
    6.9790   -6.7582    1.6410 H   0  0  0  0  0  0  0  0  0  0  0  0
    7.7266   -7.3546    3.1685 H   0  0  0  0  0  0  0  0  0  0  0  0
    6.7190   -0.4382   -1.1658 H   0  0  0  0  0  0  0  0  0  0  0  0
    7.7848    0.3110    0.0374 H   0  0  0  0  0  0  0  0  0  0  0  0
    6.1998   -3.0457    4.0933 H   0  0  0  0  0  0  0  0  0  0  0  0
    7.4384   -2.1376    3.2084 H   0  0  0  0  0  0  0  0  0  0  0  0
    6.2572   -0.1388    1.8811 H   0  0  0  0  0  0  0  0  0  0  0  0
    5.1170   -0.7283    0.6424 H   0  0  0  0  0  0  0  0  0  0  0  0
    4.6720   -1.6545    2.9029 H   0  0  0  0  0  0  0  0  0  0  0  0
    7.6900   -3.9267    1.6122 H   0  0  0  0  0  0  0  0  0  0  0  0
  1  3  3  0  0  0  0
  2 18  1  0  0  0  0
  2  7  1  0  0  0  0
  3  4  1  0  0  0  0
  4 20  1  0  0  0  0
  4 13  1  0  0  0  0
  5 22  1  0  0  0  0
  5 21  1  0  0  0  0
  6 23  1  0  0  0  0
  6  8  1  0  0  0  0
  7 11  2  0  0  0  0
  8 25  1  1  0  0  0
  8  5  1  0  0  0  0
  9 26  1  6  0  0  0
  9  5  1  0  0  0  0
  9  7  1  0  0  0  0
 10 14  1  0  0  0  0
 10  9  1  0  0  0  0
 12 10  2  0  0  0  0
 13  6  1  0  0  0  0
 14  8  1  0  0  0  0
 15  1  1  0  0  0  0
 16  2  1  0  0  0  0
 17  2  1  0  0  0  0
 19  4  1  0  0  0  0
 24  6  1  0  0  0  0
M  END
>  <HBA>
4

>  <HBD>
0

>  <TPSA>
52.6

>  <cid>
34214

>  <dipole>
4.6

>  <excitation_energy_1>
4.476

>  <excitation_energy_2>
5.575

>  <excitation_energy_3>
6.012

>  <excitation_energy_4>
6.088

>  <homo_energy>
-6.914

>  <homo_lumo_gap>
6.313

>  <logP>
0.157

>  <lumo_energy>
-0.601

>  <melting_point>
35.59

>  <molecular_refractivity>
48.8

>  <oscillator_strength_1>
0.0004

>  <oscillator_strength_2>
0.008

>  <oscillator_strength_3>
0.0002

>  <oscillator_strength_4>
0.0005

>  <open_babel_can_smiles>
CC(=O)[C@@H]1C[C@H](OC1=O)COCC#C

>  <mulliken_charges>
26
1   -0.500856
2   -0.54114
3   0.353029
4   -0.137017
5   -0.31071
6   -0.011806
7   0.458992
8   0.087651
9   -0.304636
10   0.638531
11   -0.430594
12   -0.456834
13   -0.479253
14   -0.448464
15   0.200926
16   0.167791
17   0.213371
18   0.176926
19   0.165576
20   0.157499
21   0.190978
22   0.165569
23   0.130474
24   0.14707
25   0.158836
26   0.208094

>  <lowdin_charges>
26
1   -0.225571
2   -0.477374
3   -0.045624
4   -0.111196
5   -0.289089
6   -0.143451
7   0.17106
8   -0.003447
9   -0.198502
10   0.202254
11   -0.227667
12   -0.237972
13   -0.265414
14   -0.175473
15   0.210116
16   0.170978
17   0.192425
18   0.172828
19   0.157698
20   0.152436
21   0.172853
22   0.16542
23   0.136418
24   0.145508
25   0.160158
26   0.190629

$$$$

