PCCDB-ID:  27549
public computational chemistry database (PCCDB) project, http://pccdb.org

 34 36  0  0  0  0  0  0  0  0999 V2000
    1.3156    0.7060   -0.3409 C   0  0  0  0  0  0  0  0  0  0  0  0
    2.6025   -0.0587   -0.0125 C   0  0  0  0  0  0  0  0  0  0  0  0
    5.3906   -0.6499   -4.3921 C   0  0  0  0  0  0  0  0  0  0  0  0
    5.2860    0.4873   -3.5665 C   0  0  0  0  0  0  0  0  0  0  0  0
    4.7109   -1.8213   -4.0827 C   0  0  0  0  0  0  0  0  0  0  0  0
    4.5007    0.4732   -2.4183 C   0  0  0  0  0  0  0  0  0  0  0  0
    2.8556   -4.2689   -2.8600 C   0  0  0  0  0  0  0  0  0  0  0  0
    1.5899   -2.9719   -0.2162 C   0  0  0  0  0  0  0  0  0  0  0  0
    2.9532   -5.3999   -1.8266 C   0  0  0  0  0  0  0  0  0  0  0  0
    1.9889   -4.3922    0.2196 C   0  0  0  0  0  0  0  0  0  0  0  0
    3.9103   -1.8671   -2.9282 C   0  0  0  0  0  0  0  0  0  0  0  0
    3.0922   -2.8828   -2.3228 C   0  0  0  0  0  0  0  0  0  0  0  0
    3.8204   -0.7106   -2.1071 C   0  0  0  0  0  0  0  0  0  0  0  0
    2.5441   -2.3315   -1.1843 C   0  0  0  0  0  0  0  0  0  0  0  0
    1.8574   -5.3803   -0.8512 N   0  0  0  0  0  0  0  0  0  0  0  0
    2.9905   -1.0132   -1.0406 N   0  0  0  0  0  0  0  0  0  0  0  0
    1.0895    1.4302    0.4505 H   0  0  0  0  0  0  0  0  0  0  0  0
    0.4646    0.0227   -0.4330 H   0  0  0  0  0  0  0  0  0  0  0  0
    1.4178    1.2482   -1.2864 H   0  0  0  0  0  0  0  0  0  0  0  0
    2.4996   -0.5870    0.9403 H   0  0  0  0  0  0  0  0  0  0  0  0
    3.4356    0.6395    0.1162 H   0  0  0  0  0  0  0  0  0  0  0  0
    6.0105   -0.6059   -5.2836 H   0  0  0  0  0  0  0  0  0  0  0  0
    5.8246    1.3930   -3.8319 H   0  0  0  0  0  0  0  0  0  0  0  0
    4.7960   -2.6913   -4.7293 H   0  0  0  0  0  0  0  0  0  0  0  0
    4.4213    1.3589   -1.7943 H   0  0  0  0  0  0  0  0  0  0  0  0
    1.8668   -4.3384   -3.3369 H   0  0  0  0  0  0  0  0  0  0  0  0
    3.5936   -4.4709   -3.6466 H   0  0  0  0  0  0  0  0  0  0  0  0
    1.4975   -2.3609    0.6885 H   0  0  0  0  0  0  0  0  0  0  0  0
    0.5850   -3.0291   -0.6593 H   0  0  0  0  0  0  0  0  0  0  0  0
    3.9467   -5.3583   -1.3407 H   0  0  0  0  0  0  0  0  0  0  0  0
    2.8886   -6.3569   -2.3585 H   0  0  0  0  0  0  0  0  0  0  0  0
    1.3099   -4.6969    1.0251 H   0  0  0  0  0  0  0  0  0  0  0  0
    3.0108   -4.3594    0.6439 H   0  0  0  0  0  0  0  0  0  0  0  0
    1.7928   -6.3017   -0.4259 H   0  0  0  0  0  0  0  0  0  0  0  0
  1  2  1  0  0  0  0
  1 17  1  0  0  0  0
  2 21  1  0  0  0  0
  2 20  1  0  0  0  0
  3  5  2  0  0  0  0
  3  4  1  0  0  0  0
  4  6  2  0  0  0  0
  5 11  1  0  0  0  0
  6 13  1  0  0  0  0
  6 25  1  0  0  0  0
  7 12  1  0  0  0  0
  7  9  1  0  0  0  0
  8 10  1  0  0  0  0
  8 28  1  0  0  0  0
  9 30  1  0  0  0  0
  9 15  1  0  0  0  0
 10 33  1  0  0  0  0
 10 32  1  0  0  0  0
 11 12  1  0  0  0  0
 11 13  2  0  0  0  0
 12 14  2  0  0  0  0
 13 16  1  0  0  0  0
 14 16  1  0  0  0  0
 14  8  1  0  0  0  0
 15 34  1  0  0  0  0
 15 10  1  0  0  0  0
 16  2  1  0  0  0  0
 18  1  1  0  0  0  0
 19  1  1  0  0  0  0
 22  3  1  0  0  0  0
 23  4  1  0  0  0  0
 24  5  1  0  0  0  0
 26  7  1  0  0  0  0
 27  7  1  0  0  0  0
 29  8  1  0  0  0  0
 31  9  1  0  0  0  0
M  END
>  <HBA>
2

>  <HBD>
1

>  <TPSA>
16.96

>  <cid>
27549

>  <dipole>
2.7

>  <excitation_energy_1>
4.307

>  <excitation_energy_2>
4.477

>  <excitation_energy_3>
4.682

>  <excitation_energy_4>
4.77

>  <homo_energy>
-4.953

>  <homo_lumo_gap>
5.012

>  <logP>
2.678

>  <lumo_energy>
0.06

>  <melting_point>
108.26

>  <molecular_refractivity>
72.16

>  <oscillator_strength_1>
0.0964

>  <oscillator_strength_2>
0.0011

>  <oscillator_strength_3>
0.0392

>  <oscillator_strength_4>
0.0088

>  <open_babel_can_smiles>
CCn1c2ccccc2c2c1CCNCC2

>  <mulliken_charges>
34
1   -0.442882
2   -0.158786
3   -0.141037
4   -0.152325
5   -0.212644
6   -0.172683
7   -0.325785
8   -0.332296
9   -0.134035
10   -0.129938
11   0.064732
12   0.02792
13   0.305791
14   0.276083
15   -0.544813
16   -0.57338
17   0.146508
18   0.158393
19   0.166251
20   0.157393
21   0.160869
22   0.11518
23   0.116894
24   0.119121
25   0.119348
26   0.151489
27   0.137427
28   0.135853
29   0.165684
30   0.118484
31   0.128866
32   0.130761
33   0.120273
34   0.297283

>  <lowdin_charges>
34
1   -0.453748
2   -0.193698
3   -0.178144
4   -0.170021
5   -0.167732
6   -0.195805
7   -0.27389
8   -0.285359
9   -0.200831
10   -0.199387
11   -0.03257
12   -0.07959
13   0.026479
14   0.014399
15   -0.367227
16   -0.03624
17   0.15467
18   0.156041
19   0.160268
20   0.152124
21   0.157758
22   0.152027
23   0.153198
24   0.152994
25   0.153543
26   0.152797
27   0.151995
28   0.151953
29   0.160931
30   0.119807
31   0.142275
32   0.144573
33   0.120531
34   0.25588

$$$$

