PCCDB-ID:  1695
public computational chemistry database (PCCDB) project, http://pccdb.org

 18 19  0  0  0  0  0  0  0  0999 V2000
   -0.6497    1.6753   -0.0525 C   0  0  0  0  0  0  0  0  0  0  0  0
   -2.0379    1.0686    0.2974 C   0  0  0  0  0  0  0  0  0  0  0  0
   -1.3642   -1.2744    0.0437 C   0  0  0  0  0  0  0  0  0  0  0  0
    0.0559   -0.7635    0.0316 C   0  0  0  0  0  0  0  0  0  0  0  0
    0.3420    0.5649   -0.0069 C   0  0  0  0  0  0  0  0  0  0  0  0
    1.3543   -1.3618    0.0650 C   0  0  0  0  0  0  0  0  0  0  0  0
   -2.3229   -0.2238   -0.3354 N   0  0  0  0  0  0  0  0  0  0  0  0
    2.3281   -0.4786    0.0353 N   0  0  0  0  0  0  0  0  0  0  0  0
    1.6750   -2.6764    0.1123 O   0  0  0  0  0  0  0  0  0  0  0  0
    1.6706    0.7716   -0.0109 O   0  0  0  0  0  0  0  0  0  0  0  0
   -0.3835    2.4741    0.6508 H   0  0  0  0  0  0  0  0  0  0  0  0
   -0.6666    2.1307   -1.0531 H   0  0  0  0  0  0  0  0  0  0  0  0
   -2.8314    1.7699    0.0203 H   0  0  0  0  0  0  0  0  0  0  0  0
   -2.1007    0.9228    1.3829 H   0  0  0  0  0  0  0  0  0  0  0  0
   -1.6384   -1.6396    1.0447 H   0  0  0  0  0  0  0  0  0  0  0  0
   -1.5033   -2.1196   -0.6430 H   0  0  0  0  0  0  0  0  0  0  0  0
   -2.2958   -0.1085   -1.3479 H   0  0  0  0  0  0  0  0  0  0  0  0
    0.8573   -3.1943    0.1423 H   0  0  0  0  0  0  0  0  0  0  0  0
  1  5  1  0  0  0  0
  1  2  1  0  0  0  0
  1 11  1  0  0  0  0
  2 14  1  0  0  0  0
  3 15  1  0  0  0  0
  4  3  1  0  0  0  0
  4  6  1  0  0  0  0
  5  4  2  0  0  0  0
  6  9  1  0  0  0  0
  7  3  1  0  0  0  0
  7  2  1  0  0  0  0
  8  6  2  0  0  0  0
  9 18  1  0  0  0  0
 10  5  1  0  0  0  0
 10  8  1  0  0  0  0
 12  1  1  0  0  0  0
 13  2  1  0  0  0  0
 16  3  1  0  0  0  0
 17  7  1  0  0  0  0
M  END
>  <HBA>
3

>  <HBD>
2

>  <TPSA>
58.03

>  <cid>
1695

>  <dipole>
4.3

>  <excitation_energy_1>
5.399

>  <excitation_energy_2>
5.477

>  <excitation_energy_3>
5.639

>  <excitation_energy_4>
5.794

>  <homo_energy>
-6.506

>  <homo_lumo_gap>
6.468

>  <logP>
-0.058

>  <lumo_energy>
-0.038

>  <melting_point>
143.03

>  <molecular_refractivity>
38.67

>  <oscillator_strength_1>
0.0038

>  <oscillator_strength_2>
0.0015

>  <oscillator_strength_3>
0.0007

>  <oscillator_strength_4>
0.0018

>  <open_babel_can_smiles>
Oc1noc2c1CNCC2

>  <mulliken_charges>
18
1   -0.358283
2   -0.1612
3   -0.22785
4   -0.026493
5   0.39365
6   0.457657
7   -0.52731
8   -0.229872
9   -0.610291
10   -0.394564
11   0.171846
12   0.166253
13   0.155102
14   0.159731
15   0.165012
16   0.147808
17   0.300254
18   0.41855

>  <lowdin_charges>
18
1   -0.297109
2   -0.201969
3   -0.200237
4   -0.148021
5   0.078917
6   0.094315
7   -0.348014
8   -0.108371
9   -0.353179
10   -0.07649
11   0.170539
12   0.160951
13   0.155831
14   0.149232
15   0.151554
16   0.150966
17   0.253725
18   0.36736

$$$$

