PCCDB-ID:  42682
public computational chemistry database (PCCDB) project, http://pccdb.org

 35 36  0  0  1  0  0  0  0  0999 V2000
    1.1621    0.1053    0.3971 C   0  0  0  0  0  0  0  0  0  0  0  0
    3.2779   -0.2394    1.6396 C   0  0  0  0  0  0  0  0  0  0  0  0
    5.0218    2.9363    1.2149 C   0  0  0  0  0  0  0  0  0  0  0  0
    2.9400    4.1145    1.1985 C   0  0  0  0  0  0  0  0  0  0  0  0
    2.4275   -0.9841   -2.0475 C   0  0  0  0  0  0  0  0  0  0  0  0
    2.7278    0.5423   -2.1215 C   0  0  0  0  0  0  0  0  0  0  0  0
    4.5512   -1.2713   -0.8133 C   0  0  0  0  0  0  0  0  0  0  0  0
    3.3140    2.3980   -0.4558 C   0  0  0  0  0  0  0  0  0  0  0  0
    3.0173   -1.3739   -0.6747 C   0  0  1  0  0  0  0  0  0  0  0  0
    4.7667    0.2500   -0.8882 C   0  0  0  0  0  0  0  0  0  0  0  0
    2.6706   -0.1398    0.2265 C   0  0  0  0  0  0  0  0  0  0  0  0
    3.3805    0.8911   -0.7279 C   0  0  2  0  0  0  0  0  0  0  0  0
    3.5947    2.8414    0.9154 N   0  0  0  0  0  0  0  0  0  0  0  0
    5.8191    0.8145   -1.1028 O   0  0  0  0  0  0  0  0  0  0  0  0
    0.7041   -0.7337    0.9362 H   0  0  0  0  0  0  0  0  0  0  0  0
    0.6217    0.2224   -0.5459 H   0  0  0  0  0  0  0  0  0  0  0  0
    0.9922    1.0086    0.9934 H   0  0  0  0  0  0  0  0  0  0  0  0
    2.8580   -1.1060    2.1666 H   0  0  0  0  0  0  0  0  0  0  0  0
    3.0495    0.6639    2.2090 H   0  0  0  0  0  0  0  0  0  0  0  0
    4.3664   -0.3508    1.6400 H   0  0  0  0  0  0  0  0  0  0  0  0
    5.1505    3.2060    2.2692 H   0  0  0  0  0  0  0  0  0  0  0  0
    5.5361    3.6976    0.5975 H   0  0  0  0  0  0  0  0  0  0  0  0
    5.5191    1.9828    1.0391 H   0  0  0  0  0  0  0  0  0  0  0  0
    3.1219    4.3924    2.2425 H   0  0  0  0  0  0  0  0  0  0  0  0
    1.8577    4.0218    1.0570 H   0  0  0  0  0  0  0  0  0  0  0  0
    3.3006    4.9458    0.5607 H   0  0  0  0  0  0  0  0  0  0  0  0
    2.8957   -1.5429   -2.8647 H   0  0  0  0  0  0  0  0  0  0  0  0
    1.3531   -1.1839   -2.0981 H   0  0  0  0  0  0  0  0  0  0  0  0
    1.8137    1.1313   -2.2515 H   0  0  0  0  0  0  0  0  0  0  0  0
    3.3932    0.8070   -2.9498 H   0  0  0  0  0  0  0  0  0  0  0  0
    4.9534   -1.7608   -1.7074 H   0  0  0  0  0  0  0  0  0  0  0  0
    5.0936   -1.6794    0.0462 H   0  0  0  0  0  0  0  0  0  0  0  0
    2.2895    2.7147   -0.6826 H   0  0  0  0  0  0  0  0  0  0  0  0
    3.9672    2.9106   -1.1887 H   0  0  0  0  0  0  0  0  0  0  0  0
    2.6667   -2.3355   -0.2863 H   0  0  0  0  0  0  0  0  0  0  0  0
  1 15  1  0  0  0  0
  1 17  1  0  0  0  0
  2 20  1  0  0  0  0
  2 18  1  0  0  0  0
  2 19  1  0  0  0  0
  3 21  1  0  0  0  0
  4 24  1  0  0  0  0
  5  9  1  0  0  0  0
  6  5  1  0  0  0  0
  6 12  1  0  0  0  0
  7  9  1  0  0  0  0
  7 32  1  0  0  0  0
  8 13  1  0  0  0  0
  9 35  1  1  0  0  0
  9 11  1  0  0  0  0
 10  7  1  0  0  0  0
 10 12  1  0  0  0  0
 11  1  1  0  0  0  0
 11  2  1  0  0  0  0
 12  8  1  1  0  0  0
 12 11  1  0  0  0  0
 13  4  1  0  0  0  0
 13  3  1  0  0  0  0
 14 10  2  0  0  0  0
 16  1  1  0  0  0  0
 22  3  1  0  0  0  0
 23  3  1  0  0  0  0
 25  4  1  0  0  0  0
 26  4  1  0  0  0  0
 27  5  1  0  0  0  0
 28  5  1  0  0  0  0
 29  6  1  0  0  0  0
 30  6  1  0  0  0  0
 31  7  1  0  0  0  0
 33  8  1  0  0  0  0
 34  8  1  0  0  0  0
M  END
>  <HBA>
2

>  <HBD>
0

>  <TPSA>
20.31

>  <cid>
42682

>  <dipole>
2.47

>  <excitation_energy_1>
4.178

>  <excitation_energy_2>
4.416

>  <excitation_energy_3>
5.149

>  <excitation_energy_4>
5.509

>  <homo_energy>
-5.644

>  <homo_lumo_gap>
5.363

>  <logP>
1.943

>  <lumo_energy>
-0.28

>  <melting_point>
76.01

>  <molecular_refractivity>
58.15

>  <oscillator_strength_1>
0.0003

>  <oscillator_strength_2>
0.0009

>  <oscillator_strength_3>
0.0099

>  <oscillator_strength_4>
0.032

>  <open_babel_can_smiles>
CN(C[C@@]12CC[C@H](C2(C)C)CC1=O)C

>  <mulliken_charges>
35
1   -0.473397
2   -0.465299
3   -0.303748
4   -0.294946
5   -0.276383
6   -0.311547
7   -0.359112
8   -0.146254
9   -0.112917
10   0.449478
11   0.097021
12   0.012481
13   -0.378677
14   -0.47548
15   0.142728
16   0.141378
17   0.156775
18   0.13258
19   0.17551
20   0.138923
21   0.13871
22   0.123882
23   0.171431
24   0.147464
25   0.145396
26   0.119064
27   0.138517
28   0.144146
29   0.149999
30   0.157868
31   0.163452
32   0.173739
33   0.128474
34   0.130523
35   0.118224

>  <lowdin_charges>
35
1   -0.447981
2   -0.450975
3   -0.360831
4   -0.35426
5   -0.284848
6   -0.280257
7   -0.317333
8   -0.19766
9   -0.134693
10   0.15574
11   0.011833
12   -0.03675
13   -0.183346
14   -0.239118
15   0.152078
16   0.148994
17   0.157
18   0.145715
19   0.166573
20   0.14552
21   0.143331
22   0.126912
23   0.16067
24   0.148141
25   0.144191
26   0.121746
27   0.147337
28   0.146283
29   0.151778
30   0.155298
31   0.165598
32   0.171206
33   0.144529
34   0.135294
35   0.142286

$$$$

