PCCDB-ID:  18057
public computational chemistry database (PCCDB) project, http://pccdb.org

 17 18  0  0  0  0  0  0  0  0999 V2000
    2.0868   -0.6886    0.1327 C   0  0  0  0  0  0  0  0  0  0  0  0
    0.9059   -1.3962    0.0739 C   0  0  0  0  0  0  0  0  0  0  0  0
    2.1037    0.7314    0.1090 C   0  0  0  0  0  0  0  0  0  0  0  0
   -1.6641    1.1073   -0.1233 C   0  0  0  0  0  0  0  0  0  0  0  0
   -0.3146    0.7683   -0.0368 C   0  0  0  0  0  0  0  0  0  0  0  0
   -0.3079   -0.6715   -0.0112 C   0  0  0  0  0  0  0  0  0  0  0  0
    0.9295    1.4469    0.0261 C   0  0  0  0  0  0  0  0  0  0  0  0
   -2.3236   -0.0751   -0.1416 N   0  0  0  0  0  0  0  0  0  0  0  0
   -1.5580   -1.1752   -0.0771 N   0  0  0  0  0  0  0  0  0  0  0  0
    0.9757    2.9044    0.0039 N   0  0  0  0  0  0  0  0  0  0  0  0
    2.0725    3.4616    0.0633 O   0  0  0  0  0  0  0  0  0  0  0  0
   -0.1045    3.4993   -0.0740 O   0  0  0  0  0  0  0  0  0  0  0  0
    3.0329   -1.2167    0.1980 H   0  0  0  0  0  0  0  0  0  0  0  0
    0.8882   -2.4813    0.0926 H   0  0  0  0  0  0  0  0  0  0  0  0
    3.0406    1.2725    0.1564 H   0  0  0  0  0  0  0  0  0  0  0  0
   -2.1666    2.0588   -0.1706 H   0  0  0  0  0  0  0  0  0  0  0  0
   -3.3258   -0.1980   -0.2000 H   0  0  0  0  0  0  0  0  0  0  0  0
  1 13  1  0  0  0  0
  2 14  1  0  0  0  0
  2  1  2  0  0  0  0
  3  1  1  0  0  0  0
  3 15  1  0  0  0  0
  4  5  2  0  0  0  0
  5  6  1  0  0  0  0
  5  7  1  0  0  0  0
  6  2  1  0  0  0  0
  7  3  2  0  0  0  0
  8  4  1  0  0  0  0
  8  9  1  0  0  0  0
  9  6  2  0  0  0  0
 10  7  1  0  0  0  0
 10 11  2  0  0  0  0
 12 10  2  0  0  0  0
 16  4  1  0  0  0  0
 17  8  1  0  0  0  0
M  END
>  <HBA>
1

>  <HBD>
1

>  <TPSA>
74.5

>  <cid>
18057

>  <dipole>
3.46

>  <excitation_energy_1>
3.29

>  <excitation_energy_2>
3.641

>  <excitation_energy_3>
4.062

>  <excitation_energy_4>
4.173

>  <homo_energy>
-6.384

>  <homo_lumo_gap>
3.796

>  <logP>
1.994

>  <lumo_energy>
-2.588

>  <melting_point>
150.23

>  <molecular_refractivity>
44.92

>  <oscillator_strength_1>
0.1325

>  <oscillator_strength_2>
0.0

>  <oscillator_strength_3>
0.0539

>  <oscillator_strength_4>
0.0004

>  <open_babel_can_smiles>
O=N(=O)c1cccc2c1c[nH]n2

>  <mulliken_charges>
17
1   -0.157331
2   -0.118663
3   -0.162156
4   0.04652
5   0.033102
6   0.287614
7   0.225878
8   -0.382104
9   -0.377267
10   0.374283
11   -0.401356
12   -0.420454
13   0.149174
14   0.158819
15   0.18195
16   0.202083
17   0.359908

>  <lowdin_charges>
17
1   -0.159068
2   -0.122027
3   -0.134912
4   -0.140179
5   -0.048859
6   0.007173
7   0.00248
8   -0.067875
9   -0.164232
10   0.31011
11   -0.251506
12   -0.2594
13   0.168809
14   0.174474
15   0.18863
16   0.195
17   0.301381

$$$$

