PCCDB-ID:  11670
public computational chemistry database (PCCDB) project, http://pccdb.org

 21 20  0  0  0  0  0  0  0  0999 V2000
    2.9473    1.1678   -0.9227 C   0  0  0  0  0  0  0  0  0  0  0  0
    0.9481    0.0196    0.1038 C   0  0  0  0  0  0  0  0  0  0  0  0
    2.6766   -2.5030    0.4524 C   0  0  0  0  0  0  0  0  0  0  0  0
    2.5934   -1.7492   -1.9528 C   0  0  0  0  0  0  0  0  0  0  0  0
    2.4774   -0.0060   -0.0478 C   0  0  0  0  0  0  0  0  0  0  0  0
    3.0369   -1.3750   -0.5291 C   0  0  0  0  0  0  0  0  0  0  0  0
    4.4671   -1.1961   -0.5099 O   0  0  0  0  0  0  0  0  0  0  0  0
    2.6748    2.1199   -0.4521 H   0  0  0  0  0  0  0  0  0  0  0  0
    2.4752    1.1492   -1.9129 H   0  0  0  0  0  0  0  0  0  0  0  0
    4.0310    1.1473   -1.0588 H   0  0  0  0  0  0  0  0  0  0  0  0
    0.6294    0.9919    0.4967 H   0  0  0  0  0  0  0  0  0  0  0  0
    0.5797   -0.7468    0.7934 H   0  0  0  0  0  0  0  0  0  0  0  0
    0.4431   -0.1205   -0.8599 H   0  0  0  0  0  0  0  0  0  0  0  0
    1.6067   -2.7348    0.4474 H   0  0  0  0  0  0  0  0  0  0  0  0
    2.9730   -2.2346    1.4721 H   0  0  0  0  0  0  0  0  0  0  0  0
    3.2087   -3.4236    0.1780 H   0  0  0  0  0  0  0  0  0  0  0  0
    1.5061   -1.8588   -2.0279 H   0  0  0  0  0  0  0  0  0  0  0  0
    3.0379   -2.7098   -2.2451 H   0  0  0  0  0  0  0  0  0  0  0  0
    2.9188   -0.9963   -2.6762 H   0  0  0  0  0  0  0  0  0  0  0  0
    2.9160    0.1380    0.9501 H   0  0  0  0  0  0  0  0  0  0  0  0
    4.8654   -2.0306   -0.8041 H   0  0  0  0  0  0  0  0  0  0  0  0
  1  8  1  0  0  0  0
  1  5  1  0  0  0  0
  2 11  1  0  0  0  0
  2 12  1  0  0  0  0
  3 15  1  0  0  0  0
  4  6  1  0  0  0  0
  5  2  1  0  0  0  0
  5 20  1  0  0  0  0
  6  7  1  0  0  0  0
  6  5  1  0  0  0  0
  6  3  1  0  0  0  0
  9  1  1  0  0  0  0
 10  1  1  0  0  0  0
 13  2  1  0  0  0  0
 14  3  1  0  0  0  0
 16  3  1  0  0  0  0
 17  4  1  0  0  0  0
 18  4  1  0  0  0  0
 19  4  1  0  0  0  0
 21  7  1  0  0  0  0
M  END
>  <HBA>
1

>  <HBD>
1

>  <TPSA>
20.23

>  <cid>
11670

>  <dipole>
1.43

>  <excitation_energy_1>
6.446

>  <excitation_energy_2>
7.141

>  <excitation_energy_3>
7.428

>  <excitation_energy_4>
7.493

>  <homo_energy>
-7.045

>  <homo_lumo_gap>
8.866

>  <logP>
1.413

>  <lumo_energy>
1.82

>  <melting_point>
3.08

>  <molecular_refractivity>
32.16

>  <oscillator_strength_1>
0.0214

>  <oscillator_strength_2>
0.0049

>  <oscillator_strength_3>
0.0066

>  <oscillator_strength_4>
0.0

>  <open_babel_can_smiles>
CC(C(O)(C)C)C

>  <mulliken_charges>
21
1   -0.45563
2   -0.458236
3   -0.460138
4   -0.468038
5   -0.066604
6   0.319074
7   -0.643706
8   0.134441
9   0.133375
10   0.170811
11   0.144162
12   0.143417
13   0.141274
14   0.144589
15   0.152568
16   0.125682
17   0.144825
18   0.127172
19   0.159228
20   0.130073
21   0.38166

>  <lowdin_charges>
21
1   -0.446332
2   -0.449486
3   -0.454432
4   -0.459963
5   -0.124016
6   0.123794
7   -0.466297
8   0.146578
9   0.141474
10   0.160923
11   0.151724
12   0.149389
13   0.145592
14   0.150147
15   0.154324
16   0.142937
17   0.150717
18   0.143582
19   0.158808
20   0.143361
21   0.337176

$$$$

