PCCDB-ID:  7909
public computational chemistry database (PCCDB) project, http://pccdb.org

 19 18  0  0  0  0  0  0  0  0999 V2000
    0.8050    0.3163    0.2533 C   0  0  0  0  0  0  0  0  0  0  0  0
    2.6736    0.0847    1.9468 C   0  0  0  0  0  0  0  0  0  0  0  0
    2.9011   -2.6128   -2.3917 C   0  0  0  0  0  0  0  0  0  0  0  0
    2.7501   -1.2532   -0.1946 C   0  0  0  0  0  0  0  0  0  0  0  0
    2.3066    0.0661    0.4563 C   0  0  0  0  0  0  0  0  0  0  0  0
    2.7369   -1.2579   -1.7210 C   0  0  0  0  0  0  0  0  0  0  0  0
    2.6210   -0.2371   -2.3736 O   0  0  0  0  0  0  0  0  0  0  0  0
    0.5023    1.2641    0.7134 H   0  0  0  0  0  0  0  0  0  0  0  0
    0.2075   -0.4810    0.7162 H   0  0  0  0  0  0  0  0  0  0  0  0
    0.5528    0.3637   -0.8101 H   0  0  0  0  0  0  0  0  0  0  0  0
    2.3898    1.0382    2.4074 H   0  0  0  0  0  0  0  0  0  0  0  0
    3.7511   -0.0533    2.0991 H   0  0  0  0  0  0  0  0  0  0  0  0
    2.1548   -0.7135    2.4942 H   0  0  0  0  0  0  0  0  0  0  0  0
    3.7596   -3.1564   -1.9789 H   0  0  0  0  0  0  0  0  0  0  0  0
    3.0267   -2.4818   -3.4684 H   0  0  0  0  0  0  0  0  0  0  0  0
    2.0132   -3.2306   -2.2046 H   0  0  0  0  0  0  0  0  0  0  0  0
    2.1423   -2.0947    0.1712 H   0  0  0  0  0  0  0  0  0  0  0  0
    3.7827   -1.4968    0.1040 H   0  0  0  0  0  0  0  0  0  0  0  0
    2.8521    0.8735   -0.0485 H   0  0  0  0  0  0  0  0  0  0  0  0
  1  5  1  0  0  0  0
  1  8  1  0  0  0  0
  1  9  1  0  0  0  0
  2 12  1  0  0  0  0
  2 11  1  0  0  0  0
  2 13  1  0  0  0  0
  3 16  1  0  0  0  0
  3 14  1  0  0  0  0
  3  6  1  0  0  0  0
  4 18  1  0  0  0  0
  4 17  1  0  0  0  0
  4  5  1  0  0  0  0
  5  2  1  0  0  0  0
  6  4  1  0  0  0  0
  7  6  2  0  0  0  0
 10  1  1  0  0  0  0
 15  3  1  0  0  0  0
 19  5  1  0  0  0  0
M  END
>  <HBA>
1

>  <HBD>
0

>  <TPSA>
17.07

>  <cid>
7909

>  <dipole>
2.52

>  <excitation_energy_1>
4.41

>  <excitation_energy_2>
6.104

>  <excitation_energy_3>
6.781

>  <excitation_energy_4>
7.029

>  <homo_energy>
-6.618

>  <homo_lumo_gap>
6.321

>  <logP>
1.621

>  <lumo_energy>
-0.297

>  <melting_point>
-5.17

>  <molecular_refractivity>
31.16

>  <oscillator_strength_1>
0.0

>  <oscillator_strength_2>
0.0333

>  <oscillator_strength_3>
0.0015

>  <oscillator_strength_4>
0.0002

>  <open_babel_can_smiles>
CC(CC(=O)C)C

>  <mulliken_charges>
19
1   -0.451448
2   -0.446445
3   -0.528955
4   -0.352031
5   -0.058081
6   0.455569
7   -0.439434
8   0.141713
9   0.129738
10   0.164246
11   0.144623
12   0.137895
13   0.136607
14   0.164013
15   0.179125
16   0.170855
17   0.14606
18   0.157623
19   0.148327

>  <lowdin_charges>
19
1   -0.447643
2   -0.4439
3   -0.475316
4   -0.312353
5   -0.118362
6   0.169471
7   -0.239332
8   0.149677
9   0.141408
10   0.157747
11   0.150445
12   0.144333
13   0.145119
14   0.167254
15   0.170698
16   0.171709
17   0.154735
18   0.162542
19   0.151768

$$$$

