PCCDB-ID:  69042
public computational chemistry database (PCCDB) project, http://pccdb.org

 22 22  0  0  0  0  0  0  0  0999 V2000
    0.8925    0.0491   -0.3310 C   0  0  0  0  0  0  0  0  0  0  0  0
    5.1908   -2.6230    0.2589 C   0  0  0  0  0  0  0  0  0  0  0  0
    3.1426    1.1898   -0.2282 C   0  0  0  0  0  0  0  0  0  0  0  0
    4.5247    1.1632   -0.1135 C   0  0  0  0  0  0  0  0  0  0  0  0
    2.3937    0.0089   -0.1892 C   0  0  0  0  0  0  0  0  0  0  0  0
    4.5028   -1.2834    0.1271 C   0  0  0  0  0  0  0  0  0  0  0  0
    5.1825   -0.0519    0.0710 C   0  0  0  0  0  0  0  0  0  0  0  0
    3.1084   -1.1853   -0.0099 C   0  0  0  0  0  0  0  0  0  0  0  0
    6.6466    0.0278    0.2233 N   0  0  0  0  0  0  0  0  0  0  0  0
    2.3203   -2.4353    0.0553 N   0  0  0  0  0  0  0  0  0  0  0  0
    7.2129    0.9975   -0.2800 O   0  0  0  0  0  0  0  0  0  0  0  0
    7.2142   -0.8576    0.8621 O   0  0  0  0  0  0  0  0  0  0  0  0
    1.6263   -2.7178   -0.9188 O   0  0  0  0  0  0  0  0  0  0  0  0
    2.4043   -3.0993    1.0849 O   0  0  0  0  0  0  0  0  0  0  0  0
    0.5335    1.0785   -0.2529 H   0  0  0  0  0  0  0  0  0  0  0  0
    0.3932   -0.5463    0.4409 H   0  0  0  0  0  0  0  0  0  0  0  0
    0.5804   -0.3563   -1.2988 H   0  0  0  0  0  0  0  0  0  0  0  0
    6.1446   -2.6252   -0.2691 H   0  0  0  0  0  0  0  0  0  0  0  0
    4.5684   -3.4273   -0.1353 H   0  0  0  0  0  0  0  0  0  0  0  0
    5.4052   -2.8447    1.3085 H   0  0  0  0  0  0  0  0  0  0  0  0
    2.6306    2.1393   -0.3513 H   0  0  0  0  0  0  0  0  0  0  0  0
    5.1115    2.0723   -0.1581 H   0  0  0  0  0  0  0  0  0  0  0  0
  1 15  1  0  0  0  0
  1  5  1  0  0  0  0
  1 16  1  0  0  0  0
  2 20  1  0  0  0  0
  3  5  2  0  0  0  0
  3  4  1  0  0  0  0
  4  7  2  0  0  0  0
  5  8  1  0  0  0  0
  6  2  1  0  0  0  0
  7  6  1  0  0  0  0
  7  9  1  0  0  0  0
  8 10  1  0  0  0  0
  8  6  2  0  0  0  0
  9 12  2  0  0  0  0
 10 14  2  0  0  0  0
 11  9  2  0  0  0  0
 13 10  2  0  0  0  0
 17  1  1  0  0  0  0
 18  2  1  0  0  0  0
 19  2  1  0  0  0  0
 21  3  1  0  0  0  0
 22  4  1  0  0  0  0
M  END
>  <HBA>
0

>  <HBD>
0

>  <TPSA>
91.64

>  <cid>
69042

>  <dipole>
3.6

>  <excitation_energy_1>
3.659

>  <excitation_energy_2>
3.705

>  <excitation_energy_3>
4.091

>  <excitation_energy_4>
4.26

>  <homo_energy>
-7.668

>  <homo_lumo_gap>
4.969

>  <logP>
3.166

>  <lumo_energy>
-2.699

>  <melting_point>
91.59

>  <molecular_refractivity>
54.02

>  <oscillator_strength_1>
0.0142

>  <oscillator_strength_2>
0.0193

>  <oscillator_strength_3>
0.0081

>  <oscillator_strength_4>
0.0066

>  <open_babel_can_smiles>
O=N(=O)c1ccc(c(c1C)N(=O)=O)C

>  <mulliken_charges>
22
1   -0.534881
2   -0.502429
3   -0.21812
4   -0.112032
5   0.21295
6   0.190875
7   0.182953
8   0.124317
9   0.359551
10   0.324556
11   -0.380393
12   -0.381991
13   -0.364096
14   -0.359833
15   0.166425
16   0.18305
17   0.20481
18   0.182665
19   0.171279
20   0.204614
21   0.154914
22   0.190817

>  <lowdin_charges>
22
1   -0.444087
2   -0.441232
3   -0.15679
4   -0.125228
5   0.032929
6   0.035411
7   -0.000657
8   -0.000757
9   0.30861
10   0.301552
11   -0.242178
12   -0.234941
13   -0.227667
14   -0.223351
15   0.164286
16   0.17439
17   0.184606
18   0.175891
19   0.167539
20   0.187195
21   0.172048
22   0.192432

$$$$

