PCCDB-ID:  70263
public computational chemistry database (PCCDB) project, http://pccdb.org

 20 20  0  0  0  0  0  0  0  0999 V2000
    1.0104   -0.0618   -0.0693 C   0  0  0  0  0  0  0  0  0  0  0  0
    2.2175   -0.0691   -0.0108 C   0  0  0  0  0  0  0  0  0  0  0  0
    4.4469   -0.4402    2.9312 C   0  0  0  0  0  0  0  0  0  0  0  0
    3.9123   -1.6154    2.0979 C   0  0  0  0  0  0  0  0  0  0  0  0
    3.9119    0.9048    2.4155 C   0  0  0  0  0  0  0  0  0  0  0  0
    4.2186   -1.4304    0.6055 C   0  0  0  0  0  0  0  0  0  0  0  0
    4.2182    1.0968    0.9237 C   0  0  0  0  0  0  0  0  0  0  0  0
    3.6846   -0.0780    0.0608 C   0  0  0  0  0  0  0  0  0  0  0  0
   -0.0544   -0.0566   -0.1227 H   0  0  0  0  0  0  0  0  0  0  0  0
    5.5464   -0.4339    2.8797 H   0  0  0  0  0  0  0  0  0  0  0  0
    4.1851   -0.5738    3.9884 H   0  0  0  0  0  0  0  0  0  0  0  0
    2.8250   -1.6947    2.2324 H   0  0  0  0  0  0  0  0  0  0  0  0
    4.3446   -2.5602    2.4507 H   0  0  0  0  0  0  0  0  0  0  0  0
    4.3446    1.7322    2.9919 H   0  0  0  0  0  0  0  0  0  0  0  0
    2.8247    0.9484    2.5665 H   0  0  0  0  0  0  0  0  0  0  0  0
    3.7950   -2.2533    0.0184 H   0  0  0  0  0  0  0  0  0  0  0  0
    5.3063   -1.4486    0.4475 H   0  0  0  0  0  0  0  0  0  0  0  0
    5.3061    1.1522    0.7760 H   0  0  0  0  0  0  0  0  0  0  0  0
    3.7961    2.0404    0.5598 H   0  0  0  0  0  0  0  0  0  0  0  0
    4.0656    0.0496   -0.9625 H   0  0  0  0  0  0  0  0  0  0  0  0
  1  2  3  0  0  0  0
  2  8  1  0  0  0  0
  3 11  1  0  0  0  0
  4 12  1  0  0  0  0
  4 13  1  0  0  0  0
  4  3  1  0  0  0  0
  5 15  1  0  0  0  0
  5  3  1  0  0  0  0
  5 14  1  0  0  0  0
  6  4  1  0  0  0  0
  7  5  1  0  0  0  0
  8  6  1  0  0  0  0
  8  7  1  0  0  0  0
  9  1  1  0  0  0  0
 10  3  1  0  0  0  0
 16  6  1  0  0  0  0
 17  6  1  0  0  0  0
 18  7  1  0  0  0  0
 19  7  1  0  0  0  0
 20  8  1  0  0  0  0
M  END
>  <HBA>
0

>  <HBD>
0

>  <TPSA>
0.0

>  <cid>
70263

>  <dipole>
0.58

>  <excitation_energy_1>
6.329

>  <excitation_energy_2>
6.454

>  <excitation_energy_3>
6.593

>  <excitation_energy_4>
6.677

>  <homo_energy>
-6.953

>  <homo_lumo_gap>
8.49

>  <logP>
2.2

>  <lumo_energy>
1.537

>  <melting_point>
12.04

>  <molecular_refractivity>
36.62

>  <oscillator_strength_1>
0.0035

>  <oscillator_strength_2>
0.0077

>  <oscillator_strength_3>
0.0064

>  <oscillator_strength_4>
0.0174

>  <open_babel_can_smiles>
C#CC1CCCCC1

>  <mulliken_charges>
20
1   -0.517706
2   0.35302
3   -0.256495
4   -0.261269
5   -0.261009
6   -0.258713
7   -0.258949
8   -0.234825
9   0.183777
10   0.124705
11   0.131218
12   0.145623
13   0.131097
14   0.131041
15   0.145616
16   0.143229
17   0.130938
18   0.130971
19   0.143356
20   0.154375

>  <lowdin_charges>
20
1   -0.271372
2   -0.038438
3   -0.273875
4   -0.278527
5   -0.279471
6   -0.270187
7   -0.269223
8   -0.117448
9   0.200681
10   0.133272
11   0.142574
12   0.145554
13   0.144576
14   0.145475
15   0.145547
16   0.151566
17   0.13884
18   0.138853
19   0.150712
20   0.16089

$$$$

