PCCDB-ID:  32683
public computational chemistry database (PCCDB) project, http://pccdb.org

 27 28  0  0  1  0  0  0  0  0999 V2000
    1.3779   -0.1322    0.0800 C   0  0  0  0  0  0  0  0  0  0  0  0
    0.3190   -0.2877   -1.0221 C   0  0  0  0  0  0  0  0  0  0  0  0
    2.7417    0.3117   -0.4707 C   0  0  0  0  0  0  0  0  0  0  0  0
   -1.0920   -0.6382   -0.5164 C   0  0  0  0  0  0  0  0  0  0  0  0
    3.8660    0.3929    0.5774 C   0  0  0  0  0  0  0  0  0  0  0  0
   -1.5659   -3.2004   -0.6326 C   0  0  0  0  0  0  0  0  0  0  0  0
    4.1737    2.8220    1.4770 C   0  0  0  0  0  0  0  0  0  0  0  0
   -1.1968   -2.0005    0.1342 C   0  0  2  0  0  0  0  0  0  0  0  0
    3.6499    1.4559    1.6322 C   0  0  2  0  0  0  0  0  0  0  0  0
   -2.5145   -2.5614    0.2308 O   0  0  0  0  0  0  0  0  0  0  0  0
    4.8149    1.8861    2.3523 O   0  0  0  0  0  0  0  0  0  0  0  0
    1.5040   -1.0819    0.6190 H   0  0  0  0  0  0  0  0  0  0  0  0
    1.0153    0.5951    0.8201 H   0  0  0  0  0  0  0  0  0  0  0  0
    0.6490   -1.0537   -1.7386 H   0  0  0  0  0  0  0  0  0  0  0  0
    0.2592    0.6524   -1.5874 H   0  0  0  0  0  0  0  0  0  0  0  0
    2.6344    1.2885   -0.9639 H   0  0  0  0  0  0  0  0  0  0  0  0
    3.0507   -0.3928   -1.2552 H   0  0  0  0  0  0  0  0  0  0  0  0
   -1.8030   -0.6094   -1.3511 H   0  0  0  0  0  0  0  0  0  0  0  0
   -1.4252    0.1237    0.2028 H   0  0  0  0  0  0  0  0  0  0  0  0
    4.8219    0.6013    0.0814 H   0  0  0  0  0  0  0  0  0  0  0  0
    3.9795   -0.5813    1.0740 H   0  0  0  0  0  0  0  0  0  0  0  0
   -1.2261   -4.1847   -0.3082 H   0  0  0  0  0  0  0  0  0  0  0  0
   -1.7733   -3.1116   -1.7000 H   0  0  0  0  0  0  0  0  0  0  0  0
    3.6771    3.6589    1.9693 H   0  0  0  0  0  0  0  0  0  0  0  0
    4.7363    3.0821    0.5790 H   0  0  0  0  0  0  0  0  0  0  0  0
   -0.5992   -2.1504    1.0361 H   0  0  0  0  0  0  0  0  0  0  0  0
    2.7729    1.3290    2.2707 H   0  0  0  0  0  0  0  0  0  0  0  0
  1 12  1  0  0  0  0
  1 13  1  0  0  0  0
  2  4  1  0  0  0  0
  2  1  1  0  0  0  0
  3  1  1  0  0  0  0
  3  5  1  0  0  0  0
  4  8  1  0  0  0  0
  4 19  1  0  0  0  0
  5 21  1  0  0  0  0
  5  9  1  0  0  0  0
  6 22  1  0  0  0  0
  6  8  1  0  0  0  0
  6 10  1  0  0  0  0
  7  9  1  0  0  0  0
  7 24  1  0  0  0  0
  7 11  1  0  0  0  0
  8 10  1  0  0  0  0
  8 26  1  1  0  0  0
  9 27  1  1  0  0  0
  9 11  1  0  0  0  0
 14  2  1  0  0  0  0
 15  2  1  0  0  0  0
 16  3  1  0  0  0  0
 17  3  1  0  0  0  0
 18  4  1  0  0  0  0
 20  5  1  0  0  0  0
 23  6  1  0  0  0  0
 25  7  1  0  0  0  0
M  END
>  <HBA>
2

>  <HBD>
0

>  <TPSA>
25.06

>  <cid>
32683

>  <dipole>
2.29

>  <excitation_energy_1>
6.727

>  <excitation_energy_2>
6.739

>  <excitation_energy_3>
6.97

>  <excitation_energy_4>
6.979

>  <homo_energy>
-7.143

>  <homo_lumo_gap>
9.102

>  <logP>
1.734

>  <lumo_energy>
1.959

>  <melting_point>
-1.3

>  <molecular_refractivity>
43.32

>  <oscillator_strength_1>
0.0085

>  <oscillator_strength_2>
0.0129

>  <oscillator_strength_3>
0.0222

>  <oscillator_strength_4>
0.0012

>  <open_babel_can_smiles>
C(CC[C@H]1OC1)CC[C@H]1OC1

>  <mulliken_charges>
27
1   -0.26376
2   -0.260962
3   -0.261477
4   -0.287411
5   -0.287267
6   -0.111025
7   -0.111068
8   0.110278
9   0.110394
10   -0.449833
11   -0.449915
12   0.135589
13   0.135656
14   0.133759
15   0.136277
16   0.133831
17   0.136315
18   0.1448
19   0.144552
20   0.144957
21   0.144498
22   0.147961
23   0.146282
24   0.147937
25   0.146267
26   0.141641
27   0.141724

>  <lowdin_charges>
27
1   -0.282257
2   -0.275364
3   -0.275166
4   -0.281832
5   -0.279954
6   -0.167822
7   -0.171826
8   -0.024728
9   -0.024316
10   -0.288372
11   -0.288443
12   0.139633
13   0.140753
14   0.141786
15   0.145156
16   0.140535
17   0.145988
18   0.154905
19   0.150646
20   0.154341
21   0.149393
22   0.151927
23   0.14814
24   0.15341
25   0.150328
26   0.146514
27   0.146626

$$$$

