PCCDB-ID:  562
public computational chemistry database (PCCDB) project, http://pccdb.org

 20 19  0  0  0  0  0  0  0  0999 V2000
    1.1190    0.7227    1.1222 C   0  0  0  0  0  0  0  0  0  0  0  0
    4.8210   -1.1908    1.4568 C   0  0  0  0  0  0  0  0  0  0  0  0
    3.3179   -0.9426    1.5552 C   0  0  0  0  0  0  0  0  0  0  0  0
    7.0517   -4.1223    2.4272 C   0  0  0  0  0  0  0  0  0  0  0  0
    5.2231   -2.5502    1.9924 C   0  0  0  0  0  0  0  0  0  0  0  0
    6.6347   -2.9127    1.9591 C   0  0  0  0  0  0  0  0  0  0  0  0
    6.2554   -5.0617    2.9415 O   0  0  0  0  0  0  0  0  0  0  0  0
    4.3777   -3.3415    2.4500 O   0  0  0  0  0  0  0  0  0  0  0  0
    7.4840   -1.9575    1.4301 O   0  0  0  0  0  0  0  0  0  0  0  0
    2.9280    0.7157    0.8718 S   0  0  0  0  0  0  0  0  0  0  0  0
    0.7455    1.6751    0.7370 H   0  0  0  0  0  0  0  0  0  0  0  0
    0.8653    0.6479    2.1841 H   0  0  0  0  0  0  0  0  0  0  0  0
    0.6398   -0.0926    0.5716 H   0  0  0  0  0  0  0  0  0  0  0  0
    5.3875   -0.4242    2.0027 H   0  0  0  0  0  0  0  0  0  0  0  0
    5.1697   -1.1137    0.4179 H   0  0  0  0  0  0  0  0  0  0  0  0
    2.9919   -0.9961    2.5986 H   0  0  0  0  0  0  0  0  0  0  0  0
    2.7694   -1.7079    0.9975 H   0  0  0  0  0  0  0  0  0  0  0  0
    8.1027   -4.4111    2.4118 H   0  0  0  0  0  0  0  0  0  0  0  0
    5.3326   -4.6841    2.9029 H   0  0  0  0  0  0  0  0  0  0  0  0
    8.3951   -2.2886    1.4542 H   0  0  0  0  0  0  0  0  0  0  0  0
  1 12  1  0  0  0  0
  2  3  1  0  0  0  0
  2  5  1  0  0  0  0
  2 14  1  0  0  0  0
  3 16  1  0  0  0  0
  4  7  1  0  0  0  0
  5  8  2  0  0  0  0
  6  5  1  0  0  0  0
  6  4  2  0  0  0  0
  9 20  1  0  0  0  0
  9  6  1  0  0  0  0
 10  1  1  0  0  0  0
 10  3  1  0  0  0  0
 11  1  1  0  0  0  0
 13  1  1  0  0  0  0
 15  2  1  0  0  0  0
 17  3  1  0  0  0  0
 18  4  1  0  0  0  0
 19  7  1  0  0  0  0
M  END
>  <HBA>
4

>  <HBD>
2

>  <TPSA>
82.83

>  <cid>
562

>  <dipole>
1.51

>  <excitation_energy_1>
3.632

>  <excitation_energy_2>
4.187

>  <excitation_energy_3>
4.292

>  <excitation_energy_4>
4.915

>  <homo_energy>
-5.916

>  <homo_lumo_gap>
4.463

>  <logP>
1.266

>  <lumo_energy>
-1.453

>  <melting_point>
39.59

>  <molecular_refractivity>
41.42

>  <oscillator_strength_1>
0.0037

>  <oscillator_strength_2>
0.0003

>  <oscillator_strength_3>
0.211

>  <oscillator_strength_4>
0.0007

>  <open_babel_can_smiles>
CSCCC(=O)/C(=C\O)/O

>  <mulliken_charges>
20
1   -0.583184
2   -0.360063
3   -0.394881
4   0.079881
5   0.426755
6   0.240191
7   -0.574417
8   -0.545726
9   -0.657408
10   0.084998
11   0.182816
12   0.177272
13   0.177212
14   0.192702
15   0.192792
16   0.178069
17   0.178552
18   0.149285
19   0.447536
20   0.407619

>  <lowdin_charges>
20
1   -0.545112
2   -0.301985
3   -0.367172
4   -0.038688
5   0.162414
6   -0.024501
7   -0.347613
8   -0.29894
9   -0.398215
10   0.090124
11   0.175976
12   0.160373
13   0.162877
14   0.181335
15   0.179159
16   0.160371
17   0.163089
18   0.158206
19   0.369672
20   0.358629

$$$$

