PCCDB-ID:  12182
public computational chemistry database (PCCDB) project, http://pccdb.org

 13 12  0  0  0  0  0  0  0  0999 V2000
    2.2974   -4.4251    1.3133 C   0  0  0  0  0  0  0  0  0  0  0  0
    7.2890   -2.1239    0.9908 C   0  0  0  0  0  0  0  0  0  0  0  0
    3.2643   -3.8593    0.8637 C   0  0  0  0  0  0  0  0  0  0  0  0
    5.9955   -1.4559    0.5505 C   0  0  0  0  0  0  0  0  0  0  0  0
    4.4311   -3.2241    0.2809 C   0  0  0  0  0  0  0  0  0  0  0  0
    4.9577   -3.5929   -0.7481 O   0  0  0  0  0  0  0  0  0  0  0  0
    4.8337   -2.1817    1.0330 O   0  0  0  0  0  0  0  0  0  0  0  0
    1.4421   -4.9267    1.7078 H   0  0  0  0  0  0  0  0  0  0  0  0
    8.1436   -1.5129    0.6782 H   0  0  0  0  0  0  0  0  0  0  0  0
    7.3891   -3.1120    0.5337 H   0  0  0  0  0  0  0  0  0  0  0  0
    7.3219   -2.2299    2.0799 H   0  0  0  0  0  0  0  0  0  0  0  0
    5.9347   -1.3813   -0.5379 H   0  0  0  0  0  0  0  0  0  0  0  0
    5.8852   -0.4630    0.9918 H   0  0  0  0  0  0  0  0  0  0  0  0
  1  8  1  0  0  0  0
  2 11  1  0  0  0  0
  3  1  3  0  0  0  0
  4  2  1  0  0  0  0
  4 13  1  0  0  0  0
  4  7  1  0  0  0  0
  5  3  1  0  0  0  0
  5  7  1  0  0  0  0
  6  5  2  0  0  0  0
  9  2  1  0  0  0  0
 10  2  1  0  0  0  0
 12  4  1  0  0  0  0
M  END
>  <HBA>
2

>  <HBD>
0

>  <TPSA>
26.3

>  <cid>
12182

>  <dipole>
1.8

>  <excitation_energy_1>
4.782

>  <excitation_energy_2>
5.626

>  <excitation_energy_3>
5.944

>  <excitation_energy_4>
6.567

>  <homo_energy>
-7.581

>  <homo_lumo_gap>
6.419

>  <logP>
0.183

>  <lumo_energy>
-1.162

>  <melting_point>
3.89

>  <molecular_refractivity>
25.6

>  <oscillator_strength_1>
0.0001

>  <oscillator_strength_2>
0.0003

>  <oscillator_strength_3>
0.0907

>  <oscillator_strength_4>
0.0927

>  <open_babel_can_smiles>
CCOC(=O)C#C

>  <mulliken_charges>
13
1   -0.520121
2   -0.464501
3   0.417761
4   -0.044346
5   0.464651
6   -0.456117
7   -0.442496
8   0.216557
9   0.153709
10   0.179673
11   0.161831
12   0.173948
13   0.159452

>  <lowdin_charges>
13
1   -0.177973
2   -0.453371
3   -0.046552
4   -0.123968
5   0.203471
6   -0.241587
7   -0.175525
8   0.216381
9   0.161562
10   0.166789
11   0.156657
12   0.158505
13   0.155611

$$$$

