PCCDB-ID:  69395
public computational chemistry database (PCCDB) project, http://pccdb.org

 14 13  0  0  0  0  0  0  0  0999 V2000
    1.3660    0.1530   -0.3108 C   0  0  0  0  0  0  0  0  0  0  0  0
    0.1214    0.4295   -0.7237 C   0  0  0  0  0  0  0  0  0  0  0  0
    2.5902    0.6988   -0.9566 C   0  0  0  0  0  0  0  0  0  0  0  0
   -1.1022   -0.1367   -0.0946 C   0  0  0  0  0  0  0  0  0  0  0  0
    2.7875    0.9069   -2.1956 N   0  0  0  0  0  0  0  0  0  0  0  0
   -1.2602   -1.3042    0.3845 N   0  0  0  0  0  0  0  0  0  0  0  0
    3.6144    0.9786   -0.1016 O   0  0  0  0  0  0  0  0  0  0  0  0
   -2.1730    0.7063   -0.0607 O   0  0  0  0  0  0  0  0  0  0  0  0
    1.5092   -0.4926    0.5571 H   0  0  0  0  0  0  0  0  0  0  0  0
   -0.0238    1.1196   -1.5563 H   0  0  0  0  0  0  0  0  0  0  0  0
    1.9791    0.5993   -2.7372 H   0  0  0  0  0  0  0  0  0  0  0  0
   -0.4157   -1.8598    0.2438 H   0  0  0  0  0  0  0  0  0  0  0  0
    3.3033    0.9218    0.8147 H   0  0  0  0  0  0  0  0  0  0  0  0
   -1.8960    1.6010   -0.3111 H   0  0  0  0  0  0  0  0  0  0  0  0
  1  9  1  0  0  0  0
  2  1  2  0  0  0  0
  2  4  1  0  0  0  0
  3  1  1  0  0  0  0
  3  7  1  0  0  0  0
  4  8  1  0  0  0  0
  4  6  2  0  0  0  0
  5  3  2  0  0  0  0
  7 13  1  0  0  0  0
 10  2  1  0  0  0  0
 11  5  1  0  0  0  0
 12  6  1  0  0  0  0
 14  8  1  0  0  0  0
M  END
>  <HBA>
4

>  <HBD>
2

>  <TPSA>
86.18

>  <cid>
69395

>  <dipole>
1.52

>  <excitation_energy_1>
4.37

>  <excitation_energy_2>
4.377

>  <excitation_energy_3>
4.696

>  <excitation_energy_4>
5.041

>  <homo_energy>
-7.268

>  <homo_lumo_gap>
5.064

>  <logP>
-0.086

>  <lumo_energy>
-2.204

>  <melting_point>
135.83

>  <molecular_refractivity>
26.68

>  <oscillator_strength_1>
0.0432

>  <oscillator_strength_2>
0.0021

>  <oscillator_strength_3>
0.1311

>  <oscillator_strength_4>
0.0047

>  <open_babel_can_smiles>
OC(=N)/C=C/C(=N)O

>  <mulliken_charges>
14
1   -0.1919
2   -0.192103
3   0.468118
4   0.468229
5   -0.566949
6   -0.566991
7   -0.573211
8   -0.573288
9   0.160895
10   0.160991
11   0.291845
12   0.291827
13   0.411271
14   0.411266

>  <lowdin_charges>
14
1   -0.182003
2   -0.182059
3   0.121186
4   0.12159
5   -0.374778
6   -0.374609
7   -0.353929
8   -0.354542
9   0.169187
10   0.169365
11   0.262451
12   0.261975
13   0.357876
14   0.358289

$$$$

