PCCDB-ID:  42432
public computational chemistry database (PCCDB) project, http://pccdb.org

 27 28  0  0  1  0  0  0  0  0999 V2000
    1.0592    0.2293    0.5990 C   0  0  0  0  0  0  0  0  0  0  0  0
    4.7525   -3.2838    0.6091 C   0  0  0  0  0  0  0  0  0  0  0  0
    5.2198   -0.4424    4.2410 C   0  0  0  0  0  0  0  0  0  0  0  0
    4.8447    0.7350    3.6071 C   0  0  0  0  0  0  0  0  0  0  0  0
    4.9783   -1.6714    3.6173 C   0  0  0  0  0  0  0  0  0  0  0  0
    3.8203    1.8806    1.6217 C   0  0  0  0  0  0  0  0  0  0  0  0
    2.6941    2.9859   -0.2539 C   0  0  0  0  0  0  0  0  0  0  0  0
    2.4853    0.4551    0.0943 C   0  0  1  0  0  0  0  0  0  0  0  0
    4.2004    0.6950    2.3585 C   0  0  0  0  0  0  0  0  0  0  0  0
    3.0466    1.7937    0.5160 C   0  0  0  0  0  0  0  0  0  0  0  0
    4.3482   -1.7412    2.3737 C   0  0  0  0  0  0  0  0  0  0  0  0
    3.9341   -0.5509    1.7476 C   0  0  0  0  0  0  0  0  0  0  0  0
    1.9872    2.9775   -1.2501 O   0  0  0  0  0  0  0  0  0  0  0  0
    4.0844   -2.9750    1.8367 O   0  0  0  0  0  0  0  0  0  0  0  0
    3.3444   -0.6348    0.5251 O   0  0  0  0  0  0  0  0  0  0  0  0
    0.3982    0.9900    0.1717 H   0  0  0  0  0  0  0  0  0  0  0  0
    1.0142    0.2975    1.6912 H   0  0  0  0  0  0  0  0  0  0  0  0
    0.7045   -0.7600    0.2928 H   0  0  0  0  0  0  0  0  0  0  0  0
    4.4519   -4.3022    0.3538 H   0  0  0  0  0  0  0  0  0  0  0  0
    5.8423   -3.2492    0.7406 H   0  0  0  0  0  0  0  0  0  0  0  0
    4.4568   -2.6003   -0.1917 H   0  0  0  0  0  0  0  0  0  0  0  0
    5.7075   -0.4135    5.2104 H   0  0  0  0  0  0  0  0  0  0  0  0
    5.0389    1.6997    4.0689 H   0  0  0  0  0  0  0  0  0  0  0  0
    5.2656   -2.6066    4.0881 H   0  0  0  0  0  0  0  0  0  0  0  0
    4.1904    2.8481    1.9589 H   0  0  0  0  0  0  0  0  0  0  0  0
    3.1216    3.9362    0.1364 H   0  0  0  0  0  0  0  0  0  0  0  0
    2.4962    0.3869   -0.9963 H   0  0  0  0  0  0  0  0  0  0  0  0
  1 17  1  0  0  0  0
  2 20  1  0  0  0  0
  2 14  1  0  0  0  0
  3 22  1  0  0  0  0
  4 23  1  0  0  0  0
  4  3  2  0  0  0  0
  5 24  1  0  0  0  0
  5  3  1  0  0  0  0
  6 25  1  0  0  0  0
  6  9  1  0  0  0  0
  7 26  1  0  0  0  0
  7 10  1  0  0  0  0
  8 27  1  6  0  0  0
  8 10  1  0  0  0  0
  8 15  1  0  0  0  0
  8  1  1  0  0  0  0
  9  4  1  0  0  0  0
 10  6  2  0  0  0  0
 11  5  2  0  0  0  0
 12  9  2  0  0  0  0
 12 11  1  0  0  0  0
 13  7  2  0  0  0  0
 14 11  1  0  0  0  0
 15 12  1  0  0  0  0
 16  1  1  0  0  0  0
 18  1  1  0  0  0  0
 19  2  1  0  0  0  0
 21  2  1  0  0  0  0
M  END
>  <HBA>
3

>  <HBD>
0

>  <TPSA>
35.53

>  <cid>
42432

>  <dipole>
2.92

>  <excitation_energy_1>
3.238

>  <excitation_energy_2>
3.499

>  <excitation_energy_3>
3.955

>  <excitation_energy_4>
4.812

>  <homo_energy>
-5.968

>  <homo_lumo_gap>
3.853

>  <logP>
2.058

>  <lumo_energy>
-2.114

>  <melting_point>
95.45

>  <molecular_refractivity>
57.22

>  <oscillator_strength_1>
0.0675

>  <oscillator_strength_2>
0.001

>  <oscillator_strength_3>
0.329

>  <oscillator_strength_4>
0.0256

>  <open_babel_can_smiles>
C[C@@H]1Oc2c(C=C1C=O)cccc2OC

>  <mulliken_charges>
27
1   -0.454081
2   -0.217385
3   -0.144101
4   -0.194995
5   -0.17067
6   -0.193086
7   0.201767
8   0.072393
9   0.126166
10   0.056876
11   0.309249
12   0.294125
13   -0.426959
14   -0.520966
15   -0.544782
16   0.172417
17   0.155289
18   0.164101
19   0.161963
20   0.140902
21   0.172215
22   0.136019
23   0.13394
24   0.144924
25   0.149742
26   0.10354
27   0.171395

>  <lowdin_charges>
27
1   -0.452338
2   -0.273491
3   -0.167599
4   -0.153962
5   -0.157441
6   -0.112162
7   0.032991
8   0.022484
9   -0.049827
10   -0.073997
11   0.068159
12   0.091261
13   -0.243321
14   -0.221649
15   -0.190945
16   0.17066
17   0.155084
18   0.161954
19   0.157186
20   0.13743
21   0.155318
22   0.161938
23   0.160694
24   0.171129
25   0.166839
26   0.119679
27   0.163928

$$$$

