PCCDB-ID:  69800
public computational chemistry database (PCCDB) project, http://pccdb.org

 21 20  0  0  0  0  0  0  0  0999 V2000
    1.2955   -0.7825    0.0379 C   0  0  0  0  0  0  0  0  0  0  0  0
    3.0380   -1.4959   -1.6593 C   0  0  0  0  0  0  0  0  0  0  0  0
    3.4699    0.4499   -0.0531 C   0  0  0  0  0  0  0  0  0  0  0  0
    2.7961   -0.9222   -0.2567 C   0  0  0  0  0  0  0  0  0  0  0  0
    5.6584    0.8544   -1.3298 C   0  0  0  0  0  0  0  0  0  0  0  0
    6.9113    0.8602   -1.5143 N   0  0  0  0  0  0  0  0  0  0  0  0
    5.7259    0.0216    0.8450 N   0  0  0  0  0  0  0  0  0  0  0  0
    4.9363    0.4238   -0.1869 N   0  0  0  0  0  0  0  0  0  0  0  0
    4.8058    1.2951   -2.2829 O   0  0  0  0  0  0  0  0  0  0  0  0
    5.1202   -0.3348    1.8407 O   0  0  0  0  0  0  0  0  0  0  0  0
    0.7904   -1.7496   -0.0603 H   0  0  0  0  0  0  0  0  0  0  0  0
    0.8177   -0.0860   -0.6634 H   0  0  0  0  0  0  0  0  0  0  0  0
    1.1159   -0.4139    1.0546 H   0  0  0  0  0  0  0  0  0  0  0  0
    2.5521   -2.4731   -1.7596 H   0  0  0  0  0  0  0  0  0  0  0  0
    4.1046   -1.6359   -1.8656 H   0  0  0  0  0  0  0  0  0  0  0  0
    2.6306   -0.8353   -2.4340 H   0  0  0  0  0  0  0  0  0  0  0  0
    3.2700    0.8098    0.9602 H   0  0  0  0  0  0  0  0  0  0  0  0
    3.0942    1.1799   -0.7705 H   0  0  0  0  0  0  0  0  0  0  0  0
    3.2273   -1.6086    0.4822 H   0  0  0  0  0  0  0  0  0  0  0  0
    7.4103    0.5011   -0.7016 H   0  0  0  0  0  0  0  0  0  0  0  0
    5.3806    1.5667   -3.0216 H   0  0  0  0  0  0  0  0  0  0  0  0
  1 13  1  0  0  0  0
  2  4  1  0  0  0  0
  3 17  1  0  0  0  0
  4  3  1  0  0  0  0
  4  1  1  0  0  0  0
  4 19  1  0  0  0  0
  5  8  1  0  0  0  0
  6  5  2  0  0  0  0
  6 20  1  0  0  0  0
  7 10  1  0  0  0  0
  8  3  1  0  0  0  0
  8  7  1  0  0  0  0
  9  5  1  0  0  0  0
 11  1  1  0  0  0  0
 12  1  1  0  0  0  0
 14  2  1  0  0  0  0
 15  2  1  0  0  0  0
 16  2  1  0  0  0  0
 18  3  1  0  0  0  0
 21  9  1  0  0  0  0
M  RAD  2   7   2  10   2
M  END
>  <HBA>
5

>  <HBD>
1

>  <TPSA>
75.76

>  <cid>
69800

>  <dipole>
2.74

>  <excitation_energy_1>
3.029

>  <excitation_energy_2>
4.671

>  <excitation_energy_3>
5.075

>  <excitation_energy_4>
5.844

>  <homo_energy>
-6.748

>  <homo_lumo_gap>
4.871

>  <logP>
1.405

>  <lumo_energy>
-1.878

>  <melting_point>
81.76

>  <molecular_refractivity>
37.08

>  <oscillator_strength_1>
0.0013

>  <oscillator_strength_2>
0.0608

>  <oscillator_strength_3>
0.0013

>  <oscillator_strength_4>
0.07

>  <open_babel_can_smiles>
[O][N]N(C(=N)O)CC(C)C

>  <mulliken_charges>
21
1   -0.449032
2   -0.446317
3   -0.142188
4   -0.082363
5   0.694834
6   -0.637238
7   0.17678
8   -0.325527
9   -0.603784
10   -0.345182
11   0.151912
12   0.143122
13   0.150242
14   0.147334
15   0.150169
16   0.147632
17   0.177073
18   0.184803
19   0.154915
20   0.322432
21   0.430385

>  <lowdin_charges>
21
1   -0.44398
2   -0.446997
3   -0.214947
4   -0.127305
5   0.156714
6   -0.433219
7   0.072064
8   -0.038997
9   -0.360303
10   -0.220633
11   0.155464
12   0.148879
13   0.151999
14   0.152416
15   0.150835
16   0.151267
17   0.167368
18   0.174146
19   0.152676
20   0.27643
21   0.376125

$$$$

