PCCDB-ID:  34170
public computational chemistry database (PCCDB) project, http://pccdb.org

 21 21  0  0  0  0  0  0  0  0999 V2000
    3.4351   -0.4192   -1.2684 C   0  0  0  0  0  0  0  0  0  0  0  0
    2.4331    0.1751   -0.2591 C   0  0  0  0  0  0  0  0  0  0  0  0
    4.3700    2.2453    2.2844 C   0  0  0  0  0  0  0  0  0  0  0  0
    3.9797    3.5554    1.9986 C   0  0  0  0  0  0  0  0  0  0  0  0
    3.8539    1.1904    1.5368 C   0  0  0  0  0  0  0  0  0  0  0  0
    3.0825    3.7872    0.9634 C   0  0  0  0  0  0  0  0  0  0  0  0
    2.9615    1.3997    0.4739 C   0  0  0  0  0  0  0  0  0  0  0  0
    2.5871    2.7303    0.1817 C   0  0  0  0  0  0  0  0  0  0  0  0
    1.6280    3.1412   -0.9033 C   0  0  0  0  0  0  0  0  0  0  0  0
    0.8412    4.0492   -0.7799 O   0  0  0  0  0  0  0  0  0  0  0  0
    1.6914    2.4663   -2.0856 O   0  0  0  0  0  0  0  0  0  0  0  0
    3.0218   -1.3155   -1.7428 H   0  0  0  0  0  0  0  0  0  0  0  0
    4.3732   -0.6942   -0.7746 H   0  0  0  0  0  0  0  0  0  0  0  0
    3.6975    0.2861   -2.0693 H   0  0  0  0  0  0  0  0  0  0  0  0
    2.2045   -0.5954    0.4869 H   0  0  0  0  0  0  0  0  0  0  0  0
    1.4872    0.3971   -0.7613 H   0  0  0  0  0  0  0  0  0  0  0  0
    5.0614    2.0436    3.0982 H   0  0  0  0  0  0  0  0  0  0  0  0
    4.3627    4.3858    2.5846 H   0  0  0  0  0  0  0  0  0  0  0  0
    4.1346    0.1700    1.7889 H   0  0  0  0  0  0  0  0  0  0  0  0
    2.7430    4.7927    0.7371 H   0  0  0  0  0  0  0  0  0  0  0  0
    2.4556    1.8680   -2.0842 H   0  0  0  0  0  0  0  0  0  0  0  0
  1 13  1  0  0  0  0
  1  2  1  0  0  0  0
  2  7  1  0  0  0  0
  2 15  1  0  0  0  0
  3 17  1  0  0  0  0
  4  3  1  0  0  0  0
  4 18  1  0  0  0  0
  5 19  1  0  0  0  0
  5  3  2  0  0  0  0
  6  4  2  0  0  0  0
  7  5  1  0  0  0  0
  8  7  2  0  0  0  0
  8  6  1  0  0  0  0
  9 10  2  0  0  0  0
  9  8  1  0  0  0  0
 11 21  1  0  0  0  0
 11  9  1  0  0  0  0
 12  1  1  0  0  0  0
 14  1  1  0  0  0  0
 16  2  1  0  0  0  0
 20  6  1  0  0  0  0
M  END
>  <HBA>
2

>  <HBD>
1

>  <TPSA>
37.3

>  <cid>
34170

>  <dipole>
4.88

>  <excitation_energy_1>
4.841

>  <excitation_energy_2>
4.961

>  <excitation_energy_3>
5.556

>  <excitation_energy_4>
5.924

>  <homo_energy>
-7.004

>  <homo_lumo_gap>
5.878

>  <logP>
1.947

>  <lumo_energy>
-1.127

>  <melting_point>
98.82

>  <molecular_refractivity>
43.17

>  <oscillator_strength_1>
0.0199

>  <oscillator_strength_2>
0.0252

>  <oscillator_strength_3>
0.0755

>  <oscillator_strength_4>
0.0868

>  <open_babel_can_smiles>
CCc1ccccc1C(=O)O

>  <mulliken_charges>
21
1   -0.451771
2   -0.381583
3   -0.115084
4   -0.13612
5   -0.185406
6   -0.149122
7   0.140112
8   -0.023053
9   0.526119
10   -0.43888
11   -0.578023
12   0.162863
13   0.161851
14   0.140305
15   0.161956
16   0.170379
17   0.139073
18   0.140915
19   0.130996
20   0.165468
21   0.419006

>  <lowdin_charges>
21
1   -0.443789
2   -0.290234
3   -0.140116
4   -0.157952
5   -0.163121
6   -0.129274
7   -0.003128
8   -0.067475
9   0.191413
10   -0.237235
11   -0.356516
12   0.160112
13   0.157266
14   0.141339
15   0.161686
16   0.159643
17   0.162808
18   0.164754
19   0.157096
20   0.17655
21   0.356173

$$$$

