PCCDB-ID:  4458
public computational chemistry database (PCCDB) project, http://pccdb.org

 29 28  0  0  0  0  0  0  0  0999 V2000
    6.0176   -2.9454   -1.4666 C   0  0  0  0  0  0  0  0  0  0  0  0
    6.1793   -1.7089    0.7430 C   0  0  0  0  0  0  0  0  0  0  0  0
    7.8480    2.1846   -0.4633 C   0  0  0  0  0  0  0  0  0  0  0  0
    4.9986    0.7902   -0.7815 C   0  0  0  0  0  0  0  0  0  0  0  0
    5.2972   -0.5748   -1.3411 C   0  0  0  0  0  0  0  0  0  0  0  0
    5.5905    1.9393   -1.6393 C   0  0  0  0  0  0  0  0  0  0  0  0
    7.6856    1.7359   -2.9470 C   0  0  0  0  0  0  0  0  0  0  0  0
    9.1486    1.6515   -3.2780 C   0  0  0  0  0  0  0  0  0  0  0  0
    5.7984   -1.6519   -0.7168 C   0  0  0  0  0  0  0  0  0  0  0  0
    7.1026    1.9358   -1.7533 C   0  0  0  0  0  0  0  0  0  0  0  0
    9.4658    0.4143   -3.9251 O   0  0  0  0  0  0  0  0  0  0  0  0
    7.0702   -3.2593   -1.4174 H   0  0  0  0  0  0  0  0  0  0  0  0
    5.7382   -2.8594   -2.5214 H   0  0  0  0  0  0  0  0  0  0  0  0
    5.4313   -3.7644   -1.0260 H   0  0  0  0  0  0  0  0  0  0  0  0
    7.2342   -1.9948    0.8590 H   0  0  0  0  0  0  0  0  0  0  0  0
    5.5930   -2.4776    1.2658 H   0  0  0  0  0  0  0  0  0  0  0  0
    6.0274   -0.7637    1.2696 H   0  0  0  0  0  0  0  0  0  0  0  0
    7.5441    3.1451   -0.0248 H   0  0  0  0  0  0  0  0  0  0  0  0
    8.9325    2.2070   -0.5887 H   0  0  0  0  0  0  0  0  0  0  0  0
    7.6143    1.4138    0.2824 H   0  0  0  0  0  0  0  0  0  0  0  0
    5.3405    0.8833    0.2542 H   0  0  0  0  0  0  0  0  0  0  0  0
    3.9082    0.9393   -0.7519 H   0  0  0  0  0  0  0  0  0  0  0  0
    5.0629   -0.6812   -2.4025 H   0  0  0  0  0  0  0  0  0  0  0  0
    5.2602    2.8924   -1.1994 H   0  0  0  0  0  0  0  0  0  0  0  0
    5.1512    1.8904   -2.6435 H   0  0  0  0  0  0  0  0  0  0  0  0
    7.0403    1.5743   -3.8116 H   0  0  0  0  0  0  0  0  0  0  0  0
    9.7831    1.8038   -2.3935 H   0  0  0  0  0  0  0  0  0  0  0  0
    9.4220    2.4246   -4.0064 H   0  0  0  0  0  0  0  0  0  0  0  0
    9.1233   -0.2909   -3.3531 H   0  0  0  0  0  0  0  0  0  0  0  0
  1 12  1  0  0  0  0
  1 14  1  0  0  0  0
  1  9  1  0  0  0  0
  2 15  1  0  0  0  0
  2 16  1  0  0  0  0
  2 17  1  0  0  0  0
  3 18  1  0  0  0  0
  3 20  1  0  0  0  0
  4 22  1  0  0  0  0
  4 21  1  0  0  0  0
  5  4  1  0  0  0  0
  5  9  2  0  0  0  0
  6 24  1  0  0  0  0
  6  4  1  0  0  0  0
  7 10  2  0  0  0  0
  8  7  1  0  0  0  0
  8 27  1  0  0  0  0
  9  2  1  0  0  0  0
 10  6  1  0  0  0  0
 10  3  1  0  0  0  0
 11 29  1  0  0  0  0
 11  8  1  0  0  0  0
 13  1  1  0  0  0  0
 19  3  1  0  0  0  0
 23  5  1  0  0  0  0
 25  6  1  0  0  0  0
 26  7  1  0  0  0  0
 28  8  1  0  0  0  0
M  END
>  <HBA>
1

>  <HBD>
1

>  <TPSA>
20.23

>  <cid>
4458

>  <dipole>
2.37

>  <excitation_energy_1>
5.544

>  <excitation_energy_2>
5.644

>  <excitation_energy_3>
5.821

>  <excitation_energy_4>
5.917

>  <homo_energy>
-6.286

>  <homo_lumo_gap>
6.751

>  <logP>
2.671

>  <lumo_energy>
0.465

>  <melting_point>
15.82

>  <molecular_refractivity>
50.4

>  <oscillator_strength_1>
0.0059

>  <oscillator_strength_2>
0.0118

>  <oscillator_strength_3>
0.0036

>  <oscillator_strength_4>
0.1546

>  <open_babel_can_smiles>
OC/C=C(/CCC=C(C)C)\C

>  <mulliken_charges>
29
1   -0.506418
2   -0.512845
3   -0.527274
4   -0.306916
5   -0.145868
6   -0.33453
7   -0.217084
8   -0.061956
9   0.179776
10   0.217396
11   -0.616761
12   0.146306
13   0.152699
14   0.15039
15   0.150431
16   0.153748
17   0.151851
18   0.1547
19   0.156481
20   0.159813
21   0.138732
22   0.145873
23   0.109906
24   0.136399
25   0.141577
26   0.12463
27   0.124438
28   0.149782
29   0.384724

>  <lowdin_charges>
29
1   -0.437839
2   -0.445306
3   -0.4467
4   -0.271978
5   -0.187762
6   -0.271062
7   -0.216566
8   -0.134433
9   -0.011687
10   -0.000549
11   -0.473473
12   0.149671
13   0.153544
14   0.153861
15   0.152821
16   0.157392
17   0.153696
18   0.157263
19   0.154698
20   0.158788
21   0.143865
22   0.149836
23   0.143617
24   0.146474
25   0.146953
26   0.152223
27   0.13014
28   0.151837
29   0.340677

$$$$

