PCCDB-ID:  44430
public computational chemistry database (PCCDB) project, http://pccdb.org

 33 33  0  0  0  0  0  0  0  0999 V2000
    2.9033    0.0600   -2.8361 C   0  0  0  0  0  0  0  0  0  0  0  0
    2.3624    0.6757   -0.5846 C   0  0  0  0  0  0  0  0  0  0  0  0
   10.8061   -2.6996    3.3792 C   0  0  0  0  0  0  0  0  0  0  0  0
    9.6872   -1.9420    3.7375 C   0  0  0  0  0  0  0  0  0  0  0  0
   10.9201   -3.1882    2.0785 C   0  0  0  0  0  0  0  0  0  0  0  0
    8.6904   -1.6767    2.8009 C   0  0  0  0  0  0  0  0  0  0  0  0
    9.9204   -2.9182    1.1395 C   0  0  0  0  0  0  0  0  0  0  0  0
    4.7782   -1.0947    0.2238 C   0  0  0  0  0  0  0  0  0  0  0  0
    3.8626   -1.1900   -1.0084 C   0  0  0  0  0  0  0  0  0  0  0  0
    7.6952   -1.8865    0.4768 C   0  0  0  0  0  0  0  0  0  0  0  0
    8.7939   -2.1592    1.4868 C   0  0  0  0  0  0  0  0  0  0  0  0
    6.4414   -2.7444    0.6916 C   0  0  0  0  0  0  0  0  0  0  0  0
    5.2218   -2.4214    0.5937 N   0  0  0  0  0  0  0  0  0  0  0  0
    3.3840    0.1164   -1.4616 N   0  0  0  0  0  0  0  0  0  0  0  0
    6.7048   -4.0538    0.9776 O   0  0  0  0  0  0  0  0  0  0  0  0
    2.6070    1.0632   -3.1629 H   0  0  0  0  0  0  0  0  0  0  0  0
    2.0321   -0.6119   -2.9711 H   0  0  0  0  0  0  0  0  0  0  0  0
    3.7049   -0.2886   -3.4962 H   0  0  0  0  0  0  0  0  0  0  0  0
    2.0774    1.6706   -0.9443 H   0  0  0  0  0  0  0  0  0  0  0  0
    2.7480    0.7902    0.4325 H   0  0  0  0  0  0  0  0  0  0  0  0
    1.4464    0.0534   -0.5346 H   0  0  0  0  0  0  0  0  0  0  0  0
   11.5830   -2.9049    4.1104 H   0  0  0  0  0  0  0  0  0  0  0  0
    9.5918   -1.5576    4.7494 H   0  0  0  0  0  0  0  0  0  0  0  0
   11.7885   -3.7733    1.7882 H   0  0  0  0  0  0  0  0  0  0  0  0
    7.8203   -1.0905    3.0873 H   0  0  0  0  0  0  0  0  0  0  0  0
   10.0236   -3.2882    0.1213 H   0  0  0  0  0  0  0  0  0  0  0  0
    4.2123   -0.6879    1.0724 H   0  0  0  0  0  0  0  0  0  0  0  0
    5.5771   -0.3726   -0.0045 H   0  0  0  0  0  0  0  0  0  0  0  0
    3.0354   -1.8919   -0.7901 H   0  0  0  0  0  0  0  0  0  0  0  0
    4.4461   -1.6361   -1.8223 H   0  0  0  0  0  0  0  0  0  0  0  0
    8.0699   -2.0957   -0.5341 H   0  0  0  0  0  0  0  0  0  0  0  0
    7.4210   -0.8293    0.4984 H   0  0  0  0  0  0  0  0  0  0  0  0
    7.6467   -4.1414    1.2015 H   0  0  0  0  0  0  0  0  0  0  0  0
  1 14  1  0  0  0  0
  2 21  1  0  0  0  0
  2 20  1  0  0  0  0
  3  4  1  0  0  0  0
  3 22  1  0  0  0  0
  4 23  1  0  0  0  0
  5  3  2  0  0  0  0
  6 25  1  0  0  0  0
  6  4  2  0  0  0  0
  7 11  2  0  0  0  0
  7  5  1  0  0  0  0
  8 13  1  0  0  0  0
  8 27  1  0  0  0  0
  9 29  1  0  0  0  0
  9  8  1  0  0  0  0
 10 32  1  0  0  0  0
 10 12  1  0  0  0  0
 10 11  1  0  0  0  0
 11  6  1  0  0  0  0
 12 15  1  0  0  0  0
 13 12  2  0  0  0  0
 14  9  1  0  0  0  0
 14  2  1  0  0  0  0
 15 33  1  0  0  0  0
 16  1  1  0  0  0  0
 17  1  1  0  0  0  0
 18  1  1  0  0  0  0
 19  2  1  0  0  0  0
 24  5  1  0  0  0  0
 26  7  1  0  0  0  0
 28  8  1  0  0  0  0
 30  9  1  0  0  0  0
 31 10  1  0  0  0  0
M  END
>  <HBA>
3

>  <HBD>
1

>  <TPSA>
32.34

>  <cid>
44430

>  <dipole>
3.25

>  <excitation_energy_1>
4.59

>  <excitation_energy_2>
4.631

>  <excitation_energy_3>
5.048

>  <excitation_energy_4>
5.143

>  <homo_energy>
-5.584

>  <homo_lumo_gap>
5.094

>  <logP>
1.298

>  <lumo_energy>
-0.49

>  <melting_point>
55.04

>  <molecular_refractivity>
61.34

>  <oscillator_strength_1>
0.0003

>  <oscillator_strength_2>
0.004

>  <oscillator_strength_3>
0.0041

>  <oscillator_strength_4>
0.0032

>  <open_babel_can_smiles>
CN(CC/N=C(\Cc1ccccc1)/O)C

>  <mulliken_charges>
33
1   -0.292245
2   -0.300494
3   -0.128443
4   -0.126588
5   -0.122359
6   -0.160055
7   -0.201753
8   -0.158454
9   -0.10767
10   -0.438379
11   0.114393
12   0.497065
13   -0.422168
14   -0.372538
15   -0.588956
16   0.144635
17   0.118417
18   0.146946
19   0.146217
20   0.150941
21   0.11919
22   0.137145
23   0.138912
24   0.137988
25   0.140321
26   0.135277
27   0.144312
28   0.12587
29   0.128308
30   0.133989
31   0.175686
32   0.175922
33   0.408569

>  <lowdin_charges>
33
1   -0.35563
2   -0.35714
3   -0.155491
4   -0.146359
5   -0.15151
6   -0.158222
7   -0.180266
8   -0.207549
9   -0.204887
10   -0.307259
11   -0.019589
12   0.123807
13   -0.201763
14   -0.186967
15   -0.370718
16   0.147195
17   0.12075
18   0.1495
19   0.148508
20   0.148404
21   0.121075
22   0.162457
23   0.161298
24   0.162188
25   0.162811
26   0.157352
27   0.145823
28   0.127372
29   0.128147
30   0.145618
31   0.169049
32   0.17011
33   0.351887

$$$$

