PCCDB-ID:  44593
public computational chemistry database (PCCDB) project, http://pccdb.org

 28 29  0  0  0  0  0  0  0  0999 V2000
    5.3030   -0.7704    1.4008 C   0  0  0  0  0  0  0  0  0  0  0  0
    4.2818    1.2280    0.3386 C   0  0  0  0  0  0  0  0  0  0  0  0
    6.9386   -0.5486   -5.1588 C   0  0  0  0  0  0  0  0  0  0  0  0
    6.2127    4.2275   -5.0431 C   0  0  0  0  0  0  0  0  0  0  0  0
    7.0451    0.6673   -5.7926 C   0  0  0  0  0  0  0  0  0  0  0  0
    6.6680    3.1320   -5.7369 C   0  0  0  0  0  0  0  0  0  0  0  0
    6.3816   -0.6551   -3.8620 C   0  0  0  0  0  0  0  0  0  0  0  0
    5.6813    4.0324   -3.7445 C   0  0  0  0  0  0  0  0  0  0  0  0
    6.5936    1.8456   -5.1441 C   0  0  0  0  0  0  0  0  0  0  0  0
    5.9446    0.4782   -3.2097 C   0  0  0  0  0  0  0  0  0  0  0  0
    6.0345    1.7656   -3.8283 C   0  0  0  0  0  0  0  0  0  0  0  0
    5.7323   -0.3423   -0.9458 C   0  0  0  0  0  0  0  0  0  0  0  0
    5.5882    2.8601   -3.1494 N   0  0  0  0  0  0  0  0  0  0  0  0
    5.1342    0.0518    0.2139 N   0  0  0  0  0  0  0  0  0  0  0  0
    6.4949   -1.2838   -1.0681 O   0  0  0  0  0  0  0  0  0  0  0  0
    5.3333    0.4799   -1.9758 O   0  0  0  0  0  0  0  0  0  0  0  0
    5.7605   -0.1855    2.2092 H   0  0  0  0  0  0  0  0  0  0  0  0
    5.9478   -1.6137    1.1576 H   0  0  0  0  0  0  0  0  0  0  0  0
    4.3310   -1.1420    1.7525 H   0  0  0  0  0  0  0  0  0  0  0  0
    4.5532    1.7697    1.2530 H   0  0  0  0  0  0  0  0  0  0  0  0
    3.2227    0.9433    0.4116 H   0  0  0  0  0  0  0  0  0  0  0  0
    4.4194    1.8839   -0.5190 H   0  0  0  0  0  0  0  0  0  0  0  0
    7.2814   -1.4530   -5.6535 H   0  0  0  0  0  0  0  0  0  0  0  0
    6.2542    5.2260   -5.4678 H   0  0  0  0  0  0  0  0  0  0  0  0
    7.4714    0.7422   -6.7897 H   0  0  0  0  0  0  0  0  0  0  0  0
    7.0859    3.2320   -6.7360 H   0  0  0  0  0  0  0  0  0  0  0  0
    6.3089   -1.6153   -3.3714 H   0  0  0  0  0  0  0  0  0  0  0  0
    5.3178    4.8896   -3.1781 H   0  0  0  0  0  0  0  0  0  0  0  0
  1 19  1  0  0  0  0
  1 17  1  0  0  0  0
  2 21  1  0  0  0  0
  2 20  1  0  0  0  0
  3  7  1  0  0  0  0
  4  8  2  0  0  0  0
  5  3  2  0  0  0  0
  5  9  1  0  0  0  0
  6  9  2  0  0  0  0
  6  4  1  0  0  0  0
  7 27  1  0  0  0  0
  7 10  2  0  0  0  0
  8 28  1  0  0  0  0
  8 13  1  0  0  0  0
  9 11  1  0  0  0  0
 10 16  1  0  0  0  0
 11 10  1  0  0  0  0
 11 13  2  0  0  0  0
 12 14  1  0  0  0  0
 14  2  1  0  0  0  0
 14  1  1  0  0  0  0
 15 12  2  0  0  0  0
 16 12  1  0  0  0  0
 18  1  1  0  0  0  0
 22  2  1  0  0  0  0
 23  3  1  0  0  0  0
 24  4  1  0  0  0  0
 25  5  1  0  0  0  0
 26  6  1  0  0  0  0
M  END
>  <HBA>
4

>  <HBD>
0

>  <TPSA>
42.43

>  <cid>
44593

>  <dipole>
2.0

>  <excitation_energy_1>
4.003

>  <excitation_energy_2>
4.327

>  <excitation_energy_3>
4.422

>  <excitation_energy_4>
4.597

>  <homo_energy>
-5.976

>  <homo_lumo_gap>
4.588

>  <logP>
2.295

>  <lumo_energy>
-1.388

>  <melting_point>
102.3

>  <molecular_refractivity>
61.33

>  <oscillator_strength_1>
0.0818

>  <oscillator_strength_2>
0.0018

>  <oscillator_strength_3>
0.0041

>  <oscillator_strength_4>
0.0002

>  <open_babel_can_smiles>
O=C(N(C)C)Oc1cccc2c1nccc2

>  <mulliken_charges>
28
1   -0.317399
2   -0.326269
3   -0.142087
4   -0.153193
5   -0.192204
6   -0.151209
7   -0.162816
8   0.047044
9   0.160127
10   0.346488
11   0.182922
12   0.78507
13   -0.495782
14   -0.43476
15   -0.515128
16   -0.53567
17   0.155048
18   0.202512
19   0.153392
20   0.151229
21   0.152738
22   0.223267
23   0.138624
24   0.138624
25   0.130958
26   0.143152
27   0.175947
28   0.139377

>  <lowdin_charges>
28
1   -0.352136
2   -0.354315
3   -0.146998
4   -0.181196
5   -0.167309
6   -0.123788
7   -0.173884
8   -0.085789
9   -0.011939
10   0.10404
11   0.0243
12   0.215629
13   -0.147168
14   -0.101026
15   -0.309747
16   -0.150629
17   0.151118
18   0.184209
19   0.148488
20   0.150742
21   0.145698
22   0.189846
23   0.163699
24   0.164511
25   0.15824
26   0.162624
27   0.18636
28   0.15642

$$$$

