PCCDB-ID:  72663
public computational chemistry database (PCCDB) project, http://pccdb.org

 22 22  0  0  0  0  0  0  0  0999 V2000
    0.1742    1.8079   -0.3856 C   0  0  0  0  0  0  0  0  0  0  0  0
   -0.0844    0.5292    0.0993 C   0  0  0  0  0  0  0  0  0  0  0  0
   -0.1847    2.1099   -1.7009 C   0  0  0  0  0  0  0  0  0  0  0  0
    1.1171   -2.3812    0.5962 C   0  0  0  0  0  0  0  0  0  0  0  0
    1.8607   -3.7185    0.5165 C   0  0  0  0  0  0  0  0  0  0  0  0
   -1.0178    0.0123   -2.0482 C   0  0  0  0  0  0  0  0  0  0  0  0
   -0.6993   -0.4047   -0.7445 C   0  0  0  0  0  0  0  0  0  0  0  0
   -1.0211   -1.7972   -0.3033 C   0  0  0  0  0  0  0  0  0  0  0  0
   -0.7688    1.2338   -2.5278 N   0  0  0  0  0  0  0  0  0  0  0  0
   -0.2847   -2.6338    0.3005 N   0  0  0  0  0  0  0  0  0  0  0  0
    1.6894   -4.3295   -0.7491 O   0  0  0  0  0  0  0  0  0  0  0  0
   -2.2785   -2.2219   -0.6411 O   0  0  0  0  0  0  0  0  0  0  0  0
    0.6408    2.5604    0.2427 H   0  0  0  0  0  0  0  0  0  0  0  0
    0.1692    0.2610    1.1201 H   0  0  0  0  0  0  0  0  0  0  0  0
    0.0038    3.1006   -2.1105 H   0  0  0  0  0  0  0  0  0  0  0  0
    1.5790   -1.6620   -0.0962 H   0  0  0  0  0  0  0  0  0  0  0  0
    1.2192   -1.9804    1.6161 H   0  0  0  0  0  0  0  0  0  0  0  0
    1.5077   -4.3739    1.3288 H   0  0  0  0  0  0  0  0  0  0  0  0
    2.9361   -3.5599    0.6497 H   0  0  0  0  0  0  0  0  0  0  0  0
   -1.4805   -0.6874   -2.7434 H   0  0  0  0  0  0  0  0  0  0  0  0
    0.7262   -4.3995   -0.8687 H   0  0  0  0  0  0  0  0  0  0  0  0
   -2.8084   -1.4550   -0.9100 H   0  0  0  0  0  0  0  0  0  0  0  0
  1  2  1  0  0  0  0
  1 13  1  0  0  0  0
  2 14  1  0  0  0  0
  3  1  2  0  0  0  0
  4 17  1  0  0  0  0
  5  4  1  0  0  0  0
  5 19  1  0  0  0  0
  5 18  1  0  0  0  0
  6  7  1  0  0  0  0
  7  8  1  0  0  0  0
  7  2  2  0  0  0  0
  8 10  2  0  0  0  0
  9  6  2  0  0  0  0
  9  3  1  0  0  0  0
 10  4  1  0  0  0  0
 11  5  1  0  0  0  0
 12  8  1  0  0  0  0
 15  3  1  0  0  0  0
 16  4  1  0  0  0  0
 20  6  1  0  0  0  0
 21 11  1  0  0  0  0
 22 12  1  0  0  0  0
M  END
>  <HBA>
4

>  <HBD>
2

>  <TPSA>
62.22

>  <cid>
72663

>  <dipole>
4.52

>  <excitation_energy_1>
4.33

>  <excitation_energy_2>
4.672

>  <excitation_energy_3>
4.809

>  <excitation_energy_4>
4.923

>  <homo_energy>
-6.738

>  <homo_lumo_gap>
5.238

>  <logP>
0.195

>  <lumo_energy>
-1.499

>  <melting_point>
98.85

>  <molecular_refractivity>
43.2

>  <oscillator_strength_1>
0.0001

>  <oscillator_strength_2>
0.004

>  <oscillator_strength_3>
0.0064

>  <oscillator_strength_4>
0.0865

>  <open_babel_can_smiles>
OCC/N=C(\c1cccnc1)/O

>  <mulliken_charges>
22
1   -0.144856
2   -0.11989
3   0.048198
4   -0.163926
5   -0.020098
6   -0.002877
7   0.026427
8   0.429494
9   -0.402108
10   -0.43448
11   -0.623348
12   -0.576742
13   0.151505
14   0.164352
15   0.155474
16   0.141998
17   0.136112
18   0.126761
19   0.137688
20   0.162199
21   0.400067
22   0.408049

>  <lowdin_charges>
22
1   -0.17003
2   -0.11835
3   -0.076245
4   -0.222557
5   -0.135515
6   -0.096721
7   -0.065126
8   0.131888
9   -0.137979
10   -0.207706
11   -0.467814
12   -0.364084
13   0.172438
14   0.172802
15   0.163022
16   0.140056
17   0.143188
18   0.130968
19   0.142587
20   0.166667
21   0.341051
22   0.357461

$$$$

