PCCDB-ID:  17333
public computational chemistry database (PCCDB) project, http://pccdb.org

 16 16  0  0  0  0  0  0  0  0999 V2000
   -0.7416   -0.8430    0.0121 C   0  0  0  0  0  0  0  0  0  0  0  0
    0.7887   -0.8583    0.1517 C   0  0  0  0  0  0  0  0  0  0  0  0
    0.0292    1.4263    0.2789 C   0  0  0  0  0  0  0  0  0  0  0  0
   -1.0563    0.5192    0.4468 N   0  0  0  0  0  0  0  0  0  0  0  0
    1.1094    0.5564   -0.0466 N   0  0  0  0  0  0  0  0  0  0  0  0
   -2.4048    0.9441    0.3777 N   0  0  0  0  0  0  0  0  0  0  0  0
    2.4602    0.9571    0.0900 N   0  0  0  0  0  0  0  0  0  0  0  0
    0.0328    2.6160    0.3848 O   0  0  0  0  0  0  0  0  0  0  0  0
   -2.6473    2.0996    0.6565 O   0  0  0  0  0  0  0  0  0  0  0  0
   -3.1938    0.0568    0.0701 O   0  0  0  0  0  0  0  0  0  0  0  0
    2.7078    2.1421    0.0115 O   0  0  0  0  0  0  0  0  0  0  0  0
    3.2457    0.0267    0.2391 O   0  0  0  0  0  0  0  0  0  0  0  0
   -1.2300   -1.5758    0.6543 H   0  0  0  0  0  0  0  0  0  0  0  0
   -1.0657   -1.0021   -1.0214 H   0  0  0  0  0  0  0  0  0  0  0  0
    1.2749   -1.4741   -0.6049 H   0  0  0  0  0  0  0  0  0  0  0  0
    1.1112   -1.1912    1.1435 H   0  0  0  0  0  0  0  0  0  0  0  0
  1  2  1  0  0  0  0
  1  4  1  0  0  0  0
  1 13  1  0  0  0  0
  2 16  1  0  0  0  0
  3  8  2  0  0  0  0
  3  4  1  0  0  0  0
  5  7  1  0  0  0  0
  5  2  1  0  0  0  0
  5  3  1  0  0  0  0
  6  4  1  0  0  0  0
  6  9  2  0  0  0  0
  7 12  2  0  0  0  0
 10  6  2  0  0  0  0
 11  7  2  0  0  0  0
 14  1  1  0  0  0  0
 15  2  1  0  0  0  0
M  END
>  <HBA>
3

>  <HBD>
0

>  <TPSA>
115.19

>  <cid>
17333

>  <dipole>
5.26

>  <excitation_energy_1>
4.314

>  <excitation_energy_2>
4.398

>  <excitation_energy_3>
4.693

>  <excitation_energy_4>
4.978

>  <homo_energy>
-8.346

>  <homo_lumo_gap>
5.788

>  <logP>
0.03

>  <lumo_energy>
-2.558

>  <melting_point>
96.52

>  <molecular_refractivity>
44.84

>  <oscillator_strength_1>
0.0001

>  <oscillator_strength_2>
0.0031

>  <oscillator_strength_3>
0.0003

>  <oscillator_strength_4>
0.0155

>  <open_babel_can_smiles>
O=C1N(CCN1N(=O)=O)N(=O)=O

>  <mulliken_charges>
16
1   -0.141101
2   -0.142026
3   0.827399
4   -0.405256
5   -0.40517
6   0.65752
7   0.657464
8   -0.398378
9   -0.346095
10   -0.390396
11   -0.345895
12   -0.390437
13   0.208699
14   0.202425
15   0.208857
16   0.20239

>  <lowdin_charges>
16
1   -0.192918
2   -0.193471
3   0.188893
4   -0.082923
5   -0.083448
6   0.346335
7   0.345493
8   -0.177139
9   -0.189144
10   -0.241337
11   -0.188571
12   -0.240987
13   0.184118
14   0.170136
15   0.184213
16   0.17075

$$$$

