PCCDB-ID:  72110
public computational chemistry database (PCCDB) project, http://pccdb.org

 29 30  0  0  1  0  0  0  0  0999 V2000
    0.8631   -0.1289    0.3302 C   0  0  0  0  0  0  0  0  0  0  0  0
    8.7107   -0.2140   -2.9462 C   0  0  0  0  0  0  0  0  0  0  0  0
    7.1169    0.3277    1.0545 C   0  0  0  0  0  0  0  0  0  0  0  0
    6.1832   -0.8957    0.9589 C   0  0  0  0  0  0  0  0  0  0  0  0
    5.3969    1.9212    0.0925 C   0  0  0  0  0  0  0  0  0  0  0  0
    7.0929    0.8406   -1.4618 C   0  0  0  0  0  0  0  0  0  0  0  0
    2.3559   -0.0394    0.4277 C   0  0  0  0  0  0  0  0  0  0  0  0
    6.8374    1.3779   -0.0416 C   0  0  2  0  0  0  0  0  0  0  0  0
    4.4029    0.8138    0.3295 C   0  0  0  0  0  0  0  0  0  0  0  0
    4.7704   -0.4414    0.7274 C   0  0  0  0  0  0  0  0  0  0  0  0
    8.4352    0.2820   -1.6025 N   0  0  0  0  0  0  0  0  0  0  0  0
    3.0464    1.0303    0.1665 N   0  0  0  0  0  0  0  0  0  0  0  0
    3.3402   -1.4293    0.9068 S   0  0  0  0  0  0  0  0  0  0  0  0
    0.4696    0.8675    0.1149 H   0  0  0  0  0  0  0  0  0  0  0  0
    0.4162   -0.4923    1.2626 H   0  0  0  0  0  0  0  0  0  0  0  0
    0.5516   -0.8079   -0.4729 H   0  0  0  0  0  0  0  0  0  0  0  0
    9.7448   -0.5704   -3.0010 H   0  0  0  0  0  0  0  0  0  0  0  0
    8.5581    0.5326   -3.7483 H   0  0  0  0  0  0  0  0  0  0  0  0
    8.0530   -1.0648   -3.1600 H   0  0  0  0  0  0  0  0  0  0  0  0
    8.1552   -0.0097    0.9899 H   0  0  0  0  0  0  0  0  0  0  0  0
    6.9815    0.8044    2.0344 H   0  0  0  0  0  0  0  0  0  0  0  0
    6.2594   -1.4922    1.8768 H   0  0  0  0  0  0  0  0  0  0  0  0
    6.5126   -1.5519    0.1410 H   0  0  0  0  0  0  0  0  0  0  0  0
    5.1074    2.4842   -0.8041 H   0  0  0  0  0  0  0  0  0  0  0  0
    5.3469    2.6374    0.9253 H   0  0  0  0  0  0  0  0  0  0  0  0
    6.8922    1.6539   -2.1878 H   0  0  0  0  0  0  0  0  0  0  0  0
    6.3747    0.0437   -1.6944 H   0  0  0  0  0  0  0  0  0  0  0  0
    7.5289    2.2191    0.1177 H   0  0  0  0  0  0  0  0  0  0  0  0
    9.1168    1.0036   -1.3691 H   0  0  0  0  0  0  0  0  0  0  0  0
  1  7  1  0  0  0  0
  1 15  1  0  0  0  0
  2 11  1  0  0  0  0
  3 21  1  0  0  0  0
  4  3  1  0  0  0  0
  4 22  1  0  0  0  0
  5  9  1  0  0  0  0
  5 25  1  0  0  0  0
  6  8  1  0  0  0  0
  7 13  1  0  0  0  0
  8  5  1  0  0  0  0
  8 28  1  1  0  0  0
  8  3  1  0  0  0  0
  9 10  2  0  0  0  0
 10 13  1  0  0  0  0
 10  4  1  0  0  0  0
 11  6  1  0  0  0  0
 11 29  1  0  0  0  0
 12  9  1  0  0  0  0
 12  7  2  0  0  0  0
 14  1  1  0  0  0  0
 16  1  1  0  0  0  0
 17  2  1  0  0  0  0
 18  2  1  0  0  0  0
 19  2  1  0  0  0  0
 20  3  1  0  0  0  0
 23  4  1  0  0  0  0
 24  5  1  0  0  0  0
 26  6  1  0  0  0  0
 27  6  1  0  0  0  0
M  END
>  <HBA>
3

>  <HBD>
1

>  <TPSA>
53.16

>  <cid>
72110

>  <dipole>
1.11

>  <excitation_energy_1>
4.952

>  <excitation_energy_2>
5.034

>  <excitation_energy_3>
5.182

>  <excitation_energy_4>
5.262

>  <homo_energy>
-5.831

>  <homo_lumo_gap>
5.538

>  <logP>
2.167

>  <lumo_energy>
-0.294

>  <melting_point>
78.67

>  <molecular_refractivity>
56.93

>  <oscillator_strength_1>
0.0922

>  <oscillator_strength_2>
0.002

>  <oscillator_strength_3>
0.0311

>  <oscillator_strength_4>
0.0054

>  <open_babel_can_smiles>
CNC[C@@H]1CCc2c(C1)nc(s2)C

>  <mulliken_charges>
29
1   -0.509892
2   -0.298441
3   -0.25702
4   -0.327588
5   -0.32866
6   -0.114071
7   0.111982
8   -0.120033
9   0.28222
10   -0.155204
11   -0.545993
12   -0.452822
13   0.185537
14   0.186864
15   0.170518
16   0.173203
17   0.147826
18   0.120491
19   0.152483
20   0.152903
21   0.134451
22   0.152607
23   0.168839
24   0.152862
25   0.152864
26   0.110266
27   0.146832
28   0.115651
29   0.291327

>  <lowdin_charges>
29
1   -0.442966
2   -0.359286
3   -0.273324
4   -0.270951
5   -0.273939
6   -0.208903
7   -0.077336
8   -0.132276
9   -0.008108
10   -0.18516
11   -0.363927
12   -0.172534
13   0.250846
14   0.177633
15   0.167618
16   0.169094
17   0.149136
18   0.121998
19   0.149317
20   0.155343
21   0.142945
22   0.15725
23   0.159863
24   0.158121
25   0.156434
26   0.118427
27   0.146194
28   0.137711
29   0.250779

$$$$

