PCCDB-ID:  61572
public computational chemistry database (PCCDB) project, http://pccdb.org

 23 22  0  0  0  0  0  0  0  0999 V2000
    0.8720   -1.3413    0.4533 C   0  0  0  0  0  0  0  0  0  0  0  0
    2.3091   -0.9253    0.7829 C   0  0  0  0  0  0  0  0  0  0  0  0
    3.3608   -1.7291    0.0078 C   0  0  0  0  0  0  0  0  0  0  0  0
    4.7996   -1.3078    0.3305 C   0  0  0  0  0  0  0  0  0  0  0  0
    5.8609   -2.1145   -0.4017 C   0  0  0  0  0  0  0  0  0  0  0  0
    5.7630   -2.4305   -4.2486 O   0  0  0  0  0  0  0  0  0  0  0  0
    7.9481   -2.1695   -3.1025 O   0  0  0  0  0  0  0  0  0  0  0  0
    6.5533   -4.2577   -2.4913 O   0  0  0  0  0  0  0  0  0  0  0  0
    5.7257   -1.8684   -1.8289 O   0  0  0  0  0  0  0  0  0  0  0  0
    6.4995   -2.8335   -2.8659 P   0  0  0  0  0  0  0  0  0  0  0  0
    0.1445   -0.7509    1.0217 H   0  0  0  0  0  0  0  0  0  0  0  0
    0.7012   -2.3986    0.6904 H   0  0  0  0  0  0  0  0  0  0  0  0
    0.6538   -1.2023   -0.6127 H   0  0  0  0  0  0  0  0  0  0  0  0
    2.4855   -1.0407    1.8619 H   0  0  0  0  0  0  0  0  0  0  0  0
    2.4395    0.1446    0.5665 H   0  0  0  0  0  0  0  0  0  0  0  0
    3.1868   -1.6154   -1.0700 H   0  0  0  0  0  0  0  0  0  0  0  0
    3.2387   -2.7997    0.2295 H   0  0  0  0  0  0  0  0  0  0  0  0
    4.9898   -1.4228    1.4071 H   0  0  0  0  0  0  0  0  0  0  0  0
    4.9406   -0.2432    0.1004 H   0  0  0  0  0  0  0  0  0  0  0  0
    5.7514   -3.1884   -0.2202 H   0  0  0  0  0  0  0  0  0  0  0  0
    6.8680   -1.8088   -0.0942 H   0  0  0  0  0  0  0  0  0  0  0  0
    4.8776   -2.8256   -4.3061 H   0  0  0  0  0  0  0  0  0  0  0  0
    7.8863   -1.2575   -3.4319 H   0  0  0  0  0  0  0  0  0  0  0  0
  1 12  1  0  0  0  0
  1  2  1  0  0  0  0
  1 11  1  0  0  0  0
  2 14  1  0  0  0  0
  3 17  1  0  0  0  0
  3  4  1  0  0  0  0
  3  2  1  0  0  0  0
  4 18  1  0  0  0  0
  5 20  1  0  0  0  0
  5 21  1  0  0  0  0
  5  4  1  0  0  0  0
  6 10  1  0  0  0  0
  7 10  1  0  0  0  0
  9  5  1  0  0  0  0
 10  8  2  0  0  0  0
 10  9  1  0  0  0  0
 13  1  1  0  0  0  0
 15  2  1  0  0  0  0
 16  3  1  0  0  0  0
 19  4  1  0  0  0  0
 22  6  1  0  0  0  0
 23  7  1  0  0  0  0
M  END
>  <HBA>
4

>  <HBD>
2

>  <TPSA>
76.57

>  <cid>
61572

>  <dipole>
3.83

>  <excitation_energy_1>
6.726

>  <excitation_energy_2>
6.875

>  <excitation_energy_3>
7.287

>  <excitation_energy_4>
7.592

>  <homo_energy>
-7.908

>  <homo_lumo_gap>
8.678

>  <logP>
1.286

>  <lumo_energy>
0.77

>  <melting_point>
53.83

>  <molecular_refractivity>
38.22

>  <oscillator_strength_1>
0.008

>  <oscillator_strength_2>
0.0161

>  <oscillator_strength_3>
0.0153

>  <oscillator_strength_4>
0.002

>  <open_babel_can_smiles>
CCCCCOP(=O)(O)O

>  <mulliken_charges>
23
1   -0.442138
2   -0.248556
3   -0.247313
4   -0.276761
5   -0.049569
6   -0.642731
7   -0.629096
8   -0.541198
9   -0.532454
10   1.145549
11   0.144128
12   0.14393
13   0.141828
14   0.1314
15   0.132407
16   0.143065
17   0.13251
18   0.140308
19   0.145859
20   0.176364
21   0.153373
22   0.441924
23   0.437169

>  <lowdin_charges>
23
1   -0.442577
2   -0.268016
3   -0.272772
4   -0.278148
5   -0.115178
6   -0.567312
7   -0.554561
8   -0.574032
9   -0.412152
10   1.108535
11   0.151924
12   0.146229
13   0.145145
14   0.137214
15   0.138085
16   0.143357
17   0.139018
18   0.149085
19   0.147242
20   0.160118
21   0.148821
22   0.385839
23   0.384134

$$$$

