PCCDB-ID:  54342
public computational chemistry database (PCCDB) project, http://pccdb.org

 24 26  0  0  0  0  0  0  0  0999 V2000
    0.9433   -0.0210    0.0533 C   0  0  0  0  0  0  0  0  0  0  0  0
    7.4233   -1.2533    0.0520 C   0  0  0  0  0  0  0  0  0  0  0  0
    6.7252   -0.0630    0.0528 C   0  0  0  0  0  0  0  0  0  0  0  0
    6.7262   -2.4765    0.0515 C   0  0  0  0  0  0  0  0  0  0  0  0
    3.1803    1.1201    0.0541 C   0  0  0  0  0  0  0  0  0  0  0  0
    4.5549    1.1520    0.0539 C   0  0  0  0  0  0  0  0  0  0  0  0
    2.4490   -0.0971    0.0533 C   0  0  0  0  0  0  0  0  0  0  0  0
    5.3070   -0.0488    0.0530 C   0  0  0  0  0  0  0  0  0  0  0  0
    5.3408   -2.4956    0.0518 C   0  0  0  0  0  0  0  0  0  0  0  0
    3.1705   -1.2980    0.0528 C   0  0  0  0  0  0  0  0  0  0  0  0
    4.5964   -1.2867    0.0525 C   0  0  0  0  0  0  0  0  0  0  0  0
    4.6426   -3.7943    0.0518 C   0  0  0  0  0  0  0  0  0  0  0  0
    2.4759   -2.6034    0.0524 C   0  0  0  0  0  0  0  0  0  0  0  0
    5.1774   -4.8751    0.0471 O   0  0  0  0  0  0  0  0  0  0  0  0
    1.2797   -2.7670    0.0480 O   0  0  0  0  0  0  0  0  0  0  0  0
    3.2595   -3.7519    0.0597 O   0  0  0  0  0  0  0  0  0  0  0  0
    0.6172    1.0234    0.0539 H   0  0  0  0  0  0  0  0  0  0  0  0
    0.5164   -0.5270    0.9245 H   0  0  0  0  0  0  0  0  0  0  0  0
    0.5164   -0.5262   -0.8183 H   0  0  0  0  0  0  0  0  0  0  0  0
    8.5091   -1.2520    0.0517 H   0  0  0  0  0  0  0  0  0  0  0  0
    7.2558    0.8859    0.0531 H   0  0  0  0  0  0  0  0  0  0  0  0
    7.2565   -3.4231    0.0509 H   0  0  0  0  0  0  0  0  0  0  0  0
    2.6233    2.0527    0.0546 H   0  0  0  0  0  0  0  0  0  0  0  0
    5.0801    2.1040    0.0545 H   0  0  0  0  0  0  0  0  0  0  0  0
  1  7  1  0  0  0  0
  1 17  1  0  0  0  0
  1 18  1  0  0  0  0
  2  3  2  0  0  0  0
  3  8  1  0  0  0  0
  3 21  1  0  0  0  0
  4  9  2  0  0  0  0
  4  2  1  0  0  0  0
  5 23  1  0  0  0  0
  6  5  1  0  0  0  0
  6 24  1  0  0  0  0
  7  5  2  0  0  0  0
  8  6  2  0  0  0  0
  9 11  1  0  0  0  0
 10  7  1  0  0  0  0
 11 10  2  0  0  0  0
 11  8  1  0  0  0  0
 12  9  1  0  0  0  0
 12 16  1  0  0  0  0
 13 10  1  0  0  0  0
 13 16  1  0  0  0  0
 14 12  2  0  0  0  0
 15 13  2  0  0  0  0
 19  1  1  0  0  0  0
 20  2  1  0  0  0  0
 22  4  1  0  0  0  0
M  END
>  <HBA>
3

>  <HBD>
0

>  <TPSA>
43.37

>  <cid>
54342

>  <dipole>
6.93

>  <excitation_energy_1>
3.745

>  <excitation_energy_2>
3.901

>  <excitation_energy_3>
4.037

>  <excitation_energy_4>
4.452

>  <homo_energy>
-6.713

>  <homo_lumo_gap>
4.104

>  <logP>
2.459

>  <lumo_energy>
-2.61

>  <melting_point>
139.24

>  <molecular_refractivity>
58.66

>  <oscillator_strength_1>
0.1576

>  <oscillator_strength_2>
0.0001

>  <oscillator_strength_3>
0.0742

>  <oscillator_strength_4>
0.0

>  <open_babel_can_smiles>
O=C1OC(=O)c2c3c1cccc3ccc2C

>  <mulliken_charges>
24
1   -0.507393
2   -0.132536
3   -0.186152
4   -0.178196
5   -0.179522
6   -0.183769
7   0.109165
8   0.152658
9   -0.009302
10   -0.040872
11   0.064526
12   0.583998
13   0.581889
14   -0.439465
15   -0.442599
16   -0.486466
17   0.146514
18   0.19054
19   0.190802
20   0.150021
21   0.147543
22   0.177892
23   0.142316
24   0.148408

>  <lowdin_charges>
24
1   -0.439821
2   -0.152509
3   -0.129451
4   -0.109291
5   -0.163582
6   -0.127736
7   0.050754
8   -0.004748
9   -0.060297
10   -0.070368
11   0.012674
12   0.208705
13   0.20608
14   -0.220468
15   -0.215344
16   -0.149006
17   0.151403
18   0.180671
19   0.180791
20   0.166823
21   0.166574
22   0.185065
23   0.165961
24   0.16712

$$$$

