PCCDB-ID:  6342
public computational chemistry database (PCCDB) project, http://pccdb.org

  6  5  0  0  0  0  0  0  0  0999 V2000
    0.9901   -0.0171    0.0981 C   0  0  0  0  0  0  0  0  0  0  0  0
    2.4515   -0.0171    0.0981 C   0  0  0  0  0  0  0  0  0  0  0  0
    3.6117   -0.0171    0.0981 N   0  0  0  0  0  0  0  0  0  0  0  0
    0.6101   -0.9727    0.4728 H   0  0  0  0  0  0  0  0  0  0  0  0
    0.6101    0.1363   -0.9168 H   0  0  0  0  0  0  0  0  0  0  0  0
    0.6102    0.7852    0.7384 H   0  0  0  0  0  0  0  0  0  0  0  0
  1  4  1  0  0  0  0
  1  6  1  0  0  0  0
  2  1  1  0  0  0  0
  3  2  3  0  0  0  0
  5  1  1  0  0  0  0
M  END
>  <HBA>
1

>  <HBD>
0

>  <TPSA>
23.79

>  <cid>
6342

>  <dipole>
3.81

>  <excitation_energy_1>
7.726

>  <excitation_energy_2>
7.988

>  <excitation_energy_3>
7.988

>  <excitation_energy_4>
8.015

>  <homo_energy>
-8.882

>  <homo_lumo_gap>
9.881

>  <logP>
0.53

>  <lumo_energy>
0.999

>  <melting_point>
9.99

>  <molecular_refractivity>
11.48

>  <oscillator_strength_1>
0.0

>  <oscillator_strength_2>
0.0054

>  <oscillator_strength_3>
0.0053

>  <oscillator_strength_4>
0.0011

>  <open_babel_can_smiles>
CC#N

>  <mulliken_charges>
6
1   -0.520362
2   0.351178
3   -0.456347
4   0.208501
5   0.208508
6   0.208521

>  <lowdin_charges>
6
1   -0.436108
2   -0.016677
3   -0.124365
4   0.192311
5   0.191637
6   0.193203

$$$$

