PCCDB-ID:  69656
public computational chemistry database (PCCDB) project, http://pccdb.org

 14 13  0  0  0  0  0  0  0  0999 V2000
    1.6050   -0.4234    0.2121 C   0  0  0  0  0  0  0  0  0  0  0  0
    4.7949    1.0943   -1.1272 C   0  0  0  0  0  0  0  0  0  0  0  0
    5.1252    2.0708   -2.1677 C   0  0  0  0  0  0  0  0  0  0  0  0
    3.2870    0.7816   -1.0682 C   0  0  0  0  0  0  0  0  0  0  0  0
    5.3683    2.8475   -2.9953 N   0  0  0  0  0  0  0  0  0  0  0  0
    3.0281   -0.1655    0.0073 N   0  0  0  0  0  0  0  0  0  0  0  0
    1.4842   -1.1826    0.9911 H   0  0  0  0  0  0  0  0  0  0  0  0
    1.0686   -0.7639   -0.6923 H   0  0  0  0  0  0  0  0  0  0  0  0
    1.1180    0.4939    0.5626 H   0  0  0  0  0  0  0  0  0  0  0  0
    5.1224    1.4735   -0.1528 H   0  0  0  0  0  0  0  0  0  0  0  0
    5.3643    0.1756   -1.3209 H   0  0  0  0  0  0  0  0  0  0  0  0
    2.9418    0.4384   -2.0611 H   0  0  0  0  0  0  0  0  0  0  0  0
    2.7401    1.7059   -0.8481 H   0  0  0  0  0  0  0  0  0  0  0  0
    3.4968   -1.0458   -0.2037 H   0  0  0  0  0  0  0  0  0  0  0  0
  1  9  1  0  0  0  0
  1  7  1  0  0  0  0
  2  4  1  0  0  0  0
  2 10  1  0  0  0  0
  3  2  1  0  0  0  0
  4 13  1  0  0  0  0
  4  6  1  0  0  0  0
  5  3  3  0  0  0  0
  6  1  1  0  0  0  0
  8  1  1  0  0  0  0
 11  2  1  0  0  0  0
 12  4  1  0  0  0  0
 14  6  1  0  0  0  0
M  END
>  <HBA>
2

>  <HBD>
1

>  <TPSA>
35.82

>  <cid>
69656

>  <dipole>
4.11

>  <excitation_energy_1>
5.502

>  <excitation_energy_2>
6.213

>  <excitation_energy_3>
6.359

>  <excitation_energy_4>
6.619

>  <homo_energy>
-6.504

>  <homo_lumo_gap>
7.434

>  <logP>
0.51

>  <lumo_energy>
0.931

>  <melting_point>
35.85

>  <molecular_refractivity>
23.89

>  <oscillator_strength_1>
0.0003

>  <oscillator_strength_2>
0.0296

>  <oscillator_strength_3>
0.0074

>  <oscillator_strength_4>
0.0018

>  <open_babel_can_smiles>
CNCCC#N

>  <mulliken_charges>
14
1   -0.304808
2   -0.345164
3   0.347495
4   -0.119985
5   -0.471788
6   -0.541868
7   0.156047
8   0.128219
9   0.159184
10   0.208056
11   0.186164
12   0.137093
13   0.164629
14   0.296725

>  <lowdin_charges>
14
1   -0.360681
2   -0.278783
3   -0.016587
4   -0.192357
5   -0.127859
6   -0.362343
7   0.155785
8   0.126569
9   0.152827
10   0.188384
11   0.177097
12   0.12914
13   0.155403
14   0.253405

$$$$

