PCCDB-ID:  31258
public computational chemistry database (PCCDB) project, http://pccdb.org

 27 26  0  0  0  0  0  0  0  0999 V2000
    2.8759    0.5553    2.7559 C   0  0  0  0  0  0  0  0  0  0  0  0
    3.4221   -1.7235    3.6566 C   0  0  0  0  0  0  0  0  0  0  0  0
    6.5612   -1.4859    0.1021 C   0  0  0  0  0  0  0  0  0  0  0  0
    7.0466   -0.0067    2.0726 C   0  0  0  0  0  0  0  0  0  0  0  0
    4.6736   -0.7976    1.5961 C   0  0  0  0  0  0  0  0  0  0  0  0
    6.5021   -2.4147    2.4307 C   0  0  0  0  0  0  0  0  0  0  0  0
    3.9972   -0.4789    2.9559 C   0  0  0  0  0  0  0  0  0  0  0  0
    6.1830   -1.1772    1.5642 C   0  0  0  0  0  0  0  0  0  0  0  0
    5.8150   -3.6000    2.0443 O   0  0  0  0  0  0  0  0  0  0  0  0
    2.3756    0.7904    3.7029 H   0  0  0  0  0  0  0  0  0  0  0  0
    2.1137    0.1762    2.0624 H   0  0  0  0  0  0  0  0  0  0  0  0
    3.2669    1.4911    2.3398 H   0  0  0  0  0  0  0  0  0  0  0  0
    2.9329   -1.4505    4.5990 H   0  0  0  0  0  0  0  0  0  0  0  0
    4.1858   -2.4694    3.9024 H   0  0  0  0  0  0  0  0  0  0  0  0
    2.6637   -2.2067    3.0253 H   0  0  0  0  0  0  0  0  0  0  0  0
    6.3225   -0.6413   -0.5557 H   0  0  0  0  0  0  0  0  0  0  0  0
    6.0258   -2.3693   -0.2594 H   0  0  0  0  0  0  0  0  0  0  0  0
    7.6358   -1.6872    0.0114 H   0  0  0  0  0  0  0  0  0  0  0  0
    6.8603    0.9000    1.4845 H   0  0  0  0  0  0  0  0  0  0  0  0
    8.1138   -0.2443    1.9840 H   0  0  0  0  0  0  0  0  0  0  0  0
    6.8498    0.2310    3.1244 H   0  0  0  0  0  0  0  0  0  0  0  0
    4.5673    0.0812    0.9456 H   0  0  0  0  0  0  0  0  0  0  0  0
    4.0977   -1.5918    1.0966 H   0  0  0  0  0  0  0  0  0  0  0  0
    6.3261   -2.1845    3.4935 H   0  0  0  0  0  0  0  0  0  0  0  0
    7.5662   -2.6573    2.3312 H   0  0  0  0  0  0  0  0  0  0  0  0
    4.7409   -0.0289    3.6276 H   0  0  0  0  0  0  0  0  0  0  0  0
    4.8689   -3.4580    2.1988 H   0  0  0  0  0  0  0  0  0  0  0  0
  1  7  1  0  0  0  0
  1 10  1  0  0  0  0
  2 14  1  0  0  0  0
  2 13  1  0  0  0  0
  3  8  1  0  0  0  0
  4 21  1  0  0  0  0
  5  7  1  0  0  0  0
  6 24  1  0  0  0  0
  7 26  1  0  0  0  0
  7  2  1  0  0  0  0
  8  5  1  0  0  0  0
  8  4  1  0  0  0  0
  8  6  1  0  0  0  0
  9 27  1  0  0  0  0
  9  6  1  0  0  0  0
 11  1  1  0  0  0  0
 12  1  1  0  0  0  0
 15  2  1  0  0  0  0
 16  3  1  0  0  0  0
 17  3  1  0  0  0  0
 18  3  1  0  0  0  0
 19  4  1  0  0  0  0
 20  4  1  0  0  0  0
 22  5  1  0  0  0  0
 23  5  1  0  0  0  0
 25  6  1  0  0  0  0
M  END
>  <HBA>
1

>  <HBD>
1

>  <TPSA>
20.23

>  <cid>
31258

>  <dipole>
1.81

>  <excitation_energy_1>
6.549

>  <excitation_energy_2>
6.938

>  <excitation_energy_3>
7.187

>  <excitation_energy_4>
7.289

>  <homo_energy>
-7.031

>  <homo_lumo_gap>
8.738

>  <logP>
2.051

>  <lumo_energy>
1.706

>  <melting_point>
9.41

>  <molecular_refractivity>
41.47

>  <oscillator_strength_1>
0.0011

>  <oscillator_strength_2>
0.0207

>  <oscillator_strength_3>
0.0061

>  <oscillator_strength_4>
0.0107

>  <open_babel_can_smiles>
OCC(CC(C)C)(C)C

>  <mulliken_charges>
27
1   -0.446984
2   -0.470444
3   -0.443997
4   -0.455824
5   -0.280517
6   -0.031853
7   -0.064585
8   0.072446
9   -0.63022
10   0.139883
11   0.141215
12   0.142923
13   0.147779
14   0.146961
15   0.139948
16   0.133678
17   0.157141
18   0.135866
19   0.142079
20   0.141976
21   0.142587
22   0.132305
23   0.121416
24   0.119199
25   0.139175
26   0.129361
27   0.398485

>  <lowdin_charges>
27
1   -0.444487
2   -0.456752
3   -0.443377
4   -0.442313
5   -0.286332
6   -0.13784
7   -0.126489
8   -0.007525
9   -0.46487
10   0.147342
11   0.147192
12   0.148394
13   0.152696
14   0.149282
15   0.145659
16   0.145352
17   0.156511
18   0.144997
19   0.150222
20   0.147684
21   0.14509
22   0.146248
23   0.13825
24   0.123211
25   0.14427
26   0.140065
27   0.337522

$$$$

