PCCDB-ID:  19083
public computational chemistry database (PCCDB) project, http://pccdb.org

 25 24  0  0  0  0  0  0  0  0999 V2000
    1.7199   -1.1539    1.4973 C   0  0  0  0  0  0  0  0  0  0  0  0
    1.2512    2.3176    2.8453 C   0  0  0  0  0  0  0  0  0  0  0  0
    6.0009    2.4955    1.5820 C   0  0  0  0  0  0  0  0  0  0  0  0
    1.4220   -0.1111    0.4155 C   0  0  0  0  0  0  0  0  0  0  0  0
    1.1439    2.2546    1.3176 C   0  0  0  0  0  0  0  0  0  0  0  0
    5.0892    2.9715    0.4608 C   0  0  0  0  0  0  0  0  0  0  0  0
    3.2956    1.4127    0.4064 C   0  0  0  0  0  0  0  0  0  0  0  0
    1.9732    1.2202    0.6916 N   0  0  0  0  0  0  0  0  0  0  0  0
    4.0280    0.5699   -0.0924 O   0  0  0  0  0  0  0  0  0  0  0  0
    3.7042    2.6724    0.7370 O   0  0  0  0  0  0  0  0  0  0  0  0
    1.2913   -2.1227    1.2139 H   0  0  0  0  0  0  0  0  0  0  0  0
    1.2964   -0.8666    2.4658 H   0  0  0  0  0  0  0  0  0  0  0  0
    2.8006   -1.2791    1.6105 H   0  0  0  0  0  0  0  0  0  0  0  0
    0.6183    3.1240    3.2348 H   0  0  0  0  0  0  0  0  0  0  0  0
    2.2837    2.5183    3.1467 H   0  0  0  0  0  0  0  0  0  0  0  0
    0.9306    1.3800    3.3113 H   0  0  0  0  0  0  0  0  0  0  0  0
    7.0340    2.8011    1.3789 H   0  0  0  0  0  0  0  0  0  0  0  0
    5.9726    1.4051    1.6568 H   0  0  0  0  0  0  0  0  0  0  0  0
    5.6974    2.9273    2.5419 H   0  0  0  0  0  0  0  0  0  0  0  0
    0.3408    0.0083    0.2863 H   0  0  0  0  0  0  0  0  0  0  0  0
    1.8364   -0.4498   -0.5378 H   0  0  0  0  0  0  0  0  0  0  0  0
    1.4216    3.2210    0.8904 H   0  0  0  0  0  0  0  0  0  0  0  0
    0.1077    2.0562    1.0213 H   0  0  0  0  0  0  0  0  0  0  0  0
    5.3674    2.5148   -0.4919 H   0  0  0  0  0  0  0  0  0  0  0  0
    5.1136    4.0602    0.3616 H   0  0  0  0  0  0  0  0  0  0  0  0
  1 13  1  0  0  0  0
  1 12  1  0  0  0  0
  2 15  1  0  0  0  0
  2 14  1  0  0  0  0
  2 16  1  0  0  0  0
  3 18  1  0  0  0  0
  3 19  1  0  0  0  0
  4  8  1  0  0  0  0
  4  1  1  0  0  0  0
  5  2  1  0  0  0  0
  6 10  1  0  0  0  0
  6  3  1  0  0  0  0
  7  8  1  0  0  0  0
  7 10  1  0  0  0  0
  8  5  1  0  0  0  0
  9  7  2  0  0  0  0
 11  1  1  0  0  0  0
 17  3  1  0  0  0  0
 20  4  1  0  0  0  0
 21  4  1  0  0  0  0
 22  5  1  0  0  0  0
 23  5  1  0  0  0  0
 24  6  1  0  0  0  0
 25  6  1  0  0  0  0
M  END
>  <HBA>
3

>  <HBD>
0

>  <TPSA>
29.54

>  <cid>
19083

>  <dipole>
2.18

>  <excitation_energy_1>
5.925

>  <excitation_energy_2>
6.279

>  <excitation_energy_3>
6.399

>  <excitation_energy_4>
6.498

>  <homo_energy>
-6.343

>  <homo_lumo_gap>
7.919

>  <logP>
1.485

>  <lumo_energy>
1.576

>  <melting_point>
-1.82

>  <molecular_refractivity>
40.33

>  <oscillator_strength_1>
0.0437

>  <oscillator_strength_2>
0.0329

>  <oscillator_strength_3>
0.0181

>  <oscillator_strength_4>
0.0483

>  <open_babel_can_smiles>
CCOC(=O)N(CC)CC

>  <mulliken_charges>
25
1   -0.446917
2   -0.443973
3   -0.46201
4   -0.131572
5   -0.130502
6   -0.032596
7   0.803731
8   -0.447632
9   -0.541338
10   -0.50042
11   0.142917
12   0.144125
13   0.17525
14   0.142957
15   0.163478
16   0.149967
17   0.145909
18   0.178441
19   0.150842
20   0.136599
21   0.175611
22   0.170527
23   0.141471
24   0.169591
25   0.145545

>  <lowdin_charges>
25
1   -0.452299
2   -0.455036
3   -0.454095
4   -0.185865
5   -0.191211
6   -0.121086
7   0.209348
8   -0.110827
9   -0.332287
10   -0.218039
11   0.152308
12   0.146329
13   0.162751
14   0.153287
15   0.157195
16   0.149868
17   0.155609
18   0.16464
19   0.152304
20   0.142169
21   0.164457
22   0.16051
23   0.145255
24   0.15846
25   0.146255

$$$$

