PCCDB-ID:  31156
public computational chemistry database (PCCDB) project, http://pccdb.org

 35 37  0  0  1  0  0  0  0  0999 V2000
    2.4314    0.5709   -0.2862 C   0  0  0  0  0  0  0  0  0  0  0  0
   -4.9999    1.0483   -0.7513 C   0  0  0  0  0  0  0  0  0  0  0  0
    2.3198   -0.8184   -0.3006 C   0  0  0  0  0  0  0  0  0  0  0  0
   -5.1312   -0.3642   -0.1684 C   0  0  0  0  0  0  0  0  0  0  0  0
    1.2681    1.3274   -0.1757 C   0  0  0  0  0  0  0  0  0  0  0  0
   -3.7425    1.7428   -0.2137 C   0  0  0  0  0  0  0  0  0  0  0  0
    1.0732   -1.4332   -0.2231 C   0  0  0  0  0  0  0  0  0  0  0  0
   -3.8575   -1.1927   -0.3975 C   0  0  0  0  0  0  0  0  0  0  0  0
   -1.2223    1.6002    0.0912 C   0  0  0  0  0  0  0  0  0  0  0  0
    0.0047    0.7374   -0.0789 C   0  0  0  0  0  0  0  0  0  0  0  0
   -2.4725    0.9080   -0.4469 C   0  0  1  0  0  0  0  0  0  0  0  0
   -0.1065   -0.6700   -0.1221 C   0  0  0  0  0  0  0  0  0  0  0  0
   -2.6181   -0.4863    0.1858 C   0  0  2  0  0  0  0  0  0  0  0  0
   -1.4736   -2.6664    0.2054 C   0  0  0  0  0  0  0  0  0  0  0  0
   -1.0687   -3.6400   -0.5098 N   0  0  0  0  0  0  0  0  0  0  0  0
   -1.3885   -1.2866   -0.0564 N   0  0  0  0  0  0  0  0  0  0  0  0
   -2.0795   -2.9238    1.3958 O   0  0  0  0  0  0  0  0  0  0  0  0
    3.4010    1.0547   -0.3592 H   0  0  0  0  0  0  0  0  0  0  0  0
   -5.8919    1.6439   -0.5202 H   0  0  0  0  0  0  0  0  0  0  0  0
   -4.9399    0.9852   -1.8475 H   0  0  0  0  0  0  0  0  0  0  0  0
    3.2078   -1.4410   -0.3739 H   0  0  0  0  0  0  0  0  0  0  0  0
   -5.9904   -0.8842   -0.6095 H   0  0  0  0  0  0  0  0  0  0  0  0
   -5.3300   -0.2963    0.9111 H   0  0  0  0  0  0  0  0  0  0  0  0
    1.3289    2.4138   -0.1534 H   0  0  0  0  0  0  0  0  0  0  0  0
   -3.8575    1.9243    0.8658 H   0  0  0  0  0  0  0  0  0  0  0  0
   -3.6166    2.7282   -0.6812 H   0  0  0  0  0  0  0  0  0  0  0  0
    1.0229   -2.5147   -0.2238 H   0  0  0  0  0  0  0  0  0  0  0  0
   -3.6988   -1.3410   -1.4748 H   0  0  0  0  0  0  0  0  0  0  0  0
   -3.9804   -2.1820    0.0513 H   0  0  0  0  0  0  0  0  0  0  0  0
   -1.0758    2.5630   -0.4146 H   0  0  0  0  0  0  0  0  0  0  0  0
   -1.3749    1.8358    1.1564 H   0  0  0  0  0  0  0  0  0  0  0  0
   -2.3462    0.7623   -1.5309 H   0  0  0  0  0  0  0  0  0  0  0  0
   -2.7630   -0.3620    1.2707 H   0  0  0  0  0  0  0  0  0  0  0  0
   -0.7054   -3.3001   -1.3996 H   0  0  0  0  0  0  0  0  0  0  0  0
   -2.1555   -3.8948    1.4397 H   0  0  0  0  0  0  0  0  0  0  0  0
  1  5  1  0  0  0  0
  2 19  1  0  0  0  0
  2  6  1  0  0  0  0
  2  4  1  0  0  0  0
  3  1  2  0  0  0  0
  3  7  1  0  0  0  0
  4 23  1  0  0  0  0
  5 24  1  0  0  0  0
  5 10  2  0  0  0  0
  6 25  1  0  0  0  0
  7 12  2  0  0  0  0
  8  4  1  0  0  0  0
  8 29  1  0  0  0  0
  8 13  1  0  0  0  0
  9 31  1  0  0  0  0
 10  9  1  0  0  0  0
 11 32  1  6  0  0  0
 11  6  1  0  0  0  0
 11  9  1  0  0  0  0
 11 13  1  0  0  0  0
 12 10  1  0  0  0  0
 12 16  1  0  0  0  0
 13 33  1  1  0  0  0
 14 17  1  0  0  0  0
 15 14  2  0  0  0  0
 16 13  1  0  0  0  0
 16 14  1  0  0  0  0
 17 35  1  0  0  0  0
 18  1  1  0  0  0  0
 20  2  1  0  0  0  0
 21  3  1  0  0  0  0
 22  4  1  0  0  0  0
 26  6  1  0  0  0  0
 27  7  1  0  0  0  0
 28  8  1  0  0  0  0
 30  9  1  0  0  0  0
 34 15  1  0  0  0  0
M  END
>  <HBA>
3

>  <HBD>
1

>  <TPSA>
46.33

>  <cid>
31156

>  <dipole>
2.12

>  <excitation_energy_1>
4.486

>  <excitation_energy_2>
4.78

>  <excitation_energy_3>
4.934

>  <excitation_energy_4>
5.199

>  <homo_energy>
-5.363

>  <homo_lumo_gap>
5.434

>  <logP>
3.452

>  <lumo_energy>
0.071

>  <melting_point>
145.31

>  <molecular_refractivity>
71.65

>  <oscillator_strength_1>
0.0396

>  <oscillator_strength_2>
0.0907

>  <oscillator_strength_3>
0.0044

>  <oscillator_strength_4>
0.0071

>  <open_babel_can_smiles>
OC(=N)N1[C@@H]2CCCC[C@H]2Cc2c1cccc2

>  <mulliken_charges>
35
1   -0.130112
2   -0.2603
3   -0.140927
4   -0.267312
5   -0.205209
6   -0.263893
7   -0.203533
8   -0.288443
9   -0.343909
10   0.124252
11   -0.114997
12   0.309048
13   0.074605
14   0.595439
15   -0.614657
16   -0.596163
17   -0.57407
18   0.121795
19   0.134197
20   0.132104
21   0.12643
22   0.137497
23   0.134753
24   0.118638
25   0.130032
26   0.135203
27   0.148363
28   0.13791
29   0.154861
30   0.144054
31   0.149789
32   0.133227
33   0.141529
34   0.30169
35   0.418104

>  <lowdin_charges>
35
1   -0.179605
2   -0.276421
3   -0.151725
4   -0.275265
5   -0.155401
6   -0.273246
7   -0.201969
8   -0.285198
9   -0.270277
10   -0.039559
11   -0.130173
12   0.055422
13   -0.050154
14   0.165526
15   -0.43707
16   -0.124883
17   -0.365069
18   0.15534
19   0.146283
20   0.137712
21   0.157429
22   0.148893
23   0.13921
24   0.151073
25   0.137801
26   0.146251
27   0.166906
28   0.142504
29   0.155263
30   0.151876
31   0.149254
32   0.140684
33   0.137525
34   0.267623
35   0.363442

$$$$

