PCCDB-ID:  62572
public computational chemistry database (PCCDB) project, http://pccdb.org

 21 20  0  0  1  0  0  0  0  0999 V2000
    1.8793   -2.7439   -1.2868 C   0  0  0  0  0  0  0  0  0  0  0  0
    4.0730    1.9343   -0.5602 C   0  0  0  0  0  0  0  0  0  0  0  0
    3.0179   -3.1187   -0.3512 C   0  0  0  0  0  0  0  0  0  0  0  0
    5.2966   -0.2107    0.1319 C   0  0  0  0  0  0  0  0  0  0  0  0
    5.0390    1.2814    0.4357 C   0  0  2  0  0  0  0  0  0  0  0  0
    4.0607   -1.0721    0.2935 C   0  0  0  0  0  0  0  0  0  0  0  0
    4.6163    1.4617    1.7788 O   0  0  0  0  0  0  0  0  0  0  0  0
    3.1283   -0.8156    1.0387 O   0  0  0  0  0  0  0  0  0  0  0  0
    4.1217   -2.1818   -0.4630 O   0  0  0  0  0  0  0  0  0  0  0  0
    1.0964   -3.5096   -1.2420 H   0  0  0  0  0  0  0  0  0  0  0  0
    2.2317   -2.6728   -2.3210 H   0  0  0  0  0  0  0  0  0  0  0  0
    1.4391   -1.7865   -0.9945 H   0  0  0  0  0  0  0  0  0  0  0  0
    4.4528    1.8696   -1.5874 H   0  0  0  0  0  0  0  0  0  0  0  0
    3.9429    2.9900   -0.3042 H   0  0  0  0  0  0  0  0  0  0  0  0
    3.0887    1.4537   -0.5256 H   0  0  0  0  0  0  0  0  0  0  0  0
    3.4589   -4.0817   -0.6194 H   0  0  0  0  0  0  0  0  0  0  0  0
    2.6861   -3.1470    0.6893 H   0  0  0  0  0  0  0  0  0  0  0  0
    6.0436   -0.5878    0.8432 H   0  0  0  0  0  0  0  0  0  0  0  0
    5.7087   -0.3549   -0.8722 H   0  0  0  0  0  0  0  0  0  0  0  0
    6.0062    1.7935    0.3667 H   0  0  0  0  0  0  0  0  0  0  0  0
    3.8289    0.8958    1.8827 H   0  0  0  0  0  0  0  0  0  0  0  0
  1 10  1  0  0  0  0
  1 12  1  0  0  0  0
  1  3  1  0  0  0  0
  2 15  1  0  0  0  0
  2 14  1  0  0  0  0
  2  5  1  0  0  0  0
  3 17  1  0  0  0  0
  4  6  1  0  0  0  0
  4  5  1  0  0  0  0
  4 18  1  0  0  0  0
  5 20  1  6  0  0  0
  5  7  1  0  0  0  0
  6  8  2  0  0  0  0
  7 21  1  0  0  0  0
  9  3  1  0  0  0  0
  9  6  1  0  0  0  0
 11  1  1  0  0  0  0
 13  2  1  0  0  0  0
 16  3  1  0  0  0  0
 19  4  1  0  0  0  0
M  END
>  <HBA>
3

>  <HBD>
1

>  <TPSA>
46.53

>  <cid>
62572

>  <dipole>
3.32

>  <excitation_energy_1>
5.786

>  <excitation_energy_2>
5.972

>  <excitation_energy_3>
6.628

>  <excitation_energy_4>
7.131

>  <homo_energy>
-6.925

>  <homo_lumo_gap>
6.934

>  <logP>
0.32

>  <lumo_energy>
0.008

>  <melting_point>
4.5

>  <molecular_refractivity>
33.4

>  <oscillator_strength_1>
0.0004

>  <oscillator_strength_2>
0.0024

>  <oscillator_strength_3>
0.0217

>  <oscillator_strength_4>
0.0002

>  <open_babel_can_smiles>
CCOC(=O)C[C@H](O)C

>  <mulliken_charges>
21
1   -0.462688
2   -0.46231
3   -0.049722
4   -0.373845
5   0.144057
6   0.636264
7   -0.642011
8   -0.502244
9   -0.454555
10   0.154386
11   0.160051
12   0.176685
13   0.134241
14   0.161441
15   0.150876
16   0.157823
17   0.17396
18   0.18733
19   0.165116
20   0.134118
21   0.411026

>  <lowdin_charges>
21
1   -0.453817
2   -0.462781
3   -0.126365
4   -0.321408
5   0.007643
6   0.208082
7   -0.474765
8   -0.286954
9   -0.184255
10   0.161652
11   0.156595
12   0.165488
13   0.146814
14   0.159872
15   0.152218
16   0.154855
17   0.159265
18   0.181848
19   0.167722
20   0.143679
21   0.344611

$$$$

