PCCDB-ID:  15560
public computational chemistry database (PCCDB) project, http://pccdb.org

 26 25  0  0  1  0  0  0  0  0999 V2000
   -0.1728   -0.4737    0.1426 C   0  0  0  0  0  0  0  0  0  0  0  0
   -1.2488    2.2403   -2.5355 C   0  0  0  0  0  0  0  0  0  0  0  0
   -0.2903    0.9126   -0.5674 C   0  0  1  0  0  0  0  0  0  0  0  0
   -1.0426    0.8454   -1.9242 C   0  0  2  0  0  0  0  0  0  0  0  0
   -1.5128   -0.9889    0.6362 C   0  0  0  0  0  0  0  0  0  0  0  0
   -1.9646    2.1751   -3.8786 C   0  0  0  0  0  0  0  0  0  0  0  0
   -0.9247    1.8893    0.4151 C   0  0  0  0  0  0  0  0  0  0  0  0
   -0.1880    0.0222   -2.8864 C   0  0  0  0  0  0  0  0  0  0  0  0
   -2.3632   -1.5119   -0.0465 O   0  0  0  0  0  0  0  0  0  0  0  0
   -1.6712   -0.7679    1.9655 O   0  0  0  0  0  0  0  0  0  0  0  0
   -2.2530    1.1542   -4.4511 O   0  0  0  0  0  0  0  0  0  0  0  0
   -2.2719    3.3784   -4.4305 O   0  0  0  0  0  0  0  0  0  0  0  0
   -2.0895    2.2231    0.4395 O   0  0  0  0  0  0  0  0  0  0  0  0
   -0.0197    2.3229    1.3220 O   0  0  0  0  0  0  0  0  0  0  0  0
    0.8106    0.4462   -3.4300 O   0  0  0  0  0  0  0  0  0  0  0  0
   -0.6144   -1.2482   -3.0175 O   0  0  0  0  0  0  0  0  0  0  0  0
    0.5180   -0.3827    0.9834 H   0  0  0  0  0  0  0  0  0  0  0  0
    0.2229   -1.2035   -0.5673 H   0  0  0  0  0  0  0  0  0  0  0  0
   -0.2759    2.7257   -2.6911 H   0  0  0  0  0  0  0  0  0  0  0  0
   -1.8340    2.8617   -1.8503 H   0  0  0  0  0  0  0  0  0  0  0  0
    0.7340    1.2537   -0.7554 H   0  0  0  0  0  0  0  0  0  0  0  0
   -2.0062    0.3511   -1.7891 H   0  0  0  0  0  0  0  0  0  0  0  0
   -2.5696   -1.0802    2.1870 H   0  0  0  0  0  0  0  0  0  0  0  0
   -1.9837    4.0987   -3.8455 H   0  0  0  0  0  0  0  0  0  0  0  0
   -0.5101    2.8773    1.9587 H   0  0  0  0  0  0  0  0  0  0  0  0
   -0.0122   -1.6747   -3.6573 H   0  0  0  0  0  0  0  0  0  0  0  0
  1  5  1  0  0  0  0
  1 17  1  0  0  0  0
  2  4  1  0  0  0  0
  2 20  1  0  0  0  0
  3 21  1  6  0  0  0
  3  1  1  0  0  0  0
  3  7  1  0  0  0  0
  4 22  1  1  0  0  0
  4  3  1  0  0  0  0
  5 10  1  0  0  0  0
  6  2  1  0  0  0  0
  7 13  2  0  0  0  0
  7 14  1  0  0  0  0
  8  4  1  0  0  0  0
  9  5  2  0  0  0  0
 10 23  1  0  0  0  0
 11  6  2  0  0  0  0
 12  6  1  0  0  0  0
 12 24  1  0  0  0  0
 14 25  1  0  0  0  0
 15  8  2  0  0  0  0
 16  8  1  0  0  0  0
 18  1  1  0  0  0  0
 19  2  1  0  0  0  0
 26 16  1  0  0  0  0
M  END
>  <HBA>
8

>  <HBD>
4

>  <TPSA>
149.2

>  <cid>
15560

>  <dipole>
5.57

>  <excitation_energy_1>
5.575

>  <excitation_energy_2>
5.668

>  <excitation_energy_3>
5.777

>  <excitation_energy_4>
5.8

>  <homo_energy>
-7.535

>  <homo_lumo_gap>
7.015

>  <logP>
-0.663

>  <lumo_energy>
-0.52

>  <melting_point>
280.74

>  <molecular_refractivity>
47.66

>  <oscillator_strength_1>
0.0005

>  <oscillator_strength_2>
0.0017

>  <oscillator_strength_3>
0.001

>  <oscillator_strength_4>
0.0002

>  <open_babel_can_smiles>
OC(=O)[C@H]([C@H](C(=O)O)CC(=O)O)CC(=O)O

>  <mulliken_charges>
26
1   -0.352791
2   -0.442042
3   -0.209817
4   -0.137149
5   0.572146
6   0.628439
7   0.595044
8   0.590982
9   -0.442294
10   -0.563014
11   -0.43674
12   -0.569251
13   -0.467543
14   -0.565892
15   -0.48233
16   -0.548842
17   0.189665
18   0.200415
19   0.189551
20   0.195802
21   0.189367
22   0.212334
23   0.41372
24   0.41224
25   0.415906
26   0.412094

>  <lowdin_charges>
26
1   -0.298125
2   -0.33292
3   -0.140398
4   -0.142301
5   0.19608
6   0.20494
7   0.19069
8   0.197852
9   -0.251333
10   -0.358261
11   -0.233352
12   -0.352912
13   -0.261677
14   -0.347302
15   -0.27754
16   -0.333286
17   0.177843
18   0.184372
19   0.174923
20   0.179926
21   0.176021
22   0.188996
23   0.363213
24   0.361551
25   0.367549
26   0.365451

$$$$

